
     RDKit          3D

 43 46  0  0  0  0  0  0  0  0999 V2000
  140.0580   71.8910  224.9040 O   0  0  0  0  0  0  0  0  0  0  0  0
  139.5530   70.7350  224.9830 C   0  0  0  0  0  0  0  0  0  0  0  0
  139.9000   69.9010  226.0630 C   0  0  0  0  0  0  0  0  0  0  0  0
  140.8110   70.3000  227.0630 C   0  0  0  0  0  0  0  0  0  0  0  0
  141.1270   69.4270  228.1110 C   0  0  0  0  0  0  0  0  0  0  0  0
  140.5430   68.1600  228.1700 C   0  0  0  0  0  0  0  0  0  0  0  0
  139.6330   67.7610  227.1880 C   0  0  0  0  0  0  0  0  0  0  0  0
  139.3110   68.6260  226.1380 C   0  0  0  0  0  0  0  0  0  0  0  0
  138.4330   68.2360  225.1840 N   0  0  0  0  0  0  0  0  0  0  0  0
  138.1110   69.0400  224.1380 C   0  0  0  0  0  0  0  0  0  0  0  0
  137.1350   68.5290  223.1620 C   0  0  0  0  0  0  0  0  0  0  0  0
  135.8660   68.9530  223.1910 C   0  0  0  0  0  0  0  0  0  0  0  0
  135.2090   69.4900  224.4060 C   0  0  0  0  0  0  0  0  0  0  0  0
  135.0870   70.8680  224.6580 C   0  0  0  0  0  0  0  0  0  0  0  0
  134.4540   71.3160  225.8230 C   0  0  0  0  0  0  0  0  0  0  0  0
  133.9270   70.3780  226.7140 C   0  0  0  0  0  0  0  0  0  0  0  0
  134.0310   69.0500  226.4480 N   0  0  0  0  0  0  0  0  0  0  0  0
  134.6530   68.5910  225.3290 C   0  0  0  0  0  0  0  0  0  0  0  0
  138.6690   70.2950  224.0240 N   0  0  0  0  0  0  0  0  0  0  0  0
  138.2860   71.1800  222.8980 C   0  0  0  0  0  0  0  0  0  0  0  0
  139.5120   71.6630  222.1490 C   0  0  0  0  0  0  0  0  0  0  0  0
  139.8790   73.0170  222.1920 C   0  0  0  0  0  0  0  0  0  0  0  0
  141.0660   73.4430  221.5950 C   0  0  0  0  0  0  0  0  0  0  0  0
  141.8930   72.5240  220.9400 C   0  0  0  0  0  0  0  0  0  0  0  0
  143.4020   73.0480  220.2330 Cl  0  0  0  0  0  0  0  0  0  0  0  0
  141.5180   71.1790  220.8620 C   0  0  0  0  0  0  0  0  0  0  0  0
  140.3360   70.7470  221.4710 C   0  0  0  0  0  0  0  0  0  0  0  0
  141.2733   71.2972  227.0196 H   0  0  0  0  0  0  0  0  0  0  0  0
  141.8375   69.7402  228.8902 H   0  0  0  0  0  0  0  0  0  0  0  0
  140.8000   67.4748  228.9912 H   0  0  0  0  0  0  0  0  0  0  0  0
  139.1692   66.7650  227.2410 H   0  0  0  0  0  0  0  0  0  0  0  0
  137.4500   67.7953  222.4054 H   0  0  0  0  0  0  0  0  0  0  0  0
  135.2786   68.9000  222.2624 H   0  0  0  0  0  0  0  0  0  0  0  0
  135.4900   71.5954  223.9379 H   0  0  0  0  0  0  0  0  0  0  0  0
  134.3725   72.3924  226.0343 H   0  0  0  0  0  0  0  0  0  0  0  0
  133.4265   70.7157  227.6335 H   0  0  0  0  0  0  0  0  0  0  0  0
  134.7207   67.5084  225.1463 H   0  0  0  0  0  0  0  0  0  0  0  0
  137.6376   70.6225  222.2061 H   0  0  0  0  0  0  0  0  0  0  0  0
  137.7543   72.0538  223.3027 H   0  0  0  0  0  0  0  0  0  0  0  0
  139.2283   73.7452  222.6983 H   0  0  0  0  0  0  0  0  0  0  0  0
  141.3523   74.5042  221.6394 H   0  0  0  0  0  0  0  0  0  0  0  0
  142.1528   70.4613  220.3217 H   0  0  0  0  0  0  0  0  0  0  0  0
  140.0493   69.6863  221.4196 H   0  0  0  0  0  0  0  0  0  0  0  0
  1  2  2  0
  2  3  1  0
  3  4  2  0
  4  5  1  0
  5  6  2  0
  6  7  1  0
  7  8  2  0
  8  9  1  0
  9 10  2  0
 10 11  1  0
 11 12  2  0
 12 13  1  0
 13 14  2  0
 14 15  1  0
 15 16  2  0
 16 17  1  0
 17 18  2  0
 10 19  1  0
 19 20  1  0
 20 21  1  0
 21 22  2  0
 22 23  1  0
 23 24  2  0
 24 25  1  0
 24 26  1  0
 26 27  2  0
 19  2  1  0
 27 21  1  0
  8  3  1  0
 18 13  1  0
  4 28  1  0
  5 29  1  0
  6 30  1  0
  7 31  1  0
 11 32  1  0
 12 33  1  0
 14 34  1  0
 15 35  1  0
 16 36  1  0
 18 37  1  0
 20 38  1  0
 20 39  1  0
 22 40  1  0
 23 41  1  0
 26 42  1  0
 27 43  1  0
M  END
>  <meeko>  (1) 
{"free_energy": -7.26, "intermolecular_energy": -8.75, "internal_energy": -1.44, "cluster_size": 6, "cluster_id": 5, "rank_in_cluster": 4}

$$$$

     RDKit          3D

 43 46  0  0  0  0  0  0  0  0999 V2000
  140.3000   71.9960  224.9450 O   0  0  0  0  0  0  0  0  0  0  0  0
  139.7300   70.8690  225.0120 C   0  0  0  0  0  0  0  0  0  0  0  0
  140.0690   69.9830  226.0520 C   0  0  0  0  0  0  0  0  0  0  0  0
  141.0420   70.2950  227.0230 C   0  0  0  0  0  0  0  0  0  0  0  0
  141.3470   69.3730  228.0320 C   0  0  0  0  0  0  0  0  0  0  0  0
  140.6900   68.1420  228.0780 C   0  0  0  0  0  0  0  0  0  0  0  0
  139.7190   67.8280  227.1240 C   0  0  0  0  0  0  0  0  0  0  0  0
  139.4070   68.7430  226.1140 C   0  0  0  0  0  0  0  0  0  0  0  0
  138.4700   68.4360  225.1870 N   0  0  0  0  0  0  0  0  0  0  0  0
  138.1550   69.2900  224.1790 C   0  0  0  0  0  0  0  0  0  0  0  0
  137.1120   68.8690  223.2310 C   0  0  0  0  0  0  0  0  0  0  0  0
  135.9080   69.4520  223.2490 C   0  0  0  0  0  0  0  0  0  0  0  0
  135.2000   69.8330  224.4940 C   0  0  0  0  0  0  0  0  0  0  0  0
  134.9900   71.1720  224.8710 C   0  0  0  0  0  0  0  0  0  0  0  0
  134.3130   71.4700  226.0580 C   0  0  0  0  0  0  0  0  0  0  0  0
  133.8290   70.4230  226.8460 C   0  0  0  0  0  0  0  0  0  0  0  0
  134.0170   69.1340  226.4590 N   0  0  0  0  0  0  0  0  0  0  0  0
  134.6840   68.8200  225.3160 C   0  0  0  0  0  0  0  0  0  0  0  0
  138.7830   70.5130  224.0780 N   0  0  0  0  0  0  0  0  0  0  0  0
  138.4090   71.4540  222.9950 C   0  0  0  0  0  0  0  0  0  0  0  0
  139.6400   71.9630  222.2730 C   0  0  0  0  0  0  0  0  0  0  0  0
  139.8780   73.3420  222.1660 C   0  0  0  0  0  0  0  0  0  0  0  0
  141.0640   73.8090  221.5980 C   0  0  0  0  0  0  0  0  0  0  0  0
  142.0200   72.9050  221.1220 C   0  0  0  0  0  0  0  0  0  0  0  0
  143.5240   73.4870  220.4540 Cl  0  0  0  0  0  0  0  0  0  0  0  0
  141.7750   71.5290  221.1920 C   0  0  0  0  0  0  0  0  0  0  0  0
  140.5930   71.0580  221.7730 C   0  0  0  0  0  0  0  0  0  0  0  0
  141.5622   71.2636  226.9882 H   0  0  0  0  0  0  0  0  0  0  0  0
  142.1056   69.6191  228.7896 H   0  0  0  0  0  0  0  0  0  0  0  0
  140.9376   67.4173  228.8676 H   0  0  0  0  0  0  0  0  0  0  0  0
  139.1992   66.8595  227.1675 H   0  0  0  0  0  0  0  0  0  0  0  0
  137.3230   68.0710  222.5039 H   0  0  0  0  0  0  0  0  0  0  0  0
  135.4166   69.6600  222.2871 H   0  0  0  0  0  0  0  0  0  0  0  0
  135.3592   71.9866  224.2306 H   0  0  0  0  0  0  0  0  0  0  0  0
  134.1636   72.5151  226.3670 H   0  0  0  0  0  0  0  0  0  0  0  0
  133.2944   70.6425  227.7820 H   0  0  0  0  0  0  0  0  0  0  0  0
  134.8197   67.7653  225.0344 H   0  0  0  0  0  0  0  0  0  0  0  0
  137.7582   70.9352  222.2757 H   0  0  0  0  0  0  0  0  0  0  0  0
  137.8826   72.3112  223.4400 H   0  0  0  0  0  0  0  0  0  0  0  0
  139.1267   74.0576  222.5313 H   0  0  0  0  0  0  0  0  0  0  0  0
  141.2478   74.8910  221.5243 H   0  0  0  0  0  0  0  0  0  0  0  0
  142.5118   70.8179  220.7902 H   0  0  0  0  0  0  0  0  0  0  0  0
  140.4083   69.9756  221.8390 H   0  0  0  0  0  0  0  0  0  0  0  0
  1  2  2  0
  2  3  1  0
  3  4  2  0
  4  5  1  0
  5  6  2  0
  6  7  1  0
  7  8  2  0
  8  9  1  0
  9 10  2  0
 10 11  1  0
 11 12  2  0
 12 13  1  0
 13 14  2  0
 14 15  1  0
 15 16  2  0
 16 17  1  0
 17 18  2  0
 10 19  1  0
 19 20  1  0
 20 21  1  0
 21 22  2  0
 22 23  1  0
 23 24  2  0
 24 25  1  0
 24 26  1  0
 26 27  2  0
 19  2  1  0
 27 21  1  0
  8  3  1  0
 18 13  1  0
  4 28  1  0
  5 29  1  0
  6 30  1  0
  7 31  1  0
 11 32  1  0
 12 33  1  0
 14 34  1  0
 15 35  1  0
 16 36  1  0
 18 37  1  0
 20 38  1  0
 20 39  1  0
 22 40  1  0
 23 41  1  0
 26 42  1  0
 27 43  1  0
M  END
>  <meeko>  (2) 
{"free_energy": -7.36, "intermolecular_energy": -8.85, "internal_energy": -1.33, "cluster_size": 6, "cluster_id": 5, "rank_in_cluster": 2}

$$$$

     RDKit          3D

 43 46  0  0  0  0  0  0  0  0999 V2000
  140.8980   73.3860  221.9870 O   0  0  0  0  0  0  0  0  0  0  0  0
  139.7400   73.8840  222.0920 C   0  0  0  0  0  0  0  0  0  0  0  0
  139.5810   75.2820  222.0480 C   0  0  0  0  0  0  0  0  0  0  0  0
  140.6740   76.1610  221.9070 C   0  0  0  0  0  0  0  0  0  0  0  0
  140.4600   77.5450  221.8770 C   0  0  0  0  0  0  0  0  0  0  0  0
  139.1660   78.0580  221.9890 C   0  0  0  0  0  0  0  0  0  0  0  0
  138.0770   77.1930  222.1200 C   0  0  0  0  0  0  0  0  0  0  0  0
  138.2810   75.8090  222.1500 C   0  0  0  0  0  0  0  0  0  0  0  0
  137.2270   74.9710  222.2830 N   0  0  0  0  0  0  0  0  0  0  0  0
  137.3860   73.6240  222.3370 C   0  0  0  0  0  0  0  0  0  0  0  0
  136.1750   72.7990  222.4680 C   0  0  0  0  0  0  0  0  0  0  0  0
  135.7160   72.4610  223.6790 C   0  0  0  0  0  0  0  0  0  0  0  0
  135.0950   73.4250  224.6180 C   0  0  0  0  0  0  0  0  0  0  0  0
  135.3120   74.8130  224.5380 C   0  0  0  0  0  0  0  0  0  0  0  0
  134.6970   75.6740  225.4530 C   0  0  0  0  0  0  0  0  0  0  0  0
  133.8490   75.1400  226.4260 C   0  0  0  0  0  0  0  0  0  0  0  0
  133.6290   73.8010  226.4790 N   0  0  0  0  0  0  0  0  0  0  0  0
  134.2260   72.9420  225.6090 C   0  0  0  0  0  0  0  0  0  0  0  0
  138.6430   73.0650  222.2460 N   0  0  0  0  0  0  0  0  0  0  0  0
  138.8060   71.5930  222.2700 C   0  0  0  0  0  0  0  0  0  0  0  0
  139.1650   71.1120  223.6620 C   0  0  0  0  0  0  0  0  0  0  0  0
  138.3900   70.1270  224.2930 C   0  0  0  0  0  0  0  0  0  0  0  0
  138.7830   69.6060  225.5260 C   0  0  0  0  0  0  0  0  0  0  0  0
  139.9470   70.0700  226.1480 C   0  0  0  0  0  0  0  0  0  0  0  0
  140.4640   69.3850  227.6680 Cl  0  0  0  0  0  0  0  0  0  0  0  0
  140.7080   71.0760  225.5430 C   0  0  0  0  0  0  0  0  0  0  0  0
  140.3230   71.5910  224.3010 C   0  0  0  0  0  0  0  0  0  0  0  0
  141.6947   75.7602  221.8205 H   0  0  0  0  0  0  0  0  0  0  0  0
  141.3136   78.2297  221.7649 H   0  0  0  0  0  0  0  0  0  0  0  0
  139.0039   79.1459  221.9740 H   0  0  0  0  0  0  0  0  0  0  0  0
  137.0582   77.6002  222.1996 H   0  0  0  0  0  0  0  0  0  0  0  0
  135.6444   72.4584  221.5667 H   0  0  0  0  0  0  0  0  0  0  0  0
  135.8045   71.4109  223.9944 H   0  0  0  0  0  0  0  0  0  0  0  0
  135.9666   75.2219  223.7542 H   0  0  0  0  0  0  0  0  0  0  0  0
  134.8789   76.7579  225.4069 H   0  0  0  0  0  0  0  0  0  0  0  0
  133.3581   75.8058  227.1511 H   0  0  0  0  0  0  0  0  0  0  0  0
  134.0265   71.8627  225.6826 H   0  0  0  0  0  0  0  0  0  0  0  0
  137.8628   71.1209  221.9578 H   0  0  0  0  0  0  0  0  0  0  0  0
  139.6191   71.3178  221.5821 H   0  0  0  0  0  0  0  0  0  0  0  0
  137.4689   69.7642  223.8135 H   0  0  0  0  0  0  0  0  0  0  0  0
  138.1755   68.8276  226.0108 H   0  0  0  0  0  0  0  0  0  0  0  0
  141.6083   71.4616  226.0437 H   0  0  0  0  0  0  0  0  0  0  0  0
  140.9285   72.3743  223.8216 H   0  0  0  0  0  0  0  0  0  0  0  0
  1  2  2  0
  2  3  1  0
  3  4  2  0
  4  5  1  0
  5  6  2  0
  6  7  1  0
  7  8  2  0
  8  9  1  0
  9 10  2  0
 10 11  1  0
 11 12  2  0
 12 13  1  0
 13 14  2  0
 14 15  1  0
 15 16  2  0
 16 17  1  0
 17 18  2  0
 10 19  1  0
 19 20  1  0
 20 21  1  0
 21 22  2  0
 22 23  1  0
 23 24  2  0
 24 25  1  0
 24 26  1  0
 26 27  2  0
 19  2  1  0
 27 21  1  0
  8  3  1  0
 18 13  1  0
  4 28  1  0
  5 29  1  0
  6 30  1  0
  7 31  1  0
 11 32  1  0
 12 33  1  0
 14 34  1  0
 15 35  1  0
 16 36  1  0
 18 37  1  0
 20 38  1  0
 20 39  1  0
 22 40  1  0
 23 41  1  0
 26 42  1  0
 27 43  1  0
M  END
>  <meeko>  (3) 
{"free_energy": -7.36, "intermolecular_energy": -8.86, "internal_energy": -1.36, "cluster_size": 4, "cluster_id": 6, "rank_in_cluster": 2}

$$$$

     RDKit          3D

 43 46  0  0  0  0  0  0  0  0999 V2000
  139.2170   67.4170  225.5630 O   0  0  0  0  0  0  0  0  0  0  0  0
  139.4660   68.6010  225.1970 C   0  0  0  0  0  0  0  0  0  0  0  0
  140.0090   69.5120  226.1240 C   0  0  0  0  0  0  0  0  0  0  0  0
  140.2740   69.1590  227.4620 C   0  0  0  0  0  0  0  0  0  0  0  0
  140.8070   70.1060  228.3450 C   0  0  0  0  0  0  0  0  0  0  0  0
  141.0770   71.4030  227.9020 C   0  0  0  0  0  0  0  0  0  0  0  0
  140.8260   71.7580  226.5750 C   0  0  0  0  0  0  0  0  0  0  0  0
  140.2940   70.8180  225.6870 C   0  0  0  0  0  0  0  0  0  0  0  0
  140.0460   71.1640  224.4020 N   0  0  0  0  0  0  0  0  0  0  0  0
  139.5110   70.2850  223.5150 C   0  0  0  0  0  0  0  0  0  0  0  0
  139.2930   70.7550  222.1380 C   0  0  0  0  0  0  0  0  0  0  0  0
  140.3040   71.2780  221.4350 C   0  0  0  0  0  0  0  0  0  0  0  0
  140.6360   72.7220  221.4260 C   0  0  0  0  0  0  0  0  0  0  0  0
  141.8060   73.2300  220.8300 C   0  0  0  0  0  0  0  0  0  0  0  0
  142.0640   74.6050  220.8520 C   0  0  0  0  0  0  0  0  0  0  0  0
  141.1370   75.4630  221.4480 C   0  0  0  0  0  0  0  0  0  0  0  0
  140.0000   74.9620  221.9990 N   0  0  0  0  0  0  0  0  0  0  0  0
  139.7330   73.6280  222.0020 C   0  0  0  0  0  0  0  0  0  0  0  0
  139.2120   68.9970  223.9030 N   0  0  0  0  0  0  0  0  0  0  0  0
  138.6610   68.0340  222.9210 C   0  0  0  0  0  0  0  0  0  0  0  0
  137.1510   68.1380  222.8510 C   0  0  0  0  0  0  0  0  0  0  0  0
  136.4270   67.3430  221.9490 C   0  0  0  0  0  0  0  0  0  0  0  0
  135.0320   67.3590  221.9600 C   0  0  0  0  0  0  0  0  0  0  0  0
  134.3440   68.1750  222.8640 C   0  0  0  0  0  0  0  0  0  0  0  0
  132.5990   68.1600  222.9110 Cl  0  0  0  0  0  0  0  0  0  0  0  0
  135.0570   68.9970  223.7440 C   0  0  0  0  0  0  0  0  0  0  0  0
  136.4550   68.9740  223.7430 C   0  0  0  0  0  0  0  0  0  0  0  0
  140.0620   68.1384  227.8133 H   0  0  0  0  0  0  0  0  0  0  0  0
  141.0134   69.8282  229.3891 H   0  0  0  0  0  0  0  0  0  0  0  0
  141.4884   72.1467  228.6003 H   0  0  0  0  0  0  0  0  0  0  0  0
  141.0470   72.7781  226.2279 H   0  0  0  0  0  0  0  0  0  0  0  0
  138.2940   70.6760  221.6843 H   0  0  0  0  0  0  0  0  0  0  0  0
  140.9228   70.5986  220.8304 H   0  0  0  0  0  0  0  0  0  0  0  0
  142.5181   72.5451  220.3465 H   0  0  0  0  0  0  0  0  0  0  0  0
  142.9859   75.0055  220.4052 H   0  0  0  0  0  0  0  0  0  0  0  0
  141.3274   76.5461  221.4715 H   0  0  0  0  0  0  0  0  0  0  0  0
  138.8034   73.2576  222.4588 H   0  0  0  0  0  0  0  0  0  0  0  0
  139.0833   68.2501  221.9286 H   0  0  0  0  0  0  0  0  0  0  0  0
  138.9289   67.0156  223.2389 H   0  0  0  0  0  0  0  0  0  0  0  0
  136.9617   66.7046  221.2303 H   0  0  0  0  0  0  0  0  0  0  0  0
  134.4711   66.7276  221.2552 H   0  0  0  0  0  0  0  0  0  0  0  0
  134.5180   69.6607  224.4360 H   0  0  0  0  0  0  0  0  0  0  0  0
  137.0134   69.6128  224.4431 H   0  0  0  0  0  0  0  0  0  0  0  0
  1  2  2  0
  2  3  1  0
  3  4  2  0
  4  5  1  0
  5  6  2  0
  6  7  1  0
  7  8  2  0
  8  9  1  0
  9 10  2  0
 10 11  1  0
 11 12  2  0
 12 13  1  0
 13 14  2  0
 14 15  1  0
 15 16  2  0
 16 17  1  0
 17 18  2  0
 10 19  1  0
 19 20  1  0
 20 21  1  0
 21 22  2  0
 22 23  1  0
 23 24  2  0
 24 25  1  0
 24 26  1  0
 26 27  2  0
 19  2  1  0
 27 21  1  0
  8  3  1  0
 18 13  1  0
  4 28  1  0
  5 29  1  0
  6 30  1  0
  7 31  1  0
 11 32  1  0
 12 33  1  0
 14 34  1  0
 15 35  1  0
 16 36  1  0
 18 37  1  0
 20 38  1  0
 20 39  1  0
 22 40  1  0
 23 41  1  0
 26 42  1  0
 27 43  1  0
M  END
>  <meeko>  (4) 
{"free_energy": -7.45, "intermolecular_energy": -8.94, "internal_energy": -1.2, "cluster_size": 1, "cluster_id": 3, "rank_in_cluster": 1}

$$$$

     RDKit          3D

 43 46  0  0  0  0  0  0  0  0999 V2000
  140.3200   72.0870  224.8500 O   0  0  0  0  0  0  0  0  0  0  0  0
  139.7330   70.9670  224.8570 C   0  0  0  0  0  0  0  0  0  0  0  0
  140.0180   70.0440  225.8810 C   0  0  0  0  0  0  0  0  0  0  0  0
  140.9540   70.3110  226.9000 C   0  0  0  0  0  0  0  0  0  0  0  0
  141.2060   69.3530  227.8900 C   0  0  0  0  0  0  0  0  0  0  0  0
  140.5320   68.1310  227.8700 C   0  0  0  0  0  0  0  0  0  0  0  0
  139.5960   67.8610  226.8690 C   0  0  0  0  0  0  0  0  0  0  0  0
  139.3380   68.8120  225.8760 C   0  0  0  0  0  0  0  0  0  0  0  0
  138.4350   68.5490  224.9030 N   0  0  0  0  0  0  0  0  0  0  0  0
  138.1730   69.4380  223.9110 C   0  0  0  0  0  0  0  0  0  0  0  0
  137.1640   69.0620  222.9090 C   0  0  0  0  0  0  0  0  0  0  0  0
  135.9180   68.7540  223.2870 C   0  0  0  0  0  0  0  0  0  0  0  0
  135.2350   69.3780  224.4440 C   0  0  0  0  0  0  0  0  0  0  0  0
  135.1650   70.7720  224.6260 C   0  0  0  0  0  0  0  0  0  0  0  0
  134.5040   71.3030  225.7380 C   0  0  0  0  0  0  0  0  0  0  0  0
  133.8970   70.4350  226.6480 C   0  0  0  0  0  0  0  0  0  0  0  0
  133.9510   69.0920  226.4500 N   0  0  0  0  0  0  0  0  0  0  0  0
  134.5990   68.5510  225.3830 C   0  0  0  0  0  0  0  0  0  0  0  0
  138.8200   70.6550  223.8750 N   0  0  0  0  0  0  0  0  0  0  0  0
  138.5030   71.6340  222.8090 C   0  0  0  0  0  0  0  0  0  0  0  0
  139.7640   72.0960  222.1070 C   0  0  0  0  0  0  0  0  0  0  0  0
  140.0380   73.4660  221.9730 C   0  0  0  0  0  0  0  0  0  0  0  0
  141.2500   73.8910  221.4250 C   0  0  0  0  0  0  0  0  0  0  0  0
  142.1950   72.9530  220.9960 C   0  0  0  0  0  0  0  0  0  0  0  0
  143.7300   73.4830  220.3550 Cl  0  0  0  0  0  0  0  0  0  0  0  0
  141.9160   71.5850  221.0940 C   0  0  0  0  0  0  0  0  0  0  0  0
  140.7080   71.1580  221.6540 C   0  0  0  0  0  0  0  0  0  0  0  0
  141.4873   71.2729  226.9179 H   0  0  0  0  0  0  0  0  0  0  0  0
  141.9365   69.5641  228.6849 H   0  0  0  0  0  0  0  0  0  0  0  0
  140.7386   67.3782  228.6450 H   0  0  0  0  0  0  0  0  0  0  0  0
  139.0613   66.8997  226.8615 H   0  0  0  0  0  0  0  0  0  0  0  0
  137.4352   69.0339  221.8433 H   0  0  0  0  0  0  0  0  0  0  0  0
  135.3710   67.9961  222.7070 H   0  0  0  0  0  0  0  0  0  0  0  0
  135.6314   71.4453  223.8917 H   0  0  0  0  0  0  0  0  0  0  0  0
  134.4627   72.3911  225.8940 H   0  0  0  0  0  0  0  0  0  0  0  0
  133.3740   70.8395  227.5271 H   0  0  0  0  0  0  0  0  0  0  0  0
  134.6246   67.4587  225.2554 H   0  0  0  0  0  0  0  0  0  0  0  0
  137.8339   71.1624  222.0742 H   0  0  0  0  0  0  0  0  0  0  0  0
  138.0157   72.5072  223.2673 H   0  0  0  0  0  0  0  0  0  0  0  0
  139.2950   74.2079  222.3010 H   0  0  0  0  0  0  0  0  0  0  0  0
  141.4622   74.9662  221.3304 H   0  0  0  0  0  0  0  0  0  0  0  0
  142.6461   70.8467  220.7309 H   0  0  0  0  0  0  0  0  0  0  0  0
  140.4952   70.0823  221.7406 H   0  0  0  0  0  0  0  0  0  0  0  0
  1  2  2  0
  2  3  1  0
  3  4  2  0
  4  5  1  0
  5  6  2  0
  6  7  1  0
  7  8  2  0
  8  9  1  0
  9 10  2  0
 10 11  1  0
 11 12  2  0
 12 13  1  0
 13 14  2  0
 14 15  1  0
 15 16  2  0
 16 17  1  0
 17 18  2  0
 10 19  1  0
 19 20  1  0
 20 21  1  0
 21 22  2  0
 22 23  1  0
 23 24  2  0
 24 25  1  0
 24 26  1  0
 26 27  2  0
 19  2  1  0
 27 21  1  0
  8  3  1  0
 18 13  1  0
  4 28  1  0
  5 29  1  0
  6 30  1  0
  7 31  1  0
 11 32  1  0
 12 33  1  0
 14 34  1  0
 15 35  1  0
 16 36  1  0
 18 37  1  0
 20 38  1  0
 20 39  1  0
 22 40  1  0
 23 41  1  0
 26 42  1  0
 27 43  1  0
M  END
>  <meeko>  (5) 
{"free_energy": -7.26, "intermolecular_energy": -8.75, "internal_energy": -1.41, "cluster_size": 6, "cluster_id": 5, "rank_in_cluster": 3}

$$$$

     RDKit          3D

 43 46  0  0  0  0  0  0  0  0999 V2000
  140.9050   73.3850  221.9710 O   0  0  0  0  0  0  0  0  0  0  0  0
  139.7410   73.8660  222.0810 C   0  0  0  0  0  0  0  0  0  0  0  0
  139.5640   75.2620  222.0490 C   0  0  0  0  0  0  0  0  0  0  0  0
  140.6440   76.1570  221.9140 C   0  0  0  0  0  0  0  0  0  0  0  0
  140.4120   77.5380  221.8960 C   0  0  0  0  0  0  0  0  0  0  0  0
  139.1110   78.0320  222.0130 C   0  0  0  0  0  0  0  0  0  0  0  0
  138.0340   77.1520  222.1390 C   0  0  0  0  0  0  0  0  0  0  0  0
  138.2570   75.7710  222.1560 C   0  0  0  0  0  0  0  0  0  0  0  0
  137.2130   74.9180  222.2830 N   0  0  0  0  0  0  0  0  0  0  0  0
  137.3910   73.5730  222.3260 C   0  0  0  0  0  0  0  0  0  0  0  0
  136.1910   72.7300  222.4510 C   0  0  0  0  0  0  0  0  0  0  0  0
  135.7190   72.4040  223.6590 C   0  0  0  0  0  0  0  0  0  0  0  0
  135.1260   73.3840  224.6000 C   0  0  0  0  0  0  0  0  0  0  0  0
  135.3710   74.7670  224.5130 C   0  0  0  0  0  0  0  0  0  0  0  0
  134.7810   75.6440  225.4290 C   0  0  0  0  0  0  0  0  0  0  0  0
  133.9300   75.1310  226.4110 C   0  0  0  0  0  0  0  0  0  0  0  0
  133.6830   73.7970  226.4700 N   0  0  0  0  0  0  0  0  0  0  0  0
  134.2550   72.9230  225.5990 C   0  0  0  0  0  0  0  0  0  0  0  0
  138.6550   73.0320  222.2290 N   0  0  0  0  0  0  0  0  0  0  0  0
  138.8380   71.5610  222.2410 C   0  0  0  0  0  0  0  0  0  0  0  0
  139.1890   71.0710  223.6310 C   0  0  0  0  0  0  0  0  0  0  0  0
  138.4110   70.0820  224.2520 C   0  0  0  0  0  0  0  0  0  0  0  0
  138.7960   69.5530  225.4840 C   0  0  0  0  0  0  0  0  0  0  0  0
  139.9560   70.0130  226.1150 C   0  0  0  0  0  0  0  0  0  0  0  0
  140.4650   69.3190  227.6340 Cl  0  0  0  0  0  0  0  0  0  0  0  0
  140.7200   71.0240  225.5210 C   0  0  0  0  0  0  0  0  0  0  0  0
  140.3430   71.5460  224.2800 C   0  0  0  0  0  0  0  0  0  0  0  0
  141.6699   75.7707  221.8227 H   0  0  0  0  0  0  0  0  0  0  0  0
  141.2563   78.2350  221.7895 H   0  0  0  0  0  0  0  0  0  0  0  0
  138.9340   79.1176  222.0059 H   0  0  0  0  0  0  0  0  0  0  0  0
  137.0101   77.5448  222.2249 H   0  0  0  0  0  0  0  0  0  0  0  0
  135.6803   72.3666  221.5470 H   0  0  0  0  0  0  0  0  0  0  0  0
  135.7738   71.3508  223.9716 H   0  0  0  0  0  0  0  0  0  0  0  0
  136.0280   75.1592  223.7228 H   0  0  0  0  0  0  0  0  0  0  0  0
  134.9845   76.7238  225.3769 H   0  0  0  0  0  0  0  0  0  0  0  0
  133.4590   75.8091  227.1379 H   0  0  0  0  0  0  0  0  0  0  0  0
  134.0336   71.8484  225.6781 H   0  0  0  0  0  0  0  0  0  0  0  0
  137.9046   71.0793  221.9144 H   0  0  0  0  0  0  0  0  0  0  0  0
  139.6621   71.3039  221.5593 H   0  0  0  0  0  0  0  0  0  0  0  0
  137.4928   69.7220  223.7648 H   0  0  0  0  0  0  0  0  0  0  0  0
  138.1854   68.7718  225.9604 H   0  0  0  0  0  0  0  0  0  0  0  0
  141.6164   71.4076  226.0301 H   0  0  0  0  0  0  0  0  0  0  0  0
  140.9517   72.3319  223.8089 H   0  0  0  0  0  0  0  0  0  0  0  0
  1  2  2  0
  2  3  1  0
  3  4  2  0
  4  5  1  0
  5  6  2  0
  6  7  1  0
  7  8  2  0
  8  9  1  0
  9 10  2  0
 10 11  1  0
 11 12  2  0
 12 13  1  0
 13 14  2  0
 14 15  1  0
 15 16  2  0
 16 17  1  0
 17 18  2  0
 10 19  1  0
 19 20  1  0
 20 21  1  0
 21 22  2  0
 22 23  1  0
 23 24  2  0
 24 25  1  0
 24 26  1  0
 26 27  2  0
 19  2  1  0
 27 21  1  0
  8  3  1  0
 18 13  1  0
  4 28  1  0
  5 29  1  0
  6 30  1  0
  7 31  1  0
 11 32  1  0
 12 33  1  0
 14 34  1  0
 15 35  1  0
 16 36  1  0
 18 37  1  0
 20 38  1  0
 20 39  1  0
 22 40  1  0
 23 41  1  0
 26 42  1  0
 27 43  1  0
M  END
>  <meeko>  (6) 
{"free_energy": -7.36, "intermolecular_energy": -8.85, "internal_energy": -1.35, "cluster_size": 4, "cluster_id": 6, "rank_in_cluster": 3}

$$$$

     RDKit          3D

 43 46  0  0  0  0  0  0  0  0999 V2000
  138.9060   74.0770  222.3620 O   0  0  0  0  0  0  0  0  0  0  0  0
  139.9190   73.9620  221.6140 C   0  0  0  0  0  0  0  0  0  0  0  0
  140.6560   75.1100  221.2660 C   0  0  0  0  0  0  0  0  0  0  0  0
  140.2970   76.4000  221.7070 C   0  0  0  0  0  0  0  0  0  0  0  0
  141.0610   77.5100  221.3230 C   0  0  0  0  0  0  0  0  0  0  0  0
  142.1780   77.3420  220.5030 C   0  0  0  0  0  0  0  0  0  0  0  0
  142.5460   76.0660  220.0690 C   0  0  0  0  0  0  0  0  0  0  0  0
  141.7890   74.9530  220.4480 C   0  0  0  0  0  0  0  0  0  0  0  0
  142.1420   73.7170  220.0230 N   0  0  0  0  0  0  0  0  0  0  0  0
  141.4220   72.6150  220.3520 C   0  0  0  0  0  0  0  0  0  0  0  0
  141.8970   71.3150  219.8520 C   0  0  0  0  0  0  0  0  0  0  0  0
  143.1820   70.9670  219.9910 C   0  0  0  0  0  0  0  0  0  0  0  0
  144.2940   71.9450  220.0550 C   0  0  0  0  0  0  0  0  0  0  0  0
  144.6480   72.6190  221.2380 C   0  0  0  0  0  0  0  0  0  0  0  0
  145.7090   73.5300  221.2360 C   0  0  0  0  0  0  0  0  0  0  0  0
  146.4230   73.7410  220.0550 C   0  0  0  0  0  0  0  0  0  0  0  0
  146.0870   73.0660  218.9250 N   0  0  0  0  0  0  0  0  0  0  0  0
  145.0510   72.1850  218.8980 C   0  0  0  0  0  0  0  0  0  0  0  0
  140.3010   72.7240  221.1480 N   0  0  0  0  0  0  0  0  0  0  0  0
  139.5400   71.5120  221.5310 C   0  0  0  0  0  0  0  0  0  0  0  0
  139.7510   71.1820  222.9950 C   0  0  0  0  0  0  0  0  0  0  0  0
  139.0860   70.0920  223.5790 C   0  0  0  0  0  0  0  0  0  0  0  0
  139.3630   69.7220  224.8950 C   0  0  0  0  0  0  0  0  0  0  0  0
  140.2990   70.4410  225.6460 C   0  0  0  0  0  0  0  0  0  0  0  0
  140.6810   69.9490  227.2770 Cl  0  0  0  0  0  0  0  0  0  0  0  0
  140.9410   71.5500  225.0850 C   0  0  0  0  0  0  0  0  0  0  0  0
  140.6740   71.9160  223.7620 C   0  0  0  0  0  0  0  0  0  0  0  0
  139.4168   76.5352  222.3528 H   0  0  0  0  0  0  0  0  0  0  0  0
  140.7800   78.5158  221.6684 H   0  0  0  0  0  0  0  0  0  0  0  0
  142.7704   78.2170  220.1975 H   0  0  0  0  0  0  0  0  0  0  0  0
  143.4313   75.9369  219.4291 H   0  0  0  0  0  0  0  0  0  0  0  0
  141.1930   70.6263  219.3619 H   0  0  0  0  0  0  0  0  0  0  0  0
  143.4261   69.8968  220.0616 H   0  0  0  0  0  0  0  0  0  0  0  0
  144.0892   72.4291  222.1663 H   0  0  0  0  0  0  0  0  0  0  0  0
  145.9777   74.0737  222.1537 H   0  0  0  0  0  0  0  0  0  0  0  0
  147.2594   74.4553  220.0394 H   0  0  0  0  0  0  0  0  0  0  0  0
  144.8053   71.6579  217.9643 H   0  0  0  0  0  0  0  0  0  0  0  0
  138.4689   71.6876  221.3520 H   0  0  0  0  0  0  0  0  0  0  0  0
  139.8969   70.6664  220.9248 H   0  0  0  0  0  0  0  0  0  0  0  0
  138.3433   69.5274  222.9962 H   0  0  0  0  0  0  0  0  0  0  0  0
  138.8439   68.8622  225.3437 H   0  0  0  0  0  0  0  0  0  0  0  0
  141.6553   72.1338  225.6841 H   0  0  0  0  0  0  0  0  0  0  0  0
  141.1880   72.7818  223.3191 H   0  0  0  0  0  0  0  0  0  0  0  0
  1  2  2  0
  2  3  1  0
  3  4  2  0
  4  5  1  0
  5  6  2  0
  6  7  1  0
  7  8  2  0
  8  9  1  0
  9 10  2  0
 10 11  1  0
 11 12  2  0
 12 13  1  0
 13 14  2  0
 14 15  1  0
 15 16  2  0
 16 17  1  0
 17 18  2  0
 10 19  1  0
 19 20  1  0
 20 21  1  0
 21 22  2  0
 22 23  1  0
 23 24  2  0
 24 25  1  0
 24 26  1  0
 26 27  2  0
 19  2  1  0
 27 21  1  0
  8  3  1  0
 18 13  1  0
  4 28  1  0
  5 29  1  0
  6 30  1  0
  7 31  1  0
 11 32  1  0
 12 33  1  0
 14 34  1  0
 15 35  1  0
 16 36  1  0
 18 37  1  0
 20 38  1  0
 20 39  1  0
 22 40  1  0
 23 41  1  0
 26 42  1  0
 27 43  1  0
M  END
>  <meeko>  (7) 
{"free_energy": -7.32, "intermolecular_energy": -8.81, "internal_energy": -1.39, "cluster_size": 6, "cluster_id": 2, "rank_in_cluster": 5}

$$$$

     RDKit          3D

 43 46  0  0  0  0  0  0  0  0999 V2000
  139.0200   73.9990  222.3460 O   0  0  0  0  0  0  0  0  0  0  0  0
  140.0460   73.8870  221.6150 C   0  0  0  0  0  0  0  0  0  0  0  0
  140.7690   75.0400  221.2550 C   0  0  0  0  0  0  0  0  0  0  0  0
  140.3830   76.3310  221.6650 C   0  0  0  0  0  0  0  0  0  0  0  0
  141.1340   77.4460  221.2710 C   0  0  0  0  0  0  0  0  0  0  0  0
  142.2660   77.2810  220.4700 C   0  0  0  0  0  0  0  0  0  0  0  0
  142.6600   76.0030  220.0660 C   0  0  0  0  0  0  0  0  0  0  0  0
  141.9160   74.8850  220.4560 C   0  0  0  0  0  0  0  0  0  0  0  0
  142.2960   73.6470  220.0610 N   0  0  0  0  0  0  0  0  0  0  0  0
  141.5880   72.5390  220.4010 C   0  0  0  0  0  0  0  0  0  0  0  0
  142.0920   71.2380  219.9340 C   0  0  0  0  0  0  0  0  0  0  0  0
  143.3820   70.9190  220.0870 C   0  0  0  0  0  0  0  0  0  0  0  0
  144.4770   71.9190  220.1110 C   0  0  0  0  0  0  0  0  0  0  0  0
  144.8230   72.6400  221.2690 C   0  0  0  0  0  0  0  0  0  0  0  0
  145.8670   73.5700  221.2310 C   0  0  0  0  0  0  0  0  0  0  0  0
  146.5730   73.7520  220.0390 C   0  0  0  0  0  0  0  0  0  0  0  0
  146.2440   73.0330  218.9340 N   0  0  0  0  0  0  0  0  0  0  0  0
  145.2240   72.1330  218.9430 C   0  0  0  0  0  0  0  0  0  0  0  0
  140.4550   72.6460  221.1790 N   0  0  0  0  0  0  0  0  0  0  0  0
  139.7070   71.4300  221.5750 C   0  0  0  0  0  0  0  0  0  0  0  0
  139.9870   71.0710  223.0210 C   0  0  0  0  0  0  0  0  0  0  0  0
  140.7190   71.9450  223.8390 C   0  0  0  0  0  0  0  0  0  0  0  0
  140.8820   71.6670  225.1970 C   0  0  0  0  0  0  0  0  0  0  0  0
  140.3250   70.5100  225.7500 C   0  0  0  0  0  0  0  0  0  0  0  0
  140.4890   70.1850  227.4580 Cl  0  0  0  0  0  0  0  0  0  0  0  0
  139.6230   69.6140  224.9350 C   0  0  0  0  0  0  0  0  0  0  0  0
  139.4470   69.8970  223.5770 C   0  0  0  0  0  0  0  0  0  0  0  0
  139.4911   76.4638  222.2950 H   0  0  0  0  0  0  0  0  0  0  0  0
  140.8315   78.4533  221.5931 H   0  0  0  0  0  0  0  0  0  0  0  0
  142.8489   78.1595  220.1564 H   0  0  0  0  0  0  0  0  0  0  0  0
  143.5561   75.8761  219.4407 H   0  0  0  0  0  0  0  0  0  0  0  0
  141.4046   70.5241  219.4567 H   0  0  0  0  0  0  0  0  0  0  0  0
  143.6450   69.8570  220.2013 H   0  0  0  0  0  0  0  0  0  0  0  0
  144.2714   72.4718  222.2057 H   0  0  0  0  0  0  0  0  0  0  0  0
  146.1289   74.1506  222.1279 H   0  0  0  0  0  0  0  0  0  0  0  0
  147.3972   74.4792  219.9951 H   0  0  0  0  0  0  0  0  0  0  0  0
  144.9835   71.5698  218.0292 H   0  0  0  0  0  0  0  0  0  0  0  0
  138.6295   71.6135  221.4514 H   0  0  0  0  0  0  0  0  0  0  0  0
  140.0296   70.5947  220.9361 H   0  0  0  0  0  0  0  0  0  0  0  0
  141.1662   72.8530  223.4082 H   0  0  0  0  0  0  0  0  0  0  0  0
  141.4505   72.3604  225.8342 H   0  0  0  0  0  0  0  0  0  0  0  0
  139.2103   68.6883  225.3625 H   0  0  0  0  0  0  0  0  0  0  0  0
  138.8838   69.1985  222.9406 H   0  0  0  0  0  0  0  0  0  0  0  0
  1  2  2  0
  2  3  1  0
  3  4  2  0
  4  5  1  0
  5  6  2  0
  6  7  1  0
  7  8  2  0
  8  9  1  0
  9 10  2  0
 10 11  1  0
 11 12  2  0
 12 13  1  0
 13 14  2  0
 14 15  1  0
 15 16  2  0
 16 17  1  0
 17 18  2  0
 10 19  1  0
 19 20  1  0
 20 21  1  0
 21 22  2  0
 22 23  1  0
 23 24  2  0
 24 25  1  0
 24 26  1  0
 26 27  2  0
 19  2  1  0
 27 21  1  0
  8  3  1  0
 18 13  1  0
  4 28  1  0
  5 29  1  0
  6 30  1  0
  7 31  1  0
 11 32  1  0
 12 33  1  0
 14 34  1  0
 15 35  1  0
 16 36  1  0
 18 37  1  0
 20 38  1  0
 20 39  1  0
 22 40  1  0
 23 41  1  0
 26 42  1  0
 27 43  1  0
M  END
>  <meeko>  (8) 
{"free_energy": -7.46, "intermolecular_energy": -8.95, "internal_energy": -1.35, "cluster_size": 6, "cluster_id": 2, "rank_in_cluster": 1}

$$$$

     RDKit          3D

 43 46  0  0  0  0  0  0  0  0999 V2000
  140.2900   71.9880  225.0380 O   0  0  0  0  0  0  0  0  0  0  0  0
  139.7140   70.8640  225.0960 C   0  0  0  0  0  0  0  0  0  0  0  0
  140.0210   69.9830  226.1500 C   0  0  0  0  0  0  0  0  0  0  0  0
  140.9680   70.2970  227.1450 C   0  0  0  0  0  0  0  0  0  0  0  0
  141.2420   69.3800  228.1680 C   0  0  0  0  0  0  0  0  0  0  0  0
  140.5800   68.1510  228.2030 C   0  0  0  0  0  0  0  0  0  0  0  0
  139.6340   67.8350  227.2250 C   0  0  0  0  0  0  0  0  0  0  0  0
  139.3530   68.7460  226.2010 C   0  0  0  0  0  0  0  0  0  0  0  0
  138.4410   68.4370  225.2510 N   0  0  0  0  0  0  0  0  0  0  0  0
  138.1570   69.2860  224.2300 C   0  0  0  0  0  0  0  0  0  0  0  0
  137.1380   68.8630  223.2560 C   0  0  0  0  0  0  0  0  0  0  0  0
  135.9210   69.4190  223.2670 C   0  0  0  0  0  0  0  0  0  0  0  0
  135.2080   69.8060  224.5070 C   0  0  0  0  0  0  0  0  0  0  0  0
  135.0090   71.1460  224.8840 C   0  0  0  0  0  0  0  0  0  0  0  0
  134.3260   71.4490  226.0670 C   0  0  0  0  0  0  0  0  0  0  0  0
  133.8250   70.4070  226.8500 C   0  0  0  0  0  0  0  0  0  0  0  0
  134.0030   69.1170  226.4620 N   0  0  0  0  0  0  0  0  0  0  0  0
  134.6750   68.7970  225.3240 C   0  0  0  0  0  0  0  0  0  0  0  0
  138.7910   70.5060  224.1390 N   0  0  0  0  0  0  0  0  0  0  0  0
  138.4510   71.4420  223.0410 C   0  0  0  0  0  0  0  0  0  0  0  0
  139.7040   72.0020  222.4000 C   0  0  0  0  0  0  0  0  0  0  0  0
  140.6720   71.1390  221.8640 C   0  0  0  0  0  0  0  0  0  0  0  0
  141.7720   71.6540  221.1770 C   0  0  0  0  0  0  0  0  0  0  0  0
  141.9230   73.0370  221.0270 C   0  0  0  0  0  0  0  0  0  0  0  0
  143.2730   73.6810  220.1270 Cl  0  0  0  0  0  0  0  0  0  0  0  0
  140.9810   73.9070  221.5880 C   0  0  0  0  0  0  0  0  0  0  0  0
  139.8720   73.3920  222.2650 C   0  0  0  0  0  0  0  0  0  0  0  0
  141.4928   71.2634  227.1185 H   0  0  0  0  0  0  0  0  0  0  0  0
  141.9799   69.6285  228.9450 H   0  0  0  0  0  0  0  0  0  0  0  0
  140.8040   67.4298  229.0028 H   0  0  0  0  0  0  0  0  0  0  0  0
  139.1094   66.8688  227.2600 H   0  0  0  0  0  0  0  0  0  0  0  0
  137.3780   68.0859  222.5153 H   0  0  0  0  0  0  0  0  0  0  0  0
  135.4226   69.5986  222.3030 H   0  0  0  0  0  0  0  0  0  0  0  0
  135.3911   71.9577  224.2475 H   0  0  0  0  0  0  0  0  0  0  0  0
  134.1855   72.4952  226.3764 H   0  0  0  0  0  0  0  0  0  0  0  0
  133.2855   70.6308  227.7821 H   0  0  0  0  0  0  0  0  0  0  0  0
  134.8016   67.7413  225.0422 H   0  0  0  0  0  0  0  0  0  0  0  0
  137.8656   70.9061  222.2794 H   0  0  0  0  0  0  0  0  0  0  0  0
  137.8673   72.2757  223.4583 H   0  0  0  0  0  0  0  0  0  0  0  0
  140.5632   70.0512  221.9860 H   0  0  0  0  0  0  0  0  0  0  0  0
  142.5224   70.9710  220.7523 H   0  0  0  0  0  0  0  0  0  0  0  0
  141.1134   74.9951  221.4962 H   0  0  0  0  0  0  0  0  0  0  0  0
  139.1265   74.0774  222.6946 H   0  0  0  0  0  0  0  0  0  0  0  0
  1  2  2  0
  2  3  1  0
  3  4  2  0
  4  5  1  0
  5  6  2  0
  6  7  1  0
  7  8  2  0
  8  9  1  0
  9 10  2  0
 10 11  1  0
 11 12  2  0
 12 13  1  0
 13 14  2  0
 14 15  1  0
 15 16  2  0
 16 17  1  0
 17 18  2  0
 10 19  1  0
 19 20  1  0
 20 21  1  0
 21 22  2  0
 22 23  1  0
 23 24  2  0
 24 25  1  0
 24 26  1  0
 26 27  2  0
 19  2  1  0
 27 21  1  0
  8  3  1  0
 18 13  1  0
  4 28  1  0
  5 29  1  0
  6 30  1  0
  7 31  1  0
 11 32  1  0
 12 33  1  0
 14 34  1  0
 15 35  1  0
 16 36  1  0
 18 37  1  0
 20 38  1  0
 20 39  1  0
 22 40  1  0
 23 41  1  0
 26 42  1  0
 27 43  1  0
M  END
>  <meeko>  (9) 
{"free_energy": -7.41, "intermolecular_energy": -8.9, "internal_energy": -1.28, "cluster_size": 6, "cluster_id": 5, "rank_in_cluster": 1}

$$$$

     RDKit          3D

 43 46  0  0  0  0  0  0  0  0999 V2000
  138.9130   74.0850  222.3350 O   0  0  0  0  0  0  0  0  0  0  0  0
  139.9500   73.9500  221.6250 C   0  0  0  0  0  0  0  0  0  0  0  0
  140.6910   75.0890  221.2570 C   0  0  0  0  0  0  0  0  0  0  0  0
  140.3110   76.3910  221.6380 C   0  0  0  0  0  0  0  0  0  0  0  0
  141.0800   77.4920  221.2380 C   0  0  0  0  0  0  0  0  0  0  0  0
  142.2240   77.3010  220.4600 C   0  0  0  0  0  0  0  0  0  0  0  0
  142.6130   76.0130  220.0860 C   0  0  0  0  0  0  0  0  0  0  0  0
  141.8510   74.9090  220.4820 C   0  0  0  0  0  0  0  0  0  0  0  0
  142.2250   73.6610  220.1150 N   0  0  0  0  0  0  0  0  0  0  0  0
  141.5000   72.5660  220.4620 C   0  0  0  0  0  0  0  0  0  0  0  0
  141.9990   71.2530  220.0260 C   0  0  0  0  0  0  0  0  0  0  0  0
  143.2870   70.9300  220.1920 C   0  0  0  0  0  0  0  0  0  0  0  0
  144.3940   71.9130  220.1210 C   0  0  0  0  0  0  0  0  0  0  0  0
  144.8490   72.6290  221.2440 C   0  0  0  0  0  0  0  0  0  0  0  0
  145.8990   73.5430  221.1160 C   0  0  0  0  0  0  0  0  0  0  0  0
  146.5030   73.7150  219.8680 C   0  0  0  0  0  0  0  0  0  0  0  0
  146.0710   73.0010  218.7970 N   0  0  0  0  0  0  0  0  0  0  0  0
  145.0420   72.1160  218.8940 C   0  0  0  0  0  0  0  0  0  0  0  0
  140.3540   72.6980  221.2170 N   0  0  0  0  0  0  0  0  0  0  0  0
  139.5880   71.4960  221.6220 C   0  0  0  0  0  0  0  0  0  0  0  0
  139.7540   71.2220  223.1030 C   0  0  0  0  0  0  0  0  0  0  0  0
  138.9580   70.2560  223.7380 C   0  0  0  0  0  0  0  0  0  0  0  0
  139.1850   69.9260  225.0750 C   0  0  0  0  0  0  0  0  0  0  0  0
  140.2000   70.5640  225.7940 C   0  0  0  0  0  0  0  0  0  0  0  0
  140.5150   70.1190  227.4530 Cl  0  0  0  0  0  0  0  0  0  0  0  0
  140.9760   71.5540  225.1800 C   0  0  0  0  0  0  0  0  0  0  0  0
  140.7590   71.8770  223.8370 C   0  0  0  0  0  0  0  0  0  0  0  0
  139.4098   76.5435  222.2500 H   0  0  0  0  0  0  0  0  0  0  0  0
  140.7823   78.5078  221.5371 H   0  0  0  0  0  0  0  0  0  0  0  0
  142.8207   78.1682  220.1407 H   0  0  0  0  0  0  0  0  0  0  0  0
  143.5191   75.8666  219.4797 H   0  0  0  0  0  0  0  0  0  0  0  0
  141.3099   70.5327  219.5610 H   0  0  0  0  0  0  0  0  0  0  0  0
  143.5378   69.8778  220.3920 H   0  0  0  0  0  0  0  0  0  0  0  0
  144.3773   72.4690  222.2248 H   0  0  0  0  0  0  0  0  0  0  0  0
  146.2452   74.1193  221.9866 H   0  0  0  0  0  0  0  0  0  0  0  0
  147.3305   74.4305  219.7528 H   0  0  0  0  0  0  0  0  0  0  0  0
  144.7165   71.5564  218.0047 H   0  0  0  0  0  0  0  0  0  0  0  0
  138.5222   71.6576  221.4030 H   0  0  0  0  0  0  0  0  0  0  0  0
  139.9692   70.6307  221.0598 H   0  0  0  0  0  0  0  0  0  0  0  0
  138.1521   69.7571  223.1798 H   0  0  0  0  0  0  0  0  0  0  0  0
  138.5634   69.1617  225.5644 H   0  0  0  0  0  0  0  0  0  0  0  0
  141.7555   72.0772  225.7533 H   0  0  0  0  0  0  0  0  0  0  0  0
  141.3772   72.6470  223.3523 H   0  0  0  0  0  0  0  0  0  0  0  0
  1  2  2  0
  2  3  1  0
  3  4  2  0
  4  5  1  0
  5  6  2  0
  6  7  1  0
  7  8  2  0
  8  9  1  0
  9 10  2  0
 10 11  1  0
 11 12  2  0
 12 13  1  0
 13 14  2  0
 14 15  1  0
 15 16  2  0
 16 17  1  0
 17 18  2  0
 10 19  1  0
 19 20  1  0
 20 21  1  0
 21 22  2  0
 22 23  1  0
 23 24  2  0
 24 25  1  0
 24 26  1  0
 26 27  2  0
 19  2  1  0
 27 21  1  0
  8  3  1  0
 18 13  1  0
  4 28  1  0
  5 29  1  0
  6 30  1  0
  7 31  1  0
 11 32  1  0
 12 33  1  0
 14 34  1  0
 15 35  1  0
 16 36  1  0
 18 37  1  0
 20 38  1  0
 20 39  1  0
 22 40  1  0
 23 41  1  0
 26 42  1  0
 27 43  1  0
M  END
>  <meeko>  (10) 
{"free_energy": -7.37, "intermolecular_energy": -8.86, "internal_energy": -1.42, "cluster_size": 6, "cluster_id": 2, "rank_in_cluster": 4}

$$$$

     RDKit          3D

 43 46  0  0  0  0  0  0  0  0999 V2000
  140.0050   71.9010  224.8900 O   0  0  0  0  0  0  0  0  0  0  0  0
  139.5210   70.7340  224.9500 C   0  0  0  0  0  0  0  0  0  0  0  0
  139.8640   69.8970  226.0280 C   0  0  0  0  0  0  0  0  0  0  0  0
  140.7480   70.3040  227.0480 C   0  0  0  0  0  0  0  0  0  0  0  0
  141.0620   69.4280  228.0950 C   0  0  0  0  0  0  0  0  0  0  0  0
  140.5010   68.1500  228.1310 C   0  0  0  0  0  0  0  0  0  0  0  0
  139.6170   67.7420  227.1290 C   0  0  0  0  0  0  0  0  0  0  0  0
  139.2970   68.6110  226.0810 C   0  0  0  0  0  0  0  0  0  0  0  0
  138.4450   68.2140  225.1070 N   0  0  0  0  0  0  0  0  0  0  0  0
  138.1270   69.0200  224.0630 C   0  0  0  0  0  0  0  0  0  0  0  0
  137.1790   68.5000  223.0640 C   0  0  0  0  0  0  0  0  0  0  0  0
  135.8730   68.7720  223.1670 C   0  0  0  0  0  0  0  0  0  0  0  0
  135.2550   69.3810  224.3690 C   0  0  0  0  0  0  0  0  0  0  0  0
  135.2320   70.7710  224.5910 C   0  0  0  0  0  0  0  0  0  0  0  0
  134.6320   71.2880  225.7440 C   0  0  0  0  0  0  0  0  0  0  0  0
  134.0370   70.4100  226.6540 C   0  0  0  0  0  0  0  0  0  0  0  0
  134.0450   69.0720  226.4160 N   0  0  0  0  0  0  0  0  0  0  0  0
  134.6340   68.5450  225.3090 C   0  0  0  0  0  0  0  0  0  0  0  0
  138.6630   70.2870  223.9700 N   0  0  0  0  0  0  0  0  0  0  0  0
  138.2840   71.1740  222.8450 C   0  0  0  0  0  0  0  0  0  0  0  0
  139.5130   71.6780  222.1160 C   0  0  0  0  0  0  0  0  0  0  0  0
  139.8660   73.0350  222.1760 C   0  0  0  0  0  0  0  0  0  0  0  0
  141.0560   73.4780  221.5970 C   0  0  0  0  0  0  0  0  0  0  0  0
  141.9000   72.5750  220.9430 C   0  0  0  0  0  0  0  0  0  0  0  0
  143.4110   73.1210  220.2590 Cl  0  0  0  0  0  0  0  0  0  0  0  0
  141.5390   71.2260  220.8470 C   0  0  0  0  0  0  0  0  0  0  0  0
  140.3540   70.7770  221.4380 C   0  0  0  0  0  0  0  0  0  0  0  0
  141.1915   71.3103  227.0217 H   0  0  0  0  0  0  0  0  0  0  0  0
  141.7517   69.7475  228.8901 H   0  0  0  0  0  0  0  0  0  0  0  0
  140.7558   67.4622  228.9508 H   0  0  0  0  0  0  0  0  0  0  0  0
  139.1724   66.7365  227.1644 H   0  0  0  0  0  0  0  0  0  0  0  0
  137.5460   67.8850  222.2290 H   0  0  0  0  0  0  0  0  0  0  0  0
  135.2225   68.5306  222.3134 H   0  0  0  0  0  0  0  0  0  0  0  0
  135.6867   71.4518  223.8564 H   0  0  0  0  0  0  0  0  0  0  0  0
  134.6286   72.3718  225.9320 H   0  0  0  0  0  0  0  0  0  0  0  0
  133.5612   70.8027  227.5648 H   0  0  0  0  0  0  0  0  0  0  0  0
  134.6234   67.4566  225.1498 H   0  0  0  0  0  0  0  0  0  0  0  0
  137.6525   70.6126  222.1407 H   0  0  0  0  0  0  0  0  0  0  0  0
  137.7355   72.0381  223.2482 H   0  0  0  0  0  0  0  0  0  0  0  0
  139.2023   73.7521  222.6812 H   0  0  0  0  0  0  0  0  0  0  0  0
  141.3311   74.5414  221.6553 H   0  0  0  0  0  0  0  0  0  0  0  0
  142.1869   70.5198  220.3071 H   0  0  0  0  0  0  0  0  0  0  0  0
  140.0781   69.7142  221.3725 H   0  0  0  0  0  0  0  0  0  0  0  0
  1  2  2  0
  2  3  1  0
  3  4  2  0
  4  5  1  0
  5  6  2  0
  6  7  1  0
  7  8  2  0
  8  9  1  0
  9 10  2  0
 10 11  1  0
 11 12  2  0
 12 13  1  0
 13 14  2  0
 14 15  1  0
 15 16  2  0
 16 17  1  0
 17 18  2  0
 10 19  1  0
 19 20  1  0
 20 21  1  0
 21 22  2  0
 22 23  1  0
 23 24  2  0
 24 25  1  0
 24 26  1  0
 26 27  2  0
 19  2  1  0
 27 21  1  0
  8  3  1  0
 18 13  1  0
  4 28  1  0
  5 29  1  0
  6 30  1  0
  7 31  1  0
 11 32  1  0
 12 33  1  0
 14 34  1  0
 15 35  1  0
 16 36  1  0
 18 37  1  0
 20 38  1  0
 20 39  1  0
 22 40  1  0
 23 41  1  0
 26 42  1  0
 27 43  1  0
M  END
>  <meeko>  (11) 
{"free_energy": -7.18, "intermolecular_energy": -8.67, "internal_energy": -1.49, "cluster_size": 6, "cluster_id": 5, "rank_in_cluster": 6}

$$$$

     RDKit          3D

 43 46  0  0  0  0  0  0  0  0999 V2000
  141.4230   70.8760  221.2210 O   0  0  0  0  0  0  0  0  0  0  0  0
  141.5630   72.1320  221.2340 C   0  0  0  0  0  0  0  0  0  0  0  0
  142.7890   72.6960  220.8310 C   0  0  0  0  0  0  0  0  0  0  0  0
  143.8850   71.9080  220.4240 C   0  0  0  0  0  0  0  0  0  0  0  0
  145.0840   72.5200  220.0410 C   0  0  0  0  0  0  0  0  0  0  0  0
  145.1990   73.9120  220.0610 C   0  0  0  0  0  0  0  0  0  0  0  0
  144.1150   74.7000  220.4540 C   0  0  0  0  0  0  0  0  0  0  0  0
  142.9130   74.0970  220.8380 C   0  0  0  0  0  0  0  0  0  0  0  0
  141.8640   74.8610  221.2240 N   0  0  0  0  0  0  0  0  0  0  0  0
  140.6890   74.3120  221.6230 C   0  0  0  0  0  0  0  0  0  0  0  0
  139.6050   75.2290  222.0100 C   0  0  0  0  0  0  0  0  0  0  0  0
  139.5960   76.4900  221.5620 C   0  0  0  0  0  0  0  0  0  0  0  0
  140.0800   77.6440  222.3550 C   0  0  0  0  0  0  0  0  0  0  0  0
  141.4470   77.9180  222.5440 C   0  0  0  0  0  0  0  0  0  0  0  0
  141.8440   79.0250  223.3020 C   0  0  0  0  0  0  0  0  0  0  0  0
  140.8680   79.8640  223.8440 C   0  0  0  0  0  0  0  0  0  0  0  0
  139.5520   79.6020  223.6350 N   0  0  0  0  0  0  0  0  0  0  0  0
  139.1410   78.5250  222.9130 C   0  0  0  0  0  0  0  0  0  0  0  0
  140.5260   72.9430  221.6360 N   0  0  0  0  0  0  0  0  0  0  0  0
  139.2280   72.3520  222.0400 C   0  0  0  0  0  0  0  0  0  0  0  0
  139.3700   71.5620  223.3250 C   0  0  0  0  0  0  0  0  0  0  0  0
  138.5530   70.4470  223.5660 C   0  0  0  0  0  0  0  0  0  0  0  0
  138.7570   69.6560  224.6970 C   0  0  0  0  0  0  0  0  0  0  0  0
  139.7720   69.9750  225.6040 C   0  0  0  0  0  0  0  0  0  0  0  0
  140.0590   68.9580  226.9950 Cl  0  0  0  0  0  0  0  0  0  0  0  0
  140.5690   71.1040  225.3920 C   0  0  0  0  0  0  0  0  0  0  0  0
  140.3750   71.8920  224.2520 C   0  0  0  0  0  0  0  0  0  0  0  0
  143.7977   70.8116  220.4075 H   0  0  0  0  0  0  0  0  0  0  0  0
  145.9378   71.9034  219.7235 H   0  0  0  0  0  0  0  0  0  0  0  0
  146.1456   74.3886  219.7665 H   0  0  0  0  0  0  0  0  0  0  0  0
  144.2067   75.7961  220.4615 H   0  0  0  0  0  0  0  0  0  0  0  0
  138.7989   74.8765  222.6702 H   0  0  0  0  0  0  0  0  0  0  0  0
  139.2083   76.6799  220.5503 H   0  0  0  0  0  0  0  0  0  0  0  0
  142.2056   77.2602  222.0947 H   0  0  0  0  0  0  0  0  0  0  0  0
  142.9114   79.2318  223.4689 H   0  0  0  0  0  0  0  0  0  0  0  0
  141.1657   80.7385  224.4412 H   0  0  0  0  0  0  0  0  0  0  0  0
  138.0661   78.3435  222.7656 H   0  0  0  0  0  0  0  0  0  0  0  0
  138.4966   73.1594  222.1926 H   0  0  0  0  0  0  0  0  0  0  0  0
  138.8891   71.6716  221.2449 H   0  0  0  0  0  0  0  0  0  0  0  0
  137.7479   70.1954  222.8599 H   0  0  0  0  0  0  0  0  0  0  0  0
  138.1175   68.7790  224.8756 H   0  0  0  0  0  0  0  0  0  0  0  0
  141.3479   71.3726  226.1208 H   0  0  0  0  0  0  0  0  0  0  0  0
  141.0110   72.7729  224.0802 H   0  0  0  0  0  0  0  0  0  0  0  0
  1  2  2  0
  2  3  1  0
  3  4  2  0
  4  5  1  0
  5  6  2  0
  6  7  1  0
  7  8  2  0
  8  9  1  0
  9 10  2  0
 10 11  1  0
 11 12  2  0
 12 13  1  0
 13 14  2  0
 14 15  1  0
 15 16  2  0
 16 17  1  0
 17 18  2  0
 10 19  1  0
 19 20  1  0
 20 21  1  0
 21 22  2  0
 22 23  1  0
 23 24  2  0
 24 25  1  0
 24 26  1  0
 26 27  2  0
 19  2  1  0
 27 21  1  0
  8  3  1  0
 18 13  1  0
  4 28  1  0
  5 29  1  0
  6 30  1  0
  7 31  1  0
 11 32  1  0
 12 33  1  0
 14 34  1  0
 15 35  1  0
 16 36  1  0
 18 37  1  0
 20 38  1  0
 20 39  1  0
 22 40  1  0
 23 41  1  0
 26 42  1  0
 27 43  1  0
M  END
>  <meeko>  (12) 
{"free_energy": -7.48, "intermolecular_energy": -8.97, "internal_energy": -1.17, "cluster_size": 2, "cluster_id": 1, "rank_in_cluster": 1}

$$$$

     RDKit          3D

 43 46  0  0  0  0  0  0  0  0999 V2000
  138.9700   73.9940  222.3270 O   0  0  0  0  0  0  0  0  0  0  0  0
  139.9840   73.9170  221.5750 C   0  0  0  0  0  0  0  0  0  0  0  0
  140.6810   75.0900  221.2300 C   0  0  0  0  0  0  0  0  0  0  0  0
  140.2820   76.3650  221.6810 C   0  0  0  0  0  0  0  0  0  0  0  0
  141.0080   77.5010  221.3010 C   0  0  0  0  0  0  0  0  0  0  0  0
  142.1270   77.3750  220.4750 C   0  0  0  0  0  0  0  0  0  0  0  0
  142.5340   76.1150  220.0320 C   0  0  0  0  0  0  0  0  0  0  0  0
  141.8150   74.9740  220.4070 C   0  0  0  0  0  0  0  0  0  0  0  0
  142.2070   73.7540  219.9720 N   0  0  0  0  0  0  0  0  0  0  0  0
  141.5230   72.6260  220.2970 C   0  0  0  0  0  0  0  0  0  0  0  0
  142.0390   71.3460  219.7870 C   0  0  0  0  0  0  0  0  0  0  0  0
  143.3090   70.9910  220.0140 C   0  0  0  0  0  0  0  0  0  0  0  0
  144.4350   71.9530  220.0530 C   0  0  0  0  0  0  0  0  0  0  0  0
  144.7950   72.6560  221.2180 C   0  0  0  0  0  0  0  0  0  0  0  0
  145.8690   73.5520  221.1940 C   0  0  0  0  0  0  0  0  0  0  0  0
  146.5910   73.7170  220.0100 C   0  0  0  0  0  0  0  0  0  0  0  0
  146.2490   73.0150  218.8980 N   0  0  0  0  0  0  0  0  0  0  0  0
  145.2000   72.1490  218.8930 C   0  0  0  0  0  0  0  0  0  0  0  0
  140.4040   72.6950  221.0980 N   0  0  0  0  0  0  0  0  0  0  0  0
  139.6840   71.4560  221.4770 C   0  0  0  0  0  0  0  0  0  0  0  0
  139.9000   71.1320  222.9420 C   0  0  0  0  0  0  0  0  0  0  0  0
  140.7150   71.9530  223.7360 C   0  0  0  0  0  0  0  0  0  0  0  0
  140.8260   71.7180  225.1070 C   0  0  0  0  0  0  0  0  0  0  0  0
  140.1330   70.6560  225.6980 C   0  0  0  0  0  0  0  0  0  0  0  0
  140.2350   70.3910  227.4210 Cl  0  0  0  0  0  0  0  0  0  0  0  0
  139.3460   69.8110  224.9080 C   0  0  0  0  0  0  0  0  0  0  0  0
  139.2230   70.0520  223.5360 C   0  0  0  0  0  0  0  0  0  0  0  0
  139.4007   76.4675  222.3312 H   0  0  0  0  0  0  0  0  0  0  0  0
  140.6959   78.4949  221.6541 H   0  0  0  0  0  0  0  0  0  0  0  0
  142.6892   78.2708  220.1726 H   0  0  0  0  0  0  0  0  0  0  0  0
  143.4204   76.0189  219.3878 H   0  0  0  0  0  0  0  0  0  0  0  0
  141.3775   70.6776  219.2163 H   0  0  0  0  0  0  0  0  0  0  0  0
  143.5291   69.9262  220.1809 H   0  0  0  0  0  0  0  0  0  0  0  0
  144.2306   72.5005  222.1493 H   0  0  0  0  0  0  0  0  0  0  0  0
  146.1414   74.1194  222.0962 H   0  0  0  0  0  0  0  0  0  0  0  0
  147.4388   74.4171  219.9775 H   0  0  0  0  0  0  0  0  0  0  0  0
  144.9498   71.5989  217.9739 H   0  0  0  0  0  0  0  0  0  0  0  0
  138.6083   71.5940  221.2934 H   0  0  0  0  0  0  0  0  0  0  0  0
  140.0732   70.6240  220.8718 H   0  0  0  0  0  0  0  0  0  0  0  0
  141.2685   72.7849  223.2760 H   0  0  0  0  0  0  0  0  0  0  0  0
  141.4606   72.3700  225.7252 H   0  0  0  0  0  0  0  0  0  0  0  0
  138.8243   68.9576  225.3658 H   0  0  0  0  0  0  0  0  0  0  0  0
  138.5939   69.3939  222.9187 H   0  0  0  0  0  0  0  0  0  0  0  0
  1  2  2  0
  2  3  1  0
  3  4  2  0
  4  5  1  0
  5  6  2  0
  6  7  1  0
  7  8  2  0
  8  9  1  0
  9 10  2  0
 10 11  1  0
 11 12  2  0
 12 13  1  0
 13 14  2  0
 14 15  1  0
 15 16  2  0
 16 17  1  0
 17 18  2  0
 10 19  1  0
 19 20  1  0
 20 21  1  0
 21 22  2  0
 22 23  1  0
 23 24  2  0
 24 25  1  0
 24 26  1  0
 26 27  2  0
 19  2  1  0
 27 21  1  0
  8  3  1  0
 18 13  1  0
  4 28  1  0
  5 29  1  0
  6 30  1  0
  7 31  1  0
 11 32  1  0
 12 33  1  0
 14 34  1  0
 15 35  1  0
 16 36  1  0
 18 37  1  0
 20 38  1  0
 20 39  1  0
 22 40  1  0
 23 41  1  0
 26 42  1  0
 27 43  1  0
M  END
>  <meeko>  (13) 
{"free_energy": -7.41, "intermolecular_energy": -8.9, "internal_energy": -1.39, "cluster_size": 6, "cluster_id": 2, "rank_in_cluster": 2}

$$$$

     RDKit          3D

 43 46  0  0  0  0  0  0  0  0999 V2000
  138.7350   74.3210  222.3540 O   0  0  0  0  0  0  0  0  0  0  0  0
  139.7450   74.1570  221.6120 C   0  0  0  0  0  0  0  0  0  0  0  0
  140.5310   75.2700  221.2570 C   0  0  0  0  0  0  0  0  0  0  0  0
  140.2250   76.5780  221.6860 C   0  0  0  0  0  0  0  0  0  0  0  0
  141.0360   77.6510  221.2970 C   0  0  0  0  0  0  0  0  0  0  0  0
  142.1490   77.4300  220.4830 C   0  0  0  0  0  0  0  0  0  0  0  0
  142.4640   76.1360  220.0610 C   0  0  0  0  0  0  0  0  0  0  0  0
  141.6600   75.0580  220.4460 C   0  0  0  0  0  0  0  0  0  0  0  0
  141.9620   73.8050  220.0320 N   0  0  0  0  0  0  0  0  0  0  0  0
  141.1940   72.7370  220.3670 C   0  0  0  0  0  0  0  0  0  0  0  0
  141.6160   71.4150  219.8790 C   0  0  0  0  0  0  0  0  0  0  0  0
  142.8510   70.9650  220.1300 C   0  0  0  0  0  0  0  0  0  0  0  0
  144.0590   71.8230  220.0970 C   0  0  0  0  0  0  0  0  0  0  0  0
  144.5050   72.5530  221.2150 C   0  0  0  0  0  0  0  0  0  0  0  0
  145.6540   73.3450  221.1230 C   0  0  0  0  0  0  0  0  0  0  0  0
  146.3620   73.3810  219.9190 C   0  0  0  0  0  0  0  0  0  0  0  0
  145.9340   72.6530  218.8550 N   0  0  0  0  0  0  0  0  0  0  0  0
  144.8130   71.8860  218.9150 C   0  0  0  0  0  0  0  0  0  0  0  0
  140.0760   72.9010  221.1570 N   0  0  0  0  0  0  0  0  0  0  0  0
  139.2630   71.7250  221.5470 C   0  0  0  0  0  0  0  0  0  0  0  0
  139.6330   71.2490  222.9370 C   0  0  0  0  0  0  0  0  0  0  0  0
  140.6480   71.8940  223.6600 C   0  0  0  0  0  0  0  0  0  0  0  0
  140.9140   71.5270  224.9800 C   0  0  0  0  0  0  0  0  0  0  0  0
  140.1770   70.5050  225.5880 C   0  0  0  0  0  0  0  0  0  0  0  0
  140.4780   70.0770  227.2540 Cl  0  0  0  0  0  0  0  0  0  0  0  0
  139.1870   69.8320  224.8640 C   0  0  0  0  0  0  0  0  0  0  0  0
  138.9100   70.2070  223.5460 C   0  0  0  0  0  0  0  0  0  0  0  0
  139.3486   76.7554  222.3267 H   0  0  0  0  0  0  0  0  0  0  0  0
  140.7959   78.6704  221.6333 H   0  0  0  0  0  0  0  0  0  0  0  0
  142.7792   78.2768  220.1734 H   0  0  0  0  0  0  0  0  0  0  0  0
  143.3452   75.9647  219.4253 H   0  0  0  0  0  0  0  0  0  0  0  0
  140.9130   70.7934  219.3050 H   0  0  0  0  0  0  0  0  0  0  0  0
  142.9765   69.8998  220.3742 H   0  0  0  0  0  0  0  0  0  0  0  0
  143.9488   72.5004  222.1626 H   0  0  0  0  0  0  0  0  0  0  0  0
  145.9961   73.9323  221.9879 H   0  0  0  0  0  0  0  0  0  0  0  0
  147.2673   73.9998  219.8326 H   0  0  0  0  0  0  0  0  0  0  0  0
  144.4953   71.3117  218.0323 H   0  0  0  0  0  0  0  0  0  0  0  0
  138.1986   72.0022  221.5327 H   0  0  0  0  0  0  0  0  0  0  0  0
  139.4576   70.9109  220.8333 H   0  0  0  0  0  0  0  0  0  0  0  0
  141.2366   72.6923  223.1844 H   0  0  0  0  0  0  0  0  0  0  0  0
  141.7053   72.0427  225.5439 H   0  0  0  0  0  0  0  0  0  0  0  0
  138.6271   69.0086  225.3313 H   0  0  0  0  0  0  0  0  0  0  0  0
  138.1229   69.6848  222.9823 H   0  0  0  0  0  0  0  0  0  0  0  0
  1  2  2  0
  2  3  1  0
  3  4  2  0
  4  5  1  0
  5  6  2  0
  6  7  1  0
  7  8  2  0
  8  9  1  0
  9 10  2  0
 10 11  1  0
 11 12  2  0
 12 13  1  0
 13 14  2  0
 14 15  1  0
 15 16  2  0
 16 17  1  0
 17 18  2  0
 10 19  1  0
 19 20  1  0
 20 21  1  0
 21 22  2  0
 22 23  1  0
 23 24  2  0
 24 25  1  0
 24 26  1  0
 26 27  2  0
 19  2  1  0
 27 21  1  0
  8  3  1  0
 18 13  1  0
  4 28  1  0
  5 29  1  0
  6 30  1  0
  7 31  1  0
 11 32  1  0
 12 33  1  0
 14 34  1  0
 15 35  1  0
 16 36  1  0
 18 37  1  0
 20 38  1  0
 20 39  1  0
 22 40  1  0
 23 41  1  0
 26 42  1  0
 27 43  1  0
M  END
>  <meeko>  (14) 
{"free_energy": -7.16, "intermolecular_energy": -8.65, "internal_energy": -1.52, "cluster_size": 6, "cluster_id": 2, "rank_in_cluster": 6}

$$$$

     RDKit          3D

 43 46  0  0  0  0  0  0  0  0999 V2000
  140.8960   73.4250  221.9610 O   0  0  0  0  0  0  0  0  0  0  0  0
  139.7380   73.9160  222.0920 C   0  0  0  0  0  0  0  0  0  0  0  0
  139.5760   75.3140  222.0950 C   0  0  0  0  0  0  0  0  0  0  0  0
  140.6650   76.2000  221.9730 C   0  0  0  0  0  0  0  0  0  0  0  0
  140.4480   77.5840  221.9900 C   0  0  0  0  0  0  0  0  0  0  0  0
  139.1540   78.0890  222.1290 C   0  0  0  0  0  0  0  0  0  0  0  0
  138.0680   77.2180  222.2420 C   0  0  0  0  0  0  0  0  0  0  0  0
  138.2760   75.8340  222.2250 C   0  0  0  0  0  0  0  0  0  0  0  0
  137.2240   74.9900  222.3390 N   0  0  0  0  0  0  0  0  0  0  0  0
  137.3870   73.6420  222.3480 C   0  0  0  0  0  0  0  0  0  0  0  0
  136.1790   72.8100  222.4630 C   0  0  0  0  0  0  0  0  0  0  0  0
  135.7150   72.4550  223.6670 C   0  0  0  0  0  0  0  0  0  0  0  0
  135.0880   73.4050  224.6160 C   0  0  0  0  0  0  0  0  0  0  0  0
  135.3050   74.7940  224.5580 C   0  0  0  0  0  0  0  0  0  0  0  0
  134.6840   75.6420  225.4810 C   0  0  0  0  0  0  0  0  0  0  0  0
  133.8290   75.0930  226.4400 C   0  0  0  0  0  0  0  0  0  0  0  0
  133.6090   73.7530  226.4710 N   0  0  0  0  0  0  0  0  0  0  0  0
  134.2120   72.9080  225.5930 C   0  0  0  0  0  0  0  0  0  0  0  0
  138.6440   73.0900  222.2280 N   0  0  0  0  0  0  0  0  0  0  0  0
  138.8110   71.6180  222.2040 C   0  0  0  0  0  0  0  0  0  0  0  0
  139.2410   71.0990  223.5610 C   0  0  0  0  0  0  0  0  0  0  0  0
  140.3270   71.6840  224.2310 C   0  0  0  0  0  0  0  0  0  0  0  0
  140.6540   71.2810  225.5260 C   0  0  0  0  0  0  0  0  0  0  0  0
  139.9080   70.2840  226.1620 C   0  0  0  0  0  0  0  0  0  0  0  0
  140.2880   69.8120  227.8000 Cl  0  0  0  0  0  0  0  0  0  0  0  0
  138.8460   69.6700  225.4900 C   0  0  0  0  0  0  0  0  0  0  0  0
  138.5080   70.0810  224.1960 C   0  0  0  0  0  0  0  0  0  0  0  0
  141.6858   75.8048  221.8644 H   0  0  0  0  0  0  0  0  0  0  0  0
  141.2991   78.2742  221.8936 H   0  0  0  0  0  0  0  0  0  0  0  0
  138.9891   79.1764  222.1496 H   0  0  0  0  0  0  0  0  0  0  0  0
  137.0491   77.6198  222.3444 H   0  0  0  0  0  0  0  0  0  0  0  0
  135.6546   72.4781  221.5548 H   0  0  0  0  0  0  0  0  0  0  0  0
  135.8038   71.4009  223.9686 H   0  0  0  0  0  0  0  0  0  0  0  0
  135.9648   75.2142  223.7847 H   0  0  0  0  0  0  0  0  0  0  0  0
  134.8664   76.7264  225.4522 H   0  0  0  0  0  0  0  0  0  0  0  0
  133.3328   75.7475  227.1717 H   0  0  0  0  0  0  0  0  0  0  0  0
  134.0119   71.8278  225.6489 H   0  0  0  0  0  0  0  0  0  0  0  0
  137.8540   71.1517  221.9271 H   0  0  0  0  0  0  0  0  0  0  0  0
  139.5893   71.3652  221.4690 H   0  0  0  0  0  0  0  0  0  0  0  0
  140.9225   72.4633  223.7330 H   0  0  0  0  0  0  0  0  0  0  0  0
  141.5014   71.7491  226.0483 H   0  0  0  0  0  0  0  0  0  0  0  0
  138.2772   68.8650  225.9783 H   0  0  0  0  0  0  0  0  0  0  0  0
  137.6650   69.6056  223.6731 H   0  0  0  0  0  0  0  0  0  0  0  0
  1  2  2  0
  2  3  1  0
  3  4  2  0
  4  5  1  0
  5  6  2  0
  6  7  1  0
  7  8  2  0
  8  9  1  0
  9 10  2  0
 10 11  1  0
 11 12  2  0
 12 13  1  0
 13 14  2  0
 14 15  1  0
 15 16  2  0
 16 17  1  0
 17 18  2  0
 10 19  1  0
 19 20  1  0
 20 21  1  0
 21 22  2  0
 22 23  1  0
 23 24  2  0
 24 25  1  0
 24 26  1  0
 26 27  2  0
 19  2  1  0
 27 21  1  0
  8  3  1  0
 18 13  1  0
  4 28  1  0
  5 29  1  0
  6 30  1  0
  7 31  1  0
 11 32  1  0
 12 33  1  0
 14 34  1  0
 15 35  1  0
 16 36  1  0
 18 37  1  0
 20 38  1  0
 20 39  1  0
 22 40  1  0
 23 41  1  0
 26 42  1  0
 27 43  1  0
M  END
>  <meeko>  (15) 
{"free_energy": -7.37, "intermolecular_energy": -8.86, "internal_energy": -1.35, "cluster_size": 4, "cluster_id": 6, "rank_in_cluster": 1}

$$$$

     RDKit          3D

 43 46  0  0  0  0  0  0  0  0999 V2000
  140.3030   72.0750  224.8100 O   0  0  0  0  0  0  0  0  0  0  0  0
  139.7260   70.9500  224.8250 C   0  0  0  0  0  0  0  0  0  0  0  0
  140.0220   70.0350  225.8540 C   0  0  0  0  0  0  0  0  0  0  0  0
  140.9560   70.3170  226.8700 C   0  0  0  0  0  0  0  0  0  0  0  0
  141.2190   69.3680  227.8650 C   0  0  0  0  0  0  0  0  0  0  0  0
  140.5560   68.1380  227.8530 C   0  0  0  0  0  0  0  0  0  0  0  0
  139.6220   67.8540  226.8540 C   0  0  0  0  0  0  0  0  0  0  0  0
  139.3530   68.7970  225.8570 C   0  0  0  0  0  0  0  0  0  0  0  0
  138.4520   68.5190  224.8870 N   0  0  0  0  0  0  0  0  0  0  0  0
  138.1790   69.4010  223.8910 C   0  0  0  0  0  0  0  0  0  0  0  0
  137.1720   69.0100  222.8920 C   0  0  0  0  0  0  0  0  0  0  0  0
  135.9200   68.7300  223.2690 C   0  0  0  0  0  0  0  0  0  0  0  0
  135.2460   69.3790  224.4190 C   0  0  0  0  0  0  0  0  0  0  0  0
  135.1850   70.7760  224.5760 C   0  0  0  0  0  0  0  0  0  0  0  0
  134.5330   71.3310  225.6820 C   0  0  0  0  0  0  0  0  0  0  0  0
  133.9260   70.4820  226.6100 C   0  0  0  0  0  0  0  0  0  0  0  0
  133.9710   69.1360  226.4360 N   0  0  0  0  0  0  0  0  0  0  0  0
  134.6100   68.5720  225.3750 C   0  0  0  0  0  0  0  0  0  0  0  0
  138.8150   70.6230  223.8460 N   0  0  0  0  0  0  0  0  0  0  0  0
  138.4870   71.5940  222.7750 C   0  0  0  0  0  0  0  0  0  0  0  0
  139.7420   72.0660  222.0710 C   0  0  0  0  0  0  0  0  0  0  0  0
  140.0030   73.4380  221.9310 C   0  0  0  0  0  0  0  0  0  0  0  0
  141.2090   73.8720  221.3810 C   0  0  0  0  0  0  0  0  0  0  0  0
  142.1640   72.9420  220.9550 C   0  0  0  0  0  0  0  0  0  0  0  0
  143.6930   73.4850  220.3090 Cl  0  0  0  0  0  0  0  0  0  0  0  0
  141.8980   71.5720  221.0570 C   0  0  0  0  0  0  0  0  0  0  0  0
  140.6950   71.1350  221.6200 C   0  0  0  0  0  0  0  0  0  0  0  0
  141.4795   71.2844  226.8816 H   0  0  0  0  0  0  0  0  0  0  0  0
  141.9486   69.5909  228.6574 H   0  0  0  0  0  0  0  0  0  0  0  0
  140.7702   67.3916  228.6321 H   0  0  0  0  0  0  0  0  0  0  0  0
  139.0973   66.8872  226.8515 H   0  0  0  0  0  0  0  0  0  0  0  0
  137.4505   68.9477  221.8297 H   0  0  0  0  0  0  0  0  0  0  0  0
  135.3598   67.9774  222.6948 H   0  0  0  0  0  0  0  0  0  0  0  0
  135.6512   71.4332  223.8271 H   0  0  0  0  0  0  0  0  0  0  0  0
  134.4988   72.4219  225.8191 H   0  0  0  0  0  0  0  0  0  0  0  0
  133.4099   70.9049  227.4845 H   0  0  0  0  0  0  0  0  0  0  0  0
  134.6281   67.4776  225.2661 H   0  0  0  0  0  0  0  0  0  0  0  0
  137.8229   71.1118  222.0426 H   0  0  0  0  0  0  0  0  0  0  0  0
  137.9904   72.4640  223.2293 H   0  0  0  0  0  0  0  0  0  0  0  0
  139.2532   74.1741  222.2565 H   0  0  0  0  0  0  0  0  0  0  0  0
  141.4102   74.9489  221.2817 H   0  0  0  0  0  0  0  0  0  0  0  0
  142.6345   70.8396  220.6947 H   0  0  0  0  0  0  0  0  0  0  0  0
  140.4929   70.0575  221.7107 H   0  0  0  0  0  0  0  0  0  0  0  0
  1  2  2  0
  2  3  1  0
  3  4  2  0
  4  5  1  0
  5  6  2  0
  6  7  1  0
  7  8  2  0
  8  9  1  0
  9 10  2  0
 10 11  1  0
 11 12  2  0
 12 13  1  0
 13 14  2  0
 14 15  1  0
 15 16  2  0
 16 17  1  0
 17 18  2  0
 10 19  1  0
 19 20  1  0
 20 21  1  0
 21 22  2  0
 22 23  1  0
 23 24  2  0
 24 25  1  0
 24 26  1  0
 26 27  2  0
 19  2  1  0
 27 21  1  0
  8  3  1  0
 18 13  1  0
  4 28  1  0
  5 29  1  0
  6 30  1  0
  7 31  1  0
 11 32  1  0
 12 33  1  0
 14 34  1  0
 15 35  1  0
 16 36  1  0
 18 37  1  0
 20 38  1  0
 20 39  1  0
 22 40  1  0
 23 41  1  0
 26 42  1  0
 27 43  1  0
M  END
>  <meeko>  (16) 
{"free_energy": -7.25, "intermolecular_energy": -8.75, "internal_energy": -1.41, "cluster_size": 6, "cluster_id": 5, "rank_in_cluster": 5}

$$$$

     RDKit          3D

 43 46  0  0  0  0  0  0  0  0999 V2000
  140.9290   73.4360  221.9650 O   0  0  0  0  0  0  0  0  0  0  0  0
  139.7710   73.9300  222.0810 C   0  0  0  0  0  0  0  0  0  0  0  0
  139.6090   75.3290  222.0530 C   0  0  0  0  0  0  0  0  0  0  0  0
  140.6990   76.2120  221.9180 C   0  0  0  0  0  0  0  0  0  0  0  0
  140.4820   77.5960  221.9040 C   0  0  0  0  0  0  0  0  0  0  0  0
  139.1870   78.1040  222.0260 C   0  0  0  0  0  0  0  0  0  0  0  0
  138.1010   77.2350  222.1520 C   0  0  0  0  0  0  0  0  0  0  0  0
  138.3080   75.8520  222.1650 C   0  0  0  0  0  0  0  0  0  0  0  0
  137.2560   75.0100  222.2920 N   0  0  0  0  0  0  0  0  0  0  0  0
  137.4190   73.6630  222.3310 C   0  0  0  0  0  0  0  0  0  0  0  0
  136.2100   72.8330  222.4570 C   0  0  0  0  0  0  0  0  0  0  0  0
  135.7560   72.4800  223.6650 C   0  0  0  0  0  0  0  0  0  0  0  0
  135.1370   73.4310  224.6180 C   0  0  0  0  0  0  0  0  0  0  0  0
  135.3510   74.8210  224.5540 C   0  0  0  0  0  0  0  0  0  0  0  0
  134.7370   75.6700  225.4820 C   0  0  0  0  0  0  0  0  0  0  0  0
  133.8940   75.1220  226.4510 C   0  0  0  0  0  0  0  0  0  0  0  0
  133.6770   73.7820  226.4880 N   0  0  0  0  0  0  0  0  0  0  0  0
  134.2720   72.9350  225.6060 C   0  0  0  0  0  0  0  0  0  0  0  0
  138.6760   73.1080  222.2290 N   0  0  0  0  0  0  0  0  0  0  0  0
  138.8430   71.6350  222.2360 C   0  0  0  0  0  0  0  0  0  0  0  0
  139.1900   71.1380  223.6250 C   0  0  0  0  0  0  0  0  0  0  0  0
  138.4070   70.1490  224.2400 C   0  0  0  0  0  0  0  0  0  0  0  0
  138.7880   69.6130  225.4700 C   0  0  0  0  0  0  0  0  0  0  0  0
  139.9510   70.0650  226.1040 C   0  0  0  0  0  0  0  0  0  0  0  0
  140.4540   69.3610  227.6200 Cl  0  0  0  0  0  0  0  0  0  0  0  0
  140.7200   71.0740  225.5150 C   0  0  0  0  0  0  0  0  0  0  0  0
  140.3460   71.6040  224.2760 C   0  0  0  0  0  0  0  0  0  0  0  0
  141.7203   75.8145  221.8236 H   0  0  0  0  0  0  0  0  0  0  0  0
  141.3336   78.2840  221.7967 H   0  0  0  0  0  0  0  0  0  0  0  0
  139.0218   79.1915  222.0229 H   0  0  0  0  0  0  0  0  0  0  0  0
  137.0817   77.6388  222.2411 H   0  0  0  0  0  0  0  0  0  0  0  0
  135.6772   72.5013  221.5536 H   0  0  0  0  0  0  0  0  0  0  0  0
  135.8472   71.4263  223.9672 H   0  0  0  0  0  0  0  0  0  0  0  0
  136.0021   75.2407  223.7730 H   0  0  0  0  0  0  0  0  0  0  0  0
  134.9162   76.7548  225.4484 H   0  0  0  0  0  0  0  0  0  0  0  0
  133.4044   75.7775  227.1863 H   0  0  0  0  0  0  0  0  0  0  0  0
  134.0742   71.8547  225.6672 H   0  0  0  0  0  0  0  0  0  0  0  0
  137.9041   71.1643  221.9089 H   0  0  0  0  0  0  0  0  0  0  0  0
  139.6632   71.3705  221.5524 H   0  0  0  0  0  0  0  0  0  0  0  0
  137.4883   69.7948  223.7496 H   0  0  0  0  0  0  0  0  0  0  0  0
  138.1730   68.8332  225.9429 H   0  0  0  0  0  0  0  0  0  0  0  0
  141.6184   71.4504  226.0260 H   0  0  0  0  0  0  0  0  0  0  0  0
  140.9588   72.3889  223.8087 H   0  0  0  0  0  0  0  0  0  0  0  0
  1  2  2  0
  2  3  1  0
  3  4  2  0
  4  5  1  0
  5  6  2  0
  6  7  1  0
  7  8  2  0
  8  9  1  0
  9 10  2  0
 10 11  1  0
 11 12  2  0
 12 13  1  0
 13 14  2  0
 14 15  1  0
 15 16  2  0
 16 17  1  0
 17 18  2  0
 10 19  1  0
 19 20  1  0
 20 21  1  0
 21 22  2  0
 22 23  1  0
 23 24  2  0
 24 25  1  0
 24 26  1  0
 26 27  2  0
 19  2  1  0
 27 21  1  0
  8  3  1  0
 18 13  1  0
  4 28  1  0
  5 29  1  0
  6 30  1  0
  7 31  1  0
 11 32  1  0
 12 33  1  0
 14 34  1  0
 15 35  1  0
 16 36  1  0
 18 37  1  0
 20 38  1  0
 20 39  1  0
 22 40  1  0
 23 41  1  0
 26 42  1  0
 27 43  1  0
M  END
>  <meeko>  (17) 
{"free_energy": -7.35, "intermolecular_energy": -8.84, "internal_energy": -1.37, "cluster_size": 4, "cluster_id": 6, "rank_in_cluster": 4}

$$$$

     RDKit          3D

 43 46  0  0  0  0  0  0  0  0999 V2000
  137.9810   75.3720  221.4280 O   0  0  0  0  0  0  0  0  0  0  0  0
  139.1450   74.8820  221.3530 C   0  0  0  0  0  0  0  0  0  0  0  0
  139.3700   73.5640  221.7930 C   0  0  0  0  0  0  0  0  0  0  0  0
  138.3450   72.7640  222.3350 C   0  0  0  0  0  0  0  0  0  0  0  0
  138.6250   71.4610  222.7650 C   0  0  0  0  0  0  0  0  0  0  0  0
  139.9210   70.9510  222.6590 C   0  0  0  0  0  0  0  0  0  0  0  0
  140.9410   71.7350  222.1150 C   0  0  0  0  0  0  0  0  0  0  0  0
  140.6690   73.0370  221.6820 C   0  0  0  0  0  0  0  0  0  0  0  0
  141.6590   73.7980  221.1590 N   0  0  0  0  0  0  0  0  0  0  0  0
  141.4390   75.0730  220.7480 C   0  0  0  0  0  0  0  0  0  0  0  0
  142.5780   75.8120  220.1800 C   0  0  0  0  0  0  0  0  0  0  0  0
  143.3700   75.2350  219.2690 C   0  0  0  0  0  0  0  0  0  0  0  0
  144.4050   74.2280  219.6020 C   0  0  0  0  0  0  0  0  0  0  0  0
  144.9900   74.1320  220.8780 C   0  0  0  0  0  0  0  0  0  0  0  0
  145.9620   73.1590  221.1340 C   0  0  0  0  0  0  0  0  0  0  0  0
  146.3230   72.2740  220.1150 C   0  0  0  0  0  0  0  0  0  0  0  0
  145.7350   72.3620  218.8940 N   0  0  0  0  0  0  0  0  0  0  0  0
  144.7970   73.3080  218.6180 C   0  0  0  0  0  0  0  0  0  0  0  0
  140.1820   75.6300  220.8420 N   0  0  0  0  0  0  0  0  0  0  0  0
  139.9420   77.0100  220.3590 C   0  0  0  0  0  0  0  0  0  0  0  0
  140.6030   78.0250  221.2700 C   0  0  0  0  0  0  0  0  0  0  0  0
  140.7090   77.7770  222.6470 C   0  0  0  0  0  0  0  0  0  0  0  0
  141.4130   78.6580  223.4690 C   0  0  0  0  0  0  0  0  0  0  0  0
  142.0090   79.8010  222.9260 C   0  0  0  0  0  0  0  0  0  0  0  0
  142.9300   80.8790  223.9450 Cl  0  0  0  0  0  0  0  0  0  0  0  0
  141.8800   80.0750  221.5600 C   0  0  0  0  0  0  0  0  0  0  0  0
  141.1860   79.1870  220.7330 C   0  0  0  0  0  0  0  0  0  0  0  0
  137.3236   73.1632  222.4206 H   0  0  0  0  0  0  0  0  0  0  0  0
  137.8227   70.8379  223.1871 H   0  0  0  0  0  0  0  0  0  0  0  0
  140.1389   69.9297  223.0047 H   0  0  0  0  0  0  0  0  0  0  0  0
  141.9592   71.3281  222.0270 H   0  0  0  0  0  0  0  0  0  0  0  0
  142.7790   76.8432  220.5059 H   0  0  0  0  0  0  0  0  0  0  0  0
  143.2461   75.5240  218.2149 H   0  0  0  0  0  0  0  0  0  0  0  0
  144.6824   74.8236  221.6761 H   0  0  0  0  0  0  0  0  0  0  0  0
  146.4358   73.0916  222.1245 H   0  0  0  0  0  0  0  0  0  0  0  0
  147.0857   71.5037  220.3022 H   0  0  0  0  0  0  0  0  0  0  0  0
  144.3431   73.3518  217.6170 H   0  0  0  0  0  0  0  0  0  0  0  0
  140.3553   77.1135  219.3448 H   0  0  0  0  0  0  0  0  0  0  0  0
  138.8580   77.1966  220.3533 H   0  0  0  0  0  0  0  0  0  0  0  0
  140.2350   76.8840  223.0805 H   0  0  0  0  0  0  0  0  0  0  0  0
  141.4994   78.4531  224.5463 H   0  0  0  0  0  0  0  0  0  0  0  0
  142.3242   80.9882  221.1373 H   0  0  0  0  0  0  0  0  0  0  0  0
  141.0954   79.3979  219.6572 H   0  0  0  0  0  0  0  0  0  0  0  0
  1  2  2  0
  2  3  1  0
  3  4  2  0
  4  5  1  0
  5  6  2  0
  6  7  1  0
  7  8  2  0
  8  9  1  0
  9 10  2  0
 10 11  1  0
 11 12  2  0
 12 13  1  0
 13 14  2  0
 14 15  1  0
 15 16  2  0
 16 17  1  0
 17 18  2  0
 10 19  1  0
 19 20  1  0
 20 21  1  0
 21 22  2  0
 22 23  1  0
 23 24  2  0
 24 25  1  0
 24 26  1  0
 26 27  2  0
 19  2  1  0
 27 21  1  0
  8  3  1  0
 18 13  1  0
  4 28  1  0
  5 29  1  0
  6 30  1  0
  7 31  1  0
 11 32  1  0
 12 33  1  0
 14 34  1  0
 15 35  1  0
 16 36  1  0
 18 37  1  0
 20 38  1  0
 20 39  1  0
 22 40  1  0
 23 41  1  0
 26 42  1  0
 27 43  1  0
M  END
>  <meeko>  (18) 
{"free_energy": -7.45, "intermolecular_energy": -8.94, "internal_energy": -1.31, "cluster_size": 1, "cluster_id": 4, "rank_in_cluster": 1}

$$$$

     RDKit          3D

 43 46  0  0  0  0  0  0  0  0999 V2000
  138.8850   74.0600  222.3180 O   0  0  0  0  0  0  0  0  0  0  0  0
  139.9170   73.9760  221.5920 C   0  0  0  0  0  0  0  0  0  0  0  0
  140.6190   75.1470  221.2490 C   0  0  0  0  0  0  0  0  0  0  0  0
  140.2060   76.4260  221.6730 C   0  0  0  0  0  0  0  0  0  0  0  0
  140.9380   77.5590  221.2970 C   0  0  0  0  0  0  0  0  0  0  0  0
  142.0770   77.4260  220.5000 C   0  0  0  0  0  0  0  0  0  0  0  0
  142.4980   76.1610  220.0830 C   0  0  0  0  0  0  0  0  0  0  0  0
  141.7740   75.0240  220.4560 C   0  0  0  0  0  0  0  0  0  0  0  0
  142.1790   73.7980  220.0470 N   0  0  0  0  0  0  0  0  0  0  0  0
  141.4910   72.6740  220.3700 C   0  0  0  0  0  0  0  0  0  0  0  0
  142.0220   71.3880  219.8890 C   0  0  0  0  0  0  0  0  0  0  0  0
  143.2880   71.0400  220.1510 C   0  0  0  0  0  0  0  0  0  0  0  0
  144.4210   71.9940  220.1290 C   0  0  0  0  0  0  0  0  0  0  0  0
  144.8270   72.7210  221.2640 C   0  0  0  0  0  0  0  0  0  0  0  0
  145.9070   73.6070  221.1820 C   0  0  0  0  0  0  0  0  0  0  0  0
  146.5880   73.7390  219.9700 C   0  0  0  0  0  0  0  0  0  0  0  0
  146.2020   73.0140  218.8870 N   0  0  0  0  0  0  0  0  0  0  0  0
  145.1470   72.1570  218.9390 C   0  0  0  0  0  0  0  0  0  0  0  0
  140.3520   72.7490  221.1420 N   0  0  0  0  0  0  0  0  0  0  0  0
  139.6260   71.5130  221.5200 C   0  0  0  0  0  0  0  0  0  0  0  0
  139.7180   71.2670  223.0120 C   0  0  0  0  0  0  0  0  0  0  0  0
  138.8750   70.3300  223.6290 C   0  0  0  0  0  0  0  0  0  0  0  0
  139.0330   70.0230  224.9800 C   0  0  0  0  0  0  0  0  0  0  0  0
  140.0280   70.6560  225.7340 C   0  0  0  0  0  0  0  0  0  0  0  0
  140.2570   70.2380  227.4130 Cl  0  0  0  0  0  0  0  0  0  0  0  0
  140.8500   71.6170  225.1360 C   0  0  0  0  0  0  0  0  0  0  0  0
  140.7020   71.9170  223.7790 C   0  0  0  0  0  0  0  0  0  0  0  0
  139.3083   76.5343  222.2995 H   0  0  0  0  0  0  0  0  0  0  0  0
  140.6150   78.5563  221.6303 H   0  0  0  0  0  0  0  0  0  0  0  0
  142.6440   78.3195  220.1999 H   0  0  0  0  0  0  0  0  0  0  0  0
  143.3995   76.0591  219.4609 H   0  0  0  0  0  0  0  0  0  0  0  0
  141.3759   70.7101  219.3119 H   0  0  0  0  0  0  0  0  0  0  0  0
  143.4982   69.9884  220.3959 H   0  0  0  0  0  0  0  0  0  0  0  0
  144.2940   72.5923  222.2176 H   0  0  0  0  0  0  0  0  0  0  0  0
  146.2156   74.1920  222.0610 H   0  0  0  0  0  0  0  0  0  0  0  0
  147.4390   74.4315  219.8916 H   0  0  0  0  0  0  0  0  0  0  0  0
  144.8609   71.5878  218.0422 H   0  0  0  0  0  0  0  0  0  0  0  0
  138.5682   71.6157  221.2365 H   0  0  0  0  0  0  0  0  0  0  0  0
  140.0837   70.6619  220.9946 H   0  0  0  0  0  0  0  0  0  0  0  0
  138.0857   69.8353  223.0440 H   0  0  0  0  0  0  0  0  0  0  0  0
  138.3738   69.2812  225.4546 H   0  0  0  0  0  0  0  0  0  0  0  0
  141.6131   72.1367  225.7340 H   0  0  0  0  0  0  0  0  0  0  0  0
  141.3577   72.6646  223.3087 H   0  0  0  0  0  0  0  0  0  0  0  0
  1  2  2  0
  2  3  1  0
  3  4  2  0
  4  5  1  0
  5  6  2  0
  6  7  1  0
  7  8  2  0
  8  9  1  0
  9 10  2  0
 10 11  1  0
 11 12  2  0
 12 13  1  0
 13 14  2  0
 14 15  1  0
 15 16  2  0
 16 17  1  0
 17 18  2  0
 10 19  1  0
 19 20  1  0
 20 21  1  0
 21 22  2  0
 22 23  1  0
 23 24  2  0
 24 25  1  0
 24 26  1  0
 26 27  2  0
 19  2  1  0
 27 21  1  0
  8  3  1  0
 18 13  1  0
  4 28  1  0
  5 29  1  0
  6 30  1  0
  7 31  1  0
 11 32  1  0
 12 33  1  0
 14 34  1  0
 15 35  1  0
 16 36  1  0
 18 37  1  0
 20 38  1  0
 20 39  1  0
 22 40  1  0
 23 41  1  0
 26 42  1  0
 27 43  1  0
M  END
>  <meeko>  (19) 
{"free_energy": -7.39, "intermolecular_energy": -8.88, "internal_energy": -1.43, "cluster_size": 6, "cluster_id": 2, "rank_in_cluster": 3}

$$$$

     RDKit          3D

 43 46  0  0  0  0  0  0  0  0999 V2000
  141.4280   70.9050  221.2130 O   0  0  0  0  0  0  0  0  0  0  0  0
  141.5500   72.1630  221.2230 C   0  0  0  0  0  0  0  0  0  0  0  0
  142.7670   72.7440  220.8190 C   0  0  0  0  0  0  0  0  0  0  0  0
  143.8740   71.9720  220.4140 C   0  0  0  0  0  0  0  0  0  0  0  0
  145.0650   72.6010  220.0290 C   0  0  0  0  0  0  0  0  0  0  0  0
  145.1590   73.9940  220.0460 C   0  0  0  0  0  0  0  0  0  0  0  0
  144.0630   74.7670  220.4380 C   0  0  0  0  0  0  0  0  0  0  0  0
  142.8700   74.1470  220.8230 C   0  0  0  0  0  0  0  0  0  0  0  0
  141.8110   74.8960  221.2070 N   0  0  0  0  0  0  0  0  0  0  0  0
  140.6430   74.3300  221.6080 C   0  0  0  0  0  0  0  0  0  0  0  0
  139.5460   75.2320  221.9930 C   0  0  0  0  0  0  0  0  0  0  0  0
  139.5320   76.5000  221.5630 C   0  0  0  0  0  0  0  0  0  0  0  0
  140.0620   77.6380  222.3500 C   0  0  0  0  0  0  0  0  0  0  0  0
  141.4280   77.9740  222.3760 C   0  0  0  0  0  0  0  0  0  0  0  0
  141.8690   79.0620  223.1370 C   0  0  0  0  0  0  0  0  0  0  0  0
  140.9350   79.8200  223.8470 C   0  0  0  0  0  0  0  0  0  0  0  0
  139.6160   79.5000  223.7940 N   0  0  0  0  0  0  0  0  0  0  0  0
  139.1640   78.4390  223.0720 C   0  0  0  0  0  0  0  0  0  0  0  0
  140.5000   72.9600  221.6240 N   0  0  0  0  0  0  0  0  0  0  0  0
  139.2110   72.3510  222.0290 C   0  0  0  0  0  0  0  0  0  0  0  0
  139.3640   71.5710  223.3200 C   0  0  0  0  0  0  0  0  0  0  0  0
  138.5260   70.4780  223.5910 C   0  0  0  0  0  0  0  0  0  0  0  0
  138.7370   69.6940  224.7250 C   0  0  0  0  0  0  0  0  0  0  0  0
  139.7800   69.9980  225.6070 C   0  0  0  0  0  0  0  0  0  0  0  0
  140.0740   68.9900  227.0010 Cl  0  0  0  0  0  0  0  0  0  0  0  0
  140.5990   71.1070  225.3640 C   0  0  0  0  0  0  0  0  0  0  0  0
  140.3970   71.8860  224.2200 C   0  0  0  0  0  0  0  0  0  0  0  0
  143.8029   70.8744  220.4001 H   0  0  0  0  0  0  0  0  0  0  0  0
  145.9278   71.9964  219.7127 H   0  0  0  0  0  0  0  0  0  0  0  0
  146.0982   74.4841  219.7500 H   0  0  0  0  0  0  0  0  0  0  0  0
  144.1386   75.8644  220.4438 H   0  0  0  0  0  0  0  0  0  0  0  0
  138.7340   74.8630  222.6368 H   0  0  0  0  0  0  0  0  0  0  0  0
  139.1037   76.7082  220.5714 H   0  0  0  0  0  0  0  0  0  0  0  0
  142.1505   77.3802  221.7970 H   0  0  0  0  0  0  0  0  0  0  0  0
  142.9382   79.3174  223.1757 H   0  0  0  0  0  0  0  0  0  0  0  0
  141.2682   80.6775  224.4501 H   0  0  0  0  0  0  0  0  0  0  0  0
  138.0887   78.2078  223.0542 H   0  0  0  0  0  0  0  0  0  0  0  0
  138.4665   73.1474  222.1753 H   0  0  0  0  0  0  0  0  0  0  0  0
  138.8840   71.6606  221.2375 H   0  0  0  0  0  0  0  0  0  0  0  0
  137.6993   70.2388  222.9060 H   0  0  0  0  0  0  0  0  0  0  0  0
  138.0815   68.8340  224.9267 H   0  0  0  0  0  0  0  0  0  0  0  0
  141.4004   71.3655  226.0718 H   0  0  0  0  0  0  0  0  0  0  0  0
  141.0497   72.7494  224.0236 H   0  0  0  0  0  0  0  0  0  0  0  0
  1  2  2  0
  2  3  1  0
  3  4  2  0
  4  5  1  0
  5  6  2  0
  6  7  1  0
  7  8  2  0
  8  9  1  0
  9 10  2  0
 10 11  1  0
 11 12  2  0
 12 13  1  0
 13 14  2  0
 14 15  1  0
 15 16  2  0
 16 17  1  0
 17 18  2  0
 10 19  1  0
 19 20  1  0
 20 21  1  0
 21 22  2  0
 22 23  1  0
 23 24  2  0
 24 25  1  0
 24 26  1  0
 26 27  2  0
 19  2  1  0
 27 21  1  0
  8  3  1  0
 18 13  1  0
  4 28  1  0
  5 29  1  0
  6 30  1  0
  7 31  1  0
 11 32  1  0
 12 33  1  0
 14 34  1  0
 15 35  1  0
 16 36  1  0
 18 37  1  0
 20 38  1  0
 20 39  1  0
 22 40  1  0
 23 41  1  0
 26 42  1  0
 27 43  1  0
M  END
>  <meeko>  (20) 
{"free_energy": -7.48, "intermolecular_energy": -8.97, "internal_energy": -1.17, "cluster_size": 2, "cluster_id": 1, "rank_in_cluster": 2}

$$$$
