
     RDKit          3D

 59 64  0  0  0  0  0  0  0  0999 V2000
  145.9030   72.4700  218.5880 N   0  0  0  0  0  0  0  0  0  0  0  0
  144.8830   72.4160  219.3820 C   0  0  0  0  0  0  0  0  0  0  0  0
  144.6230   71.2370  220.0770 O   0  0  0  0  0  0  0  0  0  0  0  0
  143.9970   73.5900  219.5530 C   0  0  0  0  0  0  0  0  0  0  0  0
  144.0760   74.7000  218.6670 C   0  0  0  0  0  0  0  0  0  0  0  0
  143.2350   75.8160  218.8310 C   0  0  0  0  0  0  0  0  0  0  0  0
  142.3240   75.7940  219.8830 C   0  0  0  0  0  0  0  0  0  0  0  0
  141.4000   76.7330  220.2840 C   0  0  0  0  0  0  0  0  0  0  0  0
  140.7770   76.1700  221.3970 C   0  0  0  0  0  0  0  0  0  0  0  0
  139.7250   76.8070  222.2120 C   0  0  0  0  0  0  0  0  0  0  0  0
  138.8730   76.0740  222.7830 O   0  0  0  0  0  0  0  0  0  0  0  0
  139.6330   78.2360  222.3330 N   0  0  0  0  0  0  0  0  0  0  0  0
  138.3650   78.9610  222.4610 C   0  0  0  0  0  0  0  0  0  0  0  0
  138.7020   80.3060  223.1950 C   0  0  1  0  0  0  0  0  0  0  0  0
  138.1560   81.5460  222.4730 C   0  0  0  0  0  0  0  0  0  0  0  0
  137.3540   82.2890  223.5300 C   0  0  0  0  0  0  0  0  0  0  0  0
  136.9540   81.3160  224.5620 N   0  0  0  0  0  0  0  0  0  0  0  0
  135.6710   80.6400  224.2190 C   0  0  2  0  0  0  0  0  0  0  0  0
  134.8960   81.4020  223.1480 C   0  0  0  0  0  0  0  0  0  0  0  0
  133.4240   81.2280  223.4970 C   0  0  0  0  0  0  0  0  0  0  0  0
  133.3390   80.6260  224.8300 N   0  0  0  0  0  0  0  0  0  0  0  0
  134.6890   80.6230  225.3900 C   0  0  0  0  0  0  0  0  0  0  0  0
  138.0870   80.3760  224.6080 C   0  0  0  0  0  0  0  0  0  0  0  0
  140.2030   80.2790  223.2520 C   0  0  0  0  0  0  0  0  0  0  0  0
  141.0730   81.2680  223.7270 C   0  0  0  0  0  0  0  0  0  0  0  0
  142.4540   81.0230  223.6930 C   0  0  0  0  0  0  0  0  0  0  0  0
  142.9450   79.8040  223.1890 C   0  0  0  0  0  0  0  0  0  0  0  0
  142.0550   78.8240  222.7210 C   0  0  0  0  0  0  0  0  0  0  0  0
  140.6810   79.0860  222.7780 C   0  0  0  0  0  0  0  0  0  0  0  0
  141.3040   74.9550  221.6810 N   0  0  0  0  0  0  0  0  0  0  0  0
  142.2400   74.7360  220.7430 C   0  0  0  0  0  0  0  0  0  0  0  0
  143.0600   73.6160  220.6130 C   0  0  0  0  0  0  0  0  0  0  0  0
  144.8120   71.1600  221.0700 H   0  0  0  0  0  0  0  0  0  0  0  0
  144.8043   74.6857  217.8427 H   0  0  0  0  0  0  0  0  0  0  0  0
  143.2955   76.6777  218.1500 H   0  0  0  0  0  0  0  0  0  0  0  0
  141.1977   77.7127  219.8264 H   0  0  0  0  0  0  0  0  0  0  0  0
  137.9404   79.1651  221.4670 H   0  0  0  0  0  0  0  0  0  0  0  0
  137.6223   78.3739  223.0211 H   0  0  0  0  0  0  0  0  0  0  0  0
  138.9803   82.1721  222.1008 H   0  0  0  0  0  0  0  0  0  0  0  0
  137.5446   81.2813  221.5977 H   0  0  0  0  0  0  0  0  0  0  0  0
  137.9720   83.0794  223.9810 H   0  0  0  0  0  0  0  0  0  0  0  0
  136.4661   82.7562  223.0791 H   0  0  0  0  0  0  0  0  0  0  0  0
  135.9806   79.6326  223.9040 H   0  0  0  0  0  0  0  0  0  0  0  0
  135.1696   82.4673  223.1625 H   0  0  0  0  0  0  0  0  0  0  0  0
  135.1202   81.0232  222.1399 H   0  0  0  0  0  0  0  0  0  0  0  0
  132.9230   82.2073  223.4978 H   0  0  0  0  0  0  0  0  0  0  0  0
  132.9309   80.5821  222.7556 H   0  0  0  0  0  0  0  0  0  0  0  0
  132.6910   81.1740  225.4440 H   0  0  0  0  0  0  0  0  0  0  0  0
  132.9900   79.6420  224.7520 H   0  0  0  0  0  0  0  0  0  0  0  0
  134.8374   81.5140  226.0178 H   0  0  0  0  0  0  0  0  0  0  0  0
  134.8472   79.7324  226.0160 H   0  0  0  0  0  0  0  0  0  0  0  0
  138.8399   80.7329  225.3261 H   0  0  0  0  0  0  0  0  0  0  0  0
  137.7462   79.3801  224.9276 H   0  0  0  0  0  0  0  0  0  0  0  0
  140.6814   82.2182  224.1191 H   0  0  0  0  0  0  0  0  0  0  0  0
  143.1554   81.7861  224.0614 H   0  0  0  0  0  0  0  0  0  0  0  0
  144.0289   79.6186  223.1617 H   0  0  0  0  0  0  0  0  0  0  0  0
  142.4292   77.8712  222.3184 H   0  0  0  0  0  0  0  0  0  0  0  0
  141.0370   74.3150  222.4630 H   0  0  0  0  0  0  0  0  0  0  0  0
  142.9806   72.7741  221.3165 H   0  0  0  0  0  0  0  0  0  0  0  0
  1  2  2  0
  2  3  1  0
  2  4  1  0
  4  5  2  0
  5  6  1  0
  6  7  2  0
  7  8  1  0
  8  9  2  0
  9 10  1  0
 10 11  2  0
 10 12  1  0
 12 13  1  0
 14 13  1  6
 14 15  1  0
 15 16  1  0
 16 17  1  0
 17 18  1  0
 18 19  1  0
 19 20  1  0
 20 21  1  0
 21 22  1  0
 17 23  1  0
 14 24  1  0
 24 25  2  0
 25 26  1  0
 26 27  2  0
 27 28  1  0
 28 29  2  0
  9 30  1  0
 30 31  1  0
 31 32  2  0
 32  4  1  0
 31  7  1  0
 29 12  1  0
 23 14  1  0
 29 24  1  0
 22 18  1  0
  3 33  1  0
  5 34  1  0
  6 35  1  0
  8 36  1  0
 13 37  1  0
 13 38  1  0
 15 39  1  0
 15 40  1  0
 16 41  1  0
 16 42  1  0
 18 43  1  6
 19 44  1  0
 19 45  1  0
 20 46  1  0
 20 47  1  0
 21 48  1  0
 21 49  1  0
 22 50  1  0
 22 51  1  0
 23 52  1  0
 23 53  1  0
 25 54  1  0
 26 55  1  0
 27 56  1  0
 28 57  1  0
 30 58  1  0
 32 59  1  0
M  CHG  2   1  -1  21   1
M  END
>  <meeko>  (1) 
{"free_energy": -7.97, "intermolecular_energy": -9.46, "internal_energy": -0.99, "cluster_size": 4, "cluster_id": 2, "rank_in_cluster": 4}

$$$$

     RDKit          3D

 59 64  0  0  0  0  0  0  0  0999 V2000
  145.9440   72.1430  218.4080 N   0  0  0  0  0  0  0  0  0  0  0  0
  144.9520   72.2360  219.2330 C   0  0  0  0  0  0  0  0  0  0  0  0
  144.6480   71.1550  220.0580 O   0  0  0  0  0  0  0  0  0  0  0  0
  144.1440   73.4750  219.3040 C   0  0  0  0  0  0  0  0  0  0  0  0
  144.1520   74.4150  218.2360 C   0  0  0  0  0  0  0  0  0  0  0  0
  143.3850   75.5920  218.3050 C   0  0  0  0  0  0  0  0  0  0  0  0
  142.6180   75.8020  219.4460 C   0  0  0  0  0  0  0  0  0  0  0  0
  141.7920   76.8500  219.7880 C   0  0  0  0  0  0  0  0  0  0  0  0
  141.2960   76.5200  221.0480 C   0  0  0  0  0  0  0  0  0  0  0  0
  140.3850   77.3470  221.8610 C   0  0  0  0  0  0  0  0  0  0  0  0
  139.5410   76.7720  222.6010 O   0  0  0  0  0  0  0  0  0  0  0  0
  140.4160   78.7830  221.7950 N   0  0  0  0  0  0  0  0  0  0  0  0
  140.9470   79.5330  220.6540 C   0  0  0  0  0  0  0  0  0  0  0  0
  140.2320   80.9290  220.6760 C   0  0  1  0  0  0  0  0  0  0  0  0
  141.2070   82.1130  220.5960 C   0  0  0  0  0  0  0  0  0  0  0  0
  140.7020   82.9520  219.4310 C   0  0  0  0  0  0  0  0  0  0  0  0
  139.9170   82.0740  218.5460 N   0  0  0  0  0  0  0  0  0  0  0  0
  140.7760   81.3890  217.5400 C   0  0  2  0  0  0  0  0  0  0  0  0
  140.5960   79.8740  217.5770 C   0  0  0  0  0  0  0  0  0  0  0  0
  141.9680   79.2850  217.2750 C   0  0  0  0  0  0  0  0  0  0  0  0
  142.9500   80.3710  217.3160 N   0  0  0  0  0  0  0  0  0  0  0  0
  142.2660   81.5530  217.8370 C   0  0  0  0  0  0  0  0  0  0  0  0
  139.2810   81.1250  219.4770 C   0  0  0  0  0  0  0  0  0  0  0  0
  139.4750   80.8870  221.9740 C   0  0  0  0  0  0  0  0  0  0  0  0
  138.7140   81.8990  222.5700 C   0  0  0  0  0  0  0  0  0  0  0  0
  138.0790   81.6330  223.7930 C   0  0  0  0  0  0  0  0  0  0  0  0
  138.2120   80.3700  224.3990 C   0  0  0  0  0  0  0  0  0  0  0  0
  138.9760   79.3670  223.7820 C   0  0  0  0  0  0  0  0  0  0  0  0
  139.5880   79.6510  222.5560 C   0  0  0  0  0  0  0  0  0  0  0  0
  141.8050   75.3390  221.4720 N   0  0  0  0  0  0  0  0  0  0  0  0
  142.6030   74.9090  220.4810 C   0  0  0  0  0  0  0  0  0  0  0  0
  143.3530   73.7350  220.4490 C   0  0  0  0  0  0  0  0  0  0  0  0
  144.8770   71.1670  221.0450 H   0  0  0  0  0  0  0  0  0  0  0  0
  144.7660   74.2187  217.3447 H   0  0  0  0  0  0  0  0  0  0  0  0
  143.3916   76.3229  217.4829 H   0  0  0  0  0  0  0  0  0  0  0  0
  141.5719   77.7506  219.1960 H   0  0  0  0  0  0  0  0  0  0  0  0
  142.0350   79.6603  220.7546 H   0  0  0  0  0  0  0  0  0  0  0  0
  140.7641   79.0042  219.7070 H   0  0  0  0  0  0  0  0  0  0  0  0
  141.1883   82.6945  221.5295 H   0  0  0  0  0  0  0  0  0  0  0  0
  142.2475   81.7861  220.4529 H   0  0  0  0  0  0  0  0  0  0  0  0
  140.0672   83.7683  219.8061 H   0  0  0  0  0  0  0  0  0  0  0  0
  141.5473   83.3922  218.8816 H   0  0  0  0  0  0  0  0  0  0  0  0
  140.4762   81.8439  216.5844 H   0  0  0  0  0  0  0  0  0  0  0  0
  140.2521   79.5534  218.5714 H   0  0  0  0  0  0  0  0  0  0  0  0
  139.8424   79.5382  216.8495 H   0  0  0  0  0  0  0  0  0  0  0  0
  142.2213   78.5250  218.0288 H   0  0  0  0  0  0  0  0  0  0  0  0
  141.9679   78.8093  216.2832 H   0  0  0  0  0  0  0  0  0  0  0  0
  143.7590   80.1180  217.9320 H   0  0  0  0  0  0  0  0  0  0  0  0
  143.3010   80.5670  216.3500 H   0  0  0  0  0  0  0  0  0  0  0  0
  142.4263   81.6318  218.9224 H   0  0  0  0  0  0  0  0  0  0  0  0
  142.6571   82.4666  217.3653 H   0  0  0  0  0  0  0  0  0  0  0  0
  138.3193   81.5301  219.8249 H   0  0  0  0  0  0  0  0  0  0  0  0
  139.0925   80.1641  218.9759 H   0  0  0  0  0  0  0  0  0  0  0  0
  138.6155   82.8835  222.0894 H   0  0  0  0  0  0  0  0  0  0  0  0
  137.4757   82.4139  224.2791 H   0  0  0  0  0  0  0  0  0  0  0  0
  137.7156   80.1680  225.3596 H   0  0  0  0  0  0  0  0  0  0  0  0
  139.0911   78.3792  224.2520 H   0  0  0  0  0  0  0  0  0  0  0  0
  141.6160   74.8560  222.3790 H   0  0  0  0  0  0  0  0  0  0  0  0
  143.3310   73.0284  221.2918 H   0  0  0  0  0  0  0  0  0  0  0  0
  1  2  2  0
  2  3  1  0
  2  4  1  0
  4  5  2  0
  5  6  1  0
  6  7  2  0
  7  8  1  0
  8  9  2  0
  9 10  1  0
 10 11  2  0
 10 12  1  0
 12 13  1  0
 14 13  1  6
 14 15  1  0
 15 16  1  0
 16 17  1  0
 17 18  1  0
 18 19  1  0
 19 20  1  0
 20 21  1  0
 21 22  1  0
 17 23  1  0
 14 24  1  0
 24 25  2  0
 25 26  1  0
 26 27  2  0
 27 28  1  0
 28 29  2  0
  9 30  1  0
 30 31  1  0
 31 32  2  0
 32  4  1  0
 31  7  1  0
 29 12  1  0
 23 14  1  0
 29 24  1  0
 22 18  1  0
  3 33  1  0
  5 34  1  0
  6 35  1  0
  8 36  1  0
 13 37  1  0
 13 38  1  0
 15 39  1  0
 15 40  1  0
 16 41  1  0
 16 42  1  0
 18 43  1  6
 19 44  1  0
 19 45  1  0
 20 46  1  0
 20 47  1  0
 21 48  1  0
 21 49  1  0
 22 50  1  0
 22 51  1  0
 23 52  1  0
 23 53  1  0
 25 54  1  0
 26 55  1  0
 27 56  1  0
 28 57  1  0
 30 58  1  0
 32 59  1  0
M  CHG  2   1  -1  21   1
M  END
>  <meeko>  (2) 
{"free_energy": -8.3, "intermolecular_energy": -9.79, "internal_energy": -0.83, "cluster_size": 13, "cluster_id": 1, "rank_in_cluster": 10}

$$$$

     RDKit          3D

 59 64  0  0  0  0  0  0  0  0999 V2000
  146.3260   71.8840  219.5550 N   0  0  0  0  0  0  0  0  0  0  0  0
  145.5310   72.7570  219.0280 C   0  0  0  0  0  0  0  0  0  0  0  0
  145.9190   73.4170  217.8640 O   0  0  0  0  0  0  0  0  0  0  0  0
  144.2200   73.0580  219.6500 C   0  0  0  0  0  0  0  0  0  0  0  0
  143.2830   72.0210  219.9140 C   0  0  0  0  0  0  0  0  0  0  0  0
  142.0380   72.3070  220.5040 C   0  0  0  0  0  0  0  0  0  0  0  0
  141.7590   73.6320  220.8220 C   0  0  0  0  0  0  0  0  0  0  0  0
  140.6380   74.1990  221.3880 C   0  0  0  0  0  0  0  0  0  0  0  0
  140.9220   75.5620  221.4610 C   0  0  0  0  0  0  0  0  0  0  0  0
  140.0140   76.6070  221.9690 C   0  0  0  0  0  0  0  0  0  0  0  0
  138.9300   76.2580  222.5100 O   0  0  0  0  0  0  0  0  0  0  0  0
  140.3230   78.0040  221.8240 N   0  0  0  0  0  0  0  0  0  0  0  0
  141.0760   78.5560  220.6950 C   0  0  0  0  0  0  0  0  0  0  0  0
  140.6400   80.0590  220.5720 C   0  0  1  0  0  0  0  0  0  0  0  0
  141.8260   81.0330  220.5120 C   0  0  0  0  0  0  0  0  0  0  0  0
  141.5830   81.8620  219.2610 C   0  0  0  0  0  0  0  0  0  0  0  0
  140.7170   81.0820  218.3600 N   0  0  0  0  0  0  0  0  0  0  0  0
  141.5070   80.1780  217.4770 C   0  0  2  0  0  0  0  0  0  0  0  0
  140.8660   78.7980  217.3580 C   0  0  0  0  0  0  0  0  0  0  0  0
  142.0210   77.8100  217.2670 C   0  0  0  0  0  0  0  0  0  0  0  0
  143.2610   78.5270  217.5760 N   0  0  0  0  0  0  0  0  0  0  0  0
  142.8840   79.8550  218.0560 C   0  0  0  0  0  0  0  0  0  0  0  0
  139.8420   80.3380  219.2820 C   0  0  0  0  0  0  0  0  0  0  0  0
  139.7890   80.2520  221.7950 C   0  0  0  0  0  0  0  0  0  0  0  0
  139.1900   81.4280  222.2610 C   0  0  0  0  0  0  0  0  0  0  0  0
  138.4220   81.3750  223.4340 C   0  0  0  0  0  0  0  0  0  0  0  0
  138.2630   80.1570  224.1210 C   0  0  0  0  0  0  0  0  0  0  0  0
  138.8700   78.9880  223.6350 C   0  0  0  0  0  0  0  0  0  0  0  0
  139.6190   79.0630  222.4550 C   0  0  0  0  0  0  0  0  0  0  0  0
  142.1480   75.8260  220.9480 N   0  0  0  0  0  0  0  0  0  0  0  0
  142.6490   74.6390  220.5710 C   0  0  0  0  0  0  0  0  0  0  0  0
  143.8900   74.3930  219.9850 C   0  0  0  0  0  0  0  0  0  0  0  0
  145.9480   74.4290  217.8190 H   0  0  0  0  0  0  0  0  0  0  0  0
  143.5348   70.9823  219.6537 H   0  0  0  0  0  0  0  0  0  0  0  0
  141.3090   71.5086  220.7071 H   0  0  0  0  0  0  0  0  0  0  0  0
  139.7194   73.6878  221.7117 H   0  0  0  0  0  0  0  0  0  0  0  0
  142.1569   78.4868  220.8871 H   0  0  0  0  0  0  0  0  0  0  0  0
  140.8717   78.0017  219.7671 H   0  0  0  0  0  0  0  0  0  0  0  0
  141.8459   81.6752  221.4049 H   0  0  0  0  0  0  0  0  0  0  0  0
  142.7929   80.5094  220.4825 H   0  0  0  0  0  0  0  0  0  0  0  0
  141.0879   82.8069  219.5295 H   0  0  0  0  0  0  0  0  0  0  0  0
  142.5371   82.0965  218.7663 H   0  0  0  0  0  0  0  0  0  0  0  0
  141.5595   80.7219  216.5223 H   0  0  0  0  0  0  0  0  0  0  0  0
  140.2486   78.5849  218.2431 H   0  0  0  0  0  0  0  0  0  0  0  0
  140.2071   78.7323  216.4796 H   0  0  0  0  0  0  0  0  0  0  0  0
  141.8718   76.9949  217.9904 H   0  0  0  0  0  0  0  0  0  0  0  0
  142.0731   77.3778  216.2568 H   0  0  0  0  0  0  0  0  0  0  0  0
  143.8120   78.0180  218.3070 H   0  0  0  0  0  0  0  0  0  0  0  0
  143.8410   78.6190  216.7090 H   0  0  0  0  0  0  0  0  0  0  0  0
  142.8397   79.8587  219.1551 H   0  0  0  0  0  0  0  0  0  0  0  0
  143.6233   80.6058  217.7402 H   0  0  0  0  0  0  0  0  0  0  0  0
  138.9502   80.9378  219.5166 H   0  0  0  0  0  0  0  0  0  0  0  0
  139.5153   79.3937  218.8219 H   0  0  0  0  0  0  0  0  0  0  0  0
  139.3189   82.3759  221.7179 H   0  0  0  0  0  0  0  0  0  0  0  0
  137.9429   82.2878  223.8177 H   0  0  0  0  0  0  0  0  0  0  0  0
  137.6615   80.1208  225.0413 H   0  0  0  0  0  0  0  0  0  0  0  0
  138.7593   78.0334  224.1702 H   0  0  0  0  0  0  0  0  0  0  0  0
  142.6130   76.7580  220.8660 H   0  0  0  0  0  0  0  0  0  0  0  0
  144.5941   75.2149  219.7882 H   0  0  0  0  0  0  0  0  0  0  0  0
  1  2  2  0
  2  3  1  0
  2  4  1  0
  4  5  2  0
  5  6  1  0
  6  7  2  0
  7  8  1  0
  8  9  2  0
  9 10  1  0
 10 11  2  0
 10 12  1  0
 12 13  1  0
 14 13  1  6
 14 15  1  0
 15 16  1  0
 16 17  1  0
 17 18  1  0
 18 19  1  0
 19 20  1  0
 20 21  1  0
 21 22  1  0
 17 23  1  0
 14 24  1  0
 24 25  2  0
 25 26  1  0
 26 27  2  0
 27 28  1  0
 28 29  2  0
  9 30  1  0
 30 31  1  0
 31 32  2  0
 32  4  1  0
 31  7  1  0
 29 12  1  0
 23 14  1  0
 29 24  1  0
 22 18  1  0
  3 33  1  0
  5 34  1  0
  6 35  1  0
  8 36  1  0
 13 37  1  0
 13 38  1  0
 15 39  1  0
 15 40  1  0
 16 41  1  0
 16 42  1  0
 18 43  1  6
 19 44  1  0
 19 45  1  0
 20 46  1  0
 20 47  1  0
 21 48  1  0
 21 49  1  0
 22 50  1  0
 22 51  1  0
 23 52  1  0
 23 53  1  0
 25 54  1  0
 26 55  1  0
 27 56  1  0
 28 57  1  0
 30 58  1  0
 32 59  1  0
M  CHG  2   1  -1  21   1
M  END
>  <meeko>  (3) 
{"free_energy": -8.97, "intermolecular_energy": -10.46, "internal_energy": -0.77, "cluster_size": 13, "cluster_id": 1, "rank_in_cluster": 2}

$$$$

     RDKit          3D

 59 64  0  0  0  0  0  0  0  0999 V2000
  145.9330   72.1190  217.8540 N   0  0  0  0  0  0  0  0  0  0  0  0
  145.6190   72.7390  218.9450 C   0  0  0  0  0  0  0  0  0  0  0  0
  146.2790   72.4130  220.1280 O   0  0  0  0  0  0  0  0  0  0  0  0
  144.5710   73.7860  218.9430 C   0  0  0  0  0  0  0  0  0  0  0  0
  144.2310   74.4770  217.7470 C   0  0  0  0  0  0  0  0  0  0  0  0
  143.2370   75.4720  217.7460 C   0  0  0  0  0  0  0  0  0  0  0  0
  142.5970   75.7530  218.9490 C   0  0  0  0  0  0  0  0  0  0  0  0
  141.6100   76.6660  219.2450 C   0  0  0  0  0  0  0  0  0  0  0  0
  141.3680   76.5050  220.6090 C   0  0  0  0  0  0  0  0  0  0  0  0
  140.4090   77.2840  221.4130 C   0  0  0  0  0  0  0  0  0  0  0  0
  139.5030   76.6700  222.0400 O   0  0  0  0  0  0  0  0  0  0  0  0
  140.4650   78.7200  221.4650 N   0  0  0  0  0  0  0  0  0  0  0  0
  140.9970   79.5510  220.3810 C   0  0  0  0  0  0  0  0  0  0  0  0
  140.3070   80.9530  220.5280 C   0  0  1  0  0  0  0  0  0  0  0  0
  141.3030   82.1220  220.5310 C   0  0  0  0  0  0  0  0  0  0  0  0
  140.7990   83.0620  219.4460 C   0  0  0  0  0  0  0  0  0  0  0  0
  139.9870   82.2740  218.5030 N   0  0  0  0  0  0  0  0  0  0  0  0
  140.8210   81.6590  217.4330 C   0  0  2  0  0  0  0  0  0  0  0  0
  140.5390   80.1670  217.2790 C   0  0  0  0  0  0  0  0  0  0  0  0
  141.8740   79.5250  216.9270 C   0  0  0  0  0  0  0  0  0  0  0  0
  142.9270   80.5270  217.1170 N   0  0  0  0  0  0  0  0  0  0  0  0
  142.3120   81.6810  217.7700 C   0  0  0  0  0  0  0  0  0  0  0  0
  139.3460   81.2630  219.3620 C   0  0  0  0  0  0  0  0  0  0  0  0
  139.5660   80.8180  221.8280 C   0  0  0  0  0  0  0  0  0  0  0  0
  138.8310   81.7900  222.5160 C   0  0  0  0  0  0  0  0  0  0  0  0
  138.2060   81.4360  223.7210 C   0  0  0  0  0  0  0  0  0  0  0  0
  138.3230   80.1260  224.2200 C   0  0  0  0  0  0  0  0  0  0  0  0
  139.0610   79.1630  223.5130 C   0  0  0  0  0  0  0  0  0  0  0  0
  139.6630   79.5370  222.3050 C   0  0  0  0  0  0  0  0  0  0  0  0
  142.1780   75.5540  221.1320 N   0  0  0  0  0  0  0  0  0  0  0  0
  142.9160   75.0990  220.1070 C   0  0  0  0  0  0  0  0  0  0  0  0
  143.8980   74.1100  220.1450 C   0  0  0  0  0  0  0  0  0  0  0  0
  145.8230   71.8680  220.8500 H   0  0  0  0  0  0  0  0  0  0  0  0
  144.7524   74.2299  216.8105 H   0  0  0  0  0  0  0  0  0  0  0  0
  142.9740   76.0107  216.8237 H   0  0  0  0  0  0  0  0  0  0  0  0
  141.1193   77.3691  218.5559 H   0  0  0  0  0  0  0  0  0  0  0  0
  142.0883   79.6507  220.4769 H   0  0  0  0  0  0  0  0  0  0  0  0
  140.7942   79.1048  219.3962 H   0  0  0  0  0  0  0  0  0  0  0  0
  141.3072   82.6254  221.5090 H   0  0  0  0  0  0  0  0  0  0  0  0
  142.3353   81.7896  220.3469 H   0  0  0  0  0  0  0  0  0  0  0  0
  140.1841   83.8556  219.8956 H   0  0  0  0  0  0  0  0  0  0  0  0
  141.6454   83.5307  218.9227 H   0  0  0  0  0  0  0  0  0  0  0  0
  140.5744   82.2475  216.5370 H   0  0  0  0  0  0  0  0  0  0  0  0
  140.1510   79.7516  218.2208 H   0  0  0  0  0  0  0  0  0  0  0  0
  139.7821   79.9766  216.5039 H   0  0  0  0  0  0  0  0  0  0  0  0
  142.0575   78.6624  217.5845 H   0  0  0  0  0  0  0  0  0  0  0  0
  141.8649   79.1757  215.8840 H   0  0  0  0  0  0  0  0  0  0  0  0
  143.7010   80.1430  217.7080 H   0  0  0  0  0  0  0  0  0  0  0  0
  143.3120   80.8150  216.1870 H   0  0  0  0  0  0  0  0  0  0  0  0
  142.4519   81.6150  218.8591 H   0  0  0  0  0  0  0  0  0  0  0  0
  142.7744   82.6159  217.4206 H   0  0  0  0  0  0  0  0  0  0  0  0
  138.3960   81.6544  219.7547 H   0  0  0  0  0  0  0  0  0  0  0  0
  139.1348   80.3497  218.7865 H   0  0  0  0  0  0  0  0  0  0  0  0
  138.7449   82.8124  222.1194 H   0  0  0  0  0  0  0  0  0  0  0  0
  137.6229   82.1848  224.2771 H   0  0  0  0  0  0  0  0  0  0  0  0
  137.8345   79.8550  225.1676 H   0  0  0  0  0  0  0  0  0  0  0  0
  139.1640   78.1382  223.8992 H   0  0  0  0  0  0  0  0  0  0  0  0
  142.2210   75.2350  222.1260 H   0  0  0  0  0  0  0  0  0  0  0  0
  144.1434   73.5947  221.0853 H   0  0  0  0  0  0  0  0  0  0  0  0
  1  2  2  0
  2  3  1  0
  2  4  1  0
  4  5  2  0
  5  6  1  0
  6  7  2  0
  7  8  1  0
  8  9  2  0
  9 10  1  0
 10 11  2  0
 10 12  1  0
 12 13  1  0
 14 13  1  6
 14 15  1  0
 15 16  1  0
 16 17  1  0
 17 18  1  0
 18 19  1  0
 19 20  1  0
 20 21  1  0
 21 22  1  0
 17 23  1  0
 14 24  1  0
 24 25  2  0
 25 26  1  0
 26 27  2  0
 27 28  1  0
 28 29  2  0
  9 30  1  0
 30 31  1  0
 31 32  2  0
 32  4  1  0
 31  7  1  0
 29 12  1  0
 23 14  1  0
 29 24  1  0
 22 18  1  0
  3 33  1  0
  5 34  1  0
  6 35  1  0
  8 36  1  0
 13 37  1  0
 13 38  1  0
 15 39  1  0
 15 40  1  0
 16 41  1  0
 16 42  1  0
 18 43  1  6
 19 44  1  0
 19 45  1  0
 20 46  1  0
 20 47  1  0
 21 48  1  0
 21 49  1  0
 22 50  1  0
 22 51  1  0
 23 52  1  0
 23 53  1  0
 25 54  1  0
 26 55  1  0
 27 56  1  0
 28 57  1  0
 30 58  1  0
 32 59  1  0
M  CHG  2   1  -1  21   1
M  END
>  <meeko>  (4) 
{"free_energy": -8.79, "intermolecular_energy": -10.28, "internal_energy": -0.88, "cluster_size": 13, "cluster_id": 1, "rank_in_cluster": 6}

$$$$

     RDKit          3D

 59 64  0  0  0  0  0  0  0  0999 V2000
  145.5660   72.3520  217.4680 N   0  0  0  0  0  0  0  0  0  0  0  0
  145.5880   73.2590  218.3900 C   0  0  0  0  0  0  0  0  0  0  0  0
  146.7300   73.4070  219.1750 O   0  0  0  0  0  0  0  0  0  0  0  0
  144.4140   74.1340  218.6160 C   0  0  0  0  0  0  0  0  0  0  0  0
  143.8560   74.8960  217.5510 C   0  0  0  0  0  0  0  0  0  0  0  0
  142.7430   75.7280  217.7660 C   0  0  0  0  0  0  0  0  0  0  0  0
  142.2050   75.7770  219.0480 C   0  0  0  0  0  0  0  0  0  0  0  0
  141.1410   76.4970  219.5450 C   0  0  0  0  0  0  0  0  0  0  0  0
  141.0720   76.1510  220.8940 C   0  0  0  0  0  0  0  0  0  0  0  0
  140.1100   76.6870  221.8740 C   0  0  0  0  0  0  0  0  0  0  0  0
  139.4280   75.8770  222.5600 O   0  0  0  0  0  0  0  0  0  0  0  0
  139.9090   78.1020  222.0330 N   0  0  0  0  0  0  0  0  0  0  0  0
  140.7940   79.1170  221.4540 C   0  0  0  0  0  0  0  0  0  0  0  0
  139.9240   80.4130  221.2900 C   0  0  1  0  0  0  0  0  0  0  0  0
  140.5770   81.6640  221.8960 C   0  0  0  0  0  0  0  0  0  0  0  0
  140.5780   82.6840  220.7680 C   0  0  0  0  0  0  0  0  0  0  0  0
  140.5120   81.9500  219.4920 N   0  0  0  0  0  0  0  0  0  0  0  0
  141.8650   81.5670  219.0010 C   0  0  2  0  0  0  0  0  0  0  0  0
  142.4930   82.6670  218.1490 C   0  0  0  0  0  0  0  0  0  0  0  0
  143.2910   81.9500  217.0680 C   0  0  0  0  0  0  0  0  0  0  0  0
  142.9490   80.5260  217.1160 N   0  0  0  0  0  0  0  0  0  0  0  0
  141.8220   80.3830  218.0360 C   0  0  0  0  0  0  0  0  0  0  0  0
  139.6800   80.7770  219.8120 C   0  0  0  0  0  0  0  0  0  0  0  0
  138.6430   80.0350  221.9790 C   0  0  0  0  0  0  0  0  0  0  0  0
  137.5180   80.8310  222.2220 C   0  0  0  0  0  0  0  0  0  0  0  0
  136.4180   80.2610  222.8810 C   0  0  0  0  0  0  0  0  0  0  0  0
  136.4560   78.9140  223.2860 C   0  0  0  0  0  0  0  0  0  0  0  0
  137.5930   78.1310  223.0300 C   0  0  0  0  0  0  0  0  0  0  0  0
  138.6720   78.7180  222.3580 C   0  0  0  0  0  0  0  0  0  0  0  0
  142.0560   75.2770  221.2180 N   0  0  0  0  0  0  0  0  0  0  0  0
  142.7320   75.0520  220.0810 C   0  0  0  0  0  0  0  0  0  0  0  0
  143.8380   74.2210  219.9050 C   0  0  0  0  0  0  0  0  0  0  0  0
  147.0740   74.3240  219.4340 H   0  0  0  0  0  0  0  0  0  0  0  0
  144.3011   74.8332  216.5470 H   0  0  0  0  0  0  0  0  0  0  0  0
  142.3114   76.3213  216.9465 H   0  0  0  0  0  0  0  0  0  0  0  0
  140.4884   77.1928  218.9974 H   0  0  0  0  0  0  0  0  0  0  0  0
  141.6435   79.3103  222.1255 H   0  0  0  0  0  0  0  0  0  0  0  0
  141.2069   78.7862  220.4896 H   0  0  0  0  0  0  0  0  0  0  0  0
  139.9909   82.0319  222.7511 H   0  0  0  0  0  0  0  0  0  0  0  0
  141.5895   81.4624  222.2757 H   0  0  0  0  0  0  0  0  0  0  0  0
  139.7054   83.3470  220.8631 H   0  0  0  0  0  0  0  0  0  0  0  0
  141.4891   83.2990  220.8090 H   0  0  0  0  0  0  0  0  0  0  0  0
  142.4270   81.3499  219.9213 H   0  0  0  0  0  0  0  0  0  0  0  0
  141.7110   83.2938  217.6956 H   0  0  0  0  0  0  0  0  0  0  0  0
  143.1316   83.3304  218.7508 H   0  0  0  0  0  0  0  0  0  0  0  0
  143.0344   82.3616  216.0807 H   0  0  0  0  0  0  0  0  0  0  0  0
  144.3692   82.0880  217.2366 H   0  0  0  0  0  0  0  0  0  0  0  0
  142.6890   80.1750  216.1640 H   0  0  0  0  0  0  0  0  0  0  0  0
  143.7660   79.9790  217.4740 H   0  0  0  0  0  0  0  0  0  0  0  0
  140.8758   80.3897  217.4750 H   0  0  0  0  0  0  0  0  0  0  0  0
  141.8881   79.4323  218.5854 H   0  0  0  0  0  0  0  0  0  0  0  0
  138.6181   81.0183  219.6568 H   0  0  0  0  0  0  0  0  0  0  0  0
  139.9431   79.9309  219.1602 H   0  0  0  0  0  0  0  0  0  0  0  0
  137.4964   81.8834  221.9025 H   0  0  0  0  0  0  0  0  0  0  0  0
  135.5235   80.8690  223.0815 H   0  0  0  0  0  0  0  0  0  0  0  0
  135.5921   78.4730  223.8048 H   0  0  0  0  0  0  0  0  0  0  0  0
  137.6351   77.0795  223.3503 H   0  0  0  0  0  0  0  0  0  0  0  0
  142.2480   74.8590  222.1560 H   0  0  0  0  0  0  0  0  0  0  0  0
  144.2521   73.6476  220.7474 H   0  0  0  0  0  0  0  0  0  0  0  0
  1  2  2  0
  2  3  1  0
  2  4  1  0
  4  5  2  0
  5  6  1  0
  6  7  2  0
  7  8  1  0
  8  9  2  0
  9 10  1  0
 10 11  2  0
 10 12  1  0
 12 13  1  0
 14 13  1  6
 14 15  1  0
 15 16  1  0
 16 17  1  0
 17 18  1  0
 18 19  1  0
 19 20  1  0
 20 21  1  0
 21 22  1  0
 17 23  1  0
 14 24  1  0
 24 25  2  0
 25 26  1  0
 26 27  2  0
 27 28  1  0
 28 29  2  0
  9 30  1  0
 30 31  1  0
 31 32  2  0
 32  4  1  0
 31  7  1  0
 29 12  1  0
 23 14  1  0
 29 24  1  0
 22 18  1  0
  3 33  1  0
  5 34  1  0
  6 35  1  0
  8 36  1  0
 13 37  1  0
 13 38  1  0
 15 39  1  0
 15 40  1  0
 16 41  1  0
 16 42  1  0
 18 43  1  1
 19 44  1  0
 19 45  1  0
 20 46  1  0
 20 47  1  0
 21 48  1  0
 21 49  1  0
 22 50  1  0
 22 51  1  0
 23 52  1  0
 23 53  1  0
 25 54  1  0
 26 55  1  0
 27 56  1  0
 28 57  1  0
 30 58  1  0
 32 59  1  0
M  CHG  2   1  -1  21   1
M  END
>  <meeko>  (5) 
{"free_energy": -8.25, "intermolecular_energy": -9.74, "internal_energy": -0.98, "cluster_size": 13, "cluster_id": 1, "rank_in_cluster": 11}

$$$$

     RDKit          3D

 59 64  0  0  0  0  0  0  0  0999 V2000
  145.9350   72.5960  218.0840 N   0  0  0  0  0  0  0  0  0  0  0  0
  145.4910   73.0420  219.2140 C   0  0  0  0  0  0  0  0  0  0  0  0
  146.1010   72.6290  220.3970 O   0  0  0  0  0  0  0  0  0  0  0  0
  144.3460   73.9800  219.2580 C   0  0  0  0  0  0  0  0  0  0  0  0
  143.9450   74.6970  218.0960 C   0  0  0  0  0  0  0  0  0  0  0  0
  142.8590   75.5900  218.1390 C   0  0  0  0  0  0  0  0  0  0  0  0
  142.1890   75.7420  219.3480 C   0  0  0  0  0  0  0  0  0  0  0  0
  141.1160   76.5380  219.6830 C   0  0  0  0  0  0  0  0  0  0  0  0
  140.8850   76.2820  221.0330 C   0  0  0  0  0  0  0  0  0  0  0  0
  139.8510   76.9200  221.8690 C   0  0  0  0  0  0  0  0  0  0  0  0
  139.0000   76.1890  222.4450 O   0  0  0  0  0  0  0  0  0  0  0  0
  139.7750   78.3490  222.0060 N   0  0  0  0  0  0  0  0  0  0  0  0
  138.5130   79.0930  222.0650 C   0  0  0  0  0  0  0  0  0  0  0  0
  138.8240   80.4220  222.8390 C   0  0  1  0  0  0  0  0  0  0  0  0
  138.3450   81.6810  222.1020 C   0  0  0  0  0  0  0  0  0  0  0  0
  137.4900   82.4230  223.1190 C   0  0  0  0  0  0  0  0  0  0  0  0
  137.0100   81.4430  224.1090 N   0  0  0  0  0  0  0  0  0  0  0  0
  135.7410   80.7930  223.6760 C   0  0  2  0  0  0  0  0  0  0  0  0
  135.8300   79.2710  223.7450 C   0  0  0  0  0  0  0  0  0  0  0  0
  135.0100   78.7530  222.5720 C   0  0  0  0  0  0  0  0  0  0  0  0
  134.6750   79.8900  221.7110 N   0  0  0  0  0  0  0  0  0  0  0  0
  135.4340   81.0400  222.1990 C   0  0  0  0  0  0  0  0  0  0  0  0
  138.1230   80.4830  224.2110 C   0  0  0  0  0  0  0  0  0  0  0  0
  140.3180   80.3690  222.9890 C   0  0  0  0  0  0  0  0  0  0  0  0
  141.1730   81.3360  223.5330 C   0  0  0  0  0  0  0  0  0  0  0  0
  142.5490   81.0680  223.5820 C   0  0  0  0  0  0  0  0  0  0  0  0
  143.0510   79.8480  223.0910 C   0  0  0  0  0  0  0  0  0  0  0  0
  142.1760   78.8900  222.5530 C   0  0  0  0  0  0  0  0  0  0  0  0
  140.8060   79.1740  222.5290 C   0  0  0  0  0  0  0  0  0  0  0  0
  141.7820   75.3880  221.5140 N   0  0  0  0  0  0  0  0  0  0  0  0
  142.5650   75.0620  220.4730 C   0  0  0  0  0  0  0  0  0  0  0  0
  143.6390   74.1730  220.4690 C   0  0  0  0  0  0  0  0  0  0  0  0
  145.6850   71.9120  220.9800 H   0  0  0  0  0  0  0  0  0  0  0  0
  144.4911   74.5511  217.1524 H   0  0  0  0  0  0  0  0  0  0  0  0
  142.5495   76.1504  217.2445 H   0  0  0  0  0  0  0  0  0  0  0  0
  140.5620   77.2260  219.0275 H   0  0  0  0  0  0  0  0  0  0  0  0
  138.1552   79.3180  221.0495 H   0  0  0  0  0  0  0  0  0  0  0  0
  137.7274   78.5104  222.5685 H   0  0  0  0  0  0  0  0  0  0  0  0
  139.2012   82.2979  221.7914 H   0  0  0  0  0  0  0  0  0  0  0  0
  137.7860   81.4393  221.1860 H   0  0  0  0  0  0  0  0  0  0  0  0
  138.0914   83.1960  223.6197 H   0  0  0  0  0  0  0  0  0  0  0  0
  136.6398   82.9117  222.6207 H   0  0  0  0  0  0  0  0  0  0  0  0
  134.9833   81.2198  224.3496 H   0  0  0  0  0  0  0  0  0  0  0  0
  136.8764   78.9442  223.6546 H   0  0  0  0  0  0  0  0  0  0  0  0
  135.4518   78.8868  224.7038 H   0  0  0  0  0  0  0  0  0  0  0  0
  135.5966   78.0158  222.0041 H   0  0  0  0  0  0  0  0  0  0  0  0
  134.0921   78.2673  222.9348 H   0  0  0  0  0  0  0  0  0  0  0  0
  134.9230   79.6860  220.7140 H   0  0  0  0  0  0  0  0  0  0  0  0
  133.6510   80.0930  221.7770 H   0  0  0  0  0  0  0  0  0  0  0  0
  136.3713   81.1397  221.6319 H   0  0  0  0  0  0  0  0  0  0  0  0
  134.8567   81.9678  222.0726 H   0  0  0  0  0  0  0  0  0  0  0  0
  138.8352   80.8169  224.9800 H   0  0  0  0  0  0  0  0  0  0  0  0
  137.7466   79.4887  224.4933 H   0  0  0  0  0  0  0  0  0  0  0  0
  140.7731   82.2871  223.9144 H   0  0  0  0  0  0  0  0  0  0  0  0
  143.2380   81.8136  224.0055 H   0  0  0  0  0  0  0  0  0  0  0  0
  144.1313   79.6444  223.1288 H   0  0  0  0  0  0  0  0  0  0  0  0
  142.5594   77.9372  222.1591 H   0  0  0  0  0  0  0  0  0  0  0  0
  141.8510   75.0220  222.4900 H   0  0  0  0  0  0  0  0  0  0  0  0
  143.9295   73.6353  221.3836 H   0  0  0  0  0  0  0  0  0  0  0  0
  1  2  2  0
  2  3  1  0
  2  4  1  0
  4  5  2  0
  5  6  1  0
  6  7  2  0
  7  8  1  0
  8  9  2  0
  9 10  1  0
 10 11  2  0
 10 12  1  0
 12 13  1  0
 14 13  1  6
 14 15  1  0
 15 16  1  0
 16 17  1  0
 17 18  1  0
 18 19  1  0
 19 20  1  0
 20 21  1  0
 21 22  1  0
 17 23  1  0
 14 24  1  0
 24 25  2  0
 25 26  1  0
 26 27  2  0
 27 28  1  0
 28 29  2  0
  9 30  1  0
 30 31  1  0
 31 32  2  0
 32  4  1  0
 31  7  1  0
 29 12  1  0
 23 14  1  0
 29 24  1  0
 22 18  1  0
  3 33  1  0
  5 34  1  0
  6 35  1  0
  8 36  1  0
 13 37  1  0
 13 38  1  0
 15 39  1  0
 15 40  1  0
 16 41  1  0
 16 42  1  0
 18 43  1  1
 19 44  1  0
 19 45  1  0
 20 46  1  0
 20 47  1  0
 21 48  1  0
 21 49  1  0
 22 50  1  0
 22 51  1  0
 23 52  1  0
 23 53  1  0
 25 54  1  0
 26 55  1  0
 27 56  1  0
 28 57  1  0
 30 58  1  0
 32 59  1  0
M  CHG  2   1  -1  21   1
M  END
>  <meeko>  (6) 
{"free_energy": -8.17, "intermolecular_energy": -9.67, "internal_energy": -0.91, "cluster_size": 4, "cluster_id": 2, "rank_in_cluster": 2}

$$$$

     RDKit          3D

 59 64  0  0  0  0  0  0  0  0999 V2000
  146.2940   73.0220  218.6120 N   0  0  0  0  0  0  0  0  0  0  0  0
  145.8070   72.9490  219.8080 C   0  0  0  0  0  0  0  0  0  0  0  0
  146.6410   72.5830  220.8620 O   0  0  0  0  0  0  0  0  0  0  0  0
  144.3790   73.2490  220.0610 C   0  0  0  0  0  0  0  0  0  0  0  0
  143.3920   72.2260  219.9800 C   0  0  0  0  0  0  0  0  0  0  0  0
  142.0360   72.5120  220.2180 C   0  0  0  0  0  0  0  0  0  0  0  0
  141.6940   73.8210  220.5390 C   0  0  0  0  0  0  0  0  0  0  0  0
  140.4660   74.3840  220.8090 C   0  0  0  0  0  0  0  0  0  0  0  0
  140.7350   75.7300  221.0550 C   0  0  0  0  0  0  0  0  0  0  0  0
  139.7330   76.7680  221.3630 C   0  0  0  0  0  0  0  0  0  0  0  0
  138.5340   76.4200  221.5400 O   0  0  0  0  0  0  0  0  0  0  0  0
  140.0900   78.1590  221.4260 N   0  0  0  0  0  0  0  0  0  0  0  0
  140.7820   78.8700  220.3470 C   0  0  0  0  0  0  0  0  0  0  0  0
  140.4020   80.3840  220.5060 C   0  0  1  0  0  0  0  0  0  0  0  0
  141.6210   81.3180  220.5150 C   0  0  0  0  0  0  0  0  0  0  0  0
  141.3240   82.3520  219.4390 C   0  0  0  0  0  0  0  0  0  0  0  0
  140.3630   81.7590  218.4930 N   0  0  0  0  0  0  0  0  0  0  0  0
  141.0480   80.9920  217.4150 C   0  0  2  0  0  0  0  0  0  0  0  0
  140.5090   79.5690  217.3000 C   0  0  0  0  0  0  0  0  0  0  0  0
  141.7020   78.7010  216.9280 C   0  0  0  0  0  0  0  0  0  0  0  0
  142.9170   79.5080  217.0710 N   0  0  0  0  0  0  0  0  0  0  0  0
  142.5290   80.7620  217.7150 C   0  0  0  0  0  0  0  0  0  0  0  0
  139.5250   80.8980  219.3460 C   0  0  0  0  0  0  0  0  0  0  0  0
  139.6510   80.3960  221.8070 C   0  0  0  0  0  0  0  0  0  0  0  0
  139.1370   81.4950  222.5050 C   0  0  0  0  0  0  0  0  0  0  0  0
  138.4530   81.2700  223.7100 C   0  0  0  0  0  0  0  0  0  0  0  0
  138.2930   79.9600  224.1980 C   0  0  0  0  0  0  0  0  0  0  0  0
  138.8130   78.8710  223.4810 C   0  0  0  0  0  0  0  0  0  0  0  0
  139.4780   79.1190  222.2750 C   0  0  0  0  0  0  0  0  0  0  0  0
  142.0580   75.9890  220.9240 N   0  0  0  0  0  0  0  0  0  0  0  0
  142.6300   74.8140  220.6180 C   0  0  0  0  0  0  0  0  0  0  0  0
  143.9830   74.5680  220.3830 C   0  0  0  0  0  0  0  0  0  0  0  0
  146.3210   71.9580  221.5930 H   0  0  0  0  0  0  0  0  0  0  0  0
  143.6941   71.1988  219.7280 H   0  0  0  0  0  0  0  0  0  0  0  0
  141.2701   71.7252  220.1523 H   0  0  0  0  0  0  0  0  0  0  0  0
  139.4875   73.8818  220.8267 H   0  0  0  0  0  0  0  0  0  0  0  0
  141.8701   78.7382  220.4400 H   0  0  0  0  0  0  0  0  0  0  0  0
  140.4876   78.4845  219.3597 H   0  0  0  0  0  0  0  0  0  0  0  0
  141.7322   81.8011  221.4970 H   0  0  0  0  0  0  0  0  0  0  0  0
  142.5602   80.7779  220.3250 H   0  0  0  0  0  0  0  0  0  0  0  0
  140.8901   83.2533  219.8966 H   0  0  0  0  0  0  0  0  0  0  0  0
  142.2490   82.6374  218.9166 H   0  0  0  0  0  0  0  0  0  0  0  0
  140.8814   81.5989  216.5128 H   0  0  0  0  0  0  0  0  0  0  0  0
  140.0826   79.2425  218.2600 H   0  0  0  0  0  0  0  0  0  0  0  0
  139.7085   79.4994  216.5487 H   0  0  0  0  0  0  0  0  0  0  0  0
  141.7523   77.8301  217.5980 H   0  0  0  0  0  0  0  0  0  0  0  0
  141.6033   78.3425  215.8927 H   0  0  0  0  0  0  0  0  0  0  0  0
  143.6300   79.0060  217.6500 H   0  0  0  0  0  0  0  0  0  0  0  0
  143.3200   79.7100  216.1260 H   0  0  0  0  0  0  0  0  0  0  0  0
  142.6857   80.6907  218.8014 H   0  0  0  0  0  0  0  0  0  0  0  0
  143.1360   81.5971  217.3354 H   0  0  0  0  0  0  0  0  0  0  0  0
  138.6789   81.4768  219.7449 H   0  0  0  0  0  0  0  0  0  0  0  0
  139.1253   80.0543  218.7643 H   0  0  0  0  0  0  0  0  0  0  0  0
  139.2666   82.5159  222.1165 H   0  0  0  0  0  0  0  0  0  0  0  0
  138.0411   82.1198  224.2741 H   0  0  0  0  0  0  0  0  0  0  0  0
  137.7588   79.7887  225.1442 H   0  0  0  0  0  0  0  0  0  0  0  0
  138.7001   77.8443  223.8592 H   0  0  0  0  0  0  0  0  0  0  0  0
  142.5370   76.9100  221.0400 H   0  0  0  0  0  0  0  0  0  0  0  0
  144.7230   75.3794  220.4465 H   0  0  0  0  0  0  0  0  0  0  0  0
  1  2  2  0
  2  3  1  0
  2  4  1  0
  4  5  2  0
  5  6  1  0
  6  7  2  0
  7  8  1  0
  8  9  2  0
  9 10  1  0
 10 11  2  0
 10 12  1  0
 12 13  1  0
 14 13  1  6
 14 15  1  0
 15 16  1  0
 16 17  1  0
 17 18  1  0
 18 19  1  0
 19 20  1  0
 20 21  1  0
 21 22  1  0
 17 23  1  0
 14 24  1  0
 24 25  2  0
 25 26  1  0
 26 27  2  0
 27 28  1  0
 28 29  2  0
  9 30  1  0
 30 31  1  0
 31 32  2  0
 32  4  1  0
 31  7  1  0
 29 12  1  0
 23 14  1  0
 29 24  1  0
 22 18  1  0
  3 33  1  0
  5 34  1  0
  6 35  1  0
  8 36  1  0
 13 37  1  0
 13 38  1  0
 15 39  1  0
 15 40  1  0
 16 41  1  0
 16 42  1  0
 18 43  1  6
 19 44  1  0
 19 45  1  0
 20 46  1  0
 20 47  1  0
 21 48  1  0
 21 49  1  0
 22 50  1  0
 22 51  1  0
 23 52  1  0
 23 53  1  0
 25 54  1  0
 26 55  1  0
 27 56  1  0
 28 57  1  0
 30 58  1  0
 32 59  1  0
M  CHG  2   1  -1  21   1
M  END
>  <meeko>  (7) 
{"free_energy": -8.78, "intermolecular_energy": -10.27, "internal_energy": -0.83, "cluster_size": 13, "cluster_id": 1, "rank_in_cluster": 7}

$$$$

     RDKit          3D

 59 64  0  0  0  0  0  0  0  0999 V2000
  145.9800   71.3100  219.0760 N   0  0  0  0  0  0  0  0  0  0  0  0
  145.5680   72.5240  218.9040 C   0  0  0  0  0  0  0  0  0  0  0  0
  146.2900   73.3770  218.0710 O   0  0  0  0  0  0  0  0  0  0  0  0
  144.3440   73.0100  219.5820 C   0  0  0  0  0  0  0  0  0  0  0  0
  143.4240   72.0970  220.1690 C   0  0  0  0  0  0  0  0  0  0  0  0
  142.2610   72.5580  220.8120 C   0  0  0  0  0  0  0  0  0  0  0  0
  142.0450   73.9320  220.8580 C   0  0  0  0  0  0  0  0  0  0  0  0
  141.0070   74.6560  221.4020 C   0  0  0  0  0  0  0  0  0  0  0  0
  141.3240   75.9880  221.1410 C   0  0  0  0  0  0  0  0  0  0  0  0
  140.5000   77.1570  221.5010 C   0  0  0  0  0  0  0  0  0  0  0  0
  139.3740   76.9650  222.0350 O   0  0  0  0  0  0  0  0  0  0  0  0
  140.9380   78.4980  221.2210 N   0  0  0  0  0  0  0  0  0  0  0  0
  140.4950   79.2700  220.0560 C   0  0  0  0  0  0  0  0  0  0  0  0
  140.6460   80.7810  220.4510 C   0  0  1  0  0  0  0  0  0  0  0  0
  141.4250   81.6050  219.4150 C   0  0  0  0  0  0  0  0  0  0  0  0
  140.5130   82.7780  219.0880 C   0  0  0  0  0  0  0  0  0  0  0  0
  139.1300   82.3800  219.4050 N   0  0  0  0  0  0  0  0  0  0  0  0
  138.4750   81.6910  218.2590 C   0  0  2  0  0  0  0  0  0  0  0  0
  138.7120   82.4260  216.9430 C   0  0  0  0  0  0  0  0  0  0  0  0
  137.4340   82.2520  216.1340 C   0  0  0  0  0  0  0  0  0  0  0  0
  136.4110   81.6790  217.0120 N   0  0  0  0  0  0  0  0  0  0  0  0
  136.9500   81.6940  218.3710 C   0  0  0  0  0  0  0  0  0  0  0  0
  139.2860   81.4980  220.5750 C   0  0  0  0  0  0  0  0  0  0  0  0
  141.3470   80.7040  221.7780 C   0  0  0  0  0  0  0  0  0  0  0  0
  141.8200   81.7530  222.5740 C   0  0  0  0  0  0  0  0  0  0  0  0
  142.4410   81.4450  223.7940 C   0  0  0  0  0  0  0  0  0  0  0  0
  142.5820   80.1050  224.1990 C   0  0  0  0  0  0  0  0  0  0  0  0
  142.0960   79.0670  223.3870 C   0  0  0  0  0  0  0  0  0  0  0  0
  141.4670   79.4000  222.1820 C   0  0  0  0  0  0  0  0  0  0  0  0
  142.4870   76.0810  220.4540 N   0  0  0  0  0  0  0  0  0  0  0  0
  142.9190   74.8200  220.2960 C   0  0  0  0  0  0  0  0  0  0  0  0
  144.0790   74.3980  219.6480 C   0  0  0  0  0  0  0  0  0  0  0  0
  145.9470   74.3030  217.8430 H   0  0  0  0  0  0  0  0  0  0  0  0
  143.6249   71.0166  220.1193 H   0  0  0  0  0  0  0  0  0  0  0  0
  141.5455   71.8553  221.2638 H   0  0  0  0  0  0  0  0  0  0  0  0
  140.1219   74.2680  221.9273 H   0  0  0  0  0  0  0  0  0  0  0  0
  141.1239   79.0390  219.1836 H   0  0  0  0  0  0  0  0  0  0  0  0
  139.4568   79.0277  219.7850 H   0  0  0  0  0  0  0  0  0  0  0  0
  142.3765   81.9598  219.8378 H   0  0  0  0  0  0  0  0  0  0  0  0
  141.6807   81.0156  218.5221 H   0  0  0  0  0  0  0  0  0  0  0  0
  140.7978   83.6522  219.6918 H   0  0  0  0  0  0  0  0  0  0  0  0
  140.6000   83.0456  218.0246 H   0  0  0  0  0  0  0  0  0  0  0  0
  138.9051   80.6788  218.2799 H   0  0  0  0  0  0  0  0  0  0  0  0
  138.9049   83.4928  217.1295 H   0  0  0  0  0  0  0  0  0  0  0  0
  139.5867   82.0270  216.4085 H   0  0  0  0  0  0  0  0  0  0  0  0
  137.0963   83.2285  215.7566 H   0  0  0  0  0  0  0  0  0  0  0  0
  137.6146   81.5870  215.2766 H   0  0  0  0  0  0  0  0  0  0  0  0
  135.5260   82.2370  216.9650 H   0  0  0  0  0  0  0  0  0  0  0  0
  136.2120   80.6920  216.7260 H   0  0  0  0  0  0  0  0  0  0  0  0
  136.6137   82.5986  218.8987 H   0  0  0  0  0  0  0  0  0  0  0  0
  136.6007   80.8177  218.9367 H   0  0  0  0  0  0  0  0  0  0  0  0
  139.2611   82.0947  221.4987 H   0  0  0  0  0  0  0  0  0  0  0  0
  138.4680   80.7636  220.6127 H   0  0  0  0  0  0  0  0  0  0  0  0
  141.7073   82.7981  222.2499 H   0  0  0  0  0  0  0  0  0  0  0  0
  142.8190   82.2542  224.4361 H   0  0  0  0  0  0  0  0  0  0  0  0
  143.0742   79.8696  225.1542 H   0  0  0  0  0  0  0  0  0  0  0  0
  142.2073   78.0158  223.6914 H   0  0  0  0  0  0  0  0  0  0  0  0
  142.9570   76.9520  220.1180 H   0  0  0  0  0  0  0  0  0  0  0  0
  144.7708   75.1260  219.1993 H   0  0  0  0  0  0  0  0  0  0  0  0
  1  2  2  0
  2  3  1  0
  2  4  1  0
  4  5  2  0
  5  6  1  0
  6  7  2  0
  7  8  1  0
  8  9  2  0
  9 10  1  0
 10 11  2  0
 10 12  1  0
 12 13  1  0
 14 13  1  6
 14 15  1  0
 15 16  1  0
 16 17  1  0
 17 18  1  0
 18 19  1  0
 19 20  1  0
 20 21  1  0
 21 22  1  0
 17 23  1  0
 14 24  1  0
 24 25  2  0
 25 26  1  0
 26 27  2  0
 27 28  1  0
 28 29  2  0
  9 30  1  0
 30 31  1  0
 31 32  2  0
 32  4  1  0
 31  7  1  0
 29 12  1  0
 23 14  1  0
 29 24  1  0
 22 18  1  0
  3 33  1  0
  5 34  1  0
  6 35  1  0
  8 36  1  0
 13 37  1  0
 13 38  1  0
 15 39  1  0
 15 40  1  0
 16 41  1  0
 16 42  1  0
 18 43  1  6
 19 44  1  0
 19 45  1  0
 20 46  1  0
 20 47  1  0
 21 48  1  0
 21 49  1  0
 22 50  1  0
 22 51  1  0
 23 52  1  0
 23 53  1  0
 25 54  1  0
 26 55  1  0
 27 56  1  0
 28 57  1  0
 30 58  1  0
 32 59  1  0
M  CHG  2   1  -1  21   1
M  END
>  <meeko>  (8) 
{"free_energy": -8.18, "intermolecular_energy": -9.67, "internal_energy": -0.83, "cluster_size": 2, "cluster_id": 3, "rank_in_cluster": 1}

$$$$

     RDKit          3D

 59 64  0  0  0  0  0  0  0  0999 V2000
  145.6030   71.9120  218.2100 N   0  0  0  0  0  0  0  0  0  0  0  0
  145.5880   73.0140  218.8870 C   0  0  0  0  0  0  0  0  0  0  0  0
  146.7200   73.3840  219.6110 O   0  0  0  0  0  0  0  0  0  0  0  0
  144.3850   73.8780  218.8980 C   0  0  0  0  0  0  0  0  0  0  0  0
  143.7940   74.3210  217.6820 C   0  0  0  0  0  0  0  0  0  0  0  0
  142.6520   75.1430  217.6920 C   0  0  0  0  0  0  0  0  0  0  0  0
  142.1210   75.5020  218.9270 C   0  0  0  0  0  0  0  0  0  0  0  0
  141.0350   76.2900  219.2380 C   0  0  0  0  0  0  0  0  0  0  0  0
  140.9870   76.3010  220.6310 C   0  0  0  0  0  0  0  0  0  0  0  0
  140.0110   77.0390  221.4550 C   0  0  0  0  0  0  0  0  0  0  0  0
  139.0380   76.4100  221.9530 O   0  0  0  0  0  0  0  0  0  0  0  0
  140.1290   78.4560  221.6680 N   0  0  0  0  0  0  0  0  0  0  0  0
  141.0260   79.3210  220.8970 C   0  0  0  0  0  0  0  0  0  0  0  0
  140.4060   80.7620  220.9600 C   0  0  1  0  0  0  0  0  0  0  0  0
  141.4120   81.8370  221.3960 C   0  0  0  0  0  0  0  0  0  0  0  0
  141.3370   82.8990  220.3090 C   0  0  0  0  0  0  0  0  0  0  0  0
  140.8290   82.2590  219.0830 N   0  0  0  0  0  0  0  0  0  0  0  0
  141.9270   81.6610  218.2730 C   0  0  2  0  0  0  0  0  0  0  0  0
  142.9520   82.7080  217.8450 C   0  0  0  0  0  0  0  0  0  0  0  0
  143.4180   82.2900  216.4570 C   0  0  0  0  0  0  0  0  0  0  0  0
  142.5380   81.2180  215.9830 N   0  0  0  0  0  0  0  0  0  0  0  0
  141.4330   81.1140  216.9340 C   0  0  0  0  0  0  0  0  0  0  0  0
  139.8900   81.2430  219.5890 C   0  0  0  0  0  0  0  0  0  0  0  0
  139.2790   80.5890  221.9400 C   0  0  0  0  0  0  0  0  0  0  0  0
  138.4180   81.5640  222.4560 C   0  0  0  0  0  0  0  0  0  0  0  0
  137.4200   81.1710  223.3600 C   0  0  0  0  0  0  0  0  0  0  0  0
  137.2960   79.8200  223.7350 C   0  0  0  0  0  0  0  0  0  0  0  0
  138.1680   78.8570  223.2030 C   0  0  0  0  0  0  0  0  0  0  0  0
  139.1460   79.2710  222.2910 C   0  0  0  0  0  0  0  0  0  0  0  0
  142.0030   75.5740  221.1540 N   0  0  0  0  0  0  0  0  0  0  0  0
  142.6800   75.0860  220.1030 C   0  0  0  0  0  0  0  0  0  0  0  0
  143.8140   74.2750  220.1300 C   0  0  0  0  0  0  0  0  0  0  0  0
  147.0350   74.3470  219.6380 H   0  0  0  0  0  0  0  0  0  0  0  0
  144.2356   74.0170  216.7215 H   0  0  0  0  0  0  0  0  0  0  0  0
  142.1940   75.4904  216.7542 H   0  0  0  0  0  0  0  0  0  0  0  0
  140.3544   76.7993  218.5398 H   0  0  0  0  0  0  0  0  0  0  0  0
  142.0324   79.3191  221.3410 H   0  0  0  0  0  0  0  0  0  0  0  0
  141.1247   78.9721  219.8585 H   0  0  0  0  0  0  0  0  0  0  0  0
  141.1298   82.2597  222.3715 H   0  0  0  0  0  0  0  0  0  0  0  0
  142.4283   81.4329  221.5139 H   0  0  0  0  0  0  0  0  0  0  0  0
  140.6552   83.7043  220.6200 H   0  0  0  0  0  0  0  0  0  0  0  0
  142.3314   83.3339  220.1297 H   0  0  0  0  0  0  0  0  0  0  0  0
  142.3426   80.8812  218.9281 H   0  0  0  0  0  0  0  0  0  0  0  0
  142.4889   83.7051  217.8093 H   0  0  0  0  0  0  0  0  0  0  0  0
  143.7915   82.7656  218.5534 H   0  0  0  0  0  0  0  0  0  0  0  0
  143.3624   83.1482  215.7712 H   0  0  0  0  0  0  0  0  0  0  0  0
  144.4595   81.9381  216.4954 H   0  0  0  0  0  0  0  0  0  0  0  0
  142.1750   81.4330  215.0250 H   0  0  0  0  0  0  0  0  0  0  0  0
  143.0650   80.3140  215.9580 H   0  0  0  0  0  0  0  0  0  0  0  0
  140.5757   81.7053  216.5799 H   0  0  0  0  0  0  0  0  0  0  0  0
  141.1085   80.0681  217.0384 H   0  0  0  0  0  0  0  0  0  0  0  0
  138.8878   81.6826  219.7001 H   0  0  0  0  0  0  0  0  0  0  0  0
  139.8237   80.3989  218.8868 H   0  0  0  0  0  0  0  0  0  0  0  0
  138.5218   82.6179  222.1585 H   0  0  0  0  0  0  0  0  0  0  0  0
  136.7320   81.9211  223.7772 H   0  0  0  0  0  0  0  0  0  0  0  0
  136.5137   79.5179  224.4469 H   0  0  0  0  0  0  0  0  0  0  0  0
  138.0846   77.8001  223.4964 H   0  0  0  0  0  0  0  0  0  0  0  0
  142.2160   75.4190  222.1650 H   0  0  0  0  0  0  0  0  0  0  0  0
  144.2536   73.9520  221.0852 H   0  0  0  0  0  0  0  0  0  0  0  0
  1  2  2  0
  2  3  1  0
  2  4  1  0
  4  5  2  0
  5  6  1  0
  6  7  2  0
  7  8  1  0
  8  9  2  0
  9 10  1  0
 10 11  2  0
 10 12  1  0
 12 13  1  0
 14 13  1  6
 14 15  1  0
 15 16  1  0
 16 17  1  0
 17 18  1  0
 18 19  1  0
 19 20  1  0
 20 21  1  0
 21 22  1  0
 17 23  1  0
 14 24  1  0
 24 25  2  0
 25 26  1  0
 26 27  2  0
 27 28  1  0
 28 29  2  0
  9 30  1  0
 30 31  1  0
 31 32  2  0
 32  4  1  0
 31  7  1  0
 29 12  1  0
 23 14  1  0
 29 24  1  0
 22 18  1  0
  3 33  1  0
  5 34  1  0
  6 35  1  0
  8 36  1  0
 13 37  1  0
 13 38  1  0
 15 39  1  0
 15 40  1  0
 16 41  1  0
 16 42  1  0
 18 43  1  1
 19 44  1  0
 19 45  1  0
 20 46  1  0
 20 47  1  0
 21 48  1  0
 21 49  1  0
 22 50  1  0
 22 51  1  0
 23 52  1  0
 23 53  1  0
 25 54  1  0
 26 55  1  0
 27 56  1  0
 28 57  1  0
 30 58  1  0
 32 59  1  0
M  CHG  2   1  -1  21   1
M  END
>  <meeko>  (9) 
{"free_energy": -8.35, "intermolecular_energy": -9.84, "internal_energy": -0.82, "cluster_size": 13, "cluster_id": 1, "rank_in_cluster": 9}

$$$$

     RDKit          3D

 59 64  0  0  0  0  0  0  0  0999 V2000
  146.3220   71.9060  219.4450 N   0  0  0  0  0  0  0  0  0  0  0  0
  145.5150   72.8050  218.9830 C   0  0  0  0  0  0  0  0  0  0  0  0
  145.8590   73.5000  217.8250 O   0  0  0  0  0  0  0  0  0  0  0  0
  144.2360   73.0970  219.6710 C   0  0  0  0  0  0  0  0  0  0  0  0
  143.3450   72.0480  220.0320 C   0  0  0  0  0  0  0  0  0  0  0  0
  142.1300   72.3260  220.6840 C   0  0  0  0  0  0  0  0  0  0  0  0
  141.8340   73.6550  220.9680 C   0  0  0  0  0  0  0  0  0  0  0  0
  140.7340   74.2150  221.5780 C   0  0  0  0  0  0  0  0  0  0  0  0
  140.9840   75.5860  221.5820 C   0  0  0  0  0  0  0  0  0  0  0  0
  140.0790   76.6280  222.1030 C   0  0  0  0  0  0  0  0  0  0  0  0
  139.0170   76.2740  222.6820 O   0  0  0  0  0  0  0  0  0  0  0  0
  140.3670   78.0260  221.9300 N   0  0  0  0  0  0  0  0  0  0  0  0
  141.1100   78.5680  220.7890 C   0  0  0  0  0  0  0  0  0  0  0  0
  140.6510   80.0600  220.6360 C   0  0  1  0  0  0  0  0  0  0  0  0
  141.8220   81.0510  220.5570 C   0  0  0  0  0  0  0  0  0  0  0  0
  141.5660   81.8520  219.2890 C   0  0  0  0  0  0  0  0  0  0  0  0
  140.7110   81.0400  218.4040 N   0  0  0  0  0  0  0  0  0  0  0  0
  141.5140   80.1310  217.5390 C   0  0  2  0  0  0  0  0  0  0  0  0
  140.9050   78.7340  217.4640 C   0  0  0  0  0  0  0  0  0  0  0  0
  142.0820   77.7710  217.3900 C   0  0  0  0  0  0  0  0  0  0  0  0
  143.3080   78.5240  217.6670 N   0  0  0  0  0  0  0  0  0  0  0  0
  142.9040   79.8560  218.1140 C   0  0  0  0  0  0  0  0  0  0  0  0
  139.8480   80.3010  219.3420 C   0  0  0  0  0  0  0  0  0  0  0  0
  139.7980   80.2650  221.8560 C   0  0  0  0  0  0  0  0  0  0  0  0
  139.1810   81.4410  222.2990 C   0  0  0  0  0  0  0  0  0  0  0  0
  138.4140   81.3990  223.4730 C   0  0  0  0  0  0  0  0  0  0  0  0
  138.2750   80.1940  224.1850 C   0  0  0  0  0  0  0  0  0  0  0  0
  138.8990   79.0240  223.7220 C   0  0  0  0  0  0  0  0  0  0  0  0
  139.6470   79.0870  222.5400 C   0  0  0  0  0  0  0  0  0  0  0  0
  142.1690   75.8610  220.9860 N   0  0  0  0  0  0  0  0  0  0  0  0
  142.6790   74.6730  220.6250 C   0  0  0  0  0  0  0  0  0  0  0  0
  143.8890   74.4350  219.9740 C   0  0  0  0  0  0  0  0  0  0  0  0
  145.6730   74.4920  217.7330 H   0  0  0  0  0  0  0  0  0  0  0  0
  143.6097   71.0062  219.7982 H   0  0  0  0  0  0  0  0  0  0  0  0
  141.4363   71.5183  220.9604 H   0  0  0  0  0  0  0  0  0  0  0  0
  139.8505   73.6939  221.9755 H   0  0  0  0  0  0  0  0  0  0  0  0
  142.1920   78.5198  220.9811 H   0  0  0  0  0  0  0  0  0  0  0  0
  140.9129   77.9923  219.8727 H   0  0  0  0  0  0  0  0  0  0  0  0
  141.8318   81.7108  221.4371 H   0  0  0  0  0  0  0  0  0  0  0  0
  142.7970   80.5421  220.5378 H   0  0  0  0  0  0  0  0  0  0  0  0
  141.0566   82.7944  219.5389 H   0  0  0  0  0  0  0  0  0  0  0  0
  142.5161   82.0915  218.7891 H   0  0  0  0  0  0  0  0  0  0  0  0
  141.5452   80.6495  216.5693 H   0  0  0  0  0  0  0  0  0  0  0  0
  140.3002   78.5313  218.3602 H   0  0  0  0  0  0  0  0  0  0  0  0
  140.2406   78.6285  216.5937 H   0  0  0  0  0  0  0  0  0  0  0  0
  141.9581   76.9734  218.1373 H   0  0  0  0  0  0  0  0  0  0  0  0
  142.1353   77.3123  216.3916 H   0  0  0  0  0  0  0  0  0  0  0  0
  143.8770   78.0490  218.4070 H   0  0  0  0  0  0  0  0  0  0  0  0
  143.8780   78.6060  216.7930 H   0  0  0  0  0  0  0  0  0  0  0  0
  142.8693   79.8890  219.2130 H   0  0  0  0  0  0  0  0  0  0  0  0
  143.6227   80.6147  217.7707 H   0  0  0  0  0  0  0  0  0  0  0  0
  138.9474   80.8916  219.5656 H   0  0  0  0  0  0  0  0  0  0  0  0
  139.5355   79.3429  218.9012 H   0  0  0  0  0  0  0  0  0  0  0  0
  139.2954   82.3799  221.7374 H   0  0  0  0  0  0  0  0  0  0  0  0
  137.9197   82.3115  223.8379 H   0  0  0  0  0  0  0  0  0  0  0  0
  137.6758   80.1679  225.1071 H   0  0  0  0  0  0  0  0  0  0  0  0
  138.8022   78.0786  224.2760 H   0  0  0  0  0  0  0  0  0  0  0  0
  142.6020   76.8000  220.8400 H   0  0  0  0  0  0  0  0  0  0  0  0
  144.5567   75.2661  219.7029 H   0  0  0  0  0  0  0  0  0  0  0  0
  1  2  2  0
  2  3  1  0
  2  4  1  0
  4  5  2  0
  5  6  1  0
  6  7  2  0
  7  8  1  0
  8  9  2  0
  9 10  1  0
 10 11  2  0
 10 12  1  0
 12 13  1  0
 14 13  1  6
 14 15  1  0
 15 16  1  0
 16 17  1  0
 17 18  1  0
 18 19  1  0
 19 20  1  0
 20 21  1  0
 21 22  1  0
 17 23  1  0
 14 24  1  0
 24 25  2  0
 25 26  1  0
 26 27  2  0
 27 28  1  0
 28 29  2  0
  9 30  1  0
 30 31  1  0
 31 32  2  0
 32  4  1  0
 31  7  1  0
 29 12  1  0
 23 14  1  0
 29 24  1  0
 22 18  1  0
  3 33  1  0
  5 34  1  0
  6 35  1  0
  8 36  1  0
 13 37  1  0
 13 38  1  0
 15 39  1  0
 15 40  1  0
 16 41  1  0
 16 42  1  0
 18 43  1  6
 19 44  1  0
 19 45  1  0
 20 46  1  0
 20 47  1  0
 21 48  1  0
 21 49  1  0
 22 50  1  0
 22 51  1  0
 23 52  1  0
 23 53  1  0
 25 54  1  0
 26 55  1  0
 27 56  1  0
 28 57  1  0
 30 58  1  0
 32 59  1  0
M  CHG  2   1  -1  21   1
M  END
>  <meeko>  (10) 
{"free_energy": -8.96, "intermolecular_energy": -10.45, "internal_energy": -0.77, "cluster_size": 13, "cluster_id": 1, "rank_in_cluster": 4}

$$$$

     RDKit          3D

 59 64  0  0  0  0  0  0  0  0999 V2000
  145.9450   72.0140  218.5650 N   0  0  0  0  0  0  0  0  0  0  0  0
  145.8860   73.0640  219.3180 C   0  0  0  0  0  0  0  0  0  0  0  0
  147.0610   73.7400  219.6390 O   0  0  0  0  0  0  0  0  0  0  0  0
  144.5860   73.5480  219.8380 C   0  0  0  0  0  0  0  0  0  0  0  0
  143.6750   72.6560  220.4710 C   0  0  0  0  0  0  0  0  0  0  0  0
  142.4400   73.1160  220.9630 C   0  0  0  0  0  0  0  0  0  0  0  0
  142.1430   74.4670  220.8140 C   0  0  0  0  0  0  0  0  0  0  0  0
  141.0260   75.1830  221.1830 C   0  0  0  0  0  0  0  0  0  0  0  0
  141.2850   76.4900  220.7730 C   0  0  0  0  0  0  0  0  0  0  0  0
  140.3700   77.6370  220.9170 C   0  0  0  0  0  0  0  0  0  0  0  0
  139.1310   77.4180  221.0000 O   0  0  0  0  0  0  0  0  0  0  0  0
  140.8570   78.9890  220.9260 N   0  0  0  0  0  0  0  0  0  0  0  0
  140.4500   80.0060  219.9520 C   0  0  0  0  0  0  0  0  0  0  0  0
  140.6540   81.3930  220.6570 C   0  0  1  0  0  0  0  0  0  0  0  0
  141.4680   82.3880  219.8170 C   0  0  0  0  0  0  0  0  0  0  0  0
  140.6010   83.6360  219.7480 C   0  0  0  0  0  0  0  0  0  0  0  0
  139.2030   83.2320  219.9770 N   0  0  0  0  0  0  0  0  0  0  0  0
  138.5290   82.8250  218.7130 C   0  0  2  0  0  0  0  0  0  0  0  0
  137.8620   81.4580  218.8390 C   0  0  0  0  0  0  0  0  0  0  0  0
  138.0200   80.7910  217.4800 C   0  0  0  0  0  0  0  0  0  0  0  0
  138.9460   81.5970  216.6800 N   0  0  0  0  0  0  0  0  0  0  0  0
  139.5190   82.6060  217.5690 C   0  0  0  0  0  0  0  0  0  0  0  0
  139.3190   82.1160  220.9330 C   0  0  0  0  0  0  0  0  0  0  0  0
  141.3440   81.0110  221.9360 C   0  0  0  0  0  0  0  0  0  0  0  0
  141.8510   81.8490  222.9360 C   0  0  0  0  0  0  0  0  0  0  0  0
  142.4540   81.2680  224.0610 C   0  0  0  0  0  0  0  0  0  0  0  0
  142.5430   79.8680  224.1730 C   0  0  0  0  0  0  0  0  0  0  0  0
  142.0240   79.0450  223.1610 C   0  0  0  0  0  0  0  0  0  0  0  0
  141.4140   79.6470  222.0550 C   0  0  0  0  0  0  0  0  0  0  0  0
  142.4920   76.5730  220.1650 N   0  0  0  0  0  0  0  0  0  0  0  0
  143.0070   75.3340  220.2050 C   0  0  0  0  0  0  0  0  0  0  0  0
  144.2370   74.9130  219.7020 C   0  0  0  0  0  0  0  0  0  0  0  0
  147.0810   74.7490  219.7230 H   0  0  0  0  0  0  0  0  0  0  0  0
  143.9401   71.5937  220.5768 H   0  0  0  0  0  0  0  0  0  0  0  0
  141.7318   72.4295  221.4499 H   0  0  0  0  0  0  0  0  0  0  0  0
  140.1259   74.8059  221.6905 H   0  0  0  0  0  0  0  0  0  0  0  0
  141.0752   79.9414  219.0493 H   0  0  0  0  0  0  0  0  0  0  0  0
  139.4051   79.8654  219.6382 H   0  0  0  0  0  0  0  0  0  0  0  0
  142.4295   82.6102  220.3029 H   0  0  0  0  0  0  0  0  0  0  0  0
  141.7070   81.9919  218.8190 H   0  0  0  0  0  0  0  0  0  0  0  0
  140.9144   84.3516  220.5224 H   0  0  0  0  0  0  0  0  0  0  0  0
  140.7033   84.1186  218.7648 H   0  0  0  0  0  0  0  0  0  0  0  0
  137.8203   83.6432  218.5174 H   0  0  0  0  0  0  0  0  0  0  0  0
  138.3575   80.8607  219.6185 H   0  0  0  0  0  0  0  0  0  0  0  0
  136.8035   81.5494  219.1239 H   0  0  0  0  0  0  0  0  0  0  0  0
  138.4245   79.7761  217.6080 H   0  0  0  0  0  0  0  0  0  0  0  0
  137.0450   80.7196  216.9758 H   0  0  0  0  0  0  0  0  0  0  0  0
  139.7020   80.9980  216.2730 H   0  0  0  0  0  0  0  0  0  0  0  0
  138.4240   82.0690  215.9050 H   0  0  0  0  0  0  0  0  0  0  0  0
  140.4814   82.2526  217.9675 H   0  0  0  0  0  0  0  0  0  0  0  0
  139.6972   83.5455  217.0253 H   0  0  0  0  0  0  0  0  0  0  0  0
  139.3093   82.5031  221.9626 H   0  0  0  0  0  0  0  0  0  0  0  0
  138.4748   81.4207  220.8151 H   0  0  0  0  0  0  0  0  0  0  0  0
  141.7779   82.9425  222.8413 H   0  0  0  0  0  0  0  0  0  0  0  0
  142.8587   81.9086  224.8584 H   0  0  0  0  0  0  0  0  0  0  0  0
  143.0204   79.4175  225.0557 H   0  0  0  0  0  0  0  0  0  0  0  0
  142.0954   77.9499  223.2360 H   0  0  0  0  0  0  0  0  0  0  0  0
  142.9360   77.4240  219.7530 H   0  0  0  0  0  0  0  0  0  0  0  0
  144.9190   75.6234  219.2119 H   0  0  0  0  0  0  0  0  0  0  0  0
  1  2  2  0
  2  3  1  0
  2  4  1  0
  4  5  2  0
  5  6  1  0
  6  7  2  0
  7  8  1  0
  8  9  2  0
  9 10  1  0
 10 11  2  0
 10 12  1  0
 12 13  1  0
 14 13  1  6
 14 15  1  0
 15 16  1  0
 16 17  1  0
 17 18  1  0
 18 19  1  0
 19 20  1  0
 20 21  1  0
 21 22  1  0
 17 23  1  0
 14 24  1  0
 24 25  2  0
 25 26  1  0
 26 27  2  0
 27 28  1  0
 28 29  2  0
  9 30  1  0
 30 31  1  0
 31 32  2  0
 32  4  1  0
 31  7  1  0
 29 12  1  0
 23 14  1  0
 29 24  1  0
 22 18  1  0
  3 33  1  0
  5 34  1  0
  6 35  1  0
  8 36  1  0
 13 37  1  0
 13 38  1  0
 15 39  1  0
 15 40  1  0
 16 41  1  0
 16 42  1  0
 18 43  1  6
 19 44  1  0
 19 45  1  0
 20 46  1  0
 20 47  1  0
 21 48  1  0
 21 49  1  0
 22 50  1  0
 22 51  1  0
 23 52  1  0
 23 53  1  0
 25 54  1  0
 26 55  1  0
 27 56  1  0
 28 57  1  0
 30 58  1  0
 32 59  1  0
M  CHG  2   1  -1  21   1
M  END
>  <meeko>  (11) 
{"free_energy": -8.18, "intermolecular_energy": -9.67, "internal_energy": -0.81, "cluster_size": 2, "cluster_id": 3, "rank_in_cluster": 2}

$$$$

     RDKit          3D

 59 64  0  0  0  0  0  0  0  0999 V2000
  146.3090   73.0150  218.2640 N   0  0  0  0  0  0  0  0  0  0  0  0
  145.6440   73.2230  219.3540 C   0  0  0  0  0  0  0  0  0  0  0  0
  146.0820   72.6400  220.5410 O   0  0  0  0  0  0  0  0  0  0  0  0
  144.4300   74.0700  219.3460 C   0  0  0  0  0  0  0  0  0  0  0  0
  143.9400   74.6350  218.1350 C   0  0  0  0  0  0  0  0  0  0  0  0
  142.7880   75.4410  218.1290 C   0  0  0  0  0  0  0  0  0  0  0  0
  142.1420   75.6620  219.3410 C   0  0  0  0  0  0  0  0  0  0  0  0
  141.0190   76.4030  219.6340 C   0  0  0  0  0  0  0  0  0  0  0  0
  140.8470   76.2660  221.0110 C   0  0  0  0  0  0  0  0  0  0  0  0
  139.7890   76.9040  221.8160 C   0  0  0  0  0  0  0  0  0  0  0  0
  138.9020   76.1760  222.3390 O   0  0  0  0  0  0  0  0  0  0  0  0
  139.7310   78.3310  221.9840 N   0  0  0  0  0  0  0  0  0  0  0  0
  138.4790   79.0880  222.0650 C   0  0  0  0  0  0  0  0  0  0  0  0
  138.8110   80.3970  222.8650 C   0  0  1  0  0  0  0  0  0  0  0  0
  138.3430   81.6770  222.1570 C   0  0  0  0  0  0  0  0  0  0  0  0
  137.5030   82.4070  223.1940 C   0  0  0  0  0  0  0  0  0  0  0  0
  137.0170   81.4130  224.1670 N   0  0  0  0  0  0  0  0  0  0  0  0
  135.7380   80.7880  223.7280 C   0  0  2  0  0  0  0  0  0  0  0  0
  135.8150   79.2640  223.7470 C   0  0  0  0  0  0  0  0  0  0  0  0
  134.9770   78.7910  222.5670 C   0  0  0  0  0  0  0  0  0  0  0  0
  134.6410   79.9580  221.7470 N   0  0  0  0  0  0  0  0  0  0  0  0
  135.4150   81.0850  222.2640 C   0  0  0  0  0  0  0  0  0  0  0  0
  138.1180   80.4380  224.2430 C   0  0  0  0  0  0  0  0  0  0  0  0
  140.3050   80.3230  223.0050 C   0  0  0  0  0  0  0  0  0  0  0  0
  141.1740   81.2680  223.5630 C   0  0  0  0  0  0  0  0  0  0  0  0
  142.5480   80.9820  223.5990 C   0  0  0  0  0  0  0  0  0  0  0  0
  143.0310   79.7670  223.0800 C   0  0  0  0  0  0  0  0  0  0  0  0
  142.1420   78.8310  222.5270 C   0  0  0  0  0  0  0  0  0  0  0  0
  140.7750   79.1320  222.5170 C   0  0  0  0  0  0  0  0  0  0  0  0
  141.8260   75.4960  221.5440 N   0  0  0  0  0  0  0  0  0  0  0  0
  142.6030   75.1290  220.5130 C   0  0  0  0  0  0  0  0  0  0  0  0
  143.7440   74.3290  220.5570 C   0  0  0  0  0  0  0  0  0  0  0  0
  145.6280   71.8170  220.9210 H   0  0  0  0  0  0  0  0  0  0  0  0
  144.4697   74.4384  217.1912 H   0  0  0  0  0  0  0  0  0  0  0  0
  142.4095   75.8829  217.1955 H   0  0  0  0  0  0  0  0  0  0  0  0
  140.3940   76.9776  218.9345 H   0  0  0  0  0  0  0  0  0  0  0  0
  138.1186   79.3384  221.0563 H   0  0  0  0  0  0  0  0  0  0  0  0
  137.6887   78.5047  222.5601 H   0  0  0  0  0  0  0  0  0  0  0  0
  139.2047   82.2901  221.8544 H   0  0  0  0  0  0  0  0  0  0  0  0
  137.7762   81.4614  221.2393 H   0  0  0  0  0  0  0  0  0  0  0  0
  138.1164   83.1625  223.7068 H   0  0  0  0  0  0  0  0  0  0  0  0
  136.6555   82.9151  222.7107 H   0  0  0  0  0  0  0  0  0  0  0  0
  134.9920   81.1994  224.4238 H   0  0  0  0  0  0  0  0  0  0  0  0
  136.8575   78.9318  223.6339 H   0  0  0  0  0  0  0  0  0  0  0  0
  135.4447   78.8520  224.6973 H   0  0  0  0  0  0  0  0  0  0  0  0
  135.5510   78.0682  221.9686 H   0  0  0  0  0  0  0  0  0  0  0  0
  134.0594   78.3011  222.9248 H   0  0  0  0  0  0  0  0  0  0  0  0
  134.8760   79.7860  220.7420 H   0  0  0  0  0  0  0  0  0  0  0  0
  133.6190   80.1670  221.8320 H   0  0  0  0  0  0  0  0  0  0  0  0
  136.3462   81.1962  221.6891 H   0  0  0  0  0  0  0  0  0  0  0  0
  134.8431   82.0205  222.1757 H   0  0  0  0  0  0  0  0  0  0  0  0
  138.8384   80.7472  225.0146 H   0  0  0  0  0  0  0  0  0  0  0  0
  137.7310   79.4428  224.5071 H   0  0  0  0  0  0  0  0  0  0  0  0
  140.7878   82.2161  223.9654 H   0  0  0  0  0  0  0  0  0  0  0  0
  143.2487   81.7098  224.0341 H   0  0  0  0  0  0  0  0  0  0  0  0
  144.1089   79.5493  223.1074 H   0  0  0  0  0  0  0  0  0  0  0  0
  142.5117   77.8823  222.1109 H   0  0  0  0  0  0  0  0  0  0  0  0
  141.9510   75.2360  222.5480 H   0  0  0  0  0  0  0  0  0  0  0  0
  144.1022   73.9096  221.5087 H   0  0  0  0  0  0  0  0  0  0  0  0
  1  2  2  0
  2  3  1  0
  2  4  1  0
  4  5  2  0
  5  6  1  0
  6  7  2  0
  7  8  1  0
  8  9  2  0
  9 10  1  0
 10 11  2  0
 10 12  1  0
 12 13  1  0
 14 13  1  6
 14 15  1  0
 15 16  1  0
 16 17  1  0
 17 18  1  0
 18 19  1  0
 19 20  1  0
 20 21  1  0
 21 22  1  0
 17 23  1  0
 14 24  1  0
 24 25  2  0
 25 26  1  0
 26 27  2  0
 27 28  1  0
 28 29  2  0
  9 30  1  0
 30 31  1  0
 31 32  2  0
 32  4  1  0
 31  7  1  0
 29 12  1  0
 23 14  1  0
 29 24  1  0
 22 18  1  0
  3 33  1  0
  5 34  1  0
  6 35  1  0
  8 36  1  0
 13 37  1  0
 13 38  1  0
 15 39  1  0
 15 40  1  0
 16 41  1  0
 16 42  1  0
 18 43  1  1
 19 44  1  0
 19 45  1  0
 20 46  1  0
 20 47  1  0
 21 48  1  0
 21 49  1  0
 22 50  1  0
 22 51  1  0
 23 52  1  0
 23 53  1  0
 25 54  1  0
 26 55  1  0
 27 56  1  0
 28 57  1  0
 30 58  1  0
 32 59  1  0
M  CHG  2   1  -1  21   1
M  END
>  <meeko>  (12) 
{"free_energy": -8.19, "intermolecular_energy": -9.68, "internal_energy": -0.9, "cluster_size": 4, "cluster_id": 2, "rank_in_cluster": 1}

$$$$

     RDKit          3D

 59 64  0  0  0  0  0  0  0  0999 V2000
  145.5060   72.1800  217.9340 N   0  0  0  0  0  0  0  0  0  0  0  0
  145.5680   73.2090  218.7160 C   0  0  0  0  0  0  0  0  0  0  0  0
  146.7190   73.4220  219.4720 O   0  0  0  0  0  0  0  0  0  0  0  0
  144.4320   74.1540  218.8120 C   0  0  0  0  0  0  0  0  0  0  0  0
  143.9580   74.8460  217.6620 C   0  0  0  0  0  0  0  0  0  0  0  0
  142.8800   75.7440  217.7530 C   0  0  0  0  0  0  0  0  0  0  0  0
  142.2910   75.9290  219.0000 C   0  0  0  0  0  0  0  0  0  0  0  0
  141.2450   76.7380  219.3850 C   0  0  0  0  0  0  0  0  0  0  0  0
  141.1020   76.5140  220.7530 C   0  0  0  0  0  0  0  0  0  0  0  0
  140.1270   77.1770  221.6390 C   0  0  0  0  0  0  0  0  0  0  0  0
  139.2090   76.4850  222.1560 O   0  0  0  0  0  0  0  0  0  0  0  0
  140.1820   78.5920  221.8890 N   0  0  0  0  0  0  0  0  0  0  0  0
  141.0930   79.5060  221.1930 C   0  0  0  0  0  0  0  0  0  0  0  0
  140.4200   80.9220  221.2510 C   0  0  1  0  0  0  0  0  0  0  0  0
  141.3600   82.0200  221.7690 C   0  0  0  0  0  0  0  0  0  0  0  0
  141.3130   83.1050  220.7040 C   0  0  0  0  0  0  0  0  0  0  0  0
  140.9000   82.4780  219.4360 N   0  0  0  0  0  0  0  0  0  0  0  0
  142.0640   81.9370  218.6800 C   0  0  2  0  0  0  0  0  0  0  0  0
  142.3820   82.7790  217.4480 C   0  0  0  0  0  0  0  0  0  0  0  0
  142.8540   81.7980  216.3840 C   0  0  0  0  0  0  0  0  0  0  0  0
  142.5850   80.4400  216.8630 N   0  0  0  0  0  0  0  0  0  0  0  0
  141.7790   80.5620  218.0770 C   0  0  0  0  0  0  0  0  0  0  0  0
  139.9690   81.4190  219.8630 C   0  0  0  0  0  0  0  0  0  0  0  0
  139.2450   80.6880  222.1580 C   0  0  0  0  0  0  0  0  0  0  0  0
  138.3210   81.6210  222.6430 C   0  0  0  0  0  0  0  0  0  0  0  0
  137.2860   81.1730  223.4780 C   0  0  0  0  0  0  0  0  0  0  0  0
  137.1880   79.8100  223.8140 C   0  0  0  0  0  0  0  0  0  0  0  0
  138.1220   78.8900  223.3130 C   0  0  0  0  0  0  0  0  0  0  0  0
  139.1370   79.3580  222.4710 C   0  0  0  0  0  0  0  0  0  0  0  0
  142.0260   75.6270  221.1950 N   0  0  0  0  0  0  0  0  0  0  0  0
  142.7380   75.2730  220.1140 C   0  0  0  0  0  0  0  0  0  0  0  0
  143.8060   74.3790  220.0610 C   0  0  0  0  0  0  0  0  0  0  0  0
  147.0840   74.3550  219.6210 H   0  0  0  0  0  0  0  0  0  0  0  0
  144.4417   74.6759  216.6888 H   0  0  0  0  0  0  0  0  0  0  0  0
  142.5140   76.2831  216.8668 H   0  0  0  0  0  0  0  0  0  0  0  0
  140.6519   77.4135  218.7510 H   0  0  0  0  0  0  0  0  0  0  0  0
  142.0705   79.5273  221.6970 H   0  0  0  0  0  0  0  0  0  0  0  0
  141.2660   79.1864  220.1548 H   0  0  0  0  0  0  0  0  0  0  0  0
  141.0060   82.4094  222.7349 H   0  0  0  0  0  0  0  0  0  0  0  0
  142.3811   81.6473  221.9377 H   0  0  0  0  0  0  0  0  0  0  0  0
  140.5870   83.8797  220.9916 H   0  0  0  0  0  0  0  0  0  0  0  0
  142.3006   83.5769  220.5941 H   0  0  0  0  0  0  0  0  0  0  0  0
  142.8756   81.9207  219.4223 H   0  0  0  0  0  0  0  0  0  0  0  0
  141.4824   83.3115  217.1056 H   0  0  0  0  0  0  0  0  0  0  0  0
  143.1467   83.5395  217.6645 H   0  0  0  0  0  0  0  0  0  0  0  0
  142.3096   81.9765  215.4450 H   0  0  0  0  0  0  0  0  0  0  0  0
  143.9300   81.9290  216.1965 H   0  0  0  0  0  0  0  0  0  0  0  0
  142.0710   79.8850  216.1390 H   0  0  0  0  0  0  0  0  0  0  0  0
  143.4870   79.9600  217.0890 H   0  0  0  0  0  0  0  0  0  0  0  0
  140.7109   80.4744  217.8292 H   0  0  0  0  0  0  0  0  0  0  0  0
  142.0315   79.7650  218.7919 H   0  0  0  0  0  0  0  0  0  0  0  0
  138.9473   81.8221  219.9243 H   0  0  0  0  0  0  0  0  0  0  0  0
  139.9737   80.5904  219.1395 H   0  0  0  0  0  0  0  0  0  0  0  0
  138.4046   82.6845  222.3748 H   0  0  0  0  0  0  0  0  0  0  0  0
  136.5493   81.8892  223.8709 H   0  0  0  0  0  0  0  0  0  0  0  0
  136.3767   79.4645  224.4715 H   0  0  0  0  0  0  0  0  0  0  0  0
  138.0576   77.8240  223.5765 H   0  0  0  0  0  0  0  0  0  0  0  0
  142.1570   75.2840  222.1730 H   0  0  0  0  0  0  0  0  0  0  0  0
  144.1535   73.8614  220.9673 H   0  0  0  0  0  0  0  0  0  0  0  0
  1  2  2  0
  2  3  1  0
  2  4  1  0
  4  5  2  0
  5  6  1  0
  6  7  2  0
  7  8  1  0
  8  9  2  0
  9 10  1  0
 10 11  2  0
 10 12  1  0
 12 13  1  0
 14 13  1  6
 14 15  1  0
 15 16  1  0
 16 17  1  0
 17 18  1  0
 18 19  1  0
 19 20  1  0
 20 21  1  0
 21 22  1  0
 17 23  1  0
 14 24  1  0
 24 25  2  0
 25 26  1  0
 26 27  2  0
 27 28  1  0
 28 29  2  0
  9 30  1  0
 30 31  1  0
 31 32  2  0
 32  4  1  0
 31  7  1  0
 29 12  1  0
 23 14  1  0
 29 24  1  0
 22 18  1  0
  3 33  1  0
  5 34  1  0
  6 35  1  0
  8 36  1  0
 13 37  1  0
 13 38  1  0
 15 39  1  0
 15 40  1  0
 16 41  1  0
 16 42  1  0
 18 43  1  1
 19 44  1  0
 19 45  1  0
 20 46  1  0
 20 47  1  0
 21 48  1  0
 21 49  1  0
 22 50  1  0
 22 51  1  0
 23 52  1  0
 23 53  1  0
 25 54  1  0
 26 55  1  0
 27 56  1  0
 28 57  1  0
 30 58  1  0
 32 59  1  0
M  CHG  2   1  -1  21   1
M  END
>  <meeko>  (13) 
{"free_energy": -8.39, "intermolecular_energy": -9.88, "internal_energy": -0.89, "cluster_size": 13, "cluster_id": 1, "rank_in_cluster": 8}

$$$$

     RDKit          3D

 59 64  0  0  0  0  0  0  0  0999 V2000
  145.6300   72.2430  218.2010 N   0  0  0  0  0  0  0  0  0  0  0  0
  145.5790   73.2990  218.9450 C   0  0  0  0  0  0  0  0  0  0  0  0
  146.6990   73.6620  219.6910 O   0  0  0  0  0  0  0  0  0  0  0  0
  144.3470   74.1190  219.0090 C   0  0  0  0  0  0  0  0  0  0  0  0
  143.7640   74.6540  217.8270 C   0  0  0  0  0  0  0  0  0  0  0  0
  142.5940   75.4340  217.8890 C   0  0  0  0  0  0  0  0  0  0  0  0
  142.0270   75.6570  219.1390 C   0  0  0  0  0  0  0  0  0  0  0  0
  140.9090   76.3760  219.4980 C   0  0  0  0  0  0  0  0  0  0  0  0
  140.8330   76.2550  220.8850 C   0  0  0  0  0  0  0  0  0  0  0  0
  139.8170   76.8790  221.7520 C   0  0  0  0  0  0  0  0  0  0  0  0
  138.9740   76.1400  222.3290 O   0  0  0  0  0  0  0  0  0  0  0  0
  139.7480   78.3060  221.9200 N   0  0  0  0  0  0  0  0  0  0  0  0
  138.4910   79.0560  221.9820 C   0  0  0  0  0  0  0  0  0  0  0  0
  138.8020   80.3660  222.7880 C   0  0  1  0  0  0  0  0  0  0  0  0
  138.3390   81.6440  222.0740 C   0  0  0  0  0  0  0  0  0  0  0  0
  137.4780   82.3690  223.0970 C   0  0  0  0  0  0  0  0  0  0  0  0
  136.9810   81.3710  224.0610 N   0  0  0  0  0  0  0  0  0  0  0  0
  135.7130   80.7390  223.6010 C   0  0  2  0  0  0  0  0  0  0  0  0
  134.5550   81.0330  224.5510 C   0  0  0  0  0  0  0  0  0  0  0  0
  133.6920   79.7790  224.5550 C   0  0  0  0  0  0  0  0  0  0  0  0
  134.4260   78.7170  223.8620 N   0  0  0  0  0  0  0  0  0  0  0  0
  135.7810   79.2120  223.6240 C   0  0  0  0  0  0  0  0  0  0  0  0
  138.0870   80.4020  224.1540 C   0  0  0  0  0  0  0  0  0  0  0  0
  140.2940   80.3000  222.9520 C   0  0  0  0  0  0  0  0  0  0  0  0
  141.1490   81.2490  223.5260 C   0  0  0  0  0  0  0  0  0  0  0  0
  142.5230   80.9710  223.5830 C   0  0  0  0  0  0  0  0  0  0  0  0
  143.0220   79.7590  223.0710 C   0  0  0  0  0  0  0  0  0  0  0  0
  142.1470   78.8190  222.5030 C   0  0  0  0  0  0  0  0  0  0  0  0
  140.7790   79.1120  222.4710 C   0  0  0  0  0  0  0  0  0  0  0  0
  141.8640   75.5150  221.3600 N   0  0  0  0  0  0  0  0  0  0  0  0
  142.5780   75.1510  220.2830 C   0  0  0  0  0  0  0  0  0  0  0  0
  143.7380   74.3780  220.2600 C   0  0  0  0  0  0  0  0  0  0  0  0
  147.2310   74.4950  219.4670 H   0  0  0  0  0  0  0  0  0  0  0  0
  144.2334   74.4557  216.8522 H   0  0  0  0  0  0  0  0  0  0  0  0
  142.1426   75.8537  216.9779 H   0  0  0  0  0  0  0  0  0  0  0  0
  140.2249   76.9260  218.8351 H   0  0  0  0  0  0  0  0  0  0  0  0
  138.1453   79.3052  220.9679 H   0  0  0  0  0  0  0  0  0  0  0  0
  137.6966   78.4676  222.4645 H   0  0  0  0  0  0  0  0  0  0  0  0
  139.2024   82.2619  221.7864 H   0  0  0  0  0  0  0  0  0  0  0  0
  137.7884   81.4260  221.1470 H   0  0  0  0  0  0  0  0  0  0  0  0
  138.0787   83.1273  223.6206 H   0  0  0  0  0  0  0  0  0  0  0  0
  136.6362   82.8735  222.6001 H   0  0  0  0  0  0  0  0  0  0  0  0
  135.5665   81.1471  222.5901 H   0  0  0  0  0  0  0  0  0  0  0  0
  134.9331   81.2408  225.5628 H   0  0  0  0  0  0  0  0  0  0  0  0
  133.9833   81.9164  224.2306 H   0  0  0  0  0  0  0  0  0  0  0  0
  133.4840   79.4732  225.5910 H   0  0  0  0  0  0  0  0  0  0  0  0
  132.7356   79.9738  224.0476 H   0  0  0  0  0  0  0  0  0  0  0  0
  134.4540   77.8450  224.4420 H   0  0  0  0  0  0  0  0  0  0  0  0
  133.9640   78.5080  222.9460 H   0  0  0  0  0  0  0  0  0  0  0  0
  136.4504   78.8777  224.4303 H   0  0  0  0  0  0  0  0  0  0  0  0
  136.1733   78.8265  222.6714 H   0  0  0  0  0  0  0  0  0  0  0  0
  138.7931   80.7149  224.9373 H   0  0  0  0  0  0  0  0  0  0  0  0
  137.7016   79.4043  224.4111 H   0  0  0  0  0  0  0  0  0  0  0  0
  140.7511   82.1940  223.9244 H   0  0  0  0  0  0  0  0  0  0  0  0
  143.2124   81.7028  224.0293 H   0  0  0  0  0  0  0  0  0  0  0  0
  144.1005   79.5473  223.1158 H   0  0  0  0  0  0  0  0  0  0  0  0
  142.5287   77.8727  222.0921 H   0  0  0  0  0  0  0  0  0  0  0  0
  142.0620   75.2720  222.3570 H   0  0  0  0  0  0  0  0  0  0  0  0
  144.1689   73.9796  221.1904 H   0  0  0  0  0  0  0  0  0  0  0  0
  1  2  2  0
  2  3  1  0
  2  4  1  0
  4  5  2  0
  5  6  1  0
  6  7  2  0
  7  8  1  0
  8  9  2  0
  9 10  1  0
 10 11  2  0
 10 12  1  0
 12 13  1  0
 14 13  1  6
 14 15  1  0
 15 16  1  0
 16 17  1  0
 17 18  1  0
 18 19  1  0
 19 20  1  0
 20 21  1  0
 21 22  1  0
 17 23  1  0
 14 24  1  0
 24 25  2  0
 25 26  1  0
 26 27  2  0
 27 28  1  0
 28 29  2  0
  9 30  1  0
 30 31  1  0
 31 32  2  0
 32  4  1  0
 31  7  1  0
 29 12  1  0
 23 14  1  0
 29 24  1  0
 22 18  1  0
  3 33  1  0
  5 34  1  0
  6 35  1  0
  8 36  1  0
 13 37  1  0
 13 38  1  0
 15 39  1  0
 15 40  1  0
 16 41  1  0
 16 42  1  0
 18 43  1  6
 19 44  1  0
 19 45  1  0
 20 46  1  0
 20 47  1  0
 21 48  1  0
 21 49  1  0
 22 50  1  0
 22 51  1  0
 23 52  1  0
 23 53  1  0
 25 54  1  0
 26 55  1  0
 27 56  1  0
 28 57  1  0
 30 58  1  0
 32 59  1  0
M  CHG  2   1  -1  21   1
M  END
>  <meeko>  (14) 
{"free_energy": -8.11, "intermolecular_energy": -9.61, "internal_energy": -0.91, "cluster_size": 4, "cluster_id": 2, "rank_in_cluster": 3}

$$$$

     RDKit          3D

 59 64  0  0  0  0  0  0  0  0999 V2000
  145.8560   72.8790  218.5740 N   0  0  0  0  0  0  0  0  0  0  0  0
  145.5090   72.9180  219.8200 C   0  0  0  0  0  0  0  0  0  0  0  0
  146.4680   72.6810  220.8030 O   0  0  0  0  0  0  0  0  0  0  0  0
  144.1090   73.2120  220.2040 C   0  0  0  0  0  0  0  0  0  0  0  0
  143.1410   72.1720  220.2850 C   0  0  0  0  0  0  0  0  0  0  0  0
  141.8110   72.4510  220.6480 C   0  0  0  0  0  0  0  0  0  0  0  0
  141.4770   73.7720  220.9290 C   0  0  0  0  0  0  0  0  0  0  0  0
  140.2730   74.3320  221.2940 C   0  0  0  0  0  0  0  0  0  0  0  0
  140.5370   75.6930  221.4340 C   0  0  0  0  0  0  0  0  0  0  0  0
  139.5520   76.7320  221.7860 C   0  0  0  0  0  0  0  0  0  0  0  0
  138.3790   76.3800  222.0860 O   0  0  0  0  0  0  0  0  0  0  0  0
  139.8920   78.1290  221.7590 N   0  0  0  0  0  0  0  0  0  0  0  0
  140.7640   78.7330  220.7460 C   0  0  0  0  0  0  0  0  0  0  0  0
  140.3620   80.2470  220.6710 C   0  0  1  0  0  0  0  0  0  0  0  0
  141.5600   81.2000  220.7910 C   0  0  0  0  0  0  0  0  0  0  0  0
  141.4580   82.1070  219.5730 C   0  0  0  0  0  0  0  0  0  0  0  0
  140.6790   81.3970  218.5440 N   0  0  0  0  0  0  0  0  0  0  0  0
  141.5430   80.5320  217.6930 C   0  0  2  0  0  0  0  0  0  0  0  0
  140.9160   79.1610  217.4560 C   0  0  0  0  0  0  0  0  0  0  0  0
  142.0750   78.1740  217.4210 C   0  0  0  0  0  0  0  0  0  0  0  0
  143.2830   78.8720  217.8690 N   0  0  0  0  0  0  0  0  0  0  0  0
  142.8650   80.1790  218.3740 C   0  0  0  0  0  0  0  0  0  0  0  0
  139.7040   80.6170  219.3260 C   0  0  0  0  0  0  0  0  0  0  0  0
  139.3940   80.3850  221.8110 C   0  0  0  0  0  0  0  0  0  0  0  0
  138.7650   81.5430  222.2840 C   0  0  0  0  0  0  0  0  0  0  0  0
  137.8800   81.4350  223.3670 C   0  0  0  0  0  0  0  0  0  0  0  0
  137.6370   80.1830  223.9610 C   0  0  0  0  0  0  0  0  0  0  0  0
  138.2740   79.0330  223.4690 C   0  0  0  0  0  0  0  0  0  0  0  0
  139.1410   79.1630  222.3770 C   0  0  0  0  0  0  0  0  0  0  0  0
  141.8340   75.9630  221.1500 N   0  0  0  0  0  0  0  0  0  0  0  0
  142.3960   74.7810  220.8520 C   0  0  0  0  0  0  0  0  0  0  0  0
  143.7210   74.5420  220.4920 C   0  0  0  0  0  0  0  0  0  0  0  0
  146.3060   72.0080  221.5430 H   0  0  0  0  0  0  0  0  0  0  0  0
  143.4367   71.1365  220.0608 H   0  0  0  0  0  0  0  0  0  0  0  0
  141.0591   71.6504  220.7078 H   0  0  0  0  0  0  0  0  0  0  0  0
  139.3123   73.8172  221.4426 H   0  0  0  0  0  0  0  0  0  0  0  0
  141.8188   78.6325  221.0416 H   0  0  0  0  0  0  0  0  0  0  0  0
  140.6484   78.2383  219.7704 H   0  0  0  0  0  0  0  0  0  0  0  0
  141.4962   81.7879  221.7185 H   0  0  0  0  0  0  0  0  0  0  0  0
  142.5179   80.6606  220.8283 H   0  0  0  0  0  0  0  0  0  0  0  0
  140.9502   83.0438  219.8461 H   0  0  0  0  0  0  0  0  0  0  0  0
  142.4606   82.3527  219.1931 H   0  0  0  0  0  0  0  0  0  0  0  0
  141.6776   81.1184  216.7721 H   0  0  0  0  0  0  0  0  0  0  0  0
  140.2239   78.9100  218.2734 H   0  0  0  0  0  0  0  0  0  0  0  0
  140.3364   79.1375  216.5214 H   0  0  0  0  0  0  0  0  0  0  0  0
  141.8638   77.3274  218.0909 H   0  0  0  0  0  0  0  0  0  0  0  0
  142.2151   77.7878  216.4006 H   0  0  0  0  0  0  0  0  0  0  0  0
  143.7680   78.3290  218.6210 H   0  0  0  0  0  0  0  0  0  0  0  0
  143.9350   79.0010  217.0610 H   0  0  0  0  0  0  0  0  0  0  0  0
  142.7257   80.1336  219.4642 H   0  0  0  0  0  0  0  0  0  0  0  0
  143.6284   80.9408  218.1574 H   0  0  0  0  0  0  0  0  0  0  0  0
  138.8010   81.2192  219.5049 H   0  0  0  0  0  0  0  0  0  0  0  0
  139.4135   79.7080  218.7788 H   0  0  0  0  0  0  0  0  0  0  0  0
  138.9610   82.5187  221.8154 H   0  0  0  0  0  0  0  0  0  0  0  0
  137.3743   82.3323  223.7532 H   0  0  0  0  0  0  0  0  0  0  0  0
  136.9459   80.1051  224.8133 H   0  0  0  0  0  0  0  0  0  0  0  0
  138.0960   78.0508  223.9312 H   0  0  0  0  0  0  0  0  0  0  0  0
  142.3040   76.8960  221.1640 H   0  0  0  0  0  0  0  0  0  0  0  0
  144.4468   75.3664  220.4332 H   0  0  0  0  0  0  0  0  0  0  0  0
  1  2  2  0
  2  3  1  0
  2  4  1  0
  4  5  2  0
  5  6  1  0
  6  7  2  0
  7  8  1  0
  8  9  2  0
  9 10  1  0
 10 11  2  0
 10 12  1  0
 12 13  1  0
 14 13  1  6
 14 15  1  0
 15 16  1  0
 16 17  1  0
 17 18  1  0
 18 19  1  0
 19 20  1  0
 20 21  1  0
 21 22  1  0
 17 23  1  0
 14 24  1  0
 24 25  2  0
 25 26  1  0
 26 27  2  0
 27 28  1  0
 28 29  2  0
  9 30  1  0
 30 31  1  0
 31 32  2  0
 32  4  1  0
 31  7  1  0
 29 12  1  0
 23 14  1  0
 29 24  1  0
 22 18  1  0
  3 33  1  0
  5 34  1  0
  6 35  1  0
  8 36  1  0
 13 37  1  0
 13 38  1  0
 15 39  1  0
 15 40  1  0
 16 41  1  0
 16 42  1  0
 18 43  1  6
 19 44  1  0
 19 45  1  0
 20 46  1  0
 20 47  1  0
 21 48  1  0
 21 49  1  0
 22 50  1  0
 22 51  1  0
 23 52  1  0
 23 53  1  0
 25 54  1  0
 26 55  1  0
 27 56  1  0
 28 57  1  0
 30 58  1  0
 32 59  1  0
M  CHG  2   1  -1  21   1
M  END
>  <meeko>  (15) 
{"free_energy": -8.96, "intermolecular_energy": -10.45, "internal_energy": -0.84, "cluster_size": 13, "cluster_id": 1, "rank_in_cluster": 3}

$$$$

     RDKit          3D

 59 64  0  0  0  0  0  0  0  0999 V2000
  145.1650   71.6820  218.2670 N   0  0  0  0  0  0  0  0  0  0  0  0
  145.3890   72.9520  218.1630 C   0  0  0  0  0  0  0  0  0  0  0  0
  146.6810   73.3960  217.8880 O   0  0  0  0  0  0  0  0  0  0  0  0
  144.2890   73.9290  218.3340 C   0  0  0  0  0  0  0  0  0  0  0  0
  143.6740   74.5400  217.2060 C   0  0  0  0  0  0  0  0  0  0  0  0
  142.6300   75.4700  217.3700 C   0  0  0  0  0  0  0  0  0  0  0  0
  142.2190   75.7650  218.6650 C   0  0  0  0  0  0  0  0  0  0  0  0
  141.2460   76.6260  219.1200 C   0  0  0  0  0  0  0  0  0  0  0  0
  141.2860   76.5130  220.5090 C   0  0  0  0  0  0  0  0  0  0  0  0
  140.4500   77.2670  221.4610 C   0  0  0  0  0  0  0  0  0  0  0  0
  139.6640   76.6300  222.2150 O   0  0  0  0  0  0  0  0  0  0  0  0
  140.4860   78.7030  221.5190 N   0  0  0  0  0  0  0  0  0  0  0  0
  141.0100   79.5460  220.4400 C   0  0  0  0  0  0  0  0  0  0  0  0
  140.3010   80.9370  220.5890 C   0  0  1  0  0  0  0  0  0  0  0  0
  141.2800   82.1200  220.6000 C   0  0  0  0  0  0  0  0  0  0  0  0
  140.7680   83.0570  219.5170 C   0  0  0  0  0  0  0  0  0  0  0  0
  139.9720   82.2610  218.5670 N   0  0  0  0  0  0  0  0  0  0  0  0
  140.8190   81.6620  217.4980 C   0  0  2  0  0  0  0  0  0  0  0  0
  140.5410   80.1720  217.3220 C   0  0  0  0  0  0  0  0  0  0  0  0
  141.8820   79.5370  216.9770 C   0  0  0  0  0  0  0  0  0  0  0  0
  142.9300   80.5380  217.1920 N   0  0  0  0  0  0  0  0  0  0  0  0
  142.3060   81.6820  217.8530 C   0  0  0  0  0  0  0  0  0  0  0  0
  139.3410   81.2380  219.4200 C   0  0  0  0  0  0  0  0  0  0  0  0
  139.5560   80.7870  221.8850 C   0  0  0  0  0  0  0  0  0  0  0  0
  138.8040   81.7470  222.5730 C   0  0  0  0  0  0  0  0  0  0  0  0
  138.1790   81.3790  223.7740 C   0  0  0  0  0  0  0  0  0  0  0  0
  138.3110   80.0690  224.2690 C   0  0  0  0  0  0  0  0  0  0  0  0
  139.0670   79.1200  223.5610 C   0  0  0  0  0  0  0  0  0  0  0  0
  139.6690   79.5060  222.3580 C   0  0  0  0  0  0  0  0  0  0  0  0
  142.2490   75.6410  220.8930 N   0  0  0  0  0  0  0  0  0  0  0  0
  142.8030   75.1870  219.7580 C   0  0  0  0  0  0  0  0  0  0  0  0
  143.8420   74.2650  219.6340 C   0  0  0  0  0  0  0  0  0  0  0  0
  146.9000   74.3840  217.8510 H   0  0  0  0  0  0  0  0  0  0  0  0
  144.0184   74.2826  216.1935 H   0  0  0  0  0  0  0  0  0  0  0  0
  142.1544   75.9482  216.5010 H   0  0  0  0  0  0  0  0  0  0  0  0
  140.5817   77.2641  218.5187 H   0  0  0  0  0  0  0  0  0  0  0  0
  142.0994   79.6605  220.5402 H   0  0  0  0  0  0  0  0  0  0  0  0
  140.8163   79.1007  219.4530 H   0  0  0  0  0  0  0  0  0  0  0  0
  141.2732   82.6197  221.5799 H   0  0  0  0  0  0  0  0  0  0  0  0
  142.3174   81.8026  220.4185 H   0  0  0  0  0  0  0  0  0  0  0  0
  140.1396   83.8398  219.9668 H   0  0  0  0  0  0  0  0  0  0  0  0
  141.6100   83.5403  218.9998 H   0  0  0  0  0  0  0  0  0  0  0  0
  140.5821   82.2615  216.6067 H   0  0  0  0  0  0  0  0  0  0  0  0
  140.1431   79.7440  218.2539 H   0  0  0  0  0  0  0  0  0  0  0  0
  139.7930   79.9900  216.5363 H   0  0  0  0  0  0  0  0  0  0  0  0
  142.0598   78.6663  217.6253 H   0  0  0  0  0  0  0  0  0  0  0  0
  141.8857   79.2012  215.9295 H   0  0  0  0  0  0  0  0  0  0  0  0
  143.6990   80.1480  217.7870 H   0  0  0  0  0  0  0  0  0  0  0  0
  143.3250   80.8380  216.2700 H   0  0  0  0  0  0  0  0  0  0  0  0
  142.4332   81.6017  218.9427 H   0  0  0  0  0  0  0  0  0  0  0  0
  142.7711   82.6222  217.5219 H   0  0  0  0  0  0  0  0  0  0  0  0
  138.3840   81.6151  219.8099 H   0  0  0  0  0  0  0  0  0  0  0  0
  139.1449   80.3239  218.8404 H   0  0  0  0  0  0  0  0  0  0  0  0
  138.7052   82.7695  222.1797 H   0  0  0  0  0  0  0  0  0  0  0  0
  137.5835   82.1177  224.3306 H   0  0  0  0  0  0  0  0  0  0  0  0
  137.8211   79.7870  225.2127 H   0  0  0  0  0  0  0  0  0  0  0  0
  139.1833   78.0954  223.9440 H   0  0  0  0  0  0  0  0  0  0  0  0
  142.5070   75.3720  221.8690 H   0  0  0  0  0  0  0  0  0  0  0  0
  144.3022   73.8106  220.5238 H   0  0  0  0  0  0  0  0  0  0  0  0
  1  2  2  0
  2  3  1  0
  2  4  1  0
  4  5  2  0
  5  6  1  0
  6  7  2  0
  7  8  1  0
  8  9  2  0
  9 10  1  0
 10 11  2  0
 10 12  1  0
 12 13  1  0
 14 13  1  6
 14 15  1  0
 15 16  1  0
 16 17  1  0
 17 18  1  0
 18 19  1  0
 19 20  1  0
 20 21  1  0
 21 22  1  0
 17 23  1  0
 14 24  1  0
 24 25  2  0
 25 26  1  0
 26 27  2  0
 27 28  1  0
 28 29  2  0
  9 30  1  0
 30 31  1  0
 31 32  2  0
 32  4  1  0
 31  7  1  0
 29 12  1  0
 23 14  1  0
 29 24  1  0
 22 18  1  0
  3 33  1  0
  5 34  1  0
  6 35  1  0
  8 36  1  0
 13 37  1  0
 13 38  1  0
 15 39  1  0
 15 40  1  0
 16 41  1  0
 16 42  1  0
 18 43  1  6
 19 44  1  0
 19 45  1  0
 20 46  1  0
 20 47  1  0
 21 48  1  0
 21 49  1  0
 22 50  1  0
 22 51  1  0
 23 52  1  0
 23 53  1  0
 25 54  1  0
 26 55  1  0
 27 56  1  0
 28 57  1  0
 30 58  1  0
 32 59  1  0
M  CHG  2   1  -1  21   1
M  END
>  <meeko>  (16) 
{"free_energy": -8.2, "intermolecular_energy": -9.7, "internal_energy": -0.9, "cluster_size": 13, "cluster_id": 1, "rank_in_cluster": 12}

$$$$

     RDKit          3D

 59 64  0  0  0  0  0  0  0  0999 V2000
  146.3100   73.0250  218.2320 N   0  0  0  0  0  0  0  0  0  0  0  0
  145.8320   72.6160  219.3630 C   0  0  0  0  0  0  0  0  0  0  0  0
  146.5430   71.6730  220.1020 O   0  0  0  0  0  0  0  0  0  0  0  0
  144.5430   73.1400  219.8710 C   0  0  0  0  0  0  0  0  0  0  0  0
  143.5900   72.2730  220.4750 C   0  0  0  0  0  0  0  0  0  0  0  0
  142.3650   72.7710  220.9560 C   0  0  0  0  0  0  0  0  0  0  0  0
  142.1220   74.1340  220.8270 C   0  0  0  0  0  0  0  0  0  0  0  0
  141.0270   74.8850  221.1920 C   0  0  0  0  0  0  0  0  0  0  0  0
  141.3420   76.1890  220.8110 C   0  0  0  0  0  0  0  0  0  0  0  0
  140.4690   77.3670  220.9610 C   0  0  0  0  0  0  0  0  0  0  0  0
  139.2330   77.1880  221.1380 O   0  0  0  0  0  0  0  0  0  0  0  0
  140.9910   78.7040  220.8730 N   0  0  0  0  0  0  0  0  0  0  0  0
  140.7330   79.6040  219.7450 C   0  0  0  0  0  0  0  0  0  0  0  0
  140.8900   81.0620  220.3040 C   0  0  1  0  0  0  0  0  0  0  0  0
  141.8280   81.9380  219.4610 C   0  0  0  0  0  0  0  0  0  0  0  0
  141.0120   83.1810  219.1410 C   0  0  0  0  0  0  0  0  0  0  0  0
  139.5860   82.8270  219.2410 N   0  0  0  0  0  0  0  0  0  0  0  0
  139.0580   82.2820  217.9590 C   0  0  2  0  0  0  0  0  0  0  0  0
  138.3480   80.9460  218.1590 C   0  0  0  0  0  0  0  0  0  0  0  0
  138.6510   80.1240  216.9140 C   0  0  0  0  0  0  0  0  0  0  0  0
  139.6850   80.8220  216.1460 N   0  0  0  0  0  0  0  0  0  0  0  0
  140.1720   81.9220  216.9770 C   0  0  0  0  0  0  0  0  0  0  0  0
  139.5540   81.8320  220.3270 C   0  0  0  0  0  0  0  0  0  0  0  0
  141.4090   80.8240  221.6940 C   0  0  0  0  0  0  0  0  0  0  0  0
  141.8160   81.7680  222.6440 C   0  0  0  0  0  0  0  0  0  0  0  0
  142.2620   81.3160  223.8950 C   0  0  0  0  0  0  0  0  0  0  0  0
  142.2960   79.9390  224.1790 C   0  0  0  0  0  0  0  0  0  0  0  0
  141.8800   79.0080  223.2130 C   0  0  0  0  0  0  0  0  0  0  0  0
  141.4260   79.4830  221.9780 C   0  0  0  0  0  0  0  0  0  0  0  0
  142.5610   76.2370  220.2220 N   0  0  0  0  0  0  0  0  0  0  0  0
  143.0270   74.9780  220.2470 C   0  0  0  0  0  0  0  0  0  0  0  0
  144.2490   74.5190  219.7550 C   0  0  0  0  0  0  0  0  0  0  0  0
  146.3800   71.5520  221.0950 H   0  0  0  0  0  0  0  0  0  0  0  0
  143.8137   71.1999  220.5671 H   0  0  0  0  0  0  0  0  0  0  0  0
  141.6234   72.1035  221.4192 H   0  0  0  0  0  0  0  0  0  0  0  0
  140.1050   74.5331  221.6780 H   0  0  0  0  0  0  0  0  0  0  0  0
  141.4601   79.4240  218.9394 H   0  0  0  0  0  0  0  0  0  0  0  0
  139.7298   79.4418  219.3239 H   0  0  0  0  0  0  0  0  0  0  0  0
  142.7297   82.2026  220.0327 H   0  0  0  0  0  0  0  0  0  0  0  0
  142.1745   81.4226  218.5531 H   0  0  0  0  0  0  0  0  0  0  0  0
  141.2499   83.9790  219.8597 H   0  0  0  0  0  0  0  0  0  0  0  0
  141.2462   83.5419  218.1286 H   0  0  0  0  0  0  0  0  0  0  0  0
  138.3973   83.0784  217.5860 H   0  0  0  0  0  0  0  0  0  0  0  0
  138.7326   80.4385  219.0559 H   0  0  0  0  0  0  0  0  0  0  0  0
  137.2656   81.0804  218.3015 H   0  0  0  0  0  0  0  0  0  0  0  0
  139.0126   79.1267  217.2050 H   0  0  0  0  0  0  0  0  0  0  0  0
  137.7417   80.0045  216.3066 H   0  0  0  0  0  0  0  0  0  0  0  0
  140.4700   80.1720  215.9040 H   0  0  0  0  0  0  0  0  0  0  0  0
  139.2710   81.2060  215.2640 H   0  0  0  0  0  0  0  0  0  0  0  0
  141.0711   81.6077  217.5274 H   0  0  0  0  0  0  0  0  0  0  0  0
  140.4368   82.7901  216.3554 H   0  0  0  0  0  0  0  0  0  0  0  0
  139.4317   82.3394  221.2953 H   0  0  0  0  0  0  0  0  0  0  0  0
  138.7104   81.1399  220.1878 H   0  0  0  0  0  0  0  0  0  0  0  0
  141.7867   82.8433  222.4142 H   0  0  0  0  0  0  0  0  0  0  0  0
  142.5861   82.0409  224.6562 H   0  0  0  0  0  0  0  0  0  0  0  0
  142.6494   79.5901  225.1605 H   0  0  0  0  0  0  0  0  0  0  0  0
  141.9106   77.9287  223.4231 H   0  0  0  0  0  0  0  0  0  0  0  0
  143.0430   77.0770  219.8320 H   0  0  0  0  0  0  0  0  0  0  0  0
  144.9655   75.2114  219.2889 H   0  0  0  0  0  0  0  0  0  0  0  0
  1  2  2  0
  2  3  1  0
  2  4  1  0
  4  5  2  0
  5  6  1  0
  6  7  2  0
  7  8  1  0
  8  9  2  0
  9 10  1  0
 10 11  2  0
 10 12  1  0
 12 13  1  0
 14 13  1  6
 14 15  1  0
 15 16  1  0
 16 17  1  0
 17 18  1  0
 18 19  1  0
 19 20  1  0
 20 21  1  0
 21 22  1  0
 17 23  1  0
 14 24  1  0
 24 25  2  0
 25 26  1  0
 26 27  2  0
 27 28  1  0
 28 29  2  0
  9 30  1  0
 30 31  1  0
 31 32  2  0
 32  4  1  0
 31  7  1  0
 29 12  1  0
 23 14  1  0
 29 24  1  0
 22 18  1  0
  3 33  1  0
  5 34  1  0
  6 35  1  0
  8 36  1  0
 13 37  1  0
 13 38  1  0
 15 39  1  0
 15 40  1  0
 16 41  1  0
 16 42  1  0
 18 43  1  6
 19 44  1  0
 19 45  1  0
 20 46  1  0
 20 47  1  0
 21 48  1  0
 21 49  1  0
 22 50  1  0
 22 51  1  0
 23 52  1  0
 23 53  1  0
 25 54  1  0
 26 55  1  0
 27 56  1  0
 28 57  1  0
 30 58  1  0
 32 59  1  0
M  CHG  2   1  -1  21   1
M  END
>  <meeko>  (17) 
{"free_energy": -8.17, "intermolecular_energy": -9.66, "internal_energy": -0.8, "cluster_size": 13, "cluster_id": 1, "rank_in_cluster": 13}

$$$$

     RDKit          3D

 59 64  0  0  0  0  0  0  0  0999 V2000
  145.7420   72.1170  218.1680 N   0  0  0  0  0  0  0  0  0  0  0  0
  145.5920   72.9290  219.1640 C   0  0  0  0  0  0  0  0  0  0  0  0
  146.7120   73.5540  219.7080 O   0  0  0  0  0  0  0  0  0  0  0  0
  144.2470   73.1970  219.7240 C   0  0  0  0  0  0  0  0  0  0  0  0
  143.3000   72.1470  219.8790 C   0  0  0  0  0  0  0  0  0  0  0  0
  142.0220   72.4010  220.4100 C   0  0  0  0  0  0  0  0  0  0  0  0
  141.7200   73.7080  220.7810 C   0  0  0  0  0  0  0  0  0  0  0  0
  140.5670   74.2430  221.3090 C   0  0  0  0  0  0  0  0  0  0  0  0
  140.8420   75.6000  221.4700 C   0  0  0  0  0  0  0  0  0  0  0  0
  139.9020   76.6170  221.9780 C   0  0  0  0  0  0  0  0  0  0  0  0
  138.8440   76.2350  222.5470 O   0  0  0  0  0  0  0  0  0  0  0  0
  140.1520   78.0220  221.8050 N   0  0  0  0  0  0  0  0  0  0  0  0
  140.9500   78.5760  220.7070 C   0  0  0  0  0  0  0  0  0  0  0  0
  140.4510   80.0500  220.5040 C   0  0  1  0  0  0  0  0  0  0  0  0
  141.5890   81.0800  220.4860 C   0  0  0  0  0  0  0  0  0  0  0  0
  141.3900   81.8560  219.1930 C   0  0  0  0  0  0  0  0  0  0  0  0
  140.6240   81.0050  218.2660 N   0  0  0  0  0  0  0  0  0  0  0  0
  141.5120   80.1140  217.4680 C   0  0  2  0  0  0  0  0  0  0  0  0
  140.9390   78.7060  217.3410 C   0  0  0  0  0  0  0  0  0  0  0  0
  142.1360   77.7660  217.3610 C   0  0  0  0  0  0  0  0  0  0  0  0
  143.3200   78.5420  217.7400 N   0  0  0  0  0  0  0  0  0  0  0  0
  142.8550   79.8640  218.1540 C   0  0  0  0  0  0  0  0  0  0  0  0
  139.7260   80.2470  219.1560 C   0  0  0  0  0  0  0  0  0  0  0  0
  139.5130   80.2390  221.6620 C   0  0  0  0  0  0  0  0  0  0  0  0
  138.8290   81.3980  222.0470 C   0  0  0  0  0  0  0  0  0  0  0  0
  137.9880   81.3430  223.1700 C   0  0  0  0  0  0  0  0  0  0  0  0
  137.8440   80.1420  223.8880 C   0  0  0  0  0  0  0  0  0  0  0  0
  138.5370   78.9890  223.4830 C   0  0  0  0  0  0  0  0  0  0  0  0
  139.3580   79.0650  222.3510 C   0  0  0  0  0  0  0  0  0  0  0  0
  142.0940   75.8920  221.0430 N   0  0  0  0  0  0  0  0  0  0  0  0
  142.6200   74.7260  220.6340 C   0  0  0  0  0  0  0  0  0  0  0  0
  143.8930   74.5120  220.1080 C   0  0  0  0  0  0  0  0  0  0  0  0
  147.0100   74.4690  219.3910 H   0  0  0  0  0  0  0  0  0  0  0  0
  143.5702   71.1235  219.5799 H   0  0  0  0  0  0  0  0  0  0  0  0
  141.2853   71.5927  220.5281 H   0  0  0  0  0  0  0  0  0  0  0  0
  139.6328   73.7151  221.5510 H   0  0  0  0  0  0  0  0  0  0  0  0
  142.0181   78.5677  220.9699 H   0  0  0  0  0  0  0  0  0  0  0  0
  140.8336   77.9831  219.7878 H   0  0  0  0  0  0  0  0  0  0  0  0
  141.5186   81.7505  221.3551 H   0  0  0  0  0  0  0  0  0  0  0  0
  142.5799   80.6051  220.5370 H   0  0  0  0  0  0  0  0  0  0  0  0
  140.8334   82.7829  219.3956 H   0  0  0  0  0  0  0  0  0  0  0  0
  142.3624   82.1223  218.7531 H   0  0  0  0  0  0  0  0  0  0  0  0
  141.6116   80.6360  216.5049 H   0  0  0  0  0  0  0  0  0  0  0  0
  140.2674   78.4885  218.1846 H   0  0  0  0  0  0  0  0  0  0  0  0
  140.3501   78.5909  216.4191 H   0  0  0  0  0  0  0  0  0  0  0  0
  141.9668   76.9629  218.0933 H   0  0  0  0  0  0  0  0  0  0  0  0
  142.2800   77.3123  216.3693 H   0  0  0  0  0  0  0  0  0  0  0  0
  143.8350   78.0750  218.5230 H   0  0  0  0  0  0  0  0  0  0  0  0
  143.9580   78.6380  216.9150 H   0  0  0  0  0  0  0  0  0  0  0  0
  142.7299   79.8931  219.2465 H   0  0  0  0  0  0  0  0  0  0  0  0
  143.5844   80.6374  217.8715 H   0  0  0  0  0  0  0  0  0  0  0  0
  138.7929   80.8083  219.3119 H   0  0  0  0  0  0  0  0  0  0  0  0
  139.4756   79.2735  218.7094 H   0  0  0  0  0  0  0  0  0  0  0  0
  138.9480   82.3336  221.4808 H   0  0  0  0  0  0  0  0  0  0  0  0
  137.4401   82.2418  223.4893 H   0  0  0  0  0  0  0  0  0  0  0  0
  137.1867   80.1055  224.7693 H   0  0  0  0  0  0  0  0  0  0  0  0
  138.4370   78.0473  224.0427 H   0  0  0  0  0  0  0  0  0  0  0  0
  142.5590   76.8270  221.0370 H   0  0  0  0  0  0  0  0  0  0  0  0
  144.6038   75.3438  219.9944 H   0  0  0  0  0  0  0  0  0  0  0  0
  1  2  2  0
  2  3  1  0
  2  4  1  0
  4  5  2  0
  5  6  1  0
  6  7  2  0
  7  8  1  0
  8  9  2  0
  9 10  1  0
 10 11  2  0
 10 12  1  0
 12 13  1  0
 14 13  1  6
 14 15  1  0
 15 16  1  0
 16 17  1  0
 17 18  1  0
 18 19  1  0
 19 20  1  0
 20 21  1  0
 21 22  1  0
 17 23  1  0
 14 24  1  0
 24 25  2  0
 25 26  1  0
 26 27  2  0
 27 28  1  0
 28 29  2  0
  9 30  1  0
 30 31  1  0
 31 32  2  0
 32  4  1  0
 31  7  1  0
 29 12  1  0
 23 14  1  0
 29 24  1  0
 22 18  1  0
  3 33  1  0
  5 34  1  0
  6 35  1  0
  8 36  1  0
 13 37  1  0
 13 38  1  0
 15 39  1  0
 15 40  1  0
 16 41  1  0
 16 42  1  0
 18 43  1  6
 19 44  1  0
 19 45  1  0
 20 46  1  0
 20 47  1  0
 21 48  1  0
 21 49  1  0
 22 50  1  0
 22 51  1  0
 23 52  1  0
 23 53  1  0
 25 54  1  0
 26 55  1  0
 27 56  1  0
 28 57  1  0
 30 58  1  0
 32 59  1  0
M  CHG  2   1  -1  21   1
M  END
>  <meeko>  (18) 
{"free_energy": -8.94, "intermolecular_energy": -10.43, "internal_energy": -0.84, "cluster_size": 13, "cluster_id": 1, "rank_in_cluster": 5}

$$$$

     RDKit          3D

 59 64  0  0  0  0  0  0  0  0999 V2000
  146.2840   71.7010  219.3350 N   0  0  0  0  0  0  0  0  0  0  0  0
  145.7940   72.6910  220.0080 C   0  0  0  0  0  0  0  0  0  0  0  0
  146.0040   72.7500  221.3840 O   0  0  0  0  0  0  0  0  0  0  0  0
  145.0170   73.7540  219.3290 C   0  0  0  0  0  0  0  0  0  0  0  0
  144.8420   73.7420  217.9170 C   0  0  0  0  0  0  0  0  0  0  0  0
  144.1050   74.7530  217.2730 C   0  0  0  0  0  0  0  0  0  0  0  0
  143.5510   75.7560  218.0620 C   0  0  0  0  0  0  0  0  0  0  0  0
  142.8030   76.8580  217.7110 C   0  0  0  0  0  0  0  0  0  0  0  0
  142.5340   77.5080  218.9150 C   0  0  0  0  0  0  0  0  0  0  0  0
  141.7840   78.7680  219.0670 C   0  0  0  0  0  0  0  0  0  0  0  0
  141.9240   79.6670  218.1930 O   0  0  0  0  0  0  0  0  0  0  0  0
  140.9340   79.0030  220.2020 N   0  0  0  0  0  0  0  0  0  0  0  0
  139.5990   78.4150  220.3530 C   0  0  0  0  0  0  0  0  0  0  0  0
  139.3150   78.3650  221.8950 C   0  0  1  0  0  0  0  0  0  0  0  0
  137.9640   78.9840  222.2840 C   0  0  0  0  0  0  0  0  0  0  0  0
  137.2640   77.9050  223.0960 C   0  0  0  0  0  0  0  0  0  0  0  0
  137.8420   76.6040  222.7170 N   0  0  0  0  0  0  0  0  0  0  0  0
  137.1520   76.0120  221.5380 C   0  0  2  0  0  0  0  0  0  0  0  0
  135.6660   75.7840  221.8050 C   0  0  0  0  0  0  0  0  0  0  0  0
  135.3020   74.5060  221.0610 C   0  0  0  0  0  0  0  0  0  0  0  0
  136.5420   73.8760  220.6010 N   0  0  0  0  0  0  0  0  0  0  0  0
  137.6510   74.6040  221.2150 C   0  0  0  0  0  0  0  0  0  0  0  0
  139.2530   76.9230  222.4370 C   0  0  0  0  0  0  0  0  0  0  0  0
  140.4840   79.1160  222.4670 C   0  0  0  0  0  0  0  0  0  0  0  0
  140.7260   79.4650  223.8010 C   0  0  0  0  0  0  0  0  0  0  0  0
  141.9010   80.1660  224.1120 C   0  0  0  0  0  0  0  0  0  0  0  0
  142.8110   80.5070  223.0950 C   0  0  0  0  0  0  0  0  0  0  0  0
  142.5520   80.1450  221.7630 C   0  0  0  0  0  0  0  0  0  0  0  0
  141.3800   79.4330  221.4800 C   0  0  0  0  0  0  0  0  0  0  0  0
  143.1050   76.8510  219.9540 N   0  0  0  0  0  0  0  0  0  0  0  0
  143.7140   75.7810  219.4190 C   0  0  0  0  0  0  0  0  0  0  0  0
  144.4410   74.7990  220.0900 C   0  0  0  0  0  0  0  0  0  0  0  0
  145.9180   71.9230  221.9640 H   0  0  0  0  0  0  0  0  0  0  0  0
  145.2885   72.9322  217.3213 H   0  0  0  0  0  0  0  0  0  0  0  0
  143.9712   74.7504  216.1812 H   0  0  0  0  0  0  0  0  0  0  0  0
  142.4869   77.1595  216.7015 H   0  0  0  0  0  0  0  0  0  0  0  0
  138.8479   79.0392  219.8469 H   0  0  0  0  0  0  0  0  0  0  0  0
  139.5493   77.4123  219.9034 H   0  0  0  0  0  0  0  0  0  0  0  0
  138.1126   79.8901  222.8897 H   0  0  0  0  0  0  0  0  0  0  0  0
  137.3777   79.2892  221.4048 H   0  0  0  0  0  0  0  0  0  0  0  0
  137.4210   78.0848  224.1698 H   0  0  0  0  0  0  0  0  0  0  0  0
  136.1826   77.9162  222.8949 H   0  0  0  0  0  0  0  0  0  0  0  0
  137.3480   76.7320  220.7298 H   0  0  0  0  0  0  0  0  0  0  0  0
  135.4845   75.6644  222.8833 H   0  0  0  0  0  0  0  0  0  0  0  0
  135.0585   76.6363  221.4668 H   0  0  0  0  0  0  0  0  0  0  0  0
  134.7648   73.8226  221.7352 H   0  0  0  0  0  0  0  0  0  0  0  0
  134.6521   74.7368  220.2040 H   0  0  0  0  0  0  0  0  0  0  0  0
  136.5700   72.8670  220.8790 H   0  0  0  0  0  0  0  0  0  0  0  0
  136.6100   73.9480  219.5590 H   0  0  0  0  0  0  0  0  0  0  0  0
  137.9682   74.0968  222.1381 H   0  0  0  0  0  0  0  0  0  0  0  0
  138.5130   74.6450  220.5329 H   0  0  0  0  0  0  0  0  0  0  0  0
  139.8441   76.8456  223.3614 H   0  0  0  0  0  0  0  0  0  0  0  0
  139.6658   76.2187  221.6997 H   0  0  0  0  0  0  0  0  0  0  0  0
  140.0088   79.1949  224.5901 H   0  0  0  0  0  0  0  0  0  0  0  0
  142.1111   80.4496  225.1538 H   0  0  0  0  0  0  0  0  0  0  0  0
  143.7291   81.0594  223.3440 H   0  0  0  0  0  0  0  0  0  0  0  0
  143.2540   80.4147  220.9602 H   0  0  0  0  0  0  0  0  0  0  0  0
  143.0750   77.1170  220.9640 H   0  0  0  0  0  0  0  0  0  0  0  0
  144.5638   74.8354  221.1825 H   0  0  0  0  0  0  0  0  0  0  0  0
  1  2  2  0
  2  3  1  0
  2  4  1  0
  4  5  2  0
  5  6  1  0
  6  7  2  0
  7  8  1  0
  8  9  2  0
  9 10  1  0
 10 11  2  0
 10 12  1  0
 12 13  1  0
 14 13  1  6
 14 15  1  0
 15 16  1  0
 16 17  1  0
 17 18  1  0
 18 19  1  0
 19 20  1  0
 20 21  1  0
 21 22  1  0
 17 23  1  0
 14 24  1  0
 24 25  2  0
 25 26  1  0
 26 27  2  0
 27 28  1  0
 28 29  2  0
  9 30  1  0
 30 31  1  0
 31 32  2  0
 32  4  1  0
 31  7  1  0
 29 12  1  0
 23 14  1  0
 29 24  1  0
 22 18  1  0
  3 33  1  0
  5 34  1  0
  6 35  1  0
  8 36  1  0
 13 37  1  0
 13 38  1  0
 15 39  1  0
 15 40  1  0
 16 41  1  0
 16 42  1  0
 18 43  1  6
 19 44  1  0
 19 45  1  0
 20 46  1  0
 20 47  1  0
 21 48  1  0
 21 49  1  0
 22 50  1  0
 22 51  1  0
 23 52  1  0
 23 53  1  0
 25 54  1  0
 26 55  1  0
 27 56  1  0
 28 57  1  0
 30 58  1  0
 32 59  1  0
M  CHG  2   1  -1  21   1
M  END
>  <meeko>  (19) 
{"free_energy": -7.93, "intermolecular_energy": -9.42, "internal_energy": -1.0, "cluster_size": 1, "cluster_id": 4, "rank_in_cluster": 1}

$$$$

     RDKit          3D

 59 64  0  0  0  0  0  0  0  0999 V2000
  145.9410   72.0580  218.6970 N   0  0  0  0  0  0  0  0  0  0  0  0
  145.7080   73.0140  219.5360 C   0  0  0  0  0  0  0  0  0  0  0  0
  146.7730   73.7700  220.0200 O   0  0  0  0  0  0  0  0  0  0  0  0
  144.3260   73.3080  219.9810 C   0  0  0  0  0  0  0  0  0  0  0  0
  143.3910   72.2580  220.2000 C   0  0  0  0  0  0  0  0  0  0  0  0
  142.0780   72.5370  220.6210 C   0  0  0  0  0  0  0  0  0  0  0  0
  141.7290   73.8690  220.8210 C   0  0  0  0  0  0  0  0  0  0  0  0
  140.5350   74.4300  221.2160 C   0  0  0  0  0  0  0  0  0  0  0  0
  140.7730   75.8040  221.2350 C   0  0  0  0  0  0  0  0  0  0  0  0
  139.7840   76.8460  221.5660 C   0  0  0  0  0  0  0  0  0  0  0  0
  138.5960   76.5010  221.8120 O   0  0  0  0  0  0  0  0  0  0  0  0
  140.1390   78.2400  221.5780 N   0  0  0  0  0  0  0  0  0  0  0  0
  140.8080   78.9170  220.4640 C   0  0  0  0  0  0  0  0  0  0  0  0
  140.4290   80.4340  220.5820 C   0  0  1  0  0  0  0  0  0  0  0  0
  141.6450   81.3700  220.5380 C   0  0  0  0  0  0  0  0  0  0  0  0
  141.3250   82.3690  219.4350 C   0  0  0  0  0  0  0  0  0  0  0  0
  140.3480   81.7440  218.5270 N   0  0  0  0  0  0  0  0  0  0  0  0
  141.0130   80.9440  217.4610 C   0  0  2  0  0  0  0  0  0  0  0  0
  140.5350   79.4950  217.4560 C   0  0  0  0  0  0  0  0  0  0  0  0
  141.7480   78.6580  217.0740 C   0  0  0  0  0  0  0  0  0  0  0  0
  142.9290   79.5240  217.1060 N   0  0  0  0  0  0  0  0  0  0  0  0
  142.5160   80.7960  217.6960 C   0  0  0  0  0  0  0  0  0  0  0  0
  139.5290   80.9100  219.4230 C   0  0  0  0  0  0  0  0  0  0  0  0
  139.7020   80.4870  221.8970 C   0  0  0  0  0  0  0  0  0  0  0  0
  139.2000   81.6070  222.5690 C   0  0  0  0  0  0  0  0  0  0  0  0
  138.5400   81.4190  223.7930 C   0  0  0  0  0  0  0  0  0  0  0  0
  138.3930   80.1260  224.3260 C   0  0  0  0  0  0  0  0  0  0  0  0
  138.9010   79.0140  223.6340 C   0  0  0  0  0  0  0  0  0  0  0  0
  139.5420   79.2260  222.4080 C   0  0  0  0  0  0  0  0  0  0  0  0
  142.0430   76.0770  220.8520 N   0  0  0  0  0  0  0  0  0  0  0  0
  142.6160   74.8870  220.6120 C   0  0  0  0  0  0  0  0  0  0  0  0
  143.9230   74.6480  220.1900 C   0  0  0  0  0  0  0  0  0  0  0  0
  146.8760   74.7490  219.7780 H   0  0  0  0  0  0  0  0  0  0  0  0
  143.6989   71.2145  220.0380 H   0  0  0  0  0  0  0  0  0  0  0  0
  141.3509   71.7284  220.7867 H   0  0  0  0  0  0  0  0  0  0  0  0
  139.5984   73.9085  221.4626 H   0  0  0  0  0  0  0  0  0  0  0  0
  141.8980   78.7894  220.5396 H   0  0  0  0  0  0  0  0  0  0  0  0
  140.4946   78.5000  219.4955 H   0  0  0  0  0  0  0  0  0  0  0  0
  141.7735   81.8844  221.5018 H   0  0  0  0  0  0  0  0  0  0  0  0
  142.5819   80.8260  220.3473 H   0  0  0  0  0  0  0  0  0  0  0  0
  140.8974   83.2836  219.8717 H   0  0  0  0  0  0  0  0  0  0  0  0
  142.2392   82.6396  218.8863 H   0  0  0  0  0  0  0  0  0  0  0  0
  140.7740   81.4883  216.5355 H   0  0  0  0  0  0  0  0  0  0  0  0
  140.1710   79.2085  218.4537 H   0  0  0  0  0  0  0  0  0  0  0  0
  139.7031   79.3461  216.7519 H   0  0  0  0  0  0  0  0  0  0  0  0
  141.8717   77.8327  217.7906 H   0  0  0  0  0  0  0  0  0  0  0  0
  141.6153   78.2328  216.0682 H   0  0  0  0  0  0  0  0  0  0  0  0
  143.6920   79.0890  217.6760 H   0  0  0  0  0  0  0  0  0  0  0  0
  143.2750   79.6860  216.1320 H   0  0  0  0  0  0  0  0  0  0  0  0
  142.7294   80.7965  218.7751 H   0  0  0  0  0  0  0  0  0  0  0  0
  143.0643   81.6322  217.2377 H   0  0  0  0  0  0  0  0  0  0  0  0
  138.6898   81.5003  219.8196 H   0  0  0  0  0  0  0  0  0  0  0  0
  139.1201   80.0475  218.8763 H   0  0  0  0  0  0  0  0  0  0  0  0
  139.3204   82.6153  222.1460 H   0  0  0  0  0  0  0  0  0  0  0  0
  138.1364   82.2856  224.3372 H   0  0  0  0  0  0  0  0  0  0  0  0
  137.8785   79.9848  225.2880 H   0  0  0  0  0  0  0  0  0  0  0  0
  138.7973   77.9995  224.0464 H   0  0  0  0  0  0  0  0  0  0  0  0
  142.4900   77.0180  220.7660 H   0  0  0  0  0  0  0  0  0  0  0  0
  144.6231   75.4800  220.0238 H   0  0  0  0  0  0  0  0  0  0  0  0
  1  2  2  0
  2  3  1  0
  2  4  1  0
  4  5  2  0
  5  6  1  0
  6  7  2  0
  7  8  1  0
  8  9  2  0
  9 10  1  0
 10 11  2  0
 10 12  1  0
 12 13  1  0
 14 13  1  6
 14 15  1  0
 15 16  1  0
 16 17  1  0
 17 18  1  0
 18 19  1  0
 19 20  1  0
 20 21  1  0
 21 22  1  0
 17 23  1  0
 14 24  1  0
 24 25  2  0
 25 26  1  0
 26 27  2  0
 27 28  1  0
 28 29  2  0
  9 30  1  0
 30 31  1  0
 31 32  2  0
 32  4  1  0
 31  7  1  0
 29 12  1  0
 23 14  1  0
 29 24  1  0
 22 18  1  0
  3 33  1  0
  5 34  1  0
  6 35  1  0
  8 36  1  0
 13 37  1  0
 13 38  1  0
 15 39  1  0
 15 40  1  0
 16 41  1  0
 16 42  1  0
 18 43  1  6
 19 44  1  0
 19 45  1  0
 20 46  1  0
 20 47  1  0
 21 48  1  0
 21 49  1  0
 22 50  1  0
 22 51  1  0
 23 52  1  0
 23 53  1  0
 25 54  1  0
 26 55  1  0
 27 56  1  0
 28 57  1  0
 30 58  1  0
 32 59  1  0
M  CHG  2   1  -1  21   1
M  END
>  <meeko>  (20) 
{"free_energy": -8.99, "intermolecular_energy": -10.49, "internal_energy": -0.77, "cluster_size": 13, "cluster_id": 1, "rank_in_cluster": 1}

$$$$
