
     RDKit          3D

 68 73  0  0  0  0  0  0  0  0999 V2000
  144.5510   74.8740  220.4550 C   0  0  0  0  0  0  0  0  0  0  0  0
  145.5930   73.8710  220.9320 C   0  0  0  0  0  0  0  0  0  0  0  0
  146.2800   73.2770  219.7740 N   0  0  0  0  0  0  0  0  0  0  0  0
  145.4990   72.1980  219.1430 C   0  0  1  0  0  0  0  0  0  0  0  0
  144.4030   71.6830  220.1200 C   0  0  0  0  0  0  0  0  0  0  0  0
  143.0690   72.1190  219.6820 N   0  0  0  0  0  0  0  0  0  0  0  0
  142.0950   72.6130  220.6240 C   0  0  0  0  0  0  0  0  0  0  0  0
  141.6790   71.8320  221.6540 N   0  0  0  0  0  0  0  0  0  0  0  0
  140.7290   72.2730  222.5200 C   0  0  0  0  0  0  0  0  0  0  0  0
  140.2830   71.4340  223.6050 N   0  0  0  0  0  0  0  0  0  0  0  0
  139.5960   70.1660  223.2970 C   0  0  0  0  0  0  0  0  0  0  0  0
  138.7170   69.6980  224.4560 C   0  0  0  0  0  0  0  0  0  0  0  0
  139.5100   69.6740  225.7260 C   0  0  0  0  0  0  0  0  0  0  0  0
  139.3120   68.6630  226.6790 C   0  0  0  0  0  0  0  0  0  0  0  0
  140.0330   68.6770  227.8760 C   0  0  0  0  0  0  0  0  0  0  0  0
  140.9410   69.7070  228.1350 C   0  0  0  0  0  0  0  0  0  0  0  0
  141.1300   70.7270  227.1960 C   0  0  0  0  0  0  0  0  0  0  0  0
  140.4250   70.7110  225.9820 C   0  0  0  0  0  0  0  0  0  0  0  0
  140.5970   71.8360  224.9910 C   0  0  0  0  0  0  0  0  0  0  0  0
  140.1860   73.5060  222.3370 N   0  0  0  0  0  0  0  0  0  0  0  0
  140.5880   74.2980  221.3090 C   0  0  0  0  0  0  0  0  0  0  0  0
  139.9800   75.5910  221.1010 N   0  0  0  0  0  0  0  0  0  0  0  0
  140.0860   76.2700  219.8070 C   0  0  0  0  0  0  0  0  0  0  0  0
  141.2820   77.2240  219.8480 C   0  0  0  0  0  0  0  0  0  0  0  0
  141.3340   78.0220  221.1370 C   0  0  0  0  0  0  0  0  0  0  0  0
  142.1940   79.1280  221.2160 C   0  0  0  0  0  0  0  0  0  0  0  0
  142.3110   79.8520  222.4060 C   0  0  0  0  0  0  0  0  0  0  0  0
  141.5720   79.4750  223.5300 C   0  0  0  0  0  0  0  0  0  0  0  0
  140.7180   78.3720  223.4700 C   0  0  0  0  0  0  0  0  0  0  0  0
  140.6060   77.6250  222.2870 C   0  0  0  0  0  0  0  0  0  0  0  0
  139.6430   76.4630  222.2320 C   0  0  0  0  0  0  0  0  0  0  0  0
  141.5440   73.8430  220.4600 N   0  0  0  0  0  0  0  0  0  0  0  0
  142.7180   71.9970  218.2630 C   0  0  0  0  0  0  0  0  0  0  0  0
  143.9770   71.7710  217.4240 C   0  0  0  0  0  0  0  0  0  0  0  0
  145.0010   72.6300  217.8810 O   0  0  0  0  0  0  0  0  0  0  0  0
  144.0661   75.3408  221.3251 H   0  0  0  0  0  0  0  0  0  0  0  0
  145.0400   75.6499  219.8477 H   0  0  0  0  0  0  0  0  0  0  0  0
  143.7943   74.3558  219.8477 H   0  0  0  0  0  0  0  0  0  0  0  0
  146.3284   74.3837  221.5694 H   0  0  0  0  0  0  0  0  0  0  0  0
  145.0953   73.0757  221.5063 H   0  0  0  0  0  0  0  0  0  0  0  0
  146.4210   74.0310  219.0620 H   0  0  0  0  0  0  0  0  0  0  0  0
  146.1438   71.3316  218.9343 H   0  0  0  0  0  0  0  0  0  0  0  0
  144.4323   70.5838  220.1482 H   0  0  0  0  0  0  0  0  0  0  0  0
  144.5990   72.0962  221.1204 H   0  0  0  0  0  0  0  0  0  0  0  0
  138.9648   70.3104  222.4078 H   0  0  0  0  0  0  0  0  0  0  0  0
  140.3626   69.3975  223.1187 H   0  0  0  0  0  0  0  0  0  0  0  0
  137.8678   70.3878  224.5702 H   0  0  0  0  0  0  0  0  0  0  0  0
  138.3490   68.6837  224.2421 H   0  0  0  0  0  0  0  0  0  0  0  0
  138.5881   67.8582  226.4834 H   0  0  0  0  0  0  0  0  0  0  0  0
  139.8855   67.8760  228.6154 H   0  0  0  0  0  0  0  0  0  0  0  0
  141.5076   69.7160  229.0778 H   0  0  0  0  0  0  0  0  0  0  0  0
  141.8339   71.5448  227.4099 H   0  0  0  0  0  0  0  0  0  0  0  0
  139.9282   72.6611  225.2772 H   0  0  0  0  0  0  0  0  0  0  0  0
  141.6543   72.1387  225.0154 H   0  0  0  0  0  0  0  0  0  0  0  0
  140.2333   75.5262  219.0101 H   0  0  0  0  0  0  0  0  0  0  0  0
  139.1640   76.8346  219.6042 H   0  0  0  0  0  0  0  0  0  0  0  0
  142.2074   76.6362  219.7576 H   0  0  0  0  0  0  0  0  0  0  0  0
  141.1762   77.9344  219.0149 H   0  0  0  0  0  0  0  0  0  0  0  0
  142.7805   79.4275  220.3349 H   0  0  0  0  0  0  0  0  0  0  0  0
  142.9856   80.7194  222.4575 H   0  0  0  0  0  0  0  0  0  0  0  0
  141.6631   80.0484  224.4643 H   0  0  0  0  0  0  0  0  0  0  0  0
  140.1298   78.0869  224.3547 H   0  0  0  0  0  0  0  0  0  0  0  0
  139.7095   75.8891  223.1680 H   0  0  0  0  0  0  0  0  0  0  0  0
  138.6196   76.8453  222.1034 H   0  0  0  0  0  0  0  0  0  0  0  0
  142.0350   71.1451  218.1298 H   0  0  0  0  0  0  0  0  0  0  0  0
  142.2294   72.9258  217.9334 H   0  0  0  0  0  0  0  0  0  0  0  0
  144.3026   70.7250  217.5238 H   0  0  0  0  0  0  0  0  0  0  0  0
  143.7598   71.9851  216.3671 H   0  0  0  0  0  0  0  0  0  0  0  0
  1  2  1  0
  2  3  1  0
  3  4  1  0
  4  5  1  0
  5  6  1  0
  6  7  1  0
  7  8  2  0
  8  9  1  0
  9 10  1  0
 10 11  1  0
 11 12  1  0
 12 13  1  0
 13 14  2  0
 14 15  1  0
 15 16  2  0
 16 17  1  0
 17 18  2  0
 18 19  1  0
  9 20  2  0
 20 21  1  0
 21 22  1  0
 22 23  1  0
 23 24  1  0
 24 25  1  0
 25 26  2  0
 26 27  1  0
 27 28  2  0
 28 29  1  0
 29 30  2  0
 30 31  1  0
 21 32  2  0
  6 33  1  0
 33 34  1  0
 34 35  1  0
 35  4  1  0
 32  7  1  0
 19 10  1  0
 31 22  1  0
 18 13  1  0
 30 25  1  0
  1 36  1  0
  1 37  1  0
  1 38  1  0
  2 39  1  0
  2 40  1  0
  3 41  1  0
  4 42  1  6
  5 43  1  0
  5 44  1  0
 11 45  1  0
 11 46  1  0
 12 47  1  0
 12 48  1  0
 14 49  1  0
 15 50  1  0
 16 51  1  0
 17 52  1  0
 19 53  1  0
 19 54  1  0
 23 55  1  0
 23 56  1  0
 24 57  1  0
 24 58  1  0
 26 59  1  0
 27 60  1  0
 28 61  1  0
 29 62  1  0
 31 63  1  0
 31 64  1  0
 33 65  1  0
 33 66  1  0
 34 67  1  0
 34 68  1  0
M  END
>  <meeko>  (1) 
{"free_energy": -10.27, "intermolecular_energy": -11.76, "internal_energy": -1.39, "cluster_size": 19, "cluster_id": 1, "rank_in_cluster": 10}

$$$$

     RDKit          3D

 68 73  0  0  0  0  0  0  0  0999 V2000
  144.0320   75.0480  220.0870 C   0  0  0  0  0  0  0  0  0  0  0  0
  143.2210   75.7480  219.0050 C   0  0  0  0  0  0  0  0  0  0  0  0
  142.9830   77.1480  219.3880 N   0  0  0  0  0  0  0  0  0  0  0  0
  141.6650   77.3480  220.0170 C   0  0  1  0  0  0  0  0  0  0  0  0
  140.7850   76.0770  219.8410 C   0  0  0  0  0  0  0  0  0  0  0  0
  140.6430   75.3620  221.1170 N   0  0  0  0  0  0  0  0  0  0  0  0
  140.7350   73.9240  221.1850 C   0  0  0  0  0  0  0  0  0  0  0  0
  140.3890   73.2680  222.3230 N   0  0  0  0  0  0  0  0  0  0  0  0
  140.5150   71.9180  222.4120 C   0  0  0  0  0  0  0  0  0  0  0  0
  140.1560   71.2280  223.6260 N   0  0  0  0  0  0  0  0  0  0  0  0
  139.5570   69.8820  223.5360 C   0  0  0  0  0  0  0  0  0  0  0  0
  138.7400   69.5390  224.7810 C   0  0  0  0  0  0  0  0  0  0  0  0
  139.5590   69.7660  226.0130 C   0  0  0  0  0  0  0  0  0  0  0  0
  139.4560   68.9030  227.1150 C   0  0  0  0  0  0  0  0  0  0  0  0
  140.1990   69.1520  228.2730 C   0  0  0  0  0  0  0  0  0  0  0  0
  141.0330   70.2690  228.3420 C   0  0  0  0  0  0  0  0  0  0  0  0
  141.1270   71.1420  227.2530 C   0  0  0  0  0  0  0  0  0  0  0  0
  140.4000   70.8910  226.0790 C   0  0  0  0  0  0  0  0  0  0  0  0
  140.4680   71.8590  224.9230 C   0  0  0  0  0  0  0  0  0  0  0  0
  141.0060   71.2270  221.3480 N   0  0  0  0  0  0  0  0  0  0  0  0
  141.3610   71.8690  220.2040 C   0  0  0  0  0  0  0  0  0  0  0  0
  141.9160   71.1310  219.0940 N   0  0  0  0  0  0  0  0  0  0  0  0
  141.3560   69.8370  218.6990 C   0  0  0  0  0  0  0  0  0  0  0  0
  142.1540   68.7250  219.3870 C   0  0  0  0  0  0  0  0  0  0  0  0
  143.6490   68.9650  219.3170 C   0  0  0  0  0  0  0  0  0  0  0  0
  144.5210   67.9170  219.6480 C   0  0  0  0  0  0  0  0  0  0  0  0
  145.9040   68.1190  219.6490 C   0  0  0  0  0  0  0  0  0  0  0  0
  146.4290   69.3710  219.3250 C   0  0  0  0  0  0  0  0  0  0  0  0
  145.5750   70.4270  219.0020 C   0  0  0  0  0  0  0  0  0  0  0  0
  144.1840   70.2440  219.0150 C   0  0  0  0  0  0  0  0  0  0  0  0
  143.2810   71.3870  218.6190 C   0  0  0  0  0  0  0  0  0  0  0  0
  141.2200   73.2170  220.1330 N   0  0  0  0  0  0  0  0  0  0  0  0
  140.3510   76.1340  222.3300 C   0  0  0  0  0  0  0  0  0  0  0  0
  140.6200   77.6200  222.0890 C   0  0  0  0  0  0  0  0  0  0  0  0
  141.8270   77.7640  221.3700 O   0  0  0  0  0  0  0  0  0  0  0  0
  143.6694   75.3610  221.0772 H   0  0  0  0  0  0  0  0  0  0  0  0
  143.9194   73.9588  219.9827 H   0  0  0  0  0  0  0  0  0  0  0  0
  145.0931   75.3186  219.9827 H   0  0  0  0  0  0  0  0  0  0  0  0
  143.7761   75.7184  218.0558 H   0  0  0  0  0  0  0  0  0  0  0  0
  142.2553   75.2349  218.8858 H   0  0  0  0  0  0  0  0  0  0  0  0
  143.7160   77.4220  220.0830 H   0  0  0  0  0  0  0  0  0  0  0  0
  141.1210   78.1605  219.5130 H   0  0  0  0  0  0  0  0  0  0  0  0
  139.7890   76.3745  219.4812 H   0  0  0  0  0  0  0  0  0  0  0  0
  141.2701   75.4092  219.1138 H   0  0  0  0  0  0  0  0  0  0  0  0
  138.8979   69.8439  222.6562 H   0  0  0  0  0  0  0  0  0  0  0  0
  140.3735   69.1498  223.4509 H   0  0  0  0  0  0  0  0  0  0  0  0
  137.8452   70.1779  224.8163 H   0  0  0  0  0  0  0  0  0  0  0  0
  138.4432   68.4808  224.7363 H   0  0  0  0  0  0  0  0  0  0  0  0
  138.7895   68.0292  227.0676 H   0  0  0  0  0  0  0  0  0  0  0  0
  140.1262   68.4669  229.1305 H   0  0  0  0  0  0  0  0  0  0  0  0
  141.6170   70.4631  229.2537 H   0  0  0  0  0  0  0  0  0  0  0  0
  141.7738   72.0294  227.3171 H   0  0  0  0  0  0  0  0  0  0  0  0
  139.7464   72.6698  225.1014 H   0  0  0  0  0  0  0  0  0  0  0  0
  141.5004   72.2345  224.8674 H   0  0  0  0  0  0  0  0  0  0  0  0
  140.3015   69.7806  219.0071 H   0  0  0  0  0  0  0  0  0  0  0  0
  141.4164   69.7205  217.6069 H   0  0  0  0  0  0  0  0  0  0  0  0
  141.8525   68.6745  220.4437 H   0  0  0  0  0  0  0  0  0  0  0  0
  141.9388   67.7818  218.8635 H   0  0  0  0  0  0  0  0  0  0  0  0
  144.1133   66.9291  219.9086 H   0  0  0  0  0  0  0  0  0  0  0  0
  146.5798   67.2899  219.9056 H   0  0  0  0  0  0  0  0  0  0  0  0
  147.5180   69.5260  219.3242 H   0  0  0  0  0  0  0  0  0  0  0  0
  145.9950   71.4082  218.7358 H   0  0  0  0  0  0  0  0  0  0  0  0
  143.6546   72.3195  219.0672 H   0  0  0  0  0  0  0  0  0  0  0  0
  143.2724   71.4796  217.5229 H   0  0  0  0  0  0  0  0  0  0  0  0
  139.2944   75.9958  222.6029 H   0  0  0  0  0  0  0  0  0  0  0  0
  140.9993   75.7799  223.1451 H   0  0  0  0  0  0  0  0  0  0  0  0
  139.7924   78.0541  221.5088 H   0  0  0  0  0  0  0  0  0  0  0  0
  140.7008   78.1417  223.0541 H   0  0  0  0  0  0  0  0  0  0  0  0
  1  2  1  0
  2  3  1  0
  3  4  1  0
  4  5  1  0
  5  6  1  0
  6  7  1  0
  7  8  2  0
  8  9  1  0
  9 10  1  0
 10 11  1  0
 11 12  1  0
 12 13  1  0
 13 14  2  0
 14 15  1  0
 15 16  2  0
 16 17  1  0
 17 18  2  0
 18 19  1  0
  9 20  2  0
 20 21  1  0
 21 22  1  0
 22 23  1  0
 23 24  1  0
 24 25  1  0
 25 26  2  0
 26 27  1  0
 27 28  2  0
 28 29  1  0
 29 30  2  0
 30 31  1  0
 21 32  2  0
  6 33  1  0
 33 34  1  0
 34 35  1  0
 35  4  1  0
 32  7  1  0
 19 10  1  0
 31 22  1  0
 18 13  1  0
 30 25  1  0
  1 36  1  0
  1 37  1  0
  1 38  1  0
  2 39  1  0
  2 40  1  0
  3 41  1  0
  4 42  1  6
  5 43  1  0
  5 44  1  0
 11 45  1  0
 11 46  1  0
 12 47  1  0
 12 48  1  0
 14 49  1  0
 15 50  1  0
 16 51  1  0
 17 52  1  0
 19 53  1  0
 19 54  1  0
 23 55  1  0
 23 56  1  0
 24 57  1  0
 24 58  1  0
 26 59  1  0
 27 60  1  0
 28 61  1  0
 29 62  1  0
 31 63  1  0
 31 64  1  0
 33 65  1  0
 33 66  1  0
 34 67  1  0
 34 68  1  0
M  END
>  <meeko>  (2) 
{"free_energy": -9.07, "intermolecular_energy": -10.56, "internal_energy": -1.47, "cluster_size": 1, "cluster_id": 2, "rank_in_cluster": 1}

$$$$

     RDKit          3D

 68 73  0  0  0  0  0  0  0  0999 V2000
  145.8910   67.7700  219.7070 C   0  0  0  0  0  0  0  0  0  0  0  0
  145.1920   68.8110  218.8440 C   0  0  0  0  0  0  0  0  0  0  0  0
  144.7000   69.9100  219.6890 N   0  0  0  0  0  0  0  0  0  0  0  0
  144.8910   71.2330  219.0680 C   0  0  1  0  0  0  0  0  0  0  0  0
  143.5470   72.0150  219.0390 C   0  0  0  0  0  0  0  0  0  0  0  0
  143.5610   73.1110  220.0170 N   0  0  0  0  0  0  0  0  0  0  0  0
  142.4160   73.3900  220.8490 C   0  0  0  0  0  0  0  0  0  0  0  0
  141.8930   72.4200  221.6430 N   0  0  0  0  0  0  0  0  0  0  0  0
  140.7880   72.6600  222.3970 C   0  0  0  0  0  0  0  0  0  0  0  0
  140.2310   71.6240  223.2300 N   0  0  0  0  0  0  0  0  0  0  0  0
  139.3270   70.6260  222.6270 C   0  0  0  0  0  0  0  0  0  0  0  0
  138.4090   69.9860  223.6680 C   0  0  0  0  0  0  0  0  0  0  0  0
  139.2180   69.4670  224.8170 C   0  0  0  0  0  0  0  0  0  0  0  0
  138.8720   68.2660  225.4560 C   0  0  0  0  0  0  0  0  0  0  0  0
  139.6140   67.8160  226.5510 C   0  0  0  0  0  0  0  0  0  0  0  0
  140.6930   68.5680  227.0230 C   0  0  0  0  0  0  0  0  0  0  0  0
  141.0320   69.7740  226.4000 C   0  0  0  0  0  0  0  0  0  0  0  0
  140.3050   70.2250  225.2870 C   0  0  0  0  0  0  0  0  0  0  0  0
  140.6440   71.5490  224.6460 C   0  0  0  0  0  0  0  0  0  0  0  0
  140.1990   73.8850  222.3380 N   0  0  0  0  0  0  0  0  0  0  0  0
  140.7070   74.8650  221.5450 C   0  0  0  0  0  0  0  0  0  0  0  0
  140.0540   76.1490  221.4610 N   0  0  0  0  0  0  0  0  0  0  0  0
  139.9880   76.8750  220.1900 C   0  0  0  0  0  0  0  0  0  0  0  0
  141.1620   77.8550  220.1220 C   0  0  0  0  0  0  0  0  0  0  0  0
  141.3560   78.6080  221.4230 C   0  0  0  0  0  0  0  0  0  0  0  0
  142.1990   79.7300  221.4390 C   0  0  0  0  0  0  0  0  0  0  0  0
  142.4460   80.4140  222.6320 C   0  0  0  0  0  0  0  0  0  0  0  0
  141.8580   79.9820  223.8230 C   0  0  0  0  0  0  0  0  0  0  0  0
  141.0240   78.8630  223.8260 C   0  0  0  0  0  0  0  0  0  0  0  0
  140.7820   78.1540  222.6380 C   0  0  0  0  0  0  0  0  0  0  0  0
  139.8420   76.9740  222.6570 C   0  0  0  0  0  0  0  0  0  0  0  0
  141.8160   74.6070  220.8070 N   0  0  0  0  0  0  0  0  0  0  0  0
  144.7520   73.9640  220.1050 C   0  0  0  0  0  0  0  0  0  0  0  0
  145.9310   73.3010  219.3900 C   0  0  0  0  0  0  0  0  0  0  0  0
  145.9560   71.9260  219.7130 O   0  0  0  0  0  0  0  0  0  0  0  0
  145.7316   68.0074  220.7692 H   0  0  0  0  0  0  0  0  0  0  0  0
  145.4776   66.7745  219.4877 H   0  0  0  0  0  0  0  0  0  0  0  0
  146.9689   67.7758  219.4877 H   0  0  0  0  0  0  0  0  0  0  0  0
  145.9025   69.2089  218.1045 H   0  0  0  0  0  0  0  0  0  0  0  0
  144.3420   68.3422  218.3266 H   0  0  0  0  0  0  0  0  0  0  0  0
  143.6740   69.7690  219.8370 H   0  0  0  0  0  0  0  0  0  0  0  0
  145.1939   71.1205  218.0165 H   0  0  0  0  0  0  0  0  0  0  0  0
  143.3935   72.4315  218.0325 H   0  0  0  0  0  0  0  0  0  0  0  0
  142.7307   71.3236  219.2953 H   0  0  0  0  0  0  0  0  0  0  0  0
  138.7085   71.1214  221.8641 H   0  0  0  0  0  0  0  0  0  0  0  0
  139.9443   69.8315  222.1824 H   0  0  0  0  0  0  0  0  0  0  0  0
  137.6955   70.7382  224.0356 H   0  0  0  0  0  0  0  0  0  0  0  0
  137.8651   69.1502  223.2036 H   0  0  0  0  0  0  0  0  0  0  0  0
  138.0155   67.6783  225.0941 H   0  0  0  0  0  0  0  0  0  0  0  0
  139.3484   66.8683  227.0423 H   0  0  0  0  0  0  0  0  0  0  0  0
  141.2762   68.2116  227.8849 H   0  0  0  0  0  0  0  0  0  0  0  0
  141.8720   70.3715  226.7840 H   0  0  0  0  0  0  0  0  0  0  0  0
  140.1349   72.3493  225.2030 H   0  0  0  0  0  0  0  0  0  0  0  0
  141.7379   71.6607  224.6774 H   0  0  0  0  0  0  0  0  0  0  0  0
  140.0512   76.1633  219.3537 H   0  0  0  0  0  0  0  0  0  0  0  0
  139.0374   77.4242  220.1214 H   0  0  0  0  0  0  0  0  0  0  0  0
  142.0804   77.2925  219.8980 H   0  0  0  0  0  0  0  0  0  0  0  0
  140.9415   78.5916  219.3354 H   0  0  0  0  0  0  0  0  0  0  0  0
  142.6687   80.0734  220.5055 H   0  0  0  0  0  0  0  0  0  0  0  0
  143.1050   81.2947  222.6333 H   0  0  0  0  0  0  0  0  0  0  0  0
  142.0525   80.5245  224.7599 H   0  0  0  0  0  0  0  0  0  0  0  0
  140.5534   78.5344  224.7644 H   0  0  0  0  0  0  0  0  0  0  0  0
  140.0330   76.3696  223.5560 H   0  0  0  0  0  0  0  0  0  0  0  0
  138.8038   77.3373  222.6679 H   0  0  0  0  0  0  0  0  0  0  0  0
  144.5396   74.9344  219.6324 H   0  0  0  0  0  0  0  0  0  0  0  0
  145.0110   74.1105  221.1640 H   0  0  0  0  0  0  0  0  0  0  0  0
  145.8169   73.4215  218.3026 H   0  0  0  0  0  0  0  0  0  0  0  0
  146.8711   73.7734  219.7111 H   0  0  0  0  0  0  0  0  0  0  0  0
  1  2  1  0
  2  3  1  0
  3  4  1  0
  4  5  1  0
  5  6  1  0
  6  7  1  0
  7  8  2  0
  8  9  1  0
  9 10  1  0
 10 11  1  0
 11 12  1  0
 12 13  1  0
 13 14  2  0
 14 15  1  0
 15 16  2  0
 16 17  1  0
 17 18  2  0
 18 19  1  0
  9 20  2  0
 20 21  1  0
 21 22  1  0
 22 23  1  0
 23 24  1  0
 24 25  1  0
 25 26  2  0
 26 27  1  0
 27 28  2  0
 28 29  1  0
 29 30  2  0
 30 31  1  0
 21 32  2  0
  6 33  1  0
 33 34  1  0
 34 35  1  0
 35  4  1  0
 32  7  1  0
 19 10  1  0
 31 22  1  0
 18 13  1  0
 30 25  1  0
  1 36  1  0
  1 37  1  0
  1 38  1  0
  2 39  1  0
  2 40  1  0
  3 41  1  0
  4 42  1  6
  5 43  1  0
  5 44  1  0
 11 45  1  0
 11 46  1  0
 12 47  1  0
 12 48  1  0
 14 49  1  0
 15 50  1  0
 16 51  1  0
 17 52  1  0
 19 53  1  0
 19 54  1  0
 23 55  1  0
 23 56  1  0
 24 57  1  0
 24 58  1  0
 26 59  1  0
 27 60  1  0
 28 61  1  0
 29 62  1  0
 31 63  1  0
 31 64  1  0
 33 65  1  0
 33 66  1  0
 34 67  1  0
 34 68  1  0
M  END
>  <meeko>  (3) 
{"free_energy": -10.41, "intermolecular_energy": -11.9, "internal_energy": -1.0, "cluster_size": 19, "cluster_id": 1, "rank_in_cluster": 6}

$$$$

     RDKit          3D

 68 73  0  0  0  0  0  0  0  0999 V2000
  145.6450   67.7350  219.7050 C   0  0  0  0  0  0  0  0  0  0  0  0
  145.5400   68.9660  218.8160 C   0  0  0  0  0  0  0  0  0  0  0  0
  144.6890   69.9770  219.4620 N   0  0  0  0  0  0  0  0  0  0  0  0
  144.9060   71.3310  218.9220 C   0  0  1  0  0  0  0  0  0  0  0  0
  143.5750   72.1370  218.9370 C   0  0  0  0  0  0  0  0  0  0  0  0
  143.6040   73.1720  219.9800 N   0  0  0  0  0  0  0  0  0  0  0  0
  142.4620   73.4200  220.8240 C   0  0  0  0  0  0  0  0  0  0  0  0
  141.9540   72.4280  221.5990 N   0  0  0  0  0  0  0  0  0  0  0  0
  140.8500   72.6400  222.3640 C   0  0  0  0  0  0  0  0  0  0  0  0
  140.3090   71.5800  223.1770 N   0  0  0  0  0  0  0  0  0  0  0  0
  139.4780   70.5400  222.5400 C   0  0  0  0  0  0  0  0  0  0  0  0
  138.5490   69.8590  223.5450 C   0  0  0  0  0  0  0  0  0  0  0  0
  139.3330   69.3800  224.7280 C   0  0  0  0  0  0  0  0  0  0  0  0
  139.0180   68.1650  225.3570 C   0  0  0  0  0  0  0  0  0  0  0  0
  139.7350   67.7520  226.4830 C   0  0  0  0  0  0  0  0  0  0  0  0
  140.7570   68.5550  226.9960 C   0  0  0  0  0  0  0  0  0  0  0  0
  141.0650   69.7740  226.3830 C   0  0  0  0  0  0  0  0  0  0  0  0
  140.3630   70.1890  225.2400 C   0  0  0  0  0  0  0  0  0  0  0  0
  140.6670   71.5260  224.6090 C   0  0  0  0  0  0  0  0  0  0  0  0
  140.2490   73.8600  222.3360 N   0  0  0  0  0  0  0  0  0  0  0  0
  140.7420   74.8620  221.5620 C   0  0  0  0  0  0  0  0  0  0  0  0
  140.0750   76.1410  221.5100 N   0  0  0  0  0  0  0  0  0  0  0  0
  139.9550   76.8730  220.2460 C   0  0  0  0  0  0  0  0  0  0  0  0
  141.1180   77.8630  220.1390 C   0  0  0  0  0  0  0  0  0  0  0  0
  141.3540   78.6110  221.4370 C   0  0  0  0  0  0  0  0  0  0  0  0
  142.1870   79.7410  221.4280 C   0  0  0  0  0  0  0  0  0  0  0  0
  142.4730   80.4210  222.6150 C   0  0  0  0  0  0  0  0  0  0  0  0
  141.9330   79.9770  223.8240 C   0  0  0  0  0  0  0  0  0  0  0  0
  141.1100   78.8500  223.8520 C   0  0  0  0  0  0  0  0  0  0  0  0
  140.8290   78.1460  222.6700 C   0  0  0  0  0  0  0  0  0  0  0  0
  139.9010   76.9570  222.7170 C   0  0  0  0  0  0  0  0  0  0  0  0
  141.8490   74.6320  220.8120 N   0  0  0  0  0  0  0  0  0  0  0  0
  144.8100   73.9970  220.1220 C   0  0  0  0  0  0  0  0  0  0  0  0
  145.9800   73.3570  219.3710 C   0  0  0  0  0  0  0  0  0  0  0  0
  145.9800   71.9650  219.6110 O   0  0  0  0  0  0  0  0  0  0  0  0
  145.6188   68.0420  220.7610 H   0  0  0  0  0  0  0  0  0  0  0  0
  144.8011   67.0603  219.4983 H   0  0  0  0  0  0  0  0  0  0  0  0
  146.5909   67.2130  219.4983 H   0  0  0  0  0  0  0  0  0  0  0  0
  146.5439   69.3847  218.6521 H   0  0  0  0  0  0  0  0  0  0  0  0
  145.0952   68.6801  217.8514 H   0  0  0  0  0  0  0  0  0  0  0  0
  143.6900   69.7160  219.2880 H   0  0  0  0  0  0  0  0  0  0  0  0
  145.2115   71.2767  217.8667 H   0  0  0  0  0  0  0  0  0  0  0  0
  143.4324   72.6162  217.9572 H   0  0  0  0  0  0  0  0  0  0  0  0
  142.7462   71.4456  219.1490 H   0  0  0  0  0  0  0  0  0  0  0  0
  138.8689   71.0052  221.7510 H   0  0  0  0  0  0  0  0  0  0  0  0
  140.1493   69.7748  222.1229 H   0  0  0  0  0  0  0  0  0  0  0  0
  137.7866   70.5775  223.8805 H   0  0  0  0  0  0  0  0  0  0  0  0
  138.0647   68.9979  223.0614 H   0  0  0  0  0  0  0  0  0  0  0  0
  138.2054   67.5371  224.9627 H   0  0  0  0  0  0  0  0  0  0  0  0
  139.4946   66.7935  226.9662 H   0  0  0  0  0  0  0  0  0  0  0  0
  141.3199   68.2282  227.8828 H   0  0  0  0  0  0  0  0  0  0  0  0
  141.8606   70.4102  226.7981 H   0  0  0  0  0  0  0  0  0  0  0  0
  140.0996   72.3030  225.1422 H   0  0  0  0  0  0  0  0  0  0  0  0
  141.7525   71.6876  224.6844 H   0  0  0  0  0  0  0  0  0  0  0  0
  139.9922   76.1661  219.4040 H   0  0  0  0  0  0  0  0  0  0  0  0
  138.9981   77.4147  220.2163 H   0  0  0  0  0  0  0  0  0  0  0  0
  142.0319   77.3092  219.8779 H   0  0  0  0  0  0  0  0  0  0  0  0
  140.8629   78.6016  219.3648 H   0  0  0  0  0  0  0  0  0  0  0  0
  142.6179   80.0939  220.4794 H   0  0  0  0  0  0  0  0  0  0  0  0
  143.1244   81.3072  222.5970 H   0  0  0  0  0  0  0  0  0  0  0  0
  142.1567   80.5166  224.7561 H   0  0  0  0  0  0  0  0  0  0  0  0
  140.6790   78.5113  224.8057 H   0  0  0  0  0  0  0  0  0  0  0  0
  140.1311   76.3494  223.6046 H   0  0  0  0  0  0  0  0  0  0  0  0
  138.8607   77.3108  222.7687 H   0  0  0  0  0  0  0  0  0  0  0  0
  144.6165   74.9976  219.7081 H   0  0  0  0  0  0  0  0  0  0  0  0
  145.0679   74.0750  221.1885 H   0  0  0  0  0  0  0  0  0  0  0  0
  145.8716   73.5444  218.2925 H   0  0  0  0  0  0  0  0  0  0  0  0
  146.9271   73.7926  219.7220 H   0  0  0  0  0  0  0  0  0  0  0  0
  1  2  1  0
  2  3  1  0
  3  4  1  0
  4  5  1  0
  5  6  1  0
  6  7  1  0
  7  8  2  0
  8  9  1  0
  9 10  1  0
 10 11  1  0
 11 12  1  0
 12 13  1  0
 13 14  2  0
 14 15  1  0
 15 16  2  0
 16 17  1  0
 17 18  2  0
 18 19  1  0
  9 20  2  0
 20 21  1  0
 21 22  1  0
 22 23  1  0
 23 24  1  0
 24 25  1  0
 25 26  2  0
 26 27  1  0
 27 28  2  0
 28 29  1  0
 29 30  2  0
 30 31  1  0
 21 32  2  0
  6 33  1  0
 33 34  1  0
 34 35  1  0
 35  4  1  0
 32  7  1  0
 19 10  1  0
 31 22  1  0
 18 13  1  0
 30 25  1  0
  1 36  1  0
  1 37  1  0
  1 38  1  0
  2 39  1  0
  2 40  1  0
  3 41  1  0
  4 42  1  6
  5 43  1  0
  5 44  1  0
 11 45  1  0
 11 46  1  0
 12 47  1  0
 12 48  1  0
 14 49  1  0
 15 50  1  0
 16 51  1  0
 17 52  1  0
 19 53  1  0
 19 54  1  0
 23 55  1  0
 23 56  1  0
 24 57  1  0
 24 58  1  0
 26 59  1  0
 27 60  1  0
 28 61  1  0
 29 62  1  0
 31 63  1  0
 31 64  1  0
 33 65  1  0
 33 66  1  0
 34 67  1  0
 34 68  1  0
M  END
>  <meeko>  (4) 
{"free_energy": -10.41, "intermolecular_energy": -11.9, "internal_energy": -1.0, "cluster_size": 19, "cluster_id": 1, "rank_in_cluster": 7}

$$$$

     RDKit          3D

 68 73  0  0  0  0  0  0  0  0999 V2000
  146.7070   73.3880  222.2920 C   0  0  0  0  0  0  0  0  0  0  0  0
  145.7160   73.6290  221.1610 C   0  0  0  0  0  0  0  0  0  0  0  0
  146.3280   73.2560  219.8760 N   0  0  0  0  0  0  0  0  0  0  0  0
  145.5020   72.3070  219.1080 C   0  0  1  0  0  0  0  0  0  0  0  0
  144.3480   71.7560  219.9940 C   0  0  0  0  0  0  0  0  0  0  0  0
  143.0570   72.3230  219.5800 N   0  0  0  0  0  0  0  0  0  0  0  0
  142.0870   72.7680  220.5490 C   0  0  0  0  0  0  0  0  0  0  0  0
  141.6900   71.9420  221.5510 N   0  0  0  0  0  0  0  0  0  0  0  0
  140.7430   72.3370  222.4430 C   0  0  0  0  0  0  0  0  0  0  0  0
  140.3170   71.4520  223.4980 N   0  0  0  0  0  0  0  0  0  0  0  0
  139.6400   70.1890  223.1450 C   0  0  0  0  0  0  0  0  0  0  0  0
  138.7780   69.6650  224.2930 C   0  0  0  0  0  0  0  0  0  0  0  0
  139.5830   69.6000  225.5540 C   0  0  0  0  0  0  0  0  0  0  0  0
  139.4050   68.5490  226.4670 C   0  0  0  0  0  0  0  0  0  0  0  0
  140.1380   68.5240  227.6580 C   0  0  0  0  0  0  0  0  0  0  0  0
  141.0370   69.5520  227.9480 C   0  0  0  0  0  0  0  0  0  0  0  0
  141.2060   70.6100  227.0500 C   0  0  0  0  0  0  0  0  0  0  0  0
  140.4890   70.6350  225.8430 C   0  0  0  0  0  0  0  0  0  0  0  0
  140.6400   71.8010  224.8960 C   0  0  0  0  0  0  0  0  0  0  0  0
  140.1860   73.5720  222.3150 N   0  0  0  0  0  0  0  0  0  0  0  0
  140.5700   74.4090  221.3160 C   0  0  0  0  0  0  0  0  0  0  0  0
  139.9460   75.7020  221.1660 N   0  0  0  0  0  0  0  0  0  0  0  0
  139.9450   76.3870  219.8710 C   0  0  0  0  0  0  0  0  0  0  0  0
  141.1400   77.3420  219.8190 C   0  0  0  0  0  0  0  0  0  0  0  0
  141.2980   78.1340  221.1020 C   0  0  0  0  0  0  0  0  0  0  0  0
  142.1620   79.2400  221.1160 C   0  0  0  0  0  0  0  0  0  0  0  0
  142.3770   79.9570  222.2960 C   0  0  0  0  0  0  0  0  0  0  0  0
  141.7340   79.5740  223.4750 C   0  0  0  0  0  0  0  0  0  0  0  0
  140.8780   78.4710  223.4810 C   0  0  0  0  0  0  0  0  0  0  0  0
  140.6680   77.7300  222.3070 C   0  0  0  0  0  0  0  0  0  0  0  0
  139.7040   76.5680  222.3260 C   0  0  0  0  0  0  0  0  0  0  0  0
  141.5220   73.9980  220.4400 N   0  0  0  0  0  0  0  0  0  0  0  0
  142.7410   72.3850  218.1480 C   0  0  0  0  0  0  0  0  0  0  0  0
  144.0080   72.1750  217.3170 C   0  0  0  0  0  0  0  0  0  0  0  0
  145.0680   72.9100  217.8920 O   0  0  0  0  0  0  0  0  0  0  0  0
  146.1972   73.5120  223.2588 H   0  0  0  0  0  0  0  0  0  0  0  0
  147.1076   72.3663  222.2171 H   0  0  0  0  0  0  0  0  0  0  0  0
  147.5320   74.1117  222.2171 H   0  0  0  0  0  0  0  0  0  0  0  0
  144.8158   73.0192  221.3277 H   0  0  0  0  0  0  0  0  0  0  0  0
  145.4422   74.6941  221.1380 H   0  0  0  0  0  0  0  0  0  0  0  0
  146.4330   74.1270  219.3050 H   0  0  0  0  0  0  0  0  0  0  0  0
  146.0995   71.4306  218.8164 H   0  0  0  0  0  0  0  0  0  0  0  0
  144.3092   70.6611  219.8960 H   0  0  0  0  0  0  0  0  0  0  0  0
  144.5392   72.0399  221.0394 H   0  0  0  0  0  0  0  0  0  0  0  0
  138.9982   70.3623  222.2686 H   0  0  0  0  0  0  0  0  0  0  0  0
  140.4127   69.4369  222.9277 H   0  0  0  0  0  0  0  0  0  0  0  0
  137.9221   70.3396  224.4423 H   0  0  0  0  0  0  0  0  0  0  0  0
  138.4202   68.6555  224.0423 H   0  0  0  0  0  0  0  0  0  0  0  0
  138.6884   67.7443  226.2457 H   0  0  0  0  0  0  0  0  0  0  0  0
  140.0060   67.6934  228.3670 H   0  0  0  0  0  0  0  0  0  0  0  0
  141.6133   69.5294  228.8847 H   0  0  0  0  0  0  0  0  0  0  0  0
  141.9034   71.4261  227.2899 H   0  0  0  0  0  0  0  0  0  0  0  0
  139.9656   72.6069  225.2213 H   0  0  0  0  0  0  0  0  0  0  0  0
  141.6944   72.1134  224.9229 H   0  0  0  0  0  0  0  0  0  0  0  0
  140.0271   75.6472  219.0611 H   0  0  0  0  0  0  0  0  0  0  0  0
  139.0090   76.9514  219.7467 H   0  0  0  0  0  0  0  0  0  0  0  0
  142.0550   76.7552  219.6502 H   0  0  0  0  0  0  0  0  0  0  0  0
  140.9652   78.0565  219.0011 H   0  0  0  0  0  0  0  0  0  0  0  0
  142.6737   79.5447  220.1912 H   0  0  0  0  0  0  0  0  0  0  0  0
  143.0536   80.8243  222.2962 H   0  0  0  0  0  0  0  0  0  0  0  0
  141.9023   80.1428  224.4014 H   0  0  0  0  0  0  0  0  0  0  0  0
  140.3656   78.1811  224.4102 H   0  0  0  0  0  0  0  0  0  0  0  0
  139.8480   75.9891  223.2502 H   0  0  0  0  0  0  0  0  0  0  0  0
  138.6734   76.9504  222.2849 H   0  0  0  0  0  0  0  0  0  0  0  0
  142.0114   71.5992  217.9027 H   0  0  0  0  0  0  0  0  0  0  0  0
  142.3201   73.3745  217.9162 H   0  0  0  0  0  0  0  0  0  0  0  0
  144.2663   71.1059  217.3040 H   0  0  0  0  0  0  0  0  0  0  0  0
  143.8355   72.5199  216.2868 H   0  0  0  0  0  0  0  0  0  0  0  0
  1  2  1  0
  2  3  1  0
  3  4  1  0
  4  5  1  0
  5  6  1  0
  6  7  1  0
  7  8  2  0
  8  9  1  0
  9 10  1  0
 10 11  1  0
 11 12  1  0
 12 13  1  0
 13 14  2  0
 14 15  1  0
 15 16  2  0
 16 17  1  0
 17 18  2  0
 18 19  1  0
  9 20  2  0
 20 21  1  0
 21 22  1  0
 22 23  1  0
 23 24  1  0
 24 25  1  0
 25 26  2  0
 26 27  1  0
 27 28  2  0
 28 29  1  0
 29 30  2  0
 30 31  1  0
 21 32  2  0
  6 33  1  0
 33 34  1  0
 34 35  1  0
 35  4  1  0
 32  7  1  0
 19 10  1  0
 31 22  1  0
 18 13  1  0
 30 25  1  0
  1 36  1  0
  1 37  1  0
  1 38  1  0
  2 39  1  0
  2 40  1  0
  3 41  1  0
  4 42  1  6
  5 43  1  0
  5 44  1  0
 11 45  1  0
 11 46  1  0
 12 47  1  0
 12 48  1  0
 14 49  1  0
 15 50  1  0
 16 51  1  0
 17 52  1  0
 19 53  1  0
 19 54  1  0
 23 55  1  0
 23 56  1  0
 24 57  1  0
 24 58  1  0
 26 59  1  0
 27 60  1  0
 28 61  1  0
 29 62  1  0
 31 63  1  0
 31 64  1  0
 33 65  1  0
 33 66  1  0
 34 67  1  0
 34 68  1  0
M  END
>  <meeko>  (5) 
{"free_energy": -10.65, "intermolecular_energy": -12.14, "internal_energy": -1.19, "cluster_size": 19, "cluster_id": 1, "rank_in_cluster": 4}

$$$$

     RDKit          3D

 68 73  0  0  0  0  0  0  0  0999 V2000
  142.8760   70.1940  219.6840 C   0  0  0  0  0  0  0  0  0  0  0  0
  144.2410   70.1680  219.0100 C   0  0  0  0  0  0  0  0  0  0  0  0
  144.2620   71.1210  217.8890 N   0  0  0  0  0  0  0  0  0  0  0  0
  144.9350   72.3870  218.2320 C   0  0  1  0  0  0  0  0  0  0  0  0
  143.8850   73.4720  218.6060 C   0  0  0  0  0  0  0  0  0  0  0  0
  143.9030   73.7390  220.0510 N   0  0  0  0  0  0  0  0  0  0  0  0
  142.6810   73.8960  220.8010 C   0  0  0  0  0  0  0  0  0  0  0  0
  142.1400   72.8370  221.4580 N   0  0  0  0  0  0  0  0  0  0  0  0
  140.9650   72.9650  222.1300 C   0  0  0  0  0  0  0  0  0  0  0  0
  140.3890   71.8360  222.8180 N   0  0  0  0  0  0  0  0  0  0  0  0
  139.8430   70.7170  222.0260 C   0  0  0  0  0  0  0  0  0  0  0  0
  138.8060   69.9160  222.8130 C   0  0  0  0  0  0  0  0  0  0  0  0
  139.3670   69.5130  224.1420 C   0  0  0  0  0  0  0  0  0  0  0  0
  139.0680   68.2600  224.6990 C   0  0  0  0  0  0  0  0  0  0  0  0
  139.5690   67.9150  225.9580 C   0  0  0  0  0  0  0  0  0  0  0  0
  140.3550   68.8230  226.6710 C   0  0  0  0  0  0  0  0  0  0  0  0
  140.6420   70.0790  226.1290 C   0  0  0  0  0  0  0  0  0  0  0  0
  140.1600   70.4280  224.8570 C   0  0  0  0  0  0  0  0  0  0  0  0
  140.4340   71.8010  224.2930 C   0  0  0  0  0  0  0  0  0  0  0  0
  140.3270   74.1670  222.1290 N   0  0  0  0  0  0  0  0  0  0  0  0
  140.8540   75.2330  221.4720 C   0  0  0  0  0  0  0  0  0  0  0  0
  140.1510   76.4940  221.4440 N   0  0  0  0  0  0  0  0  0  0  0  0
  140.0140   77.2480  220.1960 C   0  0  0  0  0  0  0  0  0  0  0  0
  141.1480   78.2730  220.1130 C   0  0  0  0  0  0  0  0  0  0  0  0
  141.3590   79.0010  221.4270 C   0  0  0  0  0  0  0  0  0  0  0  0
  142.1610   80.1530  221.4430 C   0  0  0  0  0  0  0  0  0  0  0  0
  142.4250   80.8160  222.6450 C   0  0  0  0  0  0  0  0  0  0  0  0
  141.8950   80.3320  223.8430 C   0  0  0  0  0  0  0  0  0  0  0  0
  141.1030   79.1820  223.8450 C   0  0  0  0  0  0  0  0  0  0  0  0
  140.8460   78.4950  222.6480 C   0  0  0  0  0  0  0  0  0  0  0  0
  139.9510   77.2800  222.6680 C   0  0  0  0  0  0  0  0  0  0  0  0
  142.0320   75.0870  220.8140 N   0  0  0  0  0  0  0  0  0  0  0  0
  145.1980   73.8960  220.7230 C   0  0  0  0  0  0  0  0  0  0  0  0
  146.3250   73.3750  219.8290 C   0  0  0  0  0  0  0  0  0  0  0  0
  145.9210   72.1590  219.2350 O   0  0  0  0  0  0  0  0  0  0  0  0
  143.0063   70.1915  220.7763 H   0  0  0  0  0  0  0  0  0  0  0  0
  142.3349   71.1026  219.3814 H   0  0  0  0  0  0  0  0  0  0  0  0
  142.3007   69.3067  219.3814 H   0  0  0  0  0  0  0  0  0  0  0  0
  145.0144   70.4468  219.7408 H   0  0  0  0  0  0  0  0  0  0  0  0
  144.4386   69.1551  218.6292 H   0  0  0  0  0  0  0  0  0  0  0  0
  144.7890   70.6790  217.1000 H   0  0  0  0  0  0  0  0  0  0  0  0
  145.4746   72.7814  217.3583 H   0  0  0  0  0  0  0  0  0  0  0  0
  144.1177   74.4009  218.0646 H   0  0  0  0  0  0  0  0  0  0  0  0
  142.8856   73.1066  218.3272 H   0  0  0  0  0  0  0  0  0  0  0  0
  139.3678   71.1209  221.1199 H   0  0  0  0  0  0  0  0  0  0  0  0
  140.6734   70.0424  221.7705 H   0  0  0  0  0  0  0  0  0  0  0  0
  137.9101   70.5349  222.9689 H   0  0  0  0  0  0  0  0  0  0  0  0
  138.5423   69.0120  222.2445 H   0  0  0  0  0  0  0  0  0  0  0  0
  138.4387   67.5484  224.1444 H   0  0  0  0  0  0  0  0  0  0  0  0
  139.3439   66.9276  226.3873 H   0  0  0  0  0  0  0  0  0  0  0  0
  140.7489   68.5492  227.6609 H   0  0  0  0  0  0  0  0  0  0  0  0
  141.2479   70.7970  226.7011 H   0  0  0  0  0  0  0  0  0  0  0  0
  139.6782   72.4981  224.6838 H   0  0  0  0  0  0  0  0  0  0  0  0
  141.4514   72.0863  224.5989 H   0  0  0  0  0  0  0  0  0  0  0  0
  140.0739   76.5601  219.3398 H   0  0  0  0  0  0  0  0  0  0  0  0
  139.0421   77.7627  220.1746 H   0  0  0  0  0  0  0  0  0  0  0  0
  142.0782   77.7513  219.8436 H   0  0  0  0  0  0  0  0  0  0  0  0
  140.8736   79.0197  219.3533 H   0  0  0  0  0  0  0  0  0  0  0  0
  142.5846   80.5367  220.5031 H   0  0  0  0  0  0  0  0  0  0  0  0
  143.0512   81.7204  222.6473 H   0  0  0  0  0  0  0  0  0  0  0  0
  142.1019   80.8577  224.7868 H   0  0  0  0  0  0  0  0  0  0  0  0
  140.6780   78.8123  224.7898 H   0  0  0  0  0  0  0  0  0  0  0  0
  140.1957   76.6607  223.5436 H   0  0  0  0  0  0  0  0  0  0  0  0
  138.9011   77.6035  222.7241 H   0  0  0  0  0  0  0  0  0  0  0  0
  145.3685   74.9611  220.9387 H   0  0  0  0  0  0  0  0  0  0  0  0
  145.1880   73.3195  221.6598 H   0  0  0  0  0  0  0  0  0  0  0  0
  146.5431   74.1137  219.0436 H   0  0  0  0  0  0  0  0  0  0  0  0
  147.2295   73.2093  220.4327 H   0  0  0  0  0  0  0  0  0  0  0  0
  1  2  1  0
  2  3  1  0
  3  4  1  0
  4  5  1  0
  5  6  1  0
  6  7  1  0
  7  8  2  0
  8  9  1  0
  9 10  1  0
 10 11  1  0
 11 12  1  0
 12 13  1  0
 13 14  2  0
 14 15  1  0
 15 16  2  0
 16 17  1  0
 17 18  2  0
 18 19  1  0
  9 20  2  0
 20 21  1  0
 21 22  1  0
 22 23  1  0
 23 24  1  0
 24 25  1  0
 25 26  2  0
 26 27  1  0
 27 28  2  0
 28 29  1  0
 29 30  2  0
 30 31  1  0
 21 32  2  0
  6 33  1  0
 33 34  1  0
 34 35  1  0
 35  4  1  0
 32  7  1  0
 19 10  1  0
 31 22  1  0
 18 13  1  0
 30 25  1  0
  1 36  1  0
  1 37  1  0
  1 38  1  0
  2 39  1  0
  2 40  1  0
  3 41  1  0
  4 42  1  6
  5 43  1  0
  5 44  1  0
 11 45  1  0
 11 46  1  0
 12 47  1  0
 12 48  1  0
 14 49  1  0
 15 50  1  0
 16 51  1  0
 17 52  1  0
 19 53  1  0
 19 54  1  0
 23 55  1  0
 23 56  1  0
 24 57  1  0
 24 58  1  0
 26 59  1  0
 27 60  1  0
 28 61  1  0
 29 62  1  0
 31 63  1  0
 31 64  1  0
 33 65  1  0
 33 66  1  0
 34 67  1  0
 34 68  1  0
M  END
>  <meeko>  (6) 
{"free_energy": -9.67, "intermolecular_energy": -11.16, "internal_energy": -1.33, "cluster_size": 19, "cluster_id": 1, "rank_in_cluster": 16}

$$$$

     RDKit          3D

 68 73  0  0  0  0  0  0  0  0999 V2000
  143.1330   76.9640  217.3340 C   0  0  0  0  0  0  0  0  0  0  0  0
  143.1690   75.5630  217.9290 C   0  0  0  0  0  0  0  0  0  0  0  0
  144.1240   74.7290  217.1830 N   0  0  0  0  0  0  0  0  0  0  0  0
  144.7930   73.7300  218.0350 C   0  0  1  0  0  0  0  0  0  0  0  0
  144.4240   73.9610  219.5280 C   0  0  0  0  0  0  0  0  0  0  0  0
  143.5130   72.9120  220.0080 N   0  0  0  0  0  0  0  0  0  0  0  0
  142.3770   73.2270  220.8390 C   0  0  0  0  0  0  0  0  0  0  0  0
  141.8550   72.2890  221.6710 N   0  0  0  0  0  0  0  0  0  0  0  0
  140.7580   72.5640  222.4250 C   0  0  0  0  0  0  0  0  0  0  0  0
  140.2020   71.5610  223.3000 N   0  0  0  0  0  0  0  0  0  0  0  0
  139.2740   70.5580  222.7430 C   0  0  0  0  0  0  0  0  0  0  0  0
  138.3670   69.9630  223.8190 C   0  0  0  0  0  0  0  0  0  0  0  0
  139.1880   69.4680  224.9690 C   0  0  0  0  0  0  0  0  0  0  0  0
  138.8370   68.2920  225.6510 C   0  0  0  0  0  0  0  0  0  0  0  0
  139.5930   67.8650  226.7460 C   0  0  0  0  0  0  0  0  0  0  0  0
  140.6900   68.6160  227.1750 C   0  0  0  0  0  0  0  0  0  0  0  0
  141.0350   69.7970  226.5100 C   0  0  0  0  0  0  0  0  0  0  0  0
  140.2940   70.2250  225.3970 C   0  0  0  0  0  0  0  0  0  0  0  0
  140.6400   71.5230  224.7090 C   0  0  0  0  0  0  0  0  0  0  0  0
  140.1770   73.7900  222.3290 N   0  0  0  0  0  0  0  0  0  0  0  0
  140.6830   74.7370  221.4970 C   0  0  0  0  0  0  0  0  0  0  0  0
  140.0380   76.0220  221.3730 N   0  0  0  0  0  0  0  0  0  0  0  0
  139.9900   76.7160  220.0840 C   0  0  0  0  0  0  0  0  0  0  0  0
  141.1690   77.6880  220.0040 C   0  0  0  0  0  0  0  0  0  0  0  0
  141.3520   78.4730  221.2880 C   0  0  0  0  0  0  0  0  0  0  0  0
  142.2010   79.5920  221.2850 C   0  0  0  0  0  0  0  0  0  0  0  0
  142.4380   80.3050  222.4630 C   0  0  0  0  0  0  0  0  0  0  0  0
  141.8340   79.9050  223.6570 C   0  0  0  0  0  0  0  0  0  0  0  0
  140.9940   78.7900  223.6790 C   0  0  0  0  0  0  0  0  0  0  0  0
  140.7620   78.0530  222.5070 C   0  0  0  0  0  0  0  0  0  0  0  0
  139.8160   76.8770  222.5450 C   0  0  0  0  0  0  0  0  0  0  0  0
  141.7850   74.4460  220.7590 N   0  0  0  0  0  0  0  0  0  0  0  0
  143.8040   71.5150  219.6680 C   0  0  0  0  0  0  0  0  0  0  0  0
  144.8330   71.4490  218.5370 C   0  0  0  0  0  0  0  0  0  0  0  0
  144.5120   72.4170  217.5600 O   0  0  0  0  0  0  0  0  0  0  0  0
  143.1139   77.7065  218.1453 H   0  0  0  0  0  0  0  0  0  0  0  0
  144.0274   77.1219  216.7134 H   0  0  0  0  0  0  0  0  0  0  0  0
  142.2317   77.0757  216.7134 H   0  0  0  0  0  0  0  0  0  0  0  0
  143.4805   75.6215  218.9824 H   0  0  0  0  0  0  0  0  0  0  0  0
  142.1667   75.1147  217.8632 H   0  0  0  0  0  0  0  0  0  0  0  0
  143.5920   74.2160  216.4410 H   0  0  0  0  0  0  0  0  0  0  0  0
  145.8851   73.8473  217.9756 H   0  0  0  0  0  0  0  0  0  0  0  0
  145.3424   73.9458  220.1332 H   0  0  0  0  0  0  0  0  0  0  0  0
  143.9210   74.9348  219.6206 H   0  0  0  0  0  0  0  0  0  0  0  0
  138.6486   71.0389  221.9765 H   0  0  0  0  0  0  0  0  0  0  0  0
  139.8722   69.7420  222.3113 H   0  0  0  0  0  0  0  0  0  0  0  0
  137.6703   70.7360  224.1756 H   0  0  0  0  0  0  0  0  0  0  0  0
  137.8044   69.1208  223.3898 H   0  0  0  0  0  0  0  0  0  0  0  0
  137.9658   67.7060  225.3230 H   0  0  0  0  0  0  0  0  0  0  0  0
  139.3239   66.9364  227.2707 H   0  0  0  0  0  0  0  0  0  0  0  0
  141.2835   68.2779  228.0373 H   0  0  0  0  0  0  0  0  0  0  0  0
  141.8905   70.3930  226.8605 H   0  0  0  0  0  0  0  0  0  0  0  0
  140.1532   72.3477  225.2502 H   0  0  0  0  0  0  0  0  0  0  0  0
  141.7358   71.6187  224.7166 H   0  0  0  0  0  0  0  0  0  0  0  0
  140.0588   75.9831  219.2666 H   0  0  0  0  0  0  0  0  0  0  0  0
  139.0431   77.2681  219.9914 H   0  0  0  0  0  0  0  0  0  0  0  0
  142.0870   77.1157  219.8047 H   0  0  0  0  0  0  0  0  0  0  0  0
  140.9612   78.4053  219.1963 H   0  0  0  0  0  0  0  0  0  0  0  0
  142.6828   79.9093  220.3484 H   0  0  0  0  0  0  0  0  0  0  0  0
  143.1012   81.1825  222.4500 H   0  0  0  0  0  0  0  0  0  0  0  0
  142.0205   80.4698  224.5823 H   0  0  0  0  0  0  0  0  0  0  0  0
  140.5113   78.4874  224.6200 H   0  0  0  0  0  0  0  0  0  0  0  0
  139.9942   76.2945  223.4609 H   0  0  0  0  0  0  0  0  0  0  0  0
  138.7793   77.2445  222.5352 H   0  0  0  0  0  0  0  0  0  0  0  0
  144.2049   71.0014  220.5543 H   0  0  0  0  0  0  0  0  0  0  0  0
  142.8760   71.0255  219.3376 H   0  0  0  0  0  0  0  0  0  0  0  0
  145.8362   71.6517  218.9401 H   0  0  0  0  0  0  0  0  0  0  0  0
  144.8194   70.4471  218.0830 H   0  0  0  0  0  0  0  0  0  0  0  0
  1  2  1  0
  2  3  1  0
  3  4  1  0
  4  5  1  0
  5  6  1  0
  6  7  1  0
  7  8  2  0
  8  9  1  0
  9 10  1  0
 10 11  1  0
 11 12  1  0
 12 13  1  0
 13 14  2  0
 14 15  1  0
 15 16  2  0
 16 17  1  0
 17 18  2  0
 18 19  1  0
  9 20  2  0
 20 21  1  0
 21 22  1  0
 22 23  1  0
 23 24  1  0
 24 25  1  0
 25 26  2  0
 26 27  1  0
 27 28  2  0
 28 29  1  0
 29 30  2  0
 30 31  1  0
 21 32  2  0
  6 33  1  0
 33 34  1  0
 34 35  1  0
 35  4  1  0
 32  7  1  0
 19 10  1  0
 31 22  1  0
 18 13  1  0
 30 25  1  0
  1 36  1  0
  1 37  1  0
  1 38  1  0
  2 39  1  0
  2 40  1  0
  3 41  1  0
  4 42  1  1
  5 43  1  0
  5 44  1  0
 11 45  1  0
 11 46  1  0
 12 47  1  0
 12 48  1  0
 14 49  1  0
 15 50  1  0
 16 51  1  0
 17 52  1  0
 19 53  1  0
 19 54  1  0
 23 55  1  0
 23 56  1  0
 24 57  1  0
 24 58  1  0
 26 59  1  0
 27 60  1  0
 28 61  1  0
 29 62  1  0
 31 63  1  0
 31 64  1  0
 33 65  1  0
 33 66  1  0
 34 67  1  0
 34 68  1  0
M  END
>  <meeko>  (7) 
{"free_energy": -9.05, "intermolecular_energy": -10.54, "internal_energy": -1.4, "cluster_size": 19, "cluster_id": 1, "rank_in_cluster": 19}

$$$$

     RDKit          3D

 68 73  0  0  0  0  0  0  0  0999 V2000
  144.5070   74.8620  220.4500 C   0  0  0  0  0  0  0  0  0  0  0  0
  145.5480   73.8690  220.9500 C   0  0  0  0  0  0  0  0  0  0  0  0
  146.2590   73.2750  219.8070 N   0  0  0  0  0  0  0  0  0  0  0  0
  145.4800   72.2160  219.1410 C   0  0  1  0  0  0  0  0  0  0  0  0
  144.3770   71.6760  220.0960 C   0  0  0  0  0  0  0  0  0  0  0  0
  143.0470   72.1280  219.6650 N   0  0  0  0  0  0  0  0  0  0  0  0
  142.0690   72.5960  220.6150 C   0  0  0  0  0  0  0  0  0  0  0  0
  141.6520   71.7890  221.6250 N   0  0  0  0  0  0  0  0  0  0  0  0
  140.6980   72.2060  222.4990 C   0  0  0  0  0  0  0  0  0  0  0  0
  140.2520   71.3400  223.5620 N   0  0  0  0  0  0  0  0  0  0  0  0
  139.5990   70.0620  223.2210 C   0  0  0  0  0  0  0  0  0  0  0  0
  138.7100   69.5560  224.3560 C   0  0  0  0  0  0  0  0  0  0  0  0
  139.4800   69.5290  225.6400 C   0  0  0  0  0  0  0  0  0  0  0  0
  139.2880   68.4980  226.5730 C   0  0  0  0  0  0  0  0  0  0  0  0
  139.9870   68.5090  227.7830 C   0  0  0  0  0  0  0  0  0  0  0  0
  140.8660   69.5540  228.0750 C   0  0  0  0  0  0  0  0  0  0  0  0
  141.0500   70.5930  227.1560 C   0  0  0  0  0  0  0  0  0  0  0  0
  140.3670   70.5810  225.9290 C   0  0  0  0  0  0  0  0  0  0  0  0
  140.5320   71.7270  224.9600 C   0  0  0  0  0  0  0  0  0  0  0  0
  140.1530   73.4430  222.3450 N   0  0  0  0  0  0  0  0  0  0  0  0
  140.5560   74.2600  221.3370 C   0  0  0  0  0  0  0  0  0  0  0  0
  139.9440   75.5560  221.1590 N   0  0  0  0  0  0  0  0  0  0  0  0
  139.9820   76.2300  219.8590 C   0  0  0  0  0  0  0  0  0  0  0  0
  141.1850   77.1780  219.8310 C   0  0  0  0  0  0  0  0  0  0  0  0
  141.3130   77.9790  221.1120 C   0  0  0  0  0  0  0  0  0  0  0  0
  142.1830   79.0800  221.1400 C   0  0  0  0  0  0  0  0  0  0  0  0
  142.3690   79.8060  222.3190 C   0  0  0  0  0  0  0  0  0  0  0  0
  141.6920   79.4380  223.4830 C   0  0  0  0  0  0  0  0  0  0  0  0
  140.8300   78.3400  223.4740 C   0  0  0  0  0  0  0  0  0  0  0  0
  140.6480   77.5900  222.3020 C   0  0  0  0  0  0  0  0  0  0  0  0
  139.6760   76.4340  222.3050 C   0  0  0  0  0  0  0  0  0  0  0  0
  141.5150   73.8280  220.4800 N   0  0  0  0  0  0  0  0  0  0  0  0
  142.7020   72.0490  218.2410 C   0  0  0  0  0  0  0  0  0  0  0  0
  143.9650   71.8440  217.4020 C   0  0  0  0  0  0  0  0  0  0  0  0
  144.9880   72.6870  217.8890 O   0  0  0  0  0  0  0  0  0  0  0  0
  144.0100   75.3360  221.3092 H   0  0  0  0  0  0  0  0  0  0  0  0
  144.9995   75.6335  219.8398 H   0  0  0  0  0  0  0  0  0  0  0  0
  143.7596   74.3337  219.8398 H   0  0  0  0  0  0  0  0  0  0  0  0
  146.2685   74.3902  221.5975 H   0  0  0  0  0  0  0  0  0  0  0  0
  145.0465   73.0727  221.5196 H   0  0  0  0  0  0  0  0  0  0  0  0
  146.4360   74.0340  219.1080 H   0  0  0  0  0  0  0  0  0  0  0  0
  146.1248   71.3549  218.9112 H   0  0  0  0  0  0  0  0  0  0  0  0
  144.4031   70.5763  220.0919 H   0  0  0  0  0  0  0  0  0  0  0  0
  144.5688   72.0596  221.1089 H   0  0  0  0  0  0  0  0  0  0  0  0
  138.9809   70.2070  222.3227 H   0  0  0  0  0  0  0  0  0  0  0  0
  140.3856   69.3136  223.0444 H   0  0  0  0  0  0  0  0  0  0  0  0
  137.8436   70.2249  224.4654 H   0  0  0  0  0  0  0  0  0  0  0  0
  138.3690   68.5373  224.1193 H   0  0  0  0  0  0  0  0  0  0  0  0
  138.5864   67.6803  226.3514 H   0  0  0  0  0  0  0  0  0  0  0  0
  139.8445   67.6930  228.5068 H   0  0  0  0  0  0  0  0  0  0  0  0
  141.4144   69.5604  229.0285 H   0  0  0  0  0  0  0  0  0  0  0  0
  141.7321   71.4221  227.3955 H   0  0  0  0  0  0  0  0  0  0  0  0
  139.8398   72.5323  225.2470 H   0  0  0  0  0  0  0  0  0  0  0  0
  141.5812   72.0536  225.0092 H   0  0  0  0  0  0  0  0  0  0  0  0
  140.0810   75.4829  219.0577 H   0  0  0  0  0  0  0  0  0  0  0  0
  139.0533   76.7991  219.7051 H   0  0  0  0  0  0  0  0  0  0  0  0
  142.1005   76.5845  219.6914 H   0  0  0  0  0  0  0  0  0  0  0  0
  141.0372   77.8868  219.0029 H   0  0  0  0  0  0  0  0  0  0  0  0
  142.7222   79.3733  220.2272 H   0  0  0  0  0  0  0  0  0  0  0  0
  143.0504   80.6695  222.3301 H   0  0  0  0  0  0  0  0  0  0  0  0
  141.8380   80.0141  224.4087 H   0  0  0  0  0  0  0  0  0  0  0  0
  140.2903   78.0611  224.3910 H   0  0  0  0  0  0  0  0  0  0  0  0
  139.7912   75.8624  223.2378 H   0  0  0  0  0  0  0  0  0  0  0  0
  138.6494   76.8224  222.2327 H   0  0  0  0  0  0  0  0  0  0  0  0
  142.0172   71.2035  218.0794 H   0  0  0  0  0  0  0  0  0  0  0  0
  142.2173   72.9883  217.9364 H   0  0  0  0  0  0  0  0  0  0  0  0
  144.2877   70.7948  217.4733 H   0  0  0  0  0  0  0  0  0  0  0  0
  143.7539   72.0886  216.3505 H   0  0  0  0  0  0  0  0  0  0  0  0
  1  2  1  0
  2  3  1  0
  3  4  1  0
  4  5  1  0
  5  6  1  0
  6  7  1  0
  7  8  2  0
  8  9  1  0
  9 10  1  0
 10 11  1  0
 11 12  1  0
 12 13  1  0
 13 14  2  0
 14 15  1  0
 15 16  2  0
 16 17  1  0
 17 18  2  0
 18 19  1  0
  9 20  2  0
 20 21  1  0
 21 22  1  0
 22 23  1  0
 23 24  1  0
 24 25  1  0
 25 26  2  0
 26 27  1  0
 27 28  2  0
 28 29  1  0
 29 30  2  0
 30 31  1  0
 21 32  2  0
  6 33  1  0
 33 34  1  0
 34 35  1  0
 35  4  1  0
 32  7  1  0
 19 10  1  0
 31 22  1  0
 18 13  1  0
 30 25  1  0
  1 36  1  0
  1 37  1  0
  1 38  1  0
  2 39  1  0
  2 40  1  0
  3 41  1  0
  4 42  1  6
  5 43  1  0
  5 44  1  0
 11 45  1  0
 11 46  1  0
 12 47  1  0
 12 48  1  0
 14 49  1  0
 15 50  1  0
 16 51  1  0
 17 52  1  0
 19 53  1  0
 19 54  1  0
 23 55  1  0
 23 56  1  0
 24 57  1  0
 24 58  1  0
 26 59  1  0
 27 60  1  0
 28 61  1  0
 29 62  1  0
 31 63  1  0
 31 64  1  0
 33 65  1  0
 33 66  1  0
 34 67  1  0
 34 68  1  0
M  END
>  <meeko>  (8) 
{"free_energy": -10.26, "intermolecular_energy": -11.76, "internal_energy": -1.39, "cluster_size": 19, "cluster_id": 1, "rank_in_cluster": 11}

$$$$

     RDKit          3D

 68 73  0  0  0  0  0  0  0  0999 V2000
  146.6830   73.3960  222.3030 C   0  0  0  0  0  0  0  0  0  0  0  0
  145.6530   73.5920  221.1980 C   0  0  0  0  0  0  0  0  0  0  0  0
  146.2790   73.3630  219.8870 N   0  0  0  0  0  0  0  0  0  0  0  0
  145.3660   72.7170  218.9270 C   0  0  1  0  0  0  0  0  0  0  0  0
  144.1270   72.1360  219.6680 C   0  0  0  0  0  0  0  0  0  0  0  0
  142.9290   72.9390  219.3860 N   0  0  0  0  0  0  0  0  0  0  0  0
  141.9930   73.2810  220.4290 C   0  0  0  0  0  0  0  0  0  0  0  0
  141.6110   72.3480  221.3400 N   0  0  0  0  0  0  0  0  0  0  0  0
  140.6950   72.6490  222.2990 C   0  0  0  0  0  0  0  0  0  0  0  0
  140.2860   71.6520  223.2570 N   0  0  0  0  0  0  0  0  0  0  0  0
  139.6070   70.4330  222.7780 C   0  0  0  0  0  0  0  0  0  0  0  0
  138.7610   69.7850  223.8740 C   0  0  0  0  0  0  0  0  0  0  0  0
  139.5850   69.5850  225.1090 C   0  0  0  0  0  0  0  0  0  0  0  0
  139.4210   68.4410  225.9050 C   0  0  0  0  0  0  0  0  0  0  0  0
  140.1710   68.2880  227.0750 C   0  0  0  0  0  0  0  0  0  0  0  0
  141.0720   69.2820  227.4640 C   0  0  0  0  0  0  0  0  0  0  0  0
  141.2270   70.4320  226.6840 C   0  0  0  0  0  0  0  0  0  0  0  0
  140.4930   70.5860  225.4960 C   0  0  0  0  0  0  0  0  0  0  0  0
  140.6280   71.8490  224.6800 C   0  0  0  0  0  0  0  0  0  0  0  0
  140.1540   73.8960  222.3310 N   0  0  0  0  0  0  0  0  0  0  0  0
  140.5220   74.8380  221.4240 C   0  0  0  0  0  0  0  0  0  0  0  0
  139.9130   76.1480  221.4420 N   0  0  0  0  0  0  0  0  0  0  0  0
  139.7920   76.9350  220.2120 C   0  0  0  0  0  0  0  0  0  0  0  0
  140.9950   77.8750  220.1090 C   0  0  0  0  0  0  0  0  0  0  0  0
  141.3020   78.5590  221.4270 C   0  0  0  0  0  0  0  0  0  0  0  0
  142.1860   79.6490  221.4370 C   0  0  0  0  0  0  0  0  0  0  0  0
  142.5370   80.2670  222.6410 C   0  0  0  0  0  0  0  0  0  0  0  0
  142.0120   79.7990  223.8470 C   0  0  0  0  0  0  0  0  0  0  0  0
  141.1380   78.7100  223.8560 C   0  0  0  0  0  0  0  0  0  0  0  0
  140.7920   78.0680  222.6560 C   0  0  0  0  0  0  0  0  0  0  0  0
  139.8110   76.9210  222.6850 C   0  0  0  0  0  0  0  0  0  0  0  0
  141.4430   74.5200  220.4790 N   0  0  0  0  0  0  0  0  0  0  0  0
  142.6650   73.3530  218.0030 C   0  0  0  0  0  0  0  0  0  0  0  0
  143.9200   73.1710  217.1490 C   0  0  0  0  0  0  0  0  0  0  0  0
  145.0460   73.6210  217.8740 O   0  0  0  0  0  0  0  0  0  0  0  0
  146.1919   73.4895  223.2828 H   0  0  0  0  0  0  0  0  0  0  0  0
  147.1326   72.3962  222.2121 H   0  0  0  0  0  0  0  0  0  0  0  0
  147.4684   74.1608  222.2121 H   0  0  0  0  0  0  0  0  0  0  0  0
  144.8272   72.8789  221.3379 H   0  0  0  0  0  0  0  0  0  0  0  0
  145.2657   74.6207  221.2408 H   0  0  0  0  0  0  0  0  0  0  0  0
  146.5540   74.2930  219.4940 H   0  0  0  0  0  0  0  0  0  0  0  0
  145.8593   71.8572  218.4501 H   0  0  0  0  0  0  0  0  0  0  0  0
  143.9566   71.1028  219.3312 H   0  0  0  0  0  0  0  0  0  0  0  0
  144.3203   72.1577  220.7507 H   0  0  0  0  0  0  0  0  0  0  0  0
  138.9534   70.6981  221.9339 H   0  0  0  0  0  0  0  0  0  0  0  0
  140.3780   69.7113  222.4703 H   0  0  0  0  0  0  0  0  0  0  0  0
  137.9069   70.4375  224.1081 H   0  0  0  0  0  0  0  0  0  0  0  0
  138.3995   68.8083  223.5200 H   0  0  0  0  0  0  0  0  0  0  0  0
  138.7015   67.6637  225.6081 H   0  0  0  0  0  0  0  0  0  0  0  0
  140.0514   67.3838  227.6899 H   0  0  0  0  0  0  0  0  0  0  0  0
  141.6604   69.1598  228.3853 H   0  0  0  0  0  0  0  0  0  0  0  0
  141.9264   71.2193  227.0018 H   0  0  0  0  0  0  0  0  0  0  0  0
  139.9563   72.6121  225.1002 H   0  0  0  0  0  0  0  0  0  0  0  0
  141.6817   72.1615  224.7265 H   0  0  0  0  0  0  0  0  0  0  0  0
  139.7732   76.2616  219.3424 H   0  0  0  0  0  0  0  0  0  0  0  0
  138.8607   77.5200  220.2322 H   0  0  0  0  0  0  0  0  0  0  0  0
  141.8747   77.2918  219.7992 H   0  0  0  0  0  0  0  0  0  0  0  0
  140.7520   78.6549  219.3724 H   0  0  0  0  0  0  0  0  0  0  0  0
  142.6059   80.0199  220.4904 H   0  0  0  0  0  0  0  0  0  0  0  0
  143.2277   81.1231  222.6381 H   0  0  0  0  0  0  0  0  0  0  0  0
  142.2875   80.2893  224.7924 H   0  0  0  0  0  0  0  0  0  0  0  0
  140.7183   78.3532  224.8081 H   0  0  0  0  0  0  0  0  0  0  0  0
  140.0378   76.2681  223.5407 H   0  0  0  0  0  0  0  0  0  0  0  0
  138.7901   77.3187  222.7825 H   0  0  0  0  0  0  0  0  0  0  0  0
  141.8515   72.7392  217.5889 H   0  0  0  0  0  0  0  0  0  0  0  0
  142.3760   74.4143  217.9949 H   0  0  0  0  0  0  0  0  0  0  0  0
  144.0442   72.1067  216.9001 H   0  0  0  0  0  0  0  0  0  0  0  0
  143.8222   73.7529  216.2206 H   0  0  0  0  0  0  0  0  0  0  0  0
  1  2  1  0
  2  3  1  0
  3  4  1  0
  4  5  1  0
  5  6  1  0
  6  7  1  0
  7  8  2  0
  8  9  1  0
  9 10  1  0
 10 11  1  0
 11 12  1  0
 12 13  1  0
 13 14  2  0
 14 15  1  0
 15 16  2  0
 16 17  1  0
 17 18  2  0
 18 19  1  0
  9 20  2  0
 20 21  1  0
 21 22  1  0
 22 23  1  0
 23 24  1  0
 24 25  1  0
 25 26  2  0
 26 27  1  0
 27 28  2  0
 28 29  1  0
 29 30  2  0
 30 31  1  0
 21 32  2  0
  6 33  1  0
 33 34  1  0
 34 35  1  0
 35  4  1  0
 32  7  1  0
 19 10  1  0
 31 22  1  0
 18 13  1  0
 30 25  1  0
  1 36  1  0
  1 37  1  0
  1 38  1  0
  2 39  1  0
  2 40  1  0
  3 41  1  0
  4 42  1  6
  5 43  1  0
  5 44  1  0
 11 45  1  0
 11 46  1  0
 12 47  1  0
 12 48  1  0
 14 49  1  0
 15 50  1  0
 16 51  1  0
 17 52  1  0
 19 53  1  0
 19 54  1  0
 23 55  1  0
 23 56  1  0
 24 57  1  0
 24 58  1  0
 26 59  1  0
 27 60  1  0
 28 61  1  0
 29 62  1  0
 31 63  1  0
 31 64  1  0
 33 65  1  0
 33 66  1  0
 34 67  1  0
 34 68  1  0
M  END
>  <meeko>  (9) 
{"free_energy": -10.66, "intermolecular_energy": -12.15, "internal_energy": -1.18, "cluster_size": 19, "cluster_id": 1, "rank_in_cluster": 3}

$$$$

     RDKit          3D

 68 73  0  0  0  0  0  0  0  0999 V2000
  144.0490   67.6390  219.1330 C   0  0  0  0  0  0  0  0  0  0  0  0
  143.6620   69.1110  219.1310 C   0  0  0  0  0  0  0  0  0  0  0  0
  144.7460   69.9120  219.7210 N   0  0  0  0  0  0  0  0  0  0  0  0
  144.9060   71.2230  219.0660 C   0  0  1  0  0  0  0  0  0  0  0  0
  143.5460   71.9780  219.0330 C   0  0  0  0  0  0  0  0  0  0  0  0
  143.5490   73.0980  219.9840 N   0  0  0  0  0  0  0  0  0  0  0  0
  142.4080   73.3750  220.8210 C   0  0  0  0  0  0  0  0  0  0  0  0
  141.8880   72.4040  221.6160 N   0  0  0  0  0  0  0  0  0  0  0  0
  140.7850   72.6440  222.3740 C   0  0  0  0  0  0  0  0  0  0  0  0
  140.2320   71.6050  223.2080 N   0  0  0  0  0  0  0  0  0  0  0  0
  139.3460   70.5940  222.6010 C   0  0  0  0  0  0  0  0  0  0  0  0
  138.4250   69.9500  223.6370 C   0  0  0  0  0  0  0  0  0  0  0  0
  139.2280   69.4470  224.7970 C   0  0  0  0  0  0  0  0  0  0  0  0
  138.8880   68.2460  225.4400 C   0  0  0  0  0  0  0  0  0  0  0  0
  139.6250   67.8110  226.5460 C   0  0  0  0  0  0  0  0  0  0  0  0
  140.6900   68.5790  227.0230 C   0  0  0  0  0  0  0  0  0  0  0  0
  141.0220   69.7840  226.3970 C   0  0  0  0  0  0  0  0  0  0  0  0
  140.3010   70.2200  225.2740 C   0  0  0  0  0  0  0  0  0  0  0  0
  140.6320   71.5440  224.6280 C   0  0  0  0  0  0  0  0  0  0  0  0
  140.1970   73.8680  222.3200 N   0  0  0  0  0  0  0  0  0  0  0  0
  140.7010   74.8490  221.5270 C   0  0  0  0  0  0  0  0  0  0  0  0
  140.0480   76.1340  221.4470 N   0  0  0  0  0  0  0  0  0  0  0  0
  139.9660   76.8550  220.1750 C   0  0  0  0  0  0  0  0  0  0  0  0
  141.1390   77.8340  220.0870 C   0  0  0  0  0  0  0  0  0  0  0  0
  141.3510   78.5920  221.3830 C   0  0  0  0  0  0  0  0  0  0  0  0
  142.1950   79.7140  221.3830 C   0  0  0  0  0  0  0  0  0  0  0  0
  142.4590   80.4020  222.5710 C   0  0  0  0  0  0  0  0  0  0  0  0
  141.8870   79.9740  223.7700 C   0  0  0  0  0  0  0  0  0  0  0  0
  141.0520   78.8550  223.7890 C   0  0  0  0  0  0  0  0  0  0  0  0
  140.7930   78.1430  222.6070 C   0  0  0  0  0  0  0  0  0  0  0  0
  139.8530   76.9620  222.6430 C   0  0  0  0  0  0  0  0  0  0  0  0
  141.8080   74.5920  220.7830 N   0  0  0  0  0  0  0  0  0  0  0  0
  144.7250   73.9750  220.0380 C   0  0  0  0  0  0  0  0  0  0  0  0
  145.9080   73.3170  219.3280 C   0  0  0  0  0  0  0  0  0  0  0  0
  145.9630   71.9510  219.6840 O   0  0  0  0  0  0  0  0  0  0  0  0
  144.1419   67.2857  220.1706 H   0  0  0  0  0  0  0  0  0  0  0  0
  143.2738   67.0554  218.6149 H   0  0  0  0  0  0  0  0  0  0  0  0
  145.0110   67.5121  218.6149 H   0  0  0  0  0  0  0  0  0  0  0  0
  143.4856   69.4408  218.0965 H   0  0  0  0  0  0  0  0  0  0  0  0
  142.7458   69.2465  219.7245 H   0  0  0  0  0  0  0  0  0  0  0  0
  144.5110   70.0810  220.7270 H   0  0  0  0  0  0  0  0  0  0  0  0
  145.2013   71.0917  218.0145 H   0  0  0  0  0  0  0  0  0  0  0  0
  143.3735   72.3665  218.0185 H   0  0  0  0  0  0  0  0  0  0  0  0
  142.7463   71.2774  219.3152 H   0  0  0  0  0  0  0  0  0  0  0  0
  138.7298   71.0782  221.8291 H   0  0  0  0  0  0  0  0  0  0  0  0
  139.9763   69.8042  222.1664 H   0  0  0  0  0  0  0  0  0  0  0  0
  137.6996   70.6964  223.9929 H   0  0  0  0  0  0  0  0  0  0  0  0
  137.8952   69.1053  223.1724 H   0  0  0  0  0  0  0  0  0  0  0  0
  138.0414   67.6469  225.0735 H   0  0  0  0  0  0  0  0  0  0  0  0
  139.3659   66.8633  227.0408 H   0  0  0  0  0  0  0  0  0  0  0  0
  141.2685   68.2348  227.8930 H   0  0  0  0  0  0  0  0  0  0  0  0
  141.8514   70.3930  226.7858 H   0  0  0  0  0  0  0  0  0  0  0  0
  140.1088   72.3422  225.1749 H   0  0  0  0  0  0  0  0  0  0  0  0
  141.7242   71.6683  224.6695 H   0  0  0  0  0  0  0  0  0  0  0  0
  140.0177   76.1400  219.3407 H   0  0  0  0  0  0  0  0  0  0  0  0
  139.0150   77.4048  220.1174 H   0  0  0  0  0  0  0  0  0  0  0  0
  142.0540   77.2703  219.8526 H   0  0  0  0  0  0  0  0  0  0  0  0
  140.9082   78.5677  219.3006 H   0  0  0  0  0  0  0  0  0  0  0  0
  142.6517   80.0540  220.4418 H   0  0  0  0  0  0  0  0  0  0  0  0
  143.1187   81.2822  222.5608 H   0  0  0  0  0  0  0  0  0  0  0  0
  142.0945   80.5196  224.7024 H   0  0  0  0  0  0  0  0  0  0  0  0
  140.5947   78.5296  224.7350 H   0  0  0  0  0  0  0  0  0  0  0  0
  140.0571   76.3602  223.5409 H   0  0  0  0  0  0  0  0  0  0  0  0
  138.8149   77.3250  222.6678 H   0  0  0  0  0  0  0  0  0  0  0  0
  144.4896   74.9291  219.5437 H   0  0  0  0  0  0  0  0  0  0  0  0
  144.9919   74.1527  221.0902 H   0  0  0  0  0  0  0  0  0  0  0  0
  145.7806   73.4085  218.2392 H   0  0  0  0  0  0  0  0  0  0  0  0
  146.8420   73.8147  219.6280 H   0  0  0  0  0  0  0  0  0  0  0  0
  1  2  1  0
  2  3  1  0
  3  4  1  0
  4  5  1  0
  5  6  1  0
  6  7  1  0
  7  8  2  0
  8  9  1  0
  9 10  1  0
 10 11  1  0
 11 12  1  0
 12 13  1  0
 13 14  2  0
 14 15  1  0
 15 16  2  0
 16 17  1  0
 17 18  2  0
 18 19  1  0
  9 20  2  0
 20 21  1  0
 21 22  1  0
 22 23  1  0
 23 24  1  0
 24 25  1  0
 25 26  2  0
 26 27  1  0
 27 28  2  0
 28 29  1  0
 29 30  2  0
 30 31  1  0
 21 32  2  0
  6 33  1  0
 33 34  1  0
 34 35  1  0
 35  4  1  0
 32  7  1  0
 19 10  1  0
 31 22  1  0
 18 13  1  0
 30 25  1  0
  1 36  1  0
  1 37  1  0
  1 38  1  0
  2 39  1  0
  2 40  1  0
  3 41  1  0
  4 42  1  6
  5 43  1  0
  5 44  1  0
 11 45  1  0
 11 46  1  0
 12 47  1  0
 12 48  1  0
 14 49  1  0
 15 50  1  0
 16 51  1  0
 17 52  1  0
 19 53  1  0
 19 54  1  0
 23 55  1  0
 23 56  1  0
 24 57  1  0
 24 58  1  0
 26 59  1  0
 27 60  1  0
 28 61  1  0
 29 62  1  0
 31 63  1  0
 31 64  1  0
 33 65  1  0
 33 66  1  0
 34 67  1  0
 34 68  1  0
M  END
>  <meeko>  (10) 
{"free_energy": -10.2, "intermolecular_energy": -11.69, "internal_energy": -1.09, "cluster_size": 19, "cluster_id": 1, "rank_in_cluster": 13}

$$$$

     RDKit          3D

 68 73  0  0  0  0  0  0  0  0999 V2000
  145.9140   67.7180  219.2370 C   0  0  0  0  0  0  0  0  0  0  0  0
  144.8270   68.6810  218.7830 C   0  0  0  0  0  0  0  0  0  0  0  0
  144.7470   69.8180  219.7140 N   0  0  0  0  0  0  0  0  0  0  0  0
  144.8940   71.1180  219.0360 C   0  0  1  0  0  0  0  0  0  0  0  0
  143.5320   71.8700  219.0120 C   0  0  0  0  0  0  0  0  0  0  0  0
  143.5460   73.0050  219.9450 N   0  0  0  0  0  0  0  0  0  0  0  0
  142.4170   73.2930  220.7950 C   0  0  0  0  0  0  0  0  0  0  0  0
  141.9070   72.3300  221.6060 N   0  0  0  0  0  0  0  0  0  0  0  0
  140.8150   72.5790  222.3770 C   0  0  0  0  0  0  0  0  0  0  0  0
  140.2710   71.5500  223.2290 N   0  0  0  0  0  0  0  0  0  0  0  0
  139.3890   70.5240  222.6410 C   0  0  0  0  0  0  0  0  0  0  0  0
  138.4770   69.8900  223.6890 C   0  0  0  0  0  0  0  0  0  0  0  0
  139.2860   69.4100  224.8540 C   0  0  0  0  0  0  0  0  0  0  0  0
  138.9570   68.2170  225.5170 C   0  0  0  0  0  0  0  0  0  0  0  0
  139.7000   67.8040  226.6270 C   0  0  0  0  0  0  0  0  0  0  0  0
  140.7620   68.5860  227.0890 C   0  0  0  0  0  0  0  0  0  0  0  0
  141.0840   69.7830  226.4430 C   0  0  0  0  0  0  0  0  0  0  0  0
  140.3560   70.1980  225.3160 C   0  0  0  0  0  0  0  0  0  0  0  0
  140.6760   71.5130  224.6480 C   0  0  0  0  0  0  0  0  0  0  0  0
  140.2280   73.8040  222.3180 N   0  0  0  0  0  0  0  0  0  0  0  0
  140.7230   74.7760  221.5080 C   0  0  0  0  0  0  0  0  0  0  0  0
  140.0700   76.0610  221.4250 N   0  0  0  0  0  0  0  0  0  0  0  0
  140.0180   76.7940  220.1570 C   0  0  0  0  0  0  0  0  0  0  0  0
  141.1920   77.7740  220.1060 C   0  0  0  0  0  0  0  0  0  0  0  0
  141.3730   78.5210  221.4140 C   0  0  0  0  0  0  0  0  0  0  0  0
  142.2150   79.6430  221.4450 C   0  0  0  0  0  0  0  0  0  0  0  0
  142.4500   80.3200  222.6440 C   0  0  0  0  0  0  0  0  0  0  0  0
  141.8490   79.8810  223.8260 C   0  0  0  0  0  0  0  0  0  0  0  0
  141.0160   78.7610  223.8140 C   0  0  0  0  0  0  0  0  0  0  0  0
  140.7860   78.0600  222.6200 C   0  0  0  0  0  0  0  0  0  0  0  0
  139.8460   76.8790  222.6230 C   0  0  0  0  0  0  0  0  0  0  0  0
  141.8190   74.5100  220.7530 N   0  0  0  0  0  0  0  0  0  0  0  0
  144.7200   73.8850  219.9680 C   0  0  0  0  0  0  0  0  0  0  0  0
  145.8950   73.2180  219.2500 C   0  0  0  0  0  0  0  0  0  0  0  0
  145.9590   71.8580  219.6270 O   0  0  0  0  0  0  0  0  0  0  0  0
  145.9443   67.6911  220.3363 H   0  0  0  0  0  0  0  0  0  0  0  0
  145.6962   66.7111  218.8515 H   0  0  0  0  0  0  0  0  0  0  0  0
  146.8873   68.0556  218.8515 H   0  0  0  0  0  0  0  0  0  0  0  0
  145.0647   69.0508  217.7747 H   0  0  0  0  0  0  0  0  0  0  0  0
  143.8605   68.1561  218.7672 H   0  0  0  0  0  0  0  0  0  0  0  0
  143.8050   69.7960  220.1700 H   0  0  0  0  0  0  0  0  0  0  0  0
  145.1733   70.9705  217.9823 H   0  0  0  0  0  0  0  0  0  0  0  0
  143.3435   72.2422  217.9942 H   0  0  0  0  0  0  0  0  0  0  0  0
  142.7386   71.1721  219.3177 H   0  0  0  0  0  0  0  0  0  0  0  0
  138.7666   70.9925  221.8644 H   0  0  0  0  0  0  0  0  0  0  0  0
  140.0229   69.7318  222.2161 H   0  0  0  0  0  0  0  0  0  0  0  0
  137.7476   70.6368  224.0358 H   0  0  0  0  0  0  0  0  0  0  0  0
  137.9523   69.0345  223.2387 H   0  0  0  0  0  0  0  0  0  0  0  0
  138.1135   67.6064  225.1626 H   0  0  0  0  0  0  0  0  0  0  0  0
  139.4483   66.8625  227.1372 H   0  0  0  0  0  0  0  0  0  0  0  0
  141.3454   68.2591  227.9624 H   0  0  0  0  0  0  0  0  0  0  0  0
  141.9114   70.4027  226.8190 H   0  0  0  0  0  0  0  0  0  0  0  0
  140.1496   72.3163  225.1843 H   0  0  0  0  0  0  0  0  0  0  0  0
  141.7676   71.6441  224.6832 H   0  0  0  0  0  0  0  0  0  0  0  0
  140.0901   76.0866  219.3177 H   0  0  0  0  0  0  0  0  0  0  0  0
  139.0683   77.3439  220.0816 H   0  0  0  0  0  0  0  0  0  0  0  0
  142.1127   77.2127  219.8884 H   0  0  0  0  0  0  0  0  0  0  0  0
  140.9794   78.5147  219.3211 H   0  0  0  0  0  0  0  0  0  0  0  0
  142.6936   79.9921  220.5182 H   0  0  0  0  0  0  0  0  0  0  0  0
  143.1094   81.2003  222.6574 H   0  0  0  0  0  0  0  0  0  0  0  0
  142.0324   80.4188  224.7679 H   0  0  0  0  0  0  0  0  0  0  0  0
  140.5370   78.4258  224.7458 H   0  0  0  0  0  0  0  0  0  0  0  0
  140.0284   76.2696  223.5204 H   0  0  0  0  0  0  0  0  0  0  0  0
  138.8076   77.2419  222.6256 H   0  0  0  0  0  0  0  0  0  0  0  0
  144.4750   74.8308  219.4626 H   0  0  0  0  0  0  0  0  0  0  0  0
  145.0020   74.0796  221.0133 H   0  0  0  0  0  0  0  0  0  0  0  0
  145.7509   73.2917  218.1620 H   0  0  0  0  0  0  0  0  0  0  0  0
  146.8321   73.7227  219.5277 H   0  0  0  0  0  0  0  0  0  0  0  0
  1  2  1  0
  2  3  1  0
  3  4  1  0
  4  5  1  0
  5  6  1  0
  6  7  1  0
  7  8  2  0
  8  9  1  0
  9 10  1  0
 10 11  1  0
 11 12  1  0
 12 13  1  0
 13 14  2  0
 14 15  1  0
 15 16  2  0
 16 17  1  0
 17 18  2  0
 18 19  1  0
  9 20  2  0
 20 21  1  0
 21 22  1  0
 22 23  1  0
 23 24  1  0
 24 25  1  0
 25 26  2  0
 26 27  1  0
 27 28  2  0
 28 29  1  0
 29 30  2  0
 30 31  1  0
 21 32  2  0
  6 33  1  0
 33 34  1  0
 34 35  1  0
 35  4  1  0
 32  7  1  0
 19 10  1  0
 31 22  1  0
 18 13  1  0
 30 25  1  0
  1 36  1  0
  1 37  1  0
  1 38  1  0
  2 39  1  0
  2 40  1  0
  3 41  1  0
  4 42  1  6
  5 43  1  0
  5 44  1  0
 11 45  1  0
 11 46  1  0
 12 47  1  0
 12 48  1  0
 14 49  1  0
 15 50  1  0
 16 51  1  0
 17 52  1  0
 19 53  1  0
 19 54  1  0
 23 55  1  0
 23 56  1  0
 24 57  1  0
 24 58  1  0
 26 59  1  0
 27 60  1  0
 28 61  1  0
 29 62  1  0
 31 63  1  0
 31 64  1  0
 33 65  1  0
 33 66  1  0
 34 67  1  0
 34 68  1  0
M  END
>  <meeko>  (11) 
{"free_energy": -10.34, "intermolecular_energy": -11.83, "internal_energy": -1.02, "cluster_size": 19, "cluster_id": 1, "rank_in_cluster": 8}

$$$$

     RDKit          3D

 68 73  0  0  0  0  0  0  0  0999 V2000
  145.2200   67.6800  219.3270 C   0  0  0  0  0  0  0  0  0  0  0  0
  144.2230   68.8300  219.2800 C   0  0  0  0  0  0  0  0  0  0  0  0
  144.8710   70.0710  219.7310 N   0  0  0  0  0  0  0  0  0  0  0  0
  144.6640   71.1920  218.7960 C   0  0  1  0  0  0  0  0  0  0  0  0
  143.2020   71.7150  218.8970 C   0  0  0  0  0  0  0  0  0  0  0  0
  143.1610   73.0220  219.5680 N   0  0  0  0  0  0  0  0  0  0  0  0
  142.1530   73.3280  220.5520 C   0  0  0  0  0  0  0  0  0  0  0  0
  141.7240   72.3710  221.4160 N   0  0  0  0  0  0  0  0  0  0  0  0
  140.7420   72.6400  222.3170 C   0  0  0  0  0  0  0  0  0  0  0  0
  140.2840   71.6170  223.2240 N   0  0  0  0  0  0  0  0  0  0  0  0
  139.5790   70.4400  222.6810 C   0  0  0  0  0  0  0  0  0  0  0  0
  138.6920   69.7730  223.7320 C   0  0  0  0  0  0  0  0  0  0  0  0
  139.4830   69.4970  224.9730 C   0  0  0  0  0  0  0  0  0  0  0  0
  139.2690   68.3260  225.7170 C   0  0  0  0  0  0  0  0  0  0  0  0
  139.9890   68.1030  226.8940 C   0  0  0  0  0  0  0  0  0  0  0  0
  140.9100   69.0520  227.3420 C   0  0  0  0  0  0  0  0  0  0  0  0
  141.1150   70.2280  226.6140 C   0  0  0  0  0  0  0  0  0  0  0  0
  140.4120   70.4530  225.4200 C   0  0  0  0  0  0  0  0  0  0  0  0
  140.6010   71.7440  224.6610 C   0  0  0  0  0  0  0  0  0  0  0  0
  140.1820   73.8790  222.3380 N   0  0  0  0  0  0  0  0  0  0  0  0
  140.5970   74.8450  221.4780 C   0  0  0  0  0  0  0  0  0  0  0  0
  139.9700   76.1460  221.4830 N   0  0  0  0  0  0  0  0  0  0  0  0
  139.8270   76.9130  220.2430 C   0  0  0  0  0  0  0  0  0  0  0  0
  141.0160   77.8690  220.1160 C   0  0  0  0  0  0  0  0  0  0  0  0
  141.3250   78.5760  221.4210 C   0  0  0  0  0  0  0  0  0  0  0  0
  142.1940   79.6780  221.4070 C   0  0  0  0  0  0  0  0  0  0  0  0
  142.5460   80.3180  222.5990 C   0  0  0  0  0  0  0  0  0  0  0  0
  142.0380   79.8610  223.8160 C   0  0  0  0  0  0  0  0  0  0  0  0
  141.1800   78.7600  223.8480 C   0  0  0  0  0  0  0  0  0  0  0  0
  140.8330   78.0960  222.6620 C   0  0  0  0  0  0  0  0  0  0  0  0
  139.8680   76.9360  222.7160 C   0  0  0  0  0  0  0  0  0  0  0  0
  141.5840   74.5600  220.5910 N   0  0  0  0  0  0  0  0  0  0  0  0
  144.1420   74.0430  219.1840 C   0  0  0  0  0  0  0  0  0  0  0  0
  145.2850   73.4070  218.3910 C   0  0  0  0  0  0  0  0  0  0  0  0
  145.6580   72.1920  219.0060 O   0  0  0  0  0  0  0  0  0  0  0  0
  145.4391   67.4273  220.3749 H   0  0  0  0  0  0  0  0  0  0  0  0
  144.7919   66.8027  218.8200 H   0  0  0  0  0  0  0  0  0  0  0  0
  146.1492   67.9793  218.8200 H   0  0  0  0  0  0  0  0  0  0  0  0
  143.8638   68.9598  218.2484 H   0  0  0  0  0  0  0  0  0  0  0  0
  143.3748   68.6022  219.9423 H   0  0  0  0  0  0  0  0  0  0  0  0
  144.4520   70.3380  220.6520 H   0  0  0  0  0  0  0  0  0  0  0  0
  144.7890   70.8518  217.7574 H   0  0  0  0  0  0  0  0  0  0  0  0
  142.7843   71.8161  217.8844 H   0  0  0  0  0  0  0  0  0  0  0  0
  142.6106   70.9978  219.4851 H   0  0  0  0  0  0  0  0  0  0  0  0
  138.9509   70.7598  221.8365 H   0  0  0  0  0  0  0  0  0  0  0  0
  140.3345   69.7086  222.3581 H   0  0  0  0  0  0  0  0  0  0  0  0
  137.8527   70.4407  223.9765 H   0  0  0  0  0  0  0  0  0  0  0  0
  138.3098   68.8231  223.3300 H   0  0  0  0  0  0  0  0  0  0  0  0
  138.5340   67.5832  225.3734 H   0  0  0  0  0  0  0  0  0  0  0  0
  139.8298   67.1784  227.4683 H   0  0  0  0  0  0  0  0  0  0  0  0
  141.4750   68.8742  228.2689 H   0  0  0  0  0  0  0  0  0  0  0  0
  141.8302   70.9801  226.9785 H   0  0  0  0  0  0  0  0  0  0  0  0
  139.9429   72.5086  225.0995 H   0  0  0  0  0  0  0  0  0  0  0  0
  141.6621   72.0224  224.7418 H   0  0  0  0  0  0  0  0  0  0  0  0
  139.8105   76.2269  219.3834 H   0  0  0  0  0  0  0  0  0  0  0  0
  138.8874   77.4847  220.2627 H   0  0  0  0  0  0  0  0  0  0  0  0
  141.9012   77.2940  219.8065 H   0  0  0  0  0  0  0  0  0  0  0  0
  140.7551   78.6349  219.3708 H   0  0  0  0  0  0  0  0  0  0  0  0
  142.6009   80.0406  220.4515 H   0  0  0  0  0  0  0  0  0  0  0  0
  143.2247   81.1834  222.5777 H   0  0  0  0  0  0  0  0  0  0  0  0
  142.3141   80.3692  224.7517 H   0  0  0  0  0  0  0  0  0  0  0  0
  140.7737   78.4112  224.8089 H   0  0  0  0  0  0  0  0  0  0  0  0
  140.1110   76.2988  223.5791 H   0  0  0  0  0  0  0  0  0  0  0  0
  138.8426   77.3212  222.8165 H   0  0  0  0  0  0  0  0  0  0  0  0
  143.6488   74.8050  218.5626 H   0  0  0  0  0  0  0  0  0  0  0  0
  144.5514   74.5069  220.0935 H   0  0  0  0  0  0  0  0  0  0  0  0
  144.9533   73.2110  217.3607 H   0  0  0  0  0  0  0  0  0  0  0  0
  146.1464   74.0908  218.3720 H   0  0  0  0  0  0  0  0  0  0  0  0
  1  2  1  0
  2  3  1  0
  3  4  1  0
  4  5  1  0
  5  6  1  0
  6  7  1  0
  7  8  2  0
  8  9  1  0
  9 10  1  0
 10 11  1  0
 11 12  1  0
 12 13  1  0
 13 14  2  0
 14 15  1  0
 15 16  2  0
 16 17  1  0
 17 18  2  0
 18 19  1  0
  9 20  2  0
 20 21  1  0
 21 22  1  0
 22 23  1  0
 23 24  1  0
 24 25  1  0
 25 26  2  0
 26 27  1  0
 27 28  2  0
 28 29  1  0
 29 30  2  0
 30 31  1  0
 21 32  2  0
  6 33  1  0
 33 34  1  0
 34 35  1  0
 35  4  1  0
 32  7  1  0
 19 10  1  0
 31 22  1  0
 18 13  1  0
 30 25  1  0
  1 36  1  0
  1 37  1  0
  1 38  1  0
  2 39  1  0
  2 40  1  0
  3 41  1  0
  4 42  1  6
  5 43  1  0
  5 44  1  0
 11 45  1  0
 11 46  1  0
 12 47  1  0
 12 48  1  0
 14 49  1  0
 15 50  1  0
 16 51  1  0
 17 52  1  0
 19 53  1  0
 19 54  1  0
 23 55  1  0
 23 56  1  0
 24 57  1  0
 24 58  1  0
 26 59  1  0
 27 60  1  0
 28 61  1  0
 29 62  1  0
 31 63  1  0
 31 64  1  0
 33 65  1  0
 33 66  1  0
 34 67  1  0
 34 68  1  0
M  END
>  <meeko>  (12) 
{"free_energy": -10.3, "intermolecular_energy": -11.79, "internal_energy": -1.06, "cluster_size": 19, "cluster_id": 1, "rank_in_cluster": 9}

$$$$

     RDKit          3D

 68 73  0  0  0  0  0  0  0  0999 V2000
  143.0570   76.9760  217.2200 C   0  0  0  0  0  0  0  0  0  0  0  0
  143.3060   75.6990  218.0110 C   0  0  0  0  0  0  0  0  0  0  0  0
  144.1330   74.7750  217.2200 N   0  0  0  0  0  0  0  0  0  0  0  0
  144.7840   73.7440  218.0480 C   0  0  1  0  0  0  0  0  0  0  0  0
  144.4210   73.9470  219.5470 C   0  0  0  0  0  0  0  0  0  0  0  0
  143.4900   72.9040  220.0030 N   0  0  0  0  0  0  0  0  0  0  0  0
  142.3610   73.2210  220.8420 C   0  0  0  0  0  0  0  0  0  0  0  0
  141.8440   72.2830  221.6780 N   0  0  0  0  0  0  0  0  0  0  0  0
  140.7530   72.5600  222.4400 C   0  0  0  0  0  0  0  0  0  0  0  0
  140.2010   71.5570  223.3170 N   0  0  0  0  0  0  0  0  0  0  0  0
  139.2790   70.5470  222.7630 C   0  0  0  0  0  0  0  0  0  0  0  0
  138.3730   69.9510  223.8400 C   0  0  0  0  0  0  0  0  0  0  0  0
  139.1960   69.4650  224.9930 C   0  0  0  0  0  0  0  0  0  0  0  0
  138.8500   68.2900  225.6780 C   0  0  0  0  0  0  0  0  0  0  0  0
  139.6070   67.8710  226.7770 C   0  0  0  0  0  0  0  0  0  0  0  0
  140.6990   68.6290  227.2040 C   0  0  0  0  0  0  0  0  0  0  0  0
  141.0380   69.8090  226.5360 C   0  0  0  0  0  0  0  0  0  0  0  0
  140.2970   70.2290  225.4190 C   0  0  0  0  0  0  0  0  0  0  0  0
  140.6370   71.5270  224.7280 C   0  0  0  0  0  0  0  0  0  0  0  0
  140.1730   73.7870  222.3490 N   0  0  0  0  0  0  0  0  0  0  0  0
  140.6760   74.7340  221.5150 C   0  0  0  0  0  0  0  0  0  0  0  0
  140.0320   76.0210  221.3970 N   0  0  0  0  0  0  0  0  0  0  0  0
  139.9850   76.7200  220.1100 C   0  0  0  0  0  0  0  0  0  0  0  0
  141.1660   77.6900  220.0330 C   0  0  0  0  0  0  0  0  0  0  0  0
  141.3510   78.4700  221.3210 C   0  0  0  0  0  0  0  0  0  0  0  0
  142.2010   79.5870  221.3210 C   0  0  0  0  0  0  0  0  0  0  0  0
  142.4410   80.2940  222.5030 C   0  0  0  0  0  0  0  0  0  0  0  0
  141.8370   79.8910  223.6950 C   0  0  0  0  0  0  0  0  0  0  0  0
  140.9960   78.7770  223.7130 C   0  0  0  0  0  0  0  0  0  0  0  0
  140.7610   78.0460  222.5390 C   0  0  0  0  0  0  0  0  0  0  0  0
  139.8130   76.8710  222.5730 C   0  0  0  0  0  0  0  0  0  0  0  0
  141.7710   74.4410  220.7680 N   0  0  0  0  0  0  0  0  0  0  0  0
  143.7550   71.5100  219.6300 C   0  0  0  0  0  0  0  0  0  0  0  0
  144.7820   71.4510  218.4970 C   0  0  0  0  0  0  0  0  0  0  0  0
  144.4780   72.4470  217.5430 O   0  0  0  0  0  0  0  0  0  0  0  0
  142.8939   77.8123  217.9157 H   0  0  0  0  0  0  0  0  0  0  0  0
  143.9301   77.1910  216.5864 H   0  0  0  0  0  0  0  0  0  0  0  0
  142.1671   76.8472  216.5864 H   0  0  0  0  0  0  0  0  0  0  0  0
  143.8280   75.9456  218.9474 H   0  0  0  0  0  0  0  0  0  0  0  0
  142.3425   75.2194  218.2384 H   0  0  0  0  0  0  0  0  0  0  0  0
  143.5080   74.2900  216.5340 H   0  0  0  0  0  0  0  0  0  0  0  0
  145.8780   73.8425  217.9897 H   0  0  0  0  0  0  0  0  0  0  0  0
  145.3395   73.8998  220.1504 H   0  0  0  0  0  0  0  0  0  0  0  0
  143.9372   74.9280  219.6637 H   0  0  0  0  0  0  0  0  0  0  0  0
  138.6522   71.0216  221.9936 H   0  0  0  0  0  0  0  0  0  0  0  0
  139.8823   69.7324  222.3358 H   0  0  0  0  0  0  0  0  0  0  0  0
  137.6716   70.7214  224.1927 H   0  0  0  0  0  0  0  0  0  0  0  0
  137.8151   69.1044  223.4134 H   0  0  0  0  0  0  0  0  0  0  0  0
  137.9827   67.6980  225.3503 H   0  0  0  0  0  0  0  0  0  0  0  0
  139.3417   66.9434  227.3054 H   0  0  0  0  0  0  0  0  0  0  0  0
  141.2937   68.2969  228.0678 H   0  0  0  0  0  0  0  0  0  0  0  0
  141.8889   70.4115  226.8866 H   0  0  0  0  0  0  0  0  0  0  0  0
  140.1442   72.3506  225.2655 H   0  0  0  0  0  0  0  0  0  0  0  0
  141.7321   71.6299  224.7379 H   0  0  0  0  0  0  0  0  0  0  0  0
  140.0520   75.9899  219.2900 H   0  0  0  0  0  0  0  0  0  0  0  0
  139.0392   77.2744  220.0198 H   0  0  0  0  0  0  0  0  0  0  0  0
  142.0828   77.1167  219.8311 H   0  0  0  0  0  0  0  0  0  0  0  0
  140.9595   78.4107  219.2281 H   0  0  0  0  0  0  0  0  0  0  0  0
  142.6814   79.9082  220.3850 H   0  0  0  0  0  0  0  0  0  0  0  0
  143.1070   81.1694  222.4936 H   0  0  0  0  0  0  0  0  0  0  0  0
  142.0241   80.4524  224.6223 H   0  0  0  0  0  0  0  0  0  0  0  0
  140.5147   78.4705  224.6534 H   0  0  0  0  0  0  0  0  0  0  0  0
  139.9916   76.2841  223.4861 H   0  0  0  0  0  0  0  0  0  0  0  0
  138.7768   77.2402  222.5662 H   0  0  0  0  0  0  0  0  0  0  0  0
  144.1467   70.9685  220.5037 H   0  0  0  0  0  0  0  0  0  0  0  0
  142.8179   71.0459  219.2889 H   0  0  0  0  0  0  0  0  0  0  0  0
  145.7890   71.6260  218.9036 H   0  0  0  0  0  0  0  0  0  0  0  0
  144.7501   70.4602  218.0202 H   0  0  0  0  0  0  0  0  0  0  0  0
  1  2  1  0
  2  3  1  0
  3  4  1  0
  4  5  1  0
  5  6  1  0
  6  7  1  0
  7  8  2  0
  8  9  1  0
  9 10  1  0
 10 11  1  0
 11 12  1  0
 12 13  1  0
 13 14  2  0
 14 15  1  0
 15 16  2  0
 16 17  1  0
 17 18  2  0
 18 19  1  0
  9 20  2  0
 20 21  1  0
 21 22  1  0
 22 23  1  0
 23 24  1  0
 24 25  1  0
 25 26  2  0
 26 27  1  0
 27 28  2  0
 28 29  1  0
 29 30  2  0
 30 31  1  0
 21 32  2  0
  6 33  1  0
 33 34  1  0
 34 35  1  0
 35  4  1  0
 32  7  1  0
 19 10  1  0
 31 22  1  0
 18 13  1  0
 30 25  1  0
  1 36  1  0
  1 37  1  0
  1 38  1  0
  2 39  1  0
  2 40  1  0
  3 41  1  0
  4 42  1  1
  5 43  1  0
  5 44  1  0
 11 45  1  0
 11 46  1  0
 12 47  1  0
 12 48  1  0
 14 49  1  0
 15 50  1  0
 16 51  1  0
 17 52  1  0
 19 53  1  0
 19 54  1  0
 23 55  1  0
 23 56  1  0
 24 57  1  0
 24 58  1  0
 26 59  1  0
 27 60  1  0
 28 61  1  0
 29 62  1  0
 31 63  1  0
 31 64  1  0
 33 65  1  0
 33 66  1  0
 34 67  1  0
 34 68  1  0
M  END
>  <meeko>  (13) 
{"free_energy": -9.07, "intermolecular_energy": -10.56, "internal_energy": -1.39, "cluster_size": 19, "cluster_id": 1, "rank_in_cluster": 18}

$$$$

     RDKit          3D

 68 73  0  0  0  0  0  0  0  0999 V2000
  146.2840   74.4540  215.9710 C   0  0  0  0  0  0  0  0  0  0  0  0
  144.8010   74.8010  215.9840 C   0  0  0  0  0  0  0  0  0  0  0  0
  144.2900   74.7550  217.3620 N   0  0  0  0  0  0  0  0  0  0  0  0
  144.8590   73.6420  218.1420 C   0  0  1  0  0  0  0  0  0  0  0  0
  144.4740   73.7820  219.6430 C   0  0  0  0  0  0  0  0  0  0  0  0
  143.4720   72.7750  220.0200 N   0  0  0  0  0  0  0  0  0  0  0  0
  142.3460   73.1130  220.8550 C   0  0  0  0  0  0  0  0  0  0  0  0
  141.8260   72.1950  221.7100 N   0  0  0  0  0  0  0  0  0  0  0  0
  140.7360   72.4910  222.4680 C   0  0  0  0  0  0  0  0  0  0  0  0
  140.1820   71.5080  223.3660 N   0  0  0  0  0  0  0  0  0  0  0  0
  139.2470   70.4980  222.8360 C   0  0  0  0  0  0  0  0  0  0  0  0
  138.3440   69.9290  223.9290 C   0  0  0  0  0  0  0  0  0  0  0  0
  139.1710   69.4550  225.0850 C   0  0  0  0  0  0  0  0  0  0  0  0
  138.8190   68.2950  225.7930 C   0  0  0  0  0  0  0  0  0  0  0  0
  139.5800   67.8890  226.8930 C   0  0  0  0  0  0  0  0  0  0  0  0
  140.6820   68.6450  227.3000 C   0  0  0  0  0  0  0  0  0  0  0  0
  141.0260   69.8100  226.6090 C   0  0  0  0  0  0  0  0  0  0  0  0
  140.2810   70.2170  225.4910 C   0  0  0  0  0  0  0  0  0  0  0  0
  140.6270   71.4990  224.7740 C   0  0  0  0  0  0  0  0  0  0  0  0
  140.1610   73.7180  222.3520 N   0  0  0  0  0  0  0  0  0  0  0  0
  140.6670   74.6460  221.4980 C   0  0  0  0  0  0  0  0  0  0  0  0
  140.0270   75.9320  221.3540 N   0  0  0  0  0  0  0  0  0  0  0  0
  140.0210   76.6260  220.0640 C   0  0  0  0  0  0  0  0  0  0  0  0
  141.2040   77.5960  220.0210 C   0  0  0  0  0  0  0  0  0  0  0  0
  141.3490   78.3810  221.3100 C   0  0  0  0  0  0  0  0  0  0  0  0
  142.1990   79.4980  221.3340 C   0  0  0  0  0  0  0  0  0  0  0  0
  142.4000   80.2100  222.5190 C   0  0  0  0  0  0  0  0  0  0  0  0
  141.7590   79.8110  223.6940 C   0  0  0  0  0  0  0  0  0  0  0  0
  140.9170   78.6980  223.6890 C   0  0  0  0  0  0  0  0  0  0  0  0
  140.7200   77.9620  222.5100 C   0  0  0  0  0  0  0  0  0  0  0  0
  139.7710   76.7880  222.5180 C   0  0  0  0  0  0  0  0  0  0  0  0
  141.7600   74.3340  220.7560 N   0  0  0  0  0  0  0  0  0  0  0  0
  143.6610   71.3900  219.5740 C   0  0  0  0  0  0  0  0  0  0  0  0
  144.7080   71.3320  218.4600 C   0  0  0  0  0  0  0  0  0  0  0  0
  144.4870   72.3970  217.5580 O   0  0  0  0  0  0  0  0  0  0  0  0
  146.6496   74.3685  217.0049 H   0  0  0  0  0  0  0  0  0  0  0  0
  146.4321   73.4970  215.4493 H   0  0  0  0  0  0  0  0  0  0  0  0
  146.8413   75.2460  215.4493 H   0  0  0  0  0  0  0  0  0  0  0  0
  144.6592   75.8125  215.5757 H   0  0  0  0  0  0  0  0  0  0  0  0
  144.2524   74.0724  215.3690 H   0  0  0  0  0  0  0  0  0  0  0  0
  144.5570   75.6500  217.8350 H   0  0  0  0  0  0  0  0  0  0  0  0
  145.9580   73.6771  218.1108 H   0  0  0  0  0  0  0  0  0  0  0  0
  145.3738   73.6445  220.2606 H   0  0  0  0  0  0  0  0  0  0  0  0
  144.0474   74.7827  219.8061 H   0  0  0  0  0  0  0  0  0  0  0  0
  138.6189   70.9655  222.0633 H   0  0  0  0  0  0  0  0  0  0  0  0
  139.8395   69.6707  222.4182 H   0  0  0  0  0  0  0  0  0  0  0  0
  137.6521   70.7117  224.2734 H   0  0  0  0  0  0  0  0  0  0  0  0
  137.7757   69.0802  223.5209 H   0  0  0  0  0  0  0  0  0  0  0  0
  137.9440   67.7053  225.4820 H   0  0  0  0  0  0  0  0  0  0  0  0
  139.3107   66.9728  227.4390 H   0  0  0  0  0  0  0  0  0  0  0  0
  141.2797   68.3229  228.1654 H   0  0  0  0  0  0  0  0  0  0  0  0
  141.8847   70.4110  226.9428 H   0  0  0  0  0  0  0  0  0  0  0  0
  140.1449   72.3363  225.2998 H   0  0  0  0  0  0  0  0  0  0  0  0
  141.7231   71.5920  224.7744 H   0  0  0  0  0  0  0  0  0  0  0  0
  140.1141   75.8929  219.2492 H   0  0  0  0  0  0  0  0  0  0  0  0
  139.0785   77.1799  219.9417 H   0  0  0  0  0  0  0  0  0  0  0  0
  142.1266   77.0219  219.8503 H   0  0  0  0  0  0  0  0  0  0  0  0
  141.0224   78.3138  219.2075 H   0  0  0  0  0  0  0  0  0  0  0  0
  142.7104   79.8149  220.4131 H   0  0  0  0  0  0  0  0  0  0  0  0
  143.0644   81.0866  222.5267 H   0  0  0  0  0  0  0  0  0  0  0  0
  141.9181   80.3750  224.6249 H   0  0  0  0  0  0  0  0  0  0  0  0
  140.4048   78.3957  224.6143 H   0  0  0  0  0  0  0  0  0  0  0  0
  139.9192   76.2053  223.4391 H   0  0  0  0  0  0  0  0  0  0  0  0
  138.7360   77.1582  222.4752 H   0  0  0  0  0  0  0  0  0  0  0  0
  143.9994   70.7778  220.4230 H   0  0  0  0  0  0  0  0  0  0  0  0
  142.7058   71.0032  219.1894 H   0  0  0  0  0  0  0  0  0  0  0  0
  145.7140   71.4218  218.8957 H   0  0  0  0  0  0  0  0  0  0  0  0
  144.6270   70.3734  217.9266 H   0  0  0  0  0  0  0  0  0  0  0  0
  1  2  1  0
  2  3  1  0
  3  4  1  0
  4  5  1  0
  5  6  1  0
  6  7  1  0
  7  8  2  0
  8  9  1  0
  9 10  1  0
 10 11  1  0
 11 12  1  0
 12 13  1  0
 13 14  2  0
 14 15  1  0
 15 16  2  0
 16 17  1  0
 17 18  2  0
 18 19  1  0
  9 20  2  0
 20 21  1  0
 21 22  1  0
 22 23  1  0
 23 24  1  0
 24 25  1  0
 25 26  2  0
 26 27  1  0
 27 28  2  0
 28 29  1  0
 29 30  2  0
 30 31  1  0
 21 32  2  0
  6 33  1  0
 33 34  1  0
 34 35  1  0
 35  4  1  0
 32  7  1  0
 19 10  1  0
 31 22  1  0
 18 13  1  0
 30 25  1  0
  1 36  1  0
  1 37  1  0
  1 38  1  0
  2 39  1  0
  2 40  1  0
  3 41  1  0
  4 42  1  1
  5 43  1  0
  5 44  1  0
 11 45  1  0
 11 46  1  0
 12 47  1  0
 12 48  1  0
 14 49  1  0
 15 50  1  0
 16 51  1  0
 17 52  1  0
 19 53  1  0
 19 54  1  0
 23 55  1  0
 23 56  1  0
 24 57  1  0
 24 58  1  0
 26 59  1  0
 27 60  1  0
 28 61  1  0
 29 62  1  0
 31 63  1  0
 31 64  1  0
 33 65  1  0
 33 66  1  0
 34 67  1  0
 34 68  1  0
M  END
>  <meeko>  (14) 
{"free_energy": -9.42, "intermolecular_energy": -10.91, "internal_energy": -1.08, "cluster_size": 19, "cluster_id": 1, "rank_in_cluster": 17}

$$$$

     RDKit          3D

 68 73  0  0  0  0  0  0  0  0999 V2000
  146.6680   73.3900  222.2060 C   0  0  0  0  0  0  0  0  0  0  0  0
  145.6790   73.5830  221.0640 C   0  0  0  0  0  0  0  0  0  0  0  0
  146.3320   73.2730  219.7820 N   0  0  0  0  0  0  0  0  0  0  0  0
  145.3920   72.7460  218.7780 C   0  0  1  0  0  0  0  0  0  0  0  0
  144.1250   72.1720  219.4750 C   0  0  0  0  0  0  0  0  0  0  0  0
  142.9670   73.0500  219.2560 N   0  0  0  0  0  0  0  0  0  0  0  0
  142.0460   73.3570  220.3230 C   0  0  0  0  0  0  0  0  0  0  0  0
  141.6770   72.3950  221.2080 N   0  0  0  0  0  0  0  0  0  0  0  0
  140.7750   72.6640  222.1890 C   0  0  0  0  0  0  0  0  0  0  0  0
  140.3790   71.6360  223.1200 N   0  0  0  0  0  0  0  0  0  0  0  0
  139.8210   70.3740  222.5990 C   0  0  0  0  0  0  0  0  0  0  0  0
  138.9580   69.6620  223.6400 C   0  0  0  0  0  0  0  0  0  0  0  0
  139.7130   69.5160  224.9240 C   0  0  0  0  0  0  0  0  0  0  0  0
  139.5830   68.3590  225.7090 C   0  0  0  0  0  0  0  0  0  0  0  0
  140.2660   68.2560  226.9240 C   0  0  0  0  0  0  0  0  0  0  0  0
  141.0670   69.3110  227.3680 C   0  0  0  0  0  0  0  0  0  0  0  0
  141.1870   70.4720  226.5990 C   0  0  0  0  0  0  0  0  0  0  0  0
  140.5210   70.5780  225.3680 C   0  0  0  0  0  0  0  0  0  0  0  0
  140.6160   71.8510  224.5620 C   0  0  0  0  0  0  0  0  0  0  0  0
  140.2350   73.9090  222.2700 N   0  0  0  0  0  0  0  0  0  0  0  0
  140.5900   74.8810  221.3890 C   0  0  0  0  0  0  0  0  0  0  0  0
  139.9820   76.1890  221.4590 N   0  0  0  0  0  0  0  0  0  0  0  0
  139.8050   76.9980  220.2510 C   0  0  0  0  0  0  0  0  0  0  0  0
  141.0020   77.9420  220.1100 C   0  0  0  0  0  0  0  0  0  0  0  0
  141.3680   78.6020  221.4260 C   0  0  0  0  0  0  0  0  0  0  0  0
  142.2510   79.6930  221.4150 C   0  0  0  0  0  0  0  0  0  0  0  0
  142.6560   80.2890  222.6120 C   0  0  0  0  0  0  0  0  0  0  0  0
  142.1870   79.7980  223.8330 C   0  0  0  0  0  0  0  0  0  0  0  0
  141.3150   78.7080  223.8610 C   0  0  0  0  0  0  0  0  0  0  0  0
  140.9150   78.0880  222.6670 C   0  0  0  0  0  0  0  0  0  0  0  0
  139.9370   76.9390  222.7200 C   0  0  0  0  0  0  0  0  0  0  0  0
  141.4980   74.5950  220.4210 N   0  0  0  0  0  0  0  0  0  0  0  0
  142.7260   73.5780  217.9080 C   0  0  0  0  0  0  0  0  0  0  0  0
  143.9740   73.4010  217.0410 C   0  0  0  0  0  0  0  0  0  0  0  0
  145.1170   73.7410  217.7960 O   0  0  0  0  0  0  0  0  0  0  0  0
  146.1429   73.4925  223.1671 H   0  0  0  0  0  0  0  0  0  0  0  0
  147.1157   72.3875  222.1379 H   0  0  0  0  0  0  0  0  0  0  0  0
  147.4598   74.1506  222.1379 H   0  0  0  0  0  0  0  0  0  0  0  0
  144.8194   72.9118  221.2078 H   0  0  0  0  0  0  0  0  0  0  0  0
  145.3353   74.6279  221.0535 H   0  0  0  0  0  0  0  0  0  0  0  0
  146.7410   74.1610  219.4070 H   0  0  0  0  0  0  0  0  0  0  0  0
  145.8453   71.9022  218.2372 H   0  0  0  0  0  0  0  0  0  0  0  0
  143.9060   71.1762  219.0622 H   0  0  0  0  0  0  0  0  0  0  0  0
  144.3170   72.1041  220.5560 H   0  0  0  0  0  0  0  0  0  0  0  0
  139.2035   70.5955  221.7160 H   0  0  0  0  0  0  0  0  0  0  0  0
  140.6595   69.7112  222.3391 H   0  0  0  0  0  0  0  0  0  0  0  0
  138.0459   70.2500  223.8196 H   0  0  0  0  0  0  0  0  0  0  0  0
  138.6925   68.6630  223.2639 H   0  0  0  0  0  0  0  0  0  0  0  0
  138.9426   67.5325  225.3672 H   0  0  0  0  0  0  0  0  0  0  0  0
  140.1728   67.3435  227.5312 H   0  0  0  0  0  0  0  0  0  0  0  0
  141.6041   69.2278  228.3243 H   0  0  0  0  0  0  0  0  0  0  0  0
  141.8062   71.3064  226.9602 H   0  0  0  0  0  0  0  0  0  0  0  0
  139.8662   72.5621  224.9390 H   0  0  0  0  0  0  0  0  0  0  0  0
  141.6395   72.2381  224.6747 H   0  0  0  0  0  0  0  0  0  0  0  0
  139.7469   76.3406  219.3710 H   0  0  0  0  0  0  0  0  0  0  0  0
  138.8754   77.5814  220.3247 H   0  0  0  0  0  0  0  0  0  0  0  0
  141.8671   77.3660  219.7496 H   0  0  0  0  0  0  0  0  0  0  0  0
  140.7256   78.7349  219.3994 H   0  0  0  0  0  0  0  0  0  0  0  0
  142.6269   80.0816  220.4570 H   0  0  0  0  0  0  0  0  0  0  0  0
  143.3452   81.1461  222.5930 H   0  0  0  0  0  0  0  0  0  0  0  0
  142.5052   80.2709  224.7738 H   0  0  0  0  0  0  0  0  0  0  0  0
  140.9393   78.3329  224.8244 H   0  0  0  0  0  0  0  0  0  0  0  0
  140.2035   76.2707  223.5521 H   0  0  0  0  0  0  0  0  0  0  0  0
  138.9214   77.3333  222.8719 H   0  0  0  0  0  0  0  0  0  0  0  0
  141.8855   73.0358  217.4502 H   0  0  0  0  0  0  0  0  0  0  0  0
  142.4872   74.6494  217.9793 H   0  0  0  0  0  0  0  0  0  0  0  0
  144.0482   72.3537  216.7129 H   0  0  0  0  0  0  0  0  0  0  0  0
  143.9064   74.0548  216.1590 H   0  0  0  0  0  0  0  0  0  0  0  0
  1  2  1  0
  2  3  1  0
  3  4  1  0
  4  5  1  0
  5  6  1  0
  6  7  1  0
  7  8  2  0
  8  9  1  0
  9 10  1  0
 10 11  1  0
 11 12  1  0
 12 13  1  0
 13 14  2  0
 14 15  1  0
 15 16  2  0
 16 17  1  0
 17 18  2  0
 18 19  1  0
  9 20  2  0
 20 21  1  0
 21 22  1  0
 22 23  1  0
 23 24  1  0
 24 25  1  0
 25 26  2  0
 26 27  1  0
 27 28  2  0
 28 29  1  0
 29 30  2  0
 30 31  1  0
 21 32  2  0
  6 33  1  0
 33 34  1  0
 34 35  1  0
 35  4  1  0
 32  7  1  0
 19 10  1  0
 31 22  1  0
 18 13  1  0
 30 25  1  0
  1 36  1  0
  1 37  1  0
  1 38  1  0
  2 39  1  0
  2 40  1  0
  3 41  1  0
  4 42  1  6
  5 43  1  0
  5 44  1  0
 11 45  1  0
 11 46  1  0
 12 47  1  0
 12 48  1  0
 14 49  1  0
 15 50  1  0
 16 51  1  0
 17 52  1  0
 19 53  1  0
 19 54  1  0
 23 55  1  0
 23 56  1  0
 24 57  1  0
 24 58  1  0
 26 59  1  0
 27 60  1  0
 28 61  1  0
 29 62  1  0
 31 63  1  0
 31 64  1  0
 33 65  1  0
 33 66  1  0
 34 67  1  0
 34 68  1  0
M  END
>  <meeko>  (15) 
{"free_energy": -10.6, "intermolecular_energy": -12.09, "internal_energy": -1.2, "cluster_size": 19, "cluster_id": 1, "rank_in_cluster": 5}

$$$$

     RDKit          3D

 68 73  0  0  0  0  0  0  0  0999 V2000
  146.6970   73.3880  222.3050 C   0  0  0  0  0  0  0  0  0  0  0  0
  145.7400   73.7540  221.1780 C   0  0  0  0  0  0  0  0  0  0  0  0
  146.3270   73.3750  219.8830 N   0  0  0  0  0  0  0  0  0  0  0  0
  145.5420   72.3430  219.1830 C   0  0  1  0  0  0  0  0  0  0  0  0
  144.4160   71.8010  220.1100 C   0  0  0  0  0  0  0  0  0  0  0  0
  143.1000   72.2840  219.6690 N   0  0  0  0  0  0  0  0  0  0  0  0
  142.1150   72.7480  220.6140 C   0  0  0  0  0  0  0  0  0  0  0  0
  141.6940   71.9370  221.6190 N   0  0  0  0  0  0  0  0  0  0  0  0
  140.7330   72.3500  222.4880 C   0  0  0  0  0  0  0  0  0  0  0  0
  140.2830   71.4810  223.5470 N   0  0  0  0  0  0  0  0  0  0  0  0
  139.5930   70.2240  223.1990 C   0  0  0  0  0  0  0  0  0  0  0  0
  138.7100   69.7240  224.3410 C   0  0  0  0  0  0  0  0  0  0  0  0
  139.4990   69.6610  225.6120 C   0  0  0  0  0  0  0  0  0  0  0  0
  139.2960   68.6220  226.5340 C   0  0  0  0  0  0  0  0  0  0  0  0
  140.0130   68.5990  227.7340 C   0  0  0  0  0  0  0  0  0  0  0  0
  140.9220   69.6190  228.0250 C   0  0  0  0  0  0  0  0  0  0  0  0
  141.1170   70.6650  227.1180 C   0  0  0  0  0  0  0  0  0  0  0  0
  140.4150   70.6870  225.9020 C   0  0  0  0  0  0  0  0  0  0  0  0
  140.5930   71.8410  224.9450 C   0  0  0  0  0  0  0  0  0  0  0  0
  140.1870   73.5860  222.3340 N   0  0  0  0  0  0  0  0  0  0  0  0
  140.5940   74.4070  221.3310 C   0  0  0  0  0  0  0  0  0  0  0  0
  139.9810   75.7020  221.1510 N   0  0  0  0  0  0  0  0  0  0  0  0
  140.0350   76.3830  219.8560 C   0  0  0  0  0  0  0  0  0  0  0  0
  141.2340   77.3350  219.8500 C   0  0  0  0  0  0  0  0  0  0  0  0
  141.3420   78.1290  221.1370 C   0  0  0  0  0  0  0  0  0  0  0  0
  142.2080   79.2320  221.1830 C   0  0  0  0  0  0  0  0  0  0  0  0
  142.3760   79.9520  222.3690 C   0  0  0  0  0  0  0  0  0  0  0  0
  141.6840   79.5750  223.5220 C   0  0  0  0  0  0  0  0  0  0  0  0
  140.8260   78.4750  223.4950 C   0  0  0  0  0  0  0  0  0  0  0  0
  140.6620   77.7310  222.3160 C   0  0  0  0  0  0  0  0  0  0  0  0
  139.6940   76.5720  222.2980 C   0  0  0  0  0  0  0  0  0  0  0  0
  141.5600   73.9790  220.4780 N   0  0  0  0  0  0  0  0  0  0  0  0
  142.7760   72.2400  218.2380 C   0  0  0  0  0  0  0  0  0  0  0  0
  144.0480   72.0330  217.4140 C   0  0  0  0  0  0  0  0  0  0  0  0
  145.0770   72.8480  217.9340 O   0  0  0  0  0  0  0  0  0  0  0  0
  146.2106   73.5740  223.2739 H   0  0  0  0  0  0  0  0  0  0  0  0
  146.9649   72.3239  222.2275 H   0  0  0  0  0  0  0  0  0  0  0  0
  147.6066   74.0017  222.2275 H   0  0  0  0  0  0  0  0  0  0  0  0
  144.7890   73.2193  221.3184 H   0  0  0  0  0  0  0  0  0  0  0  0
  145.5606   74.8392  221.1918 H   0  0  0  0  0  0  0  0  0  0  0  0
  146.3510   74.2290  219.2780 H   0  0  0  0  0  0  0  0  0  0  0  0
  146.1764   71.4766  218.9445 H   0  0  0  0  0  0  0  0  0  0  0  0
  144.4244   70.7014  220.0827 H   0  0  0  0  0  0  0  0  0  0  0  0
  144.5986   72.1598  221.1337 H   0  0  0  0  0  0  0  0  0  0  0  0
  138.9645   70.3968  222.3129 H   0  0  0  0  0  0  0  0  0  0  0  0
  140.3579   69.4591  222.9994 H   0  0  0  0  0  0  0  0  0  0  0  0
  137.8618   70.4119  224.4730 H   0  0  0  0  0  0  0  0  0  0  0  0
  138.3408   68.7171  224.0962 H   0  0  0  0  0  0  0  0  0  0  0  0
  138.5716   67.8246  226.3119 H   0  0  0  0  0  0  0  0  0  0  0  0
  139.8613   67.7773  228.4494 H   0  0  0  0  0  0  0  0  0  0  0  0
  141.4854   69.5992  228.9695 H   0  0  0  0  0  0  0  0  0  0  0  0
  141.8230   71.4738  227.3578 H   0  0  0  0  0  0  0  0  0  0  0  0
  139.9251   72.6588  225.2532 H   0  0  0  0  0  0  0  0  0  0  0  0
  141.6508   72.1405  224.9820 H   0  0  0  0  0  0  0  0  0  0  0  0
  140.1481   75.6407  219.0522 H   0  0  0  0  0  0  0  0  0  0  0  0
  139.1065   76.9496  219.6922 H   0  0  0  0  0  0  0  0  0  0  0  0
  142.1535   76.7456  219.7193 H   0  0  0  0  0  0  0  0  0  0  0  0
  141.0945   78.0482  219.0242 H   0  0  0  0  0  0  0  0  0  0  0  0
  142.7586   79.5322  220.2792 H   0  0  0  0  0  0  0  0  0  0  0  0
  143.0546   80.8173  222.3944 H   0  0  0  0  0  0  0  0  0  0  0  0
  141.8156   80.1461  224.4529 H   0  0  0  0  0  0  0  0  0  0  0  0
  140.2748   78.1891  224.4030 H   0  0  0  0  0  0  0  0  0  0  0  0
  139.7977   75.9951  223.2288 H   0  0  0  0  0  0  0  0  0  0  0  0
  138.6673   76.9577  222.2133 H   0  0  0  0  0  0  0  0  0  0  0  0
  142.0810   71.4087  218.0483 H   0  0  0  0  0  0  0  0  0  0  0  0
  142.3106   73.1930  217.9461 H   0  0  0  0  0  0  0  0  0  0  0  0
  144.3528   70.9774  217.4670 H   0  0  0  0  0  0  0  0  0  0  0  0
  143.8567   72.3043  216.3653 H   0  0  0  0  0  0  0  0  0  0  0  0
  1  2  1  0
  2  3  1  0
  3  4  1  0
  4  5  1  0
  5  6  1  0
  6  7  1  0
  7  8  2  0
  8  9  1  0
  9 10  1  0
 10 11  1  0
 11 12  1  0
 12 13  1  0
 13 14  2  0
 14 15  1  0
 15 16  2  0
 16 17  1  0
 17 18  2  0
 18 19  1  0
  9 20  2  0
 20 21  1  0
 21 22  1  0
 22 23  1  0
 23 24  1  0
 24 25  1  0
 25 26  2  0
 26 27  1  0
 27 28  2  0
 28 29  1  0
 29 30  2  0
 30 31  1  0
 21 32  2  0
  6 33  1  0
 33 34  1  0
 34 35  1  0
 35  4  1  0
 32  7  1  0
 19 10  1  0
 31 22  1  0
 18 13  1  0
 30 25  1  0
  1 36  1  0
  1 37  1  0
  1 38  1  0
  2 39  1  0
  2 40  1  0
  3 41  1  0
  4 42  1  6
  5 43  1  0
  5 44  1  0
 11 45  1  0
 11 46  1  0
 12 47  1  0
 12 48  1  0
 14 49  1  0
 15 50  1  0
 16 51  1  0
 17 52  1  0
 19 53  1  0
 19 54  1  0
 23 55  1  0
 23 56  1  0
 24 57  1  0
 24 58  1  0
 26 59  1  0
 27 60  1  0
 28 61  1  0
 29 62  1  0
 31 63  1  0
 31 64  1  0
 33 65  1  0
 33 66  1  0
 34 67  1  0
 34 68  1  0
M  END
>  <meeko>  (16) 
{"free_energy": -10.68, "intermolecular_energy": -12.17, "internal_energy": -1.19, "cluster_size": 19, "cluster_id": 1, "rank_in_cluster": 2}

$$$$

     RDKit          3D

 68 73  0  0  0  0  0  0  0  0999 V2000
  144.5760   68.4840  219.7150 C   0  0  0  0  0  0  0  0  0  0  0  0
  144.1000   69.9300  219.7060 C   0  0  0  0  0  0  0  0  0  0  0  0
  144.3240   70.5210  218.3770 N   0  0  0  0  0  0  0  0  0  0  0  0
  144.8980   71.8760  218.4470 C   0  0  1  0  0  0  0  0  0  0  0  0
  143.7760   72.9260  218.6880 C   0  0  0  0  0  0  0  0  0  0  0  0
  143.8410   73.4520  220.0590 N   0  0  0  0  0  0  0  0  0  0  0  0
  142.6480   73.6460  220.8460 C   0  0  0  0  0  0  0  0  0  0  0  0
  142.1220   72.6170  221.5600 N   0  0  0  0  0  0  0  0  0  0  0  0
  140.9730   72.7800  222.2680 C   0  0  0  0  0  0  0  0  0  0  0  0
  140.4130   71.6810  223.0150 N   0  0  0  0  0  0  0  0  0  0  0  0
  139.6770   70.6240  222.2950 C   0  0  0  0  0  0  0  0  0  0  0  0
  138.7020   69.8850  223.2100 C   0  0  0  0  0  0  0  0  0  0  0  0
  139.4100   69.4110  224.4420 C   0  0  0  0  0  0  0  0  0  0  0  0
  139.0960   68.1710  225.0200 C   0  0  0  0  0  0  0  0  0  0  0  0
  139.7390   67.7610  226.1910 C   0  0  0  0  0  0  0  0  0  0  0  0
  140.6840   68.5910  226.7980 C   0  0  0  0  0  0  0  0  0  0  0  0
  140.9890   69.8340  226.2360 C   0  0  0  0  0  0  0  0  0  0  0  0
  140.3630   70.2480  225.0490 C   0  0  0  0  0  0  0  0  0  0  0  0
  140.6600   71.6090  224.4690 C   0  0  0  0  0  0  0  0  0  0  0  0
  140.3450   73.9860  222.2450 N   0  0  0  0  0  0  0  0  0  0  0  0
  140.8560   75.0240  221.5330 C   0  0  0  0  0  0  0  0  0  0  0  0
  140.1620   76.2890  221.4840 N   0  0  0  0  0  0  0  0  0  0  0  0
  140.0410   77.0290  220.2260 C   0  0  0  0  0  0  0  0  0  0  0  0
  141.1820   78.0450  220.1400 C   0  0  0  0  0  0  0  0  0  0  0  0
  141.3890   78.7870  221.4460 C   0  0  0  0  0  0  0  0  0  0  0  0
  142.1980   79.9330  221.4560 C   0  0  0  0  0  0  0  0  0  0  0  0
  142.4570   80.6090  222.6510 C   0  0  0  0  0  0  0  0  0  0  0  0
  141.9140   80.1430  223.8510 C   0  0  0  0  0  0  0  0  0  0  0  0
  141.1150   78.9980  223.8600 C   0  0  0  0  0  0  0  0  0  0  0  0
  140.8620   78.2990  222.6700 C   0  0  0  0  0  0  0  0  0  0  0  0
  139.9580   77.0900  222.6970 C   0  0  0  0  0  0  0  0  0  0  0  0
  142.0080   74.8430  220.8380 N   0  0  0  0  0  0  0  0  0  0  0  0
  145.1480   73.8290  220.6090 C   0  0  0  0  0  0  0  0  0  0  0  0
  146.2710   73.2430  219.7520 C   0  0  0  0  0  0  0  0  0  0  0  0
  145.9480   71.9120  219.4090 O   0  0  0  0  0  0  0  0  0  0  0  0
  144.6887   68.1416  220.7542 H   0  0  0  0  0  0  0  0  0  0  0  0
  143.8385   67.8520  219.1986 H   0  0  0  0  0  0  0  0  0  0  0  0
  145.5447   68.4136  219.1986 H   0  0  0  0  0  0  0  0  0  0  0  0
  143.0265   69.9624  219.9437 H   0  0  0  0  0  0  0  0  0  0  0  0
  144.6638   70.5023  220.4574 H   0  0  0  0  0  0  0  0  0  0  0  0
  145.0000   69.9100  217.8630 H   0  0  0  0  0  0  0  0  0  0  0  0
  145.3576   72.1458  217.4847 H   0  0  0  0  0  0  0  0  0  0  0  0
  143.8997   73.7560  217.9768 H   0  0  0  0  0  0  0  0  0  0  0  0
  142.8001   72.4399  218.5421 H   0  0  0  0  0  0  0  0  0  0  0  0
  139.1124   71.0826  221.4699 H   0  0  0  0  0  0  0  0  0  0  0  0
  140.4093   69.8953  221.9172 H   0  0  0  0  0  0  0  0  0  0  0  0
  137.8868   70.5651  223.4979 H   0  0  0  0  0  0  0  0  0  0  0  0
  138.2931   69.0162  222.6733 H   0  0  0  0  0  0  0  0  0  0  0  0
  138.3428   67.5211  224.5506 H   0  0  0  0  0  0  0  0  0  0  0  0
  139.5005   66.7833  226.6352 H   0  0  0  0  0  0  0  0  0  0  0  0
  141.1890   68.2661  227.7196 H   0  0  0  0  0  0  0  0  0  0  0  0
  141.7228   70.4910  226.7258 H   0  0  0  0  0  0  0  0  0  0  0  0
  140.0215   72.3511  224.9705 H   0  0  0  0  0  0  0  0  0  0  0  0
  141.7289   71.8111  224.6324 H   0  0  0  0  0  0  0  0  0  0  0  0
  140.1034   76.3304  219.3786 H   0  0  0  0  0  0  0  0  0  0  0  0
  139.0729   77.5502  220.1905 H   0  0  0  0  0  0  0  0  0  0  0  0
  142.1105   77.5138  219.8835 H   0  0  0  0  0  0  0  0  0  0  0  0
  140.9177   78.7847  219.3700 H   0  0  0  0  0  0  0  0  0  0  0  0
  142.6320   80.3025  220.5152 H   0  0  0  0  0  0  0  0  0  0  0  0
  143.0892   81.5092  222.6470 H   0  0  0  0  0  0  0  0  0  0  0  0
  142.1163   80.6789  224.7901 H   0  0  0  0  0  0  0  0  0  0  0  0
  140.6812   78.6417  224.8060 H   0  0  0  0  0  0  0  0  0  0  0  0
  140.1916   76.4791  223.5815 H   0  0  0  0  0  0  0  0  0  0  0  0
  138.9100   77.4212  222.7413 H   0  0  0  0  0  0  0  0  0  0  0  0
  145.2345   74.9255  220.6209 H   0  0  0  0  0  0  0  0  0  0  0  0
  145.2341   73.4342  221.6321 H   0  0  0  0  0  0  0  0  0  0  0  0
  146.3852   73.8414  218.8361 H   0  0  0  0  0  0  0  0  0  0  0  0
  147.2143   73.2600  220.3176 H   0  0  0  0  0  0  0  0  0  0  0  0
  1  2  1  0
  2  3  1  0
  3  4  1  0
  4  5  1  0
  5  6  1  0
  6  7  1  0
  7  8  2  0
  8  9  1  0
  9 10  1  0
 10 11  1  0
 11 12  1  0
 12 13  1  0
 13 14  2  0
 14 15  1  0
 15 16  2  0
 16 17  1  0
 17 18  2  0
 18 19  1  0
  9 20  2  0
 20 21  1  0
 21 22  1  0
 22 23  1  0
 23 24  1  0
 24 25  1  0
 25 26  2  0
 26 27  1  0
 27 28  2  0
 28 29  1  0
 29 30  2  0
 30 31  1  0
 21 32  2  0
  6 33  1  0
 33 34  1  0
 34 35  1  0
 35  4  1  0
 32  7  1  0
 19 10  1  0
 31 22  1  0
 18 13  1  0
 30 25  1  0
  1 36  1  0
  1 37  1  0
  1 38  1  0
  2 39  1  0
  2 40  1  0
  3 41  1  0
  4 42  1  6
  5 43  1  0
  5 44  1  0
 11 45  1  0
 11 46  1  0
 12 47  1  0
 12 48  1  0
 14 49  1  0
 15 50  1  0
 16 51  1  0
 17 52  1  0
 19 53  1  0
 19 54  1  0
 23 55  1  0
 23 56  1  0
 24 57  1  0
 24 58  1  0
 26 59  1  0
 27 60  1  0
 28 61  1  0
 29 62  1  0
 31 63  1  0
 31 64  1  0
 33 65  1  0
 33 66  1  0
 34 67  1  0
 34 68  1  0
M  END
>  <meeko>  (17) 
{"free_energy": -9.95, "intermolecular_energy": -11.44, "internal_energy": -1.17, "cluster_size": 19, "cluster_id": 1, "rank_in_cluster": 14}

$$$$

     RDKit          3D

 68 73  0  0  0  0  0  0  0  0999 V2000
  144.4320   74.9460  220.2330 C   0  0  0  0  0  0  0  0  0  0  0  0
  145.5040   74.0520  220.8420 C   0  0  0  0  0  0  0  0  0  0  0  0
  146.2620   73.3840  219.7730 N   0  0  0  0  0  0  0  0  0  0  0  0
  145.5230   72.2620  219.1670 C   0  0  1  0  0  0  0  0  0  0  0  0
  144.4500   71.7260  220.1580 C   0  0  0  0  0  0  0  0  0  0  0  0
  143.0990   72.1000  219.7170 N   0  0  0  0  0  0  0  0  0  0  0  0
  142.1090   72.5750  220.6510 C   0  0  0  0  0  0  0  0  0  0  0  0
  141.6840   71.7770  221.6650 N   0  0  0  0  0  0  0  0  0  0  0  0
  140.7190   72.2000  222.5240 C   0  0  0  0  0  0  0  0  0  0  0  0
  140.2640   71.3440  223.5910 N   0  0  0  0  0  0  0  0  0  0  0  0
  139.5850   70.0780  223.2560 C   0  0  0  0  0  0  0  0  0  0  0  0
  138.6940   69.5900  224.3980 C   0  0  0  0  0  0  0  0  0  0  0  0
  139.4730   69.5500  225.6760 C   0  0  0  0  0  0  0  0  0  0  0  0
  139.2680   68.5230  226.6120 C   0  0  0  0  0  0  0  0  0  0  0  0
  139.9750   68.5220  227.8170 C   0  0  0  0  0  0  0  0  0  0  0  0
  140.8760   69.5510  228.1010 C   0  0  0  0  0  0  0  0  0  0  0  0
  141.0720   70.5850  227.1810 C   0  0  0  0  0  0  0  0  0  0  0  0
  140.3810   70.5850  225.9580 C   0  0  0  0  0  0  0  0  0  0  0  0
  140.5610   71.7260  224.9860 C   0  0  0  0  0  0  0  0  0  0  0  0
  140.1720   73.4330  222.3510 N   0  0  0  0  0  0  0  0  0  0  0  0
  140.5830   74.2410  221.3390 C   0  0  0  0  0  0  0  0  0  0  0  0
  139.9690   75.5330  221.1400 N   0  0  0  0  0  0  0  0  0  0  0  0
  140.0310   76.2000  219.8380 C   0  0  0  0  0  0  0  0  0  0  0  0
  141.2290   77.1530  219.8290 C   0  0  0  0  0  0  0  0  0  0  0  0
  141.3270   77.9620  221.1080 C   0  0  0  0  0  0  0  0  0  0  0  0
  142.1910   79.0680  221.1470 C   0  0  0  0  0  0  0  0  0  0  0  0
  142.3490   79.8010  222.3260 C   0  0  0  0  0  0  0  0  0  0  0  0
  141.6500   79.4360  223.4780 C   0  0  0  0  0  0  0  0  0  0  0  0
  140.7930   78.3340  223.4580 C   0  0  0  0  0  0  0  0  0  0  0  0
  140.6390   77.5770  222.2860 C   0  0  0  0  0  0  0  0  0  0  0  0
  139.6730   76.4160  222.2750 C   0  0  0  0  0  0  0  0  0  0  0  0
  141.5530   73.8030  220.4970 N   0  0  0  0  0  0  0  0  0  0  0  0
  142.7490   71.9350  218.3010 C   0  0  0  0  0  0  0  0  0  0  0  0
  144.0130   71.7410  217.4620 C   0  0  0  0  0  0  0  0  0  0  0  0
  145.0040   72.6480  217.8980 O   0  0  0  0  0  0  0  0  0  0  0  0
  143.8554   75.4269  221.0369 H   0  0  0  0  0  0  0  0  0  0  0  0
  144.9084   75.7182  219.6111 H   0  0  0  0  0  0  0  0  0  0  0  0
  143.7579   74.3387  219.6111 H   0  0  0  0  0  0  0  0  0  0  0  0
  146.1887   74.6637  221.4478 H   0  0  0  0  0  0  0  0  0  0  0  0
  145.0254   73.2921  221.4772 H   0  0  0  0  0  0  0  0  0  0  0  0
  146.4500   74.0890  219.0220 H   0  0  0  0  0  0  0  0  0  0  0  0
  146.2013   71.4178  218.9741 H   0  0  0  0  0  0  0  0  0  0  0  0
  144.5220   70.6295  220.2091 H   0  0  0  0  0  0  0  0  0  0  0  0
  144.6326   72.1684  221.1484 H   0  0  0  0  0  0  0  0  0  0  0  0
  138.9637   70.2334  222.3616 H   0  0  0  0  0  0  0  0  0  0  0  0
  140.3563   69.3148  223.0751 H   0  0  0  0  0  0  0  0  0  0  0  0
  137.8413   70.2754  224.5128 H   0  0  0  0  0  0  0  0  0  0  0  0
  138.3314   68.5779  224.1651 H   0  0  0  0  0  0  0  0  0  0  0  0
  138.5498   67.7183  226.3960 H   0  0  0  0  0  0  0  0  0  0  0  0
  139.8220   67.7099  228.5430 H   0  0  0  0  0  0  0  0  0  0  0  0
  141.4321   69.5476  229.0501 H   0  0  0  0  0  0  0  0  0  0  0  0
  141.7702   71.4020  227.4157 H   0  0  0  0  0  0  0  0  0  0  0  0
  139.8866   72.5448  225.2770 H   0  0  0  0  0  0  0  0  0  0  0  0
  141.6169   72.0316  225.0272 H   0  0  0  0  0  0  0  0  0  0  0  0
  140.1499   75.4490  219.0431 H   0  0  0  0  0  0  0  0  0  0  0  0
  139.1031   76.7641  219.6622 H   0  0  0  0  0  0  0  0  0  0  0  0
  142.1500   76.5632  219.7115 H   0  0  0  0  0  0  0  0  0  0  0  0
  141.0948   77.8563  218.9940 H   0  0  0  0  0  0  0  0  0  0  0  0
  142.7470   79.3593  220.2437 H   0  0  0  0  0  0  0  0  0  0  0  0
  143.0259   80.6679  222.3465 H   0  0  0  0  0  0  0  0  0  0  0  0
  141.7747   80.0177  224.4032 H   0  0  0  0  0  0  0  0  0  0  0  0
  140.2357   78.0576  224.3652 H   0  0  0  0  0  0  0  0  0  0  0  0
  139.7715   75.8502  223.2132 H   0  0  0  0  0  0  0  0  0  0  0  0
  138.6463   76.7989  222.1789 H   0  0  0  0  0  0  0  0  0  0  0  0
  142.0994   71.0545  218.1878 H   0  0  0  0  0  0  0  0  0  0  0  0
  142.2238   72.8372  217.9543 H   0  0  0  0  0  0  0  0  0  0  0  0
  144.3792   70.7107  217.5814 H   0  0  0  0  0  0  0  0  0  0  0  0
  143.7845   71.9250  216.4018 H   0  0  0  0  0  0  0  0  0  0  0  0
  1  2  1  0
  2  3  1  0
  3  4  1  0
  4  5  1  0
  5  6  1  0
  6  7  1  0
  7  8  2  0
  8  9  1  0
  9 10  1  0
 10 11  1  0
 11 12  1  0
 12 13  1  0
 13 14  2  0
 14 15  1  0
 15 16  2  0
 16 17  1  0
 17 18  2  0
 18 19  1  0
  9 20  2  0
 20 21  1  0
 21 22  1  0
 22 23  1  0
 23 24  1  0
 24 25  1  0
 25 26  2  0
 26 27  1  0
 27 28  2  0
 28 29  1  0
 29 30  2  0
 30 31  1  0
 21 32  2  0
  6 33  1  0
 33 34  1  0
 34 35  1  0
 35  4  1  0
 32  7  1  0
 19 10  1  0
 31 22  1  0
 18 13  1  0
 30 25  1  0
  1 36  1  0
  1 37  1  0
  1 38  1  0
  2 39  1  0
  2 40  1  0
  3 41  1  0
  4 42  1  6
  5 43  1  0
  5 44  1  0
 11 45  1  0
 11 46  1  0
 12 47  1  0
 12 48  1  0
 14 49  1  0
 15 50  1  0
 16 51  1  0
 17 52  1  0
 19 53  1  0
 19 54  1  0
 23 55  1  0
 23 56  1  0
 24 57  1  0
 24 58  1  0
 26 59  1  0
 27 60  1  0
 28 61  1  0
 29 62  1  0
 31 63  1  0
 31 64  1  0
 33 65  1  0
 33 66  1  0
 34 67  1  0
 34 68  1  0
M  END
>  <meeko>  (18) 
{"free_energy": -10.26, "intermolecular_energy": -11.75, "internal_energy": -1.4, "cluster_size": 19, "cluster_id": 1, "rank_in_cluster": 12}

$$$$

     RDKit          3D

 68 73  0  0  0  0  0  0  0  0999 V2000
  146.6960   73.4080  222.3250 C   0  0  0  0  0  0  0  0  0  0  0  0
  145.7340   73.7280  221.1890 C   0  0  0  0  0  0  0  0  0  0  0  0
  146.3510   73.3770  219.9010 N   0  0  0  0  0  0  0  0  0  0  0  0
  145.5280   72.4420  219.1130 C   0  0  1  0  0  0  0  0  0  0  0  0
  144.3680   71.8790  219.9840 C   0  0  0  0  0  0  0  0  0  0  0  0
  143.0800   72.4550  219.5730 N   0  0  0  0  0  0  0  0  0  0  0  0
  142.1060   72.8860  220.5450 C   0  0  0  0  0  0  0  0  0  0  0  0
  141.7020   72.0430  221.5310 N   0  0  0  0  0  0  0  0  0  0  0  0
  140.7520   72.4250  222.4250 C   0  0  0  0  0  0  0  0  0  0  0  0
  140.3190   71.5220  223.4620 N   0  0  0  0  0  0  0  0  0  0  0  0
  139.7080   70.2340  223.0830 C   0  0  0  0  0  0  0  0  0  0  0  0
  138.8210   69.6750  224.1950 C   0  0  0  0  0  0  0  0  0  0  0  0
  139.5760   69.6410  225.4880 C   0  0  0  0  0  0  0  0  0  0  0  0
  139.4030   68.5830  226.3940 C   0  0  0  0  0  0  0  0  0  0  0  0
  140.0870   68.5860  227.6130 C   0  0  0  0  0  0  0  0  0  0  0  0
  140.9310   69.6490  227.9400 C   0  0  0  0  0  0  0  0  0  0  0  0
  141.0950   70.7140  227.0480 C   0  0  0  0  0  0  0  0  0  0  0  0
  140.4280   70.7120  225.8130 C   0  0  0  0  0  0  0  0  0  0  0  0
  140.5700   71.8830  224.8720 C   0  0  0  0  0  0  0  0  0  0  0  0
  140.1980   73.6620  222.3160 N   0  0  0  0  0  0  0  0  0  0  0  0
  140.5890   74.5160  221.3330 C   0  0  0  0  0  0  0  0  0  0  0  0
  139.9690   75.8130  221.2020 N   0  0  0  0  0  0  0  0  0  0  0  0
  139.9430   76.5040  219.9110 C   0  0  0  0  0  0  0  0  0  0  0  0
  141.1410   77.4530  219.8360 C   0  0  0  0  0  0  0  0  0  0  0  0
  141.3310   78.2380  221.1200 C   0  0  0  0  0  0  0  0  0  0  0  0
  142.2010   79.3400  221.1200 C   0  0  0  0  0  0  0  0  0  0  0  0
  142.4440   80.0500  222.2980 C   0  0  0  0  0  0  0  0  0  0  0  0
  141.8250   79.6660  223.4890 C   0  0  0  0  0  0  0  0  0  0  0  0
  140.9640   78.5670  223.5080 C   0  0  0  0  0  0  0  0  0  0  0  0
  140.7250   77.8320  222.3360 C   0  0  0  0  0  0  0  0  0  0  0  0
  139.7560   76.6750  222.3700 C   0  0  0  0  0  0  0  0  0  0  0  0
  141.5450   74.1180  220.4550 N   0  0  0  0  0  0  0  0  0  0  0  0
  142.7710   72.5410  218.1410 C   0  0  0  0  0  0  0  0  0  0  0  0
  144.0420   72.3440  217.3130 C   0  0  0  0  0  0  0  0  0  0  0  0
  145.1000   73.0670  217.9060 O   0  0  0  0  0  0  0  0  0  0  0  0
  146.1935   73.5752  223.2891 H   0  0  0  0  0  0  0  0  0  0  0  0
  147.0113   72.3566  222.2533 H   0  0  0  0  0  0  0  0  0  0  0  0
  147.5783   74.0611  222.2533 H   0  0  0  0  0  0  0  0  0  0  0  0
  144.8080   73.1489  221.3204 H   0  0  0  0  0  0  0  0  0  0  0  0
  145.5029   74.8034  221.2003 H   0  0  0  0  0  0  0  0  0  0  0  0
  146.4600   74.2580  219.3450 H   0  0  0  0  0  0  0  0  0  0  0  0
  146.1258   71.5699  218.8096 H   0  0  0  0  0  0  0  0  0  0  0  0
  144.3277   70.7859  219.8680 H   0  0  0  0  0  0  0  0  0  0  0  0
  144.5544   72.1458  221.0347 H   0  0  0  0  0  0  0  0  0  0  0  0
  139.0963   70.3823  222.1809 H   0  0  0  0  0  0  0  0  0  0  0  0
  140.5183   69.5134  222.8985 H   0  0  0  0  0  0  0  0  0  0  0  0
  137.9335   70.3149  224.3087 H   0  0  0  0  0  0  0  0  0  0  0  0
  138.5139   68.6524  223.9306 H   0  0  0  0  0  0  0  0  0  0  0  0
  138.7285   67.7507  226.1445 H   0  0  0  0  0  0  0  0  0  0  0  0
  139.9601   67.7494  228.3159 H   0  0  0  0  0  0  0  0  0  0  0  0
  141.4676   69.6491  228.9002 H   0  0  0  0  0  0  0  0  0  0  0  0
  141.7495   71.5566  227.3156 H   0  0  0  0  0  0  0  0  0  0  0  0
  139.8506   72.6606  225.1685 H   0  0  0  0  0  0  0  0  0  0  0  0
  141.6089   72.2379  224.9416 H   0  0  0  0  0  0  0  0  0  0  0  0
  140.0030   75.7675  219.0961 H   0  0  0  0  0  0  0  0  0  0  0  0
  139.0076   77.0740  219.8107 H   0  0  0  0  0  0  0  0  0  0  0  0
  142.0491   76.8627  219.6439 H   0  0  0  0  0  0  0  0  0  0  0  0
  140.9522   78.1720  219.0252 H   0  0  0  0  0  0  0  0  0  0  0  0
  142.6946   79.6463  220.1859 H   0  0  0  0  0  0  0  0  0  0  0  0
  143.1248   80.9139  222.2873 H   0  0  0  0  0  0  0  0  0  0  0  0
  142.0159   80.2301  224.4138 H   0  0  0  0  0  0  0  0  0  0  0  0
  140.4701   78.2754  224.4466 H   0  0  0  0  0  0  0  0  0  0  0  0
  139.9164   76.0914  223.2885 H   0  0  0  0  0  0  0  0  0  0  0  0
  138.7268   77.0629  222.3519 H   0  0  0  0  0  0  0  0  0  0  0  0
  142.0421   71.7599  217.8791 H   0  0  0  0  0  0  0  0  0  0  0  0
  142.3516   73.5344  217.9236 H   0  0  0  0  0  0  0  0  0  0  0  0
  144.2990   71.2749  217.2824 H   0  0  0  0  0  0  0  0  0  0  0  0
  143.8752   72.7075  216.2883 H   0  0  0  0  0  0  0  0  0  0  0  0
  1  2  1  0
  2  3  1  0
  3  4  1  0
  4  5  1  0
  5  6  1  0
  6  7  1  0
  7  8  2  0
  8  9  1  0
  9 10  1  0
 10 11  1  0
 11 12  1  0
 12 13  1  0
 13 14  2  0
 14 15  1  0
 15 16  2  0
 16 17  1  0
 17 18  2  0
 18 19  1  0
  9 20  2  0
 20 21  1  0
 21 22  1  0
 22 23  1  0
 23 24  1  0
 24 25  1  0
 25 26  2  0
 26 27  1  0
 27 28  2  0
 28 29  1  0
 29 30  2  0
 30 31  1  0
 21 32  2  0
  6 33  1  0
 33 34  1  0
 34 35  1  0
 35  4  1  0
 32  7  1  0
 19 10  1  0
 31 22  1  0
 18 13  1  0
 30 25  1  0
  1 36  1  0
  1 37  1  0
  1 38  1  0
  2 39  1  0
  2 40  1  0
  3 41  1  0
  4 42  1  6
  5 43  1  0
  5 44  1  0
 11 45  1  0
 11 46  1  0
 12 47  1  0
 12 48  1  0
 14 49  1  0
 15 50  1  0
 16 51  1  0
 17 52  1  0
 19 53  1  0
 19 54  1  0
 23 55  1  0
 23 56  1  0
 24 57  1  0
 24 58  1  0
 26 59  1  0
 27 60  1  0
 28 61  1  0
 29 62  1  0
 31 63  1  0
 31 64  1  0
 33 65  1  0
 33 66  1  0
 34 67  1  0
 34 68  1  0
M  END
>  <meeko>  (19) 
{"free_energy": -10.68, "intermolecular_energy": -12.17, "internal_energy": -1.19, "cluster_size": 19, "cluster_id": 1, "rank_in_cluster": 1}

$$$$

     RDKit          3D

 68 73  0  0  0  0  0  0  0  0999 V2000
  144.4840   68.5300  219.7250 C   0  0  0  0  0  0  0  0  0  0  0  0
  144.0380   69.9850  219.6820 C   0  0  0  0  0  0  0  0  0  0  0  0
  144.3400   70.5600  218.3620 N   0  0  0  0  0  0  0  0  0  0  0  0
  144.9190   71.9120  218.4510 C   0  0  1  0  0  0  0  0  0  0  0  0
  143.7980   72.9640  218.6950 C   0  0  0  0  0  0  0  0  0  0  0  0
  143.8540   73.4750  220.0710 N   0  0  0  0  0  0  0  0  0  0  0  0
  142.6560   73.6650  220.8500 C   0  0  0  0  0  0  0  0  0  0  0  0
  142.1260   72.6340  221.5580 N   0  0  0  0  0  0  0  0  0  0  0  0
  140.9730   72.7920  222.2590 C   0  0  0  0  0  0  0  0  0  0  0  0
  140.4100   71.6910  223.0000 N   0  0  0  0  0  0  0  0  0  0  0  0
  139.6980   70.6240  222.2700 C   0  0  0  0  0  0  0  0  0  0  0  0
  138.7130   69.8790  223.1690 C   0  0  0  0  0  0  0  0  0  0  0  0
  139.4020   69.4160  224.4150 C   0  0  0  0  0  0  0  0  0  0  0  0
  139.0890   68.1750  224.9920 C   0  0  0  0  0  0  0  0  0  0  0  0
  139.7140   67.7750  226.1770 C   0  0  0  0  0  0  0  0  0  0  0  0
  140.6390   68.6170  226.7980 C   0  0  0  0  0  0  0  0  0  0  0  0
  140.9430   69.8610  226.2370 C   0  0  0  0  0  0  0  0  0  0  0  0
  140.3350   70.2640  225.0370 C   0  0  0  0  0  0  0  0  0  0  0  0
  140.6300   71.6270  224.4590 C   0  0  0  0  0  0  0  0  0  0  0  0
  140.3430   73.9980  222.2360 N   0  0  0  0  0  0  0  0  0  0  0  0
  140.8570   75.0380  221.5290 C   0  0  0  0  0  0  0  0  0  0  0  0
  140.1620   76.3030  221.4800 N   0  0  0  0  0  0  0  0  0  0  0  0
  140.0360   77.0400  220.2200 C   0  0  0  0  0  0  0  0  0  0  0  0
  141.1760   78.0570  220.1280 C   0  0  0  0  0  0  0  0  0  0  0  0
  141.3860   78.8020  221.4320 C   0  0  0  0  0  0  0  0  0  0  0  0
  142.1940   79.9490  221.4360 C   0  0  0  0  0  0  0  0  0  0  0  0
  142.4560   80.6280  222.6300 C   0  0  0  0  0  0  0  0  0  0  0  0
  141.9170   80.1640  223.8320 C   0  0  0  0  0  0  0  0  0  0  0  0
  141.1190   79.0190  223.8460 C   0  0  0  0  0  0  0  0  0  0  0  0
  140.8630   78.3170  222.6580 C   0  0  0  0  0  0  0  0  0  0  0  0
  139.9610   77.1070  222.6910 C   0  0  0  0  0  0  0  0  0  0  0  0
  142.0140   74.8610  220.8420 N   0  0  0  0  0  0  0  0  0  0  0  0
  145.1580   73.8420  220.6350 C   0  0  0  0  0  0  0  0  0  0  0  0
  146.2860   73.2610  219.7810 C   0  0  0  0  0  0  0  0  0  0  0  0
  145.9610   71.9340  219.4210 O   0  0  0  0  0  0  0  0  0  0  0  0
  144.5828   68.2076  220.7720 H   0  0  0  0  0  0  0  0  0  0  0  0
  143.7370   67.9023  219.2170 H   0  0  0  0  0  0  0  0  0  0  0  0
  145.4544   68.4288  219.2170 H   0  0  0  0  0  0  0  0  0  0  0  0
  142.9548   70.0405  219.8653 H   0  0  0  0  0  0  0  0  0  0  0  0
  144.5746   70.5524  220.4567 H   0  0  0  0  0  0  0  0  0  0  0  0
  145.0400   69.9390  217.8930 H   0  0  0  0  0  0  0  0  0  0  0  0
  145.3875   72.1901  217.4954 H   0  0  0  0  0  0  0  0  0  0  0  0
  143.9299   73.8011  217.9936 H   0  0  0  0  0  0  0  0  0  0  0  0
  142.8217   72.4826  218.5367 H   0  0  0  0  0  0  0  0  0  0  0  0
  139.1448   71.0741  221.4325 H   0  0  0  0  0  0  0  0  0  0  0  0
  140.4444   69.9011  221.9090 H   0  0  0  0  0  0  0  0  0  0  0  0
  137.8863   70.5524  223.4393 H   0  0  0  0  0  0  0  0  0  0  0  0
  138.3222   69.0047  222.6278 H   0  0  0  0  0  0  0  0  0  0  0  0
  138.3509   67.5163  224.5111 H   0  0  0  0  0  0  0  0  0  0  0  0
  139.4770   66.7966  226.6204 H   0  0  0  0  0  0  0  0  0  0  0  0
  141.1295   68.3008  227.7305 H   0  0  0  0  0  0  0  0  0  0  0  0
  141.6614   70.5268  226.7376 H   0  0  0  0  0  0  0  0  0  0  0  0
  139.9746   72.3643  224.9457 H   0  0  0  0  0  0  0  0  0  0  0  0
  141.6932   71.8411  224.6428 H   0  0  0  0  0  0  0  0  0  0  0  0
  140.0963   76.3394  219.3741 H   0  0  0  0  0  0  0  0  0  0  0  0
  139.0673   77.5600  220.1862 H   0  0  0  0  0  0  0  0  0  0  0  0
  142.1042   77.5262  219.8699 H   0  0  0  0  0  0  0  0  0  0  0  0
  140.9089   78.7947  219.3570 H   0  0  0  0  0  0  0  0  0  0  0  0
  142.6245   80.3168  220.4930 H   0  0  0  0  0  0  0  0  0  0  0  0
  143.0874   81.5287  222.6226 H   0  0  0  0  0  0  0  0  0  0  0  0
  142.1218   80.7019  224.7694 H   0  0  0  0  0  0  0  0  0  0  0  0
  140.6881   78.6646  224.7940 H   0  0  0  0  0  0  0  0  0  0  0  0
  140.1982   76.4989  223.5764 H   0  0  0  0  0  0  0  0  0  0  0  0
  138.9127   77.4371  222.7375 H   0  0  0  0  0  0  0  0  0  0  0  0
  145.2480   74.9381  220.6587 H   0  0  0  0  0  0  0  0  0  0  0  0
  145.2347   73.4364  221.6546 H   0  0  0  0  0  0  0  0  0  0  0  0
  146.4098   73.8687  218.8725 H   0  0  0  0  0  0  0  0  0  0  0  0
  147.2246   73.2686  220.3545 H   0  0  0  0  0  0  0  0  0  0  0  0
  1  2  1  0
  2  3  1  0
  3  4  1  0
  4  5  1  0
  5  6  1  0
  6  7  1  0
  7  8  2  0
  8  9  1  0
  9 10  1  0
 10 11  1  0
 11 12  1  0
 12 13  1  0
 13 14  2  0
 14 15  1  0
 15 16  2  0
 16 17  1  0
 17 18  2  0
 18 19  1  0
  9 20  2  0
 20 21  1  0
 21 22  1  0
 22 23  1  0
 23 24  1  0
 24 25  1  0
 25 26  2  0
 26 27  1  0
 27 28  2  0
 28 29  1  0
 29 30  2  0
 30 31  1  0
 21 32  2  0
  6 33  1  0
 33 34  1  0
 34 35  1  0
 35  4  1  0
 32  7  1  0
 19 10  1  0
 31 22  1  0
 18 13  1  0
 30 25  1  0
  1 36  1  0
  1 37  1  0
  1 38  1  0
  2 39  1  0
  2 40  1  0
  3 41  1  0
  4 42  1  6
  5 43  1  0
  5 44  1  0
 11 45  1  0
 11 46  1  0
 12 47  1  0
 12 48  1  0
 14 49  1  0
 15 50  1  0
 16 51  1  0
 17 52  1  0
 19 53  1  0
 19 54  1  0
 23 55  1  0
 23 56  1  0
 24 57  1  0
 24 58  1  0
 26 59  1  0
 27 60  1  0
 28 61  1  0
 29 62  1  0
 31 63  1  0
 31 64  1  0
 33 65  1  0
 33 66  1  0
 34 67  1  0
 34 68  1  0
M  END
>  <meeko>  (20) 
{"free_energy": -9.93, "intermolecular_energy": -11.43, "internal_energy": -1.18, "cluster_size": 19, "cluster_id": 1, "rank_in_cluster": 15}

$$$$
