
     RDKit          3D

 68 73  0  0  0  0  0  0  0  0999 V2000
  145.2130   67.9980  219.4500 C   0  0  0  0  0  0  0  0  0  0  0  0
  146.1910   69.0500  218.9390 C   0  0  0  0  0  0  0  0  0  0  0  0
  145.4590   70.1590  218.3120 N   0  0  0  0  0  0  0  0  0  0  0  0
  145.2440   71.2660  219.2620 C   0  0  2  0  0  0  0  0  0  0  0  0
  143.7790   71.2360  219.7970 C   0  0  0  0  0  0  0  0  0  0  0  0
  143.1990   72.5840  219.8910 N   0  0  0  0  0  0  0  0  0  0  0  0
  142.1820   72.8740  220.8700 C   0  0  0  0  0  0  0  0  0  0  0  0
  141.7530   71.9040  221.7180 N   0  0  0  0  0  0  0  0  0  0  0  0
  140.7940   72.1660  222.6450 C   0  0  0  0  0  0  0  0  0  0  0  0
  140.3470   71.1260  223.5420 N   0  0  0  0  0  0  0  0  0  0  0  0
  139.0970   70.3980  223.2660 C   0  0  0  0  0  0  0  0  0  0  0  0
  139.2140   68.9440  223.7140 C   0  0  0  0  0  0  0  0  0  0  0  0
  139.6110   68.8820  225.1580 C   0  0  0  0  0  0  0  0  0  0  0  0
  139.1600   67.8290  225.9710 C   0  0  0  0  0  0  0  0  0  0  0  0
  139.5640   67.7480  227.3070 C   0  0  0  0  0  0  0  0  0  0  0  0
  140.4310   68.7080  227.8330 C   0  0  0  0  0  0  0  0  0  0  0  0
  140.9000   69.7470  227.0260 C   0  0  0  0  0  0  0  0  0  0  0  0
  140.4930   69.8460  225.6860 C   0  0  0  0  0  0  0  0  0  0  0  0
  141.0690   70.9380  224.8160 C   0  0  0  0  0  0  0  0  0  0  0  0
  140.2670   73.4180  222.7190 N   0  0  0  0  0  0  0  0  0  0  0  0
  140.6860   74.4010  221.8800 C   0  0  0  0  0  0  0  0  0  0  0  0
  140.1390   75.7330  221.9730 N   0  0  0  0  0  0  0  0  0  0  0  0
  138.7850   76.0240  221.4810 C   0  0  0  0  0  0  0  0  0  0  0  0
  138.0630   76.9390  222.4640 C   0  0  0  0  0  0  0  0  0  0  0  0
  138.8810   78.1660  222.7430 C   0  0  0  0  0  0  0  0  0  0  0  0
  138.2400   79.3570  223.1250 C   0  0  0  0  0  0  0  0  0  0  0  0
  138.9910   80.4940  223.4390 C   0  0  0  0  0  0  0  0  0  0  0  0
  140.3840   80.4480  223.3850 C   0  0  0  0  0  0  0  0  0  0  0  0
  141.0320   79.2660  223.0190 C   0  0  0  0  0  0  0  0  0  0  0  0
  140.2910   78.1150  222.7020 C   0  0  0  0  0  0  0  0  0  0  0  0
  141.0290   76.8430  222.3520 C   0  0  0  0  0  0  0  0  0  0  0  0
  141.6470   74.1190  220.9590 N   0  0  0  0  0  0  0  0  0  0  0  0
  143.4920   73.5720  218.8480 C   0  0  0  0  0  0  0  0  0  0  0  0
  144.5730   73.0500  217.9070 C   0  0  0  0  0  0  0  0  0  0  0  0
  145.6220   72.5060  218.6740 O   0  0  0  0  0  0  0  0  0  0  0  0
  145.2145   67.9996  220.5500 H   0  0  0  0  0  0  0  0  0  0  0  0
  144.2016   68.2292  219.0843 H   0  0  0  0  0  0  0  0  0  0  0  0
  145.5172   67.0062  219.0843 H   0  0  0  0  0  0  0  0  0  0  0  0
  146.7834   69.4357  219.7818 H   0  0  0  0  0  0  0  0  0  0  0  0
  146.8559   68.5906  218.1928 H   0  0  0  0  0  0  0  0  0  0  0  0
  144.5170   69.7920  218.0360 H   0  0  0  0  0  0  0  0  0  0  0  0
  145.8935   71.1416  220.1410 H   0  0  0  0  0  0  0  0  0  0  0  0
  143.1639   70.6316  219.1141 H   0  0  0  0  0  0  0  0  0  0  0  0
  143.7953   70.8020  220.8076 H   0  0  0  0  0  0  0  0  0  0  0  0
  138.2706   70.8788  223.8100 H   0  0  0  0  0  0  0  0  0  0  0  0
  138.9036   70.4218  222.1834 H   0  0  0  0  0  0  0  0  0  0  0  0
  138.2438   68.4429  223.5813 H   0  0  0  0  0  0  0  0  0  0  0  0
  139.9807   68.4401  223.1072 H   0  0  0  0  0  0  0  0  0  0  0  0
  138.4865   67.0653  225.5549 H   0  0  0  0  0  0  0  0  0  0  0  0
  139.1991   66.9284  227.9435 H   0  0  0  0  0  0  0  0  0  0  0  0
  140.7453   68.6458  228.8853 H   0  0  0  0  0  0  0  0  0  0  0  0
  141.5928   70.4927  227.4431 H   0  0  0  0  0  0  0  0  0  0  0  0
  141.0345   71.8834  225.3773 H   0  0  0  0  0  0  0  0  0  0  0  0
  142.0961   70.6375  224.5616 H   0  0  0  0  0  0  0  0  0  0  0  0
  138.8513   76.5203  220.5016 H   0  0  0  0  0  0  0  0  0  0  0  0
  138.2245   75.0826  221.3827 H   0  0  0  0  0  0  0  0  0  0  0  0
  137.0958   77.2394  222.0346 H   0  0  0  0  0  0  0  0  0  0  0  0
  137.9083   76.3943  223.4071 H   0  0  0  0  0  0  0  0  0  0  0  0
  137.1419   79.3949  223.1772 H   0  0  0  0  0  0  0  0  0  0  0  0
  138.4828   81.4255  223.7288 H   0  0  0  0  0  0  0  0  0  0  0  0
  140.9731   81.3438  223.6310 H   0  0  0  0  0  0  0  0  0  0  0  0
  142.1308   79.2360  222.9786 H   0  0  0  0  0  0  0  0  0  0  0  0
  141.7031   77.0524  221.5083 H   0  0  0  0  0  0  0  0  0  0  0  0
  141.5746   76.5270  223.2534 H   0  0  0  0  0  0  0  0  0  0  0  0
  142.5766   73.7728  218.2720 H   0  0  0  0  0  0  0  0  0  0  0  0
  143.8506   74.4965  219.3241 H   0  0  0  0  0  0  0  0  0  0  0  0
  144.1503   72.2716  217.2548 H   0  0  0  0  0  0  0  0  0  0  0  0
  144.9544   73.8729  217.2846 H   0  0  0  0  0  0  0  0  0  0  0  0
  1  2  1  0
  2  3  1  0
  3  4  1  0
  4  5  1  0
  5  6  1  0
  6  7  1  0
  7  8  2  0
  8  9  1  0
  9 10  1  0
 10 11  1  0
 11 12  1  0
 12 13  1  0
 13 14  2  0
 14 15  1  0
 15 16  2  0
 16 17  1  0
 17 18  2  0
 18 19  1  0
  9 20  2  0
 20 21  1  0
 21 22  1  0
 22 23  1  0
 23 24  1  0
 24 25  1  0
 25 26  2  0
 26 27  1  0
 27 28  2  0
 28 29  1  0
 29 30  2  0
 30 31  1  0
 21 32  2  0
  6 33  1  0
 33 34  1  0
 34 35  1  0
 35  4  1  0
 32  7  1  0
 19 10  1  0
 31 22  1  0
 18 13  1  0
 30 25  1  0
  1 36  1  0
  1 37  1  0
  1 38  1  0
  2 39  1  0
  2 40  1  0
  3 41  1  0
  4 42  1  1
  5 43  1  0
  5 44  1  0
 11 45  1  0
 11 46  1  0
 12 47  1  0
 12 48  1  0
 14 49  1  0
 15 50  1  0
 16 51  1  0
 17 52  1  0
 19 53  1  0
 19 54  1  0
 23 55  1  0
 23 56  1  0
 24 57  1  0
 24 58  1  0
 26 59  1  0
 27 60  1  0
 28 61  1  0
 29 62  1  0
 31 63  1  0
 31 64  1  0
 33 65  1  0
 33 66  1  0
 34 67  1  0
 34 68  1  0
M  END
>  <meeko>  (1) 
{"free_energy": -9.72, "intermolecular_energy": -11.21, "internal_energy": -0.86, "cluster_size": 20, "cluster_id": 1, "rank_in_cluster": 9}

$$$$

     RDKit          3D

 68 73  0  0  0  0  0  0  0  0999 V2000
  144.3310   75.9820  215.8150 C   0  0  0  0  0  0  0  0  0  0  0  0
  144.4350   74.4610  215.7850 C   0  0  0  0  0  0  0  0  0  0  0  0
  145.3680   73.9980  216.8210 N   0  0  0  0  0  0  0  0  0  0  0  0
  144.6820   73.1750  217.8330 C   0  0  2  0  0  0  0  0  0  0  0  0
  143.6570   74.0440  218.6250 C   0  0  0  0  0  0  0  0  0  0  0  0
  143.6650   73.7340  220.0620 N   0  0  0  0  0  0  0  0  0  0  0  0
  142.4750   73.9150  220.8540 C   0  0  0  0  0  0  0  0  0  0  0  0
  141.9200   75.1480  220.9820 N   0  0  0  0  0  0  0  0  0  0  0  0
  140.7970   75.3310  221.7270 C   0  0  0  0  0  0  0  0  0  0  0  0
  140.2160   76.6480  221.8540 N   0  0  0  0  0  0  0  0  0  0  0  0
  138.8760   76.9210  221.3080 C   0  0  0  0  0  0  0  0  0  0  0  0
  138.1340   77.9220  222.1870 C   0  0  0  0  0  0  0  0  0  0  0  0
  138.9540   79.1660  222.3540 C   0  0  0  0  0  0  0  0  0  0  0  0
  138.3250   80.4140  222.4970 C   0  0  0  0  0  0  0  0  0  0  0  0
  139.0880   81.5680  222.6930 C   0  0  0  0  0  0  0  0  0  0  0  0
  140.4800   81.4810  222.7640 C   0  0  0  0  0  0  0  0  0  0  0  0
  141.1120   80.2420  222.6440 C   0  0  0  0  0  0  0  0  0  0  0  0
  140.3570   79.0760  222.4340 C   0  0  0  0  0  0  0  0  0  0  0  0
  141.0600   77.7400  222.3770 C   0  0  0  0  0  0  0  0  0  0  0  0
  140.2290   74.2600  222.3440 N   0  0  0  0  0  0  0  0  0  0  0  0
  140.7690   73.0200  222.2250 C   0  0  0  0  0  0  0  0  0  0  0  0
  140.1530   71.8830  222.8660 N   0  0  0  0  0  0  0  0  0  0  0  0
  139.1420   71.0820  222.1620 C   0  0  0  0  0  0  0  0  0  0  0  0
  139.3820   69.5990  222.4250 C   0  0  0  0  0  0  0  0  0  0  0  0
  139.4490   69.3270  223.8990 C   0  0  0  0  0  0  0  0  0  0  0  0
  139.1010   68.0570  224.3890 C   0  0  0  0  0  0  0  0  0  0  0  0
  139.2080   67.7720  225.7530 C   0  0  0  0  0  0  0  0  0  0  0  0
  139.6740   68.7460  226.6360 C   0  0  0  0  0  0  0  0  0  0  0  0
  140.0360   70.0080  226.1590 C   0  0  0  0  0  0  0  0  0  0  0  0
  139.9340   70.3090  224.7900 C   0  0  0  0  0  0  0  0  0  0  0  0
  140.3760   71.6710  224.3070 C   0  0  0  0  0  0  0  0  0  0  0  0
  141.8930   72.8570  221.4750 N   0  0  0  0  0  0  0  0  0  0  0  0
  144.9370   73.4520  220.7350 C   0  0  0  0  0  0  0  0  0  0  0  0
  146.0630   73.3270  219.7140 C   0  0  0  0  0  0  0  0  0  0  0  0
  145.6310   72.5040  218.6550 O   0  0  0  0  0  0  0  0  0  0  0  0
  144.3074   76.3274  216.8591 H   0  0  0  0  0  0  0  0  0  0  0  0
  145.2013   76.4192  215.3038 H   0  0  0  0  0  0  0  0  0  0  0  0
  143.4092   76.2967  215.3038 H   0  0  0  0  0  0  0  0  0  0  0  0
  143.4420   74.0248  215.9685 H   0  0  0  0  0  0  0  0  0  0  0  0
  144.8064   74.1450  214.7990 H   0  0  0  0  0  0  0  0  0  0  0  0
  145.7420   74.8480  217.3050 H   0  0  0  0  0  0  0  0  0  0  0  0
  144.0976   72.3825  217.3427 H   0  0  0  0  0  0  0  0  0  0  0  0
  143.9120   75.1054  218.4894 H   0  0  0  0  0  0  0  0  0  0  0  0
  142.6523   73.8227  218.2357 H   0  0  0  0  0  0  0  0  0  0  0  0
  138.9760   77.3346  220.2936 H   0  0  0  0  0  0  0  0  0  0  0  0
  138.3053   75.9810  221.2801 H   0  0  0  0  0  0  0  0  0  0  0  0
  137.1741   78.1793  221.7153 H   0  0  0  0  0  0  0  0  0  0  0  0
  137.9562   77.4720  223.1749 H   0  0  0  0  0  0  0  0  0  0  0  0
  137.2280   80.4829  222.4545 H   0  0  0  0  0  0  0  0  0  0  0  0
  138.5922   82.5450  222.7914 H   0  0  0  0  0  0  0  0  0  0  0  0
  141.0798   82.3907  222.9148 H   0  0  0  0  0  0  0  0  0  0  0  0
  142.2079   80.1783  222.7143 H   0  0  0  0  0  0  0  0  0  0  0  0
  141.9420   77.8390  221.7272 H   0  0  0  0  0  0  0  0  0  0  0  0
  141.3279   77.4731  223.4099 H   0  0  0  0  0  0  0  0  0  0  0  0
  138.1405   71.3593  222.5227 H   0  0  0  0  0  0  0  0  0  0  0  0
  139.2138   71.2752  221.0815 H   0  0  0  0  0  0  0  0  0  0  0  0
  138.5580   69.0164  221.9872 H   0  0  0  0  0  0  0  0  0  0  0  0
  140.3392   69.3086  221.9674 H   0  0  0  0  0  0  0  0  0  0  0  0
  138.7423   67.2826  223.6951 H   0  0  0  0  0  0  0  0  0  0  0  0
  138.9244   66.7785  226.1306 H   0  0  0  0  0  0  0  0  0  0  0  0
  139.7565   68.5200  227.7094 H   0  0  0  0  0  0  0  0  0  0  0  0
  140.4036   70.7718  226.8600 H   0  0  0  0  0  0  0  0  0  0  0  0
  139.8150   72.4368  224.8628 H   0  0  0  0  0  0  0  0  0  0  0  0
  141.4599   71.7406  224.4810 H   0  0  0  0  0  0  0  0  0  0  0  0
  145.1683   74.2719  221.4309 H   0  0  0  0  0  0  0  0  0  0  0  0
  144.8470   72.5034  221.2846 H   0  0  0  0  0  0  0  0  0  0  0  0
  146.3212   74.3232  219.3255 H   0  0  0  0  0  0  0  0  0  0  0  0
  146.9504   72.8851  220.1907 H   0  0  0  0  0  0  0  0  0  0  0  0
  1  2  1  0
  2  3  1  0
  3  4  1  0
  4  5  1  0
  5  6  1  0
  6  7  1  0
  7  8  2  0
  8  9  1  0
  9 10  1  0
 10 11  1  0
 11 12  1  0
 12 13  1  0
 13 14  2  0
 14 15  1  0
 15 16  2  0
 16 17  1  0
 17 18  2  0
 18 19  1  0
  9 20  2  0
 20 21  1  0
 21 22  1  0
 22 23  1  0
 23 24  1  0
 24 25  1  0
 25 26  2  0
 26 27  1  0
 27 28  2  0
 28 29  1  0
 29 30  2  0
 30 31  1  0
 21 32  2  0
  6 33  1  0
 33 34  1  0
 34 35  1  0
 35  4  1  0
 32  7  1  0
 19 10  1  0
 31 22  1  0
 18 13  1  0
 30 25  1  0
  1 36  1  0
  1 37  1  0
  1 38  1  0
  2 39  1  0
  2 40  1  0
  3 41  1  0
  4 42  1  6
  5 43  1  0
  5 44  1  0
 11 45  1  0
 11 46  1  0
 12 47  1  0
 12 48  1  0
 14 49  1  0
 15 50  1  0
 16 51  1  0
 17 52  1  0
 19 53  1  0
 19 54  1  0
 23 55  1  0
 23 56  1  0
 24 57  1  0
 24 58  1  0
 26 59  1  0
 27 60  1  0
 28 61  1  0
 29 62  1  0
 31 63  1  0
 31 64  1  0
 33 65  1  0
 33 66  1  0
 34 67  1  0
 34 68  1  0
M  END
>  <meeko>  (2) 
{"free_energy": -9.37, "intermolecular_energy": -10.86, "internal_energy": -0.85, "cluster_size": 20, "cluster_id": 1, "rank_in_cluster": 20}

$$$$

     RDKit          3D

 68 73  0  0  0  0  0  0  0  0999 V2000
  145.9400   67.9140  219.4000 C   0  0  0  0  0  0  0  0  0  0  0  0
  145.0510   69.1190  219.1130 C   0  0  0  0  0  0  0  0  0  0  0  0
  145.8720   70.2690  218.7120 N   0  0  0  0  0  0  0  0  0  0  0  0
  145.4870   71.4870  219.4500 C   0  0  2  0  0  0  0  0  0  0  0  0
  144.0620   71.3160  220.0600 C   0  0  0  0  0  0  0  0  0  0  0  0
  143.2580   72.5400  219.9330 N   0  0  0  0  0  0  0  0  0  0  0  0
  142.2280   72.8390  220.8950 C   0  0  0  0  0  0  0  0  0  0  0  0
  141.7900   71.8790  221.7490 N   0  0  0  0  0  0  0  0  0  0  0  0
  140.8180   72.1500  222.6610 C   0  0  0  0  0  0  0  0  0  0  0  0
  140.3620   71.1190  223.5650 N   0  0  0  0  0  0  0  0  0  0  0  0
  139.1100   70.3960  223.2910 C   0  0  0  0  0  0  0  0  0  0  0  0
  139.2170   68.9460  223.7520 C   0  0  0  0  0  0  0  0  0  0  0  0
  139.6090   68.8940  225.1970 C   0  0  0  0  0  0  0  0  0  0  0  0
  139.1510   67.8500  226.0180 C   0  0  0  0  0  0  0  0  0  0  0  0
  139.5490   67.7780  227.3550 C   0  0  0  0  0  0  0  0  0  0  0  0
  140.4200   68.7380  227.8760 C   0  0  0  0  0  0  0  0  0  0  0  0
  140.8970   69.7680  227.0620 C   0  0  0  0  0  0  0  0  0  0  0  0
  140.4950   69.8570  225.7200 C   0  0  0  0  0  0  0  0  0  0  0  0
  141.0800   70.9390  224.8430 C   0  0  0  0  0  0  0  0  0  0  0  0
  140.2870   73.4010  222.7120 N   0  0  0  0  0  0  0  0  0  0  0  0
  140.7140   74.3740  221.8660 C   0  0  0  0  0  0  0  0  0  0  0  0
  140.1610   75.7060  221.9350 N   0  0  0  0  0  0  0  0  0  0  0  0
  138.8140   75.9870  221.4160 C   0  0  0  0  0  0  0  0  0  0  0  0
  138.0730   76.9110  222.3770 C   0  0  0  0  0  0  0  0  0  0  0  0
  138.8830   78.1440  222.6560 C   0  0  0  0  0  0  0  0  0  0  0  0
  138.2330   79.3360  223.0130 C   0  0  0  0  0  0  0  0  0  0  0  0
  138.9740   80.4790  223.3270 C   0  0  0  0  0  0  0  0  0  0  0  0
  140.3680   80.4370  223.2980 C   0  0  0  0  0  0  0  0  0  0  0  0
  141.0260   79.2530  222.9560 C   0  0  0  0  0  0  0  0  0  0  0  0
  140.2930   78.0960  222.6390 C   0  0  0  0  0  0  0  0  0  0  0  0
  141.0420   76.8230  222.3160 C   0  0  0  0  0  0  0  0  0  0  0  0
  141.6870   74.0830  220.9610 N   0  0  0  0  0  0  0  0  0  0  0  0
  143.3510   73.3440  218.7100 C   0  0  0  0  0  0  0  0  0  0  0  0
  144.4860   72.8380  217.8250 C   0  0  0  0  0  0  0  0  0  0  0  0
  145.6310   72.6360  218.6220 O   0  0  0  0  0  0  0  0  0  0  0  0
  146.0379   67.7813  220.4876 H   0  0  0  0  0  0  0  0  0  0  0  0
  145.4890   67.0125  218.9597 H   0  0  0  0  0  0  0  0  0  0  0  0
  146.9345   68.0789  218.9597 H   0  0  0  0  0  0  0  0  0  0  0  0
  144.3522   68.8702  218.3007 H   0  0  0  0  0  0  0  0  0  0  0  0
  144.4905   69.3774  220.0235 H   0  0  0  0  0  0  0  0  0  0  0  0
  145.6860   70.4440  217.6960 H   0  0  0  0  0  0  0  0  0  0  0  0
  146.1664   71.6448  220.3006 H   0  0  0  0  0  0  0  0  0  0  0  0
  143.5473   70.4971  219.5360 H   0  0  0  0  0  0  0  0  0  0  0  0
  144.1755   71.0937  221.1313 H   0  0  0  0  0  0  0  0  0  0  0  0
  138.2843   70.8862  223.8276 H   0  0  0  0  0  0  0  0  0  0  0  0
  138.9209   70.4112  222.2075 H   0  0  0  0  0  0  0  0  0  0  0  0
  138.2443   68.4495  223.6206 H   0  0  0  0  0  0  0  0  0  0  0  0
  139.9827   68.4325  223.1520 H   0  0  0  0  0  0  0  0  0  0  0  0
  138.4758   67.0856  225.6060 H   0  0  0  0  0  0  0  0  0  0  0  0
  139.1769   66.9661  227.9971 H   0  0  0  0  0  0  0  0  0  0  0  0
  140.7309   68.6826  228.9297 H   0  0  0  0  0  0  0  0  0  0  0  0
  141.5919   70.5139  227.4751 H   0  0  0  0  0  0  0  0  0  0  0  0
  141.0486   71.8894  225.3960 H   0  0  0  0  0  0  0  0  0  0  0  0
  142.1068   70.6321  224.5949 H   0  0  0  0  0  0  0  0  0  0  0  0
  138.8955   76.4725  220.4323 H   0  0  0  0  0  0  0  0  0  0  0  0
  138.2580   75.0429  221.3182 H   0  0  0  0  0  0  0  0  0  0  0  0
  137.1122   77.2037  221.9283 H   0  0  0  0  0  0  0  0  0  0  0  0
  137.9043   76.3763  223.3234 H   0  0  0  0  0  0  0  0  0  0  0  0
  137.1340   79.3708  223.0458 H   0  0  0  0  0  0  0  0  0  0  0  0
  138.4576   81.4119  223.5971 H   0  0  0  0  0  0  0  0  0  0  0  0
  140.9499   81.3373  223.5447 H   0  0  0  0  0  0  0  0  0  0  0  0
  142.1255   79.2259  222.9346 H   0  0  0  0  0  0  0  0  0  0  0  0
  141.7293   77.0252  221.4813 H   0  0  0  0  0  0  0  0  0  0  0  0
  141.5746   76.5192  223.2293 H   0  0  0  0  0  0  0  0  0  0  0  0
  142.4023   73.2744  218.1577 H   0  0  0  0  0  0  0  0  0  0  0  0
  143.5527   74.3897  218.9853 H   0  0  0  0  0  0  0  0  0  0  0  0
  144.1918   71.8885  217.3540 H   0  0  0  0  0  0  0  0  0  0  0  0
  144.7041   73.5768  217.0397 H   0  0  0  0  0  0  0  0  0  0  0  0
  1  2  1  0
  2  3  1  0
  3  4  1  0
  4  5  1  0
  5  6  1  0
  6  7  1  0
  7  8  2  0
  8  9  1  0
  9 10  1  0
 10 11  1  0
 11 12  1  0
 12 13  1  0
 13 14  2  0
 14 15  1  0
 15 16  2  0
 16 17  1  0
 17 18  2  0
 18 19  1  0
  9 20  2  0
 20 21  1  0
 21 22  1  0
 22 23  1  0
 23 24  1  0
 24 25  1  0
 25 26  2  0
 26 27  1  0
 27 28  2  0
 28 29  1  0
 29 30  2  0
 30 31  1  0
 21 32  2  0
  6 33  1  0
 33 34  1  0
 34 35  1  0
 35  4  1  0
 32  7  1  0
 19 10  1  0
 31 22  1  0
 18 13  1  0
 30 25  1  0
  1 36  1  0
  1 37  1  0
  1 38  1  0
  2 39  1  0
  2 40  1  0
  3 41  1  0
  4 42  1  1
  5 43  1  0
  5 44  1  0
 11 45  1  0
 11 46  1  0
 12 47  1  0
 12 48  1  0
 14 49  1  0
 15 50  1  0
 16 51  1  0
 17 52  1  0
 19 53  1  0
 19 54  1  0
 23 55  1  0
 23 56  1  0
 24 57  1  0
 24 58  1  0
 26 59  1  0
 27 60  1  0
 28 61  1  0
 29 62  1  0
 31 63  1  0
 31 64  1  0
 33 65  1  0
 33 66  1  0
 34 67  1  0
 34 68  1  0
M  END
>  <meeko>  (3) 
{"free_energy": -9.75, "intermolecular_energy": -11.25, "internal_energy": -0.87, "cluster_size": 20, "cluster_id": 1, "rank_in_cluster": 6}

$$$$

     RDKit          3D

 68 73  0  0  0  0  0  0  0  0999 V2000
  145.9510   67.9960  219.3250 C   0  0  0  0  0  0  0  0  0  0  0  0
  144.8770   68.9130  218.7510 C   0  0  0  0  0  0  0  0  0  0  0  0
  145.4750   70.1830  218.3180 N   0  0  0  0  0  0  0  0  0  0  0  0
  145.2700   71.2430  219.3230 C   0  0  2  0  0  0  0  0  0  0  0  0
  143.7860   71.2470  219.8030 C   0  0  0  0  0  0  0  0  0  0  0  0
  143.2590   72.6110  219.9530 N   0  0  0  0  0  0  0  0  0  0  0  0
  142.2190   72.8900  220.9110 C   0  0  0  0  0  0  0  0  0  0  0  0
  141.7860   71.9160  221.7540 N   0  0  0  0  0  0  0  0  0  0  0  0
  140.8060   72.1680  222.6610 C   0  0  0  0  0  0  0  0  0  0  0  0
  140.3560   71.1240  223.5530 N   0  0  0  0  0  0  0  0  0  0  0  0
  139.1120   70.3910  223.2640 C   0  0  0  0  0  0  0  0  0  0  0  0
  139.2320   68.9370  223.7110 C   0  0  0  0  0  0  0  0  0  0  0  0
  139.6170   68.8750  225.1590 C   0  0  0  0  0  0  0  0  0  0  0  0
  139.1650   67.8180  225.9660 C   0  0  0  0  0  0  0  0  0  0  0  0
  139.5560   67.7380  227.3050 C   0  0  0  0  0  0  0  0  0  0  0  0
  140.4140   68.7010  227.8410 C   0  0  0  0  0  0  0  0  0  0  0  0
  140.8850   69.7430  227.0400 C   0  0  0  0  0  0  0  0  0  0  0  0
  140.4890   69.8420  225.6960 C   0  0  0  0  0  0  0  0  0  0  0  0
  141.0680   70.9380  224.8330 C   0  0  0  0  0  0  0  0  0  0  0  0
  140.2600   73.4120  222.7200 N   0  0  0  0  0  0  0  0  0  0  0  0
  140.6810   74.3980  221.8860 C   0  0  0  0  0  0  0  0  0  0  0  0
  140.1130   75.7230  221.9640 N   0  0  0  0  0  0  0  0  0  0  0  0
  138.7610   75.9900  221.4530 C   0  0  0  0  0  0  0  0  0  0  0  0
  138.0130   76.9010  222.4210 C   0  0  0  0  0  0  0  0  0  0  0  0
  138.8090   78.1420  222.7010 C   0  0  0  0  0  0  0  0  0  0  0  0
  138.1470   79.3250  223.0670 C   0  0  0  0  0  0  0  0  0  0  0  0
  138.8760   80.4750  223.3830 C   0  0  0  0  0  0  0  0  0  0  0  0
  140.2700   80.4500  223.3460 C   0  0  0  0  0  0  0  0  0  0  0  0
  140.9410   79.2760  222.9960 C   0  0  0  0  0  0  0  0  0  0  0  0
  140.2200   78.1110  222.6780 C   0  0  0  0  0  0  0  0  0  0  0  0
  140.9820   76.8490  222.3460 C   0  0  0  0  0  0  0  0  0  0  0  0
  141.6640   74.1270  220.9850 N   0  0  0  0  0  0  0  0  0  0  0  0
  143.6310   73.6430  218.9800 C   0  0  0  0  0  0  0  0  0  0  0  0
  144.7250   73.1280  218.0500 C   0  0  0  0  0  0  0  0  0  0  0  0
  145.7220   72.4970  218.8210 O   0  0  0  0  0  0  0  0  0  0  0  0
  145.9124   68.0290  220.4238 H   0  0  0  0  0  0  0  0  0  0  0  0
  145.7746   66.9656  218.9827 H   0  0  0  0  0  0  0  0  0  0  0  0
  146.9410   68.3317  218.9827 H   0  0  0  0  0  0  0  0  0  0  0  0
  144.4023   68.4219  217.8888 H   0  0  0  0  0  0  0  0  0  0  0  0
  144.1248   69.1160  219.5275 H   0  0  0  0  0  0  0  0  0  0  0  0
  144.9800   70.4770  217.4430 H   0  0  0  0  0  0  0  0  0  0  0  0
  145.8792   71.0408  220.2163 H   0  0  0  0  0  0  0  0  0  0  0  0
  143.1728   70.7086  219.0654 H   0  0  0  0  0  0  0  0  0  0  0  0
  143.7461   70.7574  220.7872 H   0  0  0  0  0  0  0  0  0  0  0  0
  138.2783   70.8671  223.8009 H   0  0  0  0  0  0  0  0  0  0  0  0
  138.9283   70.4157  222.1797 H   0  0  0  0  0  0  0  0  0  0  0  0
  138.2654   68.4315  223.5692 H   0  0  0  0  0  0  0  0  0  0  0  0
  140.0062   68.4375  223.1101 H   0  0  0  0  0  0  0  0  0  0  0  0
  138.5007   67.0504  225.5423 H   0  0  0  0  0  0  0  0  0  0  0  0
  139.1880   66.9164  227.9372 H   0  0  0  0  0  0  0  0  0  0  0  0
  140.7191   68.6383  228.8960 H   0  0  0  0  0  0  0  0  0  0  0  0
  141.5707   70.4913  227.4642 H   0  0  0  0  0  0  0  0  0  0  0  0
  141.0242   71.8825  225.3952 H   0  0  0  0  0  0  0  0  0  0  0  0
  142.0989   70.6432  224.5876 H   0  0  0  0  0  0  0  0  0  0  0  0
  138.8321   76.4805  220.4710 H   0  0  0  0  0  0  0  0  0  0  0  0
  138.2160   75.0396  221.3542 H   0  0  0  0  0  0  0  0  0  0  0  0
  137.0467   77.1837  221.9778 H   0  0  0  0  0  0  0  0  0  0  0  0
  137.8549   76.3606  223.3660 H   0  0  0  0  0  0  0  0  0  0  0  0
  137.0479   79.3469  223.1053 H   0  0  0  0  0  0  0  0  0  0  0  0
  138.3500   81.4002  223.6610 H   0  0  0  0  0  0  0  0  0  0  0  0
  140.8421   81.3565  223.5929 H   0  0  0  0  0  0  0  0  0  0  0  0
  142.0406   79.2625  222.9689 H   0  0  0  0  0  0  0  0  0  0  0  0
  141.6630   77.0631  221.5091 H   0  0  0  0  0  0  0  0  0  0  0  0
  141.5220   76.5476  223.2557 H   0  0  0  0  0  0  0  0  0  0  0  0
  142.7472   73.9147  218.3842 H   0  0  0  0  0  0  0  0  0  0  0  0
  144.0079   74.5237  219.5207 H   0  0  0  0  0  0  0  0  0  0  0  0
  144.2958   72.4061  217.3397 H   0  0  0  0  0  0  0  0  0  0  0  0
  145.1632   73.9675  217.4903 H   0  0  0  0  0  0  0  0  0  0  0  0
  1  2  1  0
  2  3  1  0
  3  4  1  0
  4  5  1  0
  5  6  1  0
  6  7  1  0
  7  8  2  0
  8  9  1  0
  9 10  1  0
 10 11  1  0
 11 12  1  0
 12 13  1  0
 13 14  2  0
 14 15  1  0
 15 16  2  0
 16 17  1  0
 17 18  2  0
 18 19  1  0
  9 20  2  0
 20 21  1  0
 21 22  1  0
 22 23  1  0
 23 24  1  0
 24 25  1  0
 25 26  2  0
 26 27  1  0
 27 28  2  0
 28 29  1  0
 29 30  2  0
 30 31  1  0
 21 32  2  0
  6 33  1  0
 33 34  1  0
 34 35  1  0
 35  4  1  0
 32  7  1  0
 19 10  1  0
 31 22  1  0
 18 13  1  0
 30 25  1  0
  1 36  1  0
  1 37  1  0
  1 38  1  0
  2 39  1  0
  2 40  1  0
  3 41  1  0
  4 42  1  1
  5 43  1  0
  5 44  1  0
 11 45  1  0
 11 46  1  0
 12 47  1  0
 12 48  1  0
 14 49  1  0
 15 50  1  0
 16 51  1  0
 17 52  1  0
 19 53  1  0
 19 54  1  0
 23 55  1  0
 23 56  1  0
 24 57  1  0
 24 58  1  0
 26 59  1  0
 27 60  1  0
 28 61  1  0
 29 62  1  0
 31 63  1  0
 31 64  1  0
 33 65  1  0
 33 66  1  0
 34 67  1  0
 34 68  1  0
M  END
>  <meeko>  (4) 
{"free_energy": -9.7, "intermolecular_energy": -11.19, "internal_energy": -0.87, "cluster_size": 20, "cluster_id": 1, "rank_in_cluster": 10}

$$$$

     RDKit          3D

 68 73  0  0  0  0  0  0  0  0999 V2000
  147.4990   74.4740  216.3500 C   0  0  0  0  0  0  0  0  0  0  0  0
  146.3860   73.4350  216.4250 C   0  0  0  0  0  0  0  0  0  0  0  0
  145.9640   73.2460  217.8190 N   0  0  0  0  0  0  0  0  0  0  0  0
  144.4990   73.1190  217.9240 C   0  0  2  0  0  0  0  0  0  0  0  0
  144.0480   73.3180  219.4040 C   0  0  0  0  0  0  0  0  0  0  0  0
  142.9950   72.3680  219.7910 N   0  0  0  0  0  0  0  0  0  0  0  0
  142.0340   72.7190  220.8060 C   0  0  0  0  0  0  0  0  0  0  0  0
  141.6250   71.7930  221.7110 N   0  0  0  0  0  0  0  0  0  0  0  0
  140.7190   72.1130  222.6730 C   0  0  0  0  0  0  0  0  0  0  0  0
  140.2940   71.1180  223.6310 N   0  0  0  0  0  0  0  0  0  0  0  0
  139.0580   70.3520  223.4020 C   0  0  0  0  0  0  0  0  0  0  0  0
  139.2040   68.9300  223.9340 C   0  0  0  0  0  0  0  0  0  0  0  0
  139.6060   68.9590  225.3780 C   0  0  0  0  0  0  0  0  0  0  0  0
  139.1780   67.9470  226.2520 C   0  0  0  0  0  0  0  0  0  0  0  0
  139.5860   67.9520  227.5890 C   0  0  0  0  0  0  0  0  0  0  0  0
  140.4360   68.9570  228.0550 C   0  0  0  0  0  0  0  0  0  0  0  0
  140.8840   69.9560  227.1870 C   0  0  0  0  0  0  0  0  0  0  0  0
  140.4710   69.9680  225.8450 C   0  0  0  0  0  0  0  0  0  0  0  0
  141.0240   71.0190  224.9110 C   0  0  0  0  0  0  0  0  0  0  0  0
  140.2240   73.3780  222.7220 N   0  0  0  0  0  0  0  0  0  0  0  0
  140.6220   74.3180  221.8260 C   0  0  0  0  0  0  0  0  0  0  0  0
  140.1080   75.6650  221.8930 N   0  0  0  0  0  0  0  0  0  0  0  0
  138.7820   75.9910  221.3490 C   0  0  0  0  0  0  0  0  0  0  0  0
  138.0490   76.9300  222.3000 C   0  0  0  0  0  0  0  0  0  0  0  0
  138.8890   78.1360  222.6040 C   0  0  0  0  0  0  0  0  0  0  0  0
  138.2690   79.3460  222.9560 C   0  0  0  0  0  0  0  0  0  0  0  0
  139.0380   80.4640  223.2930 C   0  0  0  0  0  0  0  0  0  0  0  0
  140.4300   80.3790  223.2920 C   0  0  0  0  0  0  0  0  0  0  0  0
  141.0590   79.1780  222.9550 C   0  0  0  0  0  0  0  0  0  0  0  0
  140.2980   78.0460  222.6160 C   0  0  0  0  0  0  0  0  0  0  0  0
  141.0140   76.7530  222.3000 C   0  0  0  0  0  0  0  0  0  0  0  0
  141.5300   73.9780  220.8720 N   0  0  0  0  0  0  0  0  0  0  0  0
  143.0530   70.9840  219.3090 C   0  0  0  0  0  0  0  0  0  0  0  0
  144.1550   70.8310  218.2650 C   0  0  0  0  0  0  0  0  0  0  0  0
  144.0640   71.8930  217.3440 O   0  0  0  0  0  0  0  0  0  0  0  0
  147.8040   74.7587  217.3678 H   0  0  0  0  0  0  0  0  0  0  0  0
  148.3609   74.0500  215.8140 H   0  0  0  0  0  0  0  0  0  0  0  0
  147.1352   75.3630  215.8140 H   0  0  0  0  0  0  0  0  0  0  0  0
  145.5277   73.7778  215.8285 H   0  0  0  0  0  0  0  0  0  0  0  0
  146.7593   72.4789  216.0294 H   0  0  0  0  0  0  0  0  0  0  0  0
  146.2450   74.1060  218.3480 H   0  0  0  0  0  0  0  0  0  0  0  0
  144.0078   73.9151  217.3453 H   0  0  0  0  0  0  0  0  0  0  0  0
  144.9169   73.1728  220.0627 H   0  0  0  0  0  0  0  0  0  0  0  0
  143.6407   74.3351  219.5014 H   0  0  0  0  0  0  0  0  0  0  0  0
  138.2236   70.8481  223.9194 H   0  0  0  0  0  0  0  0  0  0  0  0
  138.8618   70.3086  222.3205 H   0  0  0  0  0  0  0  0  0  0  0  0
  138.2432   68.4038  223.8343 H   0  0  0  0  0  0  0  0  0  0  0  0
  139.9791   68.4067  223.3549 H   0  0  0  0  0  0  0  0  0  0  0  0
  138.5191   67.1471  225.8832 H   0  0  0  0  0  0  0  0  0  0  0  0
  139.2376   67.1646  228.2736 H   0  0  0  0  0  0  0  0  0  0  0  0
  140.7537   68.9622  229.1081 H   0  0  0  0  0  0  0  0  0  0  0  0
  141.5640   70.7375  227.5570 H   0  0  0  0  0  0  0  0  0  0  0  0
  140.9728   71.9946  225.4165 H   0  0  0  0  0  0  0  0  0  0  0  0
  142.0564   70.7249  224.6708 H   0  0  0  0  0  0  0  0  0  0  0  0
  138.8991   76.4805  220.3709 H   0  0  0  0  0  0  0  0  0  0  0  0
  138.1998   75.0649  221.2333 H   0  0  0  0  0  0  0  0  0  0  0  0
  137.1070   77.2539  221.8334 H   0  0  0  0  0  0  0  0  0  0  0  0
  137.8444   76.3947  223.2389 H   0  0  0  0  0  0  0  0  0  0  0  0
  137.1712   79.4146  222.9666 H   0  0  0  0  0  0  0  0  0  0  0  0
  138.5450   81.4107  223.5589 H   0  0  0  0  0  0  0  0  0  0  0  0
  141.0339   81.2594  223.5571 H   0  0  0  0  0  0  0  0  0  0  0  0
  142.1574   79.1179  222.9550 H   0  0  0  0  0  0  0  0  0  0  0  0
  141.7245   76.9393  221.4812 H   0  0  0  0  0  0  0  0  0  0  0  0
  141.5173   76.4276  223.2224 H   0  0  0  0  0  0  0  0  0  0  0  0
  143.2603   70.3135  220.1560 H   0  0  0  0  0  0  0  0  0  0  0  0
  142.0876   70.7250  218.8498 H   0  0  0  0  0  0  0  0  0  0  0  0
  145.1374   70.8546  218.7594 H   0  0  0  0  0  0  0  0  0  0  0  0
  144.0387   69.8718  217.7393 H   0  0  0  0  0  0  0  0  0  0  0  0
  1  2  1  0
  2  3  1  0
  3  4  1  0
  4  5  1  0
  5  6  1  0
  6  7  1  0
  7  8  2  0
  8  9  1  0
  9 10  1  0
 10 11  1  0
 11 12  1  0
 12 13  1  0
 13 14  2  0
 14 15  1  0
 15 16  2  0
 16 17  1  0
 17 18  2  0
 18 19  1  0
  9 20  2  0
 20 21  1  0
 21 22  1  0
 22 23  1  0
 23 24  1  0
 24 25  1  0
 25 26  2  0
 26 27  1  0
 27 28  2  0
 28 29  1  0
 29 30  2  0
 30 31  1  0
 21 32  2  0
  6 33  1  0
 33 34  1  0
 34 35  1  0
 35  4  1  0
 32  7  1  0
 19 10  1  0
 31 22  1  0
 18 13  1  0
 30 25  1  0
  1 36  1  0
  1 37  1  0
  1 38  1  0
  2 39  1  0
  2 40  1  0
  3 41  1  0
  4 42  1  6
  5 43  1  0
  5 44  1  0
 11 45  1  0
 11 46  1  0
 12 47  1  0
 12 48  1  0
 14 49  1  0
 15 50  1  0
 16 51  1  0
 17 52  1  0
 19 53  1  0
 19 54  1  0
 23 55  1  0
 23 56  1  0
 24 57  1  0
 24 58  1  0
 26 59  1  0
 27 60  1  0
 28 61  1  0
 29 62  1  0
 31 63  1  0
 31 64  1  0
 33 65  1  0
 33 66  1  0
 34 67  1  0
 34 68  1  0
M  END
>  <meeko>  (5) 
{"free_energy": -9.57, "intermolecular_energy": -11.06, "internal_energy": -0.82, "cluster_size": 20, "cluster_id": 1, "rank_in_cluster": 16}

$$$$

     RDKit          3D

 68 73  0  0  0  0  0  0  0  0999 V2000
  144.3680   75.9980  215.9300 C   0  0  0  0  0  0  0  0  0  0  0  0
  144.4650   74.4790  215.8380 C   0  0  0  0  0  0  0  0  0  0  0  0
  145.4250   73.9730  216.8290 N   0  0  0  0  0  0  0  0  0  0  0  0
  144.7590   73.1380  217.8450 C   0  0  2  0  0  0  0  0  0  0  0  0
  143.7060   73.9820  218.6260 C   0  0  0  0  0  0  0  0  0  0  0  0
  143.7170   73.6820  220.0650 N   0  0  0  0  0  0  0  0  0  0  0  0
  142.5190   73.8340  220.8510 C   0  0  0  0  0  0  0  0  0  0  0  0
  141.9800   72.7640  221.4910 N   0  0  0  0  0  0  0  0  0  0  0  0
  140.8500   72.8950  222.2350 C   0  0  0  0  0  0  0  0  0  0  0  0
  140.2880   71.7490  222.9120 N   0  0  0  0  0  0  0  0  0  0  0  0
  139.1830   70.9960  222.2950 C   0  0  0  0  0  0  0  0  0  0  0  0
  139.2980   69.5110  222.6280 C   0  0  0  0  0  0  0  0  0  0  0  0
  139.3690   69.3210  224.1130 C   0  0  0  0  0  0  0  0  0  0  0  0
  138.8230   68.1700  224.7050 C   0  0  0  0  0  0  0  0  0  0  0  0
  138.9250   67.9730  226.0850 C   0  0  0  0  0  0  0  0  0  0  0  0
  139.5860   68.9140  226.8780 C   0  0  0  0  0  0  0  0  0  0  0  0
  140.1500   70.0500  226.2940 C   0  0  0  0  0  0  0  0  0  0  0  0
  140.0440   70.2660  224.9100 C   0  0  0  0  0  0  0  0  0  0  0  0
  140.7220   71.4670  224.2940 C   0  0  0  0  0  0  0  0  0  0  0  0
  140.2620   74.1170  222.3370 N   0  0  0  0  0  0  0  0  0  0  0  0
  140.7880   75.1990  221.7060 C   0  0  0  0  0  0  0  0  0  0  0  0
  140.1710   76.4980  221.8310 N   0  0  0  0  0  0  0  0  0  0  0  0
  138.7650   76.7000  221.4560 C   0  0  0  0  0  0  0  0  0  0  0  0
  138.0770   77.5880  222.4880 C   0  0  0  0  0  0  0  0  0  0  0  0
  138.8410   78.8660  222.6800 C   0  0  0  0  0  0  0  0  0  0  0  0
  138.1650   80.0230  223.1030 C   0  0  0  0  0  0  0  0  0  0  0  0
  138.8700   81.2070  223.3360 C   0  0  0  0  0  0  0  0  0  0  0  0
  140.2540   81.2420  223.1620 C   0  0  0  0  0  0  0  0  0  0  0  0
  140.9380   80.0940  222.7540 C   0  0  0  0  0  0  0  0  0  0  0  0
  140.2420   78.8960  222.5160 C   0  0  0  0  0  0  0  0  0  0  0  0
  141.0230   77.6650  222.1180 C   0  0  0  0  0  0  0  0  0  0  0  0
  141.9190   75.0470  220.9660 N   0  0  0  0  0  0  0  0  0  0  0  0
  144.9940   73.4430  220.7450 C   0  0  0  0  0  0  0  0  0  0  0  0
  146.1280   73.3440  219.7300 C   0  0  0  0  0  0  0  0  0  0  0  0
  145.7250   72.5010  218.6750 O   0  0  0  0  0  0  0  0  0  0  0  0
  144.3487   76.3008  216.9873 H   0  0  0  0  0  0  0  0  0  0  0  0
  145.2390   76.4517  215.4345 H   0  0  0  0  0  0  0  0  0  0  0  0
  143.4464   76.3372  215.4345 H   0  0  0  0  0  0  0  0  0  0  0  0
  143.4757   74.0389  216.0322 H   0  0  0  0  0  0  0  0  0  0  0  0
  144.8075   74.2006  214.8304 H   0  0  0  0  0  0  0  0  0  0  0  0
  145.8320   74.8040  217.3200 H   0  0  0  0  0  0  0  0  0  0  0  0
  144.1992   72.3251  217.3594 H   0  0  0  0  0  0  0  0  0  0  0  0
  143.9306   75.0494  218.4841 H   0  0  0  0  0  0  0  0  0  0  0  0
  142.7098   73.7293  218.2340 H   0  0  0  0  0  0  0  0  0  0  0  0
  138.2255   71.3797  222.6770 H   0  0  0  0  0  0  0  0  0  0  0  0
  139.2326   71.1211  221.2033 H   0  0  0  0  0  0  0  0  0  0  0  0
  138.4182   68.9806  222.2349 H   0  0  0  0  0  0  0  0  0  0  0  0
  140.2131   69.1086  222.1690 H   0  0  0  0  0  0  0  0  0  0  0  0
  138.3135   67.4214  224.0805 H   0  0  0  0  0  0  0  0  0  0  0  0
  138.4847   67.0769  226.5466 H   0  0  0  0  0  0  0  0  0  0  0  0
  139.6623   68.7598  227.9645 H   0  0  0  0  0  0  0  0  0  0  0  0
  140.6809   70.7807  226.9219 H   0  0  0  0  0  0  0  0  0  0  0  0
  140.4995   72.3477  224.9145 H   0  0  0  0  0  0  0  0  0  0  0  0
  141.7982   71.2432  224.2537 H   0  0  0  0  0  0  0  0  0  0  0  0
  138.7162   77.1824  220.4686 H   0  0  0  0  0  0  0  0  0  0  0  0
  138.2558   75.7257  221.4183 H   0  0  0  0  0  0  0  0  0  0  0  0
  137.0600   77.8236  222.1414 H   0  0  0  0  0  0  0  0  0  0  0  0
  138.0377   77.0512  223.4473 H   0  0  0  0  0  0  0  0  0  0  0  0
  137.0754   79.9967  223.2515 H   0  0  0  0  0  0  0  0  0  0  0  0
  138.3334   82.1121  223.6568 H   0  0  0  0  0  0  0  0  0  0  0  0
  140.8073   82.1747  223.3463 H   0  0  0  0  0  0  0  0  0  0  0  0
  142.0290   80.1279  222.6180 H   0  0  0  0  0  0  0  0  0  0  0  0
  141.6078   77.8997  221.2164 H   0  0  0  0  0  0  0  0  0  0  0  0
  141.6632   77.3971  222.9714 H   0  0  0  0  0  0  0  0  0  0  0  0
  145.1977   74.2745  221.4357 H   0  0  0  0  0  0  0  0  0  0  0  0
  144.9298   72.4960  221.3009 H   0  0  0  0  0  0  0  0  0  0  0  0
  146.3586   74.3446  219.3354 H   0  0  0  0  0  0  0  0  0  0  0  0
  147.0258   72.9319  220.2138 H   0  0  0  0  0  0  0  0  0  0  0  0
  1  2  1  0
  2  3  1  0
  3  4  1  0
  4  5  1  0
  5  6  1  0
  6  7  1  0
  7  8  2  0
  8  9  1  0
  9 10  1  0
 10 11  1  0
 11 12  1  0
 12 13  1  0
 13 14  2  0
 14 15  1  0
 15 16  2  0
 16 17  1  0
 17 18  2  0
 18 19  1  0
  9 20  2  0
 20 21  1  0
 21 22  1  0
 22 23  1  0
 23 24  1  0
 24 25  1  0
 25 26  2  0
 26 27  1  0
 27 28  2  0
 28 29  1  0
 29 30  2  0
 30 31  1  0
 21 32  2  0
  6 33  1  0
 33 34  1  0
 34 35  1  0
 35  4  1  0
 32  7  1  0
 19 10  1  0
 31 22  1  0
 18 13  1  0
 30 25  1  0
  1 36  1  0
  1 37  1  0
  1 38  1  0
  2 39  1  0
  2 40  1  0
  3 41  1  0
  4 42  1  6
  5 43  1  0
  5 44  1  0
 11 45  1  0
 11 46  1  0
 12 47  1  0
 12 48  1  0
 14 49  1  0
 15 50  1  0
 16 51  1  0
 17 52  1  0
 19 53  1  0
 19 54  1  0
 23 55  1  0
 23 56  1  0
 24 57  1  0
 24 58  1  0
 26 59  1  0
 27 60  1  0
 28 61  1  0
 29 62  1  0
 31 63  1  0
 31 64  1  0
 33 65  1  0
 33 66  1  0
 34 67  1  0
 34 68  1  0
M  END
>  <meeko>  (6) 
{"free_energy": -9.61, "intermolecular_energy": -11.11, "internal_energy": -0.86, "cluster_size": 20, "cluster_id": 1, "rank_in_cluster": 14}

$$$$

     RDKit          3D

 68 73  0  0  0  0  0  0  0  0999 V2000
  145.9240   67.9310  219.3510 C   0  0  0  0  0  0  0  0  0  0  0  0
  144.9030   68.9730  218.9060 C   0  0  0  0  0  0  0  0  0  0  0  0
  145.5880   70.1820  218.4310 N   0  0  0  0  0  0  0  0  0  0  0  0
  145.3240   71.3320  219.3150 C   0  0  2  0  0  0  0  0  0  0  0  0
  143.8700   71.2550  219.8740 C   0  0  0  0  0  0  0  0  0  0  0  0
  143.2170   72.5720  219.8930 N   0  0  0  0  0  0  0  0  0  0  0  0
  142.1980   72.8670  220.8690 C   0  0  0  0  0  0  0  0  0  0  0  0
  141.7670   71.9000  221.7200 N   0  0  0  0  0  0  0  0  0  0  0  0
  140.8060   72.1660  222.6450 C   0  0  0  0  0  0  0  0  0  0  0  0
  140.3570   71.1300  223.5450 N   0  0  0  0  0  0  0  0  0  0  0  0
  139.1000   70.4110  223.2780 C   0  0  0  0  0  0  0  0  0  0  0  0
  139.2100   68.9570  223.7260 C   0  0  0  0  0  0  0  0  0  0  0  0
  139.6150   68.8930  225.1680 C   0  0  0  0  0  0  0  0  0  0  0  0
  139.1630   67.8440  225.9840 C   0  0  0  0  0  0  0  0  0  0  0  0
  139.5740   67.7610  227.3170 C   0  0  0  0  0  0  0  0  0  0  0  0
  140.4510   68.7150  227.8370 C   0  0  0  0  0  0  0  0  0  0  0  0
  140.9230   69.7500  227.0270 C   0  0  0  0  0  0  0  0  0  0  0  0
  140.5080   69.8500  225.6890 C   0  0  0  0  0  0  0  0  0  0  0  0
  141.0860   70.9380  224.8150 C   0  0  0  0  0  0  0  0  0  0  0  0
  140.2790   73.4190  222.7110 N   0  0  0  0  0  0  0  0  0  0  0  0
  140.6990   74.3980  221.8690 C   0  0  0  0  0  0  0  0  0  0  0  0
  140.1510   75.7300  221.9550 N   0  0  0  0  0  0  0  0  0  0  0  0
  138.7940   76.0160  221.4670 C   0  0  0  0  0  0  0  0  0  0  0  0
  138.0770   76.9380  222.4470 C   0  0  0  0  0  0  0  0  0  0  0  0
  138.8940   78.1680  222.7130 C   0  0  0  0  0  0  0  0  0  0  0  0
  138.2550   79.3610  223.0890 C   0  0  0  0  0  0  0  0  0  0  0  0
  139.0060   80.5010  223.3910 C   0  0  0  0  0  0  0  0  0  0  0  0
  140.3990   80.4550  223.3310 C   0  0  0  0  0  0  0  0  0  0  0  0
  141.0470   79.2710  222.9700 C   0  0  0  0  0  0  0  0  0  0  0  0
  140.3050   78.1170  222.6650 C   0  0  0  0  0  0  0  0  0  0  0  0
  141.0430   76.8440  222.3210 C   0  0  0  0  0  0  0  0  0  0  0  0
  141.6620   74.1120  220.9510 N   0  0  0  0  0  0  0  0  0  0  0  0
  143.4410   73.5090  218.7880 C   0  0  0  0  0  0  0  0  0  0  0  0
  144.5380   72.9890  217.8630 C   0  0  0  0  0  0  0  0  0  0  0  0
  145.6260   72.5530  218.6460 O   0  0  0  0  0  0  0  0  0  0  0  0
  145.9577   67.8966  220.4499 H   0  0  0  0  0  0  0  0  0  0  0  0
  145.6338   66.9438  218.9620 H   0  0  0  0  0  0  0  0  0  0  0  0
  146.9169   68.2010  218.9620 H   0  0  0  0  0  0  0  0  0  0  0  0
  144.2913   68.5579  218.0914 H   0  0  0  0  0  0  0  0  0  0  0  0
  144.2616   69.2355  219.7603 H   0  0  0  0  0  0  0  0  0  0  0  0
  145.1950   70.4120  217.4870 H   0  0  0  0  0  0  0  0  0  0  0  0
  145.9901   71.2979  220.1898 H   0  0  0  0  0  0  0  0  0  0  0  0
  143.2812   70.5758  219.2399 H   0  0  0  0  0  0  0  0  0  0  0  0
  143.9230   70.8870  220.9092 H   0  0  0  0  0  0  0  0  0  0  0  0
  138.2808   70.8980  223.8274 H   0  0  0  0  0  0  0  0  0  0  0  0
  138.8991   70.4356  222.1968 H   0  0  0  0  0  0  0  0  0  0  0  0
  138.2358   68.4622  223.5991 H   0  0  0  0  0  0  0  0  0  0  0  0
  139.9699   68.4479  223.1150 H   0  0  0  0  0  0  0  0  0  0  0  0
  138.4824   67.0842  225.5724 H   0  0  0  0  0  0  0  0  0  0  0  0
  139.2069   66.9446  227.9563 H   0  0  0  0  0  0  0  0  0  0  0  0
  140.7710   68.6511  228.8875 H   0  0  0  0  0  0  0  0  0  0  0  0
  141.6237   70.4910  227.4392 H   0  0  0  0  0  0  0  0  0  0  0  0
  141.0611   71.8839  225.3760 H   0  0  0  0  0  0  0  0  0  0  0  0
  142.1097   70.6310  224.5546 H   0  0  0  0  0  0  0  0  0  0  0  0
  138.8550   76.5048  220.4834 H   0  0  0  0  0  0  0  0  0  0  0  0
  138.2336   75.0736  221.3781 H   0  0  0  0  0  0  0  0  0  0  0  0
  137.1071   77.2340  222.0207 H   0  0  0  0  0  0  0  0  0  0  0  0
  137.9291   76.4000  223.3950 H   0  0  0  0  0  0  0  0  0  0  0  0
  137.1571   79.3986  223.1462 H   0  0  0  0  0  0  0  0  0  0  0  0
  138.4984   81.4343  223.6760 H   0  0  0  0  0  0  0  0  0  0  0  0
  140.9885   81.3529  223.5684 H   0  0  0  0  0  0  0  0  0  0  0  0
  142.1457   79.2418  222.9242 H   0  0  0  0  0  0  0  0  0  0  0  0
  141.7124   77.0478  221.4722 H   0  0  0  0  0  0  0  0  0  0  0  0
  141.5944   76.5355  223.2214 H   0  0  0  0  0  0  0  0  0  0  0  0
  142.5087   73.6239  218.2156 H   0  0  0  0  0  0  0  0  0  0  0  0
  143.7532   74.4795  219.2011 H   0  0  0  0  0  0  0  0  0  0  0  0
  144.1514   72.1489  217.2674 H   0  0  0  0  0  0  0  0  0  0  0  0
  144.8645   73.7907  217.1843 H   0  0  0  0  0  0  0  0  0  0  0  0
  1  2  1  0
  2  3  1  0
  3  4  1  0
  4  5  1  0
  5  6  1  0
  6  7  1  0
  7  8  2  0
  8  9  1  0
  9 10  1  0
 10 11  1  0
 11 12  1  0
 12 13  1  0
 13 14  2  0
 14 15  1  0
 15 16  2  0
 16 17  1  0
 17 18  2  0
 18 19  1  0
  9 20  2  0
 20 21  1  0
 21 22  1  0
 22 23  1  0
 23 24  1  0
 24 25  1  0
 25 26  2  0
 26 27  1  0
 27 28  2  0
 28 29  1  0
 29 30  2  0
 30 31  1  0
 21 32  2  0
  6 33  1  0
 33 34  1  0
 34 35  1  0
 35  4  1  0
 32  7  1  0
 19 10  1  0
 31 22  1  0
 18 13  1  0
 30 25  1  0
  1 36  1  0
  1 37  1  0
  1 38  1  0
  2 39  1  0
  2 40  1  0
  3 41  1  0
  4 42  1  1
  5 43  1  0
  5 44  1  0
 11 45  1  0
 11 46  1  0
 12 47  1  0
 12 48  1  0
 14 49  1  0
 15 50  1  0
 16 51  1  0
 17 52  1  0
 19 53  1  0
 19 54  1  0
 23 55  1  0
 23 56  1  0
 24 57  1  0
 24 58  1  0
 26 59  1  0
 27 60  1  0
 28 61  1  0
 29 62  1  0
 31 63  1  0
 31 64  1  0
 33 65  1  0
 33 66  1  0
 34 67  1  0
 34 68  1  0
M  END
>  <meeko>  (7) 
{"free_energy": -9.76, "intermolecular_energy": -11.26, "internal_energy": -0.87, "cluster_size": 20, "cluster_id": 1, "rank_in_cluster": 4}

$$$$

     RDKit          3D

 68 73  0  0  0  0  0  0  0  0999 V2000
  147.7370   74.3760  216.3760 C   0  0  0  0  0  0  0  0  0  0  0  0
  146.2880   73.9060  216.4460 C   0  0  0  0  0  0  0  0  0  0  0  0
  145.9950   73.3690  217.7820 N   0  0  0  0  0  0  0  0  0  0  0  0
  144.5630   73.0470  217.9280 C   0  0  2  0  0  0  0  0  0  0  0  0
  144.0860   73.3760  219.3760 C   0  0  0  0  0  0  0  0  0  0  0  0
  143.1810   72.3450  219.9050 N   0  0  0  0  0  0  0  0  0  0  0  0
  142.1770   72.6870  220.8800 C   0  0  0  0  0  0  0  0  0  0  0  0
  141.7490   71.7600  221.7760 N   0  0  0  0  0  0  0  0  0  0  0  0
  140.8030   72.0720  222.7010 C   0  0  0  0  0  0  0  0  0  0  0  0
  140.3580   71.0760  223.6490 N   0  0  0  0  0  0  0  0  0  0  0  0
  139.0920   70.3580  223.4280 C   0  0  0  0  0  0  0  0  0  0  0  0
  139.1960   68.9220  223.9340 C   0  0  0  0  0  0  0  0  0  0  0  0
  139.6210   68.9140  225.3710 C   0  0  0  0  0  0  0  0  0  0  0  0
  139.1710   67.9030  226.2360 C   0  0  0  0  0  0  0  0  0  0  0  0
  139.5990   67.8710  227.5660 C   0  0  0  0  0  0  0  0  0  0  0  0
  140.4910   68.8380  228.0350 C   0  0  0  0  0  0  0  0  0  0  0  0
  140.9600   69.8350  227.1760 C   0  0  0  0  0  0  0  0  0  0  0  0
  140.5280   69.8840  225.8410 C   0  0  0  0  0  0  0  0  0  0  0  0
  141.1030   70.9300  224.9160 C   0  0  0  0  0  0  0  0  0  0  0  0
  140.2860   73.3300  222.7230 N   0  0  0  0  0  0  0  0  0  0  0  0
  140.7030   74.2700  221.8360 C   0  0  0  0  0  0  0  0  0  0  0  0
  140.1660   75.6090  221.8740 N   0  0  0  0  0  0  0  0  0  0  0  0
  138.8190   75.8930  221.3580 C   0  0  0  0  0  0  0  0  0  0  0  0
  138.0950   76.8500  222.2990 C   0  0  0  0  0  0  0  0  0  0  0  0
  138.9210   78.0800  222.5410 C   0  0  0  0  0  0  0  0  0  0  0  0
  138.2870   79.2890  222.8710 C   0  0  0  0  0  0  0  0  0  0  0  0
  139.0440   80.4300  223.1510 C   0  0  0  0  0  0  0  0  0  0  0  0
  140.4370   80.3710  223.1140 C   0  0  0  0  0  0  0  0  0  0  0  0
  141.0790   79.1710  222.7980 C   0  0  0  0  0  0  0  0  0  0  0  0
  140.3310   78.0150  222.5160 C   0  0  0  0  0  0  0  0  0  0  0  0
  141.0620   76.7250  222.2210 C   0  0  0  0  0  0  0  0  0  0  0  0
  141.6510   73.9390  220.9190 N   0  0  0  0  0  0  0  0  0  0  0  0
  143.4400   70.9320  219.6100 C   0  0  0  0  0  0  0  0  0  0  0  0
  144.5550   70.8000  218.5770 C   0  0  0  0  0  0  0  0  0  0  0  0
  144.3120   71.7050  217.5240 O   0  0  0  0  0  0  0  0  0  0  0  0
  148.1307   74.5037  217.3952 H   0  0  0  0  0  0  0  0  0  0  0  0
  148.3399   73.6273  215.8412 H   0  0  0  0  0  0  0  0  0  0  0  0
  147.7857   75.3360  215.8412 H   0  0  0  0  0  0  0  0  0  0  0  0
  145.6198   74.7553  216.2407 H   0  0  0  0  0  0  0  0  0  0  0  0
  146.1295   73.1155  215.6977 H   0  0  0  0  0  0  0  0  0  0  0  0
  146.2220   74.1210  218.4750 H   0  0  0  0  0  0  0  0  0  0  0  0
  143.9620   73.6782  217.2569 H   0  0  0  0  0  0  0  0  0  0  0  0
  144.9659   73.4470  220.0323 H   0  0  0  0  0  0  0  0  0  0  0  0
  143.5355   74.3278  219.3445 H   0  0  0  0  0  0  0  0  0  0  0  0
  138.2842   70.8742  223.9675 H   0  0  0  0  0  0  0  0  0  0  0  0
  138.8770   70.3402  222.3494 H   0  0  0  0  0  0  0  0  0  0  0  0
  138.2159   68.4313  223.8414 H   0  0  0  0  0  0  0  0  0  0  0  0
  139.9425   68.3811  223.3339 H   0  0  0  0  0  0  0  0  0  0  0  0
  138.4786   67.1330  225.8649 H   0  0  0  0  0  0  0  0  0  0  0  0
  139.2336   67.0848  228.2430 H   0  0  0  0  0  0  0  0  0  0  0  0
  140.8249   68.8146  229.0828 H   0  0  0  0  0  0  0  0  0  0  0  0
  141.6722   70.5863  227.5479 H   0  0  0  0  0  0  0  0  0  0  0  0
  141.0936   71.8982  225.4380 H   0  0  0  0  0  0  0  0  0  0  0  0
  142.1206   70.6039  224.6549 H   0  0  0  0  0  0  0  0  0  0  0  0
  138.8992   76.3520  220.3615 H   0  0  0  0  0  0  0  0  0  0  0  0
  138.2514   74.9533  221.2894 H   0  0  0  0  0  0  0  0  0  0  0  0
  137.1349   77.1423  221.8487 H   0  0  0  0  0  0  0  0  0  0  0  0
  137.9260   76.3419  223.2599 H   0  0  0  0  0  0  0  0  0  0  0  0
  137.1888   79.3381  222.9093 H   0  0  0  0  0  0  0  0  0  0  0  0
  138.5406   81.3756  223.4008 H   0  0  0  0  0  0  0  0  0  0  0  0
  141.0309   81.2704  223.3339 H   0  0  0  0  0  0  0  0  0  0  0  0
  142.1779   79.1307  222.7697 H   0  0  0  0  0  0  0  0  0  0  0  0
  141.7463   76.8976  221.3772 H   0  0  0  0  0  0  0  0  0  0  0  0
  141.5961   76.4382  223.1389 H   0  0  0  0  0  0  0  0  0  0  0  0
  143.7401   70.4177  220.5349 H   0  0  0  0  0  0  0  0  0  0  0  0
  142.5233   70.4781  219.2055 H   0  0  0  0  0  0  0  0  0  0  0  0
  145.5225   71.0312  219.0465 H   0  0  0  0  0  0  0  0  0  0  0  0
  144.5809   69.7721  218.1862 H   0  0  0  0  0  0  0  0  0  0  0  0
  1  2  1  0
  2  3  1  0
  3  4  1  0
  4  5  1  0
  5  6  1  0
  6  7  1  0
  7  8  2  0
  8  9  1  0
  9 10  1  0
 10 11  1  0
 11 12  1  0
 12 13  1  0
 13 14  2  0
 14 15  1  0
 15 16  2  0
 16 17  1  0
 17 18  2  0
 18 19  1  0
  9 20  2  0
 20 21  1  0
 21 22  1  0
 22 23  1  0
 23 24  1  0
 24 25  1  0
 25 26  2  0
 26 27  1  0
 27 28  2  0
 28 29  1  0
 29 30  2  0
 30 31  1  0
 21 32  2  0
  6 33  1  0
 33 34  1  0
 34 35  1  0
 35  4  1  0
 32  7  1  0
 19 10  1  0
 31 22  1  0
 18 13  1  0
 30 25  1  0
  1 36  1  0
  1 37  1  0
  1 38  1  0
  2 39  1  0
  2 40  1  0
  3 41  1  0
  4 42  1  6
  5 43  1  0
  5 44  1  0
 11 45  1  0
 11 46  1  0
 12 47  1  0
 12 48  1  0
 14 49  1  0
 15 50  1  0
 16 51  1  0
 17 52  1  0
 19 53  1  0
 19 54  1  0
 23 55  1  0
 23 56  1  0
 24 57  1  0
 24 58  1  0
 26 59  1  0
 27 60  1  0
 28 61  1  0
 29 62  1  0
 31 63  1  0
 31 64  1  0
 33 65  1  0
 33 66  1  0
 34 67  1  0
 34 68  1  0
M  END
>  <meeko>  (8) 
{"free_energy": -9.47, "intermolecular_energy": -10.96, "internal_energy": -0.82, "cluster_size": 20, "cluster_id": 1, "rank_in_cluster": 18}

$$$$

     RDKit          3D

 68 73  0  0  0  0  0  0  0  0999 V2000
  144.4010   76.0040  215.9630 C   0  0  0  0  0  0  0  0  0  0  0  0
  144.4330   74.4820  215.8650 C   0  0  0  0  0  0  0  0  0  0  0  0
  145.4180   73.9360  216.8090 N   0  0  0  0  0  0  0  0  0  0  0  0
  144.7690   73.1140  217.8460 C   0  0  2  0  0  0  0  0  0  0  0  0
  143.7070   73.9590  218.6140 C   0  0  0  0  0  0  0  0  0  0  0  0
  143.7290   73.6910  220.0590 N   0  0  0  0  0  0  0  0  0  0  0  0
  142.5330   73.8430  220.8480 C   0  0  0  0  0  0  0  0  0  0  0  0
  141.9930   72.7710  221.4850 N   0  0  0  0  0  0  0  0  0  0  0  0
  140.8650   72.9020  222.2320 C   0  0  0  0  0  0  0  0  0  0  0  0
  140.3020   71.7550  222.9050 N   0  0  0  0  0  0  0  0  0  0  0  0
  139.1940   71.0060  222.2900 C   0  0  0  0  0  0  0  0  0  0  0  0
  139.3060   69.5200  222.6160 C   0  0  0  0  0  0  0  0  0  0  0  0
  139.3810   69.3240  224.1000 C   0  0  0  0  0  0  0  0  0  0  0  0
  138.8340   68.1730  224.6910 C   0  0  0  0  0  0  0  0  0  0  0  0
  138.9390   67.9710  226.0690 C   0  0  0  0  0  0  0  0  0  0  0  0
  139.6050   68.9070  226.8640 C   0  0  0  0  0  0  0  0  0  0  0  0
  140.1690   70.0450  226.2820 C   0  0  0  0  0  0  0  0  0  0  0  0
  140.0600   70.2650  224.8990 C   0  0  0  0  0  0  0  0  0  0  0  0
  140.7390   71.4670  224.2860 C   0  0  0  0  0  0  0  0  0  0  0  0
  140.2780   74.1250  222.3380 N   0  0  0  0  0  0  0  0  0  0  0  0
  140.8050   75.2080  221.7090 C   0  0  0  0  0  0  0  0  0  0  0  0
  140.1900   76.5070  221.8390 N   0  0  0  0  0  0  0  0  0  0  0  0
  138.7780   76.7080  221.4850 C   0  0  0  0  0  0  0  0  0  0  0  0
  138.1060   77.5990  222.5240 C   0  0  0  0  0  0  0  0  0  0  0  0
  138.8730   78.8780  222.7000 C   0  0  0  0  0  0  0  0  0  0  0  0
  138.2040   80.0370  223.1280 C   0  0  0  0  0  0  0  0  0  0  0  0
  138.9130   81.2210  223.3470 C   0  0  0  0  0  0  0  0  0  0  0  0
  140.2930   81.2560  223.1510 C   0  0  0  0  0  0  0  0  0  0  0  0
  140.9710   80.1070  222.7360 C   0  0  0  0  0  0  0  0  0  0  0  0
  140.2720   78.9080  222.5140 C   0  0  0  0  0  0  0  0  0  0  0  0
  141.0460   77.6750  222.1080 C   0  0  0  0  0  0  0  0  0  0  0  0
  141.9350   75.0560  220.9670 N   0  0  0  0  0  0  0  0  0  0  0  0
  145.0130   73.4870  220.7390 C   0  0  0  0  0  0  0  0  0  0  0  0
  146.1430   73.3830  219.7200 C   0  0  0  0  0  0  0  0  0  0  0  0
  145.7480   72.5100  218.6860 O   0  0  0  0  0  0  0  0  0  0  0  0
  144.3947   76.3032  217.0215 H   0  0  0  0  0  0  0  0  0  0  0  0
  145.2906   76.4220  215.4691 H   0  0  0  0  0  0  0  0  0  0  0  0
  143.4947   76.3843  215.4691 H   0  0  0  0  0  0  0  0  0  0  0  0
  143.4374   74.0809  216.1055 H   0  0  0  0  0  0  0  0  0  0  0  0
  144.7158   74.1929  214.8421 H   0  0  0  0  0  0  0  0  0  0  0  0
  145.8730   74.7490  217.2890 H   0  0  0  0  0  0  0  0  0  0  0  0
  144.2195   72.2828  217.3801 H   0  0  0  0  0  0  0  0  0  0  0  0
  143.9148   75.0263  218.4477 H   0  0  0  0  0  0  0  0  0  0  0  0
  142.7129   73.6826  218.2327 H   0  0  0  0  0  0  0  0  0  0  0  0
  138.2388   71.3903  222.6771 H   0  0  0  0  0  0  0  0  0  0  0  0
  139.2409   71.1347  221.1986 H   0  0  0  0  0  0  0  0  0  0  0  0
  138.4235   68.9936  222.2234 H   0  0  0  0  0  0  0  0  0  0  0  0
  140.2184   69.1168  222.1524 H   0  0  0  0  0  0  0  0  0  0  0  0
  138.3208   67.4276  224.0658 H   0  0  0  0  0  0  0  0  0  0  0  0
  138.4971   67.0746  226.5285 H   0  0  0  0  0  0  0  0  0  0  0  0
  139.6854   68.7478  227.9494 H   0  0  0  0  0  0  0  0  0  0  0  0
  140.7019   70.7734  226.9109 H   0  0  0  0  0  0  0  0  0  0  0  0
  140.5196   72.3458  224.9102 H   0  0  0  0  0  0  0  0  0  0  0  0
  141.8147   71.2414  224.2426 H   0  0  0  0  0  0  0  0  0  0  0  0
  138.7140   77.1872  220.4969 H   0  0  0  0  0  0  0  0  0  0  0  0
  138.2683   75.7336  221.4584 H   0  0  0  0  0  0  0  0  0  0  0  0
  137.0838   77.8334  222.1922 H   0  0  0  0  0  0  0  0  0  0  0  0
  138.0814   77.0654  223.4856 H   0  0  0  0  0  0  0  0  0  0  0  0
  137.1165   80.0122  223.2915 H   0  0  0  0  0  0  0  0  0  0  0  0
  138.3816   82.1268  223.6745 H   0  0  0  0  0  0  0  0  0  0  0  0
  140.8487   82.1895  223.3234 H   0  0  0  0  0  0  0  0  0  0  0  0
  142.0596   80.1410  222.5819 H   0  0  0  0  0  0  0  0  0  0  0  0
  141.6163   77.9063  221.1963 H   0  0  0  0  0  0  0  0  0  0  0  0
  141.6994   77.4101  222.9523 H   0  0  0  0  0  0  0  0  0  0  0  0
  145.2069   74.3368  221.4100 H   0  0  0  0  0  0  0  0  0  0  0  0
  144.9664   72.5523  221.3171 H   0  0  0  0  0  0  0  0  0  0  0  0
  146.3556   74.3780  219.3019 H   0  0  0  0  0  0  0  0  0  0  0  0
  147.0497   72.9959  220.2079 H   0  0  0  0  0  0  0  0  0  0  0  0
  1  2  1  0
  2  3  1  0
  3  4  1  0
  4  5  1  0
  5  6  1  0
  6  7  1  0
  7  8  2  0
  8  9  1  0
  9 10  1  0
 10 11  1  0
 11 12  1  0
 12 13  1  0
 13 14  2  0
 14 15  1  0
 15 16  2  0
 16 17  1  0
 17 18  2  0
 18 19  1  0
  9 20  2  0
 20 21  1  0
 21 22  1  0
 22 23  1  0
 23 24  1  0
 24 25  1  0
 25 26  2  0
 26 27  1  0
 27 28  2  0
 28 29  1  0
 29 30  2  0
 30 31  1  0
 21 32  2  0
  6 33  1  0
 33 34  1  0
 34 35  1  0
 35  4  1  0
 32  7  1  0
 19 10  1  0
 31 22  1  0
 18 13  1  0
 30 25  1  0
  1 36  1  0
  1 37  1  0
  1 38  1  0
  2 39  1  0
  2 40  1  0
  3 41  1  0
  4 42  1  6
  5 43  1  0
  5 44  1  0
 11 45  1  0
 11 46  1  0
 12 47  1  0
 12 48  1  0
 14 49  1  0
 15 50  1  0
 16 51  1  0
 17 52  1  0
 19 53  1  0
 19 54  1  0
 23 55  1  0
 23 56  1  0
 24 57  1  0
 24 58  1  0
 26 59  1  0
 27 60  1  0
 28 61  1  0
 29 62  1  0
 31 63  1  0
 31 64  1  0
 33 65  1  0
 33 66  1  0
 34 67  1  0
 34 68  1  0
M  END
>  <meeko>  (9) 
{"free_energy": -9.61, "intermolecular_energy": -11.11, "internal_energy": -0.86, "cluster_size": 20, "cluster_id": 1, "rank_in_cluster": 13}

$$$$

     RDKit          3D

 68 73  0  0  0  0  0  0  0  0999 V2000
  145.9330   68.0420  219.3530 C   0  0  0  0  0  0  0  0  0  0  0  0
  144.8640   68.8530  218.6310 C   0  0  0  0  0  0  0  0  0  0  0  0
  145.4070   70.1570  218.2260 N   0  0  0  0  0  0  0  0  0  0  0  0
  145.2370   71.1640  219.2900 C   0  0  2  0  0  0  0  0  0  0  0  0
  143.7450   71.2230  219.7390 C   0  0  0  0  0  0  0  0  0  0  0  0
  143.2920   72.6030  219.9640 N   0  0  0  0  0  0  0  0  0  0  0  0
  142.2460   72.8810  220.9160 C   0  0  0  0  0  0  0  0  0  0  0  0
  141.8020   71.9050  221.7490 N   0  0  0  0  0  0  0  0  0  0  0  0
  140.8160   72.1560  222.6510 C   0  0  0  0  0  0  0  0  0  0  0  0
  140.3530   71.1090  223.5320 N   0  0  0  0  0  0  0  0  0  0  0  0
  139.0960   70.4000  223.2410 C   0  0  0  0  0  0  0  0  0  0  0  0
  139.1950   68.9390  223.6700 C   0  0  0  0  0  0  0  0  0  0  0  0
  139.5850   68.8530  225.1150 C   0  0  0  0  0  0  0  0  0  0  0  0
  139.1190   67.7950  225.9120 C   0  0  0  0  0  0  0  0  0  0  0  0
  139.5160   67.6920  227.2480 C   0  0  0  0  0  0  0  0  0  0  0  0
  140.3910   68.6350  227.7910 C   0  0  0  0  0  0  0  0  0  0  0  0
  140.8760   69.6790  227.0000 C   0  0  0  0  0  0  0  0  0  0  0  0
  140.4760   69.7990  225.6590 C   0  0  0  0  0  0  0  0  0  0  0  0
  141.0680   70.8970  224.8060 C   0  0  0  0  0  0  0  0  0  0  0  0
  140.2770   73.4040  222.7140 N   0  0  0  0  0  0  0  0  0  0  0  0
  140.7100   74.3930  221.8900 C   0  0  0  0  0  0  0  0  0  0  0  0
  140.1490   75.7200  221.9720 N   0  0  0  0  0  0  0  0  0  0  0  0
  138.7970   75.9960  221.4670 C   0  0  0  0  0  0  0  0  0  0  0  0
  138.0580   76.9080  222.4390 C   0  0  0  0  0  0  0  0  0  0  0  0
  138.8610   78.1440  222.7200 C   0  0  0  0  0  0  0  0  0  0  0  0
  138.2060   79.3300  223.0900 C   0  0  0  0  0  0  0  0  0  0  0  0
  138.9430   80.4760  223.4060 C   0  0  0  0  0  0  0  0  0  0  0  0
  140.3370   80.4430  223.3660 C   0  0  0  0  0  0  0  0  0  0  0  0
  141.0000   79.2660  223.0100 C   0  0  0  0  0  0  0  0  0  0  0  0
  140.2720   78.1060  222.6920 C   0  0  0  0  0  0  0  0  0  0  0  0
  141.0260   76.8400  222.3540 C   0  0  0  0  0  0  0  0  0  0  0  0
  141.6980   74.1210  220.9940 N   0  0  0  0  0  0  0  0  0  0  0  0
  143.7440   73.6700  219.0650 C   0  0  0  0  0  0  0  0  0  0  0  0
  144.8280   73.1510  218.1270 C   0  0  0  0  0  0  0  0  0  0  0  0
  145.7700   72.4180  218.8770 O   0  0  0  0  0  0  0  0  0  0  0  0
  145.7987   68.1439  220.4400 H   0  0  0  0  0  0  0  0  0  0  0  0
  145.8432   66.9828  219.0701 H   0  0  0  0  0  0  0  0  0  0  0  0
  146.9288   68.4139  219.0701 H   0  0  0  0  0  0  0  0  0  0  0  0
  144.5321   68.3037  217.7376 H   0  0  0  0  0  0  0  0  0  0  0  0
  144.0133   69.0124  219.3099 H   0  0  0  0  0  0  0  0  0  0  0  0
  144.8550   70.4790  217.3960 H   0  0  0  0  0  0  0  0  0  0  0  0
  145.8126   70.8736  220.1813 H   0  0  0  0  0  0  0  0  0  0  0  0
  143.1204   70.7673  218.9566 H   0  0  0  0  0  0  0  0  0  0  0  0
  143.6542   70.6763  220.6892 H   0  0  0  0  0  0  0  0  0  0  0  0
  138.2729   70.8830  223.7881 H   0  0  0  0  0  0  0  0  0  0  0  0
  138.9069   70.4408  222.1581 H   0  0  0  0  0  0  0  0  0  0  0  0
  138.2199   68.4505  223.5264 H   0  0  0  0  0  0  0  0  0  0  0  0
  139.9589   68.4350  223.0597 H   0  0  0  0  0  0  0  0  0  0  0  0
  138.4388   67.0444  225.4831 H   0  0  0  0  0  0  0  0  0  0  0  0
  139.1392   66.8681  227.8718 H   0  0  0  0  0  0  0  0  0  0  0  0
  140.6990   68.5555  228.8440 H   0  0  0  0  0  0  0  0  0  0  0  0
  141.5752   70.4114  227.4297 H   0  0  0  0  0  0  0  0  0  0  0  0
  141.0412   71.8352  225.3797 H   0  0  0  0  0  0  0  0  0  0  0  0
  142.0932   70.5897  224.5522 H   0  0  0  0  0  0  0  0  0  0  0  0
  138.8673   76.4886  220.4860 H   0  0  0  0  0  0  0  0  0  0  0  0
  138.2463   75.0489  221.3681 H   0  0  0  0  0  0  0  0  0  0  0  0
  137.0918   77.1970  221.9997 H   0  0  0  0  0  0  0  0  0  0  0  0
  137.9006   76.3658  223.3831 H   0  0  0  0  0  0  0  0  0  0  0  0
  137.1071   79.3578  223.1315 H   0  0  0  0  0  0  0  0  0  0  0  0
  138.4230   81.4039  223.6863 H   0  0  0  0  0  0  0  0  0  0  0  0
  140.9151   81.3451  223.6151 H   0  0  0  0  0  0  0  0  0  0  0  0
  142.0994   79.2467  222.9782 H   0  0  0  0  0  0  0  0  0  0  0  0
  141.7054   77.0524  221.5153 H   0  0  0  0  0  0  0  0  0  0  0  0
  141.5675   76.5331  223.2610 H   0  0  0  0  0  0  0  0  0  0  0  0
  142.8910   74.0283  218.4700 H   0  0  0  0  0  0  0  0  0  0  0  0
  144.1571   74.4927  219.6671 H   0  0  0  0  0  0  0  0  0  0  0  0
  144.3756   72.4994  217.3649 H   0  0  0  0  0  0  0  0  0  0  0  0
  145.3254   73.9965  217.6292 H   0  0  0  0  0  0  0  0  0  0  0  0
  1  2  1  0
  2  3  1  0
  3  4  1  0
  4  5  1  0
  5  6  1  0
  6  7  1  0
  7  8  2  0
  8  9  1  0
  9 10  1  0
 10 11  1  0
 11 12  1  0
 12 13  1  0
 13 14  2  0
 14 15  1  0
 15 16  2  0
 16 17  1  0
 17 18  2  0
 18 19  1  0
  9 20  2  0
 20 21  1  0
 21 22  1  0
 22 23  1  0
 23 24  1  0
 24 25  1  0
 25 26  2  0
 26 27  1  0
 27 28  2  0
 28 29  1  0
 29 30  2  0
 30 31  1  0
 21 32  2  0
  6 33  1  0
 33 34  1  0
 34 35  1  0
 35  4  1  0
 32  7  1  0
 19 10  1  0
 31 22  1  0
 18 13  1  0
 30 25  1  0
  1 36  1  0
  1 37  1  0
  1 38  1  0
  2 39  1  0
  2 40  1  0
  3 41  1  0
  4 42  1  1
  5 43  1  0
  5 44  1  0
 11 45  1  0
 11 46  1  0
 12 47  1  0
 12 48  1  0
 14 49  1  0
 15 50  1  0
 16 51  1  0
 17 52  1  0
 19 53  1  0
 19 54  1  0
 23 55  1  0
 23 56  1  0
 24 57  1  0
 24 58  1  0
 26 59  1  0
 27 60  1  0
 28 61  1  0
 29 62  1  0
 31 63  1  0
 31 64  1  0
 33 65  1  0
 33 66  1  0
 34 67  1  0
 34 68  1  0
M  END
>  <meeko>  (10) 
{"free_energy": -9.68, "intermolecular_energy": -11.17, "internal_energy": -0.87, "cluster_size": 20, "cluster_id": 1, "rank_in_cluster": 12}

$$$$

     RDKit          3D

 68 73  0  0  0  0  0  0  0  0999 V2000
  143.6220   73.9580  215.0790 C   0  0  0  0  0  0  0  0  0  0  0  0
  144.3780   74.8990  216.0100 C   0  0  0  0  0  0  0  0  0  0  0  0
  145.3450   74.1420  216.8170 N   0  0  0  0  0  0  0  0  0  0  0  0
  144.6650   73.2750  217.7960 C   0  0  2  0  0  0  0  0  0  0  0  0
  143.6300   74.1020  218.6170 C   0  0  0  0  0  0  0  0  0  0  0  0
  143.6380   73.7370  220.0420 N   0  0  0  0  0  0  0  0  0  0  0  0
  142.4450   73.8760  220.8370 C   0  0  0  0  0  0  0  0  0  0  0  0
  141.9210   72.8000  221.4790 N   0  0  0  0  0  0  0  0  0  0  0  0
  140.7950   72.9190  222.2320 C   0  0  0  0  0  0  0  0  0  0  0  0
  140.2490   71.7660  222.9100 N   0  0  0  0  0  0  0  0  0  0  0  0
  139.1400   71.0090  222.3050 C   0  0  0  0  0  0  0  0  0  0  0  0
  139.2680   69.5240  222.6280 C   0  0  0  0  0  0  0  0  0  0  0  0
  139.3600   69.3270  224.1110 C   0  0  0  0  0  0  0  0  0  0  0  0
  138.8290   68.1700  224.7050 C   0  0  0  0  0  0  0  0  0  0  0  0
  138.9500   67.9670  226.0820 C   0  0  0  0  0  0  0  0  0  0  0  0
  139.6160   68.9080  226.8710 C   0  0  0  0  0  0  0  0  0  0  0  0
  140.1650   70.0500  226.2850 C   0  0  0  0  0  0  0  0  0  0  0  0
  140.0400   70.2720  224.9040 C   0  0  0  0  0  0  0  0  0  0  0  0
  140.7020   71.4800  224.2850 C   0  0  0  0  0  0  0  0  0  0  0  0
  140.1960   74.1360  222.3410 N   0  0  0  0  0  0  0  0  0  0  0  0
  140.7070   75.2230  221.7080 C   0  0  0  0  0  0  0  0  0  0  0  0
  140.0800   76.5160  221.8410 N   0  0  0  0  0  0  0  0  0  0  0  0
  138.6650   76.7040  221.4900 C   0  0  0  0  0  0  0  0  0  0  0  0
  137.9860   77.5860  222.5310 C   0  0  0  0  0  0  0  0  0  0  0  0
  138.7400   78.8720  222.7070 C   0  0  0  0  0  0  0  0  0  0  0  0
  138.0600   80.0230  223.1390 C   0  0  0  0  0  0  0  0  0  0  0  0
  138.7570   81.2150  223.3580 C   0  0  0  0  0  0  0  0  0  0  0  0
  140.1370   81.2640  223.1600 C   0  0  0  0  0  0  0  0  0  0  0  0
  140.8260   80.1230  222.7430 C   0  0  0  0  0  0  0  0  0  0  0  0
  140.1390   78.9170  222.5200 C   0  0  0  0  0  0  0  0  0  0  0  0
  140.9250   77.6930  222.1110 C   0  0  0  0  0  0  0  0  0  0  0  0
  141.8350   75.0830  220.9590 N   0  0  0  0  0  0  0  0  0  0  0  0
  144.9110   73.4430  220.7070 C   0  0  0  0  0  0  0  0  0  0  0  0
  146.0410   73.3690  219.6850 C   0  0  0  0  0  0  0  0  0  0  0  0
  145.6200   72.5820  218.5940 O   0  0  0  0  0  0  0  0  0  0  0  0
  143.0435   73.2379  215.6763 H   0  0  0  0  0  0  0  0  0  0  0  0
  142.9383   74.5411  214.4445 H   0  0  0  0  0  0  0  0  0  0  0  0
  144.3387   73.4160  214.4445 H   0  0  0  0  0  0  0  0  0  0  0  0
  144.9133   75.6507  215.4113 H   0  0  0  0  0  0  0  0  0  0  0  0
  143.6607   75.3956  216.6799 H   0  0  0  0  0  0  0  0  0  0  0  0
  145.9140   74.8390  217.3540 H   0  0  0  0  0  0  0  0  0  0  0  0
  144.0888   72.4960  217.2752 H   0  0  0  0  0  0  0  0  0  0  0  0
  143.8743   75.1704  218.5228 H   0  0  0  0  0  0  0  0  0  0  0  0
  142.6285   73.8857  218.2168 H   0  0  0  0  0  0  0  0  0  0  0  0
  138.1858   71.3850  222.7026 H   0  0  0  0  0  0  0  0  0  0  0  0
  139.1739   71.1398  221.2133 H   0  0  0  0  0  0  0  0  0  0  0  0
  138.3861   68.9905  222.2439 H   0  0  0  0  0  0  0  0  0  0  0  0
  140.1790   69.1292  222.1545 H   0  0  0  0  0  0  0  0  0  0  0  0
  138.3160   67.4211  224.0837 H   0  0  0  0  0  0  0  0  0  0  0  0
  138.5208   67.0662  226.5449 H   0  0  0  0  0  0  0  0  0  0  0  0
  139.7080   68.7489  227.9555 H   0  0  0  0  0  0  0  0  0  0  0  0
  140.6993   70.7811  226.9095 H   0  0  0  0  0  0  0  0  0  0  0  0
  140.4817   72.3562  224.9124 H   0  0  0  0  0  0  0  0  0  0  0  0
  141.7790   71.2630  224.2298 H   0  0  0  0  0  0  0  0  0  0  0  0
  138.5946   77.1843  220.5029 H   0  0  0  0  0  0  0  0  0  0  0  0
  138.1650   75.7246  221.4630 H   0  0  0  0  0  0  0  0  0  0  0  0
  136.9608   77.8103  222.2015 H   0  0  0  0  0  0  0  0  0  0  0  0
  137.9684   77.0509  223.4919 H   0  0  0  0  0  0  0  0  0  0  0  0
  136.9733   79.9861  223.3058 H   0  0  0  0  0  0  0  0  0  0  0  0
  138.2167   82.1150  223.6867 H   0  0  0  0  0  0  0  0  0  0  0  0
  140.6834   82.2029  223.3326 H   0  0  0  0  0  0  0  0  0  0  0  0
  141.9141   80.1683  222.5879 H   0  0  0  0  0  0  0  0  0  0  0  0
  141.4917   77.9316  221.1989 H   0  0  0  0  0  0  0  0  0  0  0  0
  141.5823   77.4334  222.9540 H   0  0  0  0  0  0  0  0  0  0  0  0
  145.1319   74.2380  221.4344 H   0  0  0  0  0  0  0  0  0  0  0  0
  144.8298   72.4731  221.2196 H   0  0  0  0  0  0  0  0  0  0  0  0
  146.2894   74.3819  219.3354 H   0  0  0  0  0  0  0  0  0  0  0  0
  146.9320   72.9189  220.1470 H   0  0  0  0  0  0  0  0  0  0  0  0
  1  2  1  0
  2  3  1  0
  3  4  1  0
  4  5  1  0
  5  6  1  0
  6  7  1  0
  7  8  2  0
  8  9  1  0
  9 10  1  0
 10 11  1  0
 11 12  1  0
 12 13  1  0
 13 14  2  0
 14 15  1  0
 15 16  2  0
 16 17  1  0
 17 18  2  0
 18 19  1  0
  9 20  2  0
 20 21  1  0
 21 22  1  0
 22 23  1  0
 23 24  1  0
 24 25  1  0
 25 26  2  0
 26 27  1  0
 27 28  2  0
 28 29  1  0
 29 30  2  0
 30 31  1  0
 21 32  2  0
  6 33  1  0
 33 34  1  0
 34 35  1  0
 35  4  1  0
 32  7  1  0
 19 10  1  0
 31 22  1  0
 18 13  1  0
 30 25  1  0
  1 36  1  0
  1 37  1  0
  1 38  1  0
  2 39  1  0
  2 40  1  0
  3 41  1  0
  4 42  1  6
  5 43  1  0
  5 44  1  0
 11 45  1  0
 11 46  1  0
 12 47  1  0
 12 48  1  0
 14 49  1  0
 15 50  1  0
 16 51  1  0
 17 52  1  0
 19 53  1  0
 19 54  1  0
 23 55  1  0
 23 56  1  0
 24 57  1  0
 24 58  1  0
 26 59  1  0
 27 60  1  0
 28 61  1  0
 29 62  1  0
 31 63  1  0
 31 64  1  0
 33 65  1  0
 33 66  1  0
 34 67  1  0
 34 68  1  0
M  END
>  <meeko>  (11) 
{"free_energy": -9.47, "intermolecular_energy": -10.96, "internal_energy": -0.86, "cluster_size": 20, "cluster_id": 1, "rank_in_cluster": 19}

$$$$

     RDKit          3D

 68 73  0  0  0  0  0  0  0  0999 V2000
  145.9540   67.9300  219.3420 C   0  0  0  0  0  0  0  0  0  0  0  0
  144.9290   68.9710  218.9070 C   0  0  0  0  0  0  0  0  0  0  0  0
  145.6090   70.1830  218.4320 N   0  0  0  0  0  0  0  0  0  0  0  0
  145.3440   71.3300  219.3200 C   0  0  2  0  0  0  0  0  0  0  0  0
  143.8880   71.2550  219.8730 C   0  0  0  0  0  0  0  0  0  0  0  0
  143.2380   72.5740  219.8960 N   0  0  0  0  0  0  0  0  0  0  0  0
  142.2160   72.8660  220.8680 C   0  0  0  0  0  0  0  0  0  0  0  0
  141.7810   71.8980  221.7160 N   0  0  0  0  0  0  0  0  0  0  0  0
  140.8170   72.1630  222.6380 C   0  0  0  0  0  0  0  0  0  0  0  0
  140.3650   71.1250  223.5350 N   0  0  0  0  0  0  0  0  0  0  0  0
  139.1100   70.4050  223.2600 C   0  0  0  0  0  0  0  0  0  0  0  0
  139.2190   68.9500  223.7070 C   0  0  0  0  0  0  0  0  0  0  0  0
  139.6170   68.8850  225.1500 C   0  0  0  0  0  0  0  0  0  0  0  0
  139.1620   67.8340  225.9630 C   0  0  0  0  0  0  0  0  0  0  0  0
  139.5660   67.7500  227.2980 C   0  0  0  0  0  0  0  0  0  0  0  0
  140.4400   68.7040  227.8240 C   0  0  0  0  0  0  0  0  0  0  0  0
  140.9140   69.7410  227.0170 C   0  0  0  0  0  0  0  0  0  0  0  0
  140.5060   69.8420  225.6770 C   0  0  0  0  0  0  0  0  0  0  0  0
  141.0880   70.9320  224.8080 C   0  0  0  0  0  0  0  0  0  0  0  0
  140.2910   73.4150  222.7060 N   0  0  0  0  0  0  0  0  0  0  0  0
  140.7140   74.3960  221.8670 C   0  0  0  0  0  0  0  0  0  0  0  0
  140.1670   75.7280  221.9540 N   0  0  0  0  0  0  0  0  0  0  0  0
  138.8130   76.0170  221.4590 C   0  0  0  0  0  0  0  0  0  0  0  0
  138.0900   76.9360  222.4370 C   0  0  0  0  0  0  0  0  0  0  0  0
  138.9070   78.1650  222.7120 C   0  0  0  0  0  0  0  0  0  0  0  0
  138.2660   79.3570  223.0880 C   0  0  0  0  0  0  0  0  0  0  0  0
  139.0160   80.4950  223.3980 C   0  0  0  0  0  0  0  0  0  0  0  0
  140.4090   80.4490  223.3470 C   0  0  0  0  0  0  0  0  0  0  0  0
  141.0590   79.2660  222.9860 C   0  0  0  0  0  0  0  0  0  0  0  0
  140.3170   78.1130  222.6730 C   0  0  0  0  0  0  0  0  0  0  0  0
  141.0570   76.8400  222.3300 C   0  0  0  0  0  0  0  0  0  0  0  0
  141.6800   74.1110  220.9520 N   0  0  0  0  0  0  0  0  0  0  0  0
  143.4680   73.5140  218.7950 C   0  0  0  0  0  0  0  0  0  0  0  0
  144.5680   72.9950  217.8730 C   0  0  0  0  0  0  0  0  0  0  0  0
  145.6510   72.5530  218.6570 O   0  0  0  0  0  0  0  0  0  0  0  0
  145.9929   67.8905  220.4406 H   0  0  0  0  0  0  0  0  0  0  0  0
  145.6644   66.9440  218.9497 H   0  0  0  0  0  0  0  0  0  0  0  0
  146.9444   68.2043  218.9497 H   0  0  0  0  0  0  0  0  0  0  0  0
  144.3132   68.5576  218.0947 H   0  0  0  0  0  0  0  0  0  0  0  0
  144.2923   69.2293  219.7660 H   0  0  0  0  0  0  0  0  0  0  0  0
  145.2120   70.4140  217.4910 H   0  0  0  0  0  0  0  0  0  0  0  0
  146.0066   71.2900  220.1972 H   0  0  0  0  0  0  0  0  0  0  0  0
  143.2997   70.5804  219.2336 H   0  0  0  0  0  0  0  0  0  0  0  0
  143.9363   70.8823  220.9068 H   0  0  0  0  0  0  0  0  0  0  0  0
  138.2873   70.8905  223.8054 H   0  0  0  0  0  0  0  0  0  0  0  0
  138.9151   70.4308  222.1777 H   0  0  0  0  0  0  0  0  0  0  0  0
  138.2458   68.4546  223.5750 H   0  0  0  0  0  0  0  0  0  0  0  0
  139.9821   68.4420  223.0990 H   0  0  0  0  0  0  0  0  0  0  0  0
  138.4847   67.0737  225.5470 H   0  0  0  0  0  0  0  0  0  0  0  0
  139.1958   66.9328  227.9345 H   0  0  0  0  0  0  0  0  0  0  0  0
  140.7557   68.6386  228.8757 H   0  0  0  0  0  0  0  0  0  0  0  0
  141.6111   70.4830  227.4336 H   0  0  0  0  0  0  0  0  0  0  0  0
  141.0596   71.8770  225.3704 H   0  0  0  0  0  0  0  0  0  0  0  0
  142.1134   70.6267  224.5525 H   0  0  0  0  0  0  0  0  0  0  0  0
  138.8805   76.5091  220.4775 H   0  0  0  0  0  0  0  0  0  0  0  0
  138.2526   75.0752  221.3642 H   0  0  0  0  0  0  0  0  0  0  0  0
  137.1232   77.2341  222.0052 H   0  0  0  0  0  0  0  0  0  0  0  0
  137.9349   76.3952  223.3822 H   0  0  0  0  0  0  0  0  0  0  0  0
  137.1678   79.3951  223.1387 H   0  0  0  0  0  0  0  0  0  0  0  0
  138.5071   81.4278  223.6825 H   0  0  0  0  0  0  0  0  0  0  0  0
  140.9971   81.3458  223.5915 H   0  0  0  0  0  0  0  0  0  0  0  0
  142.1579   79.2363  222.9463 H   0  0  0  0  0  0  0  0  0  0  0  0
  141.7326   77.0461  221.4867 H   0  0  0  0  0  0  0  0  0  0  0  0
  141.6018   76.5281  223.2333 H   0  0  0  0  0  0  0  0  0  0  0  0
  142.5382   73.6321  218.2192 H   0  0  0  0  0  0  0  0  0  0  0  0
  143.7800   74.4828  219.2123 H   0  0  0  0  0  0  0  0  0  0  0  0
  144.1817   72.1585  217.2722 H   0  0  0  0  0  0  0  0  0  0  0  0
  144.8996   73.7993  217.1998 H   0  0  0  0  0  0  0  0  0  0  0  0
  1  2  1  0
  2  3  1  0
  3  4  1  0
  4  5  1  0
  5  6  1  0
  6  7  1  0
  7  8  2  0
  8  9  1  0
  9 10  1  0
 10 11  1  0
 11 12  1  0
 12 13  1  0
 13 14  2  0
 14 15  1  0
 15 16  2  0
 16 17  1  0
 17 18  2  0
 18 19  1  0
  9 20  2  0
 20 21  1  0
 21 22  1  0
 22 23  1  0
 23 24  1  0
 24 25  1  0
 25 26  2  0
 26 27  1  0
 27 28  2  0
 28 29  1  0
 29 30  2  0
 30 31  1  0
 21 32  2  0
  6 33  1  0
 33 34  1  0
 34 35  1  0
 35  4  1  0
 32  7  1  0
 19 10  1  0
 31 22  1  0
 18 13  1  0
 30 25  1  0
  1 36  1  0
  1 37  1  0
  1 38  1  0
  2 39  1  0
  2 40  1  0
  3 41  1  0
  4 42  1  1
  5 43  1  0
  5 44  1  0
 11 45  1  0
 11 46  1  0
 12 47  1  0
 12 48  1  0
 14 49  1  0
 15 50  1  0
 16 51  1  0
 17 52  1  0
 19 53  1  0
 19 54  1  0
 23 55  1  0
 23 56  1  0
 24 57  1  0
 24 58  1  0
 26 59  1  0
 27 60  1  0
 28 61  1  0
 29 62  1  0
 31 63  1  0
 31 64  1  0
 33 65  1  0
 33 66  1  0
 34 67  1  0
 34 68  1  0
M  END
>  <meeko>  (12) 
{"free_energy": -9.75, "intermolecular_energy": -11.25, "internal_energy": -0.87, "cluster_size": 20, "cluster_id": 1, "rank_in_cluster": 5}

$$$$

     RDKit          3D

 68 73  0  0  0  0  0  0  0  0999 V2000
  145.9310   67.9450  219.3200 C   0  0  0  0  0  0  0  0  0  0  0  0
  144.9930   69.0960  218.9720 C   0  0  0  0  0  0  0  0  0  0  0  0
  145.7700   70.2700  218.5490 N   0  0  0  0  0  0  0  0  0  0  0  0
  145.4300   71.4570  219.3530 C   0  0  2  0  0  0  0  0  0  0  0  0
  143.9940   71.3120  219.9450 C   0  0  0  0  0  0  0  0  0  0  0  0
  143.2430   72.5740  219.8830 N   0  0  0  0  0  0  0  0  0  0  0  0
  142.2180   72.8600  220.8550 C   0  0  0  0  0  0  0  0  0  0  0  0
  141.7800   71.8870  221.6950 N   0  0  0  0  0  0  0  0  0  0  0  0
  140.8140   72.1450  222.6160 C   0  0  0  0  0  0  0  0  0  0  0  0
  140.3590   71.1010  223.5040 N   0  0  0  0  0  0  0  0  0  0  0  0
  139.1060   70.3820  223.2190 C   0  0  0  0  0  0  0  0  0  0  0  0
  139.2150   68.9240  223.6580 C   0  0  0  0  0  0  0  0  0  0  0  0
  139.6070   68.8510  225.1030 C   0  0  0  0  0  0  0  0  0  0  0  0
  139.1490   67.7950  225.9070 C   0  0  0  0  0  0  0  0  0  0  0  0
  139.5470   67.7040  227.2440 C   0  0  0  0  0  0  0  0  0  0  0  0
  140.4160   68.6560  227.7800 C   0  0  0  0  0  0  0  0  0  0  0  0
  140.8930   69.6980  226.9810 C   0  0  0  0  0  0  0  0  0  0  0  0
  140.4910   69.8070  225.6400 C   0  0  0  0  0  0  0  0  0  0  0  0
  141.0760   70.9020  224.7790 C   0  0  0  0  0  0  0  0  0  0  0  0
  140.2870   73.3970  222.6900 N   0  0  0  0  0  0  0  0  0  0  0  0
  140.7130   74.3840  221.8590 C   0  0  0  0  0  0  0  0  0  0  0  0
  140.1660   75.7150  221.9530 N   0  0  0  0  0  0  0  0  0  0  0  0
  138.8180   76.0110  221.4460 C   0  0  0  0  0  0  0  0  0  0  0  0
  138.0850   76.9200  222.4250 C   0  0  0  0  0  0  0  0  0  0  0  0
  138.8990   78.1450  222.7210 C   0  0  0  0  0  0  0  0  0  0  0  0
  138.2550   79.3340  223.1020 C   0  0  0  0  0  0  0  0  0  0  0  0
  139.0020   80.4680  223.4330 C   0  0  0  0  0  0  0  0  0  0  0  0
  140.3960   80.4210  223.3970 C   0  0  0  0  0  0  0  0  0  0  0  0
  141.0480   79.2410  223.0310 C   0  0  0  0  0  0  0  0  0  0  0  0
  140.3100   78.0930  222.6980 C   0  0  0  0  0  0  0  0  0  0  0  0
  141.0520   76.8230  222.3500 C   0  0  0  0  0  0  0  0  0  0  0  0
  141.6820   74.1050  220.9450 N   0  0  0  0  0  0  0  0  0  0  0  0
  143.3780   73.4420  218.7090 C   0  0  0  0  0  0  0  0  0  0  0  0
  144.4990   72.9410  217.8030 C   0  0  0  0  0  0  0  0  0  0  0  0
  145.6280   72.6460  218.5930 O   0  0  0  0  0  0  0  0  0  0  0  0
  146.0070   67.8517  220.4134 H   0  0  0  0  0  0  0  0  0  0  0  0
  145.5350   67.0091  218.8988 H   0  0  0  0  0  0  0  0  0  0  0  0
  146.9275   68.1439  218.8988 H   0  0  0  0  0  0  0  0  0  0  0  0
  144.3258   68.7871  218.1538 H   0  0  0  0  0  0  0  0  0  0  0  0
  144.3992   69.3579  219.8601 H   0  0  0  0  0  0  0  0  0  0  0  0
  145.5060   70.4750  217.5560 H   0  0  0  0  0  0  0  0  0  0  0  0
  146.1087   71.5361  220.2150 H   0  0  0  0  0  0  0  0  0  0  0  0
  143.4496   70.5463  219.3729 H   0  0  0  0  0  0  0  0  0  0  0  0
  144.0898   71.0252  221.0026 H   0  0  0  0  0  0  0  0  0  0  0  0
  138.2804   70.8634  223.7637 H   0  0  0  0  0  0  0  0  0  0  0  0
  138.9155   70.4144  222.1361 H   0  0  0  0  0  0  0  0  0  0  0  0
  138.2430   68.4282  223.5189 H   0  0  0  0  0  0  0  0  0  0  0  0
  139.9813   68.4205  223.0504 H   0  0  0  0  0  0  0  0  0  0  0  0
  138.4745   67.0364  225.4833 H   0  0  0  0  0  0  0  0  0  0  0  0
  139.1754   66.8822  227.8737 H   0  0  0  0  0  0  0  0  0  0  0  0
  140.7257   68.5856  228.8332 H   0  0  0  0  0  0  0  0  0  0  0  0
  141.5879   70.4378  227.4051 H   0  0  0  0  0  0  0  0  0  0  0  0
  141.0442   71.8440  225.3460 H   0  0  0  0  0  0  0  0  0  0  0  0
  142.1028   70.5986  224.5266 H   0  0  0  0  0  0  0  0  0  0  0  0
  138.8971   76.5135  220.4707 H   0  0  0  0  0  0  0  0  0  0  0  0
  138.2578   75.0709  221.3350 H   0  0  0  0  0  0  0  0  0  0  0  0
  137.1230   77.2229  221.9858 H   0  0  0  0  0  0  0  0  0  0  0  0
  137.9194   76.3698  223.3630 H   0  0  0  0  0  0  0  0  0  0  0  0
  137.1563   79.3727  223.1401 H   0  0  0  0  0  0  0  0  0  0  0  0
  138.4906   81.3980  223.7220 H   0  0  0  0  0  0  0  0  0  0  0  0
  140.9825   81.3145  223.6572 H   0  0  0  0  0  0  0  0  0  0  0  0
  142.1472   79.2105  223.0034 H   0  0  0  0  0  0  0  0  0  0  0  0
  141.7368   77.0371  221.5162 H   0  0  0  0  0  0  0  0  0  0  0  0
  141.5861   76.5015  223.2563 H   0  0  0  0  0  0  0  0  0  0  0  0
  142.4317   73.4428  218.1481 H   0  0  0  0  0  0  0  0  0  0  0  0
  143.6193   74.4613  219.0448 H   0  0  0  0  0  0  0  0  0  0  0  0
  144.1698   72.0333  217.2760 H   0  0  0  0  0  0  0  0  0  0  0  0
  144.7538   73.7144  217.0635 H   0  0  0  0  0  0  0  0  0  0  0  0
  1  2  1  0
  2  3  1  0
  3  4  1  0
  4  5  1  0
  5  6  1  0
  6  7  1  0
  7  8  2  0
  8  9  1  0
  9 10  1  0
 10 11  1  0
 11 12  1  0
 12 13  1  0
 13 14  2  0
 14 15  1  0
 15 16  2  0
 16 17  1  0
 17 18  2  0
 18 19  1  0
  9 20  2  0
 20 21  1  0
 21 22  1  0
 22 23  1  0
 23 24  1  0
 24 25  1  0
 25 26  2  0
 26 27  1  0
 27 28  2  0
 28 29  1  0
 29 30  2  0
 30 31  1  0
 21 32  2  0
  6 33  1  0
 33 34  1  0
 34 35  1  0
 35  4  1  0
 32  7  1  0
 19 10  1  0
 31 22  1  0
 18 13  1  0
 30 25  1  0
  1 36  1  0
  1 37  1  0
  1 38  1  0
  2 39  1  0
  2 40  1  0
  3 41  1  0
  4 42  1  1
  5 43  1  0
  5 44  1  0
 11 45  1  0
 11 46  1  0
 12 47  1  0
 12 48  1  0
 14 49  1  0
 15 50  1  0
 16 51  1  0
 17 52  1  0
 19 53  1  0
 19 54  1  0
 23 55  1  0
 23 56  1  0
 24 57  1  0
 24 58  1  0
 26 59  1  0
 27 60  1  0
 28 61  1  0
 29 62  1  0
 31 63  1  0
 31 64  1  0
 33 65  1  0
 33 66  1  0
 34 67  1  0
 34 68  1  0
M  END
>  <meeko>  (13) 
{"free_energy": -9.77, "intermolecular_energy": -11.26, "internal_energy": -0.87, "cluster_size": 20, "cluster_id": 1, "rank_in_cluster": 1}

$$$$

     RDKit          3D

 68 73  0  0  0  0  0  0  0  0999 V2000
  145.9310   68.0140  219.3540 C   0  0  0  0  0  0  0  0  0  0  0  0
  144.8640   68.9610  218.8180 C   0  0  0  0  0  0  0  0  0  0  0  0
  145.4840   70.2040  218.3410 N   0  0  0  0  0  0  0  0  0  0  0  0
  145.2530   71.3150  219.2830 C   0  0  2  0  0  0  0  0  0  0  0  0
  143.7880   71.2710  219.8150 C   0  0  0  0  0  0  0  0  0  0  0  0
  143.1900   72.6120  219.8970 N   0  0  0  0  0  0  0  0  0  0  0  0
  142.1680   72.8960  220.8720 C   0  0  0  0  0  0  0  0  0  0  0  0
  141.7430   71.9250  221.7210 N   0  0  0  0  0  0  0  0  0  0  0  0
  140.7800   72.1820  222.6450 C   0  0  0  0  0  0  0  0  0  0  0  0
  140.3380   71.1400  223.5440 N   0  0  0  0  0  0  0  0  0  0  0  0
  139.0860   70.4130  223.2740 C   0  0  0  0  0  0  0  0  0  0  0  0
  139.2060   68.9580  223.7190 C   0  0  0  0  0  0  0  0  0  0  0  0
  139.6120   68.8940  225.1610 C   0  0  0  0  0  0  0  0  0  0  0  0
  139.1670   67.8400  225.9750 C   0  0  0  0  0  0  0  0  0  0  0  0
  139.5780   67.7580  227.3080 C   0  0  0  0  0  0  0  0  0  0  0  0
  140.4480   68.7170  227.8310 C   0  0  0  0  0  0  0  0  0  0  0  0
  140.9120   69.7570  227.0220 C   0  0  0  0  0  0  0  0  0  0  0  0
  140.4970   69.8570  225.6840 C   0  0  0  0  0  0  0  0  0  0  0  0
  141.0680   70.9510  224.8130 C   0  0  0  0  0  0  0  0  0  0  0  0
  140.2430   73.4300  222.7140 N   0  0  0  0  0  0  0  0  0  0  0  0
  140.6560   74.4130  221.8740 C   0  0  0  0  0  0  0  0  0  0  0  0
  140.0980   75.7410  221.9620 N   0  0  0  0  0  0  0  0  0  0  0  0
  138.7450   76.0220  221.4580 C   0  0  0  0  0  0  0  0  0  0  0  0
  138.0080   76.9310  222.4340 C   0  0  0  0  0  0  0  0  0  0  0  0
  138.8140   78.1650  222.7190 C   0  0  0  0  0  0  0  0  0  0  0  0
  138.1610   79.3510  223.0950 C   0  0  0  0  0  0  0  0  0  0  0  0
  138.9000   80.4940  223.4140 C   0  0  0  0  0  0  0  0  0  0  0  0
  140.2940   80.4590  223.3730 C   0  0  0  0  0  0  0  0  0  0  0  0
  140.9550   79.2820  223.0120 C   0  0  0  0  0  0  0  0  0  0  0  0
  140.2250   78.1250  222.6900 C   0  0  0  0  0  0  0  0  0  0  0  0
  140.9760   76.8590  222.3470 C   0  0  0  0  0  0  0  0  0  0  0  0
  141.6220   74.1370  220.9560 N   0  0  0  0  0  0  0  0  0  0  0  0
  143.4720   73.5960  218.8480 C   0  0  0  0  0  0  0  0  0  0  0  0
  144.5610   73.0800  217.9130 C   0  0  0  0  0  0  0  0  0  0  0  0
  145.6170   72.5560  218.6860 O   0  0  0  0  0  0  0  0  0  0  0  0
  145.9149   68.0283  220.4538 H   0  0  0  0  0  0  0  0  0  0  0  0
  145.7279   66.9934  218.9976 H   0  0  0  0  0  0  0  0  0  0  0  0
  146.9203   68.3368  218.9976 H   0  0  0  0  0  0  0  0  0  0  0  0
  144.3332   68.4766  217.9852 H   0  0  0  0  0  0  0  0  0  0  0  0
  144.1563   69.1993  219.6257 H   0  0  0  0  0  0  0  0  0  0  0  0
  145.0210   70.4560  217.4360 H   0  0  0  0  0  0  0  0  0  0  0  0
  145.9017   71.2047  220.1645 H   0  0  0  0  0  0  0  0  0  0  0  0
  143.1822   70.6532  219.1358 H   0  0  0  0  0  0  0  0  0  0  0  0
  143.8080   70.8458  220.8293 H   0  0  0  0  0  0  0  0  0  0  0  0
  138.2630   70.8930  223.8238 H   0  0  0  0  0  0  0  0  0  0  0  0
  138.8857   70.4389  222.1927 H   0  0  0  0  0  0  0  0  0  0  0  0
  138.2351   68.4569  223.5914 H   0  0  0  0  0  0  0  0  0  0  0  0
  139.9690   68.4551  223.1066 H   0  0  0  0  0  0  0  0  0  0  0  0
  138.4922   67.0759  225.5617 H   0  0  0  0  0  0  0  0  0  0  0  0
  139.2162   66.9379  227.9455 H   0  0  0  0  0  0  0  0  0  0  0  0
  140.7683   68.6534  228.8814 H   0  0  0  0  0  0  0  0  0  0  0  0
  141.6070   70.5026  227.4357 H   0  0  0  0  0  0  0  0  0  0  0  0
  141.0363   71.8955  225.3760 H   0  0  0  0  0  0  0  0  0  0  0  0
  142.0941   70.6523  224.5525 H   0  0  0  0  0  0  0  0  0  0  0  0
  138.8160   76.5187  220.4791 H   0  0  0  0  0  0  0  0  0  0  0  0
  138.1925   75.0764  221.3551 H   0  0  0  0  0  0  0  0  0  0  0  0
  137.0420   77.2233  221.9966 H   0  0  0  0  0  0  0  0  0  0  0  0
  137.8499   76.3855  223.3761 H   0  0  0  0  0  0  0  0  0  0  0  0
  137.0622   79.3802  223.1386 H   0  0  0  0  0  0  0  0  0  0  0  0
  138.3818   81.4219  223.6976 H   0  0  0  0  0  0  0  0  0  0  0  0
  140.8737   81.3592  223.6252 H   0  0  0  0  0  0  0  0  0  0  0  0
  142.0543   79.2609  222.9796 H   0  0  0  0  0  0  0  0  0  0  0  0
  141.6549   77.0733  221.5084 H   0  0  0  0  0  0  0  0  0  0  0  0
  141.5170   76.5483  223.2529 H   0  0  0  0  0  0  0  0  0  0  0  0
  142.5552   73.7813  218.2691 H   0  0  0  0  0  0  0  0  0  0  0  0
  143.8178   74.5287  219.3177 H   0  0  0  0  0  0  0  0  0  0  0  0
  144.1493   72.2905  217.2671 H   0  0  0  0  0  0  0  0  0  0  0  0
  144.9324   73.9026  217.2842 H   0  0  0  0  0  0  0  0  0  0  0  0
  1  2  1  0
  2  3  1  0
  3  4  1  0
  4  5  1  0
  5  6  1  0
  6  7  1  0
  7  8  2  0
  8  9  1  0
  9 10  1  0
 10 11  1  0
 11 12  1  0
 12 13  1  0
 13 14  2  0
 14 15  1  0
 15 16  2  0
 16 17  1  0
 17 18  2  0
 18 19  1  0
  9 20  2  0
 20 21  1  0
 21 22  1  0
 22 23  1  0
 23 24  1  0
 24 25  1  0
 25 26  2  0
 26 27  1  0
 27 28  2  0
 28 29  1  0
 29 30  2  0
 30 31  1  0
 21 32  2  0
  6 33  1  0
 33 34  1  0
 34 35  1  0
 35  4  1  0
 32  7  1  0
 19 10  1  0
 31 22  1  0
 18 13  1  0
 30 25  1  0
  1 36  1  0
  1 37  1  0
  1 38  1  0
  2 39  1  0
  2 40  1  0
  3 41  1  0
  4 42  1  1
  5 43  1  0
  5 44  1  0
 11 45  1  0
 11 46  1  0
 12 47  1  0
 12 48  1  0
 14 49  1  0
 15 50  1  0
 16 51  1  0
 17 52  1  0
 19 53  1  0
 19 54  1  0
 23 55  1  0
 23 56  1  0
 24 57  1  0
 24 58  1  0
 26 59  1  0
 27 60  1  0
 28 61  1  0
 29 62  1  0
 31 63  1  0
 31 64  1  0
 33 65  1  0
 33 66  1  0
 34 67  1  0
 34 68  1  0
M  END
>  <meeko>  (14) 
{"free_energy": -9.74, "intermolecular_energy": -11.23, "internal_energy": -0.87, "cluster_size": 20, "cluster_id": 1, "rank_in_cluster": 7}

$$$$

     RDKit          3D

 68 73  0  0  0  0  0  0  0  0999 V2000
  145.9160   67.9550  219.3360 C   0  0  0  0  0  0  0  0  0  0  0  0
  144.9410   69.0630  218.9530 C   0  0  0  0  0  0  0  0  0  0  0  0
  145.6780   70.2490  218.4960 N   0  0  0  0  0  0  0  0  0  0  0  0
  145.3610   71.4290  219.3220 C   0  0  2  0  0  0  0  0  0  0  0  0
  143.9230   71.3010  219.9110 C   0  0  0  0  0  0  0  0  0  0  0  0
  143.1960   72.5780  219.8720 N   0  0  0  0  0  0  0  0  0  0  0  0
  142.1770   72.8670  220.8490 C   0  0  0  0  0  0  0  0  0  0  0  0
  141.7500   71.8980  221.7000 N   0  0  0  0  0  0  0  0  0  0  0  0
  140.7890   72.1590  222.6250 C   0  0  0  0  0  0  0  0  0  0  0  0
  140.3450   71.1190  223.5250 N   0  0  0  0  0  0  0  0  0  0  0  0
  139.1010   70.3820  223.2460 C   0  0  0  0  0  0  0  0  0  0  0  0
  139.2260   68.9310  223.7010 C   0  0  0  0  0  0  0  0  0  0  0  0
  139.6170   68.8780  225.1470 C   0  0  0  0  0  0  0  0  0  0  0  0
  139.1700   67.8250  225.9620 C   0  0  0  0  0  0  0  0  0  0  0  0
  139.5680   67.7530  227.3000 C   0  0  0  0  0  0  0  0  0  0  0  0
  140.4260   68.7210  227.8260 C   0  0  0  0  0  0  0  0  0  0  0  0
  140.8920   69.7600  227.0170 C   0  0  0  0  0  0  0  0  0  0  0  0
  140.4900   69.8500  225.6740 C   0  0  0  0  0  0  0  0  0  0  0  0
  141.0630   70.9420  224.8030 C   0  0  0  0  0  0  0  0  0  0  0  0
  140.2570   73.4090  222.6940 N   0  0  0  0  0  0  0  0  0  0  0  0
  140.6730   74.3910  221.8530 C   0  0  0  0  0  0  0  0  0  0  0  0
  140.1200   75.7210  221.9420 N   0  0  0  0  0  0  0  0  0  0  0  0
  138.7670   76.0060  221.4440 C   0  0  0  0  0  0  0  0  0  0  0  0
  138.0380   76.9200  222.4220 C   0  0  0  0  0  0  0  0  0  0  0  0
  138.8500   78.1510  222.7020 C   0  0  0  0  0  0  0  0  0  0  0  0
  138.2040   79.3400  223.0790 C   0  0  0  0  0  0  0  0  0  0  0  0
  138.9480   80.4800  223.3940 C   0  0  0  0  0  0  0  0  0  0  0  0
  140.3420   80.4390  223.3460 C   0  0  0  0  0  0  0  0  0  0  0  0
  140.9960   79.2600  222.9840 C   0  0  0  0  0  0  0  0  0  0  0  0
  140.2600   78.1050  222.6670 C   0  0  0  0  0  0  0  0  0  0  0  0
  141.0050   76.8360  222.3220 C   0  0  0  0  0  0  0  0  0  0  0  0
  141.6360   74.1100  220.9340 N   0  0  0  0  0  0  0  0  0  0  0  0
  143.3480   73.4640  218.7140 C   0  0  0  0  0  0  0  0  0  0  0  0
  144.4590   72.9570  217.7990 C   0  0  0  0  0  0  0  0  0  0  0  0
  145.5820   72.6260  218.5830 O   0  0  0  0  0  0  0  0  0  0  0  0
  145.9784   67.8841  220.4319 H   0  0  0  0  0  0  0  0  0  0  0  0
  145.5622   66.9975  218.9262 H   0  0  0  0  0  0  0  0  0  0  0  0
  146.9108   68.1841  218.9262 H   0  0  0  0  0  0  0  0  0  0  0  0
  144.2861   68.7076  218.1438 H   0  0  0  0  0  0  0  0  0  0  0  0
  144.3375   69.3312  219.8327 H   0  0  0  0  0  0  0  0  0  0  0  0
  145.3610   70.4540  217.5180 H   0  0  0  0  0  0  0  0  0  0  0  0
  146.0407   71.4802  220.1854 H   0  0  0  0  0  0  0  0  0  0  0  0
  143.3643   70.5563  219.3251 H   0  0  0  0  0  0  0  0  0  0  0  0
  144.0131   70.9935  220.9633 H   0  0  0  0  0  0  0  0  0  0  0  0
  138.2689   70.8597  223.7840 H   0  0  0  0  0  0  0  0  0  0  0  0
  138.9122   70.4001  222.1625 H   0  0  0  0  0  0  0  0  0  0  0  0
  138.2599   68.4227  223.5662 H   0  0  0  0  0  0  0  0  0  0  0  0
  139.9989   68.4298  223.0998 H   0  0  0  0  0  0  0  0  0  0  0  0
  138.5044   67.0544  225.5459 H   0  0  0  0  0  0  0  0  0  0  0  0
  139.2054   66.9339  227.9385 H   0  0  0  0  0  0  0  0  0  0  0  0
  140.7357   68.6652  228.8800 H   0  0  0  0  0  0  0  0  0  0  0  0
  141.5778   70.5122  227.4340 H   0  0  0  0  0  0  0  0  0  0  0  0
  141.0195   71.8895  225.3601 H   0  0  0  0  0  0  0  0  0  0  0  0
  142.0937   70.6483  224.5551 H   0  0  0  0  0  0  0  0  0  0  0  0
  138.8354   76.5006  220.4638 H   0  0  0  0  0  0  0  0  0  0  0  0
  138.2104   75.0624  221.3453 H   0  0  0  0  0  0  0  0  0  0  0  0
  137.0714   77.2157  221.9882 H   0  0  0  0  0  0  0  0  0  0  0  0
  137.8819   76.3765  223.3655 H   0  0  0  0  0  0  0  0  0  0  0  0
  137.1055   79.3738  223.1265 H   0  0  0  0  0  0  0  0  0  0  0  0
  138.4347   81.4100  223.6799 H   0  0  0  0  0  0  0  0  0  0  0  0
  140.9266   81.3373  223.5938 H   0  0  0  0  0  0  0  0  0  0  0  0
  142.0951   79.2346  222.9465 H   0  0  0  0  0  0  0  0  0  0  0  0
  141.6809   77.0468  221.4802 H   0  0  0  0  0  0  0  0  0  0  0  0
  141.5495   76.5241  223.2255 H   0  0  0  0  0  0  0  0  0  0  0  0
  142.4020   73.4936  218.1535 H   0  0  0  0  0  0  0  0  0  0  0  0
  143.6092   74.4723  219.0678 H   0  0  0  0  0  0  0  0  0  0  0  0
  144.1120   72.0653  217.2563 H   0  0  0  0  0  0  0  0  0  0  0  0
  144.7290   73.7382  217.0732 H   0  0  0  0  0  0  0  0  0  0  0  0
  1  2  1  0
  2  3  1  0
  3  4  1  0
  4  5  1  0
  5  6  1  0
  6  7  1  0
  7  8  2  0
  8  9  1  0
  9 10  1  0
 10 11  1  0
 11 12  1  0
 12 13  1  0
 13 14  2  0
 14 15  1  0
 15 16  2  0
 16 17  1  0
 17 18  2  0
 18 19  1  0
  9 20  2  0
 20 21  1  0
 21 22  1  0
 22 23  1  0
 23 24  1  0
 24 25  1  0
 25 26  2  0
 26 27  1  0
 27 28  2  0
 28 29  1  0
 29 30  2  0
 30 31  1  0
 21 32  2  0
  6 33  1  0
 33 34  1  0
 34 35  1  0
 35  4  1  0
 32  7  1  0
 19 10  1  0
 31 22  1  0
 18 13  1  0
 30 25  1  0
  1 36  1  0
  1 37  1  0
  1 38  1  0
  2 39  1  0
  2 40  1  0
  3 41  1  0
  4 42  1  1
  5 43  1  0
  5 44  1  0
 11 45  1  0
 11 46  1  0
 12 47  1  0
 12 48  1  0
 14 49  1  0
 15 50  1  0
 16 51  1  0
 17 52  1  0
 19 53  1  0
 19 54  1  0
 23 55  1  0
 23 56  1  0
 24 57  1  0
 24 58  1  0
 26 59  1  0
 27 60  1  0
 28 61  1  0
 29 62  1  0
 31 63  1  0
 31 64  1  0
 33 65  1  0
 33 66  1  0
 34 67  1  0
 34 68  1  0
M  END
>  <meeko>  (15) 
{"free_energy": -9.77, "intermolecular_energy": -11.26, "internal_energy": -0.87, "cluster_size": 20, "cluster_id": 1, "rank_in_cluster": 2}

$$$$

     RDKit          3D

 68 73  0  0  0  0  0  0  0  0999 V2000
  145.4550   74.7810  215.9230 C   0  0  0  0  0  0  0  0  0  0  0  0
  146.4640   73.7930  216.4970 C   0  0  0  0  0  0  0  0  0  0  0  0
  146.0530   73.3760  217.8450 N   0  0  0  0  0  0  0  0  0  0  0  0
  144.5890   73.2250  217.9370 C   0  0  2  0  0  0  0  0  0  0  0  0
  144.1230   73.4090  219.4130 C   0  0  0  0  0  0  0  0  0  0  0  0
  143.0810   72.4410  219.7870 N   0  0  0  0  0  0  0  0  0  0  0  0
  142.1060   72.7720  220.7950 C   0  0  0  0  0  0  0  0  0  0  0  0
  141.6880   71.8280  221.6780 N   0  0  0  0  0  0  0  0  0  0  0  0
  140.7680   72.1290  222.6330 C   0  0  0  0  0  0  0  0  0  0  0  0
  140.3330   71.1160  223.5670 N   0  0  0  0  0  0  0  0  0  0  0  0
  139.0690   70.3960  223.3390 C   0  0  0  0  0  0  0  0  0  0  0  0
  139.1810   68.9530  223.8200 C   0  0  0  0  0  0  0  0  0  0  0  0
  139.6130   68.9220  225.2550 C   0  0  0  0  0  0  0  0  0  0  0  0
  139.1720   67.8940  226.1050 C   0  0  0  0  0  0  0  0  0  0  0  0
  139.6070   67.8420  227.4320 C   0  0  0  0  0  0  0  0  0  0  0  0
  140.4970   68.8050  227.9130 C   0  0  0  0  0  0  0  0  0  0  0  0
  140.9570   69.8190  227.0690 C   0  0  0  0  0  0  0  0  0  0  0  0
  140.5180   69.8880  225.7370 C   0  0  0  0  0  0  0  0  0  0  0  0
  141.0840   70.9520  224.8270 C   0  0  0  0  0  0  0  0  0  0  0  0
  140.2700   73.3930  222.6990 N   0  0  0  0  0  0  0  0  0  0  0  0
  140.6790   74.3500  221.8260 C   0  0  0  0  0  0  0  0  0  0  0  0
  140.1620   75.6950  221.9120 N   0  0  0  0  0  0  0  0  0  0  0  0
  138.8180   76.0160  221.4110 C   0  0  0  0  0  0  0  0  0  0  0  0
  138.1130   76.9510  222.3870 C   0  0  0  0  0  0  0  0  0  0  0  0
  138.9570   78.1600  222.6650 C   0  0  0  0  0  0  0  0  0  0  0  0
  138.3430   79.3670  223.0390 C   0  0  0  0  0  0  0  0  0  0  0  0
  139.1180   80.4870  223.3520 C   0  0  0  0  0  0  0  0  0  0  0  0
  140.5100   80.4080  223.3060 C   0  0  0  0  0  0  0  0  0  0  0  0
  141.1330   79.2100  222.9480 C   0  0  0  0  0  0  0  0  0  0  0  0
  140.3660   78.0750  222.6320 C   0  0  0  0  0  0  0  0  0  0  0  0
  141.0770   76.7860  222.2910 C   0  0  0  0  0  0  0  0  0  0  0  0
  141.6000   74.0290  220.8780 N   0  0  0  0  0  0  0  0  0  0  0  0
  143.1650   71.0610  219.2980 C   0  0  0  0  0  0  0  0  0  0  0  0
  144.2780   70.9300  218.2630 C   0  0  0  0  0  0  0  0  0  0  0  0
  144.1780   71.9960  217.3460 O   0  0  0  0  0  0  0  0  0  0  0  0
  144.9333   75.2919  216.7457 H   0  0  0  0  0  0  0  0  0  0  0  0
  145.9802   75.5238  215.3046 H   0  0  0  0  0  0  0  0  0  0  0  0
  144.7234   74.2403  215.3046 H   0  0  0  0  0  0  0  0  0  0  0  0
  146.5197   72.9094  215.8441 H   0  0  0  0  0  0  0  0  0  0  0  0
  147.4494   74.2783  216.5554 H   0  0  0  0  0  0  0  0  0  0  0  0
  146.3340   74.1390  218.5050 H   0  0  0  0  0  0  0  0  0  0  0  0
  144.0898   74.0163  217.3585 H   0  0  0  0  0  0  0  0  0  0  0  0
  144.9886   73.2736  220.0781 H   0  0  0  0  0  0  0  0  0  0  0  0
  143.6992   74.4192  219.5118 H   0  0  0  0  0  0  0  0  0  0  0  0
  138.2612   70.8995  223.8903 H   0  0  0  0  0  0  0  0  0  0  0  0
  138.8498   70.3953  222.2611 H   0  0  0  0  0  0  0  0  0  0  0  0
  138.2023   68.4601  223.7237 H   0  0  0  0  0  0  0  0  0  0  0  0
  139.9269   68.4255  223.2073 H   0  0  0  0  0  0  0  0  0  0  0  0
  138.4815   67.1269  225.7244 H   0  0  0  0  0  0  0  0  0  0  0  0
  139.2486   67.0429  228.0976 H   0  0  0  0  0  0  0  0  0  0  0  0
  140.8365   68.7650  228.9585 H   0  0  0  0  0  0  0  0  0  0  0  0
  141.6672   70.5676  227.4502 H   0  0  0  0  0  0  0  0  0  0  0  0
  141.0728   71.9112  225.3653 H   0  0  0  0  0  0  0  0  0  0  0  0
  142.1017   70.6348  224.5557 H   0  0  0  0  0  0  0  0  0  0  0  0
  138.9015   76.5072  220.4303 H   0  0  0  0  0  0  0  0  0  0  0  0
  138.2359   75.0879  221.3122 H   0  0  0  0  0  0  0  0  0  0  0  0
  137.1548   77.2715  221.9521 H   0  0  0  0  0  0  0  0  0  0  0  0
  137.9421   76.4136  223.3315 H   0  0  0  0  0  0  0  0  0  0  0  0
  137.2459   79.4308  223.0857 H   0  0  0  0  0  0  0  0  0  0  0  0
  138.6301   81.4314  223.6348 H   0  0  0  0  0  0  0  0  0  0  0  0
  141.1183   81.2908  223.5521 H   0  0  0  0  0  0  0  0  0  0  0  0
  142.2310   79.1544  222.9131 H   0  0  0  0  0  0  0  0  0  0  0  0
  141.7597   76.9765  221.4498 H   0  0  0  0  0  0  0  0  0  0  0  0
  141.6120   76.4613  223.1957 H   0  0  0  0  0  0  0  0  0  0  0  0
  143.3753   70.3892  220.1433 H   0  0  0  0  0  0  0  0  0  0  0  0
  142.2078   70.7900  218.8286 H   0  0  0  0  0  0  0  0  0  0  0  0
  145.2557   70.9662  218.7658 H   0  0  0  0  0  0  0  0  0  0  0  0
  144.1813   69.9717  217.7317 H   0  0  0  0  0  0  0  0  0  0  0  0
  1  2  1  0
  2  3  1  0
  3  4  1  0
  4  5  1  0
  5  6  1  0
  6  7  1  0
  7  8  2  0
  8  9  1  0
  9 10  1  0
 10 11  1  0
 11 12  1  0
 12 13  1  0
 13 14  2  0
 14 15  1  0
 15 16  2  0
 16 17  1  0
 17 18  2  0
 18 19  1  0
  9 20  2  0
 20 21  1  0
 21 22  1  0
 22 23  1  0
 23 24  1  0
 24 25  1  0
 25 26  2  0
 26 27  1  0
 27 28  2  0
 28 29  1  0
 29 30  2  0
 30 31  1  0
 21 32  2  0
  6 33  1  0
 33 34  1  0
 34 35  1  0
 35  4  1  0
 32  7  1  0
 19 10  1  0
 31 22  1  0
 18 13  1  0
 30 25  1  0
  1 36  1  0
  1 37  1  0
  1 38  1  0
  2 39  1  0
  2 40  1  0
  3 41  1  0
  4 42  1  6
  5 43  1  0
  5 44  1  0
 11 45  1  0
 11 46  1  0
 12 47  1  0
 12 48  1  0
 14 49  1  0
 15 50  1  0
 16 51  1  0
 17 52  1  0
 19 53  1  0
 19 54  1  0
 23 55  1  0
 23 56  1  0
 24 57  1  0
 24 58  1  0
 26 59  1  0
 27 60  1  0
 28 61  1  0
 29 62  1  0
 31 63  1  0
 31 64  1  0
 33 65  1  0
 33 66  1  0
 34 67  1  0
 34 68  1  0
M  END
>  <meeko>  (16) 
{"free_energy": -9.56, "intermolecular_energy": -11.05, "internal_energy": -0.86, "cluster_size": 20, "cluster_id": 1, "rank_in_cluster": 17}

$$$$

     RDKit          3D

 68 73  0  0  0  0  0  0  0  0999 V2000
  145.4850   67.9820  219.3970 C   0  0  0  0  0  0  0  0  0  0  0  0
  146.2410   69.0350  218.5950 C   0  0  0  0  0  0  0  0  0  0  0  0
  145.3250   70.1030  218.1740 N   0  0  0  0  0  0  0  0  0  0  0  0
  145.1760   71.1290  219.2230 C   0  0  2  0  0  0  0  0  0  0  0  0
  143.6950   71.1920  219.7040 C   0  0  0  0  0  0  0  0  0  0  0  0
  143.2420   72.5750  219.9140 N   0  0  0  0  0  0  0  0  0  0  0  0
  142.2170   72.8680  220.8830 C   0  0  0  0  0  0  0  0  0  0  0  0
  141.7810   71.9010  221.7320 N   0  0  0  0  0  0  0  0  0  0  0  0
  140.8150   72.1660  222.6510 C   0  0  0  0  0  0  0  0  0  0  0  0
  140.3620   71.1290  223.5480 N   0  0  0  0  0  0  0  0  0  0  0  0
  139.1120   70.4020  223.2670 C   0  0  0  0  0  0  0  0  0  0  0  0
  139.2250   68.9500  223.7190 C   0  0  0  0  0  0  0  0  0  0  0  0
  139.6140   68.8910  225.1660 C   0  0  0  0  0  0  0  0  0  0  0  0
  139.1570   67.8410  225.9790 C   0  0  0  0  0  0  0  0  0  0  0  0
  139.5530   67.7630  227.3170 C   0  0  0  0  0  0  0  0  0  0  0  0
  140.4190   68.7230  227.8460 C   0  0  0  0  0  0  0  0  0  0  0  0
  140.8940   69.7590  227.0390 C   0  0  0  0  0  0  0  0  0  0  0  0
  140.4940   69.8540  225.6960 C   0  0  0  0  0  0  0  0  0  0  0  0
  141.0770   70.9440  224.8260 C   0  0  0  0  0  0  0  0  0  0  0  0
  140.2870   73.4180  222.7150 N   0  0  0  0  0  0  0  0  0  0  0  0
  140.7120   74.3980  221.8760 C   0  0  0  0  0  0  0  0  0  0  0  0
  140.1630   75.7300  221.9600 N   0  0  0  0  0  0  0  0  0  0  0  0
  138.8100   76.0170  221.4620 C   0  0  0  0  0  0  0  0  0  0  0  0
  138.0840   76.9360  222.4370 C   0  0  0  0  0  0  0  0  0  0  0  0
  138.8990   78.1660  222.7110 C   0  0  0  0  0  0  0  0  0  0  0  0
  138.2570   79.3580  223.0840 C   0  0  0  0  0  0  0  0  0  0  0  0
  139.0050   80.4980  223.3930 C   0  0  0  0  0  0  0  0  0  0  0  0
  140.3980   80.4530  223.3440 C   0  0  0  0  0  0  0  0  0  0  0  0
  141.0490   79.2700  222.9860 C   0  0  0  0  0  0  0  0  0  0  0  0
  140.3100   78.1160  222.6740 C   0  0  0  0  0  0  0  0  0  0  0  0
  141.0510   76.8440  222.3340 C   0  0  0  0  0  0  0  0  0  0  0  0
  141.6800   74.1130  220.9640 N   0  0  0  0  0  0  0  0  0  0  0  0
  143.6710   73.6260  218.9860 C   0  0  0  0  0  0  0  0  0  0  0  0
  144.7360   73.0930  218.0330 C   0  0  0  0  0  0  0  0  0  0  0  0
  145.6960   72.3770  218.7750 O   0  0  0  0  0  0  0  0  0  0  0  0
  145.6214   68.1720  220.4719 H   0  0  0  0  0  0  0  0  0  0  0  0
  144.4144   68.0309  219.1490 H   0  0  0  0  0  0  0  0  0  0  0  0
  145.8736   66.9833  219.1490 H   0  0  0  0  0  0  0  0  0  0  0  0
  147.0383   69.4647  219.2193 H   0  0  0  0  0  0  0  0  0  0  0  0
  146.6776   68.5628  217.7026 H   0  0  0  0  0  0  0  0  0  0  0  0
  144.3850   69.6660  218.0240 H   0  0  0  0  0  0  0  0  0  0  0  0
  145.7724   70.8568  220.1063 H   0  0  0  0  0  0  0  0  0  0  0  0
  143.0546   70.7201  218.9443 H   0  0  0  0  0  0  0  0  0  0  0  0
  143.6276   70.6628  220.6660 H   0  0  0  0  0  0  0  0  0  0  0  0
  138.2834   70.8852  223.8054 H   0  0  0  0  0  0  0  0  0  0  0  0
  138.9241   70.4235  222.1834 H   0  0  0  0  0  0  0  0  0  0  0  0
  138.2551   68.4495  223.5820 H   0  0  0  0  0  0  0  0  0  0  0  0
  139.9947   68.4440  223.1177 H   0  0  0  0  0  0  0  0  0  0  0  0
  138.4848   67.0771  225.5611 H   0  0  0  0  0  0  0  0  0  0  0  0
  139.1828   66.9458  227.9535 H   0  0  0  0  0  0  0  0  0  0  0  0
  140.7274   68.6628  228.9002 H   0  0  0  0  0  0  0  0  0  0  0  0
  141.5855   70.5051  227.4576 H   0  0  0  0  0  0  0  0  0  0  0  0
  141.0406   71.8909  225.3846 H   0  0  0  0  0  0  0  0  0  0  0  0
  142.1054   70.6422  224.5783 H   0  0  0  0  0  0  0  0  0  0  0  0
  138.8790   76.5080  220.4801 H   0  0  0  0  0  0  0  0  0  0  0  0
  138.2509   75.0745  221.3672 H   0  0  0  0  0  0  0  0  0  0  0  0
  137.1175   77.2321  222.0031 H   0  0  0  0  0  0  0  0  0  0  0  0
  137.9276   76.3966  223.3828 H   0  0  0  0  0  0  0  0  0  0  0  0
  137.1587   79.3950  223.1333 H   0  0  0  0  0  0  0  0  0  0  0  0
  138.4946   81.4308  223.6749 H   0  0  0  0  0  0  0  0  0  0  0  0
  140.9852   81.3507  223.5877 H   0  0  0  0  0  0  0  0  0  0  0  0
  142.1480   79.2415  222.9480 H   0  0  0  0  0  0  0  0  0  0  0  0
  141.7266   77.0492  221.4905 H   0  0  0  0  0  0  0  0  0  0  0  0
  141.5956   76.5347  223.2383 H   0  0  0  0  0  0  0  0  0  0  0  0
  142.8039   73.9712  218.4037 H   0  0  0  0  0  0  0  0  0  0  0  0
  144.0953   74.4603  219.5639 H   0  0  0  0  0  0  0  0  0  0  0  0
  144.2689   72.4264  217.2931 H   0  0  0  0  0  0  0  0  0  0  0  0
  145.2193   73.9305  217.5087 H   0  0  0  0  0  0  0  0  0  0  0  0
  1  2  1  0
  2  3  1  0
  3  4  1  0
  4  5  1  0
  5  6  1  0
  6  7  1  0
  7  8  2  0
  8  9  1  0
  9 10  1  0
 10 11  1  0
 11 12  1  0
 12 13  1  0
 13 14  2  0
 14 15  1  0
 15 16  2  0
 16 17  1  0
 17 18  2  0
 18 19  1  0
  9 20  2  0
 20 21  1  0
 21 22  1  0
 22 23  1  0
 23 24  1  0
 24 25  1  0
 25 26  2  0
 26 27  1  0
 27 28  2  0
 28 29  1  0
 29 30  2  0
 30 31  1  0
 21 32  2  0
  6 33  1  0
 33 34  1  0
 34 35  1  0
 35  4  1  0
 32  7  1  0
 19 10  1  0
 31 22  1  0
 18 13  1  0
 30 25  1  0
  1 36  1  0
  1 37  1  0
  1 38  1  0
  2 39  1  0
  2 40  1  0
  3 41  1  0
  4 42  1  1
  5 43  1  0
  5 44  1  0
 11 45  1  0
 11 46  1  0
 12 47  1  0
 12 48  1  0
 14 49  1  0
 15 50  1  0
 16 51  1  0
 17 52  1  0
 19 53  1  0
 19 54  1  0
 23 55  1  0
 23 56  1  0
 24 57  1  0
 24 58  1  0
 26 59  1  0
 27 60  1  0
 28 61  1  0
 29 62  1  0
 31 63  1  0
 31 64  1  0
 33 65  1  0
 33 66  1  0
 34 67  1  0
 34 68  1  0
M  END
>  <meeko>  (17) 
{"free_energy": -9.68, "intermolecular_energy": -11.18, "internal_energy": -0.85, "cluster_size": 20, "cluster_id": 1, "rank_in_cluster": 11}

$$$$

     RDKit          3D

 68 73  0  0  0  0  0  0  0  0999 V2000
  145.9370   67.9490  219.3110 C   0  0  0  0  0  0  0  0  0  0  0  0
  145.0020   69.1080  218.9830 C   0  0  0  0  0  0  0  0  0  0  0  0
  145.7790   70.2800  218.5570 N   0  0  0  0  0  0  0  0  0  0  0  0
  145.4350   71.4700  219.3560 C   0  0  2  0  0  0  0  0  0  0  0  0
  144.0010   71.3230  219.9490 C   0  0  0  0  0  0  0  0  0  0  0  0
  143.2450   72.5820  219.8810 N   0  0  0  0  0  0  0  0  0  0  0  0
  142.2190   72.8700  220.8520 C   0  0  0  0  0  0  0  0  0  0  0  0
  141.7810   71.8980  221.6940 N   0  0  0  0  0  0  0  0  0  0  0  0
  140.8150   72.1580  222.6140 C   0  0  0  0  0  0  0  0  0  0  0  0
  140.3590   71.1150  223.5030 N   0  0  0  0  0  0  0  0  0  0  0  0
  139.1020   70.4010  223.2220 C   0  0  0  0  0  0  0  0  0  0  0  0
  139.2070   68.9430  223.6600 C   0  0  0  0  0  0  0  0  0  0  0  0
  139.6040   68.8670  225.1030 C   0  0  0  0  0  0  0  0  0  0  0  0
  139.1450   67.8120  225.9090 C   0  0  0  0  0  0  0  0  0  0  0  0
  139.5470   67.7180  227.2440 C   0  0  0  0  0  0  0  0  0  0  0  0
  140.4230   68.6670  227.7770 C   0  0  0  0  0  0  0  0  0  0  0  0
  140.9010   69.7070  226.9770 C   0  0  0  0  0  0  0  0  0  0  0  0
  140.4940   69.8190  225.6370 C   0  0  0  0  0  0  0  0  0  0  0  0
  141.0800   70.9120  224.7760 C   0  0  0  0  0  0  0  0  0  0  0  0
  140.2890   73.4110  222.6860 N   0  0  0  0  0  0  0  0  0  0  0  0
  140.7160   74.3950  221.8540 C   0  0  0  0  0  0  0  0  0  0  0  0
  140.1680   75.7280  221.9470 N   0  0  0  0  0  0  0  0  0  0  0  0
  138.8200   76.0220  221.4420 C   0  0  0  0  0  0  0  0  0  0  0  0
  138.0890   76.9340  222.4220 C   0  0  0  0  0  0  0  0  0  0  0  0
  138.9050   78.1600  222.7130 C   0  0  0  0  0  0  0  0  0  0  0  0
  138.2620   79.3490  223.0920 C   0  0  0  0  0  0  0  0  0  0  0  0
  139.0100   80.4840  223.4170 C   0  0  0  0  0  0  0  0  0  0  0  0
  140.4040   80.4370  223.3780 C   0  0  0  0  0  0  0  0  0  0  0  0
  141.0550   79.2560  223.0130 C   0  0  0  0  0  0  0  0  0  0  0  0
  140.3150   78.1070  222.6850 C   0  0  0  0  0  0  0  0  0  0  0  0
  141.0560   76.8360  222.3380 C   0  0  0  0  0  0  0  0  0  0  0  0
  141.6840   74.1150  220.9410 N   0  0  0  0  0  0  0  0  0  0  0  0
  143.3760   73.4450  218.7030 C   0  0  0  0  0  0  0  0  0  0  0  0
  144.4980   72.9420  217.7990 C   0  0  0  0  0  0  0  0  0  0  0  0
  145.6280   72.6550  218.5890 O   0  0  0  0  0  0  0  0  0  0  0  0
  146.0218   67.8439  220.4027 H   0  0  0  0  0  0  0  0  0  0  0  0
  145.5328   67.0196  218.8835 H   0  0  0  0  0  0  0  0  0  0  0  0
  146.9309   68.1474  218.8835 H   0  0  0  0  0  0  0  0  0  0  0  0
  144.3219   68.8083  218.1720 H   0  0  0  0  0  0  0  0  0  0  0  0
  144.4226   69.3678  219.8812 H   0  0  0  0  0  0  0  0  0  0  0  0
  145.5180   70.4800  217.5630 H   0  0  0  0  0  0  0  0  0  0  0  0
  146.1134   71.5560  220.2176 H   0  0  0  0  0  0  0  0  0  0  0  0
  143.4592   70.5523  219.3811 H   0  0  0  0  0  0  0  0  0  0  0  0
  144.0985   71.0421  221.0081 H   0  0  0  0  0  0  0  0  0  0  0  0
  138.2802   70.8854  223.7697 H   0  0  0  0  0  0  0  0  0  0  0  0
  138.9077   70.4346  222.1398 H   0  0  0  0  0  0  0  0  0  0  0  0
  138.2325   68.4511  223.5242 H   0  0  0  0  0  0  0  0  0  0  0  0
  139.9694   68.4373  223.0493 H   0  0  0  0  0  0  0  0  0  0  0  0
  138.4660   67.0563  225.4873 H   0  0  0  0  0  0  0  0  0  0  0  0
  139.1741   66.8976  227.8747 H   0  0  0  0  0  0  0  0  0  0  0  0
  140.7368   68.5948  228.8288 H   0  0  0  0  0  0  0  0  0  0  0  0
  141.6008   70.4434  227.3988 H   0  0  0  0  0  0  0  0  0  0  0  0
  141.0536   71.8535  225.3442 H   0  0  0  0  0  0  0  0  0  0  0  0
  142.1049   70.6053  224.5199 H   0  0  0  0  0  0  0  0  0  0  0  0
  138.8969   76.5223  220.4654 H   0  0  0  0  0  0  0  0  0  0  0  0
  138.2596   75.0817  221.3335 H   0  0  0  0  0  0  0  0  0  0  0  0
  137.1259   77.2362  221.9848 H   0  0  0  0  0  0  0  0  0  0  0  0
  137.9254   76.3859  223.3616 H   0  0  0  0  0  0  0  0  0  0  0  0
  137.1634   79.3876  223.1334 H   0  0  0  0  0  0  0  0  0  0  0  0
  138.4993   81.4151  223.7038 H   0  0  0  0  0  0  0  0  0  0  0  0
  140.9912   81.3310  223.6350 H   0  0  0  0  0  0  0  0  0  0  0  0
  142.1541   79.2252  222.9821 H   0  0  0  0  0  0  0  0  0  0  0  0
  141.7381   77.0477  221.5014 H   0  0  0  0  0  0  0  0  0  0  0  0
  141.5935   76.5167  223.2431 H   0  0  0  0  0  0  0  0  0  0  0  0
  142.4293   73.4404  218.1429 H   0  0  0  0  0  0  0  0  0  0  0  0
  143.6140   74.4669  219.0332 H   0  0  0  0  0  0  0  0  0  0  0  0
  144.1711   72.0303  217.2776 H   0  0  0  0  0  0  0  0  0  0  0  0
  144.7499   73.7120  217.0550 H   0  0  0  0  0  0  0  0  0  0  0  0
  1  2  1  0
  2  3  1  0
  3  4  1  0
  4  5  1  0
  5  6  1  0
  6  7  1  0
  7  8  2  0
  8  9  1  0
  9 10  1  0
 10 11  1  0
 11 12  1  0
 12 13  1  0
 13 14  2  0
 14 15  1  0
 15 16  2  0
 16 17  1  0
 17 18  2  0
 18 19  1  0
  9 20  2  0
 20 21  1  0
 21 22  1  0
 22 23  1  0
 23 24  1  0
 24 25  1  0
 25 26  2  0
 26 27  1  0
 27 28  2  0
 28 29  1  0
 29 30  2  0
 30 31  1  0
 21 32  2  0
  6 33  1  0
 33 34  1  0
 34 35  1  0
 35  4  1  0
 32  7  1  0
 19 10  1  0
 31 22  1  0
 18 13  1  0
 30 25  1  0
  1 36  1  0
  1 37  1  0
  1 38  1  0
  2 39  1  0
  2 40  1  0
  3 41  1  0
  4 42  1  1
  5 43  1  0
  5 44  1  0
 11 45  1  0
 11 46  1  0
 12 47  1  0
 12 48  1  0
 14 49  1  0
 15 50  1  0
 16 51  1  0
 17 52  1  0
 19 53  1  0
 19 54  1  0
 23 55  1  0
 23 56  1  0
 24 57  1  0
 24 58  1  0
 26 59  1  0
 27 60  1  0
 28 61  1  0
 29 62  1  0
 31 63  1  0
 31 64  1  0
 33 65  1  0
 33 66  1  0
 34 67  1  0
 34 68  1  0
M  END
>  <meeko>  (18) 
{"free_energy": -9.77, "intermolecular_energy": -11.26, "internal_energy": -0.87, "cluster_size": 20, "cluster_id": 1, "rank_in_cluster": 3}

$$$$

     RDKit          3D

 68 73  0  0  0  0  0  0  0  0999 V2000
  145.5200   74.6430  215.9290 C   0  0  0  0  0  0  0  0  0  0  0  0
  146.5730   73.7680  216.5990 C   0  0  0  0  0  0  0  0  0  0  0  0
  146.1210   73.3670  217.9380 N   0  0  0  0  0  0  0  0  0  0  0  0
  144.6510   73.2700  218.0010 C   0  0  2  0  0  0  0  0  0  0  0  0
  144.1670   73.4030  219.4770 C   0  0  0  0  0  0  0  0  0  0  0  0
  143.0830   72.4610  219.7890 N   0  0  0  0  0  0  0  0  0  0  0  0
  142.1050   72.7820  220.7970 C   0  0  0  0  0  0  0  0  0  0  0  0
  141.6840   71.8310  221.6710 N   0  0  0  0  0  0  0  0  0  0  0  0
  140.7620   72.1230  222.6260 C   0  0  0  0  0  0  0  0  0  0  0  0
  140.3240   71.1030  223.5500 N   0  0  0  0  0  0  0  0  0  0  0  0
  139.0780   70.3600  223.2950 C   0  0  0  0  0  0  0  0  0  0  0  0
  139.2060   68.9190  223.7790 C   0  0  0  0  0  0  0  0  0  0  0  0
  139.6070   68.8950  225.2230 C   0  0  0  0  0  0  0  0  0  0  0  0
  139.1660   67.8600  226.0630 C   0  0  0  0  0  0  0  0  0  0  0  0
  139.5730   67.8150  227.3990 C   0  0  0  0  0  0  0  0  0  0  0  0
  140.4350   68.7930  227.8990 C   0  0  0  0  0  0  0  0  0  0  0  0
  140.8950   69.8150  227.0650 C   0  0  0  0  0  0  0  0  0  0  0  0
  140.4840   69.8770  225.7240 C   0  0  0  0  0  0  0  0  0  0  0  0
  141.0510   70.9520  224.8260 C   0  0  0  0  0  0  0  0  0  0  0  0
  140.2630   73.3870  222.7010 N   0  0  0  0  0  0  0  0  0  0  0  0
  140.6730   74.3510  221.8370 C   0  0  0  0  0  0  0  0  0  0  0  0
  140.1550   75.6950  221.9320 N   0  0  0  0  0  0  0  0  0  0  0  0
  138.8100   76.0180  221.4340 C   0  0  0  0  0  0  0  0  0  0  0  0
  138.1050   76.9460  222.4170 C   0  0  0  0  0  0  0  0  0  0  0  0
  138.9480   78.1530  222.7030 C   0  0  0  0  0  0  0  0  0  0  0  0
  138.3330   79.3570  223.0850 C   0  0  0  0  0  0  0  0  0  0  0  0
  139.1070   80.4760  223.4060 C   0  0  0  0  0  0  0  0  0  0  0  0
  140.4990   80.3990  223.3590 C   0  0  0  0  0  0  0  0  0  0  0  0
  141.1230   79.2040  222.9920 C   0  0  0  0  0  0  0  0  0  0  0  0
  140.3570   78.0700  222.6680 C   0  0  0  0  0  0  0  0  0  0  0  0
  141.0690   76.7840  222.3180 C   0  0  0  0  0  0  0  0  0  0  0  0
  141.5970   74.0390  220.8890 N   0  0  0  0  0  0  0  0  0  0  0  0
  143.1220   71.1030  219.2380 C   0  0  0  0  0  0  0  0  0  0  0  0
  144.2460   70.9760  218.2150 C   0  0  0  0  0  0  0  0  0  0  0  0
  144.2030   72.0860  217.3470 O   0  0  0  0  0  0  0  0  0  0  0  0
  144.9161   75.1448  216.6994 H   0  0  0  0  0  0  0  0  0  0  0  0
  146.0160   75.3986  215.3021 H   0  0  0  0  0  0  0  0  0  0  0  0
  144.8680   74.0170  215.3021 H   0  0  0  0  0  0  0  0  0  0  0  0
  146.7411   72.8691  215.9877 H   0  0  0  0  0  0  0  0  0  0  0  0
  147.5086   74.3390  216.6917 H   0  0  0  0  0  0  0  0  0  0  0  0
  146.4160   74.1190  218.6040 H   0  0  0  0  0  0  0  0  0  0  0  0
  144.1931   74.1068  217.4532 H   0  0  0  0  0  0  0  0  0  0  0  0
  145.0153   73.2029  220.1481 H   0  0  0  0  0  0  0  0  0  0  0  0
  143.7805   74.4234  219.6167 H   0  0  0  0  0  0  0  0  0  0  0  0
  138.2495   70.8488  223.8286 H   0  0  0  0  0  0  0  0  0  0  0  0
  138.8820   70.3554  222.2126 H   0  0  0  0  0  0  0  0  0  0  0  0
  138.2389   68.4083  223.6613 H   0  0  0  0  0  0  0  0  0  0  0  0
  139.9749   68.4057  223.1830 H   0  0  0  0  0  0  0  0  0  0  0  0
  138.4972   67.0812  225.6677 H   0  0  0  0  0  0  0  0  0  0  0  0
  139.2144   67.0094  228.0566 H   0  0  0  0  0  0  0  0  0  0  0  0
  140.7525   68.7587  228.9516 H   0  0  0  0  0  0  0  0  0  0  0  0
  141.5835   70.5758  227.4614 H   0  0  0  0  0  0  0  0  0  0  0  0
  141.0113   71.9107  225.3640 H   0  0  0  0  0  0  0  0  0  0  0  0
  142.0799   70.6533  224.5767 H   0  0  0  0  0  0  0  0  0  0  0  0
  138.8922   76.5157  220.4565 H   0  0  0  0  0  0  0  0  0  0  0  0
  138.2286   75.0901  221.3294 H   0  0  0  0  0  0  0  0  0  0  0  0
  137.1464   77.2690  221.9849 H   0  0  0  0  0  0  0  0  0  0  0  0
  137.9350   76.4019  223.3578 H   0  0  0  0  0  0  0  0  0  0  0  0
  137.2358   79.4196  223.1318 H   0  0  0  0  0  0  0  0  0  0  0  0
  138.6180   81.4178  223.6958 H   0  0  0  0  0  0  0  0  0  0  0  0
  141.1065   81.2807  223.6113 H   0  0  0  0  0  0  0  0  0  0  0  0
  142.2211   79.1498  222.9563 H   0  0  0  0  0  0  0  0  0  0  0  0
  141.7512   76.9808  221.4778 H   0  0  0  0  0  0  0  0  0  0  0  0
  141.6046   76.4537  223.2202 H   0  0  0  0  0  0  0  0  0  0  0  0
  143.2921   70.3855  220.0542 H   0  0  0  0  0  0  0  0  0  0  0  0
  142.1630   70.8915  218.7423 H   0  0  0  0  0  0  0  0  0  0  0  0
  145.2158   70.9505  218.7336 H   0  0  0  0  0  0  0  0  0  0  0  0
  144.1210   70.0477  217.6383 H   0  0  0  0  0  0  0  0  0  0  0  0
  1  2  1  0
  2  3  1  0
  3  4  1  0
  4  5  1  0
  5  6  1  0
  6  7  1  0
  7  8  2  0
  8  9  1  0
  9 10  1  0
 10 11  1  0
 11 12  1  0
 12 13  1  0
 13 14  2  0
 14 15  1  0
 15 16  2  0
 16 17  1  0
 17 18  2  0
 18 19  1  0
  9 20  2  0
 20 21  1  0
 21 22  1  0
 22 23  1  0
 23 24  1  0
 24 25  1  0
 25 26  2  0
 26 27  1  0
 27 28  2  0
 28 29  1  0
 29 30  2  0
 30 31  1  0
 21 32  2  0
  6 33  1  0
 33 34  1  0
 34 35  1  0
 35  4  1  0
 32  7  1  0
 19 10  1  0
 31 22  1  0
 18 13  1  0
 30 25  1  0
  1 36  1  0
  1 37  1  0
  1 38  1  0
  2 39  1  0
  2 40  1  0
  3 41  1  0
  4 42  1  6
  5 43  1  0
  5 44  1  0
 11 45  1  0
 11 46  1  0
 12 47  1  0
 12 48  1  0
 14 49  1  0
 15 50  1  0
 16 51  1  0
 17 52  1  0
 19 53  1  0
 19 54  1  0
 23 55  1  0
 23 56  1  0
 24 57  1  0
 24 58  1  0
 26 59  1  0
 27 60  1  0
 28 61  1  0
 29 62  1  0
 31 63  1  0
 31 64  1  0
 33 65  1  0
 33 66  1  0
 34 67  1  0
 34 68  1  0
M  END
>  <meeko>  (19) 
{"free_energy": -9.6, "intermolecular_energy": -11.09, "internal_energy": -0.86, "cluster_size": 20, "cluster_id": 1, "rank_in_cluster": 15}

$$$$

     RDKit          3D

 68 73  0  0  0  0  0  0  0  0999 V2000
  146.0310   67.9180  219.2590 C   0  0  0  0  0  0  0  0  0  0  0  0
  145.1380   69.1500  219.1530 C   0  0  0  0  0  0  0  0  0  0  0  0
  145.9260   70.3070  218.7060 N   0  0  0  0  0  0  0  0  0  0  0  0
  145.5080   71.5400  219.3990 C   0  0  2  0  0  0  0  0  0  0  0  0
  144.1040   71.3410  220.0480 C   0  0  0  0  0  0  0  0  0  0  0  0
  143.2490   72.5260  219.8850 N   0  0  0  0  0  0  0  0  0  0  0  0
  142.2280   72.8270  220.8560 C   0  0  0  0  0  0  0  0  0  0  0  0
  141.7920   71.8660  221.7120 N   0  0  0  0  0  0  0  0  0  0  0  0
  140.8290   72.1390  222.6320 C   0  0  0  0  0  0  0  0  0  0  0  0
  140.3760   71.1080  223.5370 N   0  0  0  0  0  0  0  0  0  0  0  0
  139.1240   70.3830  223.2630 C   0  0  0  0  0  0  0  0  0  0  0  0
  139.2340   68.9320  223.7240 C   0  0  0  0  0  0  0  0  0  0  0  0
  139.6270   68.8810  225.1690 C   0  0  0  0  0  0  0  0  0  0  0  0
  139.1700   67.8370  225.9900 C   0  0  0  0  0  0  0  0  0  0  0  0
  139.5690   67.7660  227.3270 C   0  0  0  0  0  0  0  0  0  0  0  0
  140.4380   68.7270  227.8480 C   0  0  0  0  0  0  0  0  0  0  0  0
  140.9140   69.7580  227.0340 C   0  0  0  0  0  0  0  0  0  0  0  0
  140.5110   69.8460  225.6910 C   0  0  0  0  0  0  0  0  0  0  0  0
  141.0940   70.9290  224.8140 C   0  0  0  0  0  0  0  0  0  0  0  0
  140.3050   73.3930  222.6910 N   0  0  0  0  0  0  0  0  0  0  0  0
  140.7300   74.3660  221.8450 C   0  0  0  0  0  0  0  0  0  0  0  0
  140.1840   75.7000  221.9230 N   0  0  0  0  0  0  0  0  0  0  0  0
  138.8430   75.9950  221.3980 C   0  0  0  0  0  0  0  0  0  0  0  0
  138.1010   76.9140  222.3630 C   0  0  0  0  0  0  0  0  0  0  0  0
  138.9160   78.1390  222.6580 C   0  0  0  0  0  0  0  0  0  0  0  0
  138.2700   79.3320  223.0230 C   0  0  0  0  0  0  0  0  0  0  0  0
  139.0170   80.4670  223.3520 C   0  0  0  0  0  0  0  0  0  0  0  0
  140.4100   80.4170  223.3310 C   0  0  0  0  0  0  0  0  0  0  0  0
  141.0640   79.2330  222.9820 C   0  0  0  0  0  0  0  0  0  0  0  0
  140.3260   78.0830  222.6500 C   0  0  0  0  0  0  0  0  0  0  0  0
  141.0690   76.8090  222.3200 C   0  0  0  0  0  0  0  0  0  0  0  0
  141.6940   74.0740  220.9310 N   0  0  0  0  0  0  0  0  0  0  0  0
  143.2830   73.2770  218.6270 C   0  0  0  0  0  0  0  0  0  0  0  0
  144.4190   72.7770  217.7390 C   0  0  0  0  0  0  0  0  0  0  0  0
  145.5880   72.6560  218.5170 O   0  0  0  0  0  0  0  0  0  0  0  0
  146.2034   67.6802  220.3191 H   0  0  0  0  0  0  0  0  0  0  0  0
  145.5396   67.0656  218.7672 H   0  0  0  0  0  0  0  0  0  0  0  0
  146.9940   68.1198  218.7672 H   0  0  0  0  0  0  0  0  0  0  0  0
  144.3339   68.9554  218.4281 H   0  0  0  0  0  0  0  0  0  0  0  0
  144.7062   69.3681  220.1409 H   0  0  0  0  0  0  0  0  0  0  0  0
  145.7330   70.4380  217.6850 H   0  0  0  0  0  0  0  0  0  0  0  0
  146.1978   71.7618  220.2266 H   0  0  0  0  0  0  0  0  0  0  0  0
  143.6118   70.4798  219.5725 H   0  0  0  0  0  0  0  0  0  0  0  0
  144.2485   71.1718  221.1253 H   0  0  0  0  0  0  0  0  0  0  0  0
  138.2978   70.8717  223.8002 H   0  0  0  0  0  0  0  0  0  0  0  0
  138.9340   70.3984  222.1796 H   0  0  0  0  0  0  0  0  0  0  0  0
  138.2621   68.4337  223.5932 H   0  0  0  0  0  0  0  0  0  0  0  0
  140.0001   68.4198  223.1235 H   0  0  0  0  0  0  0  0  0  0  0  0
  138.4951   67.0720  225.5785 H   0  0  0  0  0  0  0  0  0  0  0  0
  139.1987   66.9533  227.9692 H   0  0  0  0  0  0  0  0  0  0  0  0
  140.7485   68.6721  228.9018 H   0  0  0  0  0  0  0  0  0  0  0  0
  141.6081   70.5049  227.4469 H   0  0  0  0  0  0  0  0  0  0  0  0
  141.0611   71.8792  225.3672 H   0  0  0  0  0  0  0  0  0  0  0  0
  142.1212   70.6237  224.5656 H   0  0  0  0  0  0  0  0  0  0  0  0
  138.9345   76.4899  220.4199 H   0  0  0  0  0  0  0  0  0  0  0  0
  138.2817   75.0555  221.2870 H   0  0  0  0  0  0  0  0  0  0  0  0
  137.1447   77.2162  221.9112 H   0  0  0  0  0  0  0  0  0  0  0  0
  137.9231   76.3715  223.3033 H   0  0  0  0  0  0  0  0  0  0  0  0
  137.1711   79.3732  223.0500 H   0  0  0  0  0  0  0  0  0  0  0  0
  138.5049   81.4007  223.6278 H   0  0  0  0  0  0  0  0  0  0  0  0
  140.9953   81.3117  223.5897 H   0  0  0  0  0  0  0  0  0  0  0  0
  142.1634   79.2000  222.9668 H   0  0  0  0  0  0  0  0  0  0  0  0
  141.7627   77.0149  221.4915 H   0  0  0  0  0  0  0  0  0  0  0  0
  141.5936   76.4937  223.2340 H   0  0  0  0  0  0  0  0  0  0  0  0
  142.3264   73.1451  218.1002 H   0  0  0  0  0  0  0  0  0  0  0  0
  143.4476   74.3412  218.8513 H   0  0  0  0  0  0  0  0  0  0  0  0
  144.1534   71.7966  217.3169 H   0  0  0  0  0  0  0  0  0  0  0  0
  144.5903   73.4883  216.9176 H   0  0  0  0  0  0  0  0  0  0  0  0
  1  2  1  0
  2  3  1  0
  3  4  1  0
  4  5  1  0
  5  6  1  0
  6  7  1  0
  7  8  2  0
  8  9  1  0
  9 10  1  0
 10 11  1  0
 11 12  1  0
 12 13  1  0
 13 14  2  0
 14 15  1  0
 15 16  2  0
 16 17  1  0
 17 18  2  0
 18 19  1  0
  9 20  2  0
 20 21  1  0
 21 22  1  0
 22 23  1  0
 23 24  1  0
 24 25  1  0
 25 26  2  0
 26 27  1  0
 27 28  2  0
 28 29  1  0
 29 30  2  0
 30 31  1  0
 21 32  2  0
  6 33  1  0
 33 34  1  0
 34 35  1  0
 35  4  1  0
 32  7  1  0
 19 10  1  0
 31 22  1  0
 18 13  1  0
 30 25  1  0
  1 36  1  0
  1 37  1  0
  1 38  1  0
  2 39  1  0
  2 40  1  0
  3 41  1  0
  4 42  1  1
  5 43  1  0
  5 44  1  0
 11 45  1  0
 11 46  1  0
 12 47  1  0
 12 48  1  0
 14 49  1  0
 15 50  1  0
 16 51  1  0
 17 52  1  0
 19 53  1  0
 19 54  1  0
 23 55  1  0
 23 56  1  0
 24 57  1  0
 24 58  1  0
 26 59  1  0
 27 60  1  0
 28 61  1  0
 29 62  1  0
 31 63  1  0
 31 64  1  0
 33 65  1  0
 33 66  1  0
 34 67  1  0
 34 68  1  0
M  END
>  <meeko>  (20) 
{"free_energy": -9.73, "intermolecular_energy": -11.22, "internal_energy": -0.87, "cluster_size": 20, "cluster_id": 1, "rank_in_cluster": 8}

$$$$
