
     RDKit          3D

 43 46  0  0  0  0  0  0  0  0999 V2000
  139.2170   67.4390  225.5450 O   0  0  0  0  0  0  0  0  0  0  0  0
  139.4700   68.6240  225.1850 C   0  0  0  0  0  0  0  0  0  0  0  0
  140.0160   69.5250  226.1170 C   0  0  0  0  0  0  0  0  0  0  0  0
  140.2750   69.1640  227.4530 C   0  0  0  0  0  0  0  0  0  0  0  0
  140.8060   70.1020  228.3440 C   0  0  0  0  0  0  0  0  0  0  0  0
  141.0900   71.4010  227.9120 C   0  0  0  0  0  0  0  0  0  0  0  0
  140.8450   71.7660  226.5860 C   0  0  0  0  0  0  0  0  0  0  0  0
  140.3090   70.8320  225.6880 C   0  0  0  0  0  0  0  0  0  0  0  0
  140.0660   71.1870  224.4060 N   0  0  0  0  0  0  0  0  0  0  0  0
  139.5230   70.3180  223.5140 C   0  0  0  0  0  0  0  0  0  0  0  0
  139.2850   70.7950  222.1400 C   0  0  0  0  0  0  0  0  0  0  0  0
  138.4680   71.8290  221.9130 C   0  0  0  0  0  0  0  0  0  0  0  0
  138.9430   73.2270  221.9310 C   0  0  0  0  0  0  0  0  0  0  0  0
  138.0100   74.2720  221.9190 C   0  0  0  0  0  0  0  0  0  0  0  0
  138.4450   75.5990  221.9540 C   0  0  0  0  0  0  0  0  0  0  0  0
  139.8140   75.8700  221.9820 C   0  0  0  0  0  0  0  0  0  0  0  0
  140.7100   74.8480  221.9720 N   0  0  0  0  0  0  0  0  0  0  0  0
  140.3120   73.5470  221.9520 C   0  0  0  0  0  0  0  0  0  0  0  0
  139.2180   69.0280  223.8940 N   0  0  0  0  0  0  0  0  0  0  0  0
  138.6530   68.0720  222.9110 C   0  0  0  0  0  0  0  0  0  0  0  0
  137.1480   68.1830  222.8380 C   0  0  0  0  0  0  0  0  0  0  0  0
  136.4190   67.4050  221.9220 C   0  0  0  0  0  0  0  0  0  0  0  0
  135.0320   67.5510  221.8210 C   0  0  0  0  0  0  0  0  0  0  0  0
  134.3610   68.4650  222.6390 C   0  0  0  0  0  0  0  0  0  0  0  0
  135.0780   69.2320  223.5620 C   0  0  0  0  0  0  0  0  0  0  0  0
  136.4630   69.0870  223.6690 C   0  0  0  0  0  0  0  0  0  0  0  0
  140.0591   68.1416  227.7968 H   0  0  0  0  0  0  0  0  0  0  0  0
  141.0009   69.8168  229.3883 H   0  0  0  0  0  0  0  0  0  0  0  0
  141.5065   72.1359  228.6165 H   0  0  0  0  0  0  0  0  0  0  0  0
  141.0728   72.7871  226.2461 H   0  0  0  0  0  0  0  0  0  0  0  0
  139.7830   70.2969  221.2951 H   0  0  0  0  0  0  0  0  0  0  0  0
  137.4059   71.6314  221.7058 H   0  0  0  0  0  0  0  0  0  0  0  0
  136.9338   74.0474  221.8820 H   0  0  0  0  0  0  0  0  0  0  0  0
  137.7157   76.4225  221.9594 H   0  0  0  0  0  0  0  0  0  0  0  0
  140.1678   76.9111  222.0122 H   0  0  0  0  0  0  0  0  0  0  0  0
  141.0632   72.7435  221.9523 H   0  0  0  0  0  0  0  0  0  0  0  0
  139.0764   68.2866  221.9187 H   0  0  0  0  0  0  0  0  0  0  0  0
  138.9102   67.0519  223.2323 H   0  0  0  0  0  0  0  0  0  0  0  0
  136.9416   66.6786  221.2822 H   0  0  0  0  0  0  0  0  0  0  0  0
  134.4677   66.9455  221.0965 H   0  0  0  0  0  0  0  0  0  0  0  0
  133.2702   68.5804  222.5564 H   0  0  0  0  0  0  0  0  0  0  0  0
  134.5502   69.9513  224.2054 H   0  0  0  0  0  0  0  0  0  0  0  0
  137.0205   69.6827  224.4068 H   0  0  0  0  0  0  0  0  0  0  0  0
  1  2  2  0
  2  3  1  0
  3  4  2  0
  4  5  1  0
  5  6  2  0
  6  7  1  0
  7  8  2  0
  8  9  1  0
  9 10  2  0
 10 11  1  0
 11 12  2  0
 12 13  1  0
 13 14  2  0
 14 15  1  0
 15 16  2  0
 16 17  1  0
 17 18  2  0
 10 19  1  0
 19 20  1  0
 20 21  1  0
 21 22  2  0
 22 23  1  0
 23 24  2  0
 24 25  1  0
 25 26  2  0
 19  2  1  0
 26 21  1  0
  8  3  1  0
 18 13  1  0
  4 27  1  0
  5 28  1  0
  6 29  1  0
  7 30  1  0
 11 31  1  0
 12 32  1  0
 14 33  1  0
 15 34  1  0
 16 35  1  0
 18 36  1  0
 20 37  1  0
 20 38  1  0
 22 39  1  0
 23 40  1  0
 24 41  1  0
 25 42  1  0
 26 43  1  0
M  END
>  <meeko>  (1) 
{"free_energy": -7.17, "intermolecular_energy": -8.66, "internal_energy": -1.32, "cluster_size": 17, "cluster_id": 1, "rank_in_cluster": 9}

$$$$

     RDKit          3D

 43 46  0  0  0  0  0  0  0  0999 V2000
  139.2040   67.4520  225.5550 O   0  0  0  0  0  0  0  0  0  0  0  0
  139.4770   68.6280  225.1790 C   0  0  0  0  0  0  0  0  0  0  0  0
  140.0140   69.5400  226.1060 C   0  0  0  0  0  0  0  0  0  0  0  0
  140.2430   69.2000  227.4530 C   0  0  0  0  0  0  0  0  0  0  0  0
  140.7660   70.1480  228.3380 C   0  0  0  0  0  0  0  0  0  0  0  0
  141.0720   71.4370  227.8880 C   0  0  0  0  0  0  0  0  0  0  0  0
  140.8580   71.7800  226.5510 C   0  0  0  0  0  0  0  0  0  0  0  0
  140.3300   70.8360  225.6600 C   0  0  0  0  0  0  0  0  0  0  0  0
  140.1160   71.1700  224.3670 N   0  0  0  0  0  0  0  0  0  0  0  0
  139.5820   70.2910  223.4800 C   0  0  0  0  0  0  0  0  0  0  0  0
  139.3760   70.7460  222.0930 C   0  0  0  0  0  0  0  0  0  0  0  0
  140.3720   71.3220  221.4130 C   0  0  0  0  0  0  0  0  0  0  0  0
  140.6040   72.7800  221.4390 C   0  0  0  0  0  0  0  0  0  0  0  0
  141.7680   73.3030  220.8590 C   0  0  0  0  0  0  0  0  0  0  0  0
  141.9910   74.6810  220.8600 C   0  0  0  0  0  0  0  0  0  0  0  0
  141.0550   75.5260  221.4600 C   0  0  0  0  0  0  0  0  0  0  0  0
  139.9410   75.0050  222.0380 N   0  0  0  0  0  0  0  0  0  0  0  0
  139.6930   73.6680  222.0380 C   0  0  0  0  0  0  0  0  0  0  0  0
  139.2550   69.0110  223.8760 N   0  0  0  0  0  0  0  0  0  0  0  0
  138.6990   68.0430  222.9000 C   0  0  0  0  0  0  0  0  0  0  0  0
  137.1970   68.1670  222.7970 C   0  0  0  0  0  0  0  0  0  0  0  0
  136.4990   69.0690  223.6170 C   0  0  0  0  0  0  0  0  0  0  0  0
  135.1030   69.1410  223.5560 C   0  0  0  0  0  0  0  0  0  0  0  0
  134.3960   68.3240  222.6690 C   0  0  0  0  0  0  0  0  0  0  0  0
  135.0860   67.4350  221.8400 C   0  0  0  0  0  0  0  0  0  0  0  0
  136.4800   67.3620  221.8950 C   0  0  0  0  0  0  0  0  0  0  0  0
  140.0099   68.1860  227.8101 H   0  0  0  0  0  0  0  0  0  0  0  0
  140.9373   69.8796  229.3909 H   0  0  0  0  0  0  0  0  0  0  0  0
  141.4813   72.1807  228.5875 H   0  0  0  0  0  0  0  0  0  0  0  0
  141.1041   72.7920  226.1971 H   0  0  0  0  0  0  0  0  0  0  0  0
  138.3951   70.6104  221.6141 H   0  0  0  0  0  0  0  0  0  0  0  0
  141.0419   70.6882  220.8134 H   0  0  0  0  0  0  0  0  0  0  0  0
  142.5062   72.6271  220.4027 H   0  0  0  0  0  0  0  0  0  0  0  0
  142.8955   75.0974  220.3926 H   0  0  0  0  0  0  0  0  0  0  0  0
  141.2195   76.6136  221.4648 H   0  0  0  0  0  0  0  0  0  0  0  0
  138.7772   73.2800  222.5079 H   0  0  0  0  0  0  0  0  0  0  0  0
  139.1428   68.2356  221.9121 H   0  0  0  0  0  0  0  0  0  0  0  0
  138.9402   67.0264  223.2441 H   0  0  0  0  0  0  0  0  0  0  0  0
  137.0518   69.7209  224.3094 H   0  0  0  0  0  0  0  0  0  0  0  0
  134.5606   69.8420  224.2075 H   0  0  0  0  0  0  0  0  0  0  0  0
  133.2984   68.3806  222.6235 H   0  0  0  0  0  0  0  0  0  0  0  0
  134.5300   66.7913  221.1425 H   0  0  0  0  0  0  0  0  0  0  0  0
  137.0189   66.6715  221.2295 H   0  0  0  0  0  0  0  0  0  0  0  0
  1  2  2  0
  2  3  1  0
  3  4  2  0
  4  5  1  0
  5  6  2  0
  6  7  1  0
  7  8  2  0
  8  9  1  0
  9 10  2  0
 10 11  1  0
 11 12  2  0
 12 13  1  0
 13 14  2  0
 14 15  1  0
 15 16  2  0
 16 17  1  0
 17 18  2  0
 10 19  1  0
 19 20  1  0
 20 21  1  0
 21 22  2  0
 22 23  1  0
 23 24  2  0
 24 25  1  0
 25 26  2  0
 19  2  1  0
 26 21  1  0
  8  3  1  0
 18 13  1  0
  4 27  1  0
  5 28  1  0
  6 29  1  0
  7 30  1  0
 11 31  1  0
 12 32  1  0
 14 33  1  0
 15 34  1  0
 16 35  1  0
 18 36  1  0
 20 37  1  0
 20 38  1  0
 22 39  1  0
 23 40  1  0
 24 41  1  0
 25 42  1  0
 26 43  1  0
M  END
>  <meeko>  (2) 
{"free_energy": -7.36, "intermolecular_energy": -8.85, "internal_energy": -1.21, "cluster_size": 17, "cluster_id": 1, "rank_in_cluster": 1}

$$$$

     RDKit          3D

 43 46  0  0  0  0  0  0  0  0999 V2000
  139.2030   67.7770  225.3850 O   0  0  0  0  0  0  0  0  0  0  0  0
  139.5260   68.9660  225.0980 C   0  0  0  0  0  0  0  0  0  0  0  0
  140.1130   69.7780  226.0850 C   0  0  0  0  0  0  0  0  0  0  0  0
  140.3410   69.3230  227.3980 C   0  0  0  0  0  0  0  0  0  0  0  0
  140.9160   70.1750  228.3470 C   0  0  0  0  0  0  0  0  0  0  0  0
  141.2760   71.4790  227.9940 C   0  0  0  0  0  0  0  0  0  0  0  0
  141.0630   71.9360  226.6910 C   0  0  0  0  0  0  0  0  0  0  0  0
  140.4830   71.0890  225.7360 C   0  0  0  0  0  0  0  0  0  0  0  0
  140.2710   71.5330  224.4770 N   0  0  0  0  0  0  0  0  0  0  0  0
  139.6880   70.7500  223.5320 C   0  0  0  0  0  0  0  0  0  0  0  0
  139.4880   71.3210  222.1880 C   0  0  0  0  0  0  0  0  0  0  0  0
  138.8880   72.5060  222.0370 C   0  0  0  0  0  0  0  0  0  0  0  0
  139.6510   73.7630  221.9000 C   0  0  0  0  0  0  0  0  0  0  0  0
  140.9440   73.7300  221.3590 C   0  0  0  0  0  0  0  0  0  0  0  0
  141.6700   74.9130  221.2070 C   0  0  0  0  0  0  0  0  0  0  0  0
  141.1020   76.1210  221.6180 C   0  0  0  0  0  0  0  0  0  0  0  0
  139.8560   76.1380  222.1610 N   0  0  0  0  0  0  0  0  0  0  0  0
  139.1240   75.0020  222.3070 C   0  0  0  0  0  0  0  0  0  0  0  0
  139.3070   69.4590  223.8320 N   0  0  0  0  0  0  0  0  0  0  0  0
  138.6980   68.5960  222.7910 C   0  0  0  0  0  0  0  0  0  0  0  0
  137.1920   68.5610  222.9180 C   0  0  0  0  0  0  0  0  0  0  0  0
  136.5410   69.3400  223.8900 C   0  0  0  0  0  0  0  0  0  0  0  0
  135.1530   69.2630  224.0390 C   0  0  0  0  0  0  0  0  0  0  0  0
  134.4040   68.4200  223.2130 C   0  0  0  0  0  0  0  0  0  0  0  0
  135.0430   67.6540  222.2350 C   0  0  0  0  0  0  0  0  0  0  0  0
  136.4300   67.7300  222.0800 C   0  0  0  0  0  0  0  0  0  0  0  0
  140.0664   68.2953  227.6781 H   0  0  0  0  0  0  0  0  0  0  0  0
  141.0853   69.8180  229.3736 H   0  0  0  0  0  0  0  0  0  0  0  0
  141.7275   72.1460  228.7431 H   0  0  0  0  0  0  0  0  0  0  0  0
  141.3505   72.9610  226.4142 H   0  0  0  0  0  0  0  0  0  0  0  0
  139.8350   70.7680  221.3027 H   0  0  0  0  0  0  0  0  0  0  0  0
  137.7890   72.5462  222.0140 H   0  0  0  0  0  0  0  0  0  0  0  0
  141.3872   72.7706  221.0538 H   0  0  0  0  0  0  0  0  0  0  0  0
  142.6785   74.8938  220.7682 H   0  0  0  0  0  0  0  0  0  0  0  0
  141.6636   77.0597  221.5021 H   0  0  0  0  0  0  0  0  0  0  0  0
  138.1161   75.0518  222.7449 H   0  0  0  0  0  0  0  0  0  0  0  0
  138.9648   68.9889  221.7988 H   0  0  0  0  0  0  0  0  0  0  0  0
  139.0811   67.5730  222.9206 H   0  0  0  0  0  0  0  0  0  0  0  0
  137.1253   70.0123  224.5354 H   0  0  0  0  0  0  0  0  0  0  0  0
  134.6492   69.8671  224.8079 H   0  0  0  0  0  0  0  0  0  0  0  0
  133.3122   68.3598  223.3330 H   0  0  0  0  0  0  0  0  0  0  0  0
  134.4536   66.9899  221.5858 H   0  0  0  0  0  0  0  0  0  0  0  0
  136.9270   67.1366  221.2985 H   0  0  0  0  0  0  0  0  0  0  0  0
  1  2  2  0
  2  3  1  0
  3  4  2  0
  4  5  1  0
  5  6  2  0
  6  7  1  0
  7  8  2  0
  8  9  1  0
  9 10  2  0
 10 11  1  0
 11 12  2  0
 12 13  1  0
 13 14  2  0
 14 15  1  0
 15 16  2  0
 16 17  1  0
 17 18  2  0
 10 19  1  0
 19 20  1  0
 20 21  1  0
 21 22  2  0
 22 23  1  0
 23 24  2  0
 24 25  1  0
 25 26  2  0
 19  2  1  0
 26 21  1  0
  8  3  1  0
 18 13  1  0
  4 27  1  0
  5 28  1  0
  6 29  1  0
  7 30  1  0
 11 31  1  0
 12 32  1  0
 14 33  1  0
 15 34  1  0
 16 35  1  0
 18 36  1  0
 20 37  1  0
 20 38  1  0
 22 39  1  0
 23 40  1  0
 24 41  1  0
 25 42  1  0
 26 43  1  0
M  END
>  <meeko>  (3) 
{"free_energy": -7.13, "intermolecular_energy": -8.62, "internal_energy": -1.21, "cluster_size": 17, "cluster_id": 1, "rank_in_cluster": 13}

$$$$

     RDKit          3D

 43 46  0  0  0  0  0  0  0  0999 V2000
  139.2020   67.4700  225.4980 O   0  0  0  0  0  0  0  0  0  0  0  0
  139.4820   68.6520  225.1460 C   0  0  0  0  0  0  0  0  0  0  0  0
  140.0130   69.5460  226.0930 C   0  0  0  0  0  0  0  0  0  0  0  0
  140.2290   69.1810  227.4360 C   0  0  0  0  0  0  0  0  0  0  0  0
  140.7470   70.1120  228.3420 C   0  0  0  0  0  0  0  0  0  0  0  0
  141.0610   71.4070  227.9180 C   0  0  0  0  0  0  0  0  0  0  0  0
  140.8600   71.7740  226.5860 C   0  0  0  0  0  0  0  0  0  0  0  0
  140.3370   70.8480  225.6730 C   0  0  0  0  0  0  0  0  0  0  0  0
  140.1360   71.2060  224.3850 N   0  0  0  0  0  0  0  0  0  0  0  0
  139.6070   70.3440  223.4770 C   0  0  0  0  0  0  0  0  0  0  0  0
  139.4150   70.8240  222.0970 C   0  0  0  0  0  0  0  0  0  0  0  0
  140.4220   71.4020  221.4330 C   0  0  0  0  0  0  0  0  0  0  0  0
  140.6390   72.8620  221.4480 C   0  0  0  0  0  0  0  0  0  0  0  0
  141.8050   73.3910  220.8780 C   0  0  0  0  0  0  0  0  0  0  0  0
  142.0150   74.7710  220.8680 C   0  0  0  0  0  0  0  0  0  0  0  0
  141.0630   75.6120  221.4470 C   0  0  0  0  0  0  0  0  0  0  0  0
  139.9460   75.0860  222.0150 N   0  0  0  0  0  0  0  0  0  0  0  0
  139.7110   73.7470  222.0260 C   0  0  0  0  0  0  0  0  0  0  0  0
  139.2730   69.0580  223.8480 N   0  0  0  0  0  0  0  0  0  0  0  0
  138.7240   68.1090  222.8490 C   0  0  0  0  0  0  0  0  0  0  0  0
  137.2140   68.1570  222.8180 C   0  0  0  0  0  0  0  0  0  0  0  0
  136.4920   67.3100  221.9600 C   0  0  0  0  0  0  0  0  0  0  0  0
  135.0970   67.3960  221.8960 C   0  0  0  0  0  0  0  0  0  0  0  0
  134.4130   68.3170  222.6950 C   0  0  0  0  0  0  0  0  0  0  0  0
  135.1240   69.1520  223.5610 C   0  0  0  0  0  0  0  0  0  0  0  0
  136.5170   69.0680  223.6310 C   0  0  0  0  0  0  0  0  0  0  0  0
  139.9898   68.1616  227.7730 H   0  0  0  0  0  0  0  0  0  0  0  0
  140.9079   69.8246  229.3915 H   0  0  0  0  0  0  0  0  0  0  0  0
  141.4665   72.1368  228.6342 H   0  0  0  0  0  0  0  0  0  0  0  0
  141.1125   72.7914  226.2526 H   0  0  0  0  0  0  0  0  0  0  0  0
  138.4361   70.7060  221.6093 H   0  0  0  0  0  0  0  0  0  0  0  0
  141.1116   70.7680  220.8564 H   0  0  0  0  0  0  0  0  0  0  0  0
  142.5556   72.7179  220.4380 H   0  0  0  0  0  0  0  0  0  0  0  0
  142.9216   75.1916  220.4084 H   0  0  0  0  0  0  0  0  0  0  0  0
  141.2171   76.7012  221.4435 H   0  0  0  0  0  0  0  0  0  0  0  0
  138.7930   73.3548  222.4880 H   0  0  0  0  0  0  0  0  0  0  0  0
  139.1114   68.3725  221.8538 H   0  0  0  0  0  0  0  0  0  0  0  0
  139.0333   67.0915  223.1301 H   0  0  0  0  0  0  0  0  0  0  0  0
  137.0253   66.5771  221.3368 H   0  0  0  0  0  0  0  0  0  0  0  0
  134.5372   66.7375  221.2155 H   0  0  0  0  0  0  0  0  0  0  0  0
  133.3163   68.3843  222.6420 H   0  0  0  0  0  0  0  0  0  0  0  0
  134.5858   69.8771  224.1891 H   0  0  0  0  0  0  0  0  0  0  0  0
  137.0706   69.7174  224.3251 H   0  0  0  0  0  0  0  0  0  0  0  0
  1  2  2  0
  2  3  1  0
  3  4  2  0
  4  5  1  0
  5  6  2  0
  6  7  1  0
  7  8  2  0
  8  9  1  0
  9 10  2  0
 10 11  1  0
 11 12  2  0
 12 13  1  0
 13 14  2  0
 14 15  1  0
 15 16  2  0
 16 17  1  0
 17 18  2  0
 10 19  1  0
 19 20  1  0
 20 21  1  0
 21 22  2  0
 22 23  1  0
 23 24  2  0
 24 25  1  0
 25 26  2  0
 19  2  1  0
 26 21  1  0
  8  3  1  0
 18 13  1  0
  4 27  1  0
  5 28  1  0
  6 29  1  0
  7 30  1  0
 11 31  1  0
 12 32  1  0
 14 33  1  0
 15 34  1  0
 16 35  1  0
 18 36  1  0
 20 37  1  0
 20 38  1  0
 22 39  1  0
 23 40  1  0
 24 41  1  0
 25 42  1  0
 26 43  1  0
M  END
>  <meeko>  (4) 
{"free_energy": -7.35, "intermolecular_energy": -8.84, "internal_energy": -1.19, "cluster_size": 17, "cluster_id": 1, "rank_in_cluster": 3}

$$$$

     RDKit          3D

 43 46  0  0  0  0  0  0  0  0999 V2000
  139.1910   67.5030  225.5800 O   0  0  0  0  0  0  0  0  0  0  0  0
  139.4660   68.6750  225.1930 C   0  0  0  0  0  0  0  0  0  0  0  0
  140.0040   69.5950  226.1110 C   0  0  0  0  0  0  0  0  0  0  0  0
  140.2330   69.2670  227.4610 C   0  0  0  0  0  0  0  0  0  0  0  0
  140.7580   70.2230  228.3370 C   0  0  0  0  0  0  0  0  0  0  0  0
  141.0660   71.5070  227.8750 C   0  0  0  0  0  0  0  0  0  0  0  0
  140.8510   71.8380  226.5350 C   0  0  0  0  0  0  0  0  0  0  0  0
  140.3220   70.8860  225.6520 C   0  0  0  0  0  0  0  0  0  0  0  0
  140.1080   71.2080  224.3570 N   0  0  0  0  0  0  0  0  0  0  0  0
  139.5720   70.3210  223.4780 C   0  0  0  0  0  0  0  0  0  0  0  0
  139.3660   70.7640  222.0870 C   0  0  0  0  0  0  0  0  0  0  0  0
  138.5400   71.7780  221.8130 C   0  0  0  0  0  0  0  0  0  0  0  0
  138.9740   73.1880  221.8820 C   0  0  0  0  0  0  0  0  0  0  0  0
  138.0100   74.2040  221.9300 C   0  0  0  0  0  0  0  0  0  0  0  0
  138.4050   75.5410  222.0140 C   0  0  0  0  0  0  0  0  0  0  0  0
  139.7660   75.8510  222.0290 C   0  0  0  0  0  0  0  0  0  0  0  0
  140.6920   74.8580  221.9610 N   0  0  0  0  0  0  0  0  0  0  0  0
  140.3330   73.5490  221.8930 C   0  0  0  0  0  0  0  0  0  0  0  0
  139.2430   69.0460  223.8870 N   0  0  0  0  0  0  0  0  0  0  0  0
  138.6860   68.0690  222.9190 C   0  0  0  0  0  0  0  0  0  0  0  0
  137.1830   68.1860  222.8250 C   0  0  0  0  0  0  0  0  0  0  0  0
  136.4840   69.0810  223.6530 C   0  0  0  0  0  0  0  0  0  0  0  0
  135.0880   69.1460  223.6000 C   0  0  0  0  0  0  0  0  0  0  0  0
  134.3810   68.3290  222.7130 C   0  0  0  0  0  0  0  0  0  0  0  0
  135.0700   67.4470  221.8770 C   0  0  0  0  0  0  0  0  0  0  0  0
  136.4650   67.3800  221.9240 C   0  0  0  0  0  0  0  0  0  0  0  0
  139.9986   68.2568  227.8277 H   0  0  0  0  0  0  0  0  0  0  0  0
  140.9292   69.9643  229.3924 H   0  0  0  0  0  0  0  0  0  0  0  0
  141.4776   72.2563  228.5672 H   0  0  0  0  0  0  0  0  0  0  0  0
  141.0970   72.8468  226.1721 H   0  0  0  0  0  0  0  0  0  0  0  0
  139.8964   70.2558  221.2683 H   0  0  0  0  0  0  0  0  0  0  0  0
  137.5017   71.5550  221.5264 H   0  0  0  0  0  0  0  0  0  0  0  0
  136.9406   73.9481  221.9014 H   0  0  0  0  0  0  0  0  0  0  0  0
  137.6519   76.3410  222.0678 H   0  0  0  0  0  0  0  0  0  0  0  0
  140.0897   76.9002  222.0959 H   0  0  0  0  0  0  0  0  0  0  0  0
  141.1078   72.7696  221.8464 H   0  0  0  0  0  0  0  0  0  0  0  0
  139.1229   68.2581  221.9274 H   0  0  0  0  0  0  0  0  0  0  0  0
  138.9344   67.0554  223.2667 H   0  0  0  0  0  0  0  0  0  0  0  0
  137.0370   69.7328  224.3453 H   0  0  0  0  0  0  0  0  0  0  0  0
  134.5454   69.8412  224.2574 H   0  0  0  0  0  0  0  0  0  0  0  0
  133.2829   68.3806  222.6733 H   0  0  0  0  0  0  0  0  0  0  0  0
  134.5130   66.8036  221.1800 H   0  0  0  0  0  0  0  0  0  0  0  0
  137.0035   66.6941  221.2535 H   0  0  0  0  0  0  0  0  0  0  0  0
  1  2  2  0
  2  3  1  0
  3  4  2  0
  4  5  1  0
  5  6  2  0
  6  7  1  0
  7  8  2  0
  8  9  1  0
  9 10  2  0
 10 11  1  0
 11 12  2  0
 12 13  1  0
 13 14  2  0
 14 15  1  0
 15 16  2  0
 16 17  1  0
 17 18  2  0
 10 19  1  0
 19 20  1  0
 20 21  1  0
 21 22  2  0
 22 23  1  0
 23 24  2  0
 24 25  1  0
 25 26  2  0
 19  2  1  0
 26 21  1  0
  8  3  1  0
 18 13  1  0
  4 27  1  0
  5 28  1  0
  6 29  1  0
  7 30  1  0
 11 31  1  0
 12 32  1  0
 14 33  1  0
 15 34  1  0
 16 35  1  0
 18 36  1  0
 20 37  1  0
 20 38  1  0
 22 39  1  0
 23 40  1  0
 24 41  1  0
 25 42  1  0
 26 43  1  0
M  END
>  <meeko>  (5) 
{"free_energy": -7.17, "intermolecular_energy": -8.66, "internal_energy": -1.33, "cluster_size": 17, "cluster_id": 1, "rank_in_cluster": 10}

$$$$

     RDKit          3D

 43 46  0  0  0  0  0  0  0  0999 V2000
  143.3220   77.1390  219.4370 O   0  0  0  0  0  0  0  0  0  0  0  0
  142.4770   76.4090  220.0300 C   0  0  0  0  0  0  0  0  0  0  0  0
  142.7910   75.0620  220.2870 C   0  0  0  0  0  0  0  0  0  0  0  0
  144.0110   74.4820  219.8880 C   0  0  0  0  0  0  0  0  0  0  0  0
  144.2690   73.1340  220.1560 C   0  0  0  0  0  0  0  0  0  0  0  0
  143.3200   72.3560  220.8280 C   0  0  0  0  0  0  0  0  0  0  0  0
  142.1110   72.9250  221.2350 C   0  0  0  0  0  0  0  0  0  0  0  0
  141.8450   74.2750  220.9670 C   0  0  0  0  0  0  0  0  0  0  0  0
  140.6720   74.8240  221.3560 N   0  0  0  0  0  0  0  0  0  0  0  0
  140.3670   76.1210  221.0910 C   0  0  0  0  0  0  0  0  0  0  0  0
  139.0610   76.6320  221.5460 C   0  0  0  0  0  0  0  0  0  0  0  0
  138.9530   77.2740  222.7130 C   0  0  0  0  0  0  0  0  0  0  0  0
  138.6310   78.7130  222.7930 C   0  0  0  0  0  0  0  0  0  0  0  0
  139.1110   79.4680  223.8720 C   0  0  0  0  0  0  0  0  0  0  0  0
  138.8300   80.8330  223.9510 C   0  0  0  0  0  0  0  0  0  0  0  0
  138.0520   81.4300  222.9580 C   0  0  0  0  0  0  0  0  0  0  0  0
  137.5740   80.6830  221.9270 N   0  0  0  0  0  0  0  0  0  0  0  0
  137.8450   79.3550  221.8200 C   0  0  0  0  0  0  0  0  0  0  0  0
  141.2650   76.9280  220.4240 N   0  0  0  0  0  0  0  0  0  0  0  0
  140.9430   78.3510  220.1620 C   0  0  0  0  0  0  0  0  0  0  0  0
  141.4700   79.2460  221.2590 C   0  0  0  0  0  0  0  0  0  0  0  0
  142.0330   78.6910  222.4210 C   0  0  0  0  0  0  0  0  0  0  0  0
  142.4700   79.5230  223.4580 C   0  0  0  0  0  0  0  0  0  0  0  0
  142.3610   80.9110  223.3370 C   0  0  0  0  0  0  0  0  0  0  0  0
  141.8160   81.4690  222.1770 C   0  0  0  0  0  0  0  0  0  0  0  0
  141.3810   80.6430  221.1380 C   0  0  0  0  0  0  0  0  0  0  0  0
  144.7627   75.0909  219.3643 H   0  0  0  0  0  0  0  0  0  0  0  0
  145.2209   72.6840  219.8375 H   0  0  0  0  0  0  0  0  0  0  0  0
  143.5261   71.2957  221.0359 H   0  0  0  0  0  0  0  0  0  0  0  0
  141.3670   72.3132  221.7663 H   0  0  0  0  0  0  0  0  0  0  0  0
  138.1687   76.4836  220.9201 H   0  0  0  0  0  0  0  0  0  0  0  0
  139.1092   76.7117  223.6454 H   0  0  0  0  0  0  0  0  0  0  0  0
  139.7099   78.9842  224.6576 H   0  0  0  0  0  0  0  0  0  0  0  0
  139.2180   81.4323  224.7878 H   0  0  0  0  0  0  0  0  0  0  0  0
  137.8253   82.5052  223.0093 H   0  0  0  0  0  0  0  0  0  0  0  0
  137.4481   78.7811  220.9696 H   0  0  0  0  0  0  0  0  0  0  0  0
  141.3975   78.6507  219.2062 H   0  0  0  0  0  0  0  0  0  0  0  0
  139.8488   78.4572  220.1240 H   0  0  0  0  0  0  0  0  0  0  0  0
  142.1305   77.5994  222.5157 H   0  0  0  0  0  0  0  0  0  0  0  0
  142.9001   79.0836  224.3701 H   0  0  0  0  0  0  0  0  0  0  0  0
  142.7036   81.5636  224.1536 H   0  0  0  0  0  0  0  0  0  0  0  0
  141.7295   82.5615  222.0822 H   0  0  0  0  0  0  0  0  0  0  0  0
  140.9670   81.0881  220.2212 H   0  0  0  0  0  0  0  0  0  0  0  0
  1  2  2  0
  2  3  1  0
  3  4  2  0
  4  5  1  0
  5  6  2  0
  6  7  1  0
  7  8  2  0
  8  9  1  0
  9 10  2  0
 10 11  1  0
 11 12  2  0
 12 13  1  0
 13 14  2  0
 14 15  1  0
 15 16  2  0
 16 17  1  0
 17 18  2  0
 10 19  1  0
 19 20  1  0
 20 21  1  0
 21 22  2  0
 22 23  1  0
 23 24  2  0
 24 25  1  0
 25 26  2  0
 19  2  1  0
 26 21  1  0
  8  3  1  0
 18 13  1  0
  4 27  1  0
  5 28  1  0
  6 29  1  0
  7 30  1  0
 11 31  1  0
 12 32  1  0
 14 33  1  0
 15 34  1  0
 16 35  1  0
 18 36  1  0
 20 37  1  0
 20 38  1  0
 22 39  1  0
 23 40  1  0
 24 41  1  0
 25 42  1  0
 26 43  1  0
M  END
>  <meeko>  (6) 
{"free_energy": -6.31, "intermolecular_energy": -7.81, "internal_energy": -1.92, "cluster_size": 2, "cluster_id": 3, "rank_in_cluster": 1}

$$$$

     RDKit          3D

 43 46  0  0  0  0  0  0  0  0999 V2000
  139.1720   67.7580  225.3560 O   0  0  0  0  0  0  0  0  0  0  0  0
  139.5500   68.9240  225.0470 C   0  0  0  0  0  0  0  0  0  0  0  0
  140.0780   69.7640  226.0440 C   0  0  0  0  0  0  0  0  0  0  0  0
  140.1850   69.3630  227.3890 C   0  0  0  0  0  0  0  0  0  0  0  0
  140.7050   70.2420  228.3450 C   0  0  0  0  0  0  0  0  0  0  0  0
  141.1290   71.5210  227.9680 C   0  0  0  0  0  0  0  0  0  0  0  0
  141.0350   71.9230  226.6340 C   0  0  0  0  0  0  0  0  0  0  0  0
  140.5120   71.0490  225.6710 C   0  0  0  0  0  0  0  0  0  0  0  0
  140.4160   71.4420  224.3810 N   0  0  0  0  0  0  0  0  0  0  0  0
  139.8900   70.6320  223.4250 C   0  0  0  0  0  0  0  0  0  0  0  0
  139.8160   71.1470  222.0460 C   0  0  0  0  0  0  0  0  0  0  0  0
  139.1530   72.2770  221.7780 C   0  0  0  0  0  0  0  0  0  0  0  0
  139.8120   73.5980  221.7870 C   0  0  0  0  0  0  0  0  0  0  0  0
  141.0950   73.7330  221.2390 C   0  0  0  0  0  0  0  0  0  0  0  0
  141.7220   74.9800  221.2240 C   0  0  0  0  0  0  0  0  0  0  0  0
  141.0670   76.0820  221.7760 C   0  0  0  0  0  0  0  0  0  0  0  0
  139.8320   75.9350  222.3240 N   0  0  0  0  0  0  0  0  0  0  0  0
  139.1930   74.7340  222.3390 C   0  0  0  0  0  0  0  0  0  0  0  0
  139.4500   69.3650  223.7470 N   0  0  0  0  0  0  0  0  0  0  0  0
  138.9030   68.4720  222.6970 C   0  0  0  0  0  0  0  0  0  0  0  0
  137.3980   68.3710  222.7900 C   0  0  0  0  0  0  0  0  0  0  0  0
  136.6980   67.4360  222.0090 C   0  0  0  0  0  0  0  0  0  0  0  0
  135.3010   67.3830  222.0580 C   0  0  0  0  0  0  0  0  0  0  0  0
  134.5950   68.2520  222.8960 C   0  0  0  0  0  0  0  0  0  0  0  0
  135.2870   69.1740  223.6860 C   0  0  0  0  0  0  0  0  0  0  0  0
  136.6820   69.2290  223.6420 C   0  0  0  0  0  0  0  0  0  0  0  0
  139.8590   68.3562  227.6891 H   0  0  0  0  0  0  0  0  0  0  0  0
  140.7808   69.9268  229.3961 H   0  0  0  0  0  0  0  0  0  0  0  0
  141.5364   72.2100  228.7226 H   0  0  0  0  0  0  0  0  0  0  0  0
  141.3721   72.9275  226.3383 H   0  0  0  0  0  0  0  0  0  0  0  0
  140.3099   70.5976  221.2310 H   0  0  0  0  0  0  0  0  0  0  0  0
  138.0799   72.2203  221.5428 H   0  0  0  0  0  0  0  0  0  0  0  0
  141.6085   72.8550  220.8202 H   0  0  0  0  0  0  0  0  0  0  0  0
  142.7227   75.0931  220.7814 H   0  0  0  0  0  0  0  0  0  0  0  0
  141.5506   77.0700  221.7675 H   0  0  0  0  0  0  0  0  0  0  0  0
  138.1903   74.6512  222.7837 H   0  0  0  0  0  0  0  0  0  0  0  0
  139.1747   68.8724  221.7091 H   0  0  0  0  0  0  0  0  0  0  0  0
  139.3275   67.4674  222.8405 H   0  0  0  0  0  0  0  0  0  0  0  0
  137.2503   66.7434  221.3569 H   0  0  0  0  0  0  0  0  0  0  0  0
  134.7569   66.6567  221.4364 H   0  0  0  0  0  0  0  0  0  0  0  0
  133.4964   68.2098  222.9333 H   0  0  0  0  0  0  0  0  0  0  0  0
  134.7316   69.8583  224.3443 H   0  0  0  0  0  0  0  0  0  0  0  0
  137.2223   69.9468  224.2768 H   0  0  0  0  0  0  0  0  0  0  0  0
  1  2  2  0
  2  3  1  0
  3  4  2  0
  4  5  1  0
  5  6  2  0
  6  7  1  0
  7  8  2  0
  8  9  1  0
  9 10  2  0
 10 11  1  0
 11 12  2  0
 12 13  1  0
 13 14  2  0
 14 15  1  0
 15 16  2  0
 16 17  1  0
 17 18  2  0
 10 19  1  0
 19 20  1  0
 20 21  1  0
 21 22  2  0
 22 23  1  0
 23 24  2  0
 24 25  1  0
 25 26  2  0
 19  2  1  0
 26 21  1  0
  8  3  1  0
 18 13  1  0
  4 27  1  0
  5 28  1  0
  6 29  1  0
  7 30  1  0
 11 31  1  0
 12 32  1  0
 14 33  1  0
 15 34  1  0
 16 35  1  0
 18 36  1  0
 20 37  1  0
 20 38  1  0
 22 39  1  0
 23 40  1  0
 24 41  1  0
 25 42  1  0
 26 43  1  0
M  END
>  <meeko>  (7) 
{"free_energy": -7.09, "intermolecular_energy": -8.58, "internal_energy": -1.22, "cluster_size": 17, "cluster_id": 1, "rank_in_cluster": 14}

$$$$

     RDKit          3D

 43 46  0  0  0  0  0  0  0  0999 V2000
  139.2000   67.4020  225.3380 O   0  0  0  0  0  0  0  0  0  0  0  0
  139.4640   68.6070  225.0630 C   0  0  0  0  0  0  0  0  0  0  0  0
  139.9920   69.4420  226.0650 C   0  0  0  0  0  0  0  0  0  0  0  0
  140.2210   68.9900  227.3790 C   0  0  0  0  0  0  0  0  0  0  0  0
  140.7360   69.8650  228.3430 C   0  0  0  0  0  0  0  0  0  0  0  0
  141.0320   71.1890  228.0040 C   0  0  0  0  0  0  0  0  0  0  0  0
  140.8170   71.6420  226.7000 C   0  0  0  0  0  0  0  0  0  0  0  0
  140.2990   70.7720  225.7310 C   0  0  0  0  0  0  0  0  0  0  0  0
  140.0840   71.2130  224.4710 N   0  0  0  0  0  0  0  0  0  0  0  0
  139.5590   70.4080  223.5110 C   0  0  0  0  0  0  0  0  0  0  0  0
  139.3520   70.9770  222.1670 C   0  0  0  0  0  0  0  0  0  0  0  0
  138.5830   72.0580  221.9990 C   0  0  0  0  0  0  0  0  0  0  0  0
  139.1400   73.4250  221.9710 C   0  0  0  0  0  0  0  0  0  0  0  0
  138.2710   74.5240  221.9680 C   0  0  0  0  0  0  0  0  0  0  0  0
  138.7840   75.8220  221.9600 C   0  0  0  0  0  0  0  0  0  0  0  0
  140.1670   76.0110  221.9350 C   0  0  0  0  0  0  0  0  0  0  0  0
  141.0000   74.9370  221.9160 N   0  0  0  0  0  0  0  0  0  0  0  0
  140.5260   73.6630  221.9380 C   0  0  0  0  0  0  0  0  0  0  0  0
  139.2410   69.0970  223.7970 N   0  0  0  0  0  0  0  0  0  0  0  0
  138.6950   68.2110  222.7410 C   0  0  0  0  0  0  0  0  0  0  0  0
  137.1850   68.1680  222.7850 C   0  0  0  0  0  0  0  0  0  0  0  0
  136.4730   67.2860  221.9550 C   0  0  0  0  0  0  0  0  0  0  0  0
  135.0740   67.2880  221.9610 C   0  0  0  0  0  0  0  0  0  0  0  0
  134.3780   68.1600  222.8030 C   0  0  0  0  0  0  0  0  0  0  0  0
  135.0800   69.0300  223.6420 C   0  0  0  0  0  0  0  0  0  0  0  0
  136.4770   69.0290  223.6420 C   0  0  0  0  0  0  0  0  0  0  0  0
  139.9948   67.9477  227.6484 H   0  0  0  0  0  0  0  0  0  0  0  0
  140.9082   69.5100  229.3698 H   0  0  0  0  0  0  0  0  0  0  0  0
  141.4344   71.8743  228.7646 H   0  0  0  0  0  0  0  0  0  0  0  0
  141.0545   72.6825  226.4336 H   0  0  0  0  0  0  0  0  0  0  0  0
  139.8337   70.5089  221.2959 H   0  0  0  0  0  0  0  0  0  0  0  0
  137.4980   71.9241  221.8775 H   0  0  0  0  0  0  0  0  0  0  0  0
  137.1828   74.3636  221.9720 H   0  0  0  0  0  0  0  0  0  0  0  0
  138.1053   76.6875  221.9733 H   0  0  0  0  0  0  0  0  0  0  0  0
  140.5828   77.0294  221.9307 H   0  0  0  0  0  0  0  0  0  0  0  0
  141.2280   72.8162  221.9300 H   0  0  0  0  0  0  0  0  0  0  0  0
  139.0140   68.5871  221.7578 H   0  0  0  0  0  0  0  0  0  0  0  0
  139.0759   67.1932  222.9114 H   0  0  0  0  0  0  0  0  0  0  0  0
  137.0174   66.5915  221.2982 H   0  0  0  0  0  0  0  0  0  0  0  0
  134.5210   66.6024  221.3022 H   0  0  0  0  0  0  0  0  0  0  0  0
  133.2780   68.1616  222.8053 H   0  0  0  0  0  0  0  0  0  0  0  0
  134.5315   69.7167  224.3035 H   0  0  0  0  0  0  0  0  0  0  0  0
  137.0253   69.7045  224.3151 H   0  0  0  0  0  0  0  0  0  0  0  0
  1  2  2  0
  2  3  1  0
  3  4  2  0
  4  5  1  0
  5  6  2  0
  6  7  1  0
  7  8  2  0
  8  9  1  0
  9 10  2  0
 10 11  1  0
 11 12  2  0
 12 13  1  0
 13 14  2  0
 14 15  1  0
 15 16  2  0
 16 17  1  0
 17 18  2  0
 10 19  1  0
 19 20  1  0
 20 21  1  0
 21 22  2  0
 22 23  1  0
 23 24  2  0
 24 25  1  0
 25 26  2  0
 19  2  1  0
 26 21  1  0
  8  3  1  0
 18 13  1  0
  4 27  1  0
  5 28  1  0
  6 29  1  0
  7 30  1  0
 11 31  1  0
 12 32  1  0
 14 33  1  0
 15 34  1  0
 16 35  1  0
 18 36  1  0
 20 37  1  0
 20 38  1  0
 22 39  1  0
 23 40  1  0
 24 41  1  0
 25 42  1  0
 26 43  1  0
M  END
>  <meeko>  (8) 
{"free_energy": -7.18, "intermolecular_energy": -8.67, "internal_energy": -1.25, "cluster_size": 17, "cluster_id": 1, "rank_in_cluster": 8}

$$$$

     RDKit          3D

 43 46  0  0  0  0  0  0  0  0999 V2000
  139.1590   67.5040  225.7050 O   0  0  0  0  0  0  0  0  0  0  0  0
  139.4400   68.6560  225.2670 C   0  0  0  0  0  0  0  0  0  0  0  0
  139.9910   69.6100  226.1410 C   0  0  0  0  0  0  0  0  0  0  0  0
  140.2270   69.3380  227.5030 C   0  0  0  0  0  0  0  0  0  0  0  0
  140.7660   70.3250  228.3340 C   0  0  0  0  0  0  0  0  0  0  0  0
  141.0800   71.5860  227.8150 C   0  0  0  0  0  0  0  0  0  0  0  0
  140.8580   71.8620  226.4640 C   0  0  0  0  0  0  0  0  0  0  0  0
  140.3150   70.8780  225.6260 C   0  0  0  0  0  0  0  0  0  0  0  0
  140.0940   71.1470  224.3200 N   0  0  0  0  0  0  0  0  0  0  0  0
  139.5460   70.2280  223.4830 C   0  0  0  0  0  0  0  0  0  0  0  0
  139.3330   70.6130  222.0760 C   0  0  0  0  0  0  0  0  0  0  0  0
  140.3190   71.1770  221.3710 C   0  0  0  0  0  0  0  0  0  0  0  0
  140.5790   72.6300  221.4050 C   0  0  0  0  0  0  0  0  0  0  0  0
  141.7650   73.1310  220.8490 C   0  0  0  0  0  0  0  0  0  0  0  0
  142.0160   74.5050  220.8580 C   0  0  0  0  0  0  0  0  0  0  0  0
  141.0850   75.3660  221.4410 C   0  0  0  0  0  0  0  0  0  0  0  0
  139.9500   74.8670  221.9960 N   0  0  0  0  0  0  0  0  0  0  0  0
  139.6750   73.5350  221.9880 C   0  0  0  0  0  0  0  0  0  0  0  0
  139.2110   68.9730  223.9470 N   0  0  0  0  0  0  0  0  0  0  0  0
  138.6390   67.9610  223.0260 C   0  0  0  0  0  0  0  0  0  0  0  0
  137.1520   68.1600  222.8460 C   0  0  0  0  0  0  0  0  0  0  0  0
  136.4660   67.4980  221.8130 C   0  0  0  0  0  0  0  0  0  0  0  0
  135.1000   67.7260  221.6170 C   0  0  0  0  0  0  0  0  0  0  0  0
  134.4080   68.6060  222.4560 C   0  0  0  0  0  0  0  0  0  0  0  0
  135.0820   69.2560  223.4930 C   0  0  0  0  0  0  0  0  0  0  0  0
  136.4450   69.0280  223.6950 C   0  0  0  0  0  0  0  0  0  0  0  0
  139.9866   68.3464  227.9139 H   0  0  0  0  0  0  0  0  0  0  0  0
  140.9436   70.1097  229.3980 H   0  0  0  0  0  0  0  0  0  0  0  0
  141.5022   72.3608  228.4718 H   0  0  0  0  0  0  0  0  0  0  0  0
  141.1095   72.8525  226.0571 H   0  0  0  0  0  0  0  0  0  0  0  0
  138.3560   70.4350  221.6029 H   0  0  0  0  0  0  0  0  0  0  0  0
  140.9580   70.5371  220.7447 H   0  0  0  0  0  0  0  0  0  0  0  0
  142.4982   72.4413  220.4054 H   0  0  0  0  0  0  0  0  0  0  0  0
  142.9380   74.9044  220.4102 H   0  0  0  0  0  0  0  0  0  0  0  0
  141.2706   76.4502  221.4511 H   0  0  0  0  0  0  0  0  0  0  0  0
  138.7425   73.1648  222.4391 H   0  0  0  0  0  0  0  0  0  0  0  0
  139.1331   68.0477  222.0471 H   0  0  0  0  0  0  0  0  0  0  0  0
  138.8057   66.9638  223.4594 H   0  0  0  0  0  0  0  0  0  0  0  0
  137.0050   66.7987  221.1569 H   0  0  0  0  0  0  0  0  0  0  0  0
  134.5690   67.2126  220.8019 H   0  0  0  0  0  0  0  0  0  0  0  0
  133.3342   68.7860  222.2994 H   0  0  0  0  0  0  0  0  0  0  0  0
  134.5379   69.9488  224.1518 H   0  0  0  0  0  0  0  0  0  0  0  0
  136.9674   69.5303  224.5226 H   0  0  0  0  0  0  0  0  0  0  0  0
  1  2  2  0
  2  3  1  0
  3  4  2  0
  4  5  1  0
  5  6  2  0
  6  7  1  0
  7  8  2  0
  8  9  1  0
  9 10  2  0
 10 11  1  0
 11 12  2  0
 12 13  1  0
 13 14  2  0
 14 15  1  0
 15 16  2  0
 16 17  1  0
 17 18  2  0
 10 19  1  0
 19 20  1  0
 20 21  1  0
 21 22  2  0
 22 23  1  0
 23 24  2  0
 24 25  1  0
 25 26  2  0
 19  2  1  0
 26 21  1  0
  8  3  1  0
 18 13  1  0
  4 27  1  0
  5 28  1  0
  6 29  1  0
  7 30  1  0
 11 31  1  0
 12 32  1  0
 14 33  1  0
 15 34  1  0
 16 35  1  0
 18 36  1  0
 20 37  1  0
 20 38  1  0
 22 39  1  0
 23 40  1  0
 24 41  1  0
 25 42  1  0
 26 43  1  0
M  END
>  <meeko>  (9) 
{"free_energy": -7.3, "intermolecular_energy": -8.79, "internal_energy": -1.24, "cluster_size": 17, "cluster_id": 1, "rank_in_cluster": 5}

$$$$

     RDKit          3D

 43 46  0  0  0  0  0  0  0  0999 V2000
  139.1950   67.7670  225.2800 O   0  0  0  0  0  0  0  0  0  0  0  0
  139.5300   68.9590  225.0240 C   0  0  0  0  0  0  0  0  0  0  0  0
  140.0880   69.7510  226.0450 C   0  0  0  0  0  0  0  0  0  0  0  0
  140.2710   69.2720  227.3560 C   0  0  0  0  0  0  0  0  0  0  0  0
  140.8190   70.1050  228.3370 C   0  0  0  0  0  0  0  0  0  0  0  0
  141.1940   71.4140  228.0200 C   0  0  0  0  0  0  0  0  0  0  0  0
  141.0240   71.8940  226.7190 C   0  0  0  0  0  0  0  0  0  0  0  0
  140.4730   71.0670  225.7310 C   0  0  0  0  0  0  0  0  0  0  0  0
  140.3030   71.5340  224.4740 N   0  0  0  0  0  0  0  0  0  0  0  0
  139.7480   70.7710  223.4970 C   0  0  0  0  0  0  0  0  0  0  0  0
  139.5930   71.3660  222.1570 C   0  0  0  0  0  0  0  0  0  0  0  0
  138.9630   72.5360  222.0040 C   0  0  0  0  0  0  0  0  0  0  0  0
  139.6930   73.8120  221.8680 C   0  0  0  0  0  0  0  0  0  0  0  0
  140.9810   73.8140  221.3150 C   0  0  0  0  0  0  0  0  0  0  0  0
  141.6760   75.0160  221.1630 C   0  0  0  0  0  0  0  0  0  0  0  0
  141.0820   76.2060  221.5850 C   0  0  0  0  0  0  0  0  0  0  0  0
  139.8410   76.1890  222.1400 N   0  0  0  0  0  0  0  0  0  0  0  0
  139.1380   75.0350  222.2850 C   0  0  0  0  0  0  0  0  0  0  0  0
  139.3540   69.4760  223.7610 N   0  0  0  0  0  0  0  0  0  0  0  0
  138.7750   68.6340  222.6860 C   0  0  0  0  0  0  0  0  0  0  0  0
  137.2760   68.5150  222.8280 C   0  0  0  0  0  0  0  0  0  0  0  0
  136.5470   67.6540  221.9890 C   0  0  0  0  0  0  0  0  0  0  0  0
  135.1530   67.5880  222.0880 C   0  0  0  0  0  0  0  0  0  0  0  0
  134.4790   68.3680  223.0320 C   0  0  0  0  0  0  0  0  0  0  0  0
  135.1990   69.2150  223.8790 C   0  0  0  0  0  0  0  0  0  0  0  0
  136.5910   69.2830  223.7860 C   0  0  0  0  0  0  0  0  0  0  0  0
  139.9826   68.2411  227.6093 H   0  0  0  0  0  0  0  0  0  0  0  0
  140.9554   69.7288  229.3616 H   0  0  0  0  0  0  0  0  0  0  0  0
  141.6230   72.0661  228.7951 H   0  0  0  0  0  0  0  0  0  0  0  0
  141.3232   72.9228  226.4698 H   0  0  0  0  0  0  0  0  0  0  0  0
  139.9981   70.8444  221.2773 H   0  0  0  0  0  0  0  0  0  0  0  0
  137.8634   72.5478  221.9786 H   0  0  0  0  0  0  0  0  0  0  0  0
  141.4451   72.8676  221.0003 H   0  0  0  0  0  0  0  0  0  0  0  0
  142.6808   75.0244  220.7154 H   0  0  0  0  0  0  0  0  0  0  0  0
  141.6186   77.1592  221.4685 H   0  0  0  0  0  0  0  0  0  0  0  0
  138.1322   75.0576  222.7297 H   0  0  0  0  0  0  0  0  0  0  0  0
  139.0075   69.0877  221.7113 H   0  0  0  0  0  0  0  0  0  0  0  0
  139.2114   67.6271  222.7612 H   0  0  0  0  0  0  0  0  0  0  0  0
  137.0744   67.0302  221.2523 H   0  0  0  0  0  0  0  0  0  0  0  0
  134.5863   66.9210  221.4217 H   0  0  0  0  0  0  0  0  0  0  0  0
  133.3829   68.3152  223.1082 H   0  0  0  0  0  0  0  0  0  0  0  0
  134.6681   69.8297  224.6208 H   0  0  0  0  0  0  0  0  0  0  0  0
  137.1538   69.9403  224.4652 H   0  0  0  0  0  0  0  0  0  0  0  0
  1  2  2  0
  2  3  1  0
  3  4  2  0
  4  5  1  0
  5  6  2  0
  6  7  1  0
  7  8  2  0
  8  9  1  0
  9 10  2  0
 10 11  1  0
 11 12  2  0
 12 13  1  0
 13 14  2  0
 14 15  1  0
 15 16  2  0
 16 17  1  0
 17 18  2  0
 10 19  1  0
 19 20  1  0
 20 21  1  0
 21 22  2  0
 22 23  1  0
 23 24  2  0
 24 25  1  0
 25 26  2  0
 19  2  1  0
 26 21  1  0
  8  3  1  0
 18 13  1  0
  4 27  1  0
  5 28  1  0
  6 29  1  0
  7 30  1  0
 11 31  1  0
 12 32  1  0
 14 33  1  0
 15 34  1  0
 16 35  1  0
 18 36  1  0
 20 37  1  0
 20 38  1  0
 22 39  1  0
 23 40  1  0
 24 41  1  0
 25 42  1  0
 26 43  1  0
M  END
>  <meeko>  (10) 
{"free_energy": -7.14, "intermolecular_energy": -8.64, "internal_energy": -1.19, "cluster_size": 17, "cluster_id": 1, "rank_in_cluster": 12}

$$$$

     RDKit          3D

 43 46  0  0  0  0  0  0  0  0999 V2000
  138.8690   67.6340  225.3630 O   0  0  0  0  0  0  0  0  0  0  0  0
  139.1790   68.8460  225.1790 C   0  0  0  0  0  0  0  0  0  0  0  0
  139.9150   69.5270  226.1660 C   0  0  0  0  0  0  0  0  0  0  0  0
  140.3060   68.9130  227.3720 C   0  0  0  0  0  0  0  0  0  0  0  0
  141.0260   69.6380  228.3270 C   0  0  0  0  0  0  0  0  0  0  0  0
  141.3660   70.9730  228.0880 C   0  0  0  0  0  0  0  0  0  0  0  0
  140.9900   71.5870  226.8910 C   0  0  0  0  0  0  0  0  0  0  0  0
  140.2660   70.8680  225.9300 C   0  0  0  0  0  0  0  0  0  0  0  0
  139.8960   71.4640  224.7740 N   0  0  0  0  0  0  0  0  0  0  0  0
  139.1710   70.8080  223.8320 C   0  0  0  0  0  0  0  0  0  0  0  0
  138.8050   71.5400  222.6060 C   0  0  0  0  0  0  0  0  0  0  0  0
  139.3310   72.7430  222.3520 C   0  0  0  0  0  0  0  0  0  0  0  0
  140.6470   72.9060  221.7020 C   0  0  0  0  0  0  0  0  0  0  0  0
  141.4490   71.7790  221.4780 C   0  0  0  0  0  0  0  0  0  0  0  0
  142.6870   71.9160  220.8480 C   0  0  0  0  0  0  0  0  0  0  0  0
  143.1230   73.1850  220.4630 C   0  0  0  0  0  0  0  0  0  0  0  0
  142.3450   74.2740  220.7060 N   0  0  0  0  0  0  0  0  0  0  0  0
  141.1290   74.1660  221.3050 C   0  0  0  0  0  0  0  0  0  0  0  0
  138.8030   69.4920  224.0240 N   0  0  0  0  0  0  0  0  0  0  0  0
  138.0370   68.7680  222.9800 C   0  0  0  0  0  0  0  0  0  0  0  0
  138.9550   68.0060  222.0530 C   0  0  0  0  0  0  0  0  0  0  0  0
  139.6810   68.6810  221.0560 C   0  0  0  0  0  0  0  0  0  0  0  0
  140.4880   67.9640  220.1670 C   0  0  0  0  0  0  0  0  0  0  0  0
  140.5870   66.5740  220.2730 C   0  0  0  0  0  0  0  0  0  0  0  0
  139.8790   65.8990  221.2710 C   0  0  0  0  0  0  0  0  0  0  0  0
  139.0750   66.6100  222.1640 C   0  0  0  0  0  0  0  0  0  0  0  0
  140.0446   67.8617  227.5629 H   0  0  0  0  0  0  0  0  0  0  0  0
  141.3258   69.1563  229.2694 H   0  0  0  0  0  0  0  0  0  0  0  0
  141.9300   71.5402  228.8431 H   0  0  0  0  0  0  0  0  0  0  0  0
  141.2624   72.6359  226.7024 H   0  0  0  0  0  0  0  0  0  0  0  0
  138.0942   71.0936  221.8950 H   0  0  0  0  0  0  0  0  0  0  0  0
  138.7642   73.6416  222.6369 H   0  0  0  0  0  0  0  0  0  0  0  0
  141.1027   70.7855  221.7989 H   0  0  0  0  0  0  0  0  0  0  0  0
  143.3133   71.0322  220.6567 H   0  0  0  0  0  0  0  0  0  0  0  0
  144.0956   73.3043  219.9632 H   0  0  0  0  0  0  0  0  0  0  0  0
  140.5211   75.0661  221.4793 H   0  0  0  0  0  0  0  0  0  0  0  0
  137.3505   68.0593  223.4663 H   0  0  0  0  0  0  0  0  0  0  0  0
  137.4786   69.5060  222.3854 H   0  0  0  0  0  0  0  0  0  0  0  0
  139.6141   69.7760  220.9750 H   0  0  0  0  0  0  0  0  0  0  0  0
  141.0463   68.4955  219.3823 H   0  0  0  0  0  0  0  0  0  0  0  0
  141.2214   66.0120  219.5718 H   0  0  0  0  0  0  0  0  0  0  0  0
  139.9553   64.8047  221.3532 H   0  0  0  0  0  0  0  0  0  0  0  0
  138.5331   66.0753  222.9580 H   0  0  0  0  0  0  0  0  0  0  0  0
  1  2  2  0
  2  3  1  0
  3  4  2  0
  4  5  1  0
  5  6  2  0
  6  7  1  0
  7  8  2  0
  8  9  1  0
  9 10  2  0
 10 11  1  0
 11 12  2  0
 12 13  1  0
 13 14  2  0
 14 15  1  0
 15 16  2  0
 16 17  1  0
 17 18  2  0
 10 19  1  0
 19 20  1  0
 20 21  1  0
 21 22  2  0
 22 23  1  0
 23 24  2  0
 24 25  1  0
 25 26  2  0
 19  2  1  0
 26 21  1  0
  8  3  1  0
 18 13  1  0
  4 27  1  0
  5 28  1  0
  6 29  1  0
  7 30  1  0
 11 31  1  0
 12 32  1  0
 14 33  1  0
 15 34  1  0
 16 35  1  0
 18 36  1  0
 20 37  1  0
 20 38  1  0
 22 39  1  0
 23 40  1  0
 24 41  1  0
 25 42  1  0
 26 43  1  0
M  END
>  <meeko>  (11) 
{"free_energy": -6.91, "intermolecular_energy": -8.4, "internal_energy": -1.46, "cluster_size": 17, "cluster_id": 1, "rank_in_cluster": 17}

$$$$

     RDKit          3D

 43 46  0  0  0  0  0  0  0  0999 V2000
  139.2010   67.4420  225.5010 O   0  0  0  0  0  0  0  0  0  0  0  0
  139.4500   68.6340  225.1610 C   0  0  0  0  0  0  0  0  0  0  0  0
  139.9930   69.5210  226.1080 C   0  0  0  0  0  0  0  0  0  0  0  0
  140.2550   69.1380  227.4370 C   0  0  0  0  0  0  0  0  0  0  0  0
  140.7840   70.0620  228.3440 C   0  0  0  0  0  0  0  0  0  0  0  0
  141.0620   71.3700  227.9330 C   0  0  0  0  0  0  0  0  0  0  0  0
  140.8140   71.7560  226.6140 C   0  0  0  0  0  0  0  0  0  0  0  0
  140.2810   70.8360  225.7010 C   0  0  0  0  0  0  0  0  0  0  0  0
  140.0350   71.2120  224.4250 N   0  0  0  0  0  0  0  0  0  0  0  0
  139.4950   70.3560  223.5190 C   0  0  0  0  0  0  0  0  0  0  0  0
  139.2530   70.8560  222.1540 C   0  0  0  0  0  0  0  0  0  0  0  0
  138.4430   71.8980  221.9460 C   0  0  0  0  0  0  0  0  0  0  0  0
  138.9330   73.2910  221.9570 C   0  0  0  0  0  0  0  0  0  0  0  0
  138.0110   74.3470  221.9430 C   0  0  0  0  0  0  0  0  0  0  0  0
  138.4600   75.6690  221.9710 C   0  0  0  0  0  0  0  0  0  0  0  0
  139.8320   75.9250  221.9930 C   0  0  0  0  0  0  0  0  0  0  0  0
  140.7170   74.8930  221.9850 N   0  0  0  0  0  0  0  0  0  0  0  0
  140.3060   73.5970  221.9720 C   0  0  0  0  0  0  0  0  0  0  0  0
  139.1940   69.0580  223.8770 N   0  0  0  0  0  0  0  0  0  0  0  0
  138.6320   68.1170  222.8790 C   0  0  0  0  0  0  0  0  0  0  0  0
  137.1260   68.2250  222.8080 C   0  0  0  0  0  0  0  0  0  0  0  0
  136.4360   69.1130  223.6500 C   0  0  0  0  0  0  0  0  0  0  0  0
  135.0390   69.1700  223.6190 C   0  0  0  0  0  0  0  0  0  0  0  0
  134.3220   68.3520  222.7400 C   0  0  0  0  0  0  0  0  0  0  0  0
  135.0040   67.4770  221.8900 C   0  0  0  0  0  0  0  0  0  0  0  0
  136.3990   67.4190  221.9150 C   0  0  0  0  0  0  0  0  0  0  0  0
  140.0431   68.1091  227.7631 H   0  0  0  0  0  0  0  0  0  0  0  0
  140.9819   69.7595  229.3829 H   0  0  0  0  0  0  0  0  0  0  0  0
  141.4762   72.0949  228.6492 H   0  0  0  0  0  0  0  0  0  0  0  0
  141.0373   72.7836  226.2912 H   0  0  0  0  0  0  0  0  0  0  0  0
  139.7434   70.3672  221.2992 H   0  0  0  0  0  0  0  0  0  0  0  0
  137.3749   71.7119  221.7603 H   0  0  0  0  0  0  0  0  0  0  0  0
  136.9323   74.1339  221.9099 H   0  0  0  0  0  0  0  0  0  0  0  0
  137.7397   76.5003  221.9757 H   0  0  0  0  0  0  0  0  0  0  0  0
  140.1973   76.9623  222.0168 H   0  0  0  0  0  0  0  0  0  0  0  0
  141.0489   72.7858  221.9732 H   0  0  0  0  0  0  0  0  0  0  0  0
  139.0547   68.3490  221.8903 H   0  0  0  0  0  0  0  0  0  0  0  0
  138.8922   67.0925  223.1834 H   0  0  0  0  0  0  0  0  0  0  0  0
  136.9963   69.7655  224.3358 H   0  0  0  0  0  0  0  0  0  0  0  0
  134.5029   69.8598  224.2875 H   0  0  0  0  0  0  0  0  0  0  0  0
  133.2232   68.3972  222.7177 H   0  0  0  0  0  0  0  0  0  0  0  0
  134.4404   66.8323  221.1995 H   0  0  0  0  0  0  0  0  0  0  0  0
  136.9312   66.7396  221.2329 H   0  0  0  0  0  0  0  0  0  0  0  0
  1  2  2  0
  2  3  1  0
  3  4  2  0
  4  5  1  0
  5  6  2  0
  6  7  1  0
  7  8  2  0
  8  9  1  0
  9 10  2  0
 10 11  1  0
 11 12  2  0
 12 13  1  0
 13 14  2  0
 14 15  1  0
 15 16  2  0
 16 17  1  0
 17 18  2  0
 10 19  1  0
 19 20  1  0
 20 21  1  0
 21 22  2  0
 22 23  1  0
 23 24  2  0
 24 25  1  0
 25 26  2  0
 19  2  1  0
 26 21  1  0
  8  3  1  0
 18 13  1  0
  4 27  1  0
  5 28  1  0
  6 29  1  0
  7 30  1  0
 11 31  1  0
 12 32  1  0
 14 33  1  0
 15 34  1  0
 16 35  1  0
 18 36  1  0
 20 37  1  0
 20 38  1  0
 22 39  1  0
 23 40  1  0
 24 41  1  0
 25 42  1  0
 26 43  1  0
M  END
>  <meeko>  (12) 
{"free_energy": -7.2, "intermolecular_energy": -8.69, "internal_energy": -1.3, "cluster_size": 17, "cluster_id": 1, "rank_in_cluster": 6}

$$$$

     RDKit          3D

 43 46  0  0  0  0  0  0  0  0999 V2000
  142.5880   75.1390  219.3790 O   0  0  0  0  0  0  0  0  0  0  0  0
  141.8030   74.8400  220.3230 C   0  0  0  0  0  0  0  0  0  0  0  0
  141.0440   75.8540  220.9350 C   0  0  0  0  0  0  0  0  0  0  0  0
  141.1390   77.2050  220.5480 C   0  0  0  0  0  0  0  0  0  0  0  0
  140.3720   78.1770  221.1980 C   0  0  0  0  0  0  0  0  0  0  0  0
  139.5010   77.8130  222.2300 C   0  0  0  0  0  0  0  0  0  0  0  0
  139.3930   76.4740  222.6130 C   0  0  0  0  0  0  0  0  0  0  0  0
  140.1610   75.4940  221.9690 C   0  0  0  0  0  0  0  0  0  0  0  0
  140.0610   74.2000  222.3450 N   0  0  0  0  0  0  0  0  0  0  0  0
  140.8090   73.2260  221.7620 C   0  0  0  0  0  0  0  0  0  0  0  0
  140.6400   71.8430  222.2430 C   0  0  0  0  0  0  0  0  0  0  0  0
  139.7370   71.5580  223.1860 C   0  0  0  0  0  0  0  0  0  0  0  0
  140.1220   71.0420  224.5150 C   0  0  0  0  0  0  0  0  0  0  0  0
  140.7640   71.8920  225.4250 C   0  0  0  0  0  0  0  0  0  0  0  0
  141.1170   71.4220  226.6920 C   0  0  0  0  0  0  0  0  0  0  0  0
  140.8410   70.0960  227.0320 C   0  0  0  0  0  0  0  0  0  0  0  0
  140.2370   69.2750  226.1320 N   0  0  0  0  0  0  0  0  0  0  0  0
  139.8710   69.7120  224.8980 C   0  0  0  0  0  0  0  0  0  0  0  0
  141.6890   73.5360  220.7460 N   0  0  0  0  0  0  0  0  0  0  0  0
  142.4820   72.4680  220.0910 C   0  0  0  0  0  0  0  0  0  0  0  0
  143.9500   72.8250  220.0410 C   0  0  0  0  0  0  0  0  0  0  0  0
  144.6660   73.0620  221.2270 C   0  0  0  0  0  0  0  0  0  0  0  0
  146.0100   73.4450  221.1720 C   0  0  0  0  0  0  0  0  0  0  0  0
  146.6510   73.5820  219.9380 C   0  0  0  0  0  0  0  0  0  0  0  0
  145.9490   73.3330  218.7550 C   0  0  0  0  0  0  0  0  0  0  0  0
  144.6070   72.9470  218.8050 C   0  0  0  0  0  0  0  0  0  0  0  0
  141.8179   77.4961  219.7329 H   0  0  0  0  0  0  0  0  0  0  0  0
  140.4540   79.2317  220.8965 H   0  0  0  0  0  0  0  0  0  0  0  0
  138.9011   78.5811  222.7400 H   0  0  0  0  0  0  0  0  0  0  0  0
  138.7040   76.1881  223.4215 H   0  0  0  0  0  0  0  0  0  0  0  0
  141.2621   71.0392  221.8224 H   0  0  0  0  0  0  0  0  0  0  0  0
  138.6707   71.7130  222.9647 H   0  0  0  0  0  0  0  0  0  0  0  0
  140.9903   72.9304  225.1414 H   0  0  0  0  0  0  0  0  0  0  0  0
  141.6078   72.0900  227.4151 H   0  0  0  0  0  0  0  0  0  0  0  0
  141.1122   69.7157  228.0279 H   0  0  0  0  0  0  0  0  0  0  0  0
  139.3770   69.0234  224.1967 H   0  0  0  0  0  0  0  0  0  0  0  0
  142.3599   71.5328  220.6572 H   0  0  0  0  0  0  0  0  0  0  0  0
  142.1186   72.3492  219.0596 H   0  0  0  0  0  0  0  0  0  0  0  0
  144.1680   72.9460  222.2010 H   0  0  0  0  0  0  0  0  0  0  0  0
  146.5638   73.6389  222.1024 H   0  0  0  0  0  0  0  0  0  0  0  0
  147.7075   73.8856  219.8974 H   0  0  0  0  0  0  0  0  0  0  0  0
  146.4537   73.4411  217.7836 H   0  0  0  0  0  0  0  0  0  0  0  0
  144.0624   72.7377  217.8725 H   0  0  0  0  0  0  0  0  0  0  0  0
  1  2  2  0
  2  3  1  0
  3  4  2  0
  4  5  1  0
  5  6  2  0
  6  7  1  0
  7  8  2  0
  8  9  1  0
  9 10  2  0
 10 11  1  0
 11 12  2  0
 12 13  1  0
 13 14  2  0
 14 15  1  0
 15 16  2  0
 16 17  1  0
 17 18  2  0
 10 19  1  0
 19 20  1  0
 20 21  1  0
 21 22  2  0
 22 23  1  0
 23 24  2  0
 24 25  1  0
 25 26  2  0
 19  2  1  0
 26 21  1  0
  8  3  1  0
 18 13  1  0
  4 27  1  0
  5 28  1  0
  6 29  1  0
  7 30  1  0
 11 31  1  0
 12 32  1  0
 14 33  1  0
 15 34  1  0
 16 35  1  0
 18 36  1  0
 20 37  1  0
 20 38  1  0
 22 39  1  0
 23 40  1  0
 24 41  1  0
 25 42  1  0
 26 43  1  0
M  END
>  <meeko>  (13) 
{"free_energy": -7.19, "intermolecular_energy": -8.68, "internal_energy": -1.04, "cluster_size": 1, "cluster_id": 2, "rank_in_cluster": 1}

$$$$

     RDKit          3D

 43 46  0  0  0  0  0  0  0  0999 V2000
  139.1930   67.6000  225.7260 O   0  0  0  0  0  0  0  0  0  0  0  0
  139.4880   68.7540  225.3040 C   0  0  0  0  0  0  0  0  0  0  0  0
  140.1060   69.6690  226.1750 C   0  0  0  0  0  0  0  0  0  0  0  0
  140.3940   69.3550  227.5180 C   0  0  0  0  0  0  0  0  0  0  0  0
  140.9980   70.3060  228.3470 C   0  0  0  0  0  0  0  0  0  0  0  0
  141.3260   71.5700  227.8460 C   0  0  0  0  0  0  0  0  0  0  0  0
  141.0530   71.8860  226.5140 C   0  0  0  0  0  0  0  0  0  0  0  0
  140.4450   70.9400  225.6770 C   0  0  0  0  0  0  0  0  0  0  0  0
  140.1750   71.2490  224.3890 N   0  0  0  0  0  0  0  0  0  0  0  0
  139.5620   70.3680  223.5560 C   0  0  0  0  0  0  0  0  0  0  0  0
  139.2990   70.7940  222.1700 C   0  0  0  0  0  0  0  0  0  0  0  0
  138.4840   71.8240  221.9200 C   0  0  0  0  0  0  0  0  0  0  0  0
  138.9550   73.2230  221.9330 C   0  0  0  0  0  0  0  0  0  0  0  0
  138.0180   74.2660  221.9330 C   0  0  0  0  0  0  0  0  0  0  0  0
  138.4490   75.5940  221.9640 C   0  0  0  0  0  0  0  0  0  0  0  0
  139.8180   75.8680  221.9760 C   0  0  0  0  0  0  0  0  0  0  0  0
  140.7170   74.8490  221.9540 N   0  0  0  0  0  0  0  0  0  0  0  0
  140.3230   73.5480  221.9380 C   0  0  0  0  0  0  0  0  0  0  0  0
  139.2110   69.1120  224.0040 N   0  0  0  0  0  0  0  0  0  0  0  0
  138.5690   68.1410  223.0850 C   0  0  0  0  0  0  0  0  0  0  0  0
  137.0800   68.3770  222.9880 C   0  0  0  0  0  0  0  0  0  0  0  0
  136.3200   67.7360  221.9940 C   0  0  0  0  0  0  0  0  0  0  0  0
  134.9520   67.9990  221.8750 C   0  0  0  0  0  0  0  0  0  0  0  0
  134.3300   68.8920  222.7530 C   0  0  0  0  0  0  0  0  0  0  0  0
  135.0770   69.5220  223.7520 C   0  0  0  0  0  0  0  0  0  0  0  0
  136.4430   69.2590  223.8780 C   0  0  0  0  0  0  0  0  0  0  0  0
  140.1434   68.3603  227.9152 H   0  0  0  0  0  0  0  0  0  0  0  0
  141.2158   70.0590  229.3965 H   0  0  0  0  0  0  0  0  0  0  0  0
  141.7993   72.3155  228.5019 H   0  0  0  0  0  0  0  0  0  0  0  0
  141.3154   72.8791  226.1205 H   0  0  0  0  0  0  0  0  0  0  0  0
  139.7767   70.2606  221.3349 H   0  0  0  0  0  0  0  0  0  0  0  0
  137.4260   71.6220  221.6969 H   0  0  0  0  0  0  0  0  0  0  0  0
  136.9422   74.0380  221.9085 H   0  0  0  0  0  0  0  0  0  0  0  0
  137.7176   76.4155  221.9788 H   0  0  0  0  0  0  0  0  0  0  0  0
  140.1694   76.9100  222.0033 H   0  0  0  0  0  0  0  0  0  0  0  0
  141.0768   72.7470  221.9290 H   0  0  0  0  0  0  0  0  0  0  0  0
  139.0142   68.2465  222.0847 H   0  0  0  0  0  0  0  0  0  0  0  0
  138.7344   67.1279  223.4804 H   0  0  0  0  0  0  0  0  0  0  0  0
  136.8033   67.0252  221.3076 H   0  0  0  0  0  0  0  0  0  0  0  0
  134.3639   67.5025  221.0892 H   0  0  0  0  0  0  0  0  0  0  0  0
  133.2538   69.0984  222.6575 H   0  0  0  0  0  0  0  0  0  0  0  0
  134.5881   70.2267  224.4407 H   0  0  0  0  0  0  0  0  0  0  0  0
  137.0227   69.7442  224.6771 H   0  0  0  0  0  0  0  0  0  0  0  0
  1  2  2  0
  2  3  1  0
  3  4  2  0
  4  5  1  0
  5  6  2  0
  6  7  1  0
  7  8  2  0
  8  9  1  0
  9 10  2  0
 10 11  1  0
 11 12  2  0
 12 13  1  0
 13 14  2  0
 14 15  1  0
 15 16  2  0
 16 17  1  0
 17 18  2  0
 10 19  1  0
 19 20  1  0
 20 21  1  0
 21 22  2  0
 22 23  1  0
 23 24  2  0
 24 25  1  0
 25 26  2  0
 19  2  1  0
 26 21  1  0
  8  3  1  0
 18 13  1  0
  4 27  1  0
  5 28  1  0
  6 29  1  0
  7 30  1  0
 11 31  1  0
 12 32  1  0
 14 33  1  0
 15 34  1  0
 16 35  1  0
 18 36  1  0
 20 37  1  0
 20 38  1  0
 22 39  1  0
 23 40  1  0
 24 41  1  0
 25 42  1  0
 26 43  1  0
M  END
>  <meeko>  (14) 
{"free_energy": -7.15, "intermolecular_energy": -8.64, "internal_energy": -1.35, "cluster_size": 17, "cluster_id": 1, "rank_in_cluster": 11}

$$$$

     RDKit          3D

 43 46  0  0  0  0  0  0  0  0999 V2000
  138.8550   67.6930  225.4350 O   0  0  0  0  0  0  0  0  0  0  0  0
  139.1670   68.8980  225.2150 C   0  0  0  0  0  0  0  0  0  0  0  0
  139.9120   69.6030  226.1780 C   0  0  0  0  0  0  0  0  0  0  0  0
  140.3090   69.0220  227.3980 C   0  0  0  0  0  0  0  0  0  0  0  0
  141.0380   69.7710  228.3280 C   0  0  0  0  0  0  0  0  0  0  0  0
  141.3810   71.0980  228.0480 C   0  0  0  0  0  0  0  0  0  0  0  0
  140.9990   71.6790  226.8370 C   0  0  0  0  0  0  0  0  0  0  0  0
  140.2660   70.9350  225.9010 C   0  0  0  0  0  0  0  0  0  0  0  0
  139.8910   71.5000  224.7320 N   0  0  0  0  0  0  0  0  0  0  0  0
  139.1570   70.8200  223.8130 C   0  0  0  0  0  0  0  0  0  0  0  0
  138.7860   71.5190  222.5690 C   0  0  0  0  0  0  0  0  0  0  0  0
  139.2640   72.7400  222.3080 C   0  0  0  0  0  0  0  0  0  0  0  0
  140.5880   72.9520  221.6890 C   0  0  0  0  0  0  0  0  0  0  0  0
  141.4100   71.8480  221.4250 C   0  0  0  0  0  0  0  0  0  0  0  0
  142.6560   72.0320  220.8220 C   0  0  0  0  0  0  0  0  0  0  0  0
  143.0790   73.3250  220.5070 C   0  0  0  0  0  0  0  0  0  0  0  0
  142.2820   74.3890  220.7880 N   0  0  0  0  0  0  0  0  0  0  0  0
  141.0580   74.2360  221.3610 C   0  0  0  0  0  0  0  0  0  0  0  0
  138.7860   69.5120  224.0440 N   0  0  0  0  0  0  0  0  0  0  0  0
  138.0110   68.7620  223.0270 C   0  0  0  0  0  0  0  0  0  0  0  0
  138.9230   68.0220  222.0760 C   0  0  0  0  0  0  0  0  0  0  0  0
  139.6410   68.7190  221.0900 C   0  0  0  0  0  0  0  0  0  0  0  0
  140.4420   68.0240  220.1780 C   0  0  0  0  0  0  0  0  0  0  0  0
  140.5420   66.6310  220.2520 C   0  0  0  0  0  0  0  0  0  0  0  0
  139.8420   65.9330  221.2400 C   0  0  0  0  0  0  0  0  0  0  0  0
  139.0440   66.6230  222.1550 C   0  0  0  0  0  0  0  0  0  0  0  0
  140.0454   67.9774  227.6201 H   0  0  0  0  0  0  0  0  0  0  0  0
  141.3422   69.3153  229.2818 H   0  0  0  0  0  0  0  0  0  0  0  0
  141.9523   71.6845  228.7826 H   0  0  0  0  0  0  0  0  0  0  0  0
  141.2733   72.7213  226.6170 H   0  0  0  0  0  0  0  0  0  0  0  0
  138.1107   71.0321  221.8500 H   0  0  0  0  0  0  0  0  0  0  0  0
  138.6503   73.6165  222.5630 H   0  0  0  0  0  0  0  0  0  0  0  0
  141.0734   70.8357  221.6930 H   0  0  0  0  0  0  0  0  0  0  0  0
  143.2977   71.1673  220.5974 H   0  0  0  0  0  0  0  0  0  0  0  0
  144.0581   73.4823  220.0310 H   0  0  0  0  0  0  0  0  0  0  0  0
  140.4346   75.1183  221.5682 H   0  0  0  0  0  0  0  0  0  0  0  0
  137.3598   68.0363  223.5363 H   0  0  0  0  0  0  0  0  0  0  0  0
  137.4141   69.4807  222.4464 H   0  0  0  0  0  0  0  0  0  0  0  0
  139.5730   69.8155  221.0350 H   0  0  0  0  0  0  0  0  0  0  0  0
  140.9940   68.5738  219.4015 H   0  0  0  0  0  0  0  0  0  0  0  0
  141.1710   66.0852  219.5333 H   0  0  0  0  0  0  0  0  0  0  0  0
  139.9198   64.8372  221.2970 H   0  0  0  0  0  0  0  0  0  0  0  0
  138.5080   66.0702  222.9406 H   0  0  0  0  0  0  0  0  0  0  0  0
  1  2  2  0
  2  3  1  0
  3  4  2  0
  4  5  1  0
  5  6  2  0
  6  7  1  0
  7  8  2  0
  8  9  1  0
  9 10  2  0
 10 11  1  0
 11 12  2  0
 12 13  1  0
 13 14  2  0
 14 15  1  0
 15 16  2  0
 16 17  1  0
 17 18  2  0
 10 19  1  0
 19 20  1  0
 20 21  1  0
 21 22  2  0
 22 23  1  0
 23 24  2  0
 24 25  1  0
 25 26  2  0
 19  2  1  0
 26 21  1  0
  8  3  1  0
 18 13  1  0
  4 27  1  0
  5 28  1  0
  6 29  1  0
  7 30  1  0
 11 31  1  0
 12 32  1  0
 14 33  1  0
 15 34  1  0
 16 35  1  0
 18 36  1  0
 20 37  1  0
 20 38  1  0
 22 39  1  0
 23 40  1  0
 24 41  1  0
 25 42  1  0
 26 43  1  0
M  END
>  <meeko>  (15) 
{"free_energy": -6.95, "intermolecular_energy": -8.44, "internal_energy": -1.44, "cluster_size": 17, "cluster_id": 1, "rank_in_cluster": 16}

$$$$

     RDKit          3D

 43 46  0  0  0  0  0  0  0  0999 V2000
  139.7930   74.6770  221.9030 O   0  0  0  0  0  0  0  0  0  0  0  0
  140.5160   75.4810  221.2470 C   0  0  0  0  0  0  0  0  0  0  0  0
  141.8060   75.0840  220.8530 C   0  0  0  0  0  0  0  0  0  0  0  0
  142.3390   73.8220  221.1790 C   0  0  0  0  0  0  0  0  0  0  0  0
  143.6330   73.4800  220.7740 C   0  0  0  0  0  0  0  0  0  0  0  0
  144.4020   74.3860  220.0370 C   0  0  0  0  0  0  0  0  0  0  0  0
  143.8780   75.6360  219.7010 C   0  0  0  0  0  0  0  0  0  0  0  0
  142.5830   75.9870  220.1060 C   0  0  0  0  0  0  0  0  0  0  0  0
  142.0780   77.2000  219.7860 N   0  0  0  0  0  0  0  0  0  0  0  0
  140.8380   77.5860  220.1840 C   0  0  0  0  0  0  0  0  0  0  0  0
  140.3730   78.9300  219.7970 C   0  0  0  0  0  0  0  0  0  0  0  0
  141.1690   79.9930  219.9500 C   0  0  0  0  0  0  0  0  0  0  0  0
  141.6510   80.4320  221.2750 C   0  0  0  0  0  0  0  0  0  0  0  0
  142.5400   79.6180  221.9900 C   0  0  0  0  0  0  0  0  0  0  0  0
  143.0180   80.0290  223.2360 C   0  0  0  0  0  0  0  0  0  0  0  0
  142.5860   81.2450  223.7670 C   0  0  0  0  0  0  0  0  0  0  0  0
  141.7060   82.0160  223.0740 N   0  0  0  0  0  0  0  0  0  0  0  0
  141.2370   81.6450  221.8530 C   0  0  0  0  0  0  0  0  0  0  0  0
  140.0430   76.7320  220.9200 N   0  0  0  0  0  0  0  0  0  0  0  0
  138.6780   77.1430  221.3280 C   0  0  0  0  0  0  0  0  0  0  0  0
  138.7210   78.2500  222.3550 C   0  0  0  0  0  0  0  0  0  0  0  0
  137.6650   79.1720  222.4550 C   0  0  0  0  0  0  0  0  0  0  0  0
  137.7350   80.2260  223.3710 C   0  0  0  0  0  0  0  0  0  0  0  0
  138.8510   80.3620  224.2010 C   0  0  0  0  0  0  0  0  0  0  0  0
  139.8980   79.4400  224.1180 C   0  0  0  0  0  0  0  0  0  0  0  0
  139.8320   78.3830  223.2070 C   0  0  0  0  0  0  0  0  0  0  0  0
  141.7360   73.1035  221.7536 H   0  0  0  0  0  0  0  0  0  0  0  0
  144.0472   72.4952  221.0360 H   0  0  0  0  0  0  0  0  0  0  0  0
  145.4201   74.1139  219.7218 H   0  0  0  0  0  0  0  0  0  0  0  0
  144.4825   76.3462  219.1177 H   0  0  0  0  0  0  0  0  0  0  0  0
  139.3637   79.0593  219.3792 H   0  0  0  0  0  0  0  0  0  0  0  0
  141.4754   80.5600  219.0586 H   0  0  0  0  0  0  0  0  0  0  0  0
  142.8617   78.6540  221.5691 H   0  0  0  0  0  0  0  0  0  0  0  0
  143.7281   79.4004  223.7934 H   0  0  0  0  0  0  0  0  0  0  0  0
  142.9575   81.5800  224.7467 H   0  0  0  0  0  0  0  0  0  0  0  0
  140.5315   82.2958  221.3157 H   0  0  0  0  0  0  0  0  0  0  0  0
  138.1309   77.4975  220.4420 H   0  0  0  0  0  0  0  0  0  0  0  0
  138.1735   76.2741  221.7757 H   0  0  0  0  0  0  0  0  0  0  0  0
  136.7803   79.0640  221.8103 H   0  0  0  0  0  0  0  0  0  0  0  0
  136.9096   80.9500  223.4385 H   0  0  0  0  0  0  0  0  0  0  0  0
  138.9053   81.1937  224.9188 H   0  0  0  0  0  0  0  0  0  0  0  0
  140.7762   79.5469  224.7716 H   0  0  0  0  0  0  0  0  0  0  0  0
  140.6522   77.6518  223.1559 H   0  0  0  0  0  0  0  0  0  0  0  0
  1  2  2  0
  2  3  1  0
  3  4  2  0
  4  5  1  0
  5  6  2  0
  6  7  1  0
  7  8  2  0
  8  9  1  0
  9 10  2  0
 10 11  1  0
 11 12  2  0
 12 13  1  0
 13 14  2  0
 14 15  1  0
 15 16  2  0
 16 17  1  0
 17 18  2  0
 10 19  1  0
 19 20  1  0
 20 21  1  0
 21 22  2  0
 22 23  1  0
 23 24  2  0
 24 25  1  0
 25 26  2  0
 19  2  1  0
 26 21  1  0
  8  3  1  0
 18 13  1  0
  4 27  1  0
  5 28  1  0
  6 29  1  0
  7 30  1  0
 11 31  1  0
 12 32  1  0
 14 33  1  0
 15 34  1  0
 16 35  1  0
 18 36  1  0
 20 37  1  0
 20 38  1  0
 22 39  1  0
 23 40  1  0
 24 41  1  0
 25 42  1  0
 26 43  1  0
M  END
>  <meeko>  (16) 
{"free_energy": -6.31, "intermolecular_energy": -7.8, "internal_energy": -1.92, "cluster_size": 2, "cluster_id": 3, "rank_in_cluster": 2}

$$$$

     RDKit          3D

 43 46  0  0  0  0  0  0  0  0999 V2000
  139.2070   67.4160  225.5820 O   0  0  0  0  0  0  0  0  0  0  0  0
  139.4600   68.5950  225.2030 C   0  0  0  0  0  0  0  0  0  0  0  0
  140.0060   69.5110  226.1210 C   0  0  0  0  0  0  0  0  0  0  0  0
  140.2640   69.1710  227.4630 C   0  0  0  0  0  0  0  0  0  0  0  0
  140.7950   70.1230  228.3390 C   0  0  0  0  0  0  0  0  0  0  0  0
  141.0790   71.4150  227.8860 C   0  0  0  0  0  0  0  0  0  0  0  0
  140.8340   71.7590  226.5540 C   0  0  0  0  0  0  0  0  0  0  0  0
  140.2990   70.8110  225.6710 C   0  0  0  0  0  0  0  0  0  0  0  0
  140.0560   71.1460  224.3840 N   0  0  0  0  0  0  0  0  0  0  0  0
  139.5140   70.2620  223.5060 C   0  0  0  0  0  0  0  0  0  0  0  0
  139.2760   70.7180  222.1240 C   0  0  0  0  0  0  0  0  0  0  0  0
  140.2680   71.2550  221.4070 C   0  0  0  0  0  0  0  0  0  0  0  0
  140.5530   72.7040  221.4180 C   0  0  0  0  0  0  0  0  0  0  0  0
  141.7440   73.1760  220.8500 C   0  0  0  0  0  0  0  0  0  0  0  0
  142.0190   74.5450  220.8380 C   0  0  0  0  0  0  0  0  0  0  0  0
  141.1060   75.4310  221.4120 C   0  0  0  0  0  0  0  0  0  0  0  0
  139.9640   74.9590  221.9790 N   0  0  0  0  0  0  0  0  0  0  0  0
  139.6670   73.6320  221.9920 C   0  0  0  0  0  0  0  0  0  0  0  0
  139.2080   68.9780  223.9060 N   0  0  0  0  0  0  0  0  0  0  0  0
  138.6440   68.0060  222.9380 C   0  0  0  0  0  0  0  0  0  0  0  0
  137.1410   68.1360  222.8420 C   0  0  0  0  0  0  0  0  0  0  0  0
  136.4210   67.3840  221.8990 C   0  0  0  0  0  0  0  0  0  0  0  0
  135.0370   67.5470  221.7770 C   0  0  0  0  0  0  0  0  0  0  0  0
  134.3620   68.4510  222.6030 C   0  0  0  0  0  0  0  0  0  0  0  0
  135.0710   69.1910  223.5530 C   0  0  0  0  0  0  0  0  0  0  0  0
  136.4520   69.0290  223.6800 C   0  0  0  0  0  0  0  0  0  0  0  0
  140.0474   68.1544  227.8230 H   0  0  0  0  0  0  0  0  0  0  0  0
  140.9899   69.8546  229.3878 H   0  0  0  0  0  0  0  0  0  0  0  0
  141.4956   72.1611  228.5787 H   0  0  0  0  0  0  0  0  0  0  0  0
  141.0612   72.7747  226.1981 H   0  0  0  0  0  0  0  0  0  0  0  0
  138.2748   70.6155  221.6800 H   0  0  0  0  0  0  0  0  0  0  0  0
  140.8934   70.5952  220.7877 H   0  0  0  0  0  0  0  0  0  0  0  0
  142.4630   72.4673  220.4132 H   0  0  0  0  0  0  0  0  0  0  0  0
  142.9459   74.9214  220.3807 H   0  0  0  0  0  0  0  0  0  0  0  0
  141.3105   76.5118  221.4056 H   0  0  0  0  0  0  0  0  0  0  0  0
  138.7309   73.2839  222.4530 H   0  0  0  0  0  0  0  0  0  0  0  0
  139.0838   68.1911  221.9469 H   0  0  0  0  0  0  0  0  0  0  0  0
  138.8832   66.9904  223.2863 H   0  0  0  0  0  0  0  0  0  0  0  0
  136.9472   66.6646  221.2544 H   0  0  0  0  0  0  0  0  0  0  0  0
  134.4789   66.9632  221.0302 H   0  0  0  0  0  0  0  0  0  0  0  0
  133.2739   68.5795  222.5051 H   0  0  0  0  0  0  0  0  0  0  0  0
  134.5399   69.9027  224.2022 H   0  0  0  0  0  0  0  0  0  0  0  0
  137.0031   69.6030  224.4395 H   0  0  0  0  0  0  0  0  0  0  0  0
  1  2  2  0
  2  3  1  0
  3  4  2  0
  4  5  1  0
  5  6  2  0
  6  7  1  0
  7  8  2  0
  8  9  1  0
  9 10  2  0
 10 11  1  0
 11 12  2  0
 12 13  1  0
 13 14  2  0
 14 15  1  0
 15 16  2  0
 16 17  1  0
 17 18  2  0
 10 19  1  0
 19 20  1  0
 20 21  1  0
 21 22  2  0
 22 23  1  0
 23 24  2  0
 24 25  1  0
 25 26  2  0
 19  2  1  0
 26 21  1  0
  8  3  1  0
 18 13  1  0
  4 27  1  0
  5 28  1  0
  6 29  1  0
  7 30  1  0
 11 31  1  0
 12 32  1  0
 14 33  1  0
 15 34  1  0
 16 35  1  0
 18 36  1  0
 20 37  1  0
 20 38  1  0
 22 39  1  0
 23 40  1  0
 24 41  1  0
 25 42  1  0
 26 43  1  0
M  END
>  <meeko>  (17) 
{"free_energy": -7.34, "intermolecular_energy": -8.83, "internal_energy": -1.21, "cluster_size": 17, "cluster_id": 1, "rank_in_cluster": 4}

$$$$

     RDKit          3D

 43 46  0  0  0  0  0  0  0  0999 V2000
  139.2000   67.4580  225.5900 O   0  0  0  0  0  0  0  0  0  0  0  0
  139.4570   68.6360  225.2080 C   0  0  0  0  0  0  0  0  0  0  0  0
  140.0000   69.5550  226.1240 C   0  0  0  0  0  0  0  0  0  0  0  0
  140.2510   69.2190  227.4690 C   0  0  0  0  0  0  0  0  0  0  0  0
  140.7800   70.1740  228.3440 C   0  0  0  0  0  0  0  0  0  0  0  0
  141.0680   71.4640  227.8860 C   0  0  0  0  0  0  0  0  0  0  0  0
  140.8300   71.8020  226.5520 C   0  0  0  0  0  0  0  0  0  0  0  0
  140.2980   70.8520  225.6700 C   0  0  0  0  0  0  0  0  0  0  0  0
  140.0620   71.1810  224.3800 N   0  0  0  0  0  0  0  0  0  0  0  0
  139.5220   70.2950  223.5040 C   0  0  0  0  0  0  0  0  0  0  0  0
  139.2920   70.7450  222.1190 C   0  0  0  0  0  0  0  0  0  0  0  0
  138.4800   71.7770  221.8670 C   0  0  0  0  0  0  0  0  0  0  0  0
  138.9480   73.1770  221.9080 C   0  0  0  0  0  0  0  0  0  0  0  0
  138.0100   74.2170  221.9160 C   0  0  0  0  0  0  0  0  0  0  0  0
  138.4380   75.5450  221.9740 C   0  0  0  0  0  0  0  0  0  0  0  0
  139.8060   75.8220  222.0040 C   0  0  0  0  0  0  0  0  0  0  0  0
  140.7070   74.8050  221.9740 N   0  0  0  0  0  0  0  0  0  0  0  0
  140.3160   73.5030  221.9320 C   0  0  0  0  0  0  0  0  0  0  0  0
  139.2120   69.0130  223.9070 N   0  0  0  0  0  0  0  0  0  0  0  0
  138.6510   68.0380  222.9410 C   0  0  0  0  0  0  0  0  0  0  0  0
  137.1500   68.1770  222.8300 C   0  0  0  0  0  0  0  0  0  0  0  0
  136.4550   69.0760  223.6560 C   0  0  0  0  0  0  0  0  0  0  0  0
  135.0600   69.1610  223.5860 C   0  0  0  0  0  0  0  0  0  0  0  0
  134.3520   68.3600  222.6860 C   0  0  0  0  0  0  0  0  0  0  0  0
  135.0390   67.4740  221.8510 C   0  0  0  0  0  0  0  0  0  0  0  0
  136.4320   67.3880  221.9140 C   0  0  0  0  0  0  0  0  0  0  0  0
  140.0307   68.2042  227.8318 H   0  0  0  0  0  0  0  0  0  0  0  0
  140.9699   69.9098  229.3948 H   0  0  0  0  0  0  0  0  0  0  0  0
  141.4823   72.2128  228.5771 H   0  0  0  0  0  0  0  0  0  0  0  0
  141.0606   72.8159  226.1930 H   0  0  0  0  0  0  0  0  0  0  0  0
  139.7921   70.2279  221.2868 H   0  0  0  0  0  0  0  0  0  0  0  0
  137.4269   71.5762  221.6206 H   0  0  0  0  0  0  0  0  0  0  0  0
  136.9349   73.9875  221.8766 H   0  0  0  0  0  0  0  0  0  0  0  0
  137.7046   76.3646  221.9958 H   0  0  0  0  0  0  0  0  0  0  0  0
  140.1548   76.8641  222.0519 H   0  0  0  0  0  0  0  0  0  0  0  0
  141.0712   72.7033  221.9168 H   0  0  0  0  0  0  0  0  0  0  0  0
  139.1012   68.2131  221.9527 H   0  0  0  0  0  0  0  0  0  0  0  0
  138.8804   67.0234  223.2987 H   0  0  0  0  0  0  0  0  0  0  0  0
  137.0089   69.7148  224.3597 H   0  0  0  0  0  0  0  0  0  0  0  0
  134.5194   69.8601  224.2410 H   0  0  0  0  0  0  0  0  0  0  0  0
  133.2552   68.4266  222.6347 H   0  0  0  0  0  0  0  0  0  0  0  0
  134.4816   66.8432  221.1429 H   0  0  0  0  0  0  0  0  0  0  0  0
  136.9692   66.7003  221.2443 H   0  0  0  0  0  0  0  0  0  0  0  0
  1  2  2  0
  2  3  1  0
  3  4  2  0
  4  5  1  0
  5  6  2  0
  6  7  1  0
  7  8  2  0
  8  9  1  0
  9 10  2  0
 10 11  1  0
 11 12  2  0
 12 13  1  0
 13 14  2  0
 14 15  1  0
 15 16  2  0
 16 17  1  0
 17 18  2  0
 10 19  1  0
 19 20  1  0
 20 21  1  0
 21 22  2  0
 22 23  1  0
 23 24  2  0
 24 25  1  0
 25 26  2  0
 19  2  1  0
 26 21  1  0
  8  3  1  0
 18 13  1  0
  4 27  1  0
  5 28  1  0
  6 29  1  0
  7 30  1  0
 11 31  1  0
 12 32  1  0
 14 33  1  0
 15 34  1  0
 16 35  1  0
 18 36  1  0
 20 37  1  0
 20 38  1  0
 22 39  1  0
 23 40  1  0
 24 41  1  0
 25 42  1  0
 26 43  1  0
M  END
>  <meeko>  (18) 
{"free_energy": -7.19, "intermolecular_energy": -8.68, "internal_energy": -1.32, "cluster_size": 17, "cluster_id": 1, "rank_in_cluster": 7}

$$$$

     RDKit          3D

 43 46  0  0  0  0  0  0  0  0999 V2000
  139.2080   67.4420  225.4340 O   0  0  0  0  0  0  0  0  0  0  0  0
  139.4670   68.6390  225.1180 C   0  0  0  0  0  0  0  0  0  0  0  0
  140.0020   69.5070  226.0870 C   0  0  0  0  0  0  0  0  0  0  0  0
  140.2450   69.1000  227.4120 C   0  0  0  0  0  0  0  0  0  0  0  0
  140.7670   70.0060  228.3410 C   0  0  0  0  0  0  0  0  0  0  0  0
  141.0560   71.3190  227.9570 C   0  0  0  0  0  0  0  0  0  0  0  0
  140.8280   71.7290  226.6410 C   0  0  0  0  0  0  0  0  0  0  0  0
  140.3020   70.8270  225.7060 C   0  0  0  0  0  0  0  0  0  0  0  0
  140.0740   71.2260  224.4340 N   0  0  0  0  0  0  0  0  0  0  0  0
  139.5410   70.3880  223.5070 C   0  0  0  0  0  0  0  0  0  0  0  0
  139.3190   70.9130  222.1470 C   0  0  0  0  0  0  0  0  0  0  0  0
  140.3300   71.4430  221.4510 C   0  0  0  0  0  0  0  0  0  0  0  0
  140.6060   72.8930  221.4430 C   0  0  0  0  0  0  0  0  0  0  0  0
  141.7930   73.3660  220.8670 C   0  0  0  0  0  0  0  0  0  0  0  0
  142.0580   74.7370  220.8360 C   0  0  0  0  0  0  0  0  0  0  0  0
  141.1400   75.6240  221.4000 C   0  0  0  0  0  0  0  0  0  0  0  0
  140.0020   75.1520  221.9750 N   0  0  0  0  0  0  0  0  0  0  0  0
  139.7140   73.8230  222.0060 C   0  0  0  0  0  0  0  0  0  0  0  0
  139.2300   69.0860  223.8380 N   0  0  0  0  0  0  0  0  0  0  0  0
  138.6760   68.1650  222.8170 C   0  0  0  0  0  0  0  0  0  0  0  0
  137.1650   68.1950  222.8110 C   0  0  0  0  0  0  0  0  0  0  0  0
  136.4400   67.3610  221.9430 C   0  0  0  0  0  0  0  0  0  0  0  0
  135.0430   67.4310  221.9030 C   0  0  0  0  0  0  0  0  0  0  0  0
  134.3620   68.3240  222.7360 C   0  0  0  0  0  0  0  0  0  0  0  0
  135.0770   69.1450  223.6120 C   0  0  0  0  0  0  0  0  0  0  0  0
  136.4710   69.0760  223.6580 C   0  0  0  0  0  0  0  0  0  0  0  0
  140.0239   68.0668  227.7179 H   0  0  0  0  0  0  0  0  0  0  0  0
  140.9507   69.6846  229.3768 H   0  0  0  0  0  0  0  0  0  0  0  0
  141.4631   72.0296  228.6914 H   0  0  0  0  0  0  0  0  0  0  0  0
  141.0615   72.7605  226.3385 H   0  0  0  0  0  0  0  0  0  0  0  0
  138.3141   70.8682  221.7018 H   0  0  0  0  0  0  0  0  0  0  0  0
  140.9783   70.7756  220.8642 H   0  0  0  0  0  0  0  0  0  0  0  0
  142.5166   72.6567  220.4389 H   0  0  0  0  0  0  0  0  0  0  0  0
  142.9812   75.1139  220.3716 H   0  0  0  0  0  0  0  0  0  0  0  0
  141.3373   76.7060  221.3793 H   0  0  0  0  0  0  0  0  0  0  0  0
  138.7808   73.4747  222.4727 H   0  0  0  0  0  0  0  0  0  0  0  0
  139.0441   68.4666  221.8253 H   0  0  0  0  0  0  0  0  0  0  0  0
  139.0015   67.1426  223.0592 H   0  0  0  0  0  0  0  0  0  0  0  0
  136.9723   66.6510  221.2930 H   0  0  0  0  0  0  0  0  0  0  0  0
  134.4799   66.7828  221.2155 H   0  0  0  0  0  0  0  0  0  0  0  0
  133.2640   68.3802  222.7017 H   0  0  0  0  0  0  0  0  0  0  0  0
  134.5405   69.8473  224.2669 H   0  0  0  0  0  0  0  0  0  0  0  0
  137.0281   69.7138  224.3600 H   0  0  0  0  0  0  0  0  0  0  0  0
  1  2  2  0
  2  3  1  0
  3  4  2  0
  4  5  1  0
  5  6  2  0
  6  7  1  0
  7  8  2  0
  8  9  1  0
  9 10  2  0
 10 11  1  0
 11 12  2  0
 12 13  1  0
 13 14  2  0
 14 15  1  0
 15 16  2  0
 16 17  1  0
 17 18  2  0
 10 19  1  0
 19 20  1  0
 20 21  1  0
 21 22  2  0
 22 23  1  0
 23 24  2  0
 24 25  1  0
 25 26  2  0
 19  2  1  0
 26 21  1  0
  8  3  1  0
 18 13  1  0
  4 27  1  0
  5 28  1  0
  6 29  1  0
  7 30  1  0
 11 31  1  0
 12 32  1  0
 14 33  1  0
 15 34  1  0
 16 35  1  0
 18 36  1  0
 20 37  1  0
 20 38  1  0
 22 39  1  0
 23 40  1  0
 24 41  1  0
 25 42  1  0
 26 43  1  0
M  END
>  <meeko>  (19) 
{"free_energy": -7.35, "intermolecular_energy": -8.84, "internal_energy": -1.18, "cluster_size": 17, "cluster_id": 1, "rank_in_cluster": 2}

$$$$

     RDKit          3D

 43 46  0  0  0  0  0  0  0  0999 V2000
  139.2060   67.4070  225.6470 O   0  0  0  0  0  0  0  0  0  0  0  0
  139.4650   68.5750  225.2390 C   0  0  0  0  0  0  0  0  0  0  0  0
  140.0070   69.5130  226.1360 C   0  0  0  0  0  0  0  0  0  0  0  0
  140.2560   69.2070  227.4880 C   0  0  0  0  0  0  0  0  0  0  0  0
  140.7840   70.1810  228.3430 C   0  0  0  0  0  0  0  0  0  0  0  0
  141.0740   71.4600  227.8580 C   0  0  0  0  0  0  0  0  0  0  0  0
  140.8390   71.7690  226.5160 C   0  0  0  0  0  0  0  0  0  0  0  0
  140.3070   70.8000  225.6540 C   0  0  0  0  0  0  0  0  0  0  0  0
  140.0740   71.1010  224.3570 N   0  0  0  0  0  0  0  0  0  0  0  0
  139.5350   70.1970  223.4990 C   0  0  0  0  0  0  0  0  0  0  0  0
  139.3070   70.6160  222.1040 C   0  0  0  0  0  0  0  0  0  0  0  0
  138.8330   71.8360  221.8320 C   0  0  0  0  0  0  0  0  0  0  0  0
  139.7130   73.0170  221.7210 C   0  0  0  0  0  0  0  0  0  0  0  0
  141.0170   72.8610  221.2310 C   0  0  0  0  0  0  0  0  0  0  0  0
  141.8540   73.9710  221.1030 C   0  0  0  0  0  0  0  0  0  0  0  0
  141.3850   75.2290  221.4860 C   0  0  0  0  0  0  0  0  0  0  0  0
  140.1260   75.3640  221.9800 N   0  0  0  0  0  0  0  0  0  0  0  0
  139.2870   74.3020  222.1010 C   0  0  0  0  0  0  0  0  0  0  0  0
  139.2230   68.9240  223.9300 N   0  0  0  0  0  0  0  0  0  0  0  0
  138.6620   67.9290  222.9850 C   0  0  0  0  0  0  0  0  0  0  0  0
  137.1760   68.1270  222.7960 C   0  0  0  0  0  0  0  0  0  0  0  0
  136.4600   68.9960  223.6370 C   0  0  0  0  0  0  0  0  0  0  0  0
  135.0760   69.1340  223.4930 C   0  0  0  0  0  0  0  0  0  0  0  0
  134.3980   68.4170  222.5020 C   0  0  0  0  0  0  0  0  0  0  0  0
  135.1060   67.5620  221.6530 C   0  0  0  0  0  0  0  0  0  0  0  0
  136.4890   67.4230  221.7910 C   0  0  0  0  0  0  0  0  0  0  0  0
  140.0350   68.2004  227.8727 H   0  0  0  0  0  0  0  0  0  0  0  0
  140.9714   69.9397  229.3997 H   0  0  0  0  0  0  0  0  0  0  0  0
  141.4874   72.2233  228.5336 H   0  0  0  0  0  0  0  0  0  0  0  0
  141.0718   72.7743  226.1351 H   0  0  0  0  0  0  0  0  0  0  0  0
  139.5284   69.9200  221.2814 H   0  0  0  0  0  0  0  0  0  0  0  0
  137.7504   71.9647  221.6858 H   0  0  0  0  0  0  0  0  0  0  0  0
  141.3813   71.8627  220.9470 H   0  0  0  0  0  0  0  0  0  0  0  0
  142.8727   73.8556  220.7044 H   0  0  0  0  0  0  0  0  0  0  0  0
  142.0346   76.1112  221.3879 H   0  0  0  0  0  0  0  0  0  0  0  0
  138.2714   74.4480  222.4975 H   0  0  0  0  0  0  0  0  0  0  0  0
  139.1642   68.0361  222.0122 H   0  0  0  0  0  0  0  0  0  0  0  0
  138.8279   66.9241  223.4005 H   0  0  0  0  0  0  0  0  0  0  0  0
  136.9903   69.5697  224.4114 H   0  0  0  0  0  0  0  0  0  0  0  0
  134.5193   69.8080  224.1607 H   0  0  0  0  0  0  0  0  0  0  0  0
  133.3090   68.5259  222.3909 H   0  0  0  0  0  0  0  0  0  0  0  0
  134.5728   66.9971  220.8742 H   0  0  0  0  0  0  0  0  0  0  0  0
  137.0432   66.7599  221.1105 H   0  0  0  0  0  0  0  0  0  0  0  0
  1  2  2  0
  2  3  1  0
  3  4  2  0
  4  5  1  0
  5  6  2  0
  6  7  1  0
  7  8  2  0
  8  9  1  0
  9 10  2  0
 10 11  1  0
 11 12  2  0
 12 13  1  0
 13 14  2  0
 14 15  1  0
 15 16  2  0
 16 17  1  0
 17 18  2  0
 10 19  1  0
 19 20  1  0
 20 21  1  0
 21 22  2  0
 22 23  1  0
 23 24  2  0
 24 25  1  0
 25 26  2  0
 19  2  1  0
 26 21  1  0
  8  3  1  0
 18 13  1  0
  4 27  1  0
  5 28  1  0
  6 29  1  0
  7 30  1  0
 11 31  1  0
 12 32  1  0
 14 33  1  0
 15 34  1  0
 16 35  1  0
 18 36  1  0
 20 37  1  0
 20 38  1  0
 22 39  1  0
 23 40  1  0
 24 41  1  0
 25 42  1  0
 26 43  1  0
M  END
>  <meeko>  (20) 
{"free_energy": -7.03, "intermolecular_energy": -8.53, "internal_energy": -1.29, "cluster_size": 17, "cluster_id": 1, "rank_in_cluster": 15}

$$$$
