
     RDKit          3D

 43 46  0  0  0  0  0  0  0  0999 V2000
  134.0890   68.3730  225.9880 H   0  0  0  0  0  0  0  0  0  0  0  0
  133.5650   69.1550  226.4360 N   0  0  0  0  0  0  0  0  0  0  0  0
  133.8230   70.4150  226.2590 C   0  0  0  0  0  0  0  0  0  0  0  0
  133.0350   71.3260  226.8880 N   0  0  0  0  0  0  0  0  0  0  0  0
  133.1920   72.6650  226.7230 C   0  0  0  0  0  0  0  0  0  0  0  0
  132.3740   73.5230  227.3760 N   0  0  0  0  0  0  0  0  0  0  0  0
  132.4990   74.8680  227.2310 C   0  0  0  0  0  0  0  0  0  0  0  0
  131.6280   75.7100  227.9300 C   0  0  0  0  0  0  0  0  0  0  0  0
  131.7440   77.0900  227.7900 C   0  0  0  0  0  0  0  0  0  0  0  0
  132.7250   77.6180  226.9560 C   0  0  0  0  0  0  0  0  0  0  0  0
  133.5830   76.7570  226.2690 C   0  0  0  0  0  0  0  0  0  0  0  0
  133.4710   75.3950  226.4050 N   0  0  0  0  0  0  0  0  0  0  0  0
  134.3170   74.5510  225.7250 C   0  0  0  0  0  0  0  0  0  0  0  0
  135.2130   75.0170  224.9650 O   0  0  0  0  0  0  0  0  0  0  0  0
  134.1900   73.1580  225.8740 C   0  0  0  0  0  0  0  0  0  0  0  0
  135.0270   72.2440  225.2140 C   0  0  0  0  0  0  0  0  0  0  0  0
  134.8660   70.8630  225.4050 C   0  0  0  0  0  0  0  0  0  0  0  0
  135.8090   69.9410  224.7340 C   0  0  0  0  0  0  0  0  0  0  0  0
  135.4080   68.8110  224.3410 O   0  0  0  0  0  0  0  0  0  0  0  0
  137.1890   70.3100  224.5730 N   0  0  0  0  0  0  0  0  0  0  0  0
  138.1690   69.4220  223.9380 C   0  0  1  0  0  0  0  0  0  0  0  0
  138.7840   70.1020  222.7110 C   0  0  0  0  0  0  0  0  0  0  0  0
  139.2400   69.0150  224.9320 C   0  0  0  0  0  0  0  0  0  0  0  0
  140.2890   69.9010  225.2440 C   0  0  0  0  0  0  0  0  0  0  0  0
  141.2800   69.5330  226.1570 C   0  0  0  0  0  0  0  0  0  0  0  0
  141.2380   68.2770  226.7700 C   0  0  0  0  0  0  0  0  0  0  0  0
  140.2040   67.3880  226.4680 C   0  0  0  0  0  0  0  0  0  0  0  0
  139.2100   67.7520  225.5550 C   0  0  0  0  0  0  0  0  0  0  0  0
  130.8554   75.2839  228.5869 H   0  0  0  0  0  0  0  0  0  0  0  0
  131.0635   77.7600  228.3359 H   0  0  0  0  0  0  0  0  0  0  0  0
  132.8239   78.7072  226.8387 H   0  0  0  0  0  0  0  0  0  0  0  0
  134.3586   77.1749  225.6104 H   0  0  0  0  0  0  0  0  0  0  0  0
  135.8154   72.6134  224.5417 H   0  0  0  0  0  0  0  0  0  0  0  0
  137.4750   71.2770  224.8480 H   0  0  0  0  0  0  0  0  0  0  0  0
  137.6552   68.5091  223.6024 H   0  0  0  0  0  0  0  0  0  0  0  0
  139.4885   70.8809  223.0381 H   0  0  0  0  0  0  0  0  0  0  0  0
  139.3187   69.3543  222.1069 H   0  0  0  0  0  0  0  0  0  0  0  0
  137.9865   70.5591  222.1069 H   0  0  0  0  0  0  0  0  0  0  0  0
  140.3284   70.8905  224.7651 H   0  0  0  0  0  0  0  0  0  0  0  0
  142.0950   70.2326  226.3942 H   0  0  0  0  0  0  0  0  0  0  0  0
  142.0187   67.9893  227.4895 H   0  0  0  0  0  0  0  0  0  0  0  0
  140.1717   66.3995  226.9495 H   0  0  0  0  0  0  0  0  0  0  0  0
  138.3986   67.0470  225.3214 H   0  0  0  0  0  0  0  0  0  0  0  0
  1  2  1  0
  2  3  2  0
  3  4  1  0
  4  5  1  0
  5  6  1  0
  6  7  2  0
  7  8  1  0
  8  9  2  0
  9 10  1  0
 10 11  2  0
 11 12  1  0
 12 13  1  0
 13 14  2  0
 13 15  1  0
 15 16  1  0
 16 17  2  0
 17 18  1  0
 18 19  2  0
 18 20  1  0
 20 21  1  0
 21 22  1  0
 21 23  1  0
 23 24  2  0
 24 25  1  0
 25 26  2  0
 26 27  1  0
 27 28  2  0
 17  3  1  0
 28 23  1  0
 15  5  2  0
 12  7  1  0
  8 29  1  0
  9 30  1  0
 10 31  1  0
 11 32  1  0
 16 33  1  0
 20 34  1  0
 21 35  1  6
 22 36  1  0
 22 37  1  0
 22 38  1  0
 24 39  1  0
 25 40  1  0
 26 41  1  0
 27 42  1  0
 28 43  1  0
M  CHG  1   4  -1
M  END
>  <meeko>  (1) 
{"free_energy": -7.69, "intermolecular_energy": -8.88, "internal_energy": -0.89, "cluster_size": 12, "cluster_id": 1, "rank_in_cluster": 4}

$$$$

     RDKit          3D

 43 46  0  0  0  0  0  0  0  0999 V2000
  140.2760   73.8810  222.3710 H   0  0  0  0  0  0  0  0  0  0  0  0
  140.7460   74.3260  221.5550 N   0  0  0  0  0  0  0  0  0  0  0  0
  141.7620   73.8240  220.9220 C   0  0  0  0  0  0  0  0  0  0  0  0
  141.9390   72.4770  220.9560 N   0  0  0  0  0  0  0  0  0  0  0  0
  143.0000   71.8650  220.3710 C   0  0  0  0  0  0  0  0  0  0  0  0
  143.1220   70.5190  220.4400 N   0  0  0  0  0  0  0  0  0  0  0  0
  144.1720   69.8730  219.8710 C   0  0  0  0  0  0  0  0  0  0  0  0
  144.2480   68.4800  219.9710 C   0  0  0  0  0  0  0  0  0  0  0  0
  145.3200   67.8060  219.3930 C   0  0  0  0  0  0  0  0  0  0  0  0
  146.3050   68.5230  218.7220 C   0  0  0  0  0  0  0  0  0  0  0  0
  146.2070   69.9130  218.6340 C   0  0  0  0  0  0  0  0  0  0  0  0
  145.1510   70.5820  219.2040 N   0  0  0  0  0  0  0  0  0  0  0  0
  145.0590   71.9510  219.1160 C   0  0  0  0  0  0  0  0  0  0  0  0
  145.9460   72.6150  218.5090 O   0  0  0  0  0  0  0  0  0  0  0  0
  143.9710   72.6220  219.7050 C   0  0  0  0  0  0  0  0  0  0  0  0
  143.8170   74.0160  219.6440 C   0  0  0  0  0  0  0  0  0  0  0  0
  142.7070   74.6360  220.2390 C   0  0  0  0  0  0  0  0  0  0  0  0
  142.5560   76.1020  220.0990 C   0  0  0  0  0  0  0  0  0  0  0  0
  143.5300   76.7950  219.6970 O   0  0  0  0  0  0  0  0  0  0  0  0
  141.3200   76.7390  220.4620 N   0  0  0  0  0  0  0  0  0  0  0  0
  141.1290   78.1910  220.3660 C   0  0  1  0  0  0  0  0  0  0  0  0
  139.6660   78.5120  220.0420 C   0  0  0  0  0  0  0  0  0  0  0  0
  141.5680   78.8720  221.6480 C   0  0  0  0  0  0  0  0  0  0  0  0
  142.1630   80.1470  221.6030 C   0  0  0  0  0  0  0  0  0  0  0  0
  142.5720   80.7800  222.7800 C   0  0  0  0  0  0  0  0  0  0  0  0
  142.3920   80.1500  224.0150 C   0  0  0  0  0  0  0  0  0  0  0  0
  141.8030   78.8840  224.0730 C   0  0  0  0  0  0  0  0  0  0  0  0
  141.3930   78.2470  222.8980 C   0  0  0  0  0  0  0  0  0  0  0  0
  143.4650   67.9202  220.5034 H   0  0  0  0  0  0  0  0  0  0  0  0
  145.3879   66.7106  219.4666 H   0  0  0  0  0  0  0  0  0  0  0  0
  147.1560   67.9981  218.2634 H   0  0  0  0  0  0  0  0  0  0  0  0
  146.9851   70.4796  218.1016 H   0  0  0  0  0  0  0  0  0  0  0  0
  144.5714   74.6267  219.1264 H   0  0  0  0  0  0  0  0  0  0  0  0
  140.5120   76.1320  220.7270 H   0  0  0  0  0  0  0  0  0  0  0  0
  141.7547   78.5779  219.5482 H   0  0  0  0  0  0  0  0  0  0  0  0
  139.1018   78.6358  220.9781 H   0  0  0  0  0  0  0  0  0  0  0  0
  139.6155   79.4426  219.4577 H   0  0  0  0  0  0  0  0  0  0  0  0
  139.2305   77.6880  219.4577 H   0  0  0  0  0  0  0  0  0  0  0  0
  142.3070   80.6486  220.6347 H   0  0  0  0  0  0  0  0  0  0  0  0
  143.0366   81.7761  222.7346 H   0  0  0  0  0  0  0  0  0  0  0  0
  142.7137   80.6504  224.9403 H   0  0  0  0  0  0  0  0  0  0  0  0
  141.6618   78.3880  225.0446 H   0  0  0  0  0  0  0  0  0  0  0  0
  140.9304   77.2504  222.9501 H   0  0  0  0  0  0  0  0  0  0  0  0
  1  2  1  0
  2  3  2  0
  3  4  1  0
  4  5  1  0
  5  6  1  0
  6  7  2  0
  7  8  1  0
  8  9  2  0
  9 10  1  0
 10 11  2  0
 11 12  1  0
 12 13  1  0
 13 14  2  0
 13 15  1  0
 15 16  1  0
 16 17  2  0
 17 18  1  0
 18 19  2  0
 18 20  1  0
 20 21  1  0
 21 22  1  0
 21 23  1  0
 23 24  2  0
 24 25  1  0
 25 26  2  0
 26 27  1  0
 27 28  2  0
 17  3  1  0
 28 23  1  0
 15  5  2  0
 12  7  1  0
  8 29  1  0
  9 30  1  0
 10 31  1  0
 11 32  1  0
 16 33  1  0
 20 34  1  0
 21 35  1  6
 22 36  1  0
 22 37  1  0
 22 38  1  0
 24 39  1  0
 25 40  1  0
 26 41  1  0
 27 42  1  0
 28 43  1  0
M  CHG  1   4  -1
M  END
>  <meeko>  (2) 
{"free_energy": -7.27, "intermolecular_energy": -8.46, "internal_energy": -1.05, "cluster_size": 3, "cluster_id": 3, "rank_in_cluster": 3}

$$$$

     RDKit          3D

 43 46  0  0  0  0  0  0  0  0999 V2000
  133.9810   68.4040  225.8470 H   0  0  0  0  0  0  0  0  0  0  0  0
  133.5890   69.1780  226.4240 N   0  0  0  0  0  0  0  0  0  0  0  0
  133.8460   70.4380  226.2460 C   0  0  0  0  0  0  0  0  0  0  0  0
  133.0610   71.3490  226.8780 N   0  0  0  0  0  0  0  0  0  0  0  0
  133.2160   72.6880  226.7120 C   0  0  0  0  0  0  0  0  0  0  0  0
  132.4020   73.5460  227.3690 N   0  0  0  0  0  0  0  0  0  0  0  0
  132.5250   74.8910  227.2230 C   0  0  0  0  0  0  0  0  0  0  0  0
  131.6580   75.7330  227.9270 C   0  0  0  0  0  0  0  0  0  0  0  0
  131.7740   77.1130  227.7850 C   0  0  0  0  0  0  0  0  0  0  0  0
  132.7500   77.6410  226.9460 C   0  0  0  0  0  0  0  0  0  0  0  0
  133.6040   76.7800  226.2550 C   0  0  0  0  0  0  0  0  0  0  0  0
  133.4930   75.4180  226.3920 N   0  0  0  0  0  0  0  0  0  0  0  0
  134.3360   74.5740  225.7080 C   0  0  0  0  0  0  0  0  0  0  0  0
  135.2270   75.0400  224.9430 O   0  0  0  0  0  0  0  0  0  0  0  0
  134.2100   73.1810  225.8580 C   0  0  0  0  0  0  0  0  0  0  0  0
  135.0440   72.2670  225.1940 C   0  0  0  0  0  0  0  0  0  0  0  0
  134.8840   70.8860  225.3870 C   0  0  0  0  0  0  0  0  0  0  0  0
  135.8240   69.9640  224.7110 C   0  0  0  0  0  0  0  0  0  0  0  0
  135.4170   68.8400  224.3090 O   0  0  0  0  0  0  0  0  0  0  0  0
  137.2060   70.3270  224.5550 N   0  0  0  0  0  0  0  0  0  0  0  0
  138.1830   69.4380  223.9170 C   0  0  1  0  0  0  0  0  0  0  0  0
  138.7960   70.1200  222.6890 C   0  0  0  0  0  0  0  0  0  0  0  0
  139.2560   69.0270  224.9070 C   0  0  0  0  0  0  0  0  0  0  0  0
  140.3120   69.9070  225.2090 C   0  0  0  0  0  0  0  0  0  0  0  0
  141.3060   69.5340  226.1190 C   0  0  0  0  0  0  0  0  0  0  0  0
  141.2570   68.2820  226.7370 C   0  0  0  0  0  0  0  0  0  0  0  0
  140.2140   67.3990  226.4450 C   0  0  0  0  0  0  0  0  0  0  0  0
  139.2180   67.7670  225.5350 C   0  0  0  0  0  0  0  0  0  0  0  0
  130.8893   75.3074  228.5888 H   0  0  0  0  0  0  0  0  0  0  0  0
  131.0965   77.7834  228.3341 H   0  0  0  0  0  0  0  0  0  0  0  0
  132.8481   78.7302  226.8279 H   0  0  0  0  0  0  0  0  0  0  0  0
  134.3760   77.1978  225.5921 H   0  0  0  0  0  0  0  0  0  0  0  0
  135.8288   72.6362  224.5174 H   0  0  0  0  0  0  0  0  0  0  0  0
  137.4960   71.2910  224.8380 H   0  0  0  0  0  0  0  0  0  0  0  0
  137.6669   68.5261  223.5822 H   0  0  0  0  0  0  0  0  0  0  0  0
  139.4982   70.9012  223.0157 H   0  0  0  0  0  0  0  0  0  0  0  0
  139.3329   69.3738  222.0849 H   0  0  0  0  0  0  0  0  0  0  0  0
  137.9969   70.5746  222.0849 H   0  0  0  0  0  0  0  0  0  0  0  0
  140.3557   70.8944  224.7262 H   0  0  0  0  0  0  0  0  0  0  0  0
  142.1282   70.2277  226.3487 H   0  0  0  0  0  0  0  0  0  0  0  0
  142.0394   67.9913  227.4534 H   0  0  0  0  0  0  0  0  0  0  0  0
  140.1764   66.4132  226.9316 H   0  0  0  0  0  0  0  0  0  0  0  0
  138.3996   67.0678  225.3082 H   0  0  0  0  0  0  0  0  0  0  0  0
  1  2  1  0
  2  3  2  0
  3  4  1  0
  4  5  1  0
  5  6  1  0
  6  7  2  0
  7  8  1  0
  8  9  2  0
  9 10  1  0
 10 11  2  0
 11 12  1  0
 12 13  1  0
 13 14  2  0
 13 15  1  0
 15 16  1  0
 16 17  2  0
 17 18  1  0
 18 19  2  0
 18 20  1  0
 20 21  1  0
 21 22  1  0
 21 23  1  0
 23 24  2  0
 24 25  1  0
 25 26  2  0
 26 27  1  0
 27 28  2  0
 17  3  1  0
 28 23  1  0
 15  5  2  0
 12  7  1  0
  8 29  1  0
  9 30  1  0
 10 31  1  0
 11 32  1  0
 16 33  1  0
 20 34  1  0
 21 35  1  6
 22 36  1  0
 22 37  1  0
 22 38  1  0
 24 39  1  0
 25 40  1  0
 26 41  1  0
 27 42  1  0
 28 43  1  0
M  CHG  1   4  -1
M  END
>  <meeko>  (3) 
{"free_energy": -7.69, "intermolecular_energy": -8.88, "internal_energy": -0.89, "cluster_size": 12, "cluster_id": 1, "rank_in_cluster": 2}

$$$$

     RDKit          3D

 43 46  0  0  0  0  0  0  0  0999 V2000
  134.0530   68.3980  225.9700 H   0  0  0  0  0  0  0  0  0  0  0  0
  133.5740   69.1820  226.4610 N   0  0  0  0  0  0  0  0  0  0  0  0
  133.8320   70.4400  226.2770 C   0  0  0  0  0  0  0  0  0  0  0  0
  133.0450   71.3560  226.9010 N   0  0  0  0  0  0  0  0  0  0  0  0
  133.2030   72.6930  226.7270 C   0  0  0  0  0  0  0  0  0  0  0  0
  132.3870   73.5560  227.3760 N   0  0  0  0  0  0  0  0  0  0  0  0
  132.5120   74.9000  227.2230 C   0  0  0  0  0  0  0  0  0  0  0  0
  131.6420   75.7470  227.9170 C   0  0  0  0  0  0  0  0  0  0  0  0
  131.7590   77.1260  227.7690 C   0  0  0  0  0  0  0  0  0  0  0  0
  132.7400   77.6480  226.9310 C   0  0  0  0  0  0  0  0  0  0  0  0
  133.5960   76.7830  226.2480 C   0  0  0  0  0  0  0  0  0  0  0  0
  133.4840   75.4210  226.3920 N   0  0  0  0  0  0  0  0  0  0  0  0
  134.3290   74.5730  225.7170 C   0  0  0  0  0  0  0  0  0  0  0  0
  135.2230   75.0340  224.9530 O   0  0  0  0  0  0  0  0  0  0  0  0
  134.2010   73.1810  225.8750 C   0  0  0  0  0  0  0  0  0  0  0  0
  135.0360   72.2620  225.2190 C   0  0  0  0  0  0  0  0  0  0  0  0
  134.8740   70.8820  225.4190 C   0  0  0  0  0  0  0  0  0  0  0  0
  135.8160   69.9560  224.7530 C   0  0  0  0  0  0  0  0  0  0  0  0
  135.4170   68.8180  224.3810 O   0  0  0  0  0  0  0  0  0  0  0  0
  137.1920   70.3300  224.5720 N   0  0  0  0  0  0  0  0  0  0  0  0
  138.1710   69.4380  223.9420 C   0  0  1  0  0  0  0  0  0  0  0  0
  138.7950   70.1160  222.7180 C   0  0  0  0  0  0  0  0  0  0  0  0
  139.2350   69.0240  224.9400 C   0  0  0  0  0  0  0  0  0  0  0  0
  140.2810   69.9090  225.2650 C   0  0  0  0  0  0  0  0  0  0  0  0
  141.2670   69.5350  226.1830 C   0  0  0  0  0  0  0  0  0  0  0  0
  141.2210   68.2750  226.7870 C   0  0  0  0  0  0  0  0  0  0  0  0
  140.1890   67.3880  226.4720 C   0  0  0  0  0  0  0  0  0  0  0  0
  139.2010   67.7570  225.5550 C   0  0  0  0  0  0  0  0  0  0  0  0
  130.8691   75.3255  228.5765 H   0  0  0  0  0  0  0  0  0  0  0  0
  131.0796   77.7998  228.3116 H   0  0  0  0  0  0  0  0  0  0  0  0
  132.8401   78.7365  226.8077 H   0  0  0  0  0  0  0  0  0  0  0  0
  134.3706   77.1969  225.5856 H   0  0  0  0  0  0  0  0  0  0  0  0
  135.8234   72.6265  224.5429 H   0  0  0  0  0  0  0  0  0  0  0  0
  137.4750   71.3030  224.8300 H   0  0  0  0  0  0  0  0  0  0  0  0
  137.6543   68.5276  223.6040 H   0  0  0  0  0  0  0  0  0  0  0  0
  139.5054   70.8879  223.0488 H   0  0  0  0  0  0  0  0  0  0  0  0
  139.3246   69.3652  222.1132 H   0  0  0  0  0  0  0  0  0  0  0  0
  138.0029   70.5817  222.1132 H   0  0  0  0  0  0  0  0  0  0  0  0
  140.3227   70.9018  224.7932 H   0  0  0  0  0  0  0  0  0  0  0  0
  142.0802   70.2332  226.4304 H   0  0  0  0  0  0  0  0  0  0  0  0
  141.9969   67.9824  227.5097 H   0  0  0  0  0  0  0  0  0  0  0  0
  140.1538   66.3964  226.9469 H   0  0  0  0  0  0  0  0  0  0  0  0
  138.3913   67.0533  225.3118 H   0  0  0  0  0  0  0  0  0  0  0  0
  1  2  1  0
  2  3  2  0
  3  4  1  0
  4  5  1  0
  5  6  1  0
  6  7  2  0
  7  8  1  0
  8  9  2  0
  9 10  1  0
 10 11  2  0
 11 12  1  0
 12 13  1  0
 13 14  2  0
 13 15  1  0
 15 16  1  0
 16 17  2  0
 17 18  1  0
 18 19  2  0
 18 20  1  0
 20 21  1  0
 21 22  1  0
 21 23  1  0
 23 24  2  0
 24 25  1  0
 25 26  2  0
 26 27  1  0
 27 28  2  0
 17  3  1  0
 28 23  1  0
 15  5  2  0
 12  7  1  0
  8 29  1  0
  9 30  1  0
 10 31  1  0
 11 32  1  0
 16 33  1  0
 20 34  1  0
 21 35  1  6
 22 36  1  0
 22 37  1  0
 22 38  1  0
 24 39  1  0
 25 40  1  0
 26 41  1  0
 27 42  1  0
 28 43  1  0
M  CHG  1   4  -1
M  END
>  <meeko>  (4) 
{"free_energy": -7.69, "intermolecular_energy": -8.89, "internal_energy": -0.89, "cluster_size": 12, "cluster_id": 1, "rank_in_cluster": 1}

$$$$

     RDKit          3D

 43 46  0  0  0  0  0  0  0  0999 V2000
  133.8120   68.3690  225.7670 H   0  0  0  0  0  0  0  0  0  0  0  0
  133.5650   69.1250  226.4410 N   0  0  0  0  0  0  0  0  0  0  0  0
  133.8260   70.3840  226.2690 C   0  0  0  0  0  0  0  0  0  0  0  0
  133.0320   71.2950  226.8910 N   0  0  0  0  0  0  0  0  0  0  0  0
  133.1910   72.6340  226.7290 C   0  0  0  0  0  0  0  0  0  0  0  0
  132.3680   73.4920  227.3760 N   0  0  0  0  0  0  0  0  0  0  0  0
  132.4940   74.8370  227.2340 C   0  0  0  0  0  0  0  0  0  0  0  0
  131.6180   75.6780  227.9260 C   0  0  0  0  0  0  0  0  0  0  0  0
  131.7360   77.0580  227.7890 C   0  0  0  0  0  0  0  0  0  0  0  0
  132.7240   77.5870  226.9640 C   0  0  0  0  0  0  0  0  0  0  0  0
  133.5870   76.7270  226.2840 C   0  0  0  0  0  0  0  0  0  0  0  0
  133.4740   75.3650  226.4170 N   0  0  0  0  0  0  0  0  0  0  0  0
  134.3260   74.5210  225.7440 C   0  0  0  0  0  0  0  0  0  0  0  0
  135.2280   74.9880  224.9920 O   0  0  0  0  0  0  0  0  0  0  0  0
  134.1970   73.1280  225.8900 C   0  0  0  0  0  0  0  0  0  0  0  0
  135.0390   72.2150  225.2360 C   0  0  0  0  0  0  0  0  0  0  0  0
  134.8760   70.8330  225.4250 C   0  0  0  0  0  0  0  0  0  0  0  0
  135.8250   69.9120  224.7610 C   0  0  0  0  0  0  0  0  0  0  0  0
  135.4420   68.7600  224.4170 O   0  0  0  0  0  0  0  0  0  0  0  0
  137.1900   70.3080  224.5510 N   0  0  0  0  0  0  0  0  0  0  0  0
  138.1760   69.4220  223.9230 C   0  0  1  0  0  0  0  0  0  0  0  0
  138.7960   70.1040  222.6990 C   0  0  0  0  0  0  0  0  0  0  0  0
  139.2430   69.0170  224.9220 C   0  0  0  0  0  0  0  0  0  0  0  0
  140.2990   69.8970  225.2230 C   0  0  0  0  0  0  0  0  0  0  0  0
  141.2870   69.5310  226.1420 C   0  0  0  0  0  0  0  0  0  0  0  0
  141.2320   68.2830  226.7700 C   0  0  0  0  0  0  0  0  0  0  0  0
  140.1890   67.4000  226.4790 C   0  0  0  0  0  0  0  0  0  0  0  0
  139.2000   67.7630  225.5610 C   0  0  0  0  0  0  0  0  0  0  0  0
  130.8394   75.2514  228.5755 H   0  0  0  0  0  0  0  0  0  0  0  0
  131.0514   77.7275  228.3304 H   0  0  0  0  0  0  0  0  0  0  0  0
  132.8240   78.6764  226.8487 H   0  0  0  0  0  0  0  0  0  0  0  0
  134.3683   77.1457  225.6327 H   0  0  0  0  0  0  0  0  0  0  0  0
  135.8327   72.5849  224.5702 H   0  0  0  0  0  0  0  0  0  0  0  0
  137.4590   71.2910  224.7860 H   0  0  0  0  0  0  0  0  0  0  0  0
  137.6662   68.5073  223.5863 H   0  0  0  0  0  0  0  0  0  0  0  0
  139.5017   70.8802  223.0300 H   0  0  0  0  0  0  0  0  0  0  0  0
  139.3303   69.3565  222.0942 H   0  0  0  0  0  0  0  0  0  0  0  0
  138.0012   70.5649  222.0942 H   0  0  0  0  0  0  0  0  0  0  0  0
  140.3475   70.8800  224.7317 H   0  0  0  0  0  0  0  0  0  0  0  0
  142.1085   70.2256  226.3712 H   0  0  0  0  0  0  0  0  0  0  0  0
  142.0098   67.9963  227.4931 H   0  0  0  0  0  0  0  0  0  0  0  0
  140.1464   66.4181  226.9730 H   0  0  0  0  0  0  0  0  0  0  0  0
  138.3814   67.0636  225.3358 H   0  0  0  0  0  0  0  0  0  0  0  0
  1  2  1  0
  2  3  2  0
  3  4  1  0
  4  5  1  0
  5  6  1  0
  6  7  2  0
  7  8  1  0
  8  9  2  0
  9 10  1  0
 10 11  2  0
 11 12  1  0
 12 13  1  0
 13 14  2  0
 13 15  1  0
 15 16  1  0
 16 17  2  0
 17 18  1  0
 18 19  2  0
 18 20  1  0
 20 21  1  0
 21 22  1  0
 21 23  1  0
 23 24  2  0
 24 25  1  0
 25 26  2  0
 26 27  1  0
 27 28  2  0
 17  3  1  0
 28 23  1  0
 15  5  2  0
 12  7  1  0
  8 29  1  0
  9 30  1  0
 10 31  1  0
 11 32  1  0
 16 33  1  0
 20 34  1  0
 21 35  1  6
 22 36  1  0
 22 37  1  0
 22 38  1  0
 24 39  1  0
 25 40  1  0
 26 41  1  0
 27 42  1  0
 28 43  1  0
M  CHG  1   4  -1
M  END
>  <meeko>  (5) 
{"free_energy": -7.68, "intermolecular_energy": -8.88, "internal_energy": -0.89, "cluster_size": 12, "cluster_id": 1, "rank_in_cluster": 8}

$$$$

     RDKit          3D

 43 46  0  0  0  0  0  0  0  0999 V2000
  134.0500   68.3960  225.9460 H   0  0  0  0  0  0  0  0  0  0  0  0
  133.5760   69.1790  226.4450 N   0  0  0  0  0  0  0  0  0  0  0  0
  133.8390   70.4370  226.2660 C   0  0  0  0  0  0  0  0  0  0  0  0
  133.0530   71.3530  226.8910 N   0  0  0  0  0  0  0  0  0  0  0  0
  133.2140   72.6900  226.7230 C   0  0  0  0  0  0  0  0  0  0  0  0
  132.3990   73.5530  227.3740 N   0  0  0  0  0  0  0  0  0  0  0  0
  132.5280   74.8970  227.2260 C   0  0  0  0  0  0  0  0  0  0  0  0
  131.6600   75.7430  227.9220 C   0  0  0  0  0  0  0  0  0  0  0  0
  131.7810   77.1230  227.7790 C   0  0  0  0  0  0  0  0  0  0  0  0
  132.7640   77.6460  226.9440 C   0  0  0  0  0  0  0  0  0  0  0  0
  133.6190   76.7800  226.2600 C   0  0  0  0  0  0  0  0  0  0  0  0
  133.5030   75.4190  226.3990 N   0  0  0  0  0  0  0  0  0  0  0  0
  134.3460   74.5700  225.7210 C   0  0  0  0  0  0  0  0  0  0  0  0
  135.2440   75.0320  224.9600 O   0  0  0  0  0  0  0  0  0  0  0  0
  134.2150   73.1780  225.8740 C   0  0  0  0  0  0  0  0  0  0  0  0
  135.0490   72.2600  225.2160 C   0  0  0  0  0  0  0  0  0  0  0  0
  134.8830   70.8800  225.4110 C   0  0  0  0  0  0  0  0  0  0  0  0
  135.8240   69.9530  224.7430 C   0  0  0  0  0  0  0  0  0  0  0  0
  135.4260   68.8130  224.3790 O   0  0  0  0  0  0  0  0  0  0  0  0
  137.1970   70.3310  224.5510 N   0  0  0  0  0  0  0  0  0  0  0  0
  138.1750   69.4390  223.9180 C   0  0  1  0  0  0  0  0  0  0  0  0
  138.7950   70.1170  222.6930 C   0  0  0  0  0  0  0  0  0  0  0  0
  139.2420   69.0270  224.9140 C   0  0  0  0  0  0  0  0  0  0  0  0
  140.2980   69.9060  225.2220 C   0  0  0  0  0  0  0  0  0  0  0  0
  141.2860   69.5320  226.1380 C   0  0  0  0  0  0  0  0  0  0  0  0
  141.2330   68.2790  226.7550 C   0  0  0  0  0  0  0  0  0  0  0  0
  140.1910   67.3980  226.4560 C   0  0  0  0  0  0  0  0  0  0  0  0
  139.2010   67.7660  225.5410 C   0  0  0  0  0  0  0  0  0  0  0  0
  130.8854   75.3210  228.5792 H   0  0  0  0  0  0  0  0  0  0  0  0
  131.1028   77.7965  228.3235 H   0  0  0  0  0  0  0  0  0  0  0  0
  132.8666   78.7346  226.8238 H   0  0  0  0  0  0  0  0  0  0  0  0
  134.3963   77.1937  225.6006 H   0  0  0  0  0  0  0  0  0  0  0  0
  135.8385   72.6251  224.5426 H   0  0  0  0  0  0  0  0  0  0  0  0
  137.4790   71.3060  224.8020 H   0  0  0  0  0  0  0  0  0  0  0  0
  137.6584   68.5282  223.5811 H   0  0  0  0  0  0  0  0  0  0  0  0
  139.5034   70.8916  223.0219 H   0  0  0  0  0  0  0  0  0  0  0  0
  139.3263   69.3671  222.0885 H   0  0  0  0  0  0  0  0  0  0  0  0
  138.0007   70.5793  222.0885 H   0  0  0  0  0  0  0  0  0  0  0  0
  140.3460   70.8931  224.7390 H   0  0  0  0  0  0  0  0  0  0  0  0
  142.1068   70.2254  226.3735 H   0  0  0  0  0  0  0  0  0  0  0  0
  142.0112   67.9869  227.4755 H   0  0  0  0  0  0  0  0  0  0  0  0
  140.1497   66.4121  226.9420 H   0  0  0  0  0  0  0  0  0  0  0  0
  138.3844   67.0666  225.3088 H   0  0  0  0  0  0  0  0  0  0  0  0
  1  2  1  0
  2  3  2  0
  3  4  1  0
  4  5  1  0
  5  6  1  0
  6  7  2  0
  7  8  1  0
  8  9  2  0
  9 10  1  0
 10 11  2  0
 11 12  1  0
 12 13  1  0
 13 14  2  0
 13 15  1  0
 15 16  1  0
 16 17  2  0
 17 18  1  0
 18 19  2  0
 18 20  1  0
 20 21  1  0
 21 22  1  0
 21 23  1  0
 23 24  2  0
 24 25  1  0
 25 26  2  0
 26 27  1  0
 27 28  2  0
 17  3  1  0
 28 23  1  0
 15  5  2  0
 12  7  1  0
  8 29  1  0
  9 30  1  0
 10 31  1  0
 11 32  1  0
 16 33  1  0
 20 34  1  0
 21 35  1  6
 22 36  1  0
 22 37  1  0
 22 38  1  0
 24 39  1  0
 25 40  1  0
 26 41  1  0
 27 42  1  0
 28 43  1  0
M  CHG  1   4  -1
M  END
>  <meeko>  (6) 
{"free_energy": -7.69, "intermolecular_energy": -8.88, "internal_energy": -0.89, "cluster_size": 12, "cluster_id": 1, "rank_in_cluster": 3}

$$$$

     RDKit          3D

 43 46  0  0  0  0  0  0  0  0999 V2000
  140.9380   75.2010  222.2520 H   0  0  0  0  0  0  0  0  0  0  0  0
  140.8700   74.3560  221.6460 N   0  0  0  0  0  0  0  0  0  0  0  0
  141.8550   73.8480  220.9720 C   0  0  0  0  0  0  0  0  0  0  0  0
  142.0370   72.5020  221.0160 N   0  0  0  0  0  0  0  0  0  0  0  0
  143.0710   71.8840  220.3880 C   0  0  0  0  0  0  0  0  0  0  0  0
  143.1990   70.5390  220.4700 N   0  0  0  0  0  0  0  0  0  0  0  0
  144.2220   69.8870  219.8590 C   0  0  0  0  0  0  0  0  0  0  0  0
  144.3070   68.4960  219.9750 C   0  0  0  0  0  0  0  0  0  0  0  0
  145.3520   67.8160  219.3540 C   0  0  0  0  0  0  0  0  0  0  0  0
  146.3010   68.5270  218.6260 C   0  0  0  0  0  0  0  0  0  0  0  0
  146.1940   69.9150  218.5250 C   0  0  0  0  0  0  0  0  0  0  0  0
  145.1650   70.5890  219.1350 N   0  0  0  0  0  0  0  0  0  0  0  0
  145.0660   71.9570  219.0340 C   0  0  0  0  0  0  0  0  0  0  0  0
  145.9210   72.6150  218.3750 O   0  0  0  0  0  0  0  0  0  0  0  0
  144.0060   72.6330  219.6650 C   0  0  0  0  0  0  0  0  0  0  0  0
  143.8450   74.0260  219.5930 C   0  0  0  0  0  0  0  0  0  0  0  0
  142.7630   74.6520  220.2330 C   0  0  0  0  0  0  0  0  0  0  0  0
  142.6010   76.1150  220.0800 C   0  0  0  0  0  0  0  0  0  0  0  0
  143.5540   76.8050  219.6230 O   0  0  0  0  0  0  0  0  0  0  0  0
  141.3830   76.7550  220.4920 N   0  0  0  0  0  0  0  0  0  0  0  0
  141.1830   78.2050  220.3860 C   0  0  1  0  0  0  0  0  0  0  0  0
  139.7210   78.5140  220.0480 C   0  0  0  0  0  0  0  0  0  0  0  0
  141.6070   78.8960  221.6670 C   0  0  0  0  0  0  0  0  0  0  0  0
  142.1940   80.1750  221.6190 C   0  0  0  0  0  0  0  0  0  0  0  0
  142.5880   80.8180  222.7960 C   0  0  0  0  0  0  0  0  0  0  0  0
  142.4030   80.1940  224.0320 C   0  0  0  0  0  0  0  0  0  0  0  0
  141.8230   78.9250  224.0940 C   0  0  0  0  0  0  0  0  0  0  0  0
  141.4270   78.2770  222.9200 C   0  0  0  0  0  0  0  0  0  0  0  0
  143.5529   67.9420  220.5534 H   0  0  0  0  0  0  0  0  0  0  0  0
  145.4267   66.7218  219.4387 H   0  0  0  0  0  0  0  0  0  0  0  0
  147.1304   67.9985  218.1332 H   0  0  0  0  0  0  0  0  0  0  0  0
  146.9442   70.4765  217.9489 H   0  0  0  0  0  0  0  0  0  0  0  0
  144.5716   74.6313  219.0312 H   0  0  0  0  0  0  0  0  0  0  0  0
  140.5890   76.1490  220.8030 H   0  0  0  0  0  0  0  0  0  0  0  0
  141.8127   78.5916  219.5711 H   0  0  0  0  0  0  0  0  0  0  0  0
  139.1472   78.6353  220.9786 H   0  0  0  0  0  0  0  0  0  0  0  0
  139.6687   79.4430  219.4613 H   0  0  0  0  0  0  0  0  0  0  0  0
  139.2973   77.6856  219.4613 H   0  0  0  0  0  0  0  0  0  0  0  0
  142.3435   80.6715  220.6489 H   0  0  0  0  0  0  0  0  0  0  0  0
  143.0447   81.8176  222.7488 H   0  0  0  0  0  0  0  0  0  0  0  0
  142.7142   80.7022  224.9566 H   0  0  0  0  0  0  0  0  0  0  0  0
  141.6775   78.4346  225.0678 H   0  0  0  0  0  0  0  0  0  0  0  0
  140.9718   77.2771  222.9749 H   0  0  0  0  0  0  0  0  0  0  0  0
  1  2  1  0
  2  3  2  0
  3  4  1  0
  4  5  1  0
  5  6  1  0
  6  7  2  0
  7  8  1  0
  8  9  2  0
  9 10  1  0
 10 11  2  0
 11 12  1  0
 12 13  1  0
 13 14  2  0
 13 15  1  0
 15 16  1  0
 16 17  2  0
 17 18  1  0
 18 19  2  0
 18 20  1  0
 20 21  1  0
 21 22  1  0
 21 23  1  0
 23 24  2  0
 24 25  1  0
 25 26  2  0
 26 27  1  0
 27 28  2  0
 17  3  1  0
 28 23  1  0
 15  5  2  0
 12  7  1  0
  8 29  1  0
  9 30  1  0
 10 31  1  0
 11 32  1  0
 16 33  1  0
 20 34  1  0
 21 35  1  6
 22 36  1  0
 22 37  1  0
 22 38  1  0
 24 39  1  0
 25 40  1  0
 26 41  1  0
 27 42  1  0
 28 43  1  0
M  CHG  1   4  -1
M  END
>  <meeko>  (7) 
{"free_energy": -7.26, "intermolecular_energy": -8.45, "internal_energy": -1.05, "cluster_size": 5, "cluster_id": 2, "rank_in_cluster": 5}

$$$$

     RDKit          3D

 43 46  0  0  0  0  0  0  0  0999 V2000
  139.8390   74.6120  221.1350 H   0  0  0  0  0  0  0  0  0  0  0  0
  140.7670   74.4040  221.5600 N   0  0  0  0  0  0  0  0  0  0  0  0
  141.7760   73.8940  220.9220 C   0  0  0  0  0  0  0  0  0  0  0  0
  141.9540   72.5480  220.9730 N   0  0  0  0  0  0  0  0  0  0  0  0
  143.0080   71.9270  220.3840 C   0  0  0  0  0  0  0  0  0  0  0  0
  143.1310   70.5820  220.4690 N   0  0  0  0  0  0  0  0  0  0  0  0
  144.1750   69.9290  219.8970 C   0  0  0  0  0  0  0  0  0  0  0  0
  144.2520   68.5380  220.0150 C   0  0  0  0  0  0  0  0  0  0  0  0
  145.3170   67.8560  219.4340 C   0  0  0  0  0  0  0  0  0  0  0  0
  146.2940   68.5640  218.7410 C   0  0  0  0  0  0  0  0  0  0  0  0
  146.1940   69.9530  218.6360 C   0  0  0  0  0  0  0  0  0  0  0  0
  145.1450   70.6290  219.2090 N   0  0  0  0  0  0  0  0  0  0  0  0
  145.0520   71.9970  219.1040 C   0  0  0  0  0  0  0  0  0  0  0  0
  145.9320   72.6530  218.4770 O   0  0  0  0  0  0  0  0  0  0  0  0
  143.9710   72.6750  219.6960 C   0  0  0  0  0  0  0  0  0  0  0  0
  143.8150   74.0680  219.6180 C   0  0  0  0  0  0  0  0  0  0  0  0
  142.7120   74.6970  220.2170 C   0  0  0  0  0  0  0  0  0  0  0  0
  142.5590   76.1600  220.0590 C   0  0  0  0  0  0  0  0  0  0  0  0
  143.4610   76.8240  219.4790 O   0  0  0  0  0  0  0  0  0  0  0  0
  141.4100   76.8300  220.6040 N   0  0  0  0  0  0  0  0  0  0  0  0
  141.2250   78.2820  220.4960 C   0  0  1  0  0  0  0  0  0  0  0  0
  139.7730   78.6040  220.1290 C   0  0  0  0  0  0  0  0  0  0  0  0
  141.6280   78.9670  221.7880 C   0  0  0  0  0  0  0  0  0  0  0  0
  142.2000   80.2530  221.7560 C   0  0  0  0  0  0  0  0  0  0  0  0
  142.5750   80.8910  222.9420 C   0  0  0  0  0  0  0  0  0  0  0  0
  142.3860   80.2540  224.1710 C   0  0  0  0  0  0  0  0  0  0  0  0
  141.8200   78.9770  224.2160 C   0  0  0  0  0  0  0  0  0  0  0  0
  141.4430   78.3350  223.0330 C   0  0  0  0  0  0  0  0  0  0  0  0
  143.4751   67.9857  220.5640 H   0  0  0  0  0  0  0  0  0  0  0  0
  145.3861   66.7617  219.5223 H   0  0  0  0  0  0  0  0  0  0  0  0
  147.1395   68.0332  218.2789 H   0  0  0  0  0  0  0  0  0  0  0  0
  146.9656   70.5128  218.0872 H   0  0  0  0  0  0  0  0  0  0  0  0
  144.5631   74.6716  219.0832 H   0  0  0  0  0  0  0  0  0  0  0  0
  140.6500   76.2450  221.0180 H   0  0  0  0  0  0  0  0  0  0  0  0
  141.8746   78.6646  219.6950 H   0  0  0  0  0  0  0  0  0  0  0  0
  139.1829   78.7349  221.0480 H   0  0  0  0  0  0  0  0  0  0  0  0
  139.7412   79.5310  219.5377 H   0  0  0  0  0  0  0  0  0  0  0  0
  139.3523   77.7773  219.5377 H   0  0  0  0  0  0  0  0  0  0  0  0
  142.3529   80.7591  220.7914 H   0  0  0  0  0  0  0  0  0  0  0  0
  143.0197   81.8965  222.9075 H   0  0  0  0  0  0  0  0  0  0  0  0
  142.6826   80.7575  225.1030 H   0  0  0  0  0  0  0  0  0  0  0  0
  141.6710   78.4763  225.1840 H   0  0  0  0  0  0  0  0  0  0  0  0
  140.9989   77.3295  223.0747 H   0  0  0  0  0  0  0  0  0  0  0  0
  1  2  1  0
  2  3  2  0
  3  4  1  0
  4  5  1  0
  5  6  1  0
  6  7  2  0
  7  8  1  0
  8  9  2  0
  9 10  1  0
 10 11  2  0
 11 12  1  0
 12 13  1  0
 13 14  2  0
 13 15  1  0
 15 16  1  0
 16 17  2  0
 17 18  1  0
 18 19  2  0
 18 20  1  0
 20 21  1  0
 21 22  1  0
 21 23  1  0
 23 24  2  0
 24 25  1  0
 25 26  2  0
 26 27  1  0
 27 28  2  0
 17  3  1  0
 28 23  1  0
 15  5  2  0
 12  7  1  0
  8 29  1  0
  9 30  1  0
 10 31  1  0
 11 32  1  0
 16 33  1  0
 20 34  1  0
 21 35  1  6
 22 36  1  0
 22 37  1  0
 22 38  1  0
 24 39  1  0
 25 40  1  0
 26 41  1  0
 27 42  1  0
 28 43  1  0
M  CHG  1   4  -1
M  END
>  <meeko>  (8) 
{"free_energy": -7.28, "intermolecular_energy": -8.48, "internal_energy": -1.02, "cluster_size": 3, "cluster_id": 3, "rank_in_cluster": 1}

$$$$

     RDKit          3D

 43 46  0  0  0  0  0  0  0  0999 V2000
  133.9730   68.4150  225.8800 H   0  0  0  0  0  0  0  0  0  0  0  0
  133.5830   69.1920  226.4560 N   0  0  0  0  0  0  0  0  0  0  0  0
  133.8400   70.4510  226.2730 C   0  0  0  0  0  0  0  0  0  0  0  0
  133.0540   71.3640  226.9000 N   0  0  0  0  0  0  0  0  0  0  0  0
  133.2090   72.7020  226.7290 C   0  0  0  0  0  0  0  0  0  0  0  0
  132.3940   73.5630  227.3810 N   0  0  0  0  0  0  0  0  0  0  0  0
  132.5170   74.9070  227.2300 C   0  0  0  0  0  0  0  0  0  0  0  0
  131.6490   75.7520  227.9280 C   0  0  0  0  0  0  0  0  0  0  0  0
  131.7640   77.1320  227.7820 C   0  0  0  0  0  0  0  0  0  0  0  0
  132.7410   77.6560  226.9420 C   0  0  0  0  0  0  0  0  0  0  0  0
  133.5970   76.7930  226.2550 C   0  0  0  0  0  0  0  0  0  0  0  0
  133.4860   75.4310  226.3970 N   0  0  0  0  0  0  0  0  0  0  0  0
  134.3300   74.5850  225.7180 C   0  0  0  0  0  0  0  0  0  0  0  0
  135.2220   75.0480  224.9520 O   0  0  0  0  0  0  0  0  0  0  0  0
  134.2040   73.1920  225.8740 C   0  0  0  0  0  0  0  0  0  0  0  0
  135.0390   72.2760  225.2150 C   0  0  0  0  0  0  0  0  0  0  0  0
  134.8790   70.8950  225.4130 C   0  0  0  0  0  0  0  0  0  0  0  0
  135.8200   69.9710  224.7430 C   0  0  0  0  0  0  0  0  0  0  0  0
  135.4240   68.8290  224.3810 O   0  0  0  0  0  0  0  0  0  0  0  0
  137.1920   70.3520  224.5470 N   0  0  0  0  0  0  0  0  0  0  0  0
  138.1700   69.4630  223.9120 C   0  0  1  0  0  0  0  0  0  0  0  0
  138.7890   70.1440  222.6870 C   0  0  0  0  0  0  0  0  0  0  0  0
  139.2380   69.0490  224.9060 C   0  0  0  0  0  0  0  0  0  0  0  0
  139.2030   67.7680  225.4890 C   0  0  0  0  0  0  0  0  0  0  0  0
  140.1830   67.3800  226.4070 C   0  0  0  0  0  0  0  0  0  0  0  0
  141.2080   68.2650  226.7550 C   0  0  0  0  0  0  0  0  0  0  0  0
  141.2530   69.5390  226.1850 C   0  0  0  0  0  0  0  0  0  0  0  0
  140.2750   69.9320  225.2660 C   0  0  0  0  0  0  0  0  0  0  0  0
  130.8788   75.3286  228.5894 H   0  0  0  0  0  0  0  0  0  0  0  0
  131.0858   77.8042  228.3281 H   0  0  0  0  0  0  0  0  0  0  0  0
  132.8388   78.7448  226.8196 H   0  0  0  0  0  0  0  0  0  0  0  0
  134.3699   77.2088  225.5918 H   0  0  0  0  0  0  0  0  0  0  0  0
  135.8248   72.6428  224.5382 H   0  0  0  0  0  0  0  0  0  0  0  0
  137.4720   71.3280  224.7960 H   0  0  0  0  0  0  0  0  0  0  0  0
  137.6535   68.5526  223.5738 H   0  0  0  0  0  0  0  0  0  0  0  0
  139.4949   70.9205  223.0168 H   0  0  0  0  0  0  0  0  0  0  0  0
  139.3229   69.3961  222.0824 H   0  0  0  0  0  0  0  0  0  0  0  0
  137.9937   70.6043  222.0824 H   0  0  0  0  0  0  0  0  0  0  0  0
  138.3987   67.0675  225.2201 H   0  0  0  0  0  0  0  0  0  0  0  0
  140.1478   66.3766  226.8565 H   0  0  0  0  0  0  0  0  0  0  0  0
  141.9785   67.9578  227.4774 H   0  0  0  0  0  0  0  0  0  0  0  0
  142.0595   70.2349  226.4595 H   0  0  0  0  0  0  0  0  0  0  0  0
  140.3156   70.9373  224.8213 H   0  0  0  0  0  0  0  0  0  0  0  0
  1  2  1  0
  2  3  2  0
  3  4  1  0
  4  5  1  0
  5  6  1  0
  6  7  2  0
  7  8  1  0
  8  9  2  0
  9 10  1  0
 10 11  2  0
 11 12  1  0
 12 13  1  0
 13 14  2  0
 13 15  1  0
 15 16  1  0
 16 17  2  0
 17 18  1  0
 18 19  2  0
 18 20  1  0
 20 21  1  0
 21 22  1  0
 21 23  1  0
 23 24  2  0
 24 25  1  0
 25 26  2  0
 26 27  1  0
 27 28  2  0
 17  3  1  0
 28 23  1  0
 15  5  2  0
 12  7  1  0
  8 29  1  0
  9 30  1  0
 10 31  1  0
 11 32  1  0
 16 33  1  0
 20 34  1  0
 21 35  1  6
 22 36  1  0
 22 37  1  0
 22 38  1  0
 24 39  1  0
 25 40  1  0
 26 41  1  0
 27 42  1  0
 28 43  1  0
M  CHG  1   4  -1
M  END
>  <meeko>  (9) 
{"free_energy": -7.69, "intermolecular_energy": -8.88, "internal_energy": -0.89, "cluster_size": 12, "cluster_id": 1, "rank_in_cluster": 7}

$$$$

     RDKit          3D

 43 46  0  0  0  0  0  0  0  0999 V2000
  144.4640   76.7770  220.5020 H   0  0  0  0  0  0  0  0  0  0  0  0
  144.0580   76.1880  219.7440 N   0  0  0  0  0  0  0  0  0  0  0  0
  143.7830   74.9240  219.8540 C   0  0  0  0  0  0  0  0  0  0  0  0
  144.7620   74.0270  219.5660 N   0  0  0  0  0  0  0  0  0  0  0  0
  144.5560   72.6850  219.6000 C   0  0  0  0  0  0  0  0  0  0  0  0
  145.5710   71.8410  219.3020 N   0  0  0  0  0  0  0  0  0  0  0  0
  145.4000   70.4940  219.3200 C   0  0  0  0  0  0  0  0  0  0  0  0
  146.4830   69.6670  219.0050 C   0  0  0  0  0  0  0  0  0  0  0  0
  146.3210   68.2850  219.0190 C   0  0  0  0  0  0  0  0  0  0  0  0
  145.0830   67.7390  219.3470 C   0  0  0  0  0  0  0  0  0  0  0  0
  144.0170   68.5850  219.6590 C   0  0  0  0  0  0  0  0  0  0  0  0
  144.1740   69.9490  219.6450 N   0  0  0  0  0  0  0  0  0  0  0  0
  143.1200   70.7780  219.9520 C   0  0  0  0  0  0  0  0  0  0  0  0
  141.9910   70.2960  220.2520 O   0  0  0  0  0  0  0  0  0  0  0  0
  143.2960   72.1740  219.9340 C   0  0  0  0  0  0  0  0  0  0  0  0
  142.2630   73.0730  220.2430 C   0  0  0  0  0  0  0  0  0  0  0  0
  142.4930   74.4580  220.2210 C   0  0  0  0  0  0  0  0  0  0  0  0
  141.3900   75.3640  220.6130 C   0  0  0  0  0  0  0  0  0  0  0  0
  140.1940   74.9780  220.5030 O   0  0  0  0  0  0  0  0  0  0  0  0
  141.6780   76.6950  221.0710 N   0  0  0  0  0  0  0  0  0  0  0  0
  140.6200   77.6410  221.4460 C   0  0  1  0  0  0  0  0  0  0  0  0
  139.5910   76.9540  222.3500 C   0  0  0  0  0  0  0  0  0  0  0  0
  141.2120   78.8630  222.1220 C   0  0  0  0  0  0  0  0  0  0  0  0
  141.6970   78.7750  223.4400 C   0  0  0  0  0  0  0  0  0  0  0  0
  142.2430   79.8980  224.0700 C   0  0  0  0  0  0  0  0  0  0  0  0
  142.3110   81.1180  223.3930 C   0  0  0  0  0  0  0  0  0  0  0  0
  141.8320   81.2180  222.0850 C   0  0  0  0  0  0  0  0  0  0  0  0
  141.2850   80.0990  221.4500 C   0  0  0  0  0  0  0  0  0  0  0  0
  147.4578   70.1068  218.7475 H   0  0  0  0  0  0  0  0  0  0  0  0
  147.1672   67.6270  218.7720 H   0  0  0  0  0  0  0  0  0  0  0  0
  144.9455   66.6477  219.3603 H   0  0  0  0  0  0  0  0  0  0  0  0
  143.0392   68.1534  219.9192 H   0  0  0  0  0  0  0  0  0  0  0  0
  141.2657   72.6895  220.5044 H   0  0  0  0  0  0  0  0  0  0  0  0
  142.6780   76.9620  221.2140 H   0  0  0  0  0  0  0  0  0  0  0  0
  140.1059   77.9769  220.5334 H   0  0  0  0  0  0  0  0  0  0  0  0
  139.8536   77.1293  223.4037 H   0  0  0  0  0  0  0  0  0  0  0  0
  138.5916   77.3667  222.1476 H   0  0  0  0  0  0  0  0  0  0  0  0
  139.5891   75.8728  222.1476 H   0  0  0  0  0  0  0  0  0  0  0  0
  141.6464   77.8170  223.9782 H   0  0  0  0  0  0  0  0  0  0  0  0
  142.6196   79.8204  225.1006 H   0  0  0  0  0  0  0  0  0  0  0  0
  142.7418   81.9997  223.8900 H   0  0  0  0  0  0  0  0  0  0  0  0
  141.8852   82.1794  221.5531 H   0  0  0  0  0  0  0  0  0  0  0  0
  140.9094   80.1842  220.4196 H   0  0  0  0  0  0  0  0  0  0  0  0
  1  2  1  0
  2  3  2  0
  3  4  1  0
  4  5  1  0
  5  6  1  0
  6  7  2  0
  7  8  1  0
  8  9  2  0
  9 10  1  0
 10 11  2  0
 11 12  1  0
 12 13  1  0
 13 14  2  0
 13 15  1  0
 15 16  1  0
 16 17  2  0
 17 18  1  0
 18 19  2  0
 18 20  1  0
 20 21  1  0
 21 22  1  0
 21 23  1  0
 23 24  2  0
 24 25  1  0
 25 26  2  0
 26 27  1  0
 27 28  2  0
 17  3  1  0
 28 23  1  0
 15  5  2  0
 12  7  1  0
  8 29  1  0
  9 30  1  0
 10 31  1  0
 11 32  1  0
 16 33  1  0
 20 34  1  0
 21 35  1  6
 22 36  1  0
 22 37  1  0
 22 38  1  0
 24 39  1  0
 25 40  1  0
 26 41  1  0
 27 42  1  0
 28 43  1  0
M  CHG  1   4  -1
M  END
>  <meeko>  (10) 
{"free_energy": -7.6, "intermolecular_energy": -8.79, "internal_energy": -0.84, "cluster_size": 5, "cluster_id": 2, "rank_in_cluster": 4}

$$$$

     RDKit          3D

 43 46  0  0  0  0  0  0  0  0999 V2000
  133.8280   68.4070  225.7760 H   0  0  0  0  0  0  0  0  0  0  0  0
  133.5630   69.1680  226.4370 N   0  0  0  0  0  0  0  0  0  0  0  0
  133.8260   70.4260  226.2610 C   0  0  0  0  0  0  0  0  0  0  0  0
  133.0350   71.3410  226.8810 N   0  0  0  0  0  0  0  0  0  0  0  0
  133.1980   72.6790  226.7160 C   0  0  0  0  0  0  0  0  0  0  0  0
  132.3770   73.5410  227.3600 N   0  0  0  0  0  0  0  0  0  0  0  0
  132.5070   74.8850  227.2140 C   0  0  0  0  0  0  0  0  0  0  0  0
  131.6330   75.7310  227.9050 C   0  0  0  0  0  0  0  0  0  0  0  0
  131.7550   77.1100  227.7630 C   0  0  0  0  0  0  0  0  0  0  0  0
  132.7440   77.6340  226.9370 C   0  0  0  0  0  0  0  0  0  0  0  0
  133.6050   76.7700  226.2590 C   0  0  0  0  0  0  0  0  0  0  0  0
  133.4880   75.4080  226.3950 N   0  0  0  0  0  0  0  0  0  0  0  0
  134.3370   74.5600  225.7240 C   0  0  0  0  0  0  0  0  0  0  0  0
  135.2410   75.0220  224.9710 O   0  0  0  0  0  0  0  0  0  0  0  0
  134.2050   73.1680  225.8750 C   0  0  0  0  0  0  0  0  0  0  0  0
  135.0440   72.2510  225.2230 C   0  0  0  0  0  0  0  0  0  0  0  0
  134.8770   70.8700  225.4150 C   0  0  0  0  0  0  0  0  0  0  0  0
  135.8240   69.9440  224.7540 C   0  0  0  0  0  0  0  0  0  0  0  0
  135.4320   68.7990  224.3960 O   0  0  0  0  0  0  0  0  0  0  0  0
  137.1950   70.3280  224.5620 N   0  0  0  0  0  0  0  0  0  0  0  0
  138.1780   69.4370  223.9360 C   0  0  1  0  0  0  0  0  0  0  0  0
  138.7950   70.1100  222.7060 C   0  0  0  0  0  0  0  0  0  0  0  0
  139.2470   69.0370  224.9350 C   0  0  0  0  0  0  0  0  0  0  0  0
  139.2080   67.7670  225.5410 C   0  0  0  0  0  0  0  0  0  0  0  0
  140.1880   67.3930  226.4640 C   0  0  0  0  0  0  0  0  0  0  0  0
  141.2180   68.2790  226.7930 C   0  0  0  0  0  0  0  0  0  0  0  0
  141.2670   69.5420  226.1990 C   0  0  0  0  0  0  0  0  0  0  0  0
  140.2890   69.9220  225.2750 C   0  0  0  0  0  0  0  0  0  0  0  0
  130.8539   75.3087  228.5567 H   0  0  0  0  0  0  0  0  0  0  0  0
  131.0720   77.7831  228.3019 H   0  0  0  0  0  0  0  0  0  0  0  0
  132.8468   78.7228  226.8189 H   0  0  0  0  0  0  0  0  0  0  0  0
  134.3877   77.1850  225.6070 H   0  0  0  0  0  0  0  0  0  0  0  0
  135.8387   72.6170  224.5563 H   0  0  0  0  0  0  0  0  0  0  0  0
  137.4710   71.3060  224.8070 H   0  0  0  0  0  0  0  0  0  0  0  0
  137.6662   68.5210  223.6057 H   0  0  0  0  0  0  0  0  0  0  0  0
  139.5054   70.8849  223.0297 H   0  0  0  0  0  0  0  0  0  0  0  0
  139.3233   69.3572  222.1025 H   0  0  0  0  0  0  0  0  0  0  0  0
  137.9993   70.5711  222.1025 H   0  0  0  0  0  0  0  0  0  0  0  0
  138.4008   67.0645  225.2862 H   0  0  0  0  0  0  0  0  0  0  0  0
  140.1489   66.3988  226.9330 H   0  0  0  0  0  0  0  0  0  0  0  0
  141.9891   67.9817  227.5190 H   0  0  0  0  0  0  0  0  0  0  0  0
  142.0770   70.2395  226.4588 H   0  0  0  0  0  0  0  0  0  0  0  0
  140.3334   70.9182  224.8106 H   0  0  0  0  0  0  0  0  0  0  0  0
  1  2  1  0
  2  3  2  0
  3  4  1  0
  4  5  1  0
  5  6  1  0
  6  7  2  0
  7  8  1  0
  8  9  2  0
  9 10  1  0
 10 11  2  0
 11 12  1  0
 12 13  1  0
 13 14  2  0
 13 15  1  0
 15 16  1  0
 16 17  2  0
 17 18  1  0
 18 19  2  0
 18 20  1  0
 20 21  1  0
 21 22  1  0
 21 23  1  0
 23 24  2  0
 24 25  1  0
 25 26  2  0
 26 27  1  0
 27 28  2  0
 17  3  1  0
 28 23  1  0
 15  5  2  0
 12  7  1  0
  8 29  1  0
  9 30  1  0
 10 31  1  0
 11 32  1  0
 16 33  1  0
 20 34  1  0
 21 35  1  6
 22 36  1  0
 22 37  1  0
 22 38  1  0
 24 39  1  0
 25 40  1  0
 26 41  1  0
 27 42  1  0
 28 43  1  0
M  CHG  1   4  -1
M  END
>  <meeko>  (11) 
{"free_energy": -7.69, "intermolecular_energy": -8.88, "internal_energy": -0.89, "cluster_size": 12, "cluster_id": 1, "rank_in_cluster": 5}

$$$$

     RDKit          3D

 43 46  0  0  0  0  0  0  0  0999 V2000
  140.1350   73.8060  222.2360 H   0  0  0  0  0  0  0  0  0  0  0  0
  140.7360   74.3360  221.5700 N   0  0  0  0  0  0  0  0  0  0  0  0
  141.7500   73.8390  220.9310 C   0  0  0  0  0  0  0  0  0  0  0  0
  141.9360   72.4930  220.9690 N   0  0  0  0  0  0  0  0  0  0  0  0
  142.9970   71.8850  220.3780 C   0  0  0  0  0  0  0  0  0  0  0  0
  143.1280   70.5400  220.4520 N   0  0  0  0  0  0  0  0  0  0  0  0
  144.1780   69.8990  219.8770 C   0  0  0  0  0  0  0  0  0  0  0  0
  144.2640   68.5070  219.9820 C   0  0  0  0  0  0  0  0  0  0  0  0
  145.3360   67.8380  219.3980 C   0  0  0  0  0  0  0  0  0  0  0  0
  146.3110   68.5590  218.7160 C   0  0  0  0  0  0  0  0  0  0  0  0
  146.2030   69.9480  218.6240 C   0  0  0  0  0  0  0  0  0  0  0  0
  145.1470   70.6120  219.1990 N   0  0  0  0  0  0  0  0  0  0  0  0
  145.0450   71.9800  219.1070 C   0  0  0  0  0  0  0  0  0  0  0  0
  145.9230   72.6480  218.4900 O   0  0  0  0  0  0  0  0  0  0  0  0
  143.9580   72.6460  219.7010 C   0  0  0  0  0  0  0  0  0  0  0  0
  143.7930   74.0390  219.6360 C   0  0  0  0  0  0  0  0  0  0  0  0
  142.6840   74.6540  220.2370 C   0  0  0  0  0  0  0  0  0  0  0  0
  142.5220   76.1180  220.0920 C   0  0  0  0  0  0  0  0  0  0  0  0
  143.4750   76.8110  219.6400 O   0  0  0  0  0  0  0  0  0  0  0  0
  141.3020   76.7550  220.5070 N   0  0  0  0  0  0  0  0  0  0  0  0
  141.1020   78.2050  220.4080 C   0  0  1  0  0  0  0  0  0  0  0  0
  139.6310   78.5180  220.1180 C   0  0  0  0  0  0  0  0  0  0  0  0
  141.5690   78.8950  221.6760 C   0  0  0  0  0  0  0  0  0  0  0  0
  141.3820   78.2760  222.9260 C   0  0  0  0  0  0  0  0  0  0  0  0
  141.8080   78.9060  224.0990 C   0  0  0  0  0  0  0  0  0  0  0  0
  142.4240   80.1590  224.0380 C   0  0  0  0  0  0  0  0  0  0  0  0
  142.6130   80.7850  222.8040 C   0  0  0  0  0  0  0  0  0  0  0  0
  142.1890   80.1590  221.6280 C   0  0  0  0  0  0  0  0  0  0  0  0
  143.4891   67.9441  220.5229 H   0  0  0  0  0  0  0  0  0  0  0  0
  145.4119   66.7434  219.4754 H   0  0  0  0  0  0  0  0  0  0  0  0
  147.1616   68.0381  218.2522 H   0  0  0  0  0  0  0  0  0  0  0  0
  146.9735   70.5179  218.0841 H   0  0  0  0  0  0  0  0  0  0  0  0
  144.5389   74.6529  219.1099 H   0  0  0  0  0  0  0  0  0  0  0  0
  140.5090   76.1470  220.8130 H   0  0  0  0  0  0  0  0  0  0  0  0
  141.7058   78.5901  219.5731 H   0  0  0  0  0  0  0  0  0  0  0  0
  139.0868   78.6338  221.0669 H   0  0  0  0  0  0  0  0  0  0  0  0
  139.5618   79.4510  219.5394 H   0  0  0  0  0  0  0  0  0  0  0  0
  139.1880   77.6940  219.5394 H   0  0  0  0  0  0  0  0  0  0  0  0
  140.8975   77.2900  222.9804 H   0  0  0  0  0  0  0  0  0  0  0  0
  141.6581   78.4147  225.0717 H   0  0  0  0  0  0  0  0  0  0  0  0
  142.7600   80.6522  224.9620 H   0  0  0  0  0  0  0  0  0  0  0  0
  143.0962   81.7721  222.7572 H   0  0  0  0  0  0  0  0  0  0  0  0
  142.3405   80.6568  220.6589 H   0  0  0  0  0  0  0  0  0  0  0  0
  1  2  1  0
  2  3  2  0
  3  4  1  0
  4  5  1  0
  5  6  1  0
  6  7  2  0
  7  8  1  0
  8  9  2  0
  9 10  1  0
 10 11  2  0
 11 12  1  0
 12 13  1  0
 13 14  2  0
 13 15  1  0
 15 16  1  0
 16 17  2  0
 17 18  1  0
 18 19  2  0
 18 20  1  0
 20 21  1  0
 21 22  1  0
 21 23  1  0
 23 24  2  0
 24 25  1  0
 25 26  2  0
 26 27  1  0
 27 28  2  0
 17  3  1  0
 28 23  1  0
 15  5  2  0
 12  7  1  0
  8 29  1  0
  9 30  1  0
 10 31  1  0
 11 32  1  0
 16 33  1  0
 20 34  1  0
 21 35  1  6
 22 36  1  0
 22 37  1  0
 22 38  1  0
 24 39  1  0
 25 40  1  0
 26 41  1  0
 27 42  1  0
 28 43  1  0
M  CHG  1   4  -1
M  END
>  <meeko>  (12) 
{"free_energy": -7.27, "intermolecular_energy": -8.46, "internal_energy": -1.04, "cluster_size": 3, "cluster_id": 3, "rank_in_cluster": 2}

$$$$

     RDKit          3D

 43 46  0  0  0  0  0  0  0  0999 V2000
  144.0880   77.0530  220.5310 H   0  0  0  0  0  0  0  0  0  0  0  0
  143.8740   76.3970  219.7500 N   0  0  0  0  0  0  0  0  0  0  0  0
  143.6420   75.1280  219.8930 C   0  0  0  0  0  0  0  0  0  0  0  0
  144.6290   74.2530  219.5640 N   0  0  0  0  0  0  0  0  0  0  0  0
  144.4630   72.9070  219.6270 C   0  0  0  0  0  0  0  0  0  0  0  0
  145.4840   72.0870  219.2860 N   0  0  0  0  0  0  0  0  0  0  0  0
  145.3520   70.7360  219.3320 C   0  0  0  0  0  0  0  0  0  0  0  0
  146.4390   69.9340  218.9700 C   0  0  0  0  0  0  0  0  0  0  0  0
  146.3170   68.5480  219.0120 C   0  0  0  0  0  0  0  0  0  0  0  0
  145.1160   67.9740  219.4150 C   0  0  0  0  0  0  0  0  0  0  0  0
  144.0450   68.7950  219.7720 C   0  0  0  0  0  0  0  0  0  0  0  0
  144.1610   70.1630  219.7320 N   0  0  0  0  0  0  0  0  0  0  0  0
  143.1030   70.9670  220.0840 C   0  0  0  0  0  0  0  0  0  0  0  0
  142.0060   70.4590  220.4510 O   0  0  0  0  0  0  0  0  0  0  0  0
  143.2380   72.3670  220.0370 C   0  0  0  0  0  0  0  0  0  0  0  0
  142.1980   73.2420  220.3900 C   0  0  0  0  0  0  0  0  0  0  0  0
  142.3880   74.6320  220.3360 C   0  0  0  0  0  0  0  0  0  0  0  0
  141.2820   75.5130  220.7740 C   0  0  0  0  0  0  0  0  0  0  0  0
  140.0920   75.1000  220.7170 O   0  0  0  0  0  0  0  0  0  0  0  0
  141.5590   76.8510  221.2200 N   0  0  0  0  0  0  0  0  0  0  0  0
  140.4970   77.7730  221.6400 C   0  0  1  0  0  0  0  0  0  0  0  0
  139.4500   77.0290  222.4750 C   0  0  0  0  0  0  0  0  0  0  0  0
  141.0810   78.9430  222.4090 C   0  0  0  0  0  0  0  0  0  0  0  0
  142.4710   79.1630  222.4120 C   0  0  0  0  0  0  0  0  0  0  0  0
  143.0160   80.2380  223.1200 C   0  0  0  0  0  0  0  0  0  0  0  0
  142.1820   81.1050  223.8310 C   0  0  0  0  0  0  0  0  0  0  0  0
  140.8010   80.8970  223.8370 C   0  0  0  0  0  0  0  0  0  0  0  0
  140.2510   79.8230  223.1310 C   0  0  0  0  0  0  0  0  0  0  0  0
  147.3857   70.3962  218.6536 H   0  0  0  0  0  0  0  0  0  0  0  0
  147.1666   67.9097  218.7278 H   0  0  0  0  0  0  0  0  0  0  0  0
  145.0107   66.8797  219.4522 H   0  0  0  0  0  0  0  0  0  0  0  0
  143.0952   68.3402  220.0897 H   0  0  0  0  0  0  0  0  0  0  0  0
  141.2276   72.8355  220.7111 H   0  0  0  0  0  0  0  0  0  0  0  0
  142.5590   77.1400  221.3200 H   0  0  0  0  0  0  0  0  0  0  0  0
  139.9998   78.1737  220.7443 H   0  0  0  0  0  0  0  0  0  0  0  0
  139.6602   77.1784  223.5444 H   0  0  0  0  0  0  0  0  0  0  0  0
  138.4488   77.4193  222.2401 H   0  0  0  0  0  0  0  0  0  0  0  0
  139.4893   75.9551  222.2401 H   0  0  0  0  0  0  0  0  0  0  0  0
  143.1328   78.4846  221.8536 H   0  0  0  0  0  0  0  0  0  0  0  0
  144.1037   80.4018  223.1175 H   0  0  0  0  0  0  0  0  0  0  0  0
  142.6132   81.9513  224.3859 H   0  0  0  0  0  0  0  0  0  0  0  0
  140.1452   81.5791  224.3980 H   0  0  0  0  0  0  0  0  0  0  0  0
  139.1626   79.6640  223.1393 H   0  0  0  0  0  0  0  0  0  0  0  0
  1  2  1  0
  2  3  2  0
  3  4  1  0
  4  5  1  0
  5  6  1  0
  6  7  2  0
  7  8  1  0
  8  9  2  0
  9 10  1  0
 10 11  2  0
 11 12  1  0
 12 13  1  0
 13 14  2  0
 13 15  1  0
 15 16  1  0
 16 17  2  0
 17 18  1  0
 18 19  2  0
 18 20  1  0
 20 21  1  0
 21 22  1  0
 21 23  1  0
 23 24  2  0
 24 25  1  0
 25 26  2  0
 26 27  1  0
 27 28  2  0
 17  3  1  0
 28 23  1  0
 15  5  2  0
 12  7  1  0
  8 29  1  0
  9 30  1  0
 10 31  1  0
 11 32  1  0
 16 33  1  0
 20 34  1  0
 21 35  1  6
 22 36  1  0
 22 37  1  0
 22 38  1  0
 24 39  1  0
 25 40  1  0
 26 41  1  0
 27 42  1  0
 28 43  1  0
M  CHG  1   4  -1
M  END
>  <meeko>  (13) 
{"free_energy": -7.66, "intermolecular_energy": -8.86, "internal_energy": -0.78, "cluster_size": 5, "cluster_id": 2, "rank_in_cluster": 1}

$$$$

     RDKit          3D

 43 46  0  0  0  0  0  0  0  0999 V2000
  133.9220   68.3660  225.8520 H   0  0  0  0  0  0  0  0  0  0  0  0
  133.5400   69.1420  226.4340 N   0  0  0  0  0  0  0  0  0  0  0  0
  133.8010   70.4000  226.2540 C   0  0  0  0  0  0  0  0  0  0  0  0
  133.0200   71.3150  226.8860 N   0  0  0  0  0  0  0  0  0  0  0  0
  133.1810   72.6530  226.7190 C   0  0  0  0  0  0  0  0  0  0  0  0
  132.3710   73.5150  227.3760 N   0  0  0  0  0  0  0  0  0  0  0  0
  132.4990   74.8590  227.2280 C   0  0  0  0  0  0  0  0  0  0  0  0
  131.6360   75.7050  227.9320 C   0  0  0  0  0  0  0  0  0  0  0  0
  131.7570   77.0850  227.7890 C   0  0  0  0  0  0  0  0  0  0  0  0
  132.7340   77.6080  226.9490 C   0  0  0  0  0  0  0  0  0  0  0  0
  133.5850   76.7430  226.2570 C   0  0  0  0  0  0  0  0  0  0  0  0
  133.4690   75.3820  226.3950 N   0  0  0  0  0  0  0  0  0  0  0  0
  134.3080   74.5340  225.7120 C   0  0  0  0  0  0  0  0  0  0  0  0
  135.2000   74.9960  224.9450 O   0  0  0  0  0  0  0  0  0  0  0  0
  134.1760   73.1410  225.8630 C   0  0  0  0  0  0  0  0  0  0  0  0
  135.0050   72.2240  225.1990 C   0  0  0  0  0  0  0  0  0  0  0  0
  134.8400   70.8430  225.3930 C   0  0  0  0  0  0  0  0  0  0  0  0
  135.7760   69.9170  224.7180 C   0  0  0  0  0  0  0  0  0  0  0  0
  135.3560   68.8080  224.2850 O   0  0  0  0  0  0  0  0  0  0  0  0
  137.1670   70.2570  224.5960 N   0  0  0  0  0  0  0  0  0  0  0  0
  138.1400   69.3620  223.9580 C   0  0  1  0  0  0  0  0  0  0  0  0
  138.7060   70.0110  222.6920 C   0  0  0  0  0  0  0  0  0  0  0  0
  139.2470   69.0010  224.9300 C   0  0  0  0  0  0  0  0  0  0  0  0
  139.2370   67.7520  225.5800 C   0  0  0  0  0  0  0  0  0  0  0  0
  140.2530   67.4130  226.4780 C   0  0  0  0  0  0  0  0  0  0  0  0
  141.2900   68.3130  226.7370 C   0  0  0  0  0  0  0  0  0  0  0  0
  141.3100   69.5560  226.1000 C   0  0  0  0  0  0  0  0  0  0  0  0
  140.2960   69.9000  225.2010 C   0  0  0  0  0  0  0  0  0  0  0  0
  130.8662   75.2829  228.5948 H   0  0  0  0  0  0  0  0  0  0  0  0
  131.0826   77.7584  228.3382 H   0  0  0  0  0  0  0  0  0  0  0  0
  132.8361   78.6968  226.8301 H   0  0  0  0  0  0  0  0  0  0  0  0
  134.3579   77.1576  225.5931 H   0  0  0  0  0  0  0  0  0  0  0  0
  135.7903   72.5898  224.5212 H   0  0  0  0  0  0  0  0  0  0  0  0
  137.4700   71.2090  224.9030 H   0  0  0  0  0  0  0  0  0  0  0  0
  137.6295   68.4320  223.6674 H   0  0  0  0  0  0  0  0  0  0  0  0
  139.4052   70.8127  222.9721 H   0  0  0  0  0  0  0  0  0  0  0  0
  139.2366   69.2530  222.0972 H   0  0  0  0  0  0  0  0  0  0  0  0
  137.8828   70.4336  222.0972 H   0  0  0  0  0  0  0  0  0  0  0  0
  138.4242   67.0383  225.3798 H   0  0  0  0  0  0  0  0  0  0  0  0
  140.2362   66.4354  226.9820 H   0  0  0  0  0  0  0  0  0  0  0  0
  142.0900   68.0429  227.4420 H   0  0  0  0  0  0  0  0  0  0  0  0
  142.1250   70.2655  226.3061 H   0  0  0  0  0  0  0  0  0  0  0  0
  140.3180   70.8800  224.7019 H   0  0  0  0  0  0  0  0  0  0  0  0
  1  2  1  0
  2  3  2  0
  3  4  1  0
  4  5  1  0
  5  6  1  0
  6  7  2  0
  7  8  1  0
  8  9  2  0
  9 10  1  0
 10 11  2  0
 11 12  1  0
 12 13  1  0
 13 14  2  0
 13 15  1  0
 15 16  1  0
 16 17  2  0
 17 18  1  0
 18 19  2  0
 18 20  1  0
 20 21  1  0
 21 22  1  0
 21 23  1  0
 23 24  2  0
 24 25  1  0
 25 26  2  0
 26 27  1  0
 27 28  2  0
 17  3  1  0
 28 23  1  0
 15  5  2  0
 12  7  1  0
  8 29  1  0
  9 30  1  0
 10 31  1  0
 11 32  1  0
 16 33  1  0
 20 34  1  0
 21 35  1  6
 22 36  1  0
 22 37  1  0
 22 38  1  0
 24 39  1  0
 25 40  1  0
 26 41  1  0
 27 42  1  0
 28 43  1  0
M  CHG  1   4  -1
M  END
>  <meeko>  (14) 
{"free_energy": -7.69, "intermolecular_energy": -8.88, "internal_energy": -0.88, "cluster_size": 12, "cluster_id": 1, "rank_in_cluster": 6}

$$$$

     RDKit          3D

 43 46  0  0  0  0  0  0  0  0999 V2000
  134.1140   68.3740  226.0180 H   0  0  0  0  0  0  0  0  0  0  0  0
  133.5460   69.1570  226.4060 N   0  0  0  0  0  0  0  0  0  0  0  0
  133.8090   70.4170  226.2350 C   0  0  0  0  0  0  0  0  0  0  0  0
  133.0180   71.3290  226.8600 N   0  0  0  0  0  0  0  0  0  0  0  0
  133.1790   72.6670  226.6990 C   0  0  0  0  0  0  0  0  0  0  0  0
  132.3590   73.5260  227.3490 N   0  0  0  0  0  0  0  0  0  0  0  0
  132.4870   74.8700  227.2080 C   0  0  0  0  0  0  0  0  0  0  0  0
  131.6130   75.7130  227.9030 C   0  0  0  0  0  0  0  0  0  0  0  0
  131.7340   77.0930  227.7670 C   0  0  0  0  0  0  0  0  0  0  0  0
  132.7220   77.6210  226.9420 C   0  0  0  0  0  0  0  0  0  0  0  0
  133.5820   76.7600  226.2590 C   0  0  0  0  0  0  0  0  0  0  0  0
  133.4660   75.3970  226.3900 N   0  0  0  0  0  0  0  0  0  0  0  0
  134.3160   74.5530  225.7140 C   0  0  0  0  0  0  0  0  0  0  0  0
  135.2180   75.0190  224.9620 O   0  0  0  0  0  0  0  0  0  0  0  0
  134.1840   73.1600  225.8590 C   0  0  0  0  0  0  0  0  0  0  0  0
  135.0240   72.2460  225.2030 C   0  0  0  0  0  0  0  0  0  0  0  0
  134.8580   70.8650  225.3890 C   0  0  0  0  0  0  0  0  0  0  0  0
  135.8040   69.9420  224.7230 C   0  0  0  0  0  0  0  0  0  0  0  0
  135.4110   68.8020  224.3540 O   0  0  0  0  0  0  0  0  0  0  0  0
  137.1770   70.3250  224.5380 N   0  0  0  0  0  0  0  0  0  0  0  0
  138.1600   69.4370  223.9080 C   0  0  1  0  0  0  0  0  0  0  0  0
  138.7780   70.1170  222.6820 C   0  0  0  0  0  0  0  0  0  0  0  0
  139.2290   69.0310  224.9050 C   0  0  0  0  0  0  0  0  0  0  0  0
  140.2730   69.9200  225.2230 C   0  0  0  0  0  0  0  0  0  0  0  0
  141.2620   69.5520  226.1400 C   0  0  0  0  0  0  0  0  0  0  0  0
  141.2210   68.2950  226.7490 C   0  0  0  0  0  0  0  0  0  0  0  0
  140.1910   67.4030  226.4410 C   0  0  0  0  0  0  0  0  0  0  0  0
  139.2000   67.7660  225.5240 C   0  0  0  0  0  0  0  0  0  0  0  0
  130.8345   75.2875  228.5533 H   0  0  0  0  0  0  0  0  0  0  0  0
  131.0512   77.7634  228.3096 H   0  0  0  0  0  0  0  0  0  0  0  0
  132.8246   78.7103  226.8288 H   0  0  0  0  0  0  0  0  0  0  0  0
  134.3632   77.1780  225.6070 H   0  0  0  0  0  0  0  0  0  0  0  0
  135.8185   72.6154  224.5380 H   0  0  0  0  0  0  0  0  0  0  0  0
  137.4550   71.2990  224.7930 H   0  0  0  0  0  0  0  0  0  0  0  0
  137.6479   68.5229  223.5730 H   0  0  0  0  0  0  0  0  0  0  0  0
  139.4840   70.8939  223.0106 H   0  0  0  0  0  0  0  0  0  0  0  0
  139.3115   69.3686  222.0776 H   0  0  0  0  0  0  0  0  0  0  0  0
  137.9822   70.5767  222.0776 H   0  0  0  0  0  0  0  0  0  0  0  0
  140.3109   70.9109  224.7468 H   0  0  0  0  0  0  0  0  0  0  0  0
  142.0740   70.2533  226.3826 H   0  0  0  0  0  0  0  0  0  0  0  0
  141.9997   68.0079  227.4709 H   0  0  0  0  0  0  0  0  0  0  0  0
  140.1596   66.4136  226.9206 H   0  0  0  0  0  0  0  0  0  0  0  0
  138.3922   67.0589  225.2843 H   0  0  0  0  0  0  0  0  0  0  0  0
  1  2  1  0
  2  3  2  0
  3  4  1  0
  4  5  1  0
  5  6  1  0
  6  7  2  0
  7  8  1  0
  8  9  2  0
  9 10  1  0
 10 11  2  0
 11 12  1  0
 12 13  1  0
 13 14  2  0
 13 15  1  0
 15 16  1  0
 16 17  2  0
 17 18  1  0
 18 19  2  0
 18 20  1  0
 20 21  1  0
 21 22  1  0
 21 23  1  0
 23 24  2  0
 24 25  1  0
 25 26  2  0
 26 27  1  0
 27 28  2  0
 17  3  1  0
 28 23  1  0
 15  5  2  0
 12  7  1  0
  8 29  1  0
  9 30  1  0
 10 31  1  0
 11 32  1  0
 16 33  1  0
 20 34  1  0
 21 35  1  6
 22 36  1  0
 22 37  1  0
 22 38  1  0
 24 39  1  0
 25 40  1  0
 26 41  1  0
 27 42  1  0
 28 43  1  0
M  CHG  1   4  -1
M  END
>  <meeko>  (15) 
{"free_energy": -7.68, "intermolecular_energy": -8.88, "internal_energy": -0.89, "cluster_size": 12, "cluster_id": 1, "rank_in_cluster": 10}

$$$$

     RDKit          3D

 43 46  0  0  0  0  0  0  0  0999 V2000
  144.0750   77.0480  220.5360 H   0  0  0  0  0  0  0  0  0  0  0  0
  143.8770   76.3890  219.7530 N   0  0  0  0  0  0  0  0  0  0  0  0
  143.6410   75.1210  219.8940 C   0  0  0  0  0  0  0  0  0  0  0  0
  144.6250   74.2440  219.5660 N   0  0  0  0  0  0  0  0  0  0  0  0
  144.4550   72.8980  219.6280 C   0  0  0  0  0  0  0  0  0  0  0  0
  145.4740   72.0750  219.2880 N   0  0  0  0  0  0  0  0  0  0  0  0
  145.3390   70.7250  219.3330 C   0  0  0  0  0  0  0  0  0  0  0  0
  146.4240   69.9200  218.9720 C   0  0  0  0  0  0  0  0  0  0  0  0
  146.2980   68.5350  219.0130 C   0  0  0  0  0  0  0  0  0  0  0  0
  145.0940   67.9630  219.4130 C   0  0  0  0  0  0  0  0  0  0  0  0
  144.0240   68.7870  219.7690 C   0  0  0  0  0  0  0  0  0  0  0  0
  144.1450   70.1550  219.7290 N   0  0  0  0  0  0  0  0  0  0  0  0
  143.0890   70.9620  220.0800 C   0  0  0  0  0  0  0  0  0  0  0  0
  141.9890   70.4560  220.4450 O   0  0  0  0  0  0  0  0  0  0  0  0
  143.2280   72.3610  220.0350 C   0  0  0  0  0  0  0  0  0  0  0  0
  142.1900   73.2390  220.3870 C   0  0  0  0  0  0  0  0  0  0  0  0
  142.3840   74.6280  220.3340 C   0  0  0  0  0  0  0  0  0  0  0  0
  141.2800   75.5130  220.7710 C   0  0  0  0  0  0  0  0  0  0  0  0
  140.0880   75.1040  220.7090 O   0  0  0  0  0  0  0  0  0  0  0  0
  141.5600   76.8490  221.2210 N   0  0  0  0  0  0  0  0  0  0  0  0
  140.5000   77.7730  221.6400 C   0  0  1  0  0  0  0  0  0  0  0  0
  139.4510   77.0330  222.4750 C   0  0  0  0  0  0  0  0  0  0  0  0
  141.0860   78.9420  222.4090 C   0  0  0  0  0  0  0  0  0  0  0  0
  142.4770   79.1580  222.4140 C   0  0  0  0  0  0  0  0  0  0  0  0
  143.0240   80.2320  223.1210 C   0  0  0  0  0  0  0  0  0  0  0  0
  142.1920   81.1020  223.8310 C   0  0  0  0  0  0  0  0  0  0  0  0
  140.8100   80.8970  223.8350 C   0  0  0  0  0  0  0  0  0  0  0  0
  140.2580   79.8240  223.1300 C   0  0  0  0  0  0  0  0  0  0  0  0
  147.3725   70.3796  218.6571 H   0  0  0  0  0  0  0  0  0  0  0  0
  147.1466   67.8947  218.7304 H   0  0  0  0  0  0  0  0  0  0  0  0
  144.9858   66.8689  219.4485 H   0  0  0  0  0  0  0  0  0  0  0  0
  143.0724   68.3350  220.0854 H   0  0  0  0  0  0  0  0  0  0  0  0
  141.2180   72.8352  220.7065 H   0  0  0  0  0  0  0  0  0  0  0  0
  142.5600   77.1340  221.3250 H   0  0  0  0  0  0  0  0  0  0  0  0
  140.0044   78.1734  220.7433 H   0  0  0  0  0  0  0  0  0  0  0  0
  139.6619   77.1818  223.5443 H   0  0  0  0  0  0  0  0  0  0  0  0
  138.4511   77.4267  222.2402 H   0  0  0  0  0  0  0  0  0  0  0  0
  139.4865   75.9589  222.2402 H   0  0  0  0  0  0  0  0  0  0  0  0
  143.1377   78.4768  221.8577 H   0  0  0  0  0  0  0  0  0  0  0  0
  144.1121   80.3931  223.1187 H   0  0  0  0  0  0  0  0  0  0  0  0
  142.6248   81.9473  224.3861 H   0  0  0  0  0  0  0  0  0  0  0  0
  140.1551   81.5815  224.3941 H   0  0  0  0  0  0  0  0  0  0  0  0
  139.1693   79.6672  223.1383 H   0  0  0  0  0  0  0  0  0  0  0  0
  1  2  1  0
  2  3  2  0
  3  4  1  0
  4  5  1  0
  5  6  1  0
  6  7  2  0
  7  8  1  0
  8  9  2  0
  9 10  1  0
 10 11  2  0
 11 12  1  0
 12 13  1  0
 13 14  2  0
 13 15  1  0
 15 16  1  0
 16 17  2  0
 17 18  1  0
 18 19  2  0
 18 20  1  0
 20 21  1  0
 21 22  1  0
 21 23  1  0
 23 24  2  0
 24 25  1  0
 25 26  2  0
 26 27  1  0
 27 28  2  0
 17  3  1  0
 28 23  1  0
 15  5  2  0
 12  7  1  0
  8 29  1  0
  9 30  1  0
 10 31  1  0
 11 32  1  0
 16 33  1  0
 20 34  1  0
 21 35  1  6
 22 36  1  0
 22 37  1  0
 22 38  1  0
 24 39  1  0
 25 40  1  0
 26 41  1  0
 27 42  1  0
 28 43  1  0
M  CHG  1   4  -1
M  END
>  <meeko>  (16) 
{"free_energy": -7.66, "intermolecular_energy": -8.86, "internal_energy": -0.78, "cluster_size": 5, "cluster_id": 2, "rank_in_cluster": 2}

$$$$

     RDKit          3D

 43 46  0  0  0  0  0  0  0  0999 V2000
  134.1000   68.3980  226.0270 H   0  0  0  0  0  0  0  0  0  0  0  0
  133.5720   69.1840  226.4620 N   0  0  0  0  0  0  0  0  0  0  0  0
  133.8310   70.4420  226.2780 C   0  0  0  0  0  0  0  0  0  0  0  0
  133.0430   71.3580  226.9000 N   0  0  0  0  0  0  0  0  0  0  0  0
  133.2000   72.6950  226.7270 C   0  0  0  0  0  0  0  0  0  0  0  0
  132.3840   73.5580  227.3750 N   0  0  0  0  0  0  0  0  0  0  0  0
  132.5090   74.9020  227.2210 C   0  0  0  0  0  0  0  0  0  0  0  0
  131.6390   75.7490  227.9150 C   0  0  0  0  0  0  0  0  0  0  0  0
  131.7560   77.1280  227.7660 C   0  0  0  0  0  0  0  0  0  0  0  0
  132.7370   77.6500  226.9290 C   0  0  0  0  0  0  0  0  0  0  0  0
  133.5940   76.7850  226.2470 C   0  0  0  0  0  0  0  0  0  0  0  0
  133.4810   75.4230  226.3910 N   0  0  0  0  0  0  0  0  0  0  0  0
  134.3270   74.5740  225.7170 C   0  0  0  0  0  0  0  0  0  0  0  0
  135.2230   75.0350  224.9540 O   0  0  0  0  0  0  0  0  0  0  0  0
  134.1990   73.1820  225.8750 C   0  0  0  0  0  0  0  0  0  0  0  0
  135.0350   72.2640  225.2210 C   0  0  0  0  0  0  0  0  0  0  0  0
  134.8730   70.8840  225.4210 C   0  0  0  0  0  0  0  0  0  0  0  0
  135.8160   69.9570  224.7560 C   0  0  0  0  0  0  0  0  0  0  0  0
  135.4280   68.8040  224.4210 O   0  0  0  0  0  0  0  0  0  0  0  0
  137.1800   70.3500  224.5340 N   0  0  0  0  0  0  0  0  0  0  0  0
  138.1610   69.4590  223.9030 C   0  0  1  0  0  0  0  0  0  0  0  0
  138.7740   70.1340  222.6720 C   0  0  0  0  0  0  0  0  0  0  0  0
  139.2320   69.0570  224.8980 C   0  0  0  0  0  0  0  0  0  0  0  0
  139.2100   67.7750  225.4810 C   0  0  0  0  0  0  0  0  0  0  0  0
  140.1940   67.3980  226.3990 C   0  0  0  0  0  0  0  0  0  0  0  0
  141.2090   68.2930  226.7480 C   0  0  0  0  0  0  0  0  0  0  0  0
  141.2410   69.5680  226.1780 C   0  0  0  0  0  0  0  0  0  0  0  0
  140.2600   69.9500  225.2590 C   0  0  0  0  0  0  0  0  0  0  0  0
  130.8664   75.3277  228.5750 H   0  0  0  0  0  0  0  0  0  0  0  0
  131.0759   77.8019  228.3076 H   0  0  0  0  0  0  0  0  0  0  0  0
  132.8367   78.7385  226.8054 H   0  0  0  0  0  0  0  0  0  0  0  0
  134.3697   77.1987  225.5858 H   0  0  0  0  0  0  0  0  0  0  0  0
  135.8235   72.6287  224.5463 H   0  0  0  0  0  0  0  0  0  0  0  0
  137.4520   71.3340  224.7620 H   0  0  0  0  0  0  0  0  0  0  0  0
  137.6484   68.5436  223.5724 H   0  0  0  0  0  0  0  0  0  0  0  0
  139.4810   70.9125  222.9946 H   0  0  0  0  0  0  0  0  0  0  0  0
  139.3055   69.3833  222.0687 H   0  0  0  0  0  0  0  0  0  0  0  0
  137.9757   70.5909  222.0687 H   0  0  0  0  0  0  0  0  0  0  0  0
  138.4132   67.0660  225.2120 H   0  0  0  0  0  0  0  0  0  0  0  0
  140.1695   66.3941  226.8481 H   0  0  0  0  0  0  0  0  0  0  0  0
  141.9821   67.9937  227.4710 H   0  0  0  0  0  0  0  0  0  0  0  0
  142.0398   70.2725  226.4530 H   0  0  0  0  0  0  0  0  0  0  0  0
  140.2907   70.9556  224.8141 H   0  0  0  0  0  0  0  0  0  0  0  0
  1  2  1  0
  2  3  2  0
  3  4  1  0
  4  5  1  0
  5  6  1  0
  6  7  2  0
  7  8  1  0
  8  9  2  0
  9 10  1  0
 10 11  2  0
 11 12  1  0
 12 13  1  0
 13 14  2  0
 13 15  1  0
 15 16  1  0
 16 17  2  0
 17 18  1  0
 18 19  2  0
 18 20  1  0
 20 21  1  0
 21 22  1  0
 21 23  1  0
 23 24  2  0
 24 25  1  0
 25 26  2  0
 26 27  1  0
 27 28  2  0
 17  3  1  0
 28 23  1  0
 15  5  2  0
 12  7  1  0
  8 29  1  0
  9 30  1  0
 10 31  1  0
 11 32  1  0
 16 33  1  0
 20 34  1  0
 21 35  1  6
 22 36  1  0
 22 37  1  0
 22 38  1  0
 24 39  1  0
 25 40  1  0
 26 41  1  0
 27 42  1  0
 28 43  1  0
M  CHG  1   4  -1
M  END
>  <meeko>  (17) 
{"free_energy": -7.68, "intermolecular_energy": -8.88, "internal_energy": -0.89, "cluster_size": 12, "cluster_id": 1, "rank_in_cluster": 9}

$$$$

     RDKit          3D

 43 46  0  0  0  0  0  0  0  0999 V2000
  134.0170   68.4240  225.9050 H   0  0  0  0  0  0  0  0  0  0  0  0
  133.5850   69.2010  226.4490 N   0  0  0  0  0  0  0  0  0  0  0  0
  133.8380   70.4610  226.2690 C   0  0  0  0  0  0  0  0  0  0  0  0
  133.0500   71.3710  226.8990 N   0  0  0  0  0  0  0  0  0  0  0  0
  133.2020   72.7100  226.7300 C   0  0  0  0  0  0  0  0  0  0  0  0
  132.3850   73.5670  227.3850 N   0  0  0  0  0  0  0  0  0  0  0  0
  132.5040   74.9120  227.2360 C   0  0  0  0  0  0  0  0  0  0  0  0
  131.6340   75.7530  227.9370 C   0  0  0  0  0  0  0  0  0  0  0  0
  131.7460   77.1330  227.7940 C   0  0  0  0  0  0  0  0  0  0  0  0
  132.7210   77.6620  226.9540 C   0  0  0  0  0  0  0  0  0  0  0  0
  133.5780   76.8030  226.2650 C   0  0  0  0  0  0  0  0  0  0  0  0
  133.4710   75.4400  226.4050 N   0  0  0  0  0  0  0  0  0  0  0  0
  134.3170   74.5970  225.7230 C   0  0  0  0  0  0  0  0  0  0  0  0
  135.2080   75.0650  224.9580 O   0  0  0  0  0  0  0  0  0  0  0  0
  134.1950   73.2040  225.8760 C   0  0  0  0  0  0  0  0  0  0  0  0
  135.0320   72.2920  225.2140 C   0  0  0  0  0  0  0  0  0  0  0  0
  134.8750   70.9100  225.4090 C   0  0  0  0  0  0  0  0  0  0  0  0
  135.8190   69.9900  224.7360 C   0  0  0  0  0  0  0  0  0  0  0  0
  135.4380   68.8310  224.4120 O   0  0  0  0  0  0  0  0  0  0  0  0
  137.1760   70.3950  224.4950 N   0  0  0  0  0  0  0  0  0  0  0  0
  138.1570   69.5110  223.8550 C   0  0  1  0  0  0  0  0  0  0  0  0
  138.7910   70.2090  222.6480 C   0  0  0  0  0  0  0  0  0  0  0  0
  139.2130   69.0770  224.8530 C   0  0  0  0  0  0  0  0  0  0  0  0
  140.2210   69.9750  225.2510 C   0  0  0  0  0  0  0  0  0  0  0  0
  141.1990   69.5810  226.1690 C   0  0  0  0  0  0  0  0  0  0  0  0
  141.1830   68.2890  226.7000 C   0  0  0  0  0  0  0  0  0  0  0  0
  140.1880   67.3870  226.3120 C   0  0  0  0  0  0  0  0  0  0  0  0
  139.2080   67.7760  225.3940 C   0  0  0  0  0  0  0  0  0  0  0  0
  130.8652   75.3262  228.5979 H   0  0  0  0  0  0  0  0  0  0  0  0
  131.0669   77.8023  228.3425 H   0  0  0  0  0  0  0  0  0  0  0  0
  132.8157   78.7513  226.8337 H   0  0  0  0  0  0  0  0  0  0  0  0
  134.3489   77.2220  225.6015 H   0  0  0  0  0  0  0  0  0  0  0  0
  135.8165   72.6624  224.5377 H   0  0  0  0  0  0  0  0  0  0  0  0
  137.4410   71.3830  224.7140 H   0  0  0  0  0  0  0  0  0  0  0  0
  137.6403   68.6083  223.4969 H   0  0  0  0  0  0  0  0  0  0  0  0
  139.4923   70.9810  222.9975 H   0  0  0  0  0  0  0  0  0  0  0  0
  139.3329   69.4697  222.0398 H   0  0  0  0  0  0  0  0  0  0  0  0
  138.0032   70.6775  222.0398 H   0  0  0  0  0  0  0  0  0  0  0  0
  140.2394   70.9939  224.8369 H   0  0  0  0  0  0  0  0  0  0  0  0
  141.9829   70.2899  226.4739 H   0  0  0  0  0  0  0  0  0  0  0  0
  141.9529   67.9816  227.4230 H   0  0  0  0  0  0  0  0  0  0  0  0
  140.1761   66.3695  226.7297 H   0  0  0  0  0  0  0  0  0  0  0  0
  138.4279   67.0617  225.0921 H   0  0  0  0  0  0  0  0  0  0  0  0
  1  2  1  0
  2  3  2  0
  3  4  1  0
  4  5  1  0
  5  6  1  0
  6  7  2  0
  7  8  1  0
  8  9  2  0
  9 10  1  0
 10 11  2  0
 11 12  1  0
 12 13  1  0
 13 14  2  0
 13 15  1  0
 15 16  1  0
 16 17  2  0
 17 18  1  0
 18 19  2  0
 18 20  1  0
 20 21  1  0
 21 22  1  0
 21 23  1  0
 23 24  2  0
 24 25  1  0
 25 26  2  0
 26 27  1  0
 27 28  2  0
 17  3  1  0
 28 23  1  0
 15  5  2  0
 12  7  1  0
  8 29  1  0
  9 30  1  0
 10 31  1  0
 11 32  1  0
 16 33  1  0
 20 34  1  0
 21 35  1  6
 22 36  1  0
 22 37  1  0
 22 38  1  0
 24 39  1  0
 25 40  1  0
 26 41  1  0
 27 42  1  0
 28 43  1  0
M  CHG  1   4  -1
M  END
>  <meeko>  (18) 
{"free_energy": -7.67, "intermolecular_energy": -8.87, "internal_energy": -0.89, "cluster_size": 12, "cluster_id": 1, "rank_in_cluster": 12}

$$$$

     RDKit          3D

 43 46  0  0  0  0  0  0  0  0999 V2000
  144.4530   76.7810  220.5050 H   0  0  0  0  0  0  0  0  0  0  0  0
  144.0440   76.1930  219.7490 N   0  0  0  0  0  0  0  0  0  0  0  0
  143.7710   74.9290  219.8590 C   0  0  0  0  0  0  0  0  0  0  0  0
  144.7510   74.0330  219.5690 N   0  0  0  0  0  0  0  0  0  0  0  0
  144.5470   72.6910  219.6030 C   0  0  0  0  0  0  0  0  0  0  0  0
  145.5620   71.8480  219.3020 N   0  0  0  0  0  0  0  0  0  0  0  0
  145.3930   70.5010  219.3210 C   0  0  0  0  0  0  0  0  0  0  0  0
  146.4770   69.6760  219.0030 C   0  0  0  0  0  0  0  0  0  0  0  0
  146.3170   68.2930  219.0180 C   0  0  0  0  0  0  0  0  0  0  0  0
  145.0810   67.7450  219.3480 C   0  0  0  0  0  0  0  0  0  0  0  0
  144.0140   68.5900  219.6620 C   0  0  0  0  0  0  0  0  0  0  0  0
  144.1680   69.9540  219.6490 N   0  0  0  0  0  0  0  0  0  0  0  0
  143.1150   70.7820  219.9570 C   0  0  0  0  0  0  0  0  0  0  0  0
  141.9870   70.2980  220.2590 O   0  0  0  0  0  0  0  0  0  0  0  0
  143.2880   72.1780  219.9390 C   0  0  0  0  0  0  0  0  0  0  0  0
  142.2550   73.0750  220.2510 C   0  0  0  0  0  0  0  0  0  0  0  0
  142.4820   74.4600  220.2280 C   0  0  0  0  0  0  0  0  0  0  0  0
  141.3790   75.3650  220.6220 C   0  0  0  0  0  0  0  0  0  0  0  0
  140.1840   74.9760  220.5180 O   0  0  0  0  0  0  0  0  0  0  0  0
  141.6650   76.6980  221.0770 N   0  0  0  0  0  0  0  0  0  0  0  0
  140.6070   77.6420  221.4530 C   0  0  1  0  0  0  0  0  0  0  0  0
  139.5700   76.9480  222.3420 C   0  0  0  0  0  0  0  0  0  0  0  0
  141.1970   78.8550  222.1460 C   0  0  0  0  0  0  0  0  0  0  0  0
  141.6680   78.7540  223.4690 C   0  0  0  0  0  0  0  0  0  0  0  0
  142.2120   79.8680  224.1140 C   0  0  0  0  0  0  0  0  0  0  0  0
  142.2910   81.0950  223.4490 C   0  0  0  0  0  0  0  0  0  0  0  0
  141.8250   81.2090  222.1370 C   0  0  0  0  0  0  0  0  0  0  0  0
  141.2800   80.0970  221.4870 C   0  0  0  0  0  0  0  0  0  0  0  0
  147.4503   70.1174  218.7426 H   0  0  0  0  0  0  0  0  0  0  0  0
  147.1639   67.6363  218.7701 H   0  0  0  0  0  0  0  0  0  0  0  0
  144.9452   66.6535  219.3615 H   0  0  0  0  0  0  0  0  0  0  0  0
  143.0373   68.1566  219.9232 H   0  0  0  0  0  0  0  0  0  0  0  0
  141.2593   72.6897  220.5158 H   0  0  0  0  0  0  0  0  0  0  0  0
  142.6660   76.9670  221.2150 H   0  0  0  0  0  0  0  0  0  0  0  0
  140.1004   77.9887  220.5403 H   0  0  0  0  0  0  0  0  0  0  0  0
  139.8219   77.1166  223.3994 H   0  0  0  0  0  0  0  0  0  0  0  0
  138.5722   77.3610  222.1324 H   0  0  0  0  0  0  0  0  0  0  0  0
  139.5713   75.8681  222.1324 H   0  0  0  0  0  0  0  0  0  0  0  0
  141.6074   77.7917  223.9985 H   0  0  0  0  0  0  0  0  0  0  0  0
  142.5788   79.7791  225.1472 H   0  0  0  0  0  0  0  0  0  0  0  0
  142.7199   81.9704  223.9586 H   0  0  0  0  0  0  0  0  0  0  0  0
  141.8868   82.1749  221.6143 H   0  0  0  0  0  0  0  0  0  0  0  0
  140.9137   80.1930  220.4542 H   0  0  0  0  0  0  0  0  0  0  0  0
  1  2  1  0
  2  3  2  0
  3  4  1  0
  4  5  1  0
  5  6  1  0
  6  7  2  0
  7  8  1  0
  8  9  2  0
  9 10  1  0
 10 11  2  0
 11 12  1  0
 12 13  1  0
 13 14  2  0
 13 15  1  0
 15 16  1  0
 16 17  2  0
 17 18  1  0
 18 19  2  0
 18 20  1  0
 20 21  1  0
 21 22  1  0
 21 23  1  0
 23 24  2  0
 24 25  1  0
 25 26  2  0
 26 27  1  0
 27 28  2  0
 17  3  1  0
 28 23  1  0
 15  5  2  0
 12  7  1  0
  8 29  1  0
  9 30  1  0
 10 31  1  0
 11 32  1  0
 16 33  1  0
 20 34  1  0
 21 35  1  6
 22 36  1  0
 22 37  1  0
 22 38  1  0
 24 39  1  0
 25 40  1  0
 26 41  1  0
 27 42  1  0
 28 43  1  0
M  CHG  1   4  -1
M  END
>  <meeko>  (19) 
{"free_energy": -7.61, "intermolecular_energy": -8.8, "internal_energy": -0.83, "cluster_size": 5, "cluster_id": 2, "rank_in_cluster": 3}

$$$$

     RDKit          3D

 43 46  0  0  0  0  0  0  0  0999 V2000
  134.0140   68.4040  225.8900 H   0  0  0  0  0  0  0  0  0  0  0  0
  133.6280   69.1800  226.4690 N   0  0  0  0  0  0  0  0  0  0  0  0
  133.8750   70.4400  226.2780 C   0  0  0  0  0  0  0  0  0  0  0  0
  133.0910   71.3520  226.9110 N   0  0  0  0  0  0  0  0  0  0  0  0
  133.2360   72.6900  226.7320 C   0  0  0  0  0  0  0  0  0  0  0  0
  132.4240   73.5480  227.3920 N   0  0  0  0  0  0  0  0  0  0  0  0
  132.5370   74.8930  227.2340 C   0  0  0  0  0  0  0  0  0  0  0  0
  131.6720   75.7350  227.9400 C   0  0  0  0  0  0  0  0  0  0  0  0
  131.7770   77.1140  227.7860 C   0  0  0  0  0  0  0  0  0  0  0  0
  132.7400   77.6420  226.9320 C   0  0  0  0  0  0  0  0  0  0  0  0
  133.5920   76.7810  226.2380 C   0  0  0  0  0  0  0  0  0  0  0  0
  133.4920   75.4190  226.3870 N   0  0  0  0  0  0  0  0  0  0  0  0
  134.3320   74.5750  225.7000 C   0  0  0  0  0  0  0  0  0  0  0  0
  135.2110   75.0400  224.9210 O   0  0  0  0  0  0  0  0  0  0  0  0
  134.2170   73.1820  225.8630 C   0  0  0  0  0  0  0  0  0  0  0  0
  135.0490   72.2690  225.1970 C   0  0  0  0  0  0  0  0  0  0  0  0
  134.9000   70.8880  225.4020 C   0  0  0  0  0  0  0  0  0  0  0  0
  135.8380   69.9660  224.7240 C   0  0  0  0  0  0  0  0  0  0  0  0
  135.4420   68.8240  224.3630 O   0  0  0  0  0  0  0  0  0  0  0  0
  137.2070   70.3520  224.5170 N   0  0  0  0  0  0  0  0  0  0  0  0
  138.1830   69.4650  223.8730 C   0  0  1  0  0  0  0  0  0  0  0  0
  138.7910   70.1500  222.6460 C   0  0  0  0  0  0  0  0  0  0  0  0
  139.2590   69.0520  224.8590 C   0  0  0  0  0  0  0  0  0  0  0  0
  139.2360   67.7670  225.4330 C   0  0  0  0  0  0  0  0  0  0  0  0
  140.2230   67.3800  226.3440 C   0  0  0  0  0  0  0  0  0  0  0  0
  141.2440   68.2690  226.6920 C   0  0  0  0  0  0  0  0  0  0  0  0
  141.2770   69.5480  226.1310 C   0  0  0  0  0  0  0  0  0  0  0  0
  140.2910   69.9400  225.2200 C   0  0  0  0  0  0  0  0  0  0  0  0
  130.9130   75.3097  228.6131 H   0  0  0  0  0  0  0  0  0  0  0  0
  131.1011   77.7841  228.3374 H   0  0  0  0  0  0  0  0  0  0  0  0
  132.8295   78.7309  226.8044 H   0  0  0  0  0  0  0  0  0  0  0  0
  134.3535   77.1987  225.5629 H   0  0  0  0  0  0  0  0  0  0  0  0
  135.8239   72.6381  224.5090 H   0  0  0  0  0  0  0  0  0  0  0  0
  137.4860   71.3280  224.7660 H   0  0  0  0  0  0  0  0  0  0  0  0
  137.6668   68.5537  223.5369 H   0  0  0  0  0  0  0  0  0  0  0  0
  139.4883   70.9356  222.9725 H   0  0  0  0  0  0  0  0  0  0  0  0
  139.3325   69.4071  222.0420 H   0  0  0  0  0  0  0  0  0  0  0  0
  137.9890   70.5995  222.0420 H   0  0  0  0  0  0  0  0  0  0  0  0
  138.4357   67.0624  225.1628 H   0  0  0  0  0  0  0  0  0  0  0  0
  140.1962   66.3739  226.7879 H   0  0  0  0  0  0  0  0  0  0  0  0
  142.0211   67.9617  227.4073 H   0  0  0  0  0  0  0  0  0  0  0  0
  142.0798   70.2478  226.4063 H   0  0  0  0  0  0  0  0  0  0  0  0
  140.3216   70.9487  224.7824 H   0  0  0  0  0  0  0  0  0  0  0  0
  1  2  1  0
  2  3  2  0
  3  4  1  0
  4  5  1  0
  5  6  1  0
  6  7  2  0
  7  8  1  0
  8  9  2  0
  9 10  1  0
 10 11  2  0
 11 12  1  0
 12 13  1  0
 13 14  2  0
 13 15  1  0
 15 16  1  0
 16 17  2  0
 17 18  1  0
 18 19  2  0
 18 20  1  0
 20 21  1  0
 21 22  1  0
 21 23  1  0
 23 24  2  0
 24 25  1  0
 25 26  2  0
 26 27  1  0
 27 28  2  0
 17  3  1  0
 28 23  1  0
 15  5  2  0
 12  7  1  0
  8 29  1  0
  9 30  1  0
 10 31  1  0
 11 32  1  0
 16 33  1  0
 20 34  1  0
 21 35  1  6
 22 36  1  0
 22 37  1  0
 22 38  1  0
 24 39  1  0
 25 40  1  0
 26 41  1  0
 27 42  1  0
 28 43  1  0
M  CHG  1   4  -1
M  END
>  <meeko>  (20) 
{"free_energy": -7.68, "intermolecular_energy": -8.87, "internal_energy": -0.89, "cluster_size": 12, "cluster_id": 1, "rank_in_cluster": 11}

$$$$
