
     RDKit          3D

 62 65  0  0  0  0  0  0  0  0999 V2000
  131.6900   75.1180  227.4990 C   0  0  0  0  0  0  0  0  0  0  0  0
  133.0160   74.5910  227.5030 O   0  0  0  0  0  0  0  0  0  0  0  0
  133.5700   73.8220  226.4730 C   0  0  0  0  0  0  0  0  0  0  0  0
  134.0030   74.4760  225.3160 C   0  0  0  0  0  0  0  0  0  0  0  0
  134.5660   73.7590  224.2630 C   0  0  0  0  0  0  0  0  0  0  0  0
  134.6940   72.3510  224.3340 C   0  0  0  0  0  0  0  0  0  0  0  0
  135.3230   71.5890  223.1710 C   0  0  2  0  0  0  0  0  0  0  0  0
  136.8130   71.3130  223.4110 C   0  0  0  0  0  0  0  0  0  0  0  0
  135.0630   72.2660  221.8950 N   0  0  0  0  0  0  0  0  0  0  0  0
  136.0050   72.8820  221.0060 C   0  0  0  0  0  0  0  0  0  0  0  0
  135.7790   72.9590  219.7670 O   0  0  0  0  0  0  0  0  0  0  0  0
  137.2610   73.4880  221.5750 C   0  0  2  0  0  0  0  0  0  0  0  0
  136.9600   74.7880  222.3250 C   0  0  0  0  0  0  0  0  0  0  0  0
  138.0300   75.7910  221.8790 C   0  0  1  0  0  0  0  0  0  0  0  0
  139.0650   75.8270  222.8260 O   0  0  0  0  0  0  0  0  0  0  0  0
  138.5610   75.2580  220.5500 C   0  0  0  0  0  0  0  0  0  0  0  0
  138.1900   73.8530  220.5130 N   0  0  0  0  0  0  0  0  0  0  0  0
  138.7660   72.8900  219.6090 C   0  0  0  0  0  0  0  0  0  0  0  0
  138.0500   72.3680  218.7150 O   0  0  0  0  0  0  0  0  0  0  0  0
  140.2230   72.5320  219.6780 C   0  0  0  0  0  0  0  0  0  0  0  0
  140.4840   71.7480  220.8780 N   0  0  0  0  0  0  0  0  0  0  0  0
  140.4020   72.3130  222.1960 C   0  0  0  0  0  0  0  0  0  0  0  0
  140.4890   73.5620  222.3440 O   0  0  0  0  0  0  0  0  0  0  0  0
  140.1920   71.4410  223.3690 C   0  0  0  0  0  0  0  0  0  0  0  0
  139.6420   70.1550  223.2340 C   0  0  0  0  0  0  0  0  0  0  0  0
  139.4890   69.3470  224.3640 C   0  0  0  0  0  0  0  0  0  0  0  0
  139.8850   69.8220  225.6210 C   0  0  0  0  0  0  0  0  0  0  0  0
  139.7420   69.0420  226.7790 C   0  0  0  0  0  0  0  0  0  0  0  0
  140.1560   69.5470  228.0170 C   0  0  0  0  0  0  0  0  0  0  0  0
  140.0270   68.7900  229.1320 F   0  0  0  0  0  0  0  0  0  0  0  0
  140.7180   70.8260  228.1030 C   0  0  0  0  0  0  0  0  0  0  0  0
  140.8610   71.6090  226.9550 C   0  0  0  0  0  0  0  0  0  0  0  0
  140.4430   71.1160  225.7150 C   0  0  0  0  0  0  0  0  0  0  0  0
  140.5780   71.8780  224.6000 N   0  0  0  0  0  0  0  0  0  0  0  0
  134.2540   71.6900  225.5100 C   0  0  0  0  0  0  0  0  0  0  0  0
  134.3730   69.9450  225.7240 Cl  0  0  0  0  0  0  0  0  0  0  0  0
  133.7040   72.4290  226.5660 C   0  0  0  0  0  0  0  0  0  0  0  0
  131.3466   75.2545  228.5350 H   0  0  0  0  0  0  0  0  0  0  0  0
  131.6823   76.0875  226.9794 H   0  0  0  0  0  0  0  0  0  0  0  0
  131.0189   74.4182  226.9794 H   0  0  0  0  0  0  0  0  0  0  0  0
  133.8980   75.5681  225.2363 H   0  0  0  0  0  0  0  0  0  0  0  0
  134.9149   74.2926  223.3666 H   0  0  0  0  0  0  0  0  0  0  0  0
  134.8405   70.6024  223.1089 H   0  0  0  0  0  0  0  0  0  0  0  0
  137.0096   71.2766  224.4927 H   0  0  0  0  0  0  0  0  0  0  0  0
  137.0853   70.3491  222.9562 H   0  0  0  0  0  0  0  0  0  0  0  0
  137.4124   72.1154  222.9562 H   0  0  0  0  0  0  0  0  0  0  0  0
  137.6890   72.7288  222.2462 H   0  0  0  0  0  0  0  0  0  0  0  0
  135.9574   75.1570  222.0630 H   0  0  0  0  0  0  0  0  0  0  0  0
  136.9780   74.6378  223.4145 H   0  0  0  0  0  0  0  0  0  0  0  0
  137.6266   76.8095  221.7795 H   0  0  0  0  0  0  0  0  0  0  0  0
  139.1940   74.8960  223.1460 H   0  0  0  0  0  0  0  0  0  0  0  0
  138.1016   75.7982  219.7091 H   0  0  0  0  0  0  0  0  0  0  0  0
  139.6493   75.3928  220.4643 H   0  0  0  0  0  0  0  0  0  0  0  0
  140.4963   71.9425  218.7904 H   0  0  0  0  0  0  0  0  0  0  0  0
  140.8217   73.4542  219.7102 H   0  0  0  0  0  0  0  0  0  0  0  0
  140.6770   70.7330  220.7680 H   0  0  0  0  0  0  0  0  0  0  0  0
  139.3336   69.7864  222.2445 H   0  0  0  0  0  0  0  0  0  0  0  0
  139.0583   68.3395  224.2665 H   0  0  0  0  0  0  0  0  0  0  0  0
  139.3049   68.0347  226.7137 H   0  0  0  0  0  0  0  0  0  0  0  0
  141.0480   71.2157  229.0773 H   0  0  0  0  0  0  0  0  0  0  0  0
  141.3026   72.6139  227.0265 H   0  0  0  0  0  0  0  0  0  0  0  0
  133.3736   71.9107  227.4782 H   0  0  0  0  0  0  0  0  0  0  0  0
  1  2  1  0
  2  3  1  0
  3  4  2  0
  4  5  1  0
  5  6  2  0
  6  7  1  0
  7  8  1  0
  7  9  1  0
  9 10  1  0
 10 11  2  0
 10 12  1  0
 12 13  1  0
 13 14  1  0
 14 15  1  0
 14 16  1  0
 16 17  1  0
 17 18  1  0
 18 19  2  0
 18 20  1  0
 20 21  1  0
 21 22  1  0
 22 23  2  0
 22 24  1  0
 24 25  2  0
 25 26  1  0
 26 27  2  0
 27 28  1  0
 28 29  2  0
 29 30  1  0
 29 31  1  0
 31 32  2  0
 32 33  1  0
 33 34  2  0
  6 35  1  0
 35 36  1  0
 35 37  2  0
 37  3  1  0
 17 12  1  0
 34 24  1  0
 33 27  1  0
  1 38  1  0
  1 39  1  0
  1 40  1  0
  4 41  1  0
  5 42  1  0
  7 43  1  6
  8 44  1  0
  8 45  1  0
  8 46  1  0
 12 47  1  1
 13 48  1  0
 13 49  1  0
 14 50  1  6
 15 51  1  0
 16 52  1  0
 16 53  1  0
 20 54  1  0
 20 55  1  0
 21 56  1  0
 25 57  1  0
 26 58  1  0
 28 59  1  0
 31 60  1  0
 32 61  1  0
 37 62  1  0
M  CHG  1   9  -1
M  END
>  <meeko>  (1) 
{"free_energy": -6.99, "intermolecular_energy": -9.97, "internal_energy": -3.01, "cluster_size": 2, "cluster_id": 6, "rank_in_cluster": 2}

$$$$

     RDKit          3D

 62 65  0  0  0  0  0  0  0  0999 V2000
  142.5510   81.6340  224.1800 C   0  0  0  0  0  0  0  0  0  0  0  0
  141.5860   80.5980  224.0110 O   0  0  0  0  0  0  0  0  0  0  0  0
  141.5470   79.7160  222.9240 C   0  0  0  0  0  0  0  0  0  0  0  0
  141.2050   78.3820  223.1640 C   0  0  0  0  0  0  0  0  0  0  0  0
  141.1470   77.4650  222.1180 C   0  0  0  0  0  0  0  0  0  0  0  0
  141.4510   77.8590  220.7920 C   0  0  0  0  0  0  0  0  0  0  0  0
  141.3710   76.8370  219.6620 C   0  0  2  0  0  0  0  0  0  0  0  0
  140.4580   75.6590  220.0240 C   0  0  0  0  0  0  0  0  0  0  0  0
  142.7110   76.4150  219.2360 N   0  0  0  0  0  0  0  0  0  0  0  0
  143.1790   75.0890  218.9550 C   0  0  0  0  0  0  0  0  0  0  0  0
  143.1960   74.6410  217.7750 O   0  0  0  0  0  0  0  0  0  0  0  0
  143.7020   74.2420  220.0840 C   0  0  2  0  0  0  0  0  0  0  0  0
  145.1110   74.6750  220.4980 C   0  0  0  0  0  0  0  0  0  0  0  0
  145.9220   73.3840  220.6550 C   0  0  1  0  0  0  0  0  0  0  0  0
  145.9550   73.0120  222.0080 O   0  0  0  0  0  0  0  0  0  0  0  0
  145.1710   72.3290  219.8460 C   0  0  0  0  0  0  0  0  0  0  0  0
  143.8240   72.8480  219.6750 N   0  0  0  0  0  0  0  0  0  0  0  0
  142.6970   72.0490  219.2660 C   0  0  0  0  0  0  0  0  0  0  0  0
  142.8490   71.1600  218.3880 O   0  0  0  0  0  0  0  0  0  0  0  0
  141.3490   72.2190  219.9050 C   0  0  0  0  0  0  0  0  0  0  0  0
  141.3640   71.6580  221.2500 N   0  0  0  0  0  0  0  0  0  0  0  0
  140.6670   72.2740  222.3440 C   0  0  0  0  0  0  0  0  0  0  0  0
  140.3560   73.4950  222.2770 O   0  0  0  0  0  0  0  0  0  0  0  0
  140.2930   71.4790  223.5320 C   0  0  0  0  0  0  0  0  0  0  0  0
  139.5300   70.3050  223.4140 C   0  0  0  0  0  0  0  0  0  0  0  0
  139.2240   69.5620  224.5570 C   0  0  0  0  0  0  0  0  0  0  0  0
  139.6800   69.9920  225.8110 C   0  0  0  0  0  0  0  0  0  0  0  0
  139.3880   69.2750  226.9820 C   0  0  0  0  0  0  0  0  0  0  0  0
  139.8670   69.7290  228.2160 C   0  0  0  0  0  0  0  0  0  0  0  0
  139.5930   69.0330  229.3450 F   0  0  0  0  0  0  0  0  0  0  0  0
  140.6410   70.8930  228.2860 C   0  0  0  0  0  0  0  0  0  0  0  0
  140.9320   71.6130  227.1250 C   0  0  0  0  0  0  0  0  0  0  0  0
  140.4520   71.1700  225.8880 C   0  0  0  0  0  0  0  0  0  0  0  0
  140.7320   71.8720  224.7600 N   0  0  0  0  0  0  0  0  0  0  0  0
  141.7980   79.2140  220.5520 C   0  0  0  0  0  0  0  0  0  0  0  0
  142.1830   79.8290  218.9470 Cl  0  0  0  0  0  0  0  0  0  0  0  0
  141.8360   80.1270  221.6150 C   0  0  0  0  0  0  0  0  0  0  0  0
  142.7154   81.8105  225.2532 H   0  0  0  0  0  0  0  0  0  0  0  0
  143.4982   81.3332  223.7086 H   0  0  0  0  0  0  0  0  0  0  0  0
  142.1838   82.5576  223.7086 H   0  0  0  0  0  0  0  0  0  0  0  0
  140.9795   78.0536  224.1893 H   0  0  0  0  0  0  0  0  0  0  0  0
  140.8619   76.4227  222.3237 H   0  0  0  0  0  0  0  0  0  0  0  0
  140.9033   77.3246  218.7940 H   0  0  0  0  0  0  0  0  0  0  0  0
  140.3897   75.5708  221.1183 H   0  0  0  0  0  0  0  0  0  0  0  0
  139.4549   75.8308  219.6067 H   0  0  0  0  0  0  0  0  0  0  0  0
  140.8746   74.7304  219.6067 H   0  0  0  0  0  0  0  0  0  0  0  0
  142.9874   74.3624  220.9115 H   0  0  0  0  0  0  0  0  0  0  0  0
  145.5574   75.3146  219.7224 H   0  0  0  0  0  0  0  0  0  0  0  0
  145.0953   75.2564  221.4317 H   0  0  0  0  0  0  0  0  0  0  0  0
  146.9598   73.5022  220.3099 H   0  0  0  0  0  0  0  0  0  0  0  0
  145.7660   72.0370  222.0430 H   0  0  0  0  0  0  0  0  0  0  0  0
  145.6521   72.1818  218.8678 H   0  0  0  0  0  0  0  0  0  0  0  0
  145.1683   71.3538  220.3549 H   0  0  0  0  0  0  0  0  0  0  0  0
  141.1033   73.2898  219.9591 H   0  0  0  0  0  0  0  0  0  0  0  0
  140.5933   71.6944  219.3019 H   0  0  0  0  0  0  0  0  0  0  0  0
  141.8480   70.7510  221.3980 H   0  0  0  0  0  0  0  0  0  0  0  0
  139.1755   69.9727  222.4271 H   0  0  0  0  0  0  0  0  0  0  0  0
  138.6268   68.6420  224.4732 H   0  0  0  0  0  0  0  0  0  0  0  0
  138.7835   68.3575  226.9297 H   0  0  0  0  0  0  0  0  0  0  0  0
  141.0210   71.2416  229.2576 H   0  0  0  0  0  0  0  0  0  0  0  0
  141.5388   72.5286  227.1834 H   0  0  0  0  0  0  0  0  0  0  0  0
  142.0955   81.1780  221.4200 H   0  0  0  0  0  0  0  0  0  0  0  0
  1  2  1  0
  2  3  1  0
  3  4  2  0
  4  5  1  0
  5  6  2  0
  6  7  1  0
  7  8  1  0
  7  9  1  0
  9 10  1  0
 10 11  2  0
 10 12  1  0
 12 13  1  0
 13 14  1  0
 14 15  1  0
 14 16  1  0
 16 17  1  0
 17 18  1  0
 18 19  2  0
 18 20  1  0
 20 21  1  0
 21 22  1  0
 22 23  2  0
 22 24  1  0
 24 25  2  0
 25 26  1  0
 26 27  2  0
 27 28  1  0
 28 29  2  0
 29 30  1  0
 29 31  1  0
 31 32  2  0
 32 33  1  0
 33 34  2  0
  6 35  1  0
 35 36  1  0
 35 37  2  0
 37  3  1  0
 17 12  1  0
 34 24  1  0
 33 27  1  0
  1 38  1  0
  1 39  1  0
  1 40  1  0
  4 41  1  0
  5 42  1  0
  7 43  1  6
  8 44  1  0
  8 45  1  0
  8 46  1  0
 12 47  1  1
 13 48  1  0
 13 49  1  0
 14 50  1  6
 15 51  1  0
 16 52  1  0
 16 53  1  0
 20 54  1  0
 20 55  1  0
 21 56  1  0
 25 57  1  0
 26 58  1  0
 28 59  1  0
 31 60  1  0
 32 61  1  0
 37 62  1  0
M  CHG  1   9  -1
M  END
>  <meeko>  (2) 
{"free_energy": -8.45, "intermolecular_energy": -11.44, "internal_energy": -2.02, "cluster_size": 4, "cluster_id": 2, "rank_in_cluster": 1}

$$$$

     RDKit          3D

 62 65  0  0  0  0  0  0  0  0999 V2000
  142.5800   81.2910  224.1920 C   0  0  0  0  0  0  0  0  0  0  0  0
  142.8210   80.6510  222.9400 O   0  0  0  0  0  0  0  0  0  0  0  0
  142.1430   79.5150  222.4830 C   0  0  0  0  0  0  0  0  0  0  0  0
  141.7570   78.5520  223.4190 C   0  0  0  0  0  0  0  0  0  0  0  0
  141.0750   77.4050  223.0180 C   0  0  0  0  0  0  0  0  0  0  0  0
  140.7760   77.1820  221.6530 C   0  0  0  0  0  0  0  0  0  0  0  0
  140.0200   75.9220  221.2400 C   0  0  2  0  0  0  0  0  0  0  0  0
  138.5190   76.1900  221.0680 C   0  0  0  0  0  0  0  0  0  0  0  0
  140.3030   74.8130  222.1580 N   0  0  0  0  0  0  0  0  0  0  0  0
  141.0690   73.6260  221.9090 C   0  0  0  0  0  0  0  0  0  0  0  0
  141.0660   72.6640  222.7270 O   0  0  0  0  0  0  0  0  0  0  0  0
  141.8490   73.5130  220.6260 C   0  0  2  0  0  0  0  0  0  0  0  0
  142.8330   74.6740  220.4680 C   0  0  0  0  0  0  0  0  0  0  0  0
  142.6930   75.1540  219.0190 C   0  0  1  0  0  0  0  0  0  0  0  0
  143.7040   74.5760  218.2340 O   0  0  0  0  0  0  0  0  0  0  0  0
  141.3270   74.6560  218.5540 C   0  0  0  0  0  0  0  0  0  0  0  0
  140.9640   73.5880  219.4700 N   0  0  0  0  0  0  0  0  0  0  0  0
  139.9230   72.6250  219.2150 C   0  0  0  0  0  0  0  0  0  0  0  0
  140.1640   71.6220  218.4930 O   0  0  0  0  0  0  0  0  0  0  0  0
  138.5640   72.7650  219.8370 C   0  0  0  0  0  0  0  0  0  0  0  0
  138.6100   72.3390  221.2300 N   0  0  0  0  0  0  0  0  0  0  0  0
  138.0830   71.0740  221.6620 C   0  0  0  0  0  0  0  0  0  0  0  0
  137.2320   70.4770  220.9470 O   0  0  0  0  0  0  0  0  0  0  0  0
  138.5510   70.4620  222.9220 C   0  0  0  0  0  0  0  0  0  0  0  0
  138.3080   69.1080  223.2100 C   0  0  0  0  0  0  0  0  0  0  0  0
  138.7960   68.5570  224.3980 C   0  0  0  0  0  0  0  0  0  0  0  0
  139.5230   69.3550  225.2910 C   0  0  0  0  0  0  0  0  0  0  0  0
  140.0230   68.8390  226.4960 C   0  0  0  0  0  0  0  0  0  0  0  0
  140.7520   69.6630  227.3610 C   0  0  0  0  0  0  0  0  0  0  0  0
  141.2430   69.1620  228.5190 F   0  0  0  0  0  0  0  0  0  0  0  0
  140.9880   71.0020  227.0250 C   0  0  0  0  0  0  0  0  0  0  0  0
  140.4900   71.5230  225.8280 C   0  0  0  0  0  0  0  0  0  0  0  0
  139.7550   70.7080  224.9620 C   0  0  0  0  0  0  0  0  0  0  0  0
  139.2670   71.2160  223.8010 N   0  0  0  0  0  0  0  0  0  0  0  0
  141.1690   78.1630  220.7050 C   0  0  0  0  0  0  0  0  0  0  0  0
  140.8410   78.0070  218.9810 Cl  0  0  0  0  0  0  0  0  0  0  0  0
  141.8400   79.3180  221.1280 C   0  0  0  0  0  0  0  0  0  0  0  0
  142.8388   80.6037  225.0109 H   0  0  0  0  0  0  0  0  0  0  0  0
  143.1982   82.1979  224.2652 H   0  0  0  0  0  0  0  0  0  0  0  0
  141.5172   81.5649  224.2652 H   0  0  0  0  0  0  0  0  0  0  0  0
  141.9939   78.7008  224.4828 H   0  0  0  0  0  0  0  0  0  0  0  0
  140.7657   76.6649  223.7707 H   0  0  0  0  0  0  0  0  0  0  0  0
  140.3863   75.6135  220.2497 H   0  0  0  0  0  0  0  0  0  0  0  0
  138.0459   76.2745  222.0574 H   0  0  0  0  0  0  0  0  0  0  0  0
  138.3754   77.1280  220.5116 H   0  0  0  0  0  0  0  0  0  0  0  0
  138.0597   75.3597  220.5116 H   0  0  0  0  0  0  0  0  0  0  0  0
  142.3745   72.5478  220.6742 H   0  0  0  0  0  0  0  0  0  0  0  0
  142.5806   75.4863  221.1655 H   0  0  0  0  0  0  0  0  0  0  0  0
  143.8638   74.3609  220.6904 H   0  0  0  0  0  0  0  0  0  0  0  0
  142.7800   76.2472  218.9340 H   0  0  0  0  0  0  0  0  0  0  0  0
  144.4590   75.2220  218.2160 H   0  0  0  0  0  0  0  0  0  0  0  0
  140.5868   75.4684  218.5998 H   0  0  0  0  0  0  0  0  0  0  0  0
  141.3567   74.3042  217.5122 H   0  0  0  0  0  0  0  0  0  0  0  0
  138.2468   73.8171  219.7876 H   0  0  0  0  0  0  0  0  0  0  0  0
  137.8481   72.1348  219.2889 H   0  0  0  0  0  0  0  0  0  0  0  0
  139.0950   72.9510  221.9150 H   0  0  0  0  0  0  0  0  0  0  0  0
  137.7373   68.4859  222.5048 H   0  0  0  0  0  0  0  0  0  0  0  0
  138.6096   67.4984  224.6316 H   0  0  0  0  0  0  0  0  0  0  0  0
  139.8420   67.7868  226.7609 H   0  0  0  0  0  0  0  0  0  0  0  0
  141.5666   71.6448  227.7048 H   0  0  0  0  0  0  0  0  0  0  0  0
  140.6764   72.5752  225.5669 H   0  0  0  0  0  0  0  0  0  0  0  0
  142.1323   80.0786  220.3891 H   0  0  0  0  0  0  0  0  0  0  0  0
  1  2  1  0
  2  3  1  0
  3  4  2  0
  4  5  1  0
  5  6  2  0
  6  7  1  0
  7  8  1  0
  7  9  1  0
  9 10  1  0
 10 11  2  0
 10 12  1  0
 12 13  1  0
 13 14  1  0
 14 15  1  0
 14 16  1  0
 16 17  1  0
 17 18  1  0
 18 19  2  0
 18 20  1  0
 20 21  1  0
 21 22  1  0
 22 23  2  0
 22 24  1  0
 24 25  2  0
 25 26  1  0
 26 27  2  0
 27 28  1  0
 28 29  2  0
 29 30  1  0
 29 31  1  0
 31 32  2  0
 32 33  1  0
 33 34  2  0
  6 35  1  0
 35 36  1  0
 35 37  2  0
 37  3  1  0
 17 12  1  0
 34 24  1  0
 33 27  1  0
  1 38  1  0
  1 39  1  0
  1 40  1  0
  4 41  1  0
  5 42  1  0
  7 43  1  6
  8 44  1  0
  8 45  1  0
  8 46  1  0
 12 47  1  1
 13 48  1  0
 13 49  1  0
 14 50  1  1
 15 51  1  0
 16 52  1  0
 16 53  1  0
 20 54  1  0
 20 55  1  0
 21 56  1  0
 25 57  1  0
 26 58  1  0
 28 59  1  0
 31 60  1  0
 32 61  1  0
 37 62  1  0
M  CHG  1   9  -1
M  END
>  <meeko>  (3) 
{"free_energy": -6.98, "intermolecular_energy": -9.97, "internal_energy": -3.96, "cluster_size": 4, "cluster_id": 5, "rank_in_cluster": 2}

$$$$

     RDKit          3D

 62 65  0  0  0  0  0  0  0  0999 V2000
  131.9510   73.5410  227.4310 C   0  0  0  0  0  0  0  0  0  0  0  0
  133.2310   73.7580  226.8420 O   0  0  0  0  0  0  0  0  0  0  0  0
  133.9500   72.7960  226.1220 C   0  0  0  0  0  0  0  0  0  0  0  0
  133.9010   71.4690  226.5570 C   0  0  0  0  0  0  0  0  0  0  0  0
  134.5930   70.4720  225.8740 C   0  0  0  0  0  0  0  0  0  0  0  0
  135.3760   70.7830  224.7370 C   0  0  0  0  0  0  0  0  0  0  0  0
  136.1170   69.6710  224.0010 C   0  0  2  0  0  0  0  0  0  0  0  0
  135.1590   68.5850  223.4960 C   0  0  0  0  0  0  0  0  0  0  0  0
  137.2120   69.1350  224.8180 N   0  0  0  0  0  0  0  0  0  0  0  0
  138.4360   68.5300  224.3810 C   0  0  0  0  0  0  0  0  0  0  0  0
  138.5620   68.0910  223.2040 O   0  0  0  0  0  0  0  0  0  0  0  0
  139.6020   68.4660  225.3310 C   0  0  2  0  0  0  0  0  0  0  0  0
  139.3380   67.4760  226.4690 C   0  0  0  0  0  0  0  0  0  0  0  0
  139.7840   68.1810  227.7550 C   0  0  1  0  0  0  0  0  0  0  0  0
  141.0830   67.7690  228.0910 O   0  0  0  0  0  0  0  0  0  0  0  0
  139.7820   69.6730  227.4250 C   0  0  0  0  0  0  0  0  0  0  0  0
  139.8210   69.7550  225.9750 N   0  0  0  0  0  0  0  0  0  0  0  0
  140.1620   70.9490  225.2440 C   0  0  0  0  0  0  0  0  0  0  0  0
  141.0000   71.7560  225.7230 O   0  0  0  0  0  0  0  0  0  0  0  0
  139.5740   71.2270  223.8900 C   0  0  0  0  0  0  0  0  0  0  0  0
  140.3780   72.2240  223.1970 N   0  0  0  0  0  0  0  0  0  0  0  0
  140.0080   72.7480  221.9120 C   0  0  0  0  0  0  0  0  0  0  0  0
  139.2130   72.0980  221.1790 O   0  0  0  0  0  0  0  0  0  0  0  0
  140.5320   74.0530  221.4580 C   0  0  0  0  0  0  0  0  0  0  0  0
  141.1780   74.1880  220.2180 C   0  0  0  0  0  0  0  0  0  0  0  0
  141.6320   75.4460  219.8090 C   0  0  0  0  0  0  0  0  0  0  0  0
  141.4390   76.5600  220.6370 C   0  0  0  0  0  0  0  0  0  0  0  0
  141.8860   77.8360  220.2630 C   0  0  0  0  0  0  0  0  0  0  0  0
  141.6690   78.9280  221.1120 C   0  0  0  0  0  0  0  0  0  0  0  0
  142.0920   80.1620  220.7470 F   0  0  0  0  0  0  0  0  0  0  0  0
  141.0030   78.7520  222.3300 C   0  0  0  0  0  0  0  0  0  0  0  0
  140.5590   77.4830  222.7100 C   0  0  0  0  0  0  0  0  0  0  0  0
  140.7780   76.3850  221.8710 C   0  0  0  0  0  0  0  0  0  0  0  0
  140.3490   75.1510  222.2420 N   0  0  0  0  0  0  0  0  0  0  0  0
  135.4230   72.1320  224.2970 C   0  0  0  0  0  0  0  0  0  0  0  0
  136.3490   72.6430  222.8880 Cl  0  0  0  0  0  0  0  0  0  0  0  0
  134.7080   73.1200  224.9870 C   0  0  0  0  0  0  0  0  0  0  0  0
  132.0442   73.5568  228.5269 H   0  0  0  0  0  0  0  0  0  0  0  0
  131.2604   74.3349  227.1103 H   0  0  0  0  0  0  0  0  0  0  0  0
  131.5607   72.5639  227.1103 H   0  0  0  0  0  0  0  0  0  0  0  0
  133.3100   71.2093  227.4477 H   0  0  0  0  0  0  0  0  0  0  0  0
  134.5302   69.4305  226.2224 H   0  0  0  0  0  0  0  0  0  0  0  0
  136.5781   70.1069  223.1025 H   0  0  0  0  0  0  0  0  0  0  0  0
  134.7041   68.0693  224.3545 H   0  0  0  0  0  0  0  0  0  0  0  0
  134.3694   69.0476  222.8856 H   0  0  0  0  0  0  0  0  0  0  0  0
  135.7164   67.8593  222.8856 H   0  0  0  0  0  0  0  0  0  0  0  0
  140.4696   68.1606  224.7277 H   0  0  0  0  0  0  0  0  0  0  0  0
  138.2672   67.2293  226.5201 H   0  0  0  0  0  0  0  0  0  0  0  0
  139.8833   66.5329  226.3169 H   0  0  0  0  0  0  0  0  0  0  0  0
  139.1246   67.9488  228.6043 H   0  0  0  0  0  0  0  0  0  0  0  0
  141.1040   66.7800  227.9950 H   0  0  0  0  0  0  0  0  0  0  0  0
  138.8694   70.1501  227.8117 H   0  0  0  0  0  0  0  0  0  0  0  0
  140.6366   70.1915  227.8841 H   0  0  0  0  0  0  0  0  0  0  0  0
  139.5578   70.2979  223.3014 H   0  0  0  0  0  0  0  0  0  0  0  0
  138.5491   71.6078  224.0109 H   0  0  0  0  0  0  0  0  0  0  0  0
  141.2130   72.6060  223.6820 H   0  0  0  0  0  0  0  0  0  0  0  0
  141.3259   73.3096  219.5726 H   0  0  0  0  0  0  0  0  0  0  0  0
  142.1394   75.5607  218.8398 H   0  0  0  0  0  0  0  0  0  0  0  0
  142.4062   77.9784  219.3043 H   0  0  0  0  0  0  0  0  0  0  0  0
  140.8286   79.6147  222.9898 H   0  0  0  0  0  0  0  0  0  0  0  0
  140.0373   77.3471  223.6688 H   0  0  0  0  0  0  0  0  0  0  0  0
  134.7415   74.1615  224.6346 H   0  0  0  0  0  0  0  0  0  0  0  0
  1  2  1  0
  2  3  1  0
  3  4  2  0
  4  5  1  0
  5  6  2  0
  6  7  1  0
  7  8  1  0
  7  9  1  0
  9 10  1  0
 10 11  2  0
 10 12  1  0
 12 13  1  0
 13 14  1  0
 14 15  1  0
 14 16  1  0
 16 17  1  0
 17 18  1  0
 18 19  2  0
 18 20  1  0
 20 21  1  0
 21 22  1  0
 22 23  2  0
 22 24  1  0
 24 25  2  0
 25 26  1  0
 26 27  2  0
 27 28  1  0
 28 29  2  0
 29 30  1  0
 29 31  1  0
 31 32  2  0
 32 33  1  0
 33 34  2  0
  6 35  1  0
 35 36  1  0
 35 37  2  0
 37  3  1  0
 17 12  1  0
 34 24  1  0
 33 27  1  0
  1 38  1  0
  1 39  1  0
  1 40  1  0
  4 41  1  0
  5 42  1  0
  7 43  1  6
  8 44  1  0
  8 45  1  0
  8 46  1  0
 12 47  1  6
 13 48  1  0
 13 49  1  0
 14 50  1  1
 15 51  1  0
 16 52  1  0
 16 53  1  0
 20 54  1  0
 20 55  1  0
 21 56  1  0
 25 57  1  0
 26 58  1  0
 28 59  1  0
 31 60  1  0
 32 61  1  0
 37 62  1  0
M  CHG  1   9  -1
M  END
>  <meeko>  (4) 
{"free_energy": -7.82, "intermolecular_energy": -10.8, "internal_energy": -2.65, "cluster_size": 1, "cluster_id": 4, "rank_in_cluster": 1}

$$$$

     RDKit          3D

 62 65  0  0  0  0  0  0  0  0999 V2000
  140.3480   84.5700  220.8560 C   0  0  0  0  0  0  0  0  0  0  0  0
  141.1240   83.6020  221.5600 O   0  0  0  0  0  0  0  0  0  0  0  0
  140.8430   82.2310  221.5970 C   0  0  0  0  0  0  0  0  0  0  0  0
  139.9940   81.7010  220.6220 C   0  0  0  0  0  0  0  0  0  0  0  0
  139.6860   80.3430  220.6100 C   0  0  0  0  0  0  0  0  0  0  0  0
  140.2110   79.4730  221.5960 C   0  0  0  0  0  0  0  0  0  0  0  0
  139.8650   77.9870  221.5560 C   0  0  2  0  0  0  0  0  0  0  0  0
  138.9260   77.5900  222.7020 C   0  0  0  0  0  0  0  0  0  0  0  0
  141.0790   77.1650  221.4980 N   0  0  0  0  0  0  0  0  0  0  0  0
  141.1890   75.7360  221.5360 C   0  0  0  0  0  0  0  0  0  0  0  0
  140.4800   75.0480  222.3220 O   0  0  0  0  0  0  0  0  0  0  0  0
  142.1310   75.0480  220.5850 C   0  0  2  0  0  0  0  0  0  0  0  0
  142.8840   76.0600  219.7170 C   0  0  0  0  0  0  0  0  0  0  0  0
  142.8380   75.5090  218.2880 C   0  0  1  0  0  0  0  0  0  0  0  0
  144.0320   74.8240  218.0100 O   0  0  0  0  0  0  0  0  0  0  0  0
  141.6640   74.5330  218.2630 C   0  0  0  0  0  0  0  0  0  0  0  0
  141.4010   74.1970  219.6530 N   0  0  0  0  0  0  0  0  0  0  0  0
  140.6070   73.0720  220.0740 C   0  0  0  0  0  0  0  0  0  0  0  0
  141.0890   71.9100  220.0140 O   0  0  0  0  0  0  0  0  0  0  0  0
  139.2280   73.2590  220.6370 C   0  0  0  0  0  0  0  0  0  0  0  0
  139.1840   72.7820  222.0120 N   0  0  0  0  0  0  0  0  0  0  0  0
  139.3700   71.3980  222.3490 C   0  0  0  0  0  0  0  0  0  0  0  0
  139.1880   70.5120  221.4690 O   0  0  0  0  0  0  0  0  0  0  0  0
  139.7970   71.0120  223.7090 C   0  0  0  0  0  0  0  0  0  0  0  0
  140.5510   71.8850  224.5130 C   0  0  0  0  0  0  0  0  0  0  0  0
  140.9080   71.4970  225.8070 C   0  0  0  0  0  0  0  0  0  0  0  0
  140.5130   70.2440  226.2940 C   0  0  0  0  0  0  0  0  0  0  0  0
  140.8580   69.8170  227.5850 C   0  0  0  0  0  0  0  0  0  0  0  0
  140.4390   68.5620  228.0420 C   0  0  0  0  0  0  0  0  0  0  0  0
  140.7630   68.1550  229.2920 F   0  0  0  0  0  0  0  0  0  0  0  0
  139.6720   67.7320  227.2150 C   0  0  0  0  0  0  0  0  0  0  0  0
  139.3290   68.1490  225.9270 C   0  0  0  0  0  0  0  0  0  0  0  0
  139.7490   69.3990  225.4610 C   0  0  0  0  0  0  0  0  0  0  0  0
  139.4180   69.8030  224.2070 N   0  0  0  0  0  0  0  0  0  0  0  0
  141.0740   80.0140  222.5840 C   0  0  0  0  0  0  0  0  0  0  0  0
  141.8010   79.0330  223.8540 Cl  0  0  0  0  0  0  0  0  0  0  0  0
  141.3850   81.3800  222.5720 C   0  0  0  0  0  0  0  0  0  0  0  0
  139.8284   85.2182  221.5770 H   0  0  0  0  0  0  0  0  0  0  0  0
  141.0094   85.1809  220.2240 H   0  0  0  0  0  0  0  0  0  0  0  0
  139.6078   84.0574  220.2240 H   0  0  0  0  0  0  0  0  0  0  0  0
  139.5645   82.3633  219.8560 H   0  0  0  0  0  0  0  0  0  0  0  0
  139.0274   79.9417  219.8257 H   0  0  0  0  0  0  0  0  0  0  0  0
  139.3066   77.7917  220.6286 H   0  0  0  0  0  0  0  0  0  0  0  0
  139.4152   77.7968  223.6653 H   0  0  0  0  0  0  0  0  0  0  0  0
  137.9949   78.1715  222.6313 H   0  0  0  0  0  0  0  0  0  0  0  0
  138.6944   76.5170  222.6313 H   0  0  0  0  0  0  0  0  0  0  0  0
  142.8230   74.4655  221.2110 H   0  0  0  0  0  0  0  0  0  0  0  0
  142.3929   77.0432  219.7633 H   0  0  0  0  0  0  0  0  0  0  0  0
  143.9193   76.1955  220.0630 H   0  0  0  0  0  0  0  0  0  0  0  0
  142.7221   76.3076  217.5405 H   0  0  0  0  0  0  0  0  0  0  0  0
  144.7310   75.5140  217.8630 H   0  0  0  0  0  0  0  0  0  0  0  0
  140.7810   75.0069  217.8094 H   0  0  0  0  0  0  0  0  0  0  0  0
  141.8930   73.6382  217.6657 H   0  0  0  0  0  0  0  0  0  0  0  0
  138.9663   74.3272  220.6132 H   0  0  0  0  0  0  0  0  0  0  0  0
  138.5097   72.6860  220.0322 H   0  0  0  0  0  0  0  0  0  0  0  0
  139.0730   73.4820  222.7720 H   0  0  0  0  0  0  0  0  0  0  0  0
  140.8580   72.8677  224.1256 H   0  0  0  0  0  0  0  0  0  0  0  0
  141.4981   72.1740  226.4422 H   0  0  0  0  0  0  0  0  0  0  0  0
  141.4576   70.4682  228.2380 H   0  0  0  0  0  0  0  0  0  0  0  0
  139.3390   66.7495  227.5807 H   0  0  0  0  0  0  0  0  0  0  0  0
  138.7283   67.4941  225.2788 H   0  0  0  0  0  0  0  0  0  0  0  0
  142.0620   81.7901  223.3359 H   0  0  0  0  0  0  0  0  0  0  0  0
  1  2  1  0
  2  3  1  0
  3  4  2  0
  4  5  1  0
  5  6  2  0
  6  7  1  0
  7  8  1  0
  7  9  1  0
  9 10  1  0
 10 11  2  0
 10 12  1  0
 12 13  1  0
 13 14  1  0
 14 15  1  0
 14 16  1  0
 16 17  1  0
 17 18  1  0
 18 19  2  0
 18 20  1  0
 20 21  1  0
 21 22  1  0
 22 23  2  0
 22 24  1  0
 24 25  2  0
 25 26  1  0
 26 27  2  0
 27 28  1  0
 28 29  2  0
 29 30  1  0
 29 31  1  0
 31 32  2  0
 32 33  1  0
 33 34  2  0
  6 35  1  0
 35 36  1  0
 35 37  2  0
 37  3  1  0
 17 12  1  0
 34 24  1  0
 33 27  1  0
  1 38  1  0
  1 39  1  0
  1 40  1  0
  4 41  1  0
  5 42  1  0
  7 43  1  6
  8 44  1  0
  8 45  1  0
  8 46  1  0
 12 47  1  1
 13 48  1  0
 13 49  1  0
 14 50  1  6
 15 51  1  0
 16 52  1  0
 16 53  1  0
 20 54  1  0
 20 55  1  0
 21 56  1  0
 25 57  1  0
 26 58  1  0
 28 59  1  0
 31 60  1  0
 32 61  1  0
 37 62  1  0
M  CHG  1   9  -1
M  END
>  <meeko>  (5) 
{"free_energy": -8.0, "intermolecular_energy": -10.98, "internal_energy": -2.31, "cluster_size": 2, "cluster_id": 1, "rank_in_cluster": 2}

$$$$

     RDKit          3D

 62 65  0  0  0  0  0  0  0  0999 V2000
  142.5650   81.3170  224.2020 C   0  0  0  0  0  0  0  0  0  0  0  0
  142.7840   80.6890  222.9400 O   0  0  0  0  0  0  0  0  0  0  0  0
  142.1160   79.5420  222.4950 C   0  0  0  0  0  0  0  0  0  0  0  0
  141.7410   78.5840  223.4410 C   0  0  0  0  0  0  0  0  0  0  0  0
  141.0710   77.4270  223.0530 C   0  0  0  0  0  0  0  0  0  0  0  0
  140.7710   77.1860  221.6910 C   0  0  0  0  0  0  0  0  0  0  0  0
  140.0280   75.9150  221.2920 C   0  0  2  0  0  0  0  0  0  0  0  0
  138.5210   76.1620  221.1380 C   0  0  0  0  0  0  0  0  0  0  0  0
  140.3380   74.8130  222.2100 N   0  0  0  0  0  0  0  0  0  0  0  0
  141.0840   73.6180  221.9450 C   0  0  0  0  0  0  0  0  0  0  0  0
  141.0730   72.6480  222.7530 O   0  0  0  0  0  0  0  0  0  0  0  0
  141.8530   73.5050  220.6550 C   0  0  2  0  0  0  0  0  0  0  0  0
  142.8660   74.6430  220.5100 C   0  0  0  0  0  0  0  0  0  0  0  0
  142.7310   75.1490  219.0700 C   0  0  1  0  0  0  0  0  0  0  0  0
  143.7210   74.5580  218.2690 O   0  0  0  0  0  0  0  0  0  0  0  0
  141.3490   74.6950  218.6050 C   0  0  0  0  0  0  0  0  0  0  0  0
  140.9630   73.6220  219.5070 N   0  0  0  0  0  0  0  0  0  0  0  0
  139.8960   72.6920  219.2420 C   0  0  0  0  0  0  0  0  0  0  0  0
  140.1030   71.7010  218.4940 O   0  0  0  0  0  0  0  0  0  0  0  0
  138.5480   72.8500  219.8860 C   0  0  0  0  0  0  0  0  0  0  0  0
  138.6040   72.4000  221.2700 N   0  0  0  0  0  0  0  0  0  0  0  0
  138.0680   71.1330  221.6860 C   0  0  0  0  0  0  0  0  0  0  0  0
  137.2040   70.5570  220.9700 O   0  0  0  0  0  0  0  0  0  0  0  0
  138.5430   70.4950  222.9310 C   0  0  0  0  0  0  0  0  0  0  0  0
  138.3260   69.1290  223.1790 C   0  0  0  0  0  0  0  0  0  0  0  0
  138.8200   68.5540  224.3530 C   0  0  0  0  0  0  0  0  0  0  0  0
  139.5260   69.3410  225.2730 C   0  0  0  0  0  0  0  0  0  0  0  0
  140.0310   68.8000  226.4650 C   0  0  0  0  0  0  0  0  0  0  0  0
  140.7380   69.6150  227.3570 C   0  0  0  0  0  0  0  0  0  0  0  0
  141.2340   69.0900  228.5030 F   0  0  0  0  0  0  0  0  0  0  0  0
  140.9490   70.9660  227.0600 C   0  0  0  0  0  0  0  0  0  0  0  0
  140.4460   71.5120  225.8770 C   0  0  0  0  0  0  0  0  0  0  0  0
  139.7310   70.7070  224.9840 C   0  0  0  0  0  0  0  0  0  0  0  0
  139.2390   71.2380  223.8350 N   0  0  0  0  0  0  0  0  0  0  0  0
  141.1540   78.1610  220.7320 C   0  0  0  0  0  0  0  0  0  0  0  0
  140.8260   77.9840  219.0100 Cl  0  0  0  0  0  0  0  0  0  0  0  0
  141.8140   79.3270  221.1430 C   0  0  0  0  0  0  0  0  0  0  0  0
  142.8108   80.6121  225.0099 H   0  0  0  0  0  0  0  0  0  0  0  0
  143.2057   82.2073  224.2846 H   0  0  0  0  0  0  0  0  0  0  0  0
  141.5096   81.6158  224.2846 H   0  0  0  0  0  0  0  0  0  0  0  0
  141.9777   78.7458  224.5030 H   0  0  0  0  0  0  0  0  0  0  0  0
  140.7712   76.6914  223.8140 H   0  0  0  0  0  0  0  0  0  0  0  0
  140.3860   75.6079  220.2983 H   0  0  0  0  0  0  0  0  0  0  0  0
  138.0583   76.2378  222.1331 H   0  0  0  0  0  0  0  0  0  0  0  0
  138.3576   77.0989  220.5853 H   0  0  0  0  0  0  0  0  0  0  0  0
  138.0671   75.3263  220.5853 H   0  0  0  0  0  0  0  0  0  0  0  0
  142.3534   72.5258  220.6833 H   0  0  0  0  0  0  0  0  0  0  0  0
  142.6381   75.4503  221.2216 H   0  0  0  0  0  0  0  0  0  0  0  0
  143.8895   74.3002  220.7219 H   0  0  0  0  0  0  0  0  0  0  0  0
  142.8473   76.2408  219.0026 H   0  0  0  0  0  0  0  0  0  0  0  0
  144.4840   75.1940  218.2380 H   0  0  0  0  0  0  0  0  0  0  0  0
  140.6310   75.5260  218.6681 H   0  0  0  0  0  0  0  0  0  0  0  0
  141.3631   74.3594  217.5575 H   0  0  0  0  0  0  0  0  0  0  0  0
  138.2526   73.9092  219.8586 H   0  0  0  0  0  0  0  0  0  0  0  0
  137.8115   72.2442  219.3378 H   0  0  0  0  0  0  0  0  0  0  0  0
  139.1030   72.9950  221.9600 H   0  0  0  0  0  0  0  0  0  0  0  0
  137.7708   68.5161  222.4536 H   0  0  0  0  0  0  0  0  0  0  0  0
  138.6550   67.4853  224.5547 H   0  0  0  0  0  0  0  0  0  0  0  0
  139.8716   67.7369  226.6983 H   0  0  0  0  0  0  0  0  0  0  0  0
  141.5127   71.5999  227.7603 H   0  0  0  0  0  0  0  0  0  0  0  0
  140.6121   72.5749  225.6475 H   0  0  0  0  0  0  0  0  0  0  0  0
  142.0985   80.0825  220.3958 H   0  0  0  0  0  0  0  0  0  0  0  0
  1  2  1  0
  2  3  1  0
  3  4  2  0
  4  5  1  0
  5  6  2  0
  6  7  1  0
  7  8  1  0
  7  9  1  0
  9 10  1  0
 10 11  2  0
 10 12  1  0
 12 13  1  0
 13 14  1  0
 14 15  1  0
 14 16  1  0
 16 17  1  0
 17 18  1  0
 18 19  2  0
 18 20  1  0
 20 21  1  0
 21 22  1  0
 22 23  2  0
 22 24  1  0
 24 25  2  0
 25 26  1  0
 26 27  2  0
 27 28  1  0
 28 29  2  0
 29 30  1  0
 29 31  1  0
 31 32  2  0
 32 33  1  0
 33 34  2  0
  6 35  1  0
 35 36  1  0
 35 37  2  0
 37  3  1  0
 17 12  1  0
 34 24  1  0
 33 27  1  0
  1 38  1  0
  1 39  1  0
  1 40  1  0
  4 41  1  0
  5 42  1  0
  7 43  1  6
  8 44  1  0
  8 45  1  0
  8 46  1  0
 12 47  1  1
 13 48  1  0
 13 49  1  0
 14 50  1  1
 15 51  1  0
 16 52  1  0
 16 53  1  0
 20 54  1  0
 20 55  1  0
 21 56  1  0
 25 57  1  0
 26 58  1  0
 28 59  1  0
 31 60  1  0
 32 61  1  0
 37 62  1  0
M  CHG  1   9  -1
M  END
>  <meeko>  (6) 
{"free_energy": -6.95, "intermolecular_energy": -9.94, "internal_energy": -3.96, "cluster_size": 4, "cluster_id": 5, "rank_in_cluster": 4}

$$$$

     RDKit          3D

 62 65  0  0  0  0  0  0  0  0999 V2000
  133.4960   71.9700  227.0940 C   0  0  0  0  0  0  0  0  0  0  0  0
  133.5660   73.3790  226.8830 O   0  0  0  0  0  0  0  0  0  0  0  0
  134.2180   73.9910  225.8060 C   0  0  0  0  0  0  0  0  0  0  0  0
  135.0080   73.1970  224.9700 C   0  0  0  0  0  0  0  0  0  0  0  0
  135.6750   73.7540  223.8820 C   0  0  0  0  0  0  0  0  0  0  0  0
  135.5820   75.1400  223.6090 C   0  0  0  0  0  0  0  0  0  0  0  0
  136.3140   75.7250  222.4050 C   0  0  2  0  0  0  0  0  0  0  0  0
  136.3060   74.7610  221.2110 C   0  0  0  0  0  0  0  0  0  0  0  0
  137.6630   76.1710  222.7730 N   0  0  0  0  0  0  0  0  0  0  0  0
  138.3980   77.2930  222.2680 C   0  0  0  0  0  0  0  0  0  0  0  0
  137.8540   78.1400  221.5050 O   0  0  0  0  0  0  0  0  0  0  0  0
  139.8280   77.4860  222.6980 C   0  0  2  0  0  0  0  0  0  0  0  0
  140.1940   78.9710  222.7640 C   0  0  0  0  0  0  0  0  0  0  0  0
  141.5650   79.1000  222.0910 C   0  0  1  0  0  0  0  0  0  0  0  0
  142.5700   79.1090  223.0710 O   0  0  0  0  0  0  0  0  0  0  0  0
  141.7080   77.8580  221.2130 C   0  0  0  0  0  0  0  0  0  0  0  0
  140.7460   76.8980  221.7300 N   0  0  0  0  0  0  0  0  0  0  0  0
  140.7660   75.4910  221.4230 C   0  0  0  0  0  0  0  0  0  0  0  0
  141.8250   74.8310  221.5900 O   0  0  0  0  0  0  0  0  0  0  0  0
  139.5300   74.7790  220.9530 C   0  0  0  0  0  0  0  0  0  0  0  0
  139.0880   73.8320  221.9670 N   0  0  0  0  0  0  0  0  0  0  0  0
  139.4290   72.4370  221.9130 C   0  0  0  0  0  0  0  0  0  0  0  0
  139.7750   71.9230  220.8150 O   0  0  0  0  0  0  0  0  0  0  0  0
  139.3990   71.6140  223.1400 C   0  0  0  0  0  0  0  0  0  0  0  0
  138.6170   70.4490  223.2180 C   0  0  0  0  0  0  0  0  0  0  0  0
  138.6410   69.6780  224.3830 C   0  0  0  0  0  0  0  0  0  0  0  0
  139.4420   70.0720  225.4640 C   0  0  0  0  0  0  0  0  0  0  0  0
  139.4870   69.3270  226.6520 C   0  0  0  0  0  0  0  0  0  0  0  0
  140.3050   69.7460  227.7080 C   0  0  0  0  0  0  0  0  0  0  0  0
  140.3560   69.0220  228.8510 F   0  0  0  0  0  0  0  0  0  0  0  0
  141.0830   70.9020  227.5800 C   0  0  0  0  0  0  0  0  0  0  0  0
  141.0400   71.6500  226.4010 C   0  0  0  0  0  0  0  0  0  0  0  0
  140.2200   71.2430  225.3440 C   0  0  0  0  0  0  0  0  0  0  0  0
  140.1760   71.9720  224.1990 N   0  0  0  0  0  0  0  0  0  0  0  0
  134.7780   75.9440  224.4590 C   0  0  0  0  0  0  0  0  0  0  0  0
  134.5720   77.6770  224.2160 Cl  0  0  0  0  0  0  0  0  0  0  0  0
  134.1020   75.3630  225.5410 C   0  0  0  0  0  0  0  0  0  0  0  0
  133.4856   71.7610  228.1739 H   0  0  0  0  0  0  0  0  0  0  0  0
  132.5772   71.5758  226.6354 H   0  0  0  0  0  0  0  0  0  0  0  0
  134.3712   71.4866  226.6354 H   0  0  0  0  0  0  0  0  0  0  0  0
  135.1039   72.1203  225.1738 H   0  0  0  0  0  0  0  0  0  0  0  0
  136.2808   73.1101  223.2275 H   0  0  0  0  0  0  0  0  0  0  0  0
  135.7655   76.6192  222.0742 H   0  0  0  0  0  0  0  0  0  0  0  0
  136.2974   73.7238  221.5772 H   0  0  0  0  0  0  0  0  0  0  0  0
  135.4093   74.9416  220.6000 H   0  0  0  0  0  0  0  0  0  0  0  0
  137.2055   74.9267  220.6000 H   0  0  0  0  0  0  0  0  0  0  0  0
  139.9162   77.0085  223.6850 H   0  0  0  0  0  0  0  0  0  0  0  0
  139.4465   79.5729  222.2265 H   0  0  0  0  0  0  0  0  0  0  0  0
  140.2198   79.3332  223.8023 H   0  0  0  0  0  0  0  0  0  0  0  0
  141.6534   80.0271  221.5056 H   0  0  0  0  0  0  0  0  0  0  0  0
  143.3240   78.5690  222.7140 H   0  0  0  0  0  0  0  0  0  0  0  0
  141.4814   78.1014  220.1645 H   0  0  0  0  0  0  0  0  0  0  0  0
  142.7329   77.4592  221.2375 H   0  0  0  0  0  0  0  0  0  0  0  0
  138.7331   75.5146  220.7688 H   0  0  0  0  0  0  0  0  0  0  0  0
  139.7563   74.2355  220.0238 H   0  0  0  0  0  0  0  0  0  0  0  0
  138.5600   74.1970  222.7840 H   0  0  0  0  0  0  0  0  0  0  0  0
  137.9896   70.1458  222.3668 H   0  0  0  0  0  0  0  0  0  0  0  0
  138.0328   68.7640  224.4518 H   0  0  0  0  0  0  0  0  0  0  0  0
  138.8804   68.4150  226.7535 H   0  0  0  0  0  0  0  0  0  0  0  0
  141.7300   71.2225  228.4098 H   0  0  0  0  0  0  0  0  0  0  0  0
  141.6513   72.5593  226.3041 H   0  0  0  0  0  0  0  0  0  0  0  0
  133.4733   75.9907  226.1896 H   0  0  0  0  0  0  0  0  0  0  0  0
  1  2  1  0
  2  3  1  0
  3  4  2  0
  4  5  1  0
  5  6  2  0
  6  7  1  0
  7  8  1  0
  7  9  1  0
  9 10  1  0
 10 11  2  0
 10 12  1  0
 12 13  1  0
 13 14  1  0
 14 15  1  0
 14 16  1  0
 16 17  1  0
 17 18  1  0
 18 19  2  0
 18 20  1  0
 20 21  1  0
 21 22  1  0
 22 23  2  0
 22 24  1  0
 24 25  2  0
 25 26  1  0
 26 27  2  0
 27 28  1  0
 28 29  2  0
 29 30  1  0
 29 31  1  0
 31 32  2  0
 32 33  1  0
 33 34  2  0
  6 35  1  0
 35 36  1  0
 35 37  2  0
 37  3  1  0
 17 12  1  0
 34 24  1  0
 33 27  1  0
  1 38  1  0
  1 39  1  0
  1 40  1  0
  4 41  1  0
  5 42  1  0
  7 43  1  6
  8 44  1  0
  8 45  1  0
  8 46  1  0
 12 47  1  1
 13 48  1  0
 13 49  1  0
 14 50  1  6
 15 51  1  0
 16 52  1  0
 16 53  1  0
 20 54  1  0
 20 55  1  0
 21 56  1  0
 25 57  1  0
 26 58  1  0
 28 59  1  0
 31 60  1  0
 32 61  1  0
 37 62  1  0
M  CHG  1   9  -1
M  END
>  <meeko>  (7) 
{"free_energy": -8.18, "intermolecular_energy": -11.16, "internal_energy": -2.92, "cluster_size": 1, "cluster_id": 3, "rank_in_cluster": 1}

$$$$

     RDKit          3D

 62 65  0  0  0  0  0  0  0  0999 V2000
  138.3130   80.5120  220.8430 C   0  0  0  0  0  0  0  0  0  0  0  0
  138.2160   79.4930  221.8360 O   0  0  0  0  0  0  0  0  0  0  0  0
  138.5440   78.1480  221.6310 C   0  0  0  0  0  0  0  0  0  0  0  0
  138.8740   77.3680  222.7420 C   0  0  0  0  0  0  0  0  0  0  0  0
  139.2030   76.0230  222.5940 C   0  0  0  0  0  0  0  0  0  0  0  0
  139.2280   75.4210  221.3130 C   0  0  0  0  0  0  0  0  0  0  0  0
  139.5830   73.9430  221.1790 C   0  0  2  0  0  0  0  0  0  0  0  0
  138.6140   73.0510  221.9660 C   0  0  0  0  0  0  0  0  0  0  0  0
  140.9890   73.7040  221.5220 N   0  0  0  0  0  0  0  0  0  0  0  0
  142.1630   74.1970  220.8610 C   0  0  0  0  0  0  0  0  0  0  0  0
  142.4210   75.4320  220.8240 O   0  0  0  0  0  0  0  0  0  0  0  0
  143.1230   73.2140  220.2450 C   0  0  2  0  0  0  0  0  0  0  0  0
  144.4730   73.2290  220.9670 C   0  0  0  0  0  0  0  0  0  0  0  0
  145.5410   73.2360  219.8670 C   0  0  1  0  0  0  0  0  0  0  0  0
  146.0020   71.9270  219.6510 O   0  0  0  0  0  0  0  0  0  0  0  0
  144.8340   73.7490  218.6140 C   0  0  0  0  0  0  0  0  0  0  0  0
  143.4130   73.5670  218.8610 N   0  0  0  0  0  0  0  0  0  0  0  0
  142.4050   73.6070  217.8340 C   0  0  0  0  0  0  0  0  0  0  0  0
  141.9590   72.5310  217.3550 O   0  0  0  0  0  0  0  0  0  0  0  0
  141.8320   74.9100  217.3550 C   0  0  0  0  0  0  0  0  0  0  0  0
  142.2250   75.9850  218.2560 N   0  0  0  0  0  0  0  0  0  0  0  0
  142.0950   77.3700  217.8990 C   0  0  0  0  0  0  0  0  0  0  0  0
  142.0120   77.6950  216.6830 O   0  0  0  0  0  0  0  0  0  0  0  0
  142.0330   78.4080  218.9490 C   0  0  0  0  0  0  0  0  0  0  0  0
  141.9840   79.7740  218.6220 C   0  0  0  0  0  0  0  0  0  0  0  0
  141.8920   80.7250  219.6420 C   0  0  0  0  0  0  0  0  0  0  0  0
  141.8490   80.3110  220.9800 C   0  0  0  0  0  0  0  0  0  0  0  0
  141.7630   81.2360  222.0310 C   0  0  0  0  0  0  0  0  0  0  0  0
  141.7150   80.7870  223.3560 C   0  0  0  0  0  0  0  0  0  0  0  0
  141.6220   81.6800  224.3700 F   0  0  0  0  0  0  0  0  0  0  0  0
  141.7460   79.4150  223.6350 C   0  0  0  0  0  0  0  0  0  0  0  0
  141.8350   78.4890  222.5940 C   0  0  0  0  0  0  0  0  0  0  0  0
  141.8910   78.9300  221.2680 C   0  0  0  0  0  0  0  0  0  0  0  0
  141.9810   78.0290  220.2550 N   0  0  0  0  0  0  0  0  0  0  0  0
  138.8910   76.2150  220.1860 C   0  0  0  0  0  0  0  0  0  0  0  0
  138.8720   75.5790  218.5430 Cl  0  0  0  0  0  0  0  0  0  0  0  0
  138.5480   77.5630  220.3560 C   0  0  0  0  0  0  0  0  0  0  0  0
  138.4064   81.4929  221.3321 H   0  0  0  0  0  0  0  0  0  0  0  0
  139.1978   80.3295  220.2155 H   0  0  0  0  0  0  0  0  0  0  0  0
  137.4096   80.4997  220.2155 H   0  0  0  0  0  0  0  0  0  0  0  0
  138.8739   77.8211  223.7444 H   0  0  0  0  0  0  0  0  0  0  0  0
  139.4462   75.4216  223.4824 H   0  0  0  0  0  0  0  0  0  0  0  0
  139.4637   73.6592  220.1230 H   0  0  0  0  0  0  0  0  0  0  0  0
  138.7738   73.1981  223.0443 H   0  0  0  0  0  0  0  0  0  0  0  0
  137.5784   73.3185  221.7090 H   0  0  0  0  0  0  0  0  0  0  0  0
  138.7950   71.9969  221.7090 H   0  0  0  0  0  0  0  0  0  0  0  0
  142.6403   72.2284  220.3201 H   0  0  0  0  0  0  0  0  0  0  0  0
  144.5622   74.1299  221.5919 H   0  0  0  0  0  0  0  0  0  0  0  0
  144.5843   72.3590  221.6309 H   0  0  0  0  0  0  0  0  0  0  0  0
  146.4059   73.8610  220.1341 H   0  0  0  0  0  0  0  0  0  0  0  0
  146.0590   71.4920  220.5430 H   0  0  0  0  0  0  0  0  0  0  0  0
  145.0621   74.8131  218.4536 H   0  0  0  0  0  0  0  0  0  0  0  0
  145.1617   73.2090  217.7134 H   0  0  0  0  0  0  0  0  0  0  0  0
  142.2093   75.1249  216.3443 H   0  0  0  0  0  0  0  0  0  0  0  0
  140.7346   74.8375  217.3344 H   0  0  0  0  0  0  0  0  0  0  0  0
  142.5540   75.7310  219.2090 H   0  0  0  0  0  0  0  0  0  0  0  0
  142.0178   80.0927  217.5697 H   0  0  0  0  0  0  0  0  0  0  0  0
  141.8534   81.7962  219.3950 H   0  0  0  0  0  0  0  0  0  0  0  0
  141.7333   82.3140  221.8140 H   0  0  0  0  0  0  0  0  0  0  0  0
  141.7001   79.0660  224.6772 H   0  0  0  0  0  0  0  0  0  0  0  0
  141.8611   77.4121  222.8168 H   0  0  0  0  0  0  0  0  0  0  0  0
  138.2786   78.1698  219.4790 H   0  0  0  0  0  0  0  0  0  0  0  0
  1  2  1  0
  2  3  1  0
  3  4  2  0
  4  5  1  0
  5  6  2  0
  6  7  1  0
  7  8  1  0
  7  9  1  0
  9 10  1  0
 10 11  2  0
 10 12  1  0
 12 13  1  0
 13 14  1  0
 14 15  1  0
 14 16  1  0
 16 17  1  0
 17 18  1  0
 18 19  2  0
 18 20  1  0
 20 21  1  0
 21 22  1  0
 22 23  2  0
 22 24  1  0
 24 25  2  0
 25 26  1  0
 26 27  2  0
 27 28  1  0
 28 29  2  0
 29 30  1  0
 29 31  1  0
 31 32  2  0
 32 33  1  0
 33 34  2  0
  6 35  1  0
 35 36  1  0
 35 37  2  0
 37  3  1  0
 17 12  1  0
 34 24  1  0
 33 27  1  0
  1 38  1  0
  1 39  1  0
  1 40  1  0
  4 41  1  0
  5 42  1  0
  7 43  1  6
  8 44  1  0
  8 45  1  0
  8 46  1  0
 12 47  1  6
 13 48  1  0
 13 49  1  0
 14 50  1  1
 15 51  1  0
 16 52  1  0
 16 53  1  0
 20 54  1  0
 20 55  1  0
 21 56  1  0
 25 57  1  0
 26 58  1  0
 28 59  1  0
 31 60  1  0
 32 61  1  0
 37 62  1  0
M  CHG  1   9  -1
M  END
>  <meeko>  (8) 
{"free_energy": -5.12, "intermolecular_energy": -8.1, "internal_energy": -4.95, "cluster_size": 2, "cluster_id": 10, "rank_in_cluster": 2}

$$$$

     RDKit          3D

 62 65  0  0  0  0  0  0  0  0999 V2000
  139.9580   83.6370  221.1820 C   0  0  0  0  0  0  0  0  0  0  0  0
  139.3590   82.4150  220.7540 O   0  0  0  0  0  0  0  0  0  0  0  0
  140.0670   81.3050  220.2770 C   0  0  0  0  0  0  0  0  0  0  0  0
  141.4630   81.3690  220.2560 C   0  0  0  0  0  0  0  0  0  0  0  0
  142.2160   80.2910  219.7960 C   0  0  0  0  0  0  0  0  0  0  0  0
  141.5840   79.1160  219.3230 C   0  0  0  0  0  0  0  0  0  0  0  0
  142.4320   77.9460  218.8330 C   0  0  2  0  0  0  0  0  0  0  0  0
  142.2830   77.7300  217.3210 C   0  0  0  0  0  0  0  0  0  0  0  0
  142.1610   76.7350  219.6150 N   0  0  0  0  0  0  0  0  0  0  0  0
  142.6260   75.3990  219.3770 C   0  0  0  0  0  0  0  0  0  0  0  0
  142.4780   74.8480  218.2510 O   0  0  0  0  0  0  0  0  0  0  0  0
  143.3450   74.6670  220.4780 C   0  0  2  0  0  0  0  0  0  0  0  0
  144.8080   74.4080  220.1120 C   0  0  0  0  0  0  0  0  0  0  0  0
  145.0910   72.9520  220.4990 C   0  0  1  0  0  0  0  0  0  0  0  0
  145.7050   72.9120  221.7610 O   0  0  0  0  0  0  0  0  0  0  0  0
  143.7240   72.2740  220.5660 C   0  0  0  0  0  0  0  0  0  0  0  0
  142.7570   73.3510  220.6990 N   0  0  0  0  0  0  0  0  0  0  0  0
  141.3930   73.1620  221.1230 C   0  0  0  0  0  0  0  0  0  0  0  0
  141.1520   72.5270  222.1830 O   0  0  0  0  0  0  0  0  0  0  0  0
  140.2490   73.7540  220.3510 C   0  0  0  0  0  0  0  0  0  0  0  0
  140.1520   75.1810  220.6250 N   0  0  0  0  0  0  0  0  0  0  0  0
  139.4780   75.6940  221.7860 C   0  0  0  0  0  0  0  0  0  0  0  0
  138.6310   74.9750  222.3830 O   0  0  0  0  0  0  0  0  0  0  0  0
  139.7930   77.0450  222.2950 C   0  0  0  0  0  0  0  0  0  0  0  0
  138.7850   77.8940  222.7810 C   0  0  0  0  0  0  0  0  0  0  0  0
  139.1260   79.1530  223.2850 C   0  0  0  0  0  0  0  0  0  0  0  0
  140.4670   79.5580  223.3010 C   0  0  0  0  0  0  0  0  0  0  0  0
  140.8470   80.8160  223.7930 C   0  0  0  0  0  0  0  0  0  0  0  0
  142.1970   81.1840  223.8020 C   0  0  0  0  0  0  0  0  0  0  0  0
  142.5640   82.3940  224.2860 F   0  0  0  0  0  0  0  0  0  0  0  0
  143.1710   80.2990  223.3260 C   0  0  0  0  0  0  0  0  0  0  0  0
  142.7990   79.0460  222.8310 C   0  0  0  0  0  0  0  0  0  0  0  0
  141.4520   78.6730  222.8120 C   0  0  0  0  0  0  0  0  0  0  0  0
  141.0900   77.4570  222.3280 N   0  0  0  0  0  0  0  0  0  0  0  0
  140.1660   79.0550  219.3460 C   0  0  0  0  0  0  0  0  0  0  0  0
  139.2640   77.6440  218.7970 Cl  0  0  0  0  0  0  0  0  0  0  0  0
  139.4250   80.1430  219.8270 C   0  0  0  0  0  0  0  0  0  0  0  0
  139.9750   83.6717  222.2813 H   0  0  0  0  0  0  0  0  0  0  0  0
  140.9869   83.6955  220.7974 H   0  0  0  0  0  0  0  0  0  0  0  0
  139.3740   84.4861  220.7974 H   0  0  0  0  0  0  0  0  0  0  0  0
  141.9720   82.2792  220.6060 H   0  0  0  0  0  0  0  0  0  0  0  0
  143.3142   80.3536  219.8004 H   0  0  0  0  0  0  0  0  0  0  0  0
  143.4899   78.1980  218.9984 H   0  0  0  0  0  0  0  0  0  0  0  0
  141.6672   76.8373  217.1371 H   0  0  0  0  0  0  0  0  0  0  0  0
  141.7982   78.6089  216.8711 H   0  0  0  0  0  0  0  0  0  0  0  0
  143.2768   77.5889  216.8711 H   0  0  0  0  0  0  0  0  0  0  0  0
  143.2631   75.3047  221.3705 H   0  0  0  0  0  0  0  0  0  0  0  0
  144.9631   74.5533  219.0327 H   0  0  0  0  0  0  0  0  0  0  0  0
  145.4824   75.1016  220.6356 H   0  0  0  0  0  0  0  0  0  0  0  0
  145.7595   72.4551  219.7806 H   0  0  0  0  0  0  0  0  0  0  0  0
  145.7890   71.9540  222.0090 H   0  0  0  0  0  0  0  0  0  0  0  0
  143.5350   71.7002  219.6467 H   0  0  0  0  0  0  0  0  0  0  0  0
  143.6623   71.5668  221.4063 H   0  0  0  0  0  0  0  0  0  0  0  0
  140.4166   73.5998  219.2748 H   0  0  0  0  0  0  0  0  0  0  0  0
  139.3134   73.2623  220.6558 H   0  0  0  0  0  0  0  0  0  0  0  0
  140.6400   75.8380  219.9860 H   0  0  0  0  0  0  0  0  0  0  0  0
  137.7338   77.5704  222.7652 H   0  0  0  0  0  0  0  0  0  0  0  0
  138.3430   79.8239  223.6681 H   0  0  0  0  0  0  0  0  0  0  0  0
  140.0842   81.5124  224.1713 H   0  0  0  0  0  0  0  0  0  0  0  0
  144.2317   80.5902  223.3415 H   0  0  0  0  0  0  0  0  0  0  0  0
  143.5666   78.3530  222.4562 H   0  0  0  0  0  0  0  0  0  0  0  0
  138.3268   80.0844  219.8517 H   0  0  0  0  0  0  0  0  0  0  0  0
  1  2  1  0
  2  3  1  0
  3  4  2  0
  4  5  1  0
  5  6  2  0
  6  7  1  0
  7  8  1  0
  7  9  1  0
  9 10  1  0
 10 11  2  0
 10 12  1  0
 12 13  1  0
 13 14  1  0
 14 15  1  0
 14 16  1  0
 16 17  1  0
 17 18  1  0
 18 19  2  0
 18 20  1  0
 20 21  1  0
 21 22  1  0
 22 23  2  0
 22 24  1  0
 24 25  2  0
 25 26  1  0
 26 27  2  0
 27 28  1  0
 28 29  2  0
 29 30  1  0
 29 31  1  0
 31 32  2  0
 32 33  1  0
 33 34  2  0
  6 35  1  0
 35 36  1  0
 35 37  2  0
 37  3  1  0
 17 12  1  0
 34 24  1  0
 33 27  1  0
  1 38  1  0
  1 39  1  0
  1 40  1  0
  4 41  1  0
  5 42  1  0
  7 43  1  6
  8 44  1  0
  8 45  1  0
  8 46  1  0
 12 47  1  1
 13 48  1  0
 13 49  1  0
 14 50  1  6
 15 51  1  0
 16 52  1  0
 16 53  1  0
 20 54  1  0
 20 55  1  0
 21 56  1  0
 25 57  1  0
 26 58  1  0
 28 59  1  0
 31 60  1  0
 32 61  1  0
 37 62  1  0
M  CHG  1   9  -1
M  END
>  <meeko>  (9) 
{"free_energy": -6.06, "intermolecular_energy": -9.05, "internal_energy": -4.72, "cluster_size": 2, "cluster_id": 10, "rank_in_cluster": 1}

$$$$

     RDKit          3D

 62 65  0  0  0  0  0  0  0  0999 V2000
  142.2630   80.4690  223.7530 C   0  0  0  0  0  0  0  0  0  0  0  0
  142.5070   79.8490  222.4920 O   0  0  0  0  0  0  0  0  0  0  0  0
  141.8280   78.7220  222.0140 C   0  0  0  0  0  0  0  0  0  0  0  0
  140.9400   78.0690  222.8740 C   0  0  0  0  0  0  0  0  0  0  0  0
  140.2350   76.9460  222.4480 C   0  0  0  0  0  0  0  0  0  0  0  0
  140.4160   76.4300  221.1420 C   0  0  0  0  0  0  0  0  0  0  0  0
  139.6260   75.2040  220.6960 C   0  0  2  0  0  0  0  0  0  0  0  0
  138.5530   74.8150  221.7210 C   0  0  0  0  0  0  0  0  0  0  0  0
  140.5220   74.0940  220.3530 N   0  0  0  0  0  0  0  0  0  0  0  0
  141.4300   73.3870  221.2080 C   0  0  0  0  0  0  0  0  0  0  0  0
  141.1100   73.0850  222.3920 O   0  0  0  0  0  0  0  0  0  0  0  0
  142.7660   72.9570  220.6630 C   0  0  2  0  0  0  0  0  0  0  0  0
  143.7220   74.1450  220.5330 C   0  0  0  0  0  0  0  0  0  0  0  0
  144.3860   74.0060  219.1590 C   0  0  1  0  0  0  0  0  0  0  0  0
  145.6390   73.3890  219.3030 O   0  0  0  0  0  0  0  0  0  0  0  0
  143.4570   73.1090  218.3450 C   0  0  0  0  0  0  0  0  0  0  0  0
  142.6290   72.4140  219.3170 N   0  0  0  0  0  0  0  0  0  0  0  0
  141.8490   71.2400  219.0210 C   0  0  0  0  0  0  0  0  0  0  0  0
  142.4300   70.1440  218.8040 O   0  0  0  0  0  0  0  0  0  0  0  0
  140.3490   71.2830  219.0150 C   0  0  0  0  0  0  0  0  0  0  0  0
  139.8450   71.1940  220.3790 N   0  0  0  0  0  0  0  0  0  0  0  0
  139.4340   69.9490  220.9650 C   0  0  0  0  0  0  0  0  0  0  0  0
  139.1270   68.9800  220.2170 O   0  0  0  0  0  0  0  0  0  0  0  0
  139.3940   69.7920  222.4330 C   0  0  0  0  0  0  0  0  0  0  0  0
  138.7670   68.6860  223.0320 C   0  0  0  0  0  0  0  0  0  0  0  0
  138.7790   68.5560  224.4230 C   0  0  0  0  0  0  0  0  0  0  0  0
  139.4140   69.5260  225.2100 C   0  0  0  0  0  0  0  0  0  0  0  0
  139.4410   69.4320  226.6100 C   0  0  0  0  0  0  0  0  0  0  0  0
  140.0920   70.4160  227.3630 C   0  0  0  0  0  0  0  0  0  0  0  0
  140.1260   70.3210  228.7140 F   0  0  0  0  0  0  0  0  0  0  0  0
  140.7210   71.4910  226.7240 C   0  0  0  0  0  0  0  0  0  0  0  0
  140.6950   71.5930  225.3310 C   0  0  0  0  0  0  0  0  0  0  0  0
  140.0400   70.6180  224.5710 C   0  0  0  0  0  0  0  0  0  0  0  0
  140.0120   70.7180  223.2170 N   0  0  0  0  0  0  0  0  0  0  0  0
  141.3190   77.0960  220.2710 C   0  0  0  0  0  0  0  0  0  0  0  0
  141.6190   76.5610  218.6200 Cl  0  0  0  0  0  0  0  0  0  0  0  0
  142.0080   78.2340  220.7120 C   0  0  0  0  0  0  0  0  0  0  0  0
  142.5361   79.7751  224.5617 H   0  0  0  0  0  0  0  0  0  0  0  0
  142.8681   81.3839  223.8349 H   0  0  0  0  0  0  0  0  0  0  0  0
  141.1966   80.7261  223.8349 H   0  0  0  0  0  0  0  0  0  0  0  0
  140.7967   78.4460  223.8974 H   0  0  0  0  0  0  0  0  0  0  0  0
  139.5295   76.4543  223.1340 H   0  0  0  0  0  0  0  0  0  0  0  0
  139.0827   75.4651  219.7759 H   0  0  0  0  0  0  0  0  0  0  0  0
  138.9480   74.9582  222.7376 H   0  0  0  0  0  0  0  0  0  0  0  0
  137.6647   75.4483  221.5802 H   0  0  0  0  0  0  0  0  0  0  0  0
  138.2769   73.7596  221.5802 H   0  0  0  0  0  0  0  0  0  0  0  0
  143.1545   72.2062  221.3668 H   0  0  0  0  0  0  0  0  0  0  0  0
  143.1653   75.0918  220.5942 H   0  0  0  0  0  0  0  0  0  0  0  0
  144.4678   74.1517  221.3415 H   0  0  0  0  0  0  0  0  0  0  0  0
  144.5417   74.9809  218.6738 H   0  0  0  0  0  0  0  0  0  0  0  0
  146.3250   74.0960  219.1660 H   0  0  0  0  0  0  0  0  0  0  0  0
  142.8320   73.7144  217.6721 H   0  0  0  0  0  0  0  0  0  0  0  0
  144.0214   72.4051  217.7156 H   0  0  0  0  0  0  0  0  0  0  0  0
  140.0130   72.2278  218.5629 H   0  0  0  0  0  0  0  0  0  0  0  0
  139.9647   70.4339  218.4308 H   0  0  0  0  0  0  0  0  0  0  0  0
  139.8440   72.0570  220.9590 H   0  0  0  0  0  0  0  0  0  0  0  0
  138.2699   67.9274  222.4095 H   0  0  0  0  0  0  0  0  0  0  0  0
  138.2906   67.6933  224.8997 H   0  0  0  0  0  0  0  0  0  0  0  0
  138.9512   68.5862  227.1148 H   0  0  0  0  0  0  0  0  0  0  0  0
  141.2372   72.2576  227.3205 H   0  0  0  0  0  0  0  0  0  0  0  0
  141.1893   72.4395  224.8319 H   0  0  0  0  0  0  0  0  0  0  0  0
  142.6981   78.7504  220.0286 H   0  0  0  0  0  0  0  0  0  0  0  0
  1  2  1  0
  2  3  1  0
  3  4  2  0
  4  5  1  0
  5  6  2  0
  6  7  1  0
  7  8  1  0
  7  9  1  0
  9 10  1  0
 10 11  2  0
 10 12  1  0
 12 13  1  0
 13 14  1  0
 14 15  1  0
 14 16  1  0
 16 17  1  0
 17 18  1  0
 18 19  2  0
 18 20  1  0
 20 21  1  0
 21 22  1  0
 22 23  2  0
 22 24  1  0
 24 25  2  0
 25 26  1  0
 26 27  2  0
 27 28  1  0
 28 29  2  0
 29 30  1  0
 29 31  1  0
 31 32  2  0
 32 33  1  0
 33 34  2  0
  6 35  1  0
 35 36  1  0
 35 37  2  0
 37  3  1  0
 17 12  1  0
 34 24  1  0
 33 27  1  0
  1 38  1  0
  1 39  1  0
  1 40  1  0
  4 41  1  0
  5 42  1  0
  7 43  1  6
  8 44  1  0
  8 45  1  0
  8 46  1  0
 12 47  1  1
 13 48  1  0
 13 49  1  0
 14 50  1  6
 15 51  1  0
 16 52  1  0
 16 53  1  0
 20 54  1  0
 20 55  1  0
 21 56  1  0
 25 57  1  0
 26 58  1  0
 28 59  1  0
 31 60  1  0
 32 61  1  0
 37 62  1  0
M  CHG  1   9  -1
M  END
>  <meeko>  (10) 
{"free_energy": -6.67, "intermolecular_energy": -9.65, "internal_energy": -4.02, "cluster_size": 4, "cluster_id": 2, "rank_in_cluster": 3}

$$$$

     RDKit          3D

 62 65  0  0  0  0  0  0  0  0999 V2000
  142.5830   78.5050  217.6420 C   0  0  0  0  0  0  0  0  0  0  0  0
  142.6050   77.9850  218.9700 O   0  0  0  0  0  0  0  0  0  0  0  0
  142.5700   76.6230  219.2930 C   0  0  0  0  0  0  0  0  0  0  0  0
  141.3560   75.9430  219.1710 C   0  0  0  0  0  0  0  0  0  0  0  0
  141.2680   74.5860  219.4740 C   0  0  0  0  0  0  0  0  0  0  0  0
  142.4010   73.8710  219.9290 C   0  0  0  0  0  0  0  0  0  0  0  0
  142.2810   72.3840  220.2460 C   0  0  2  0  0  0  0  0  0  0  0  0
  141.4720   71.6380  219.1770 C   0  0  0  0  0  0  0  0  0  0  0  0
  141.7690   72.1730  221.6040 N   0  0  0  0  0  0  0  0  0  0  0  0
  140.7110   72.8720  222.2750 C   0  0  0  0  0  0  0  0  0  0  0  0
  140.6920   74.1330  222.3250 O   0  0  0  0  0  0  0  0  0  0  0  0
  139.5830   72.0840  222.8850 C   0  0  2  0  0  0  0  0  0  0  0  0
  140.1010   70.8340  223.6010 C   0  0  0  0  0  0  0  0  0  0  0  0
  139.1710   69.6900  223.1820 C   0  0  1  0  0  0  0  0  0  0  0  0
  138.1930   69.4930  224.1700 O   0  0  0  0  0  0  0  0  0  0  0  0
  138.5110   70.1530  221.8850 C   0  0  0  0  0  0  0  0  0  0  0  0
  138.6720   71.5980  221.8560 N   0  0  0  0  0  0  0  0  0  0  0  0
  137.9240   72.4760  220.9930 C   0  0  0  0  0  0  0  0  0  0  0  0
  137.8450   72.2220  219.7620 O   0  0  0  0  0  0  0  0  0  0  0  0
  137.1890   73.6650  221.5400 C   0  0  0  0  0  0  0  0  0  0  0  0
  138.1410   74.6850  221.9610 N   0  0  0  0  0  0  0  0  0  0  0  0
  138.3400   75.9000  221.2210 C   0  0  0  0  0  0  0  0  0  0  0  0
  138.0010   75.9520  220.0060 O   0  0  0  0  0  0  0  0  0  0  0  0
  138.9130   77.0900  221.8810 C   0  0  0  0  0  0  0  0  0  0  0  0
  138.1290   77.9140  222.7070 C   0  0  0  0  0  0  0  0  0  0  0  0
  138.7160   79.0130  223.3410 C   0  0  0  0  0  0  0  0  0  0  0  0
  140.0770   79.2850  223.1500 C   0  0  0  0  0  0  0  0  0  0  0  0
  140.6990   80.3820  223.7650 C   0  0  0  0  0  0  0  0  0  0  0  0
  142.0620   80.6190  223.5580 C   0  0  0  0  0  0  0  0  0  0  0  0
  142.6650   81.6720  224.1590 F   0  0  0  0  0  0  0  0  0  0  0  0
  142.8100   79.7610  222.7430 C   0  0  0  0  0  0  0  0  0  0  0  0
  142.1960   78.6690  222.1240 C   0  0  0  0  0  0  0  0  0  0  0  0
  140.8320   78.4290  222.3210 C   0  0  0  0  0  0  0  0  0  0  0  0
  140.2350   77.3700  221.7170 N   0  0  0  0  0  0  0  0  0  0  0  0
  143.6340   74.5650  220.0510 C   0  0  0  0  0  0  0  0  0  0  0  0
  145.1180   73.7840  220.5930 Cl  0  0  0  0  0  0  0  0  0  0  0  0
  143.7080   75.9270  219.7270 C   0  0  0  0  0  0  0  0  0  0  0  0
  142.5365   79.6034  217.6790 H   0  0  0  0  0  0  0  0  0  0  0  0
  143.4951   78.1943  217.1114 H   0  0  0  0  0  0  0  0  0  0  0  0
  141.7004   78.1183  217.1114 H   0  0  0  0  0  0  0  0  0  0  0  0
  140.4604   76.4844  218.8323 H   0  0  0  0  0  0  0  0  0  0  0  0
  140.3065   74.0644  219.3581 H   0  0  0  0  0  0  0  0  0  0  0  0
  143.2904   71.9476  220.2190 H   0  0  0  0  0  0  0  0  0  0  0  0
  140.7474   70.9698  219.6654 H   0  0  0  0  0  0  0  0  0  0  0  0
  140.9354   72.3649  218.5496 H   0  0  0  0  0  0  0  0  0  0  0  0
  142.1531   71.0444  218.5496 H   0  0  0  0  0  0  0  0  0  0  0  0
  139.0790   72.7660  223.5856 H   0  0  0  0  0  0  0  0  0  0  0  0
  141.1348   70.6182  223.2932 H   0  0  0  0  0  0  0  0  0  0  0  0
  140.1067   70.9688  224.6927 H   0  0  0  0  0  0  0  0  0  0  0  0
  139.7146   68.7430  223.0490 H   0  0  0  0  0  0  0  0  0  0  0  0
  137.3200   69.7390  223.7640 H   0  0  0  0  0  0  0  0  0  0  0  0
  139.0072   69.6942  221.0171 H   0  0  0  0  0  0  0  0  0  0  0  0
  137.4512   69.8615  221.8420 H   0  0  0  0  0  0  0  0  0  0  0  0
  136.5323   74.0784  220.7603 H   0  0  0  0  0  0  0  0  0  0  0  0
  136.5866   73.3521  222.4055 H   0  0  0  0  0  0  0  0  0  0  0  0
  138.6440   74.5450  222.8590 H   0  0  0  0  0  0  0  0  0  0  0  0
  137.0609   77.6956  222.8535 H   0  0  0  0  0  0  0  0  0  0  0  0
  138.1101   79.6633  223.9890 H   0  0  0  0  0  0  0  0  0  0  0  0
  140.1151   81.0554  224.4097 H   0  0  0  0  0  0  0  0  0  0  0  0
  143.8833   79.9468  222.5896 H   0  0  0  0  0  0  0  0  0  0  0  0
  142.7853   77.9980  221.4817 H   0  0  0  0  0  0  0  0  0  0  0  0
  144.6687   76.4556  219.8141 H   0  0  0  0  0  0  0  0  0  0  0  0
  1  2  1  0
  2  3  1  0
  3  4  2  0
  4  5  1  0
  5  6  2  0
  6  7  1  0
  7  8  1  0
  7  9  1  0
  9 10  1  0
 10 11  2  0
 10 12  1  0
 12 13  1  0
 13 14  1  0
 14 15  1  0
 14 16  1  0
 16 17  1  0
 17 18  1  0
 18 19  2  0
 18 20  1  0
 20 21  1  0
 21 22  1  0
 22 23  2  0
 22 24  1  0
 24 25  2  0
 25 26  1  0
 26 27  2  0
 27 28  1  0
 28 29  2  0
 29 30  1  0
 29 31  1  0
 31 32  2  0
 32 33  1  0
 33 34  2  0
  6 35  1  0
 35 36  1  0
 35 37  2  0
 37  3  1  0
 17 12  1  0
 34 24  1  0
 33 27  1  0
  1 38  1  0
  1 39  1  0
  1 40  1  0
  4 41  1  0
  5 42  1  0
  7 43  1  1
  8 44  1  0
  8 45  1  0
  8 46  1  0
 12 47  1  1
 13 48  1  0
 13 49  1  0
 14 50  1  6
 15 51  1  0
 16 52  1  0
 16 53  1  0
 20 54  1  0
 20 55  1  0
 21 56  1  0
 25 57  1  0
 26 58  1  0
 28 59  1  0
 31 60  1  0
 32 61  1  0
 37 62  1  0
M  CHG  1   9  -1
M  END
>  <meeko>  (11) 
{"free_energy": -6.37, "intermolecular_energy": -9.35, "internal_energy": -3.95, "cluster_size": 1, "cluster_id": 9, "rank_in_cluster": 1}

$$$$

     RDKit          3D

 62 65  0  0  0  0  0  0  0  0999 V2000
  143.0740   80.8920  224.0530 C   0  0  0  0  0  0  0  0  0  0  0  0
  142.3550   79.6730  223.8750 O   0  0  0  0  0  0  0  0  0  0  0  0
  141.4940   79.4070  222.8040 C   0  0  0  0  0  0  0  0  0  0  0  0
  140.3150   78.7000  223.0590 C   0  0  0  0  0  0  0  0  0  0  0  0
  139.4220   78.4130  222.0310 C   0  0  0  0  0  0  0  0  0  0  0  0
  139.6960   78.8140  220.7010 C   0  0  0  0  0  0  0  0  0  0  0  0
  138.6960   78.4960  219.5930 C   0  0  2  0  0  0  0  0  0  0  0  0
  137.4100   77.8700  220.1500 C   0  0  0  0  0  0  0  0  0  0  0  0
  139.3170   77.6870  218.5380 N   0  0  0  0  0  0  0  0  0  0  0  0
  140.0710   76.4750  218.6740 C   0  0  0  0  0  0  0  0  0  0  0  0
  139.7310   75.4240  218.0620 O   0  0  0  0  0  0  0  0  0  0  0  0
  141.3140   76.4760  219.5220 C   0  0  2  0  0  0  0  0  0  0  0  0
  142.5770   76.5360  218.6590 C   0  0  0  0  0  0  0  0  0  0  0  0
  143.5410   75.4990  219.2460 C   0  0  1  0  0  0  0  0  0  0  0  0
  144.4510   76.1370  220.1040 O   0  0  0  0  0  0  0  0  0  0  0  0
  142.6670   74.5330  220.0430 C   0  0  0  0  0  0  0  0  0  0  0  0
  141.4220   75.2420  220.2900 N   0  0  0  0  0  0  0  0  0  0  0  0
  140.4490   74.8440  221.2750 C   0  0  0  0  0  0  0  0  0  0  0  0
  140.3370   75.5010  222.3430 O   0  0  0  0  0  0  0  0  0  0  0  0
  139.5250   73.6850  221.0320 C   0  0  0  0  0  0  0  0  0  0  0  0
  139.3250   72.9420  222.2690 N   0  0  0  0  0  0  0  0  0  0  0  0
  138.9570   71.5540  222.2780 C   0  0  0  0  0  0  0  0  0  0  0  0
  138.4210   71.0450  221.2560 O   0  0  0  0  0  0  0  0  0  0  0  0
  139.2260   70.7190  223.4670 C   0  0  0  0  0  0  0  0  0  0  0  0
  138.9080   69.3500  223.4840 C   0  0  0  0  0  0  0  0  0  0  0  0
  139.2080   68.5860  224.6140 C   0  0  0  0  0  0  0  0  0  0  0  0
  139.8220   69.1870  225.7210 C   0  0  0  0  0  0  0  0  0  0  0  0
  140.1330   68.4530  226.8750 C   0  0  0  0  0  0  0  0  0  0  0  0
  140.7540   69.0860  227.9590 C   0  0  0  0  0  0  0  0  0  0  0  0
  141.0620   68.3750  229.0700 F   0  0  0  0  0  0  0  0  0  0  0  0
  141.0710   70.4470  227.8920 C   0  0  0  0  0  0  0  0  0  0  0  0
  140.7610   71.1850  226.7460 C   0  0  0  0  0  0  0  0  0  0  0  0
  140.1340   70.5620  225.6620 C   0  0  0  0  0  0  0  0  0  0  0  0
  139.8300   71.2800  224.5500 N   0  0  0  0  0  0  0  0  0  0  0  0
  140.8930   79.5320  220.4440 C   0  0  0  0  0  0  0  0  0  0  0  0
  141.3390   80.0970  218.8360 Cl  0  0  0  0  0  0  0  0  0  0  0  0
  141.7740   79.8250  221.4950 C   0  0  0  0  0  0  0  0  0  0  0  0
  143.1931   81.0939  225.1277 H   0  0  0  0  0  0  0  0  0  0  0  0
  144.0653   80.8048  223.5843 H   0  0  0  0  0  0  0  0  0  0  0  0
  142.5181   81.7174  223.5843 H   0  0  0  0  0  0  0  0  0  0  0  0
  140.0909   78.3671  224.0832 H   0  0  0  0  0  0  0  0  0  0  0  0
  138.4927   77.8684  222.2542 H   0  0  0  0  0  0  0  0  0  0  0  0
  138.3920   79.4443  219.1257 H   0  0  0  0  0  0  0  0  0  0  0  0
  137.4412   77.8852  221.2494 H   0  0  0  0  0  0  0  0  0  0  0  0
  136.5405   78.4456  219.7999 H   0  0  0  0  0  0  0  0  0  0  0  0
  137.3267   76.8305  219.7999 H   0  0  0  0  0  0  0  0  0  0  0  0
  141.2344   77.3567  220.1763 H   0  0  0  0  0  0  0  0  0  0  0  0
  142.3381   76.2872  217.6145 H   0  0  0  0  0  0  0  0  0  0  0  0
  143.0189   77.5433  218.6620 H   0  0  0  0  0  0  0  0  0  0  0  0
  144.1167   74.9802  218.4654 H   0  0  0  0  0  0  0  0  0  0  0  0
  144.1980   77.0970  220.1290 H   0  0  0  0  0  0  0  0  0  0  0  0
  142.4787   73.6179  219.4624 H   0  0  0  0  0  0  0  0  0  0  0  0
  143.1524   74.2256  220.9810 H   0  0  0  0  0  0  0  0  0  0  0  0
  138.5560   74.0605  220.6715 H   0  0  0  0  0  0  0  0  0  0  0  0
  139.9700   73.0193  220.2778 H   0  0  0  0  0  0  0  0  0  0  0  0
  139.5160   73.4260  223.1690 H   0  0  0  0  0  0  0  0  0  0  0  0
  138.4258   68.8831  222.6125 H   0  0  0  0  0  0  0  0  0  0  0  0
  138.9626   67.5139  224.6350 H   0  0  0  0  0  0  0  0  0  0  0  0
  139.8895   67.3816  226.9286 H   0  0  0  0  0  0  0  0  0  0  0  0
  141.5655   70.9376  228.7433 H   0  0  0  0  0  0  0  0  0  0  0  0
  141.0101   72.2553  226.6967 H   0  0  0  0  0  0  0  0  0  0  0  0
  142.6957   80.3894  221.2902 H   0  0  0  0  0  0  0  0  0  0  0  0
  1  2  1  0
  2  3  1  0
  3  4  2  0
  4  5  1  0
  5  6  2  0
  6  7  1  0
  7  8  1  0
  7  9  1  0
  9 10  1  0
 10 11  2  0
 10 12  1  0
 12 13  1  0
 13 14  1  0
 14 15  1  0
 14 16  1  0
 16 17  1  0
 17 18  1  0
 18 19  2  0
 18 20  1  0
 20 21  1  0
 21 22  1  0
 22 23  2  0
 22 24  1  0
 24 25  2  0
 25 26  1  0
 26 27  2  0
 27 28  1  0
 28 29  2  0
 29 30  1  0
 29 31  1  0
 31 32  2  0
 32 33  1  0
 33 34  2  0
  6 35  1  0
 35 36  1  0
 35 37  2  0
 37  3  1  0
 17 12  1  0
 34 24  1  0
 33 27  1  0
  1 38  1  0
  1 39  1  0
  1 40  1  0
  4 41  1  0
  5 42  1  0
  7 43  1  6
  8 44  1  0
  8 45  1  0
  8 46  1  0
 12 47  1  1
 13 48  1  0
 13 49  1  0
 14 50  1  6
 15 51  1  0
 16 52  1  0
 16 53  1  0
 20 54  1  0
 20 55  1  0
 21 56  1  0
 25 57  1  0
 26 58  1  0
 28 59  1  0
 31 60  1  0
 32 61  1  0
 37 62  1  0
M  CHG  1   9  -1
M  END
>  <meeko>  (12) 
{"free_energy": -7.49, "intermolecular_energy": -10.48, "internal_energy": -2.94, "cluster_size": 4, "cluster_id": 5, "rank_in_cluster": 1}

$$$$

     RDKit          3D

 62 65  0  0  0  0  0  0  0  0999 V2000
  138.2010   84.0700  219.0850 C   0  0  0  0  0  0  0  0  0  0  0  0
  139.1450   84.3190  220.1250 O   0  0  0  0  0  0  0  0  0  0  0  0
  139.7160   83.3300  220.9340 C   0  0  0  0  0  0  0  0  0  0  0  0
  141.0800   83.0590  220.7890 C   0  0  0  0  0  0  0  0  0  0  0  0
  141.6990   82.0890  221.5730 C   0  0  0  0  0  0  0  0  0  0  0  0
  140.9580   81.3420  222.5200 C   0  0  0  0  0  0  0  0  0  0  0  0
  141.6610   80.2910  223.3730 C   0  0  2  0  0  0  0  0  0  0  0  0
  143.1510   80.1790  223.0240 C   0  0  0  0  0  0  0  0  0  0  0  0
  140.9580   79.0050  223.3110 N   0  0  0  0  0  0  0  0  0  0  0  0
  141.0540   77.9870  222.3050 C   0  0  0  0  0  0  0  0  0  0  0  0
  141.7810   78.1430  221.2860 O   0  0  0  0  0  0  0  0  0  0  0  0
  140.3090   76.6930  222.5000 C   0  0  2  0  0  0  0  0  0  0  0  0
  141.1140   75.5020  221.9730 C   0  0  0  0  0  0  0  0  0  0  0  0
  140.1260   74.6410  221.1790 C   0  0  1  0  0  0  0  0  0  0  0  0
  139.6610   73.5920  221.9890 O   0  0  0  0  0  0  0  0  0  0  0  0
  138.9690   75.5710  220.8210 C   0  0  0  0  0  0  0  0  0  0  0  0
  139.0630   76.6900  221.7440 N   0  0  0  0  0  0  0  0  0  0  0  0
  137.9970   77.6290  221.9850 C   0  0  0  0  0  0  0  0  0  0  0  0
  137.1310   77.3780  222.8630 O   0  0  0  0  0  0  0  0  0  0  0  0
  137.9260   78.9320  221.2420 C   0  0  0  0  0  0  0  0  0  0  0  0
  139.2290   79.2500  220.6740 N   0  0  0  0  0  0  0  0  0  0  0  0
  139.4420   79.3590  219.2580 C   0  0  0  0  0  0  0  0  0  0  0  0
  138.6320   78.8110  218.4620 O   0  0  0  0  0  0  0  0  0  0  0  0
  140.5890   80.1300  218.7330 C   0  0  0  0  0  0  0  0  0  0  0  0
  141.8740   79.5660  218.6590 C   0  0  0  0  0  0  0  0  0  0  0  0
  142.9260   80.3150  218.1260 C   0  0  0  0  0  0  0  0  0  0  0  0
  142.6940   81.6190  217.6700 C   0  0  0  0  0  0  0  0  0  0  0  0
  143.7270   82.4040  217.1340 C   0  0  0  0  0  0  0  0  0  0  0  0
  143.4560   83.7000  216.6810 C   0  0  0  0  0  0  0  0  0  0  0  0
  144.4510   84.4530  216.1540 F   0  0  0  0  0  0  0  0  0  0  0  0
  142.1570   84.2150  216.7550 C   0  0  0  0  0  0  0  0  0  0  0  0
  141.1240   83.4410  217.2900 C   0  0  0  0  0  0  0  0  0  0  0  0
  141.3880   82.1470  217.7520 C   0  0  0  0  0  0  0  0  0  0  0  0
  140.3850   81.3960  218.2760 N   0  0  0  0  0  0  0  0  0  0  0  0
  139.5730   81.6200  222.6660 C   0  0  0  0  0  0  0  0  0  0  0  0
  138.5470   80.7700  223.8180 Cl  0  0  0  0  0  0  0  0  0  0  0  0
  138.9700   82.6110  221.8790 C   0  0  0  0  0  0  0  0  0  0  0  0
  137.2272   83.8131  219.5275 H   0  0  0  0  0  0  0  0  0  0  0  0
  138.0948   84.9709  218.4628 H   0  0  0  0  0  0  0  0  0  0  0  0
  138.5530   83.2340  218.4628 H   0  0  0  0  0  0  0  0  0  0  0  0
  141.6702   83.6179  220.0479 H   0  0  0  0  0  0  0  0  0  0  0  0
  142.7764   81.9009  221.4551 H   0  0  0  0  0  0  0  0  0  0  0  0
  141.6219   80.6207  224.4217 H   0  0  0  0  0  0  0  0  0  0  0  0
  143.7423   80.1346  223.9505 H   0  0  0  0  0  0  0  0  0  0  0  0
  143.3221   79.2655  222.4356 H   0  0  0  0  0  0  0  0  0  0  0  0
  143.4568   81.0567  222.4356 H   0  0  0  0  0  0  0  0  0  0  0  0
  140.1285   76.6065  223.5816 H   0  0  0  0  0  0  0  0  0  0  0  0
  141.9279   75.8500  221.3200 H   0  0  0  0  0  0  0  0  0  0  0  0
  141.5745   74.9327  222.7939 H   0  0  0  0  0  0  0  0  0  0  0  0
  140.5880   74.1997  220.2836 H   0  0  0  0  0  0  0  0  0  0  0  0
  139.1440   74.0080  222.7290 H   0  0  0  0  0  0  0  0  0  0  0  0
  139.0657   75.9212  219.7827 H   0  0  0  0  0  0  0  0  0  0  0  0
  137.9981   75.0600  220.9004 H   0  0  0  0  0  0  0  0  0  0  0  0
  137.1853   78.8506  220.4328 H   0  0  0  0  0  0  0  0  0  0  0  0
  137.6296   79.7304  221.9382 H   0  0  0  0  0  0  0  0  0  0  0  0
  140.0100   79.4620  221.3260 H   0  0  0  0  0  0  0  0  0  0  0  0
  142.0504   78.5414  219.0184 H   0  0  0  0  0  0  0  0  0  0  0  0
  143.9350   79.8814  218.0645 H   0  0  0  0  0  0  0  0  0  0  0  0
  144.7485   82.0008  217.0702 H   0  0  0  0  0  0  0  0  0  0  0  0
  141.9485   85.2319  216.3910 H   0  0  0  0  0  0  0  0  0  0  0  0
  140.1040   83.8487  217.3479 H   0  0  0  0  0  0  0  0  0  0  0  0
  137.8988   82.8272  222.0042 H   0  0  0  0  0  0  0  0  0  0  0  0
  1  2  1  0
  2  3  1  0
  3  4  2  0
  4  5  1  0
  5  6  2  0
  6  7  1  0
  7  8  1  0
  7  9  1  0
  9 10  1  0
 10 11  2  0
 10 12  1  0
 12 13  1  0
 13 14  1  0
 14 15  1  0
 14 16  1  0
 16 17  1  0
 17 18  1  0
 18 19  2  0
 18 20  1  0
 20 21  1  0
 21 22  1  0
 22 23  2  0
 22 24  1  0
 24 25  2  0
 25 26  1  0
 26 27  2  0
 27 28  1  0
 28 29  2  0
 29 30  1  0
 29 31  1  0
 31 32  2  0
 32 33  1  0
 33 34  2  0
  6 35  1  0
 35 36  1  0
 35 37  2  0
 37  3  1  0
 17 12  1  0
 34 24  1  0
 33 27  1  0
  1 38  1  0
  1 39  1  0
  1 40  1  0
  4 41  1  0
  5 42  1  0
  7 43  1  1
  8 44  1  0
  8 45  1  0
  8 46  1  0
 12 47  1  1
 13 48  1  0
 13 49  1  0
 14 50  1  6
 15 51  1  0
 16 52  1  0
 16 53  1  0
 20 54  1  0
 20 55  1  0
 21 56  1  0
 25 57  1  0
 26 58  1  0
 28 59  1  0
 31 60  1  0
 32 61  1  0
 37 62  1  0
M  CHG  1   9  -1
M  END
>  <meeko>  (13) 
{"free_energy": -5.1, "intermolecular_energy": -8.09, "internal_energy": -4.99, "cluster_size": 1, "cluster_id": 11, "rank_in_cluster": 1}

$$$$

     RDKit          3D

 62 65  0  0  0  0  0  0  0  0999 V2000
  145.8980   70.2280  218.9640 C   0  0  0  0  0  0  0  0  0  0  0  0
  146.0930   71.5660  219.4170 O   0  0  0  0  0  0  0  0  0  0  0  0
  145.0720   72.5140  219.5600 C   0  0  0  0  0  0  0  0  0  0  0  0
  145.3980   73.7640  220.0940 C   0  0  0  0  0  0  0  0  0  0  0  0
  144.4220   74.7450  220.2530 C   0  0  0  0  0  0  0  0  0  0  0  0
  143.0760   74.4910  219.8950 C   0  0  0  0  0  0  0  0  0  0  0  0
  142.0270   75.5850  220.0700 C   0  0  2  0  0  0  0  0  0  0  0  0
  142.5920   76.9730  219.7390 C   0  0  0  0  0  0  0  0  0  0  0  0
  141.4120   75.5180  221.4000 N   0  0  0  0  0  0  0  0  0  0  0  0
  140.1880   74.8780  221.7840 C   0  0  0  0  0  0  0  0  0  0  0  0
  140.1920   73.7470  222.3450 O   0  0  0  0  0  0  0  0  0  0  0  0
  138.8840   75.5940  221.5560 C   0  0  2  0  0  0  0  0  0  0  0  0
  138.4780   76.4140  222.7830 C   0  0  0  0  0  0  0  0  0  0  0  0
  136.9860   76.1370  223.0030 C   0  0  1  0  0  0  0  0  0  0  0  0
  136.2260   77.1670  222.4270 O   0  0  0  0  0  0  0  0  0  0  0  0
  136.7050   74.8200  222.2830 C   0  0  0  0  0  0  0  0  0  0  0  0
  137.7990   74.6440  221.3420 N   0  0  0  0  0  0  0  0  0  0  0  0
  137.7720   73.7200  220.2380 C   0  0  0  0  0  0  0  0  0  0  0  0
  137.6720   74.1560  219.0610 O   0  0  0  0  0  0  0  0  0  0  0  0
  137.9120   72.2410  220.4570 C   0  0  0  0  0  0  0  0  0  0  0  0
  138.1230   71.9680  221.8720 N   0  0  0  0  0  0  0  0  0  0  0  0
  137.7780   70.7080  222.4690 C   0  0  0  0  0  0  0  0  0  0  0  0
  136.9410   69.9560  221.8980 O   0  0  0  0  0  0  0  0  0  0  0  0
  138.4170   70.2800  223.7310 C   0  0  0  0  0  0  0  0  0  0  0  0
  138.2590   68.9730  224.2230 C   0  0  0  0  0  0  0  0  0  0  0  0
  138.9060   68.5970  225.4030 C   0  0  0  0  0  0  0  0  0  0  0  0
  139.7050   69.5220  226.0860 C   0  0  0  0  0  0  0  0  0  0  0  0
  140.3660   69.1820  227.2770 C   0  0  0  0  0  0  0  0  0  0  0  0
  141.1630   70.1310  227.9290 C   0  0  0  0  0  0  0  0  0  0  0  0
  141.8080   69.7990  229.0730 F   0  0  0  0  0  0  0  0  0  0  0  0
  141.3080   71.4160  227.3940 C   0  0  0  0  0  0  0  0  0  0  0  0
  140.6510   71.7620  226.2100 C   0  0  0  0  0  0  0  0  0  0  0  0
  139.8470   70.8230  225.5570 C   0  0  0  0  0  0  0  0  0  0  0  0
  139.2050   71.1600  224.4080 N   0  0  0  0  0  0  0  0  0  0  0  0
  142.7490   73.2210  219.3510 C   0  0  0  0  0  0  0  0  0  0  0  0
  141.1140   72.7900  218.8540 Cl  0  0  0  0  0  0  0  0  0  0  0  0
  143.7470   72.2510  219.1840 C   0  0  0  0  0  0  0  0  0  0  0  0
  145.8003   69.5580  219.8309 H   0  0  0  0  0  0  0  0  0  0  0  0
  144.9829   70.1765  218.3558 H   0  0  0  0  0  0  0  0  0  0  0  0
  146.7604   69.9174  218.3558 H   0  0  0  0  0  0  0  0  0  0  0  0
  146.4357   73.9751  220.3916 H   0  0  0  0  0  0  0  0  0  0  0  0
  144.7001   75.7279  220.6612 H   0  0  0  0  0  0  0  0  0  0  0  0
  141.2225   75.4059  219.3415 H   0  0  0  0  0  0  0  0  0  0  0  0
  142.8113   77.5118  220.6726 H   0  0  0  0  0  0  0  0  0  0  0  0
  143.5167   76.8624  219.1536 H   0  0  0  0  0  0  0  0  0  0  0  0
  141.8530   77.5397  219.1536 H   0  0  0  0  0  0  0  0  0  0  0  0
  139.0397   76.2382  220.6780 H   0  0  0  0  0  0  0  0  0  0  0  0
  139.0588   76.0988  223.6624 H   0  0  0  0  0  0  0  0  0  0  0  0
  138.6702   77.4865  222.6319 H   0  0  0  0  0  0  0  0  0  0  0  0
  136.7281   76.0829  224.0710 H   0  0  0  0  0  0  0  0  0  0  0  0
  135.8740   76.8170  221.5660 H   0  0  0  0  0  0  0  0  0  0  0  0
  136.6800   73.9878  223.0019 H   0  0  0  0  0  0  0  0  0  0  0  0
  135.7303   74.8362  221.7735 H   0  0  0  0  0  0  0  0  0  0  0  0
  136.9958   71.7339  220.1202 H   0  0  0  0  0  0  0  0  0  0  0  0
  138.7742   71.8697  219.8837 H   0  0  0  0  0  0  0  0  0  0  0  0
  138.5940   72.6940  222.4480 H   0  0  0  0  0  0  0  0  0  0  0  0
  137.6299   68.2505  223.6825 H   0  0  0  0  0  0  0  0  0  0  0  0
  138.7878   67.5759  225.7947 H   0  0  0  0  0  0  0  0  0  0  0  0
  140.2580   68.1713  227.6975 H   0  0  0  0  0  0  0  0  0  0  0  0
  141.9407   72.1555  227.9066 H   0  0  0  0  0  0  0  0  0  0  0  0
  140.7665   72.7729  225.7920 H   0  0  0  0  0  0  0  0  0  0  0  0
  143.4879   71.2726  218.7532 H   0  0  0  0  0  0  0  0  0  0  0  0
  1  2  1  0
  2  3  1  0
  3  4  2  0
  4  5  1  0
  5  6  2  0
  6  7  1  0
  7  8  1  0
  7  9  1  0
  9 10  1  0
 10 11  2  0
 10 12  1  0
 12 13  1  0
 13 14  1  0
 14 15  1  0
 14 16  1  0
 16 17  1  0
 17 18  1  0
 18 19  2  0
 18 20  1  0
 20 21  1  0
 21 22  1  0
 22 23  2  0
 22 24  1  0
 24 25  2  0
 25 26  1  0
 26 27  2  0
 27 28  1  0
 28 29  2  0
 29 30  1  0
 29 31  1  0
 31 32  2  0
 32 33  1  0
 33 34  2  0
  6 35  1  0
 35 36  1  0
 35 37  2  0
 37  3  1  0
 17 12  1  0
 34 24  1  0
 33 27  1  0
  1 38  1  0
  1 39  1  0
  1 40  1  0
  4 41  1  0
  5 42  1  0
  7 43  1  6
  8 44  1  0
  8 45  1  0
  8 46  1  0
 12 47  1  6
 13 48  1  0
 13 49  1  0
 14 50  1  1
 15 51  1  0
 16 52  1  0
 16 53  1  0
 20 54  1  0
 20 55  1  0
 21 56  1  0
 25 57  1  0
 26 58  1  0
 28 59  1  0
 31 60  1  0
 32 61  1  0
 37 62  1  0
M  CHG  1   9  -1
M  END
>  <meeko>  (14) 
{"free_energy": -6.71, "intermolecular_energy": -9.7, "internal_energy": -3.26, "cluster_size": 1, "cluster_id": 8, "rank_in_cluster": 1}

$$$$

     RDKit          3D

 62 65  0  0  0  0  0  0  0  0999 V2000
  142.5460   80.2410  223.1290 C   0  0  0  0  0  0  0  0  0  0  0  0
  141.1870   79.9590  222.8000 O   0  0  0  0  0  0  0  0  0  0  0  0
  140.6900   78.6860  222.4970 C   0  0  0  0  0  0  0  0  0  0  0  0
  139.4300   78.3310  222.9890 C   0  0  0  0  0  0  0  0  0  0  0  0
  138.8870   77.0790  222.7130 C   0  0  0  0  0  0  0  0  0  0  0  0
  139.6050   76.1310  221.9460 C   0  0  0  0  0  0  0  0  0  0  0  0
  138.9840   74.7700  221.6500 C   0  0  2  0  0  0  0  0  0  0  0  0
  137.4750   74.7590  221.9310 C   0  0  0  0  0  0  0  0  0  0  0  0
  139.7040   73.6980  222.3470 N   0  0  0  0  0  0  0  0  0  0  0  0
  139.3750   72.3050  222.4190 C   0  0  0  0  0  0  0  0  0  0  0  0
  138.3640   71.9050  223.0620 O   0  0  0  0  0  0  0  0  0  0  0  0
  140.2250   71.3120  221.6720 C   0  0  2  0  0  0  0  0  0  0  0  0
  141.6050   71.8900  221.3520 C   0  0  0  0  0  0  0  0  0  0  0  0
  141.8900   71.5250  219.8910 C   0  0  1  0  0  0  0  0  0  0  0  0
  142.6860   70.3690  219.8420 O   0  0  0  0  0  0  0  0  0  0  0  0
  140.5250   71.2410  219.2670 C   0  0  0  0  0  0  0  0  0  0  0  0
  139.6290   70.9820  220.3830 N   0  0  0  0  0  0  0  0  0  0  0  0
  138.3390   70.3540  220.2520 C   0  0  0  0  0  0  0  0  0  0  0  0
  137.4910   70.8310  219.4530 O   0  0  0  0  0  0  0  0  0  0  0  0
  138.0000   69.1060  221.0140 C   0  0  0  0  0  0  0  0  0  0  0  0
  138.1450   69.3440  222.4440 N   0  0  0  0  0  0  0  0  0  0  0  0
  138.7230   68.3710  223.3280 C   0  0  0  0  0  0  0  0  0  0  0  0
  138.7610   67.1580  222.9810 O   0  0  0  0  0  0  0  0  0  0  0  0
  139.2930   68.7870  224.6260 C   0  0  0  0  0  0  0  0  0  0  0  0
  139.4210   67.8800  225.6920 C   0  0  0  0  0  0  0  0  0  0  0  0
  139.9960   68.3030  226.8930 C   0  0  0  0  0  0  0  0  0  0  0  0
  140.4380   69.6260  227.0270 C   0  0  0  0  0  0  0  0  0  0  0  0
  141.0150   70.0890  228.2200 C   0  0  0  0  0  0  0  0  0  0  0  0
  141.4530   71.4140  228.3160 C   0  0  0  0  0  0  0  0  0  0  0  0
  142.0180   71.8580  229.4640 F   0  0  0  0  0  0  0  0  0  0  0  0
  141.3240   72.2790  227.2230 C   0  0  0  0  0  0  0  0  0  0  0  0
  140.7480   71.8260  226.0330 C   0  0  0  0  0  0  0  0  0  0  0  0
  140.3000   70.5050  225.9320 C   0  0  0  0  0  0  0  0  0  0  0  0
  139.7370   70.0650  224.7770 N   0  0  0  0  0  0  0  0  0  0  0  0
  140.8840   76.4940  221.4480 C   0  0  0  0  0  0  0  0  0  0  0  0
  141.8690   75.4090  220.4700 Cl  0  0  0  0  0  0  0  0  0  0  0  0
  141.4090   77.7650  221.7220 C   0  0  0  0  0  0  0  0  0  0  0  0
  142.6611   80.2649  224.2227 H   0  0  0  0  0  0  0  0  0  0  0  0
  143.1949   79.4584  222.7090 H   0  0  0  0  0  0  0  0  0  0  0  0
  142.8300   81.2172  222.7090 H   0  0  0  0  0  0  0  0  0  0  0  0
  138.8622   79.0481  223.6001 H   0  0  0  0  0  0  0  0  0  0  0  0
  137.8878   76.8237  223.0958 H   0  0  0  0  0  0  0  0  0  0  0  0
  139.0917   74.5744  220.5729 H   0  0  0  0  0  0  0  0  0  0  0  0
  137.3044   74.7578  223.0177 H   0  0  0  0  0  0  0  0  0  0  0  0
  137.0131   75.6538  221.4883 H   0  0  0  0  0  0  0  0  0  0  0  0
  137.0262   73.8576  221.4883 H   0  0  0  0  0  0  0  0  0  0  0  0
  140.3028   70.4284  222.3225 H   0  0  0  0  0  0  0  0  0  0  0  0
  141.6000   72.9827  221.4786 H   0  0  0  0  0  0  0  0  0  0  0  0
  142.3758   71.4863  222.0249 H   0  0  0  0  0  0  0  0  0  0  0  0
  142.4237   72.3273  219.3604 H   0  0  0  0  0  0  0  0  0  0  0  0
  142.0750   69.6070  219.6600 H   0  0  0  0  0  0  0  0  0  0  0  0
  140.1781   72.1113  218.6905 H   0  0  0  0  0  0  0  0  0  0  0  0
  140.5652   70.3892  218.5722 H   0  0  0  0  0  0  0  0  0  0  0  0
  136.9616   68.8161  220.7959 H   0  0  0  0  0  0  0  0  0  0  0  0
  138.6828   68.2990  220.7099 H   0  0  0  0  0  0  0  0  0  0  0  0
  137.8720   70.2750  222.8170 H   0  0  0  0  0  0  0  0  0  0  0  0
  139.0705   66.8432  225.5814 H   0  0  0  0  0  0  0  0  0  0  0  0
  140.1015   67.5990  227.7316 H   0  0  0  0  0  0  0  0  0  0  0  0
  141.1226   69.4102  229.0789 H   0  0  0  0  0  0  0  0  0  0  0  0
  141.6769   73.3179  227.3010 H   0  0  0  0  0  0  0  0  0  0  0  0
  140.6470   72.5082  225.1761 H   0  0  0  0  0  0  0  0  0  0  0  0
  142.3963   78.0427  221.3244 H   0  0  0  0  0  0  0  0  0  0  0  0
  1  2  1  0
  2  3  1  0
  3  4  2  0
  4  5  1  0
  5  6  2  0
  6  7  1  0
  7  8  1  0
  7  9  1  0
  9 10  1  0
 10 11  2  0
 10 12  1  0
 12 13  1  0
 13 14  1  0
 14 15  1  0
 14 16  1  0
 16 17  1  0
 17 18  1  0
 18 19  2  0
 18 20  1  0
 20 21  1  0
 21 22  1  0
 22 23  2  0
 22 24  1  0
 24 25  2  0
 25 26  1  0
 26 27  2  0
 27 28  1  0
 28 29  2  0
 29 30  1  0
 29 31  1  0
 31 32  2  0
 32 33  1  0
 33 34  2  0
  6 35  1  0
 35 36  1  0
 35 37  2  0
 37  3  1  0
 17 12  1  0
 34 24  1  0
 33 27  1  0
  1 38  1  0
  1 39  1  0
  1 40  1  0
  4 41  1  0
  5 42  1  0
  7 43  1  6
  8 44  1  0
  8 45  1  0
  8 46  1  0
 12 47  1  1
 13 48  1  0
 13 49  1  0
 14 50  1  6
 15 51  1  0
 16 52  1  0
 16 53  1  0
 20 54  1  0
 20 55  1  0
 21 56  1  0
 25 57  1  0
 26 58  1  0
 28 59  1  0
 31 60  1  0
 32 61  1  0
 37 62  1  0
M  CHG  1   9  -1
M  END
>  <meeko>  (15) 
{"free_energy": -7.01, "intermolecular_energy": -9.99, "internal_energy": -3.38, "cluster_size": 1, "cluster_id": 7, "rank_in_cluster": 1}

$$$$

     RDKit          3D

 62 65  0  0  0  0  0  0  0  0999 V2000
  142.6000   81.6150  224.2430 C   0  0  0  0  0  0  0  0  0  0  0  0
  142.3860   81.2260  222.8880 O   0  0  0  0  0  0  0  0  0  0  0  0
  141.9410   79.9620  222.4830 C   0  0  0  0  0  0  0  0  0  0  0  0
  141.6890   79.0010  223.4670 C   0  0  0  0  0  0  0  0  0  0  0  0
  141.2400   77.7300  223.1190 C   0  0  0  0  0  0  0  0  0  0  0  0
  141.0480   77.3760  221.7620 C   0  0  0  0  0  0  0  0  0  0  0  0
  140.5470   75.9790  221.4080 C   0  0  2  0  0  0  0  0  0  0  0  0
  139.3640   75.5590  222.2900 C   0  0  0  0  0  0  0  0  0  0  0  0
  141.6450   75.0060  221.4190 N   0  0  0  0  0  0  0  0  0  0  0  0
  142.6810   74.8220  220.4450 C   0  0  0  0  0  0  0  0  0  0  0  0
  142.8490   75.6500  219.5070 O   0  0  0  0  0  0  0  0  0  0  0  0
  143.6110   73.6460  220.5770 C   0  0  2  0  0  0  0  0  0  0  0  0
  145.0520   74.0350  220.2390 C   0  0  0  0  0  0  0  0  0  0  0  0
  145.5920   72.9180  219.3390 C   0  0  1  0  0  0  0  0  0  0  0  0
  146.3290   72.0070  220.1110 O   0  0  0  0  0  0  0  0  0  0  0  0
  144.3590   72.2280  218.7590 C   0  0  0  0  0  0  0  0  0  0  0  0
  143.2560   72.5930  219.6340 N   0  0  0  0  0  0  0  0  0  0  0  0
  141.9880   71.9110  219.6590 C   0  0  0  0  0  0  0  0  0  0  0  0
  141.9170   70.7110  219.2860 O   0  0  0  0  0  0  0  0  0  0  0  0
  140.7500   72.5890  220.1720 C   0  0  0  0  0  0  0  0  0  0  0  0
  140.6760   72.4540  221.6210 N   0  0  0  0  0  0  0  0  0  0  0  0
  139.8410   71.4750  222.2570 C   0  0  0  0  0  0  0  0  0  0  0  0
  138.8710   70.9760  221.6230 O   0  0  0  0  0  0  0  0  0  0  0  0
  140.1280   71.0320  223.6370 C   0  0  0  0  0  0  0  0  0  0  0  0
  140.7030   71.9040  224.5780 C   0  0  0  0  0  0  0  0  0  0  0  0
  140.9300   71.4580  225.8830 C   0  0  0  0  0  0  0  0  0  0  0  0
  140.5840   70.1500  226.2440 C   0  0  0  0  0  0  0  0  0  0  0  0
  140.8010   69.6660  227.5430 C   0  0  0  0  0  0  0  0  0  0  0  0
  140.4350   68.3550  227.8700 C   0  0  0  0  0  0  0  0  0  0  0  0
  140.6370   67.8910  229.1270 F   0  0  0  0  0  0  0  0  0  0  0  0
  139.8470   67.5270  226.9070 C   0  0  0  0  0  0  0  0  0  0  0  0
  139.6300   68.0010  225.6110 C   0  0  0  0  0  0  0  0  0  0  0  0
  140.0000   69.3070  225.2740 C   0  0  0  0  0  0  0  0  0  0  0  0
  139.7920   69.7680  224.0130 N   0  0  0  0  0  0  0  0  0  0  0  0
  141.3040   78.3540  220.7660 C   0  0  0  0  0  0  0  0  0  0  0  0
  141.0890   78.0400  219.0450 Cl  0  0  0  0  0  0  0  0  0  0  0  0
  141.7410   79.6340  221.1350 C   0  0  0  0  0  0  0  0  0  0  0  0
  142.1800   80.8515  224.9144 H   0  0  0  0  0  0  0  0  0  0  0  0
  143.6795   81.7139  224.4300 H   0  0  0  0  0  0  0  0  0  0  0  0
  142.1056   82.5797  224.4300 H   0  0  0  0  0  0  0  0  0  0  0  0
  141.8471   79.2517  224.5263 H   0  0  0  0  0  0  0  0  0  0  0  0
  141.0320   76.9922  223.9079 H   0  0  0  0  0  0  0  0  0  0  0  0
  140.1606   76.0060  220.3785 H   0  0  0  0  0  0  0  0  0  0  0  0
  139.6431   75.6581  223.3494 H   0  0  0  0  0  0  0  0  0  0  0  0
  138.4999   76.2053  222.0765 H   0  0  0  0  0  0  0  0  0  0  0  0
  139.1008   74.5125  222.0765 H   0  0  0  0  0  0  0  0  0  0  0  0
  143.5236   73.3047  221.6190 H   0  0  0  0  0  0  0  0  0  0  0  0
  145.0732   74.9978  219.7074 H   0  0  0  0  0  0  0  0  0  0  0  0
  145.6615   74.1501  221.1474 H   0  0  0  0  0  0  0  0  0  0  0  0
  146.2529   73.3058  218.5498 H   0  0  0  0  0  0  0  0  0  0  0  0
  145.8400   71.8950  220.9690 H   0  0  0  0  0  0  0  0  0  0  0  0
  144.1686   72.5803  217.7345 H   0  0  0  0  0  0  0  0  0  0  0  0
  144.4913   71.1373  218.7057 H   0  0  0  0  0  0  0  0  0  0  0  0
  140.7814   73.6559  219.9060 H   0  0  0  0  0  0  0  0  0  0  0  0
  139.8649   72.1191  219.7184 H   0  0  0  0  0  0  0  0  0  0  0  0
  141.2960   73.0520  222.2020 H   0  0  0  0  0  0  0  0  0  0  0  0
  140.9725   72.9306  224.2891 H   0  0  0  0  0  0  0  0  0  0  0  0
  141.3798   72.1336  226.6255 H   0  0  0  0  0  0  0  0  0  0  0  0
  141.2582   70.3160  228.3036 H   0  0  0  0  0  0  0  0  0  0  0  0
  139.5549   66.5000  227.1714 H   0  0  0  0  0  0  0  0  0  0  0  0
  139.1685   67.3475  224.8560 H   0  0  0  0  0  0  0  0  0  0  0  0
  141.9290   80.3894  220.3578 H   0  0  0  0  0  0  0  0  0  0  0  0
  1  2  1  0
  2  3  1  0
  3  4  2  0
  4  5  1  0
  5  6  2  0
  6  7  1  0
  7  8  1  0
  7  9  1  0
  9 10  1  0
 10 11  2  0
 10 12  1  0
 12 13  1  0
 13 14  1  0
 14 15  1  0
 14 16  1  0
 16 17  1  0
 17 18  1  0
 18 19  2  0
 18 20  1  0
 20 21  1  0
 21 22  1  0
 22 23  2  0
 22 24  1  0
 24 25  2  0
 25 26  1  0
 26 27  2  0
 27 28  1  0
 28 29  2  0
 29 30  1  0
 29 31  1  0
 31 32  2  0
 32 33  1  0
 33 34  2  0
  6 35  1  0
 35 36  1  0
 35 37  2  0
 37  3  1  0
 17 12  1  0
 34 24  1  0
 33 27  1  0
  1 38  1  0
  1 39  1  0
  1 40  1  0
  4 41  1  0
  5 42  1  0
  7 43  1  6
  8 44  1  0
  8 45  1  0
  8 46  1  0
 12 47  1  1
 13 48  1  0
 13 49  1  0
 14 50  1  6
 15 51  1  0
 16 52  1  0
 16 53  1  0
 20 54  1  0
 20 55  1  0
 21 56  1  0
 25 57  1  0
 26 58  1  0
 28 59  1  0
 31 60  1  0
 32 61  1  0
 37 62  1  0
M  CHG  1   9  -1
M  END
>  <meeko>  (16) 
{"free_energy": -8.23, "intermolecular_energy": -11.21, "internal_energy": -2.55, "cluster_size": 4, "cluster_id": 2, "rank_in_cluster": 2}

$$$$

     RDKit          3D

 62 65  0  0  0  0  0  0  0  0999 V2000
  142.5210   81.2740  224.1950 C   0  0  0  0  0  0  0  0  0  0  0  0
  142.8750   80.5460  223.0200 O   0  0  0  0  0  0  0  0  0  0  0  0
  142.1800   79.4320  222.5350 C   0  0  0  0  0  0  0  0  0  0  0  0
  141.7710   78.4550  223.4470 C   0  0  0  0  0  0  0  0  0  0  0  0
  141.0720   77.3300  223.0180 C   0  0  0  0  0  0  0  0  0  0  0  0
  140.7770   77.1410  221.6470 C   0  0  0  0  0  0  0  0  0  0  0  0
  140.0020   75.9040  221.2030 C   0  0  2  0  0  0  0  0  0  0  0  0
  138.5110   76.2070  221.0050 C   0  0  0  0  0  0  0  0  0  0  0  0
  140.2420   74.7770  222.1120 N   0  0  0  0  0  0  0  0  0  0  0  0
  141.0460   73.6100  221.8900 C   0  0  0  0  0  0  0  0  0  0  0  0
  141.0650   72.6630  222.7240 O   0  0  0  0  0  0  0  0  0  0  0  0
  141.8390   73.4990  220.6150 C   0  0  2  0  0  0  0  0  0  0  0  0
  142.8060   74.6750  220.4570 C   0  0  0  0  0  0  0  0  0  0  0  0
  142.6730   75.1400  219.0020 C   0  0  1  0  0  0  0  0  0  0  0  0
  143.6990   74.5720  218.2310 O   0  0  0  0  0  0  0  0  0  0  0  0
  141.3180   74.6170  218.5290 C   0  0  0  0  0  0  0  0  0  0  0  0
  140.9640   73.5500  219.4510 N   0  0  0  0  0  0  0  0  0  0  0  0
  139.9410   72.5690  219.1940 C   0  0  0  0  0  0  0  0  0  0  0  0
  140.2040   71.5650  218.4820 O   0  0  0  0  0  0  0  0  0  0  0  0
  138.5740   72.6920  219.8040 C   0  0  0  0  0  0  0  0  0  0  0  0
  138.6150   72.2760  221.1990 N   0  0  0  0  0  0  0  0  0  0  0  0
  138.1030   71.0080  221.6360 C   0  0  0  0  0  0  0  0  0  0  0  0
  137.2660   70.3930  220.9190 O   0  0  0  0  0  0  0  0  0  0  0  0
  138.5700   70.4110  222.9040 C   0  0  0  0  0  0  0  0  0  0  0  0
  138.3360   69.0580  223.2040 C   0  0  0  0  0  0  0  0  0  0  0  0
  138.8230   68.5220  224.4000 C   0  0  0  0  0  0  0  0  0  0  0  0
  139.5370   69.3350  225.2890 C   0  0  0  0  0  0  0  0  0  0  0  0
  140.0360   68.8340  226.5020 C   0  0  0  0  0  0  0  0  0  0  0  0
  140.7530   69.6730  227.3620 C   0  0  0  0  0  0  0  0  0  0  0  0
  141.2420   69.1870  228.5280 F   0  0  0  0  0  0  0  0  0  0  0  0
  140.9790   71.0100  227.0150 C   0  0  0  0  0  0  0  0  0  0  0  0
  140.4830   71.5160  225.8110 C   0  0  0  0  0  0  0  0  0  0  0  0
  139.7590   70.6870  224.9490 C   0  0  0  0  0  0  0  0  0  0  0  0
  139.2740   71.1800  223.7800 N   0  0  0  0  0  0  0  0  0  0  0  0
  141.1930   78.1340  220.7220 C   0  0  0  0  0  0  0  0  0  0  0  0
  140.8740   78.0210  218.9930 Cl  0  0  0  0  0  0  0  0  0  0  0  0
  141.8820   79.2680  221.1740 C   0  0  0  0  0  0  0  0  0  0  0  0
  142.8035   80.6930  225.0853 H   0  0  0  0  0  0  0  0  0  0  0  0
  143.0510   82.2379  224.2028 H   0  0  0  0  0  0  0  0  0  0  0  0
  141.4356   81.4523  224.2028 H   0  0  0  0  0  0  0  0  0  0  0  0
  142.0039   78.5763  224.5152 H   0  0  0  0  0  0  0  0  0  0  0  0
  140.7454   76.5796  223.7530 H   0  0  0  0  0  0  0  0  0  0  0  0
  140.3813   75.6004  220.2161 H   0  0  0  0  0  0  0  0  0  0  0  0
  138.0235   76.3061  221.9861 H   0  0  0  0  0  0  0  0  0  0  0  0
  138.3991   77.1462  220.4435 H   0  0  0  0  0  0  0  0  0  0  0  0
  138.0414   75.3859  220.4435 H   0  0  0  0  0  0  0  0  0  0  0  0
  142.3793   72.5427  220.6752 H   0  0  0  0  0  0  0  0  0  0  0  0
  142.5332   75.4890  221.1447 H   0  0  0  0  0  0  0  0  0  0  0  0
  143.8394   74.3809  220.6928 H   0  0  0  0  0  0  0  0  0  0  0  0
  142.7451   76.2336  218.9083 H   0  0  0  0  0  0  0  0  0  0  0  0
  144.4390   75.2350  218.2050 H   0  0  0  0  0  0  0  0  0  0  0  0
  140.5649   75.4181  218.5623 H   0  0  0  0  0  0  0  0  0  0  0  0
  141.3618   74.2578  217.4902 H   0  0  0  0  0  0  0  0  0  0  0  0
  138.2411   73.7387  219.7451 H   0  0  0  0  0  0  0  0  0  0  0  0
  137.8725   72.0474  219.2541 H   0  0  0  0  0  0  0  0  0  0  0  0
  139.0860   72.9000  221.8840 H   0  0  0  0  0  0  0  0  0  0  0  0
  137.7733   68.4248  222.5023 H   0  0  0  0  0  0  0  0  0  0  0  0
  138.6456   67.4638  224.6422 H   0  0  0  0  0  0  0  0  0  0  0  0
  139.8634   67.7827  226.7760 H   0  0  0  0  0  0  0  0  0  0  0  0
  141.5485   71.6639  227.6919 H   0  0  0  0  0  0  0  0  0  0  0  0
  140.6622   72.5672  225.5411 H   0  0  0  0  0  0  0  0  0  0  0  0
  142.1927   80.0384  220.4529 H   0  0  0  0  0  0  0  0  0  0  0  0
  1  2  1  0
  2  3  1  0
  3  4  2  0
  4  5  1  0
  5  6  2  0
  6  7  1  0
  7  8  1  0
  7  9  1  0
  9 10  1  0
 10 11  2  0
 10 12  1  0
 12 13  1  0
 13 14  1  0
 14 15  1  0
 14 16  1  0
 16 17  1  0
 17 18  1  0
 18 19  2  0
 18 20  1  0
 20 21  1  0
 21 22  1  0
 22 23  2  0
 22 24  1  0
 24 25  2  0
 25 26  1  0
 26 27  2  0
 27 28  1  0
 28 29  2  0
 29 30  1  0
 29 31  1  0
 31 32  2  0
 32 33  1  0
 33 34  2  0
  6 35  1  0
 35 36  1  0
 35 37  2  0
 37  3  1  0
 17 12  1  0
 34 24  1  0
 33 27  1  0
  1 38  1  0
  1 39  1  0
  1 40  1  0
  4 41  1  0
  5 42  1  0
  7 43  1  6
  8 44  1  0
  8 45  1  0
  8 46  1  0
 12 47  1  1
 13 48  1  0
 13 49  1  0
 14 50  1  1
 15 51  1  0
 16 52  1  0
 16 53  1  0
 20 54  1  0
 20 55  1  0
 21 56  1  0
 25 57  1  0
 26 58  1  0
 28 59  1  0
 31 60  1  0
 32 61  1  0
 37 62  1  0
M  CHG  1   9  -1
M  END
>  <meeko>  (17) 
{"free_energy": -6.96, "intermolecular_energy": -9.94, "internal_energy": -3.96, "cluster_size": 4, "cluster_id": 5, "rank_in_cluster": 3}

$$$$

     RDKit          3D

 62 65  0  0  0  0  0  0  0  0999 V2000
  140.6160   84.1970  219.1740 C   0  0  0  0  0  0  0  0  0  0  0  0
  140.5190   84.0850  220.5930 O   0  0  0  0  0  0  0  0  0  0  0  0
  140.4480   82.8740  221.2920 C   0  0  0  0  0  0  0  0  0  0  0  0
  141.5710   82.0430  221.2970 C   0  0  0  0  0  0  0  0  0  0  0  0
  141.5550   80.8300  221.9810 C   0  0  0  0  0  0  0  0  0  0  0  0
  140.3940   80.4030  222.6700 C   0  0  0  0  0  0  0  0  0  0  0  0
  140.4040   79.0740  223.4190 C   0  0  2  0  0  0  0  0  0  0  0  0
  141.8210   78.6790  223.8570 C   0  0  0  0  0  0  0  0  0  0  0  0
  139.7300   78.0260  222.6440 N   0  0  0  0  0  0  0  0  0  0  0  0
  140.2190   76.7240  222.2940 C   0  0  0  0  0  0  0  0  0  0  0  0
  139.6460   75.6790  222.7090 O   0  0  0  0  0  0  0  0  0  0  0  0
  141.4070   76.6100  221.3760 C   0  0  2  0  0  0  0  0  0  0  0  0
  141.5600   77.8600  220.5060 C   0  0  0  0  0  0  0  0  0  0  0  0
  141.8430   77.3560  219.0860 C   0  0  1  0  0  0  0  0  0  0  0  0
  143.2260   77.3770  218.8470 O   0  0  0  0  0  0  0  0  0  0  0  0
  141.3330   75.9160  219.0550 C   0  0  0  0  0  0  0  0  0  0  0  0
  141.2410   75.5010  220.4450 N   0  0  0  0  0  0  0  0  0  0  0  0
  141.1230   74.1300  220.8710 C   0  0  0  0  0  0  0  0  0  0  0  0
  142.1550   73.4860  221.1960 O   0  0  0  0  0  0  0  0  0  0  0  0
  139.7820   73.4640  220.9860 C   0  0  0  0  0  0  0  0  0  0  0  0
  139.6170   72.9110  222.3240 N   0  0  0  0  0  0  0  0  0  0  0  0
  139.7770   71.5110  222.5990 C   0  0  0  0  0  0  0  0  0  0  0  0
  139.6780   70.6750  221.6590 O   0  0  0  0  0  0  0  0  0  0  0  0
  140.0810   71.0500  223.9700 C   0  0  0  0  0  0  0  0  0  0  0  0
  140.6990   71.8980  224.9040 C   0  0  0  0  0  0  0  0  0  0  0  0
  140.9400   71.4370  226.2010 C   0  0  0  0  0  0  0  0  0  0  0  0
  140.5660   70.1360  226.5600 C   0  0  0  0  0  0  0  0  0  0  0  0
  140.7980   69.6360  227.8510 C   0  0  0  0  0  0  0  0  0  0  0  0
  140.4030   68.3330  228.1760 C   0  0  0  0  0  0  0  0  0  0  0  0
  140.6180   67.8540  229.4250 F   0  0  0  0  0  0  0  0  0  0  0  0
  139.7730   67.5280  227.2200 C   0  0  0  0  0  0  0  0  0  0  0  0
  139.5420   68.0190  225.9320 C   0  0  0  0  0  0  0  0  0  0  0  0
  139.9400   69.3170  225.5960 C   0  0  0  0  0  0  0  0  0  0  0  0
  139.7190   69.7920  224.3440 N   0  0  0  0  0  0  0  0  0  0  0  0
  139.2540   81.2490  222.6630 C   0  0  0  0  0  0  0  0  0  0  0  0
  137.7560   80.8370  223.4940 Cl  0  0  0  0  0  0  0  0  0  0  0  0
  139.2940   82.4740  221.9820 C   0  0  0  0  0  0  0  0  0  0  0  0
  141.3162   85.0055  218.9170 H   0  0  0  0  0  0  0  0  0  0  0  0
  140.9822   83.2479  218.7555 H   0  0  0  0  0  0  0  0  0  0  0  0
  139.6244   84.4239  218.7555 H   0  0  0  0  0  0  0  0  0  0  0  0
  142.4775   82.3501  220.7549 H   0  0  0  0  0  0  0  0  0  0  0  0
  142.4543   80.1966  221.9861 H   0  0  0  0  0  0  0  0  0  0  0  0
  139.8261   79.2009  224.3463 H   0  0  0  0  0  0  0  0  0  0  0  0
  141.8744   78.6641  224.9556 H   0  0  0  0  0  0  0  0  0  0  0  0
  142.0609   77.6797  223.4646 H   0  0  0  0  0  0  0  0  0  0  0  0
  142.5432   79.4101  223.4646 H   0  0  0  0  0  0  0  0  0  0  0  0
  142.2820   76.4668  222.0271 H   0  0  0  0  0  0  0  0  0  0  0  0
  140.6338   78.4532  220.5233 H   0  0  0  0  0  0  0  0  0  0  0  0
  142.3699   78.5082  220.8718 H   0  0  0  0  0  0  0  0  0  0  0  0
  141.3572   77.9790  218.3206 H   0  0  0  0  0  0  0  0  0  0  0  0
  143.6640   77.5950  219.7120 H   0  0  0  0  0  0  0  0  0  0  0  0
  140.3445   75.8695  218.5747 H   0  0  0  0  0  0  0  0  0  0  0  0
  142.0029   75.2605  218.4792 H   0  0  0  0  0  0  0  0  0  0  0  0
  138.9899   74.2034  220.7965 H   0  0  0  0  0  0  0  0  0  0  0  0
  139.7161   72.6516  220.2473 H   0  0  0  0  0  0  0  0  0  0  0  0
  139.4350   73.5690  223.1070 H   0  0  0  0  0  0  0  0  0  0  0  0
  140.9914   72.9186  224.6162 H   0  0  0  0  0  0  0  0  0  0  0  0
  141.4227   72.0949  226.9387 H   0  0  0  0  0  0  0  0  0  0  0  0
  141.2894   70.2671  228.6061 H   0  0  0  0  0  0  0  0  0  0  0  0
  139.4591   66.5070  227.4828 H   0  0  0  0  0  0  0  0  0  0  0  0
  139.0470   67.3843  225.1823 H   0  0  0  0  0  0  0  0  0  0  0  0
  138.4103   83.1289  221.9889 H   0  0  0  0  0  0  0  0  0  0  0  0
  1  2  1  0
  2  3  1  0
  3  4  2  0
  4  5  1  0
  5  6  2  0
  6  7  1  0
  7  8  1  0
  7  9  1  0
  9 10  1  0
 10 11  2  0
 10 12  1  0
 12 13  1  0
 13 14  1  0
 14 15  1  0
 14 16  1  0
 16 17  1  0
 17 18  1  0
 18 19  2  0
 18 20  1  0
 20 21  1  0
 21 22  1  0
 22 23  2  0
 22 24  1  0
 24 25  2  0
 25 26  1  0
 26 27  2  0
 27 28  1  0
 28 29  2  0
 29 30  1  0
 29 31  1  0
 31 32  2  0
 32 33  1  0
 33 34  2  0
  6 35  1  0
 35 36  1  0
 35 37  2  0
 37  3  1  0
 17 12  1  0
 34 24  1  0
 33 27  1  0
  1 38  1  0
  1 39  1  0
  1 40  1  0
  4 41  1  0
  5 42  1  0
  7 43  1  1
  8 44  1  0
  8 45  1  0
  8 46  1  0
 12 47  1  1
 13 48  1  0
 13 49  1  0
 14 50  1  6
 15 51  1  0
 16 52  1  0
 16 53  1  0
 20 54  1  0
 20 55  1  0
 21 56  1  0
 25 57  1  0
 26 58  1  0
 28 59  1  0
 31 60  1  0
 32 61  1  0
 37 62  1  0
M  CHG  1   9  -1
M  END
>  <meeko>  (18) 
{"free_energy": -8.66, "intermolecular_energy": -11.64, "internal_energy": -2.45, "cluster_size": 2, "cluster_id": 1, "rank_in_cluster": 1}

$$$$

     RDKit          3D

 62 65  0  0  0  0  0  0  0  0999 V2000
  133.7230   67.8760  225.7040 C   0  0  0  0  0  0  0  0  0  0  0  0
  133.5420   69.1140  226.3890 O   0  0  0  0  0  0  0  0  0  0  0  0
  133.9750   70.3580  225.9130 C   0  0  0  0  0  0  0  0  0  0  0  0
  133.5080   71.5110  226.5490 C   0  0  0  0  0  0  0  0  0  0  0  0
  133.9110   72.7720  226.1190 C   0  0  0  0  0  0  0  0  0  0  0  0
  134.7880   72.9150  225.0170 C   0  0  0  0  0  0  0  0  0  0  0  0
  135.2230   74.3080  224.5710 C   0  0  2  0  0  0  0  0  0  0  0  0
  134.5580   75.4070  225.4100 C   0  0  0  0  0  0  0  0  0  0  0  0
  135.0220   74.4870  223.1280 N   0  0  0  0  0  0  0  0  0  0  0  0
  135.8360   75.2150  222.2000 C   0  0  0  0  0  0  0  0  0  0  0  0
  135.3170   75.9290  221.2970 O   0  0  0  0  0  0  0  0  0  0  0  0
  137.3340   75.1630  222.3410 C   0  0  2  0  0  0  0  0  0  0  0  0
  137.9020   76.5250  222.7510 C   0  0  0  0  0  0  0  0  0  0  0  0
  139.1270   76.7580  221.8600 C   0  0  1  0  0  0  0  0  0  0  0  0
  140.2910   76.3920  222.5540 O   0  0  0  0  0  0  0  0  0  0  0  0
  138.9340   75.8430  220.6520 C   0  0  0  0  0  0  0  0  0  0  0  0
  137.9670   74.8410  221.0680 N   0  0  0  0  0  0  0  0  0  0  0  0
  137.7390   73.6010  220.3710 C   0  0  0  0  0  0  0  0  0  0  0  0
  136.5620   73.2280  220.1300 O   0  0  0  0  0  0  0  0  0  0  0  0
  138.8840   72.7650  219.8770 C   0  0  0  0  0  0  0  0  0  0  0  0
  139.3390   71.8730  220.9350 N   0  0  0  0  0  0  0  0  0  0  0  0
  139.7580   72.3590  222.2200 C   0  0  0  0  0  0  0  0  0  0  0  0
  140.1150   73.5620  222.3440 O   0  0  0  0  0  0  0  0  0  0  0  0
  139.7470   71.4640  223.3960 C   0  0  0  0  0  0  0  0  0  0  0  0
  139.2040   70.1700  223.3230 C   0  0  0  0  0  0  0  0  0  0  0  0
  139.2420   69.3420  224.4480 C   0  0  0  0  0  0  0  0  0  0  0  0
  139.8190   69.8050  225.6370 C   0  0  0  0  0  0  0  0  0  0  0  0
  139.8700   69.0040  226.7880 C   0  0  0  0  0  0  0  0  0  0  0  0
  140.4620   69.4980  227.9570 C   0  0  0  0  0  0  0  0  0  0  0  0
  140.5200   68.7210  229.0650 F   0  0  0  0  0  0  0  0  0  0  0  0
  141.0090   70.7860  227.9790 C   0  0  0  0  0  0  0  0  0  0  0  0
  140.9580   71.5900  226.8380 C   0  0  0  0  0  0  0  0  0  0  0  0
  140.3620   71.1080  225.6680 C   0  0  0  0  0  0  0  0  0  0  0  0
  140.3100   71.8900  224.5600 N   0  0  0  0  0  0  0  0  0  0  0  0
  135.2620   71.7420  224.3740 C   0  0  0  0  0  0  0  0  0  0  0  0
  136.3680   71.7870  223.0030 Cl  0  0  0  0  0  0  0  0  0  0  0  0
  134.8580   70.4800  224.8300 C   0  0  0  0  0  0  0  0  0  0  0  0
  133.8416   67.0650  226.4376 H   0  0  0  0  0  0  0  0  0  0  0  0
  132.8448   67.6742  225.0731 H   0  0  0  0  0  0  0  0  0  0  0  0
  134.6222   67.9341  225.0731 H   0  0  0  0  0  0  0  0  0  0  0  0
  132.8147   71.4213  227.3983 H   0  0  0  0  0  0  0  0  0  0  0  0
  133.5438   73.6677  226.6415 H   0  0  0  0  0  0  0  0  0  0  0  0
  136.3038   74.4023  224.7528 H   0  0  0  0  0  0  0  0  0  0  0  0
  134.6927   75.1844  226.4788 H   0  0  0  0  0  0  0  0  0  0  0  0
  135.0207   76.3772  225.1764 H   0  0  0  0  0  0  0  0  0  0  0  0
  133.4839   75.4473  225.1764 H   0  0  0  0  0  0  0  0  0  0  0  0
  137.5409   74.3971  223.1029 H   0  0  0  0  0  0  0  0  0  0  0  0
  137.1547   77.3155  222.5876 H   0  0  0  0  0  0  0  0  0  0  0  0
  138.1702   76.5449  223.8176 H   0  0  0  0  0  0  0  0  0  0  0  0
  139.2275   77.8124  221.5630 H   0  0  0  0  0  0  0  0  0  0  0  0
  140.2780   75.4020  222.6340 H   0  0  0  0  0  0  0  0  0  0  0  0
  138.5489   76.4152  219.7951 H   0  0  0  0  0  0  0  0  0  0  0  0
  139.8822   75.3848  220.3342 H   0  0  0  0  0  0  0  0  0  0  0  0
  138.5542   72.1685  219.0136 H   0  0  0  0  0  0  0  0  0  0  0  0
  139.7119   73.4248  219.5785 H   0  0  0  0  0  0  0  0  0  0  0  0
  139.2980   70.8490  220.7640 H   0  0  0  0  0  0  0  0  0  0  0  0
  138.7520   69.8112  222.3865 H   0  0  0  0  0  0  0  0  0  0  0  0
  138.8192   68.3277  224.3997 H   0  0  0  0  0  0  0  0  0  0  0  0
  139.4455   67.9893  226.7721 H   0  0  0  0  0  0  0  0  0  0  0  0
  141.4804   71.1662  228.8973 H   0  0  0  0  0  0  0  0  0  0  0  0
  141.3868   72.6028  226.8595 H   0  0  0  0  0  0  0  0  0  0  0  0
  135.2376   69.5750  224.3331 H   0  0  0  0  0  0  0  0  0  0  0  0
  1  2  1  0
  2  3  1  0
  3  4  2  0
  4  5  1  0
  5  6  2  0
  6  7  1  0
  7  8  1  0
  7  9  1  0
  9 10  1  0
 10 11  2  0
 10 12  1  0
 12 13  1  0
 13 14  1  0
 14 15  1  0
 14 16  1  0
 16 17  1  0
 17 18  1  0
 18 19  2  0
 18 20  1  0
 20 21  1  0
 21 22  1  0
 22 23  2  0
 22 24  1  0
 24 25  2  0
 25 26  1  0
 26 27  2  0
 27 28  1  0
 28 29  2  0
 29 30  1  0
 29 31  1  0
 31 32  2  0
 32 33  1  0
 33 34  2  0
  6 35  1  0
 35 36  1  0
 35 37  2  0
 37  3  1  0
 17 12  1  0
 34 24  1  0
 33 27  1  0
  1 38  1  0
  1 39  1  0
  1 40  1  0
  4 41  1  0
  5 42  1  0
  7 43  1  6
  8 44  1  0
  8 45  1  0
  8 46  1  0
 12 47  1  1
 13 48  1  0
 13 49  1  0
 14 50  1  6
 15 51  1  0
 16 52  1  0
 16 53  1  0
 20 54  1  0
 20 55  1  0
 21 56  1  0
 25 57  1  0
 26 58  1  0
 28 59  1  0
 31 60  1  0
 32 61  1  0
 37 62  1  0
M  CHG  1   9  -1
M  END
>  <meeko>  (19) 
{"free_energy": -7.13, "intermolecular_energy": -10.12, "internal_energy": -3.35, "cluster_size": 2, "cluster_id": 6, "rank_in_cluster": 1}

$$$$

     RDKit          3D

 62 65  0  0  0  0  0  0  0  0999 V2000
  142.3390   80.1150  223.4600 C   0  0  0  0  0  0  0  0  0  0  0  0
  141.3350   79.1020  223.4400 O   0  0  0  0  0  0  0  0  0  0  0  0
  141.1960   78.1390  222.4330 C   0  0  0  0  0  0  0  0  0  0  0  0
  140.3760   77.0340  222.6790 C   0  0  0  0  0  0  0  0  0  0  0  0
  140.2000   76.0500  221.7100 C   0  0  0  0  0  0  0  0  0  0  0  0
  140.8620   76.1370  220.4620 C   0  0  0  0  0  0  0  0  0  0  0  0
  140.6450   75.0500  219.4130 C   0  0  2  0  0  0  0  0  0  0  0  0
  139.3490   75.2730  218.6230 C   0  0  0  0  0  0  0  0  0  0  0  0
  140.7280   73.7140  220.0130 N   0  0  0  0  0  0  0  0  0  0  0  0
  141.6850   73.2220  220.9610 C   0  0  0  0  0  0  0  0  0  0  0  0
  141.3900   73.0980  222.1820 O   0  0  0  0  0  0  0  0  0  0  0  0
  143.0470   72.8010  220.4750 C   0  0  2  0  0  0  0  0  0  0  0  0
  143.9370   74.0150  220.1950 C   0  0  0  0  0  0  0  0  0  0  0  0
  144.6180   73.7380  218.8500 C   0  0  1  0  0  0  0  0  0  0  0  0
  145.9020   73.2160  219.0720 O   0  0  0  0  0  0  0  0  0  0  0  0
  143.7460   72.6930  218.1570 C   0  0  0  0  0  0  0  0  0  0  0  0
  142.9500   72.0840  219.2100 N   0  0  0  0  0  0  0  0  0  0  0  0
  142.2390   70.8390  219.0660 C   0  0  0  0  0  0  0  0  0  0  0  0
  142.8780   69.7550  219.0410 O   0  0  0  0  0  0  0  0  0  0  0  0
  140.7400   70.8030  218.9960 C   0  0  0  0  0  0  0  0  0  0  0  0
  140.1800   70.8430  220.3410 N   0  0  0  0  0  0  0  0  0  0  0  0
  139.6260   69.6800  220.9750 C   0  0  0  0  0  0  0  0  0  0  0  0
  139.2520   68.7040  220.2690 O   0  0  0  0  0  0  0  0  0  0  0  0
  139.5170   69.6130  222.4470 C   0  0  0  0  0  0  0  0  0  0  0  0
  138.8270   68.5660  223.0810 C   0  0  0  0  0  0  0  0  0  0  0  0
  138.7740   68.5190  224.4770 C   0  0  0  0  0  0  0  0  0  0  0  0
  139.4070   69.5150  225.2330 C   0  0  0  0  0  0  0  0  0  0  0  0
  139.3700   69.5050  226.6350 C   0  0  0  0  0  0  0  0  0  0  0  0
  140.0200   70.5110  227.3580 C   0  0  0  0  0  0  0  0  0  0  0  0
  139.9930   70.4960  228.7130 F   0  0  0  0  0  0  0  0  0  0  0  0
  140.7130   71.5250  226.6870 C   0  0  0  0  0  0  0  0  0  0  0  0
  140.7510   71.5430  225.2900 C   0  0  0  0  0  0  0  0  0  0  0  0
  140.0970   70.5450  224.5600 C   0  0  0  0  0  0  0  0  0  0  0  0
  140.1310   70.5650  223.2030 N   0  0  0  0  0  0  0  0  0  0  0  0
  141.6930   77.2600  220.2140 C   0  0  0  0  0  0  0  0  0  0  0  0
  142.5580   77.4890  218.6970 Cl  0  0  0  0  0  0  0  0  0  0  0  0
  141.8470   78.2490  221.1950 C   0  0  0  0  0  0  0  0  0  0  0  0
  142.5869   80.3651  224.5021 H   0  0  0  0  0  0  0  0  0  0  0  0
  143.2401   79.7483  222.9467 H   0  0  0  0  0  0  0  0  0  0  0  0
  141.9643   81.0128  222.9467 H   0  0  0  0  0  0  0  0  0  0  0  0
  139.8644   76.9409  223.6484 H   0  0  0  0  0  0  0  0  0  0  0  0
  139.5390   75.1953  221.9166 H   0  0  0  0  0  0  0  0  0  0  0  0
  141.4611   75.1171  218.6785 H   0  0  0  0  0  0  0  0  0  0  0  0
  138.5129   75.4169  219.3232 H   0  0  0  0  0  0  0  0  0  0  0  0
  139.4547   76.1662  217.9897 H   0  0  0  0  0  0  0  0  0  0  0  0
  139.1501   74.3959  217.9897 H   0  0  0  0  0  0  0  0  0  0  0  0
  143.4715   72.1685  221.2686 H   0  0  0  0  0  0  0  0  0  0  0  0
  143.3284   74.9293  220.1342 H   0  0  0  0  0  0  0  0  0  0  0  0
  144.6748   74.1673  220.9965 H   0  0  0  0  0  0  0  0  0  0  0  0
  144.7227   74.6499  218.2438 H   0  0  0  0  0  0  0  0  0  0  0  0
  146.5410   73.9690  218.9650 H   0  0  0  0  0  0  0  0  0  0  0  0
  143.0940   73.1711  217.4112 H   0  0  0  0  0  0  0  0  0  0  0  0
  144.3531   71.9466  217.6238 H   0  0  0  0  0  0  0  0  0  0  0  0
  140.3805   71.6718  218.4251 H   0  0  0  0  0  0  0  0  0  0  0  0
  140.4227   69.8745  218.4988 H   0  0  0  0  0  0  0  0  0  0  0  0
  140.2430   71.7340  220.8720 H   0  0  0  0  0  0  0  0  0  0  0  0
  138.3313   67.7877  222.4821 H   0  0  0  0  0  0  0  0  0  0  0  0
  138.2367   67.7022  224.9811 H   0  0  0  0  0  0  0  0  0  0  0  0
  138.8303   68.7068  227.1657 H   0  0  0  0  0  0  0  0  0  0  0  0
  141.2288   72.3094  227.2603 H   0  0  0  0  0  0  0  0  0  0  0  0
  141.2951   72.3418  224.7647 H   0  0  0  0  0  0  0  0  0  0  0  0
  142.4855   79.1214  220.9921 H   0  0  0  0  0  0  0  0  0  0  0  0
  1  2  1  0
  2  3  1  0
  3  4  2  0
  4  5  1  0
  5  6  2  0
  6  7  1  0
  7  8  1  0
  7  9  1  0
  9 10  1  0
 10 11  2  0
 10 12  1  0
 12 13  1  0
 13 14  1  0
 14 15  1  0
 14 16  1  0
 16 17  1  0
 17 18  1  0
 18 19  2  0
 18 20  1  0
 20 21  1  0
 21 22  1  0
 22 23  2  0
 22 24  1  0
 24 25  2  0
 25 26  1  0
 26 27  2  0
 27 28  1  0
 28 29  2  0
 29 30  1  0
 29 31  1  0
 31 32  2  0
 32 33  1  0
 33 34  2  0
  6 35  1  0
 35 36  1  0
 35 37  2  0
 37  3  1  0
 17 12  1  0
 34 24  1  0
 33 27  1  0
  1 38  1  0
  1 39  1  0
  1 40  1  0
  4 41  1  0
  5 42  1  0
  7 43  1  6
  8 44  1  0
  8 45  1  0
  8 46  1  0
 12 47  1  1
 13 48  1  0
 13 49  1  0
 14 50  1  6
 15 51  1  0
 16 52  1  0
 16 53  1  0
 20 54  1  0
 20 55  1  0
 21 56  1  0
 25 57  1  0
 26 58  1  0
 28 59  1  0
 31 60  1  0
 32 61  1  0
 37 62  1  0
M  CHG  1   9  -1
M  END
>  <meeko>  (20) 
{"free_energy": -6.61, "intermolecular_energy": -9.59, "internal_energy": -3.92, "cluster_size": 4, "cluster_id": 2, "rank_in_cluster": 4}

$$$$
