
     RDKit          3D

 62 65  0  0  0  0  0  0  0  0999 V2000
  142.8680   81.5850  217.4650 C   0  0  0  0  0  0  0  0  0  0  0  0
  142.2380   81.2200  218.6900 O   0  0  0  0  0  0  0  0  0  0  0  0
  142.1250   79.9040  219.1600 C   0  0  0  0  0  0  0  0  0  0  0  0
  142.3820   78.7880  218.3480 C   0  0  0  0  0  0  0  0  0  0  0  0
  142.2610   77.4980  218.8650 C   0  0  0  0  0  0  0  0  0  0  0  0
  141.8970   77.2870  220.2080 C   0  0  0  0  0  0  0  0  0  0  0  0
  141.7890   75.8570  220.7120 C   0  0  2  0  0  0  0  0  0  0  0  0
  142.7820   74.9500  219.9830 C   0  0  0  0  0  0  0  0  0  0  0  0
  140.4340   75.3350  220.5510 N   0  0  0  0  0  0  0  0  0  0  0  0
  139.3580   75.4880  221.4870 C   0  0  0  0  0  0  0  0  0  0  0  0
  139.6020   75.3310  222.7130 O   0  0  0  0  0  0  0  0  0  0  0  0
  137.9670   75.8990  221.0550 C   0  0  2  0  0  0  0  0  0  0  0  0
  137.6810   77.3530  221.4380 C   0  0  0  0  0  0  0  0  0  0  0  0
  136.8550   77.2850  222.7220 C   0  0  1  0  0  0  0  0  0  0  0  0
  135.8930   78.3060  222.7450 O   0  0  0  0  0  0  0  0  0  0  0  0
  136.1990   75.9040  222.7140 C   0  0  0  0  0  0  0  0  0  0  0  0
  136.9630   75.1140  221.7610 N   0  0  0  0  0  0  0  0  0  0  0  0
  136.7000   73.7290  221.4620 C   0  0  0  0  0  0  0  0  0  0  0  0
  135.9720   73.4280  220.4780 O   0  0  0  0  0  0  0  0  0  0  0  0
  137.2470   72.6280  222.3190 C   0  0  0  0  0  0  0  0  0  0  0  0
  138.6130   72.3290  221.9030 N   0  0  0  0  0  0  0  0  0  0  0  0
  139.6650   72.2000  222.6650 C   0  0  0  0  0  0  0  0  0  0  0  0
  140.7740   73.0000  222.4000 O   0  0  0  0  0  0  0  0  0  0  0  0
  139.7500   71.2330  223.7920 C   0  0  0  0  0  0  0  0  0  0  0  0
  139.2860   69.9180  223.6220 C   0  0  0  0  0  0  0  0  0  0  0  0
  139.3850   69.0040  224.6730 C   0  0  0  0  0  0  0  0  0  0  0  0
  139.9540   69.3990  225.8890 C   0  0  0  0  0  0  0  0  0  0  0  0
  140.0700   68.5080  226.9660 C   0  0  0  0  0  0  0  0  0  0  0  0
  140.6480   68.9340  228.1670 C   0  0  0  0  0  0  0  0  0  0  0  0
  140.7580   68.0730  229.2080 F   0  0  0  0  0  0  0  0  0  0  0  0
  141.1140   70.2470  228.2950 C   0  0  0  0  0  0  0  0  0  0  0  0
  141.0010   71.1420  227.2260 C   0  0  0  0  0  0  0  0  0  0  0  0
  140.4230   70.7230  226.0220 C   0  0  0  0  0  0  0  0  0  0  0  0
  140.3110   71.5890  224.9810 N   0  0  0  0  0  0  0  0  0  0  0  0
  141.6170   78.4160  221.0200 C   0  0  0  0  0  0  0  0  0  0  0  0
  141.1150   78.2790  222.7030 Cl  0  0  0  0  0  0  0  0  0  0  0  0
  141.7380   79.7060  220.4890 C   0  0  0  0  0  0  0  0  0  0  0  0
  143.8015   82.1258  217.6797 H   0  0  0  0  0  0  0  0  0  0  0  0
  143.0946   80.6783  216.8849 H   0  0  0  0  0  0  0  0  0  0  0  0
  142.1941   82.2326  216.8849 H   0  0  0  0  0  0  0  0  0  0  0  0
  142.6802   78.9315  217.2990 H   0  0  0  0  0  0  0  0  0  0  0  0
  142.4529   76.6329  218.2133 H   0  0  0  0  0  0  0  0  0  0  0  0
  142.0312   75.8681  221.7850 H   0  0  0  0  0  0  0  0  0  0  0  0
  143.3849   74.3993  220.7200 H   0  0  0  0  0  0  0  0  0  0  0  0
  142.2318   74.2361  219.3524 H   0  0  0  0  0  0  0  0  0  0  0  0
  143.4433   75.5624  219.3524 H   0  0  0  0  0  0  0  0  0  0  0  0
  137.9210   75.7500  219.9661 H   0  0  0  0  0  0  0  0  0  0  0  0
  138.6214   77.8956  221.6147 H   0  0  0  0  0  0  0  0  0  0  0  0
  137.1469   77.8870  220.6383 H   0  0  0  0  0  0  0  0  0  0  0  0
  137.4761   77.4267  223.6187 H   0  0  0  0  0  0  0  0  0  0  0  0
  135.0070   77.8580  222.7750 H   0  0  0  0  0  0  0  0  0  0  0  0
  136.2470   75.4502  223.7149 H   0  0  0  0  0  0  0  0  0  0  0  0
  135.1359   75.9598  222.4370 H   0  0  0  0  0  0  0  0  0  0  0  0
  137.2445   72.9458  223.3721 H   0  0  0  0  0  0  0  0  0  0  0  0
  136.6223   71.7293  222.2088 H   0  0  0  0  0  0  0  0  0  0  0  0
  140.7150   73.7870  221.7630 H   0  0  0  0  0  0  0  0  0  0  0  0
  138.8455   69.6089  222.6626 H   0  0  0  0  0  0  0  0  0  0  0  0
  139.0164   67.9755  224.5454 H   0  0  0  0  0  0  0  0  0  0  0  0
  139.7067   67.4745  226.8665 H   0  0  0  0  0  0  0  0  0  0  0  0
  141.5709   70.5767  229.2397 H   0  0  0  0  0  0  0  0  0  0  0  0
  141.3661   72.1743  227.3314 H   0  0  0  0  0  0  0  0  0  0  0  0
  141.5255   80.5766  221.1269 H   0  0  0  0  0  0  0  0  0  0  0  0
  1  2  1  0
  2  3  1  0
  3  4  2  0
  4  5  1  0
  5  6  2  0
  6  7  1  0
  7  8  1  0
  7  9  1  0
  9 10  1  0
 10 11  2  0
 10 12  1  0
 12 13  1  0
 13 14  1  0
 14 15  1  0
 14 16  1  0
 16 17  1  0
 17 18  1  0
 18 19  2  0
 18 20  1  0
 20 21  1  0
 21 22  2  0
 22 23  1  0
 22 24  1  0
 24 25  2  0
 25 26  1  0
 26 27  2  0
 27 28  1  0
 28 29  2  0
 29 30  1  0
 29 31  1  0
 31 32  2  0
 32 33  1  0
 33 34  2  0
  6 35  1  0
 35 36  1  0
 35 37  2  0
 37  3  1  0
 17 12  1  0
 34 24  1  0
 33 27  1  0
  1 38  1  0
  1 39  1  0
  1 40  1  0
  4 41  1  0
  5 42  1  0
  7 43  1  1
  8 44  1  0
  8 45  1  0
  8 46  1  0
 12 47  1  6
 13 48  1  0
 13 49  1  0
 14 50  1  1
 15 51  1  0
 16 52  1  0
 16 53  1  0
 20 54  1  0
 20 55  1  0
 23 56  1  0
 25 57  1  0
 26 58  1  0
 28 59  1  0
 31 60  1  0
 32 61  1  0
 37 62  1  0
M  CHG  1   9  -1
M  END
>  <meeko>  (1) 
{"free_energy": -6.66, "intermolecular_energy": -10.24, "internal_energy": -3.44, "cluster_size": 5, "cluster_id": 5, "rank_in_cluster": 5}

$$$$

     RDKit          3D

 62 65  0  0  0  0  0  0  0  0999 V2000
  139.9770   83.2860  221.2930 C   0  0  0  0  0  0  0  0  0  0  0  0
  139.4560   81.9900  221.0130 O   0  0  0  0  0  0  0  0  0  0  0  0
  140.1540   80.9890  220.3230 C   0  0  0  0  0  0  0  0  0  0  0  0
  141.5500   81.0070  220.1760 C   0  0  0  0  0  0  0  0  0  0  0  0
  142.1990   79.9830  219.4840 C   0  0  0  0  0  0  0  0  0  0  0  0
  141.4750   78.9080  218.9360 C   0  0  0  0  0  0  0  0  0  0  0  0
  142.2430   77.8210  218.2010 C   0  0  2  0  0  0  0  0  0  0  0  0
  141.9500   77.8720  216.7010 C   0  0  0  0  0  0  0  0  0  0  0  0
  141.9210   76.4950  218.7230 N   0  0  0  0  0  0  0  0  0  0  0  0
  142.8480   75.4160  218.9080 C   0  0  0  0  0  0  0  0  0  0  0  0
  143.4220   74.9370  217.8940 O   0  0  0  0  0  0  0  0  0  0  0  0
  143.2080   74.8910  220.2800 C   0  0  2  0  0  0  0  0  0  0  0  0
  144.7260   74.8400  220.4680 C   0  0  0  0  0  0  0  0  0  0  0  0
  145.1210   73.3840  220.2210 C   0  0  1  0  0  0  0  0  0  0  0  0
  146.1680   73.0050  221.0740 O   0  0  0  0  0  0  0  0  0  0  0  0
  143.8590   72.5650  220.4910 C   0  0  0  0  0  0  0  0  0  0  0  0
  142.7570   73.5140  220.4310 N   0  0  0  0  0  0  0  0  0  0  0  0
  141.3720   73.1570  220.6040 C   0  0  0  0  0  0  0  0  0  0  0  0
  140.6570   72.9170  219.5940 O   0  0  0  0  0  0  0  0  0  0  0  0
  140.7450   73.0990  221.9640 C   0  0  0  0  0  0  0  0  0  0  0  0
  139.8830   74.2620  222.1460 N   0  0  0  0  0  0  0  0  0  0  0  0
  139.8860   75.3680  221.4530 C   0  0  0  0  0  0  0  0  0  0  0  0
  139.7070   75.2820  220.0740 O   0  0  0  0  0  0  0  0  0  0  0  0
  140.0870   76.7140  222.0530 C   0  0  0  0  0  0  0  0  0  0  0  0
  138.9940   77.4070  222.6000 C   0  0  0  0  0  0  0  0  0  0  0  0
  139.1870   78.6610  223.1820 C   0  0  0  0  0  0  0  0  0  0  0  0
  140.4690   79.2200  223.2270 C   0  0  0  0  0  0  0  0  0  0  0  0
  140.7000   80.4770  223.8040 C   0  0  0  0  0  0  0  0  0  0  0  0
  141.9950   81.0050  223.8350 C   0  0  0  0  0  0  0  0  0  0  0  0
  142.2170   82.2210  224.3910 F   0  0  0  0  0  0  0  0  0  0  0  0
  143.0630   80.2800  223.2940 C   0  0  0  0  0  0  0  0  0  0  0  0
  142.8400   79.0260  222.7170 C   0  0  0  0  0  0  0  0  0  0  0  0
  141.5470   78.4920  222.6800 C   0  0  0  0  0  0  0  0  0  0  0  0
  141.3270   77.2740  222.1190 N   0  0  0  0  0  0  0  0  0  0  0  0
  140.0640   78.9040  219.0680 C   0  0  0  0  0  0  0  0  0  0  0  0
  139.0470   77.6330  218.3910 Cl  0  0  0  0  0  0  0  0  0  0  0  0
  139.4230   79.9380  219.7610 C   0  0  0  0  0  0  0  0  0  0  0  0
  140.0351   83.4304  222.3819 H   0  0  0  0  0  0  0  0  0  0  0  0
  140.9824   83.3791  220.8566 H   0  0  0  0  0  0  0  0  0  0  0  0
  139.3158   84.0491  220.8566 H   0  0  0  0  0  0  0  0  0  0  0  0
  142.1353   81.8320  220.6082 H   0  0  0  0  0  0  0  0  0  0  0  0
  143.2921   80.0169  219.3654 H   0  0  0  0  0  0  0  0  0  0  0  0
  143.3147   78.0072  218.3648 H   0  0  0  0  0  0  0  0  0  0  0  0
  140.8775   78.0587  216.5430 H   0  0  0  0  0  0  0  0  0  0  0  0
  142.5349   78.6818  216.2405 H   0  0  0  0  0  0  0  0  0  0  0  0
  142.2268   76.9122  216.2405 H   0  0  0  0  0  0  0  0  0  0  0  0
  142.7332   75.5658  221.0074 H   0  0  0  0  0  0  0  0  0  0  0  0
  145.2251   75.5015  219.7446 H   0  0  0  0  0  0  0  0  0  0  0  0
  145.0239   75.1784  221.4714 H   0  0  0  0  0  0  0  0  0  0  0  0
  145.4867   73.2254  219.1958 H   0  0  0  0  0  0  0  0  0  0  0  0
  145.8920   72.1480  221.4950 H   0  0  0  0  0  0  0  0  0  0  0  0
  143.7362   71.7849  219.7252 H   0  0  0  0  0  0  0  0  0  0  0  0
  143.9049   72.0551  221.4646 H   0  0  0  0  0  0  0  0  0  0  0  0
  140.1469   72.1802  222.0543 H   0  0  0  0  0  0  0  0  0  0  0  0
  141.5313   73.0984  222.7332 H   0  0  0  0  0  0  0  0  0  0  0  0
  140.4820   75.0780  219.4550 H   0  0  0  0  0  0  0  0  0  0  0  0
  137.9884   76.9623  222.5697 H   0  0  0  0  0  0  0  0  0  0  0  0
  138.3322   79.2092  223.6048 H   0  0  0  0  0  0  0  0  0  0  0  0
  139.8629   81.0478  224.2322 H   0  0  0  0  0  0  0  0  0  0  0  0
  144.0802   80.6977  223.3228 H   0  0  0  0  0  0  0  0  0  0  0  0
  143.6813   78.4590  222.2920 H   0  0  0  0  0  0  0  0  0  0  0  0
  138.3280   79.9233  219.8649 H   0  0  0  0  0  0  0  0  0  0  0  0
  1  2  1  0
  2  3  1  0
  3  4  2  0
  4  5  1  0
  5  6  2  0
  6  7  1  0
  7  8  1  0
  7  9  1  0
  9 10  1  0
 10 11  2  0
 10 12  1  0
 12 13  1  0
 13 14  1  0
 14 15  1  0
 14 16  1  0
 16 17  1  0
 17 18  1  0
 18 19  2  0
 18 20  1  0
 20 21  1  0
 21 22  2  0
 22 23  1  0
 22 24  1  0
 24 25  2  0
 25 26  1  0
 26 27  2  0
 27 28  1  0
 28 29  2  0
 29 30  1  0
 29 31  1  0
 31 32  2  0
 32 33  1  0
 33 34  2  0
  6 35  1  0
 35 36  1  0
 35 37  2  0
 37  3  1  0
 17 12  1  0
 34 24  1  0
 33 27  1  0
  1 38  1  0
  1 39  1  0
  1 40  1  0
  4 41  1  0
  5 42  1  0
  7 43  1  6
  8 44  1  0
  8 45  1  0
  8 46  1  0
 12 47  1  1
 13 48  1  0
 13 49  1  0
 14 50  1  6
 15 51  1  0
 16 52  1  0
 16 53  1  0
 20 54  1  0
 20 55  1  0
 23 56  1  0
 25 57  1  0
 26 58  1  0
 28 59  1  0
 31 60  1  0
 32 61  1  0
 37 62  1  0
M  CHG  1   9  -1
M  END
>  <meeko>  (2) 
{"free_energy": -5.43, "intermolecular_energy": -9.01, "internal_energy": -5.11, "cluster_size": 1, "cluster_id": 8, "rank_in_cluster": 1}

$$$$

     RDKit          3D

 62 65  0  0  0  0  0  0  0  0999 V2000
  142.2100   81.6120  223.9770 C   0  0  0  0  0  0  0  0  0  0  0  0
  142.5010   80.2170  224.0020 O   0  0  0  0  0  0  0  0  0  0  0  0
  142.0140   79.2910  223.0680 C   0  0  0  0  0  0  0  0  0  0  0  0
  141.4470   78.0640  223.4480 C   0  0  0  0  0  0  0  0  0  0  0  0
  140.9720   77.1780  222.4800 C   0  0  0  0  0  0  0  0  0  0  0  0
  141.0350   77.4990  221.1120 C   0  0  0  0  0  0  0  0  0  0  0  0
  140.4930   76.4930  220.1080 C   0  0  2  0  0  0  0  0  0  0  0  0
  138.9670   76.4350  220.1700 C   0  0  0  0  0  0  0  0  0  0  0  0
  141.0480   75.1600  220.3380 N   0  0  0  0  0  0  0  0  0  0  0  0
  142.3550   74.7160  219.9510 C   0  0  0  0  0  0  0  0  0  0  0  0
  143.0160   75.4250  219.1460 O   0  0  0  0  0  0  0  0  0  0  0  0
  142.9870   73.4700  220.5320 C   0  0  2  0  0  0  0  0  0  0  0  0
  144.4830   73.6780  220.7810 C   0  0  0  0  0  0  0  0  0  0  0  0
  145.1910   73.0280  219.5930 C   0  0  1  0  0  0  0  0  0  0  0  0
  146.3900   72.4240  220.0030 O   0  0  0  0  0  0  0  0  0  0  0  0
  144.2080   71.9950  219.0440 C   0  0  0  0  0  0  0  0  0  0  0  0
  142.9080   72.3690  219.5810 N   0  0  0  0  0  0  0  0  0  0  0  0
  141.6810   71.6720  219.2910 C   0  0  0  0  0  0  0  0  0  0  0  0
  141.2310   71.6590  218.1130 O   0  0  0  0  0  0  0  0  0  0  0  0
  140.9010   70.9830  220.3700 C   0  0  0  0  0  0  0  0  0  0  0  0
  139.9440   71.9230  220.9460 N   0  0  0  0  0  0  0  0  0  0  0  0
  139.9290   72.3940  222.1630 C   0  0  0  0  0  0  0  0  0  0  0  0
  139.9920   73.7740  222.3370 O   0  0  0  0  0  0  0  0  0  0  0  0
  139.8660   71.5350  223.3760 C   0  0  0  0  0  0  0  0  0  0  0  0
  139.2270   70.2850  223.3150 C   0  0  0  0  0  0  0  0  0  0  0  0
  139.1860   69.4690  224.4470 C   0  0  0  0  0  0  0  0  0  0  0  0
  139.7880   69.8960  225.6360 C   0  0  0  0  0  0  0  0  0  0  0  0
  139.7660   69.1030  226.7930 C   0  0  0  0  0  0  0  0  0  0  0  0
  140.3820   69.5580  227.9640 C   0  0  0  0  0  0  0  0  0  0  0  0
  140.3590   68.7920  229.0830 F   0  0  0  0  0  0  0  0  0  0  0  0
  141.0220   70.8020  227.9840 C   0  0  0  0  0  0  0  0  0  0  0  0
  141.0480   71.5980  226.8350 C   0  0  0  0  0  0  0  0  0  0  0  0
  140.4330   71.1510  225.6600 C   0  0  0  0  0  0  0  0  0  0  0  0
  140.4550   71.9220  224.5410 N   0  0  0  0  0  0  0  0  0  0  0  0
  141.6280   78.7290  220.7300 C   0  0  0  0  0  0  0  0  0  0  0  0
  141.7990   79.2240  219.0480 Cl  0  0  0  0  0  0  0  0  0  0  0  0
  142.1050   79.6090  221.7100 C   0  0  0  0  0  0  0  0  0  0  0  0
  142.1314   81.9887  225.0075 H   0  0  0  0  0  0  0  0  0  0  0  0
  143.0162   82.1454  223.4521 H   0  0  0  0  0  0  0  0  0  0  0  0
  141.2578   81.7786  223.4521 H   0  0  0  0  0  0  0  0  0  0  0  0
  141.3769   77.7999  224.5135 H   0  0  0  0  0  0  0  0  0  0  0  0
  140.5421   76.2146  222.7914 H   0  0  0  0  0  0  0  0  0  0  0  0
  140.7995   76.8295  219.1066 H   0  0  0  0  0  0  0  0  0  0  0  0
  138.6429   76.4227  221.2211 H   0  0  0  0  0  0  0  0  0  0  0  0
  138.5458   77.3178  219.6668 H   0  0  0  0  0  0  0  0  0  0  0  0
  138.6140   75.5228  219.6668 H   0  0  0  0  0  0  0  0  0  0  0  0
  142.4473   73.2525  221.4655 H   0  0  0  0  0  0  0  0  0  0  0  0
  144.7189   74.7514  220.8283 H   0  0  0  0  0  0  0  0  0  0  0  0
  144.8021   73.2364  221.7366 H   0  0  0  0  0  0  0  0  0  0  0  0
  145.4644   73.7654  218.8239 H   0  0  0  0  0  0  0  0  0  0  0  0
  146.1710   71.8810  220.8060 H   0  0  0  0  0  0  0  0  0  0  0  0
  144.1927   72.0257  217.9445 H   0  0  0  0  0  0  0  0  0  0  0  0
  144.4890   70.9715  219.3329 H   0  0  0  0  0  0  0  0  0  0  0  0
  140.3619   70.1245  219.9431 H   0  0  0  0  0  0  0  0  0  0  0  0
  141.5874   70.6284  221.1530 H   0  0  0  0  0  0  0  0  0  0  0  0
  140.3110   74.3840  221.5930 H   0  0  0  0  0  0  0  0  0  0  0  0
  138.7600   69.9501  222.3771 H   0  0  0  0  0  0  0  0  0  0  0  0
  138.6816   68.4924  224.4045 H   0  0  0  0  0  0  0  0  0  0  0  0
  139.2647   68.1239  226.7796 H   0  0  0  0  0  0  0  0  0  0  0  0
  141.5062   71.1548  228.9065 H   0  0  0  0  0  0  0  0  0  0  0  0
  141.5518   72.5756  226.8545 H   0  0  0  0  0  0  0  0  0  0  0  0
  142.5578   80.5644  221.4063 H   0  0  0  0  0  0  0  0  0  0  0  0
  1  2  1  0
  2  3  1  0
  3  4  2  0
  4  5  1  0
  5  6  2  0
  6  7  1  0
  7  8  1  0
  7  9  1  0
  9 10  1  0
 10 11  2  0
 10 12  1  0
 12 13  1  0
 13 14  1  0
 14 15  1  0
 14 16  1  0
 16 17  1  0
 17 18  1  0
 18 19  2  0
 18 20  1  0
 20 21  1  0
 21 22  2  0
 22 23  1  0
 22 24  1  0
 24 25  2  0
 25 26  1  0
 26 27  2  0
 27 28  1  0
 28 29  2  0
 29 30  1  0
 29 31  1  0
 31 32  2  0
 32 33  1  0
 33 34  2  0
  6 35  1  0
 35 36  1  0
 35 37  2  0
 37  3  1  0
 17 12  1  0
 34 24  1  0
 33 27  1  0
  1 38  1  0
  1 39  1  0
  1 40  1  0
  4 41  1  0
  5 42  1  0
  7 43  1  6
  8 44  1  0
  8 45  1  0
  8 46  1  0
 12 47  1  1
 13 48  1  0
 13 49  1  0
 14 50  1  6
 15 51  1  0
 16 52  1  0
 16 53  1  0
 20 54  1  0
 20 55  1  0
 23 56  1  0
 25 57  1  0
 26 58  1  0
 28 59  1  0
 31 60  1  0
 32 61  1  0
 37 62  1  0
M  CHG  1   9  -1
M  END
>  <meeko>  (3) 
{"free_energy": -8.02, "intermolecular_energy": -11.6, "internal_energy": -2.94, "cluster_size": 4, "cluster_id": 2, "rank_in_cluster": 1}

$$$$

     RDKit          3D

 62 65  0  0  0  0  0  0  0  0999 V2000
  142.7930   80.5080  223.6080 C   0  0  0  0  0  0  0  0  0  0  0  0
  141.6710   79.7510  224.0540 O   0  0  0  0  0  0  0  0  0  0  0  0
  140.8490   78.9860  223.2130 C   0  0  0  0  0  0  0  0  0  0  0  0
  139.5100   79.3220  222.9590 C   0  0  0  0  0  0  0  0  0  0  0  0
  138.7340   78.5310  222.1100 C   0  0  0  0  0  0  0  0  0  0  0  0
  139.2790   77.3960  221.4810 C   0  0  0  0  0  0  0  0  0  0  0  0
  138.3820   76.5800  220.5620 C   0  0  2  0  0  0  0  0  0  0  0  0
  137.2690   77.4510  219.9800 C   0  0  0  0  0  0  0  0  0  0  0  0
  137.8010   75.4360  221.2620 N   0  0  0  0  0  0  0  0  0  0  0  0
  137.1620   75.4730  222.5450 C   0  0  0  0  0  0  0  0  0  0  0  0
  137.7640   76.0340  223.4990 O   0  0  0  0  0  0  0  0  0  0  0  0
  135.7700   74.9260  222.7670 C   0  0  2  0  0  0  0  0  0  0  0  0
  135.0620   75.6680  223.9030 C   0  0  0  0  0  0  0  0  0  0  0  0
  135.2040   74.7700  225.1310 C   0  0  1  0  0  0  0  0  0  0  0  0
  134.0500   74.8360  225.9270 O   0  0  0  0  0  0  0  0  0  0  0  0
  135.4220   73.3590  224.5850 C   0  0  0  0  0  0  0  0  0  0  0  0
  135.8330   73.5360  223.2000 N   0  0  0  0  0  0  0  0  0  0  0  0
  136.1700   72.4530  222.3110 C   0  0  0  0  0  0  0  0  0  0  0  0
  135.7300   71.2940  222.5410 O   0  0  0  0  0  0  0  0  0  0  0  0
  137.0660   72.6650  221.1290 C   0  0  0  0  0  0  0  0  0  0  0  0
  138.4060   72.1830  221.4500 N   0  0  0  0  0  0  0  0  0  0  0  0
  139.1030   72.4340  222.5240 C   0  0  0  0  0  0  0  0  0  0  0  0
  139.7000   73.6870  222.6440 O   0  0  0  0  0  0  0  0  0  0  0  0
  139.3100   71.4500  223.6200 C   0  0  0  0  0  0  0  0  0  0  0  0
  138.8710   70.1240  223.4600 C   0  0  0  0  0  0  0  0  0  0  0  0
  139.0840   69.1950  224.4810 C   0  0  0  0  0  0  0  0  0  0  0  0
  139.7400   69.5840  225.6530 C   0  0  0  0  0  0  0  0  0  0  0  0
  139.9710   68.6770  226.6980 C   0  0  0  0  0  0  0  0  0  0  0  0
  140.6340   69.0990  227.8560 C   0  0  0  0  0  0  0  0  0  0  0  0
  140.8550   68.2230  228.8670 F   0  0  0  0  0  0  0  0  0  0  0  0
  141.0700   70.4230  227.9740 C   0  0  0  0  0  0  0  0  0  0  0  0
  140.8430   71.3330  226.9360 C   0  0  0  0  0  0  0  0  0  0  0  0
  140.1790   70.9190  225.7750 C   0  0  0  0  0  0  0  0  0  0  0  0
  139.9570   71.8010  224.7650 N   0  0  0  0  0  0  0  0  0  0  0  0
  140.6250   77.0470  221.7570 C   0  0  0  0  0  0  0  0  0  0  0  0
  141.4050   75.6290  221.0600 Cl  0  0  0  0  0  0  0  0  0  0  0  0
  141.3930   77.8470  222.6130 C   0  0  0  0  0  0  0  0  0  0  0  0
  143.3507   80.8843  224.4782 H   0  0  0  0  0  0  0  0  0  0  0  0
  143.4495   79.8675  223.0008 H   0  0  0  0  0  0  0  0  0  0  0  0
  142.4448   81.3565  223.0008 H   0  0  0  0  0  0  0  0  0  0  0  0
  139.0701   80.2128  223.4312 H   0  0  0  0  0  0  0  0  0  0  0  0
  137.6823   78.7984  221.9301 H   0  0  0  0  0  0  0  0  0  0  0  0
  139.0089   76.2018  219.7410 H   0  0  0  0  0  0  0  0  0  0  0  0
  136.6910   77.9033  220.7993 H   0  0  0  0  0  0  0  0  0  0  0  0
  137.7110   78.2456  219.3609 H   0  0  0  0  0  0  0  0  0  0  0  0
  136.6040   76.8309  219.3609 H   0  0  0  0  0  0  0  0  0  0  0  0
  135.2343   75.0406  221.8131 H   0  0  0  0  0  0  0  0  0  0  0  0
  135.5404   76.6422  224.0822 H   0  0  0  0  0  0  0  0  0  0  0  0
  134.0069   75.8671  223.6640 H   0  0  0  0  0  0  0  0  0  0  0  0
  136.0403   75.0821  225.7737 H   0  0  0  0  0  0  0  0  0  0  0  0
  133.3190   75.1610  225.3370 H   0  0  0  0  0  0  0  0  0  0  0  0
  136.2080   72.8432  225.1561 H   0  0  0  0  0  0  0  0  0  0  0  0
  134.5122   72.7459  224.6651 H   0  0  0  0  0  0  0  0  0  0  0  0
  136.6725   72.1098  220.2648 H   0  0  0  0  0  0  0  0  0  0  0  0
  137.1075   73.7366  220.8841 H   0  0  0  0  0  0  0  0  0  0  0  0
  139.1420   74.5280  222.7400 H   0  0  0  0  0  0  0  0  0  0  0  0
  138.3615   69.8192  222.5340 H   0  0  0  0  0  0  0  0  0  0  0  0
  138.7360   68.1582  224.3632 H   0  0  0  0  0  0  0  0  0  0  0  0
  139.6312   67.6347  226.6073 H   0  0  0  0  0  0  0  0  0  0  0  0
  141.5926   70.7494  228.8852 H   0  0  0  0  0  0  0  0  0  0  0  0
  141.1862   72.3737  227.0320 H   0  0  0  0  0  0  0  0  0  0  0  0
  142.4393   77.5748  222.8158 H   0  0  0  0  0  0  0  0  0  0  0  0
  1  2  1  0
  2  3  1  0
  3  4  2  0
  4  5  1  0
  5  6  2  0
  6  7  1  0
  7  8  1  0
  7  9  1  0
  9 10  1  0
 10 11  2  0
 10 12  1  0
 12 13  1  0
 13 14  1  0
 14 15  1  0
 14 16  1  0
 16 17  1  0
 17 18  1  0
 18 19  2  0
 18 20  1  0
 20 21  1  0
 21 22  2  0
 22 23  1  0
 22 24  1  0
 24 25  2  0
 25 26  1  0
 26 27  2  0
 27 28  1  0
 28 29  2  0
 29 30  1  0
 29 31  1  0
 31 32  2  0
 32 33  1  0
 33 34  2  0
  6 35  1  0
 35 36  1  0
 35 37  2  0
 37  3  1  0
 17 12  1  0
 34 24  1  0
 33 27  1  0
  1 38  1  0
  1 39  1  0
  1 40  1  0
  4 41  1  0
  5 42  1  0
  7 43  1  6
  8 44  1  0
  8 45  1  0
  8 46  1  0
 12 47  1  6
 13 48  1  0
 13 49  1  0
 14 50  1  1
 15 51  1  0
 16 52  1  0
 16 53  1  0
 20 54  1  0
 20 55  1  0
 23 56  1  0
 25 57  1  0
 26 58  1  0
 28 59  1  0
 31 60  1  0
 32 61  1  0
 37 62  1  0
M  CHG  1   9  -1
M  END
>  <meeko>  (4) 
{"free_energy": -6.68, "intermolecular_energy": -10.26, "internal_energy": -3.78, "cluster_size": 5, "cluster_id": 5, "rank_in_cluster": 4}

$$$$

     RDKit          3D

 62 65  0  0  0  0  0  0  0  0999 V2000
  141.4600   76.9750  220.6610 C   0  0  0  0  0  0  0  0  0  0  0  0
  141.5040   75.5510  220.6490 O   0  0  0  0  0  0  0  0  0  0  0  0
  142.4810   74.7950  219.9850 C   0  0  0  0  0  0  0  0  0  0  0  0
  142.3070   74.3240  218.6740 C   0  0  0  0  0  0  0  0  0  0  0  0
  143.3120   73.5800  218.0530 C   0  0  0  0  0  0  0  0  0  0  0  0
  144.5210   73.3020  218.7170 C   0  0  0  0  0  0  0  0  0  0  0  0
  145.5790   72.4930  217.9830 C   0  0  2  0  0  0  0  0  0  0  0  0
  145.7480   72.9970  216.5500 C   0  0  0  0  0  0  0  0  0  0  0  0
  145.2470   71.0690  217.9700 N   0  0  0  0  0  0  0  0  0  0  0  0
  145.6740   70.0980  218.9340 C   0  0  0  0  0  0  0  0  0  0  0  0
  146.8610   70.1510  219.3540 O   0  0  0  0  0  0  0  0  0  0  0  0
  144.7300   69.0660  219.5110 C   0  0  2  0  0  0  0  0  0  0  0  0
  144.7910   67.7600  218.7160 C   0  0  0  0  0  0  0  0  0  0  0  0
  143.5840   67.7920  217.7800 C   0  0  1  0  0  0  0  0  0  0  0  0
  143.0440   66.5060  217.6250 O   0  0  0  0  0  0  0  0  0  0  0  0
  142.5810   68.7400  218.4370 C   0  0  0  0  0  0  0  0  0  0  0  0
  143.3500   69.5190  219.3960 N   0  0  0  0  0  0  0  0  0  0  0  0
  142.7960   70.5600  220.2230 C   0  0  0  0  0  0  0  0  0  0  0  0
  143.5630   71.2950  220.9020 O   0  0  0  0  0  0  0  0  0  0  0  0
  141.3160   70.7710  220.3250 C   0  0  0  0  0  0  0  0  0  0  0  0
  141.0550   72.1330  220.7800 N   0  0  0  0  0  0  0  0  0  0  0  0
  140.4790   72.5020  221.8920 C   0  0  0  0  0  0  0  0  0  0  0  0
  140.0550   73.8230  222.0080 O   0  0  0  0  0  0  0  0  0  0  0  0
  140.2680   71.5910  223.0490 C   0  0  0  0  0  0  0  0  0  0  0  0
  139.6110   70.3630  222.8610 C   0  0  0  0  0  0  0  0  0  0  0  0
  139.4310   69.4990  223.9430 C   0  0  0  0  0  0  0  0  0  0  0  0
  139.9140   69.8540  225.2080 C   0  0  0  0  0  0  0  0  0  0  0  0
  139.7510   69.0110  226.3170 C   0  0  0  0  0  0  0  0  0  0  0  0
  140.2490   69.3950  227.5660 C   0  0  0  0  0  0  0  0  0  0  0  0
  140.0900   68.5810  228.6380 F   0  0  0  0  0  0  0  0  0  0  0  0
  140.9120   70.6190  227.7130 C   0  0  0  0  0  0  0  0  0  0  0  0
  141.0780   71.4650  226.6120 C   0  0  0  0  0  0  0  0  0  0  0  0
  140.5810   71.0880  225.3580 C   0  0  0  0  0  0  0  0  0  0  0  0
  140.7390   71.9090  224.2860 N   0  0  0  0  0  0  0  0  0  0  0  0
  144.6850   73.7610  220.0490 C   0  0  0  0  0  0  0  0  0  0  0  0
  146.1370   73.4430  220.9960 Cl  0  0  0  0  0  0  0  0  0  0  0  0
  143.6680   74.5040  220.6630 C   0  0  0  0  0  0  0  0  0  0  0  0
  141.4490   77.3327  221.7011 H   0  0  0  0  0  0  0  0  0  0  0  0
  142.3463   77.3736  220.1456 H   0  0  0  0  0  0  0  0  0  0  0  0
  140.5508   77.3181  220.1456 H   0  0  0  0  0  0  0  0  0  0  0  0
  141.3742   74.5422  218.1334 H   0  0  0  0  0  0  0  0  0  0  0  0
  143.1565   73.2059  217.0303 H   0  0  0  0  0  0  0  0  0  0  0  0
  146.5274   72.6239  218.5246 H   0  0  0  0  0  0  0  0  0  0  0  0
  146.0977   74.0398  216.5669 H   0  0  0  0  0  0  0  0  0  0  0  0
  146.4855   72.3714  216.0259 H   0  0  0  0  0  0  0  0  0  0  0  0
  144.7824   72.9425  216.0259 H   0  0  0  0  0  0  0  0  0  0  0  0
  145.0327   68.9169  220.5580 H   0  0  0  0  0  0  0  0  0  0  0  0
  145.7247   67.7063  218.1369 H   0  0  0  0  0  0  0  0  0  0  0  0
  144.7709   66.8803  219.3762 H   0  0  0  0  0  0  0  0  0  0  0  0
  143.8557   68.1353  216.7709 H   0  0  0  0  0  0  0  0  0  0  0  0
  143.7380   65.9620  217.1660 H   0  0  0  0  0  0  0  0  0  0  0  0
  142.1255   69.3995  217.6836 H   0  0  0  0  0  0  0  0  0  0  0  0
  141.7602   68.1918  218.9225 H   0  0  0  0  0  0  0  0  0  0  0  0
  140.8538   70.6178  219.3386 H   0  0  0  0  0  0  0  0  0  0  0  0
  140.8893   70.0540  221.0419 H   0  0  0  0  0  0  0  0  0  0  0  0
  140.4750   74.5610  221.4560 H   0  0  0  0  0  0  0  0  0  0  0  0
  139.2395   70.0832  221.8641 H   0  0  0  0  0  0  0  0  0  0  0  0
  138.9102   68.5405  223.8015 H   0  0  0  0  0  0  0  0  0  0  0  0
  139.2315   68.0480  226.2043 H   0  0  0  0  0  0  0  0  0  0  0  0
  141.3034   70.9162  228.6971 H   0  0  0  0  0  0  0  0  0  0  0  0
  141.5989   72.4265  226.7308 H   0  0  0  0  0  0  0  0  0  0  0  0
  143.8058   74.8634  221.6934 H   0  0  0  0  0  0  0  0  0  0  0  0
  1  2  1  0
  2  3  1  0
  3  4  2  0
  4  5  1  0
  5  6  2  0
  6  7  1  0
  7  8  1  0
  7  9  1  0
  9 10  1  0
 10 11  2  0
 10 12  1  0
 12 13  1  0
 13 14  1  0
 14 15  1  0
 14 16  1  0
 16 17  1  0
 17 18  1  0
 18 19  2  0
 18 20  1  0
 20 21  1  0
 21 22  2  0
 22 23  1  0
 22 24  1  0
 24 25  2  0
 25 26  1  0
 26 27  2  0
 27 28  1  0
 28 29  2  0
 29 30  1  0
 29 31  1  0
 31 32  2  0
 32 33  1  0
 33 34  2  0
  6 35  1  0
 35 36  1  0
 35 37  2  0
 37  3  1  0
 17 12  1  0
 34 24  1  0
 33 27  1  0
  1 38  1  0
  1 39  1  0
  1 40  1  0
  4 41  1  0
  5 42  1  0
  7 43  1  1
  8 44  1  0
  8 45  1  0
  8 46  1  0
 12 47  1  1
 13 48  1  0
 13 49  1  0
 14 50  1  6
 15 51  1  0
 16 52  1  0
 16 53  1  0
 20 54  1  0
 20 55  1  0
 23 56  1  0
 25 57  1  0
 26 58  1  0
 28 59  1  0
 31 60  1  0
 32 61  1  0
 37 62  1  0
M  CHG  1   9  -1
M  END
>  <meeko>  (5) 
{"free_energy": -7.19, "intermolecular_energy": -10.77, "internal_energy": -3.45, "cluster_size": 3, "cluster_id": 4, "rank_in_cluster": 1}

$$$$

     RDKit          3D

 62 65  0  0  0  0  0  0  0  0999 V2000
  140.5470   85.2490  220.9910 C   0  0  0  0  0  0  0  0  0  0  0  0
  140.2510   83.9940  220.3850 O   0  0  0  0  0  0  0  0  0  0  0  0
  140.3760   82.7550  221.0290 C   0  0  0  0  0  0  0  0  0  0  0  0
  141.4300   81.8680  220.7590 C   0  0  0  0  0  0  0  0  0  0  0  0
  141.5140   80.6480  221.4310 C   0  0  0  0  0  0  0  0  0  0  0  0
  140.5600   80.2890  222.4020 C   0  0  0  0  0  0  0  0  0  0  0  0
  140.7120   78.9490  223.1030 C   0  0  2  0  0  0  0  0  0  0  0  0
  141.8140   79.0140  224.1610 C   0  0  0  0  0  0  0  0  0  0  0  0
  141.0030   77.8790  222.1520 N   0  0  0  0  0  0  0  0  0  0  0  0
  140.1900   76.7220  221.9120 C   0  0  0  0  0  0  0  0  0  0  0  0
  140.5900   75.6080  222.3420 O   0  0  0  0  0  0  0  0  0  0  0  0
  138.8430   76.8120  221.2290 C   0  0  2  0  0  0  0  0  0  0  0  0
  138.0730   78.0500  221.6930 C   0  0  0  0  0  0  0  0  0  0  0  0
  137.0840   77.5470  222.7450 C   0  0  1  0  0  0  0  0  0  0  0  0
  135.8750   78.2540  222.6630 O   0  0  0  0  0  0  0  0  0  0  0  0
  136.8820   76.0630  222.4410 C   0  0  0  0  0  0  0  0  0  0  0  0
  138.0070   75.6790  221.6020 N   0  0  0  0  0  0  0  0  0  0  0  0
  138.2270   74.3450  221.1030 C   0  0  0  0  0  0  0  0  0  0  0  0
  139.0550   74.1540  220.1710 O   0  0  0  0  0  0  0  0  0  0  0  0
  137.4650   73.1740  221.6450 C   0  0  0  0  0  0  0  0  0  0  0  0
  138.3930   72.0790  221.9100 N   0  0  0  0  0  0  0  0  0  0  0  0
  139.4090   72.0810  222.7300 C   0  0  0  0  0  0  0  0  0  0  0  0
  140.4170   73.0210  222.5290 O   0  0  0  0  0  0  0  0  0  0  0  0
  139.5570   71.1230  223.8580 C   0  0  0  0  0  0  0  0  0  0  0  0
  139.1150   69.7970  223.7130 C   0  0  0  0  0  0  0  0  0  0  0  0
  139.2730   68.8920  224.7640 C   0  0  0  0  0  0  0  0  0  0  0  0
  139.8790   69.3060  225.9560 C   0  0  0  0  0  0  0  0  0  0  0  0
  140.0550   68.4250  227.0320 C   0  0  0  0  0  0  0  0  0  0  0  0
  140.6690   68.8700  228.2080 C   0  0  0  0  0  0  0  0  0  0  0  0
  140.8360   68.0180  229.2490 F   0  0  0  0  0  0  0  0  0  0  0  0
  141.1110   70.1940  228.3120 C   0  0  0  0  0  0  0  0  0  0  0  0
  140.9390   71.0790  227.2430 C   0  0  0  0  0  0  0  0  0  0  0  0
  140.3240   70.6410  226.0640 C   0  0  0  0  0  0  0  0  0  0  0  0
  140.1550   71.4980  225.0230 N   0  0  0  0  0  0  0  0  0  0  0  0
  139.4850   81.1780  222.6560 C   0  0  0  0  0  0  0  0  0  0  0  0
  138.2090   80.8230  223.8190 Cl  0  0  0  0  0  0  0  0  0  0  0  0
  139.4090   82.3980  221.9730 C   0  0  0  0  0  0  0  0  0  0  0  0
  140.5219   85.1426  222.0856 H   0  0  0  0  0  0  0  0  0  0  0  0
  141.5480   85.5805  220.6777 H   0  0  0  0  0  0  0  0  0  0  0  0
  139.7996   85.9928  220.6777 H   0  0  0  0  0  0  0  0  0  0  0  0
  142.1935   82.1360  220.0139 H   0  0  0  0  0  0  0  0  0  0  0  0
  142.3376   79.9568  221.1987 H   0  0  0  0  0  0  0  0  0  0  0  0
  139.7536   78.7249  223.5943 H   0  0  0  0  0  0  0  0  0  0  0  0
  141.3619   78.9873  225.1634 H   0  0  0  0  0  0  0  0  0  0  0  0
  142.4893   78.1541  224.0403 H   0  0  0  0  0  0  0  0  0  0  0  0
  142.3835   79.9473  224.0403 H   0  0  0  0  0  0  0  0  0  0  0  0
  139.0429   76.8421  220.1477 H   0  0  0  0  0  0  0  0  0  0  0  0
  138.7604   78.7873  222.1333 H   0  0  0  0  0  0  0  0  0  0  0  0
  137.5604   78.5482  220.8569 H   0  0  0  0  0  0  0  0  0  0  0  0
  137.4596   77.6965  223.7680 H   0  0  0  0  0  0  0  0  0  0  0  0
  135.2290   77.6550  222.2020 H   0  0  0  0  0  0  0  0  0  0  0  0
  136.8797   75.4771  223.3720 H   0  0  0  0  0  0  0  0  0  0  0  0
  135.9197   75.8770  221.9417 H   0  0  0  0  0  0  0  0  0  0  0  0
  136.9610   73.4634  222.5789 H   0  0  0  0  0  0  0  0  0  0  0  0
  136.7121   72.8511  220.9110 H   0  0  0  0  0  0  0  0  0  0  0  0
  140.2690   73.8330  221.9410 H   0  0  0  0  0  0  0  0  0  0  0  0
  138.6452   69.4727  222.7727 H   0  0  0  0  0  0  0  0  0  0  0  0
  138.9218   67.8552  224.6557 H   0  0  0  0  0  0  0  0  0  0  0  0
  139.7103   67.3835  226.9519 H   0  0  0  0  0  0  0  0  0  0  0  0
  141.5951   70.5394  229.2374 H   0  0  0  0  0  0  0  0  0  0  0  0
  141.2868   72.1191  227.3284 H   0  0  0  0  0  0  0  0  0  0  0  0
  138.5762   83.0854  222.1824 H   0  0  0  0  0  0  0  0  0  0  0  0
  1  2  1  0
  2  3  1  0
  3  4  2  0
  4  5  1  0
  5  6  2  0
  6  7  1  0
  7  8  1  0
  7  9  1  0
  9 10  1  0
 10 11  2  0
 10 12  1  0
 12 13  1  0
 13 14  1  0
 14 15  1  0
 14 16  1  0
 16 17  1  0
 17 18  1  0
 18 19  2  0
 18 20  1  0
 20 21  1  0
 21 22  2  0
 22 23  1  0
 22 24  1  0
 24 25  2  0
 25 26  1  0
 26 27  2  0
 27 28  1  0
 28 29  2  0
 29 30  1  0
 29 31  1  0
 31 32  2  0
 32 33  1  0
 33 34  2  0
  6 35  1  0
 35 36  1  0
 35 37  2  0
 37  3  1  0
 17 12  1  0
 34 24  1  0
 33 27  1  0
  1 38  1  0
  1 39  1  0
  1 40  1  0
  4 41  1  0
  5 42  1  0
  7 43  1  1
  8 44  1  0
  8 45  1  0
  8 46  1  0
 12 47  1  6
 13 48  1  0
 13 49  1  0
 14 50  1  1
 15 51  1  0
 16 52  1  0
 16 53  1  0
 20 54  1  0
 20 55  1  0
 23 56  1  0
 25 57  1  0
 26 58  1  0
 28 59  1  0
 31 60  1  0
 32 61  1  0
 37 62  1  0
M  CHG  1   9  -1
M  END
>  <meeko>  (6) 
{"free_energy": -6.88, "intermolecular_energy": -10.46, "internal_energy": -3.05, "cluster_size": 1, "cluster_id": 6, "rank_in_cluster": 1}

$$$$

     RDKit          3D

 62 65  0  0  0  0  0  0  0  0999 V2000
  142.6430   81.2410  217.6970 C   0  0  0  0  0  0  0  0  0  0  0  0
  142.1480   81.0260  219.0150 O   0  0  0  0  0  0  0  0  0  0  0  0
  141.8660   79.7640  219.5590 C   0  0  0  0  0  0  0  0  0  0  0  0
  141.6790   78.6240  218.7610 C   0  0  0  0  0  0  0  0  0  0  0  0
  141.4060   77.3880  219.3500 C   0  0  0  0  0  0  0  0  0  0  0  0
  141.3300   77.2550  220.7490 C   0  0  0  0  0  0  0  0  0  0  0  0
  141.0370   75.8800  221.3280 C   0  0  2  0  0  0  0  0  0  0  0  0
  141.9900   74.8340  220.7490 C   0  0  0  0  0  0  0  0  0  0  0  0
  139.6540   75.4800  221.0780 N   0  0  0  0  0  0  0  0  0  0  0  0
  138.5420   75.7030  221.9560 C   0  0  0  0  0  0  0  0  0  0  0  0
  138.7680   76.1790  223.1000 O   0  0  0  0  0  0  0  0  0  0  0  0
  137.1140   75.4530  221.5270 C   0  0  2  0  0  0  0  0  0  0  0  0
  136.2490   76.6960  221.7450 C   0  0  0  0  0  0  0  0  0  0  0  0
  135.5010   76.4510  223.0550 C   0  0  1  0  0  0  0  0  0  0  0  0
  134.2040   76.9830  222.9910 O   0  0  0  0  0  0  0  0  0  0  0  0
  135.4710   74.9330  223.2320 C   0  0  0  0  0  0  0  0  0  0  0  0
  136.5080   74.4170  222.3530 N   0  0  0  0  0  0  0  0  0  0  0  0
  136.8420   73.0200  222.2270 C   0  0  0  0  0  0  0  0  0  0  0  0
  136.5150   72.2140  223.1390 O   0  0  0  0  0  0  0  0  0  0  0  0
  137.6060   72.5040  221.0450 C   0  0  0  0  0  0  0  0  0  0  0  0
  138.8330   71.8630  221.5080 N   0  0  0  0  0  0  0  0  0  0  0  0
  139.4960   72.1180  222.6030 C   0  0  0  0  0  0  0  0  0  0  0  0
  140.1500   73.3440  222.7080 O   0  0  0  0  0  0  0  0  0  0  0  0
  139.6060   71.1650  223.7390 C   0  0  0  0  0  0  0  0  0  0  0  0
  139.1360   69.8480  223.5950 C   0  0  0  0  0  0  0  0  0  0  0  0
  139.2590   68.9470  224.6540 C   0  0  0  0  0  0  0  0  0  0  0  0
  139.8550   69.3540  225.8520 C   0  0  0  0  0  0  0  0  0  0  0  0
  139.9950   68.4760  226.9360 C   0  0  0  0  0  0  0  0  0  0  0  0
  140.6010   68.9160  228.1190 C   0  0  0  0  0  0  0  0  0  0  0  0
  140.7330   68.0670  229.1670 F   0  0  0  0  0  0  0  0  0  0  0  0
  141.0700   70.2300  228.2220 C   0  0  0  0  0  0  0  0  0  0  0  0
  140.9340   71.1110  227.1440 C   0  0  0  0  0  0  0  0  0  0  0  0
  140.3280   70.6800  225.9590 C   0  0  0  0  0  0  0  0  0  0  0  0
  140.1940   71.5340  224.9110 N   0  0  0  0  0  0  0  0  0  0  0  0
  141.4990   78.4120  221.5510 C   0  0  0  0  0  0  0  0  0  0  0  0
  141.3880   78.3780  223.3090 Cl  0  0  0  0  0  0  0  0  0  0  0  0
  141.7690   79.6470  220.9480 C   0  0  0  0  0  0  0  0  0  0  0  0
  143.6507   81.6787  217.7507 H   0  0  0  0  0  0  0  0  0  0  0  0
  142.6881   80.2814  217.1612 H   0  0  0  0  0  0  0  0  0  0  0  0
  141.9725   81.9290  217.1612 H   0  0  0  0  0  0  0  0  0  0  0  0
  141.7479   78.7051  217.6662 H   0  0  0  0  0  0  0  0  0  0  0  0
  141.2482   76.5060  218.7119 H   0  0  0  0  0  0  0  0  0  0  0  0
  141.1894   75.9426  222.4156 H   0  0  0  0  0  0  0  0  0  0  0  0
  142.4831   74.2928  221.5700 H   0  0  0  0  0  0  0  0  0  0  0  0
  141.4224   74.1234  220.1302 H   0  0  0  0  0  0  0  0  0  0  0  0
  142.7502   75.3332  220.1302 H   0  0  0  0  0  0  0  0  0  0  0  0
  137.1533   75.1679  220.4653 H   0  0  0  0  0  0  0  0  0  0  0  0
  136.8797   77.5936  221.8250 H   0  0  0  0  0  0  0  0  0  0  0  0
  135.5572   76.8629  220.9062 H   0  0  0  0  0  0  0  0  0  0  0  0
  135.9932   76.9423  223.9073 H   0  0  0  0  0  0  0  0  0  0  0  0
  133.6770   76.3710  222.4110 H   0  0  0  0  0  0  0  0  0  0  0  0
  135.6843   74.6638  224.2770 H   0  0  0  0  0  0  0  0  0  0  0  0
  134.4839   74.5138  222.9873 H   0  0  0  0  0  0  0  0  0  0  0  0
  136.9913   71.7718  220.5010 H   0  0  0  0  0  0  0  0  0  0  0  0
  137.8562   73.3390  220.3741 H   0  0  0  0  0  0  0  0  0  0  0  0
  139.6360   74.2020  222.8710 H   0  0  0  0  0  0  0  0  0  0  0  0
  138.6724   69.5283  222.6501 H   0  0  0  0  0  0  0  0  0  0  0  0
  138.8873   67.9173  224.5464 H   0  0  0  0  0  0  0  0  0  0  0  0
  139.6288   67.4417  226.8571 H   0  0  0  0  0  0  0  0  0  0  0  0
  141.5468   70.5711  229.1528 H   0  0  0  0  0  0  0  0  0  0  0  0
  141.3039   72.1435  227.2281 H   0  0  0  0  0  0  0  0  0  0  0  0
  141.9068   80.5385  221.5775 H   0  0  0  0  0  0  0  0  0  0  0  0
  1  2  1  0
  2  3  1  0
  3  4  2  0
  4  5  1  0
  5  6  2  0
  6  7  1  0
  7  8  1  0
  7  9  1  0
  9 10  1  0
 10 11  2  0
 10 12  1  0
 12 13  1  0
 13 14  1  0
 14 15  1  0
 14 16  1  0
 16 17  1  0
 17 18  1  0
 18 19  2  0
 18 20  1  0
 20 21  1  0
 21 22  2  0
 22 23  1  0
 22 24  1  0
 24 25  2  0
 25 26  1  0
 26 27  2  0
 27 28  1  0
 28 29  2  0
 29 30  1  0
 29 31  1  0
 31 32  2  0
 32 33  1  0
 33 34  2  0
  6 35  1  0
 35 36  1  0
 35 37  2  0
 37  3  1  0
 17 12  1  0
 34 24  1  0
 33 27  1  0
  1 38  1  0
  1 39  1  0
  1 40  1  0
  4 41  1  0
  5 42  1  0
  7 43  1  1
  8 44  1  0
  8 45  1  0
  8 46  1  0
 12 47  1  6
 13 48  1  0
 13 49  1  0
 14 50  1  1
 15 51  1  0
 16 52  1  0
 16 53  1  0
 20 54  1  0
 20 55  1  0
 23 56  1  0
 25 57  1  0
 26 58  1  0
 28 59  1  0
 31 60  1  0
 32 61  1  0
 37 62  1  0
M  CHG  1   9  -1
M  END
>  <meeko>  (7) 
{"free_energy": -6.79, "intermolecular_energy": -10.36, "internal_energy": -3.31, "cluster_size": 5, "cluster_id": 5, "rank_in_cluster": 3}

$$$$

     RDKit          3D

 62 65  0  0  0  0  0  0  0  0999 V2000
  147.0430   66.1620  214.8860 C   0  0  0  0  0  0  0  0  0  0  0  0
  145.7690   66.7990  214.8820 O   0  0  0  0  0  0  0  0  0  0  0  0
  145.0980   67.2320  216.0350 C   0  0  0  0  0  0  0  0  0  0  0  0
  143.7440   67.6050  216.0240 C   0  0  0  0  0  0  0  0  0  0  0  0
  143.1190   68.0240  217.1990 C   0  0  0  0  0  0  0  0  0  0  0  0
  143.8220   68.0650  218.4180 C   0  0  0  0  0  0  0  0  0  0  0  0
  143.0820   68.5240  219.6640 C   0  0  2  0  0  0  0  0  0  0  0  0
  141.6230   68.0670  219.6260 C   0  0  0  0  0  0  0  0  0  0  0  0
  143.1400   69.9770  219.8140 N   0  0  0  0  0  0  0  0  0  0  0  0
  142.5360   70.9370  218.9370 C   0  0  0  0  0  0  0  0  0  0  0  0
  141.3990   70.6820  218.4590 O   0  0  0  0  0  0  0  0  0  0  0  0
  143.1870   72.2670  218.6280 C   0  0  2  0  0  0  0  0  0  0  0  0
  144.7040   72.1190  218.4900 C   0  0  0  0  0  0  0  0  0  0  0  0
  145.2840   72.5710  219.8300 C   0  0  1  0  0  0  0  0  0  0  0  0
  146.4990   73.2460  219.6390 O   0  0  0  0  0  0  0  0  0  0  0  0
  144.2290   73.4900  220.4440 C   0  0  0  0  0  0  0  0  0  0  0  0
  142.9930   73.1960  219.7340 N   0  0  0  0  0  0  0  0  0  0  0  0
  141.7270   73.8250  220.0160 C   0  0  0  0  0  0  0  0  0  0  0  0
  140.8480   73.8940  219.1160 O   0  0  0  0  0  0  0  0  0  0  0  0
  141.4410   74.4340  221.3550 C   0  0  0  0  0  0  0  0  0  0  0  0
  140.3610   73.6930  221.9990 N   0  0  0  0  0  0  0  0  0  0  0  0
  140.1380   72.4080  221.9430 C   0  0  0  0  0  0  0  0  0  0  0  0
  139.9310   71.8280  220.6930 O   0  0  0  0  0  0  0  0  0  0  0  0
  140.0760   71.5310  223.1430 C   0  0  0  0  0  0  0  0  0  0  0  0
  139.5460   70.2340  223.0350 C   0  0  0  0  0  0  0  0  0  0  0  0
  139.5080   69.4040  224.1570 C   0  0  0  0  0  0  0  0  0  0  0  0
  140.0040   69.8620  225.3820 C   0  0  0  0  0  0  0  0  0  0  0  0
  139.9820   69.0560  226.5290 C   0  0  0  0  0  0  0  0  0  0  0  0
  140.4910   69.5450  227.7380 C   0  0  0  0  0  0  0  0  0  0  0  0
  140.4670   68.7650  228.8460 F   0  0  0  0  0  0  0  0  0  0  0  0
  141.0250   70.8360  227.8040 C   0  0  0  0  0  0  0  0  0  0  0  0
  141.0500   71.6470  226.6640 C   0  0  0  0  0  0  0  0  0  0  0  0
  140.5420   71.1650  225.4520 C   0  0  0  0  0  0  0  0  0  0  0  0
  140.5640   71.9500  224.3430 N   0  0  0  0  0  0  0  0  0  0  0  0
  145.1950   67.7080  218.4210 C   0  0  0  0  0  0  0  0  0  0  0  0
  146.1890   67.7570  219.8760 Cl  0  0  0  0  0  0  0  0  0  0  0  0
  145.8120   67.2930  217.2350 C   0  0  0  0  0  0  0  0  0  0  0  0
  147.3683   65.9993  215.9241 H   0  0  0  0  0  0  0  0  0  0  0  0
  146.9706   65.1940  214.3685 H   0  0  0  0  0  0  0  0  0  0  0  0
  147.7739   66.8007  214.3685 H   0  0  0  0  0  0  0  0  0  0  0  0
  143.1734   67.5666  215.0843 H   0  0  0  0  0  0  0  0  0  0  0  0
  142.0618   68.3266  217.1725 H   0  0  0  0  0  0  0  0  0  0  0  0
  143.5811   68.0650  220.5301 H   0  0  0  0  0  0  0  0  0  0  0  0
  141.2486   67.9497  220.6537 H   0  0  0  0  0  0  0  0  0  0  0  0
  141.0170   68.8184  219.0985 H   0  0  0  0  0  0  0  0  0  0  0  0
  141.5540   67.1042  219.0985 H   0  0  0  0  0  0  0  0  0  0  0  0
  142.7299   72.6287  217.6951 H   0  0  0  0  0  0  0  0  0  0  0  0
  144.9710   71.0708  218.2899 H   0  0  0  0  0  0  0  0  0  0  0  0
  145.0971   72.7160  217.6539 H   0  0  0  0  0  0  0  0  0  0  0  0
  145.5046   71.7198  220.4909 H   0  0  0  0  0  0  0  0  0  0  0  0
  146.2670   74.1700  219.3540 H   0  0  0  0  0  0  0  0  0  0  0  0
  144.1145   73.2797  221.5176 H   0  0  0  0  0  0  0  0  0  0  0  0
  144.5091   74.5498  220.3520 H   0  0  0  0  0  0  0  0  0  0  0  0
  142.3441   74.3864  221.9812 H   0  0  0  0  0  0  0  0  0  0  0  0
  141.1425   75.4849  221.2266 H   0  0  0  0  0  0  0  0  0  0  0  0
  140.6200   71.9100  219.9550 H   0  0  0  0  0  0  0  0  0  0  0  0
  139.1622   69.8737  222.0692 H   0  0  0  0  0  0  0  0  0  0  0  0
  139.0882   68.3904  224.0777 H   0  0  0  0  0  0  0  0  0  0  0  0
  139.5648   68.0394  226.4790 H   0  0  0  0  0  0  0  0  0  0  0  0
  141.4267   71.2151  228.7553 H   0  0  0  0  0  0  0  0  0  0  0  0
  141.4686   72.6627  226.7202 H   0  0  0  0  0  0  0  0  0  0  0  0
  146.8750   67.0106  217.2476 H   0  0  0  0  0  0  0  0  0  0  0  0
  1  2  1  0
  2  3  1  0
  3  4  2  0
  4  5  1  0
  5  6  2  0
  6  7  1  0
  7  8  1  0
  7  9  1  0
  9 10  1  0
 10 11  2  0
 10 12  1  0
 12 13  1  0
 13 14  1  0
 14 15  1  0
 14 16  1  0
 16 17  1  0
 17 18  1  0
 18 19  2  0
 18 20  1  0
 20 21  1  0
 21 22  2  0
 22 23  1  0
 22 24  1  0
 24 25  2  0
 25 26  1  0
 26 27  2  0
 27 28  1  0
 28 29  2  0
 29 30  1  0
 29 31  1  0
 31 32  2  0
 32 33  1  0
 33 34  2  0
  6 35  1  0
 35 36  1  0
 35 37  2  0
 37  3  1  0
 17 12  1  0
 34 24  1  0
 33 27  1  0
  1 38  1  0
  1 39  1  0
  1 40  1  0
  4 41  1  0
  5 42  1  0
  7 43  1  1
  8 44  1  0
  8 45  1  0
  8 46  1  0
 12 47  1  6
 13 48  1  0
 13 49  1  0
 14 50  1  1
 15 51  1  0
 16 52  1  0
 16 53  1  0
 20 54  1  0
 20 55  1  0
 23 56  1  0
 25 57  1  0
 26 58  1  0
 28 59  1  0
 31 60  1  0
 32 61  1  0
 37 62  1  0
M  CHG  1   9  -1
M  END
>  <meeko>  (8) 
{"free_energy": -6.54, "intermolecular_energy": -10.12, "internal_energy": -3.35, "cluster_size": 1, "cluster_id": 7, "rank_in_cluster": 1}

$$$$

     RDKit          3D

 62 65  0  0  0  0  0  0  0  0999 V2000
  141.0570   76.3100  221.4930 C   0  0  0  0  0  0  0  0  0  0  0  0
  141.7200   76.6170  220.2690 O   0  0  0  0  0  0  0  0  0  0  0  0
  142.6520   75.7780  219.6430 C   0  0  0  0  0  0  0  0  0  0  0  0
  142.7130   75.6260  218.2480 C   0  0  0  0  0  0  0  0  0  0  0  0
  143.6630   74.7820  217.6720 C   0  0  0  0  0  0  0  0  0  0  0  0
  144.5880   74.0820  218.4690 C   0  0  0  0  0  0  0  0  0  0  0  0
  145.6030   73.1850  217.7790 C   0  0  2  0  0  0  0  0  0  0  0  0
  145.3520   73.1430  216.2720 C   0  0  0  0  0  0  0  0  0  0  0  0
  145.5720   71.8280  218.3230 N   0  0  0  0  0  0  0  0  0  0  0  0
  144.4900   70.8960  218.1930 C   0  0  0  0  0  0  0  0  0  0  0  0
  144.3470   70.2910  217.0970 O   0  0  0  0  0  0  0  0  0  0  0  0
  143.5680   70.5660  219.3460 C   0  0  2  0  0  0  0  0  0  0  0  0
  143.6450   69.0810  219.7050 C   0  0  0  0  0  0  0  0  0  0  0  0
  142.4300   68.4340  219.0400 C   0  0  1  0  0  0  0  0  0  0  0  0
  141.9110   67.4120  219.8490 O   0  0  0  0  0  0  0  0  0  0  0  0
  141.4170   69.5630  218.8520 C   0  0  0  0  0  0  0  0  0  0  0  0
  142.1790   70.7970  218.9680 N   0  0  0  0  0  0  0  0  0  0  0  0
  141.6140   72.1150  218.8270 C   0  0  0  0  0  0  0  0  0  0  0  0
  141.4210   72.5930  217.6770 O   0  0  0  0  0  0  0  0  0  0  0  0
  141.2790   72.9510  220.0240 C   0  0  0  0  0  0  0  0  0  0  0  0
  140.8990   72.0770  221.1300 N   0  0  0  0  0  0  0  0  0  0  0  0
  140.3230   72.4200  222.2510 C   0  0  0  0  0  0  0  0  0  0  0  0
  139.8080   73.7100  222.3590 O   0  0  0  0  0  0  0  0  0  0  0  0
  140.2030   71.5140  223.4240 C   0  0  0  0  0  0  0  0  0  0  0  0
  139.6510   70.2320  223.2640 C   0  0  0  0  0  0  0  0  0  0  0  0
  139.5580   69.3740  224.3610 C   0  0  0  0  0  0  0  0  0  0  0  0
  140.0220   69.7900  225.6140 C   0  0  0  0  0  0  0  0  0  0  0  0
  139.9450   68.9540  226.7380 C   0  0  0  0  0  0  0  0  0  0  0  0
  140.4220   69.4010  227.9750 C   0  0  0  0  0  0  0  0  0  0  0  0
  140.3450   68.5930  229.0610 F   0  0  0  0  0  0  0  0  0  0  0  0
  140.9800   70.6790  228.0940 C   0  0  0  0  0  0  0  0  0  0  0  0
  141.0600   71.5180  226.9780 C   0  0  0  0  0  0  0  0  0  0  0  0
  140.5830   71.0790  225.7370 C   0  0  0  0  0  0  0  0  0  0  0  0
  140.6590   71.8920  224.6500 N   0  0  0  0  0  0  0  0  0  0  0  0
  144.5100   74.2210  219.8780 C   0  0  0  0  0  0  0  0  0  0  0  0
  145.5870   73.3670  220.9810 Cl  0  0  0  0  0  0  0  0  0  0  0  0
  143.5500   75.0680  220.4460 C   0  0  0  0  0  0  0  0  0  0  0  0
  141.6946   76.6052  222.3394 H   0  0  0  0  0  0  0  0  0  0  0  0
  140.1050   76.8589  221.5421 H   0  0  0  0  0  0  0  0  0  0  0  0
  140.8598   75.2289  221.5421 H   0  0  0  0  0  0  0  0  0  0  0  0
  142.0082   76.1752  217.6064 H   0  0  0  0  0  0  0  0  0  0  0  0
  143.6894   74.6619  216.5789 H   0  0  0  0  0  0  0  0  0  0  0  0
  146.5994   73.6118  217.9661 H   0  0  0  0  0  0  0  0  0  0  0  0
  144.2832   72.9641  216.0831 H   0  0  0  0  0  0  0  0  0  0  0  0
  145.6479   74.1031  215.8241 H   0  0  0  0  0  0  0  0  0  0  0  0
  145.9443   72.3315  215.8241 H   0  0  0  0  0  0  0  0  0  0  0  0
  143.8812   71.2015  220.1874 H   0  0  0  0  0  0  0  0  0  0  0  0
  144.5752   68.6400  219.3174 H   0  0  0  0  0  0  0  0  0  0  0  0
  143.6445   68.9248  220.7939 H   0  0  0  0  0  0  0  0  0  0  0  0
  142.6873   67.9652  218.0788 H   0  0  0  0  0  0  0  0  0  0  0  0
  141.7180   66.6460  219.2450 H   0  0  0  0  0  0  0  0  0  0  0  0
  140.9458   69.4947  217.8604 H   0  0  0  0  0  0  0  0  0  0  0  0
  140.6090   69.5125  219.5967 H   0  0  0  0  0  0  0  0  0  0  0  0
  142.1563   73.5487  220.3123 H   0  0  0  0  0  0  0  0  0  0  0  0
  140.4436   73.6244  219.7819 H   0  0  0  0  0  0  0  0  0  0  0  0
  139.1330   73.9480  223.0760 H   0  0  0  0  0  0  0  0  0  0  0  0
  139.2930   69.9052  222.2766 H   0  0  0  0  0  0  0  0  0  0  0  0
  139.1205   68.3719  224.2407 H   0  0  0  0  0  0  0  0  0  0  0  0
  139.5099   67.9478  226.6468 H   0  0  0  0  0  0  0  0  0  0  0  0
  141.3567   71.0245  229.0680 H   0  0  0  0  0  0  0  0  0  0  0  0
  141.4976   72.5225  227.0752 H   0  0  0  0  0  0  0  0  0  0  0  0
  143.5018   75.1763  221.5396 H   0  0  0  0  0  0  0  0  0  0  0  0
  1  2  1  0
  2  3  1  0
  3  4  2  0
  4  5  1  0
  5  6  2  0
  6  7  1  0
  7  8  1  0
  7  9  1  0
  9 10  1  0
 10 11  2  0
 10 12  1  0
 12 13  1  0
 13 14  1  0
 14 15  1  0
 14 16  1  0
 16 17  1  0
 17 18  1  0
 18 19  2  0
 18 20  1  0
 20 21  1  0
 21 22  2  0
 22 23  1  0
 22 24  1  0
 24 25  2  0
 25 26  1  0
 26 27  2  0
 27 28  1  0
 28 29  2  0
 29 30  1  0
 29 31  1  0
 31 32  2  0
 32 33  1  0
 33 34  2  0
  6 35  1  0
 35 36  1  0
 35 37  2  0
 37  3  1  0
 17 12  1  0
 34 24  1  0
 33 27  1  0
  1 38  1  0
  1 39  1  0
  1 40  1  0
  4 41  1  0
  5 42  1  0
  7 43  1  6
  8 44  1  0
  8 45  1  0
  8 46  1  0
 12 47  1  1
 13 48  1  0
 13 49  1  0
 14 50  1  6
 15 51  1  0
 16 52  1  0
 16 53  1  0
 20 54  1  0
 20 55  1  0
 23 56  1  0
 25 57  1  0
 26 58  1  0
 28 59  1  0
 31 60  1  0
 32 61  1  0
 37 62  1  0
M  CHG  1   9  -1
M  END
>  <meeko>  (9) 
{"free_energy": -7.07, "intermolecular_energy": -10.65, "internal_energy": -2.63, "cluster_size": 3, "cluster_id": 4, "rank_in_cluster": 2}

$$$$

     RDKit          3D

 62 65  0  0  0  0  0  0  0  0999 V2000
  132.9710   72.5720  226.6830 C   0  0  0  0  0  0  0  0  0  0  0  0
  133.5790   73.8530  226.8260 O   0  0  0  0  0  0  0  0  0  0  0  0
  134.1950   74.5570  225.7820 C   0  0  0  0  0  0  0  0  0  0  0  0
  134.1050   75.9520  225.6570 C   0  0  0  0  0  0  0  0  0  0  0  0
  134.7410   76.6080  224.6010 C   0  0  0  0  0  0  0  0  0  0  0  0
  135.4970   75.8910  223.6550 C   0  0  0  0  0  0  0  0  0  0  0  0
  136.1720   76.6660  222.5340 C   0  0  2  0  0  0  0  0  0  0  0  0
  135.5830   76.2770  221.1780 C   0  0  0  0  0  0  0  0  0  0  0  0
  137.6160   76.4440  222.5270 N   0  0  0  0  0  0  0  0  0  0  0  0
  138.6170   77.4310  222.2420 C   0  0  0  0  0  0  0  0  0  0  0  0
  138.2620   78.4990  221.6760 O   0  0  0  0  0  0  0  0  0  0  0  0
  140.0600   77.2600  222.6620 C   0  0  2  0  0  0  0  0  0  0  0  0
  140.6720   78.5970  223.0840 C   0  0  0  0  0  0  0  0  0  0  0  0
  141.4740   79.0810  221.8760 C   0  0  1  0  0  0  0  0  0  0  0  0
  142.6420   79.7390  222.2900 O   0  0  0  0  0  0  0  0  0  0  0  0
  141.7990   77.8240  221.0700 C   0  0  0  0  0  0  0  0  0  0  0  0
  140.8670   76.8090  221.5360 N   0  0  0  0  0  0  0  0  0  0  0  0
  140.8070   75.4650  221.0170 C   0  0  0  0  0  0  0  0  0  0  0  0
  141.7850   74.9990  220.3730 O   0  0  0  0  0  0  0  0  0  0  0  0
  139.5870   74.6140  221.1970 C   0  0  0  0  0  0  0  0  0  0  0  0
  139.7720   73.7500  222.3590 N   0  0  0  0  0  0  0  0  0  0  0  0
  140.3420   72.5760  222.3920 C   0  0  0  0  0  0  0  0  0  0  0  0
  141.1270   72.1940  221.3070 O   0  0  0  0  0  0  0  0  0  0  0  0
  140.1870   71.6180  223.5190 C   0  0  0  0  0  0  0  0  0  0  0  0
  139.5620   70.3780  223.3020 C   0  0  0  0  0  0  0  0  0  0  0  0
  139.4350   69.4700  224.3550 C   0  0  0  0  0  0  0  0  0  0  0  0
  139.9380   69.7940  225.6200 C   0  0  0  0  0  0  0  0  0  0  0  0
  139.8280   68.9070  226.7010 C   0  0  0  0  0  0  0  0  0  0  0  0
  140.3450   69.2610  227.9520 C   0  0  0  0  0  0  0  0  0  0  0  0
  140.2370   68.4030  228.9960 F   0  0  0  0  0  0  0  0  0  0  0  0
  140.9740   70.4980  228.1270 C   0  0  0  0  0  0  0  0  0  0  0  0
  141.0870   71.3880  227.0550 C   0  0  0  0  0  0  0  0  0  0  0  0
  140.5710   71.0420  225.8010 C   0  0  0  0  0  0  0  0  0  0  0  0
  140.6780   71.9050  224.7560 N   0  0  0  0  0  0  0  0  0  0  0  0
  135.5690   74.4800  223.7730 C   0  0  0  0  0  0  0  0  0  0  0  0
  136.4520   73.4720  222.6280 Cl  0  0  0  0  0  0  0  0  0  0  0  0
  134.9230   73.8330  224.8330 C   0  0  0  0  0  0  0  0  0  0  0  0
  132.7699   72.1484  227.6781 H   0  0  0  0  0  0  0  0  0  0  0  0
  132.0255   72.6745  226.1303 H   0  0  0  0  0  0  0  0  0  0  0  0
  133.6483   71.9043  226.1303 H   0  0  0  0  0  0  0  0  0  0  0  0
  133.5305   76.5316  226.3946 H   0  0  0  0  0  0  0  0  0  0  0  0
  134.6498   77.7002  224.5073 H   0  0  0  0  0  0  0  0  0  0  0  0
  135.9861   77.7350  222.7146 H   0  0  0  0  0  0  0  0  0  0  0  0
  134.6741   75.6767  221.3316 H   0  0  0  0  0  0  0  0  0  0  0  0
  135.3306   77.1866  220.6133 H   0  0  0  0  0  0  0  0  0  0  0  0
  136.3205   75.6877  220.6133 H   0  0  0  0  0  0  0  0  0  0  0  0
  140.0600   76.5359  223.4900 H   0  0  0  0  0  0  0  0  0  0  0  0
  139.8811   79.3194  223.3344 H   0  0  0  0  0  0  0  0  0  0  0  0
  141.3052   78.4911  223.9772 H   0  0  0  0  0  0  0  0  0  0  0  0
  140.9102   79.8069  221.2717 H   0  0  0  0  0  0  0  0  0  0  0  0
  143.4040   79.1980  221.9520 H   0  0  0  0  0  0  0  0  0  0  0  0
  141.6583   78.0100  219.9950 H   0  0  0  0  0  0  0  0  0  0  0  0
  142.8444   77.5109  221.2080 H   0  0  0  0  0  0  0  0  0  0  0  0
  138.7090   75.2579  221.3533 H   0  0  0  0  0  0  0  0  0  0  0  0
  139.4303   73.9978  220.2994 H   0  0  0  0  0  0  0  0  0  0  0  0
  141.5650   72.8820  220.7060 H   0  0  0  0  0  0  0  0  0  0  0  0
  139.1737   70.1234  222.3048 H   0  0  0  0  0  0  0  0  0  0  0  0
  138.9403   68.5014  224.1905 H   0  0  0  0  0  0  0  0  0  0  0  0
  139.3352   67.9330  226.5652 H   0  0  0  0  0  0  0  0  0  0  0  0
  141.3812   70.7714  229.1116 H   0  0  0  0  0  0  0  0  0  0  0  0
  141.5815   72.3603  227.1971 H   0  0  0  0  0  0  0  0  0  0  0  0
  134.9891   72.7385  224.9206 H   0  0  0  0  0  0  0  0  0  0  0  0
  1  2  1  0
  2  3  1  0
  3  4  2  0
  4  5  1  0
  5  6  2  0
  6  7  1  0
  7  8  1  0
  7  9  1  0
  9 10  1  0
 10 11  2  0
 10 12  1  0
 12 13  1  0
 13 14  1  0
 14 15  1  0
 14 16  1  0
 16 17  1  0
 17 18  1  0
 18 19  2  0
 18 20  1  0
 20 21  1  0
 21 22  2  0
 22 23  1  0
 22 24  1  0
 24 25  2  0
 25 26  1  0
 26 27  2  0
 27 28  1  0
 28 29  2  0
 29 30  1  0
 29 31  1  0
 31 32  2  0
 32 33  1  0
 33 34  2  0
  6 35  1  0
 35 36  1  0
 35 37  2  0
 37  3  1  0
 17 12  1  0
 34 24  1  0
 33 27  1  0
  1 38  1  0
  1 39  1  0
  1 40  1  0
  4 41  1  0
  5 42  1  0
  7 43  1  1
  8 44  1  0
  8 45  1  0
  8 46  1  0
 12 47  1  1
 13 48  1  0
 13 49  1  0
 14 50  1  6
 15 51  1  0
 16 52  1  0
 16 53  1  0
 20 54  1  0
 20 55  1  0
 23 56  1  0
 25 57  1  0
 26 58  1  0
 28 59  1  0
 31 60  1  0
 32 61  1  0
 37 62  1  0
M  CHG  1   9  -1
M  END
>  <meeko>  (10) 
{"free_energy": -7.99, "intermolecular_energy": -11.57, "internal_energy": -2.43, "cluster_size": 2, "cluster_id": 3, "rank_in_cluster": 1}

$$$$

     RDKit          3D

 62 65  0  0  0  0  0  0  0  0999 V2000
  142.1690   81.2680  218.1610 C   0  0  0  0  0  0  0  0  0  0  0  0
  141.3890   81.0530  219.3340 O   0  0  0  0  0  0  0  0  0  0  0  0
  141.2840   79.8220  219.9990 C   0  0  0  0  0  0  0  0  0  0  0  0
  140.9240   78.6370  219.3390 C   0  0  0  0  0  0  0  0  0  0  0  0
  140.8390   77.4350  220.0450 C   0  0  0  0  0  0  0  0  0  0  0  0
  141.1260   77.3830  221.4210 C   0  0  0  0  0  0  0  0  0  0  0  0
  141.0220   76.0420  222.1300 C   0  0  2  0  0  0  0  0  0  0  0  0
  141.4800   74.9080  221.2120 C   0  0  0  0  0  0  0  0  0  0  0  0
  139.6580   75.7860  222.5880 N   0  0  0  0  0  0  0  0  0  0  0  0
  138.5890   76.7420  222.6200 C   0  0  0  0  0  0  0  0  0  0  0  0
  138.8270   77.8930  223.0710 O   0  0  0  0  0  0  0  0  0  0  0  0
  137.2160   76.4330  222.0650 C   0  0  2  0  0  0  0  0  0  0  0  0
  136.1320   77.2040  222.8210 C   0  0  0  0  0  0  0  0  0  0  0  0
  135.5400   76.2080  223.8180 C   0  0  1  0  0  0  0  0  0  0  0  0
  134.1600   76.4180  223.9660 O   0  0  0  0  0  0  0  0  0  0  0  0
  135.8330   74.8240  223.2390 C   0  0  0  0  0  0  0  0  0  0  0  0
  136.8930   75.0260  222.2630 N   0  0  0  0  0  0  0  0  0  0  0  0
  137.4960   73.9680  221.4930 C   0  0  0  0  0  0  0  0  0  0  0  0
  138.4500   74.2280  220.7110 O   0  0  0  0  0  0  0  0  0  0  0  0
  136.9910   72.5590  221.5730 C   0  0  0  0  0  0  0  0  0  0  0  0
  138.0980   71.6710  221.9140 N   0  0  0  0  0  0  0  0  0  0  0  0
  139.0140   71.8590  222.8260 C   0  0  0  0  0  0  0  0  0  0  0  0
  139.7960   73.0080  222.7470 O   0  0  0  0  0  0  0  0  0  0  0  0
  139.2780   70.9030  223.9340 C   0  0  0  0  0  0  0  0  0  0  0  0
  138.9340   69.5480  223.7870 C   0  0  0  0  0  0  0  0  0  0  0  0
  139.2020   68.6470  224.8200 C   0  0  0  0  0  0  0  0  0  0  0  0
  139.8190   69.0940  225.9930 C   0  0  0  0  0  0  0  0  0  0  0  0
  140.1030   68.2180  227.0500 C   0  0  0  0  0  0  0  0  0  0  0  0
  140.7260   68.6970  228.2080 C   0  0  0  0  0  0  0  0  0  0  0  0
  140.9980   67.8490  229.2300 F   0  0  0  0  0  0  0  0  0  0  0  0
  141.0680   70.0500  228.3140 C   0  0  0  0  0  0  0  0  0  0  0  0
  140.7880   70.9300  227.2640 C   0  0  0  0  0  0  0  0  0  0  0  0
  140.1640   70.4580  226.1030 C   0  0  0  0  0  0  0  0  0  0  0  0
  139.8890   71.3110  225.0810 N   0  0  0  0  0  0  0  0  0  0  0  0
  141.4690   78.5860  222.0890 C   0  0  0  0  0  0  0  0  0  0  0  0
  141.8130   78.6530  223.8160 Cl  0  0  0  0  0  0  0  0  0  0  0  0
  141.5480   79.7860  221.3710 C   0  0  0  0  0  0  0  0  0  0  0  0
  143.1927   81.5502  218.4480 H   0  0  0  0  0  0  0  0  0  0  0  0
  142.1969   80.3440  217.5647 H   0  0  0  0  0  0  0  0  0  0  0  0
  141.7195   82.0757  217.5647 H   0  0  0  0  0  0  0  0  0  0  0  0
  140.7078   78.6550  218.2606 H   0  0  0  0  0  0  0  0  0  0  0  0
  140.5435   76.5160  219.5176 H   0  0  0  0  0  0  0  0  0  0  0  0
  141.6819   76.0826  223.0091 H   0  0  0  0  0  0  0  0  0  0  0  0
  141.8230   74.0588  221.8213 H   0  0  0  0  0  0  0  0  0  0  0  0
  140.6404   74.5884  220.5772 H   0  0  0  0  0  0  0  0  0  0  0  0
  142.3060   75.2611  220.5772 H   0  0  0  0  0  0  0  0  0  0  0  0
  137.2401   76.7080  221.0002 H   0  0  0  0  0  0  0  0  0  0  0  0
  136.5700   78.0631  223.3503 H   0  0  0  0  0  0  0  0  0  0  0  0
  135.3658   77.6029  222.1400 H   0  0  0  0  0  0  0  0  0  0  0  0
  135.9778   76.3209  224.8208 H   0  0  0  0  0  0  0  0  0  0  0  0
  133.7790   76.4440  223.0480 H   0  0  0  0  0  0  0  0  0  0  0  0
  136.1664   74.1385  224.0320 H   0  0  0  0  0  0  0  0  0  0  0  0
  134.9384   74.3756  222.7822 H   0  0  0  0  0  0  0  0  0  0  0  0
  136.2126   72.4906  222.3472 H   0  0  0  0  0  0  0  0  0  0  0  0
  136.5655   72.2633  220.6027 H   0  0  0  0  0  0  0  0  0  0  0  0
  139.3750   73.9290  222.7050 H   0  0  0  0  0  0  0  0  0  0  0  0
  138.4549   69.1981  222.8607 H   0  0  0  0  0  0  0  0  0  0  0  0
  138.9282   67.5872  224.7112 H   0  0  0  0  0  0  0  0  0  0  0  0
  139.8361   67.1539  226.9692 H   0  0  0  0  0  0  0  0  0  0  0  0
  141.5583   70.4221  229.2257 H   0  0  0  0  0  0  0  0  0  0  0  0
  141.0579   71.9929  227.3502 H   0  0  0  0  0  0  0  0  0  0  0  0
  141.8219   80.7138  221.8947 H   0  0  0  0  0  0  0  0  0  0  0  0
  1  2  1  0
  2  3  1  0
  3  4  2  0
  4  5  1  0
  5  6  2  0
  6  7  1  0
  7  8  1  0
  7  9  1  0
  9 10  1  0
 10 11  2  0
 10 12  1  0
 12 13  1  0
 13 14  1  0
 14 15  1  0
 14 16  1  0
 16 17  1  0
 17 18  1  0
 18 19  2  0
 18 20  1  0
 20 21  1  0
 21 22  2  0
 22 23  1  0
 22 24  1  0
 24 25  2  0
 25 26  1  0
 26 27  2  0
 27 28  1  0
 28 29  2  0
 29 30  1  0
 29 31  1  0
 31 32  2  0
 32 33  1  0
 33 34  2  0
  6 35  1  0
 35 36  1  0
 35 37  2  0
 37  3  1  0
 17 12  1  0
 34 24  1  0
 33 27  1  0
  1 38  1  0
  1 39  1  0
  1 40  1  0
  4 41  1  0
  5 42  1  0
  7 43  1  1
  8 44  1  0
  8 45  1  0
  8 46  1  0
 12 47  1  6
 13 48  1  0
 13 49  1  0
 14 50  1  1
 15 51  1  0
 16 52  1  0
 16 53  1  0
 20 54  1  0
 20 55  1  0
 23 56  1  0
 25 57  1  0
 26 58  1  0
 28 59  1  0
 31 60  1  0
 32 61  1  0
 37 62  1  0
M  CHG  1   9  -1
M  END
>  <meeko>  (11) 
{"free_energy": -7.06, "intermolecular_energy": -10.64, "internal_energy": -3.14, "cluster_size": 5, "cluster_id": 5, "rank_in_cluster": 1}

$$$$

     RDKit          3D

 62 65  0  0  0  0  0  0  0  0999 V2000
  136.9670   80.9330  224.6820 C   0  0  0  0  0  0  0  0  0  0  0  0
  138.3910   80.9380  224.6970 O   0  0  0  0  0  0  0  0  0  0  0  0
  139.1960   80.4960  223.6370 C   0  0  0  0  0  0  0  0  0  0  0  0
  138.6590   80.0430  222.4220 C   0  0  0  0  0  0  0  0  0  0  0  0
  139.5030   79.6180  221.3940 C   0  0  0  0  0  0  0  0  0  0  0  0
  140.9010   79.6510  221.5460 C   0  0  0  0  0  0  0  0  0  0  0  0
  141.7650   79.1810  220.3860 C   0  0  2  0  0  0  0  0  0  0  0  0
  141.7150   80.1840  219.2330 C   0  0  0  0  0  0  0  0  0  0  0  0
  141.3490   77.8620  219.9110 N   0  0  0  0  0  0  0  0  0  0  0  0
  141.1850   76.6910  220.7220 C   0  0  0  0  0  0  0  0  0  0  0  0
  140.1430   76.5870  221.4230 O   0  0  0  0  0  0  0  0  0  0  0  0
  142.1830   75.5540  220.7060 C   0  0  2  0  0  0  0  0  0  0  0  0
  143.3130   75.8280  219.7110 C   0  0  0  0  0  0  0  0  0  0  0  0
  142.9550   75.0340  218.4550 C   0  0  1  0  0  0  0  0  0  0  0  0
  144.1120   74.5210  217.8490 O   0  0  0  0  0  0  0  0  0  0  0  0
  142.0310   73.9120  218.9280 C   0  0  0  0  0  0  0  0  0  0  0  0
  141.5490   74.3290  220.2360 N   0  0  0  0  0  0  0  0  0  0  0  0
  140.6220   73.5690  221.0370 C   0  0  0  0  0  0  0  0  0  0  0  0
  140.3330   73.9610  222.1990 O   0  0  0  0  0  0  0  0  0  0  0  0
  140.0150   72.2970  220.5300 C   0  0  0  0  0  0  0  0  0  0  0  0
  139.9510   71.3280  221.6200 N   0  0  0  0  0  0  0  0  0  0  0  0
  139.2160   71.3930  222.6970 C   0  0  0  0  0  0  0  0  0  0  0  0
  138.2050   72.3490  222.7480 O   0  0  0  0  0  0  0  0  0  0  0  0
  139.4110   70.5120  223.8790 C   0  0  0  0  0  0  0  0  0  0  0  0
  139.0010   69.1690  223.8260 C   0  0  0  0  0  0  0  0  0  0  0  0
  139.2030   68.3360  224.9290 C   0  0  0  0  0  0  0  0  0  0  0  0
  139.8210   68.8390  226.0790 C   0  0  0  0  0  0  0  0  0  0  0  0
  140.0400   68.0320  227.2050 C   0  0  0  0  0  0  0  0  0  0  0  0
  140.6650   68.5660  228.3370 C   0  0  0  0  0  0  0  0  0  0  0  0
  140.8740   67.7860  229.4260 F   0  0  0  0  0  0  0  0  0  0  0  0
  141.0740   69.9040  228.3490 C   0  0  0  0  0  0  0  0  0  0  0  0
  140.8580   70.7150  227.2300 C   0  0  0  0  0  0  0  0  0  0  0  0
  140.2330   70.1890  226.0940 C   0  0  0  0  0  0  0  0  0  0  0  0
  140.0210   70.9750  225.0050 N   0  0  0  0  0  0  0  0  0  0  0  0
  141.4390   80.0890  222.7820 C   0  0  0  0  0  0  0  0  0  0  0  0
  143.1710   80.1380  223.1050 Cl  0  0  0  0  0  0  0  0  0  0  0  0
  140.5830   80.5100  223.8080 C   0  0  0  0  0  0  0  0  0  0  0  0
  136.5894   80.9317  225.7152 H   0  0  0  0  0  0  0  0  0  0  0  0
  136.6027   81.8299  224.1596 H   0  0  0  0  0  0  0  0  0  0  0  0
  136.6090   80.0336  224.1596 H   0  0  0  0  0  0  0  0  0  0  0  0
  137.5685   80.0227  222.2789 H   0  0  0  0  0  0  0  0  0  0  0  0
  139.0685   79.2522  220.4520 H   0  0  0  0  0  0  0  0  0  0  0  0
  142.7986   79.1074  220.7551 H   0  0  0  0  0  0  0  0  0  0  0  0
  141.6641   81.2056  219.6377 H   0  0  0  0  0  0  0  0  0  0  0  0
  142.6195   80.0787  218.6159 H   0  0  0  0  0  0  0  0  0  0  0  0
  140.8254   79.9893  218.6159 H   0  0  0  0  0  0  0  0  0  0  0  0
  142.5636   75.4580  221.7336 H   0  0  0  0  0  0  0  0  0  0  0  0
  143.3716   76.9024  219.4825 H   0  0  0  0  0  0  0  0  0  0  0  0
  144.2923   75.5317  220.1150 H   0  0  0  0  0  0  0  0  0  0  0  0
  142.4631   75.6622  217.6977 H   0  0  0  0  0  0  0  0  0  0  0  0
  144.7850   75.2520  217.8620 H   0  0  0  0  0  0  0  0  0  0  0  0
  141.1897   73.7873  218.2303 H   0  0  0  0  0  0  0  0  0  0  0  0
  142.5545   72.9457  218.9756 H   0  0  0  0  0  0  0  0  0  0  0  0
  139.0002   72.4972  220.1556 H   0  0  0  0  0  0  0  0  0  0  0  0
  140.6308   71.8937  219.7126 H   0  0  0  0  0  0  0  0  0  0  0  0
  138.4110   73.3220  222.9440 H   0  0  0  0  0  0  0  0  0  0  0  0
  138.5220   68.7744  222.9178 H   0  0  0  0  0  0  0  0  0  0  0  0
  138.8767   67.2861  224.8935 H   0  0  0  0  0  0  0  0  0  0  0  0
  139.7204   66.9795  227.1981 H   0  0  0  0  0  0  0  0  0  0  0  0
  141.5666   70.3192  229.2406 H   0  0  0  0  0  0  0  0  0  0  0  0
  141.1797   71.7668  227.2431 H   0  0  0  0  0  0  0  0  0  0  0  0
  141.0085   80.8564  224.7614 H   0  0  0  0  0  0  0  0  0  0  0  0
  1  2  1  0
  2  3  1  0
  3  4  2  0
  4  5  1  0
  5  6  2  0
  6  7  1  0
  7  8  1  0
  7  9  1  0
  9 10  1  0
 10 11  2  0
 10 12  1  0
 12 13  1  0
 13 14  1  0
 14 15  1  0
 14 16  1  0
 16 17  1  0
 17 18  1  0
 18 19  2  0
 18 20  1  0
 20 21  1  0
 21 22  2  0
 22 23  1  0
 22 24  1  0
 24 25  2  0
 25 26  1  0
 26 27  2  0
 27 28  1  0
 28 29  2  0
 29 30  1  0
 29 31  1  0
 31 32  2  0
 32 33  1  0
 33 34  2  0
  6 35  1  0
 35 36  1  0
 35 37  2  0
 37  3  1  0
 17 12  1  0
 34 24  1  0
 33 27  1  0
  1 38  1  0
  1 39  1  0
  1 40  1  0
  4 41  1  0
  5 42  1  0
  7 43  1  1
  8 44  1  0
  8 45  1  0
  8 46  1  0
 12 47  1  1
 13 48  1  0
 13 49  1  0
 14 50  1  6
 15 51  1  0
 16 52  1  0
 16 53  1  0
 20 54  1  0
 20 55  1  0
 23 56  1  0
 25 57  1  0
 26 58  1  0
 28 59  1  0
 31 60  1  0
 32 61  1  0
 37 62  1  0
M  CHG  1   9  -1
M  END
>  <meeko>  (12) 
{"free_energy": -8.05, "intermolecular_energy": -11.63, "internal_energy": -2.15, "cluster_size": 2, "cluster_id": 1, "rank_in_cluster": 1}

$$$$

     RDKit          3D

 62 65  0  0  0  0  0  0  0  0999 V2000
  142.5720   81.9410  224.5100 C   0  0  0  0  0  0  0  0  0  0  0  0
  143.0160   80.7720  223.8280 O   0  0  0  0  0  0  0  0  0  0  0  0
  142.1790   79.9130  223.1010 C   0  0  0  0  0  0  0  0  0  0  0  0
  141.2620   79.0500  223.7220 C   0  0  0  0  0  0  0  0  0  0  0  0
  140.4460   78.2180  222.9540 C   0  0  0  0  0  0  0  0  0  0  0  0
  140.5110   78.2390  221.5490 C   0  0  0  0  0  0  0  0  0  0  0  0
  139.5890   77.3130  220.7700 C   0  0  2  0  0  0  0  0  0  0  0  0
  138.3420   76.9780  221.5870 C   0  0  0  0  0  0  0  0  0  0  0  0
  140.2740   76.0800  220.3840 N   0  0  0  0  0  0  0  0  0  0  0  0
  141.4280   75.5240  221.0280 C   0  0  0  0  0  0  0  0  0  0  0  0
  141.4480   75.4750  222.2870 O   0  0  0  0  0  0  0  0  0  0  0  0
  142.5800   74.9320  220.2460 C   0  0  2  0  0  0  0  0  0  0  0  0
  143.4040   76.0290  219.5670 C   0  0  0  0  0  0  0  0  0  0  0  0
  142.9270   76.0620  218.1160 C   0  0  1  0  0  0  0  0  0  0  0  0
  143.9970   76.3360  217.2500 O   0  0  0  0  0  0  0  0  0  0  0  0
  142.3350   74.6790  217.8470 C   0  0  0  0  0  0  0  0  0  0  0  0
  142.0810   74.1010  219.1580 N   0  0  0  0  0  0  0  0  0  0  0  0
  141.4940   72.8020  219.3710 C   0  0  0  0  0  0  0  0  0  0  0  0
  142.1980   71.7660  219.2270 O   0  0  0  0  0  0  0  0  0  0  0  0
  140.0470   72.6490  219.7280 C   0  0  0  0  0  0  0  0  0  0  0  0
  139.9360   71.8700  220.9580 N   0  0  0  0  0  0  0  0  0  0  0  0
  139.7670   72.3210  222.1710 C   0  0  0  0  0  0  0  0  0  0  0  0
  139.5890   73.6920  222.3450 O   0  0  0  0  0  0  0  0  0  0  0  0
  139.7720   71.4540  223.3790 C   0  0  0  0  0  0  0  0  0  0  0  0
  139.2190   70.1640  223.3160 C   0  0  0  0  0  0  0  0  0  0  0  0
  139.2420   69.3420  224.4440 C   0  0  0  0  0  0  0  0  0  0  0  0
  139.8240   69.8020  225.6310 C   0  0  0  0  0  0  0  0  0  0  0  0
  139.8660   69.0040  226.7830 C   0  0  0  0  0  0  0  0  0  0  0  0
  140.4600   69.4930  227.9520 C   0  0  0  0  0  0  0  0  0  0  0  0
  140.4970   68.7220  229.0660 F   0  0  0  0  0  0  0  0  0  0  0  0
  141.0150   70.7770  227.9730 C   0  0  0  0  0  0  0  0  0  0  0  0
  140.9770   71.5790  226.8280 C   0  0  0  0  0  0  0  0  0  0  0  0
  140.3830   71.0970  225.6560 C   0  0  0  0  0  0  0  0  0  0  0  0
  140.3440   71.8740  224.5410 N   0  0  0  0  0  0  0  0  0  0  0  0
  141.4530   79.0960  220.9250 C   0  0  0  0  0  0  0  0  0  0  0  0
  141.6540   79.1810  219.1770 Cl  0  0  0  0  0  0  0  0  0  0  0  0
  142.2690   79.9240  221.7070 C   0  0  0  0  0  0  0  0  0  0  0  0
  142.6340   81.7777  225.5960 H   0  0  0  0  0  0  0  0  0  0  0  0
  143.2092   82.7929  224.2303 H   0  0  0  0  0  0  0  0  0  0  0  0
  141.5299   82.1551  224.2303 H   0  0  0  0  0  0  0  0  0  0  0  0
  141.1863   79.0295  224.8192 H   0  0  0  0  0  0  0  0  0  0  0  0
  139.7423   77.5364  223.4543 H   0  0  0  0  0  0  0  0  0  0  0  0
  139.2870   77.8434  219.8549 H   0  0  0  0  0  0  0  0  0  0  0  0
  138.5783   77.0415  222.6594 H   0  0  0  0  0  0  0  0  0  0  0  0
  137.5420   77.6931  221.3449 H   0  0  0  0  0  0  0  0  0  0  0  0
  138.0080   75.9583  221.3449 H   0  0  0  0  0  0  0  0  0  0  0  0
  143.1836   74.3582  220.9646 H   0  0  0  0  0  0  0  0  0  0  0  0
  143.2249   76.9998  220.0523 H   0  0  0  0  0  0  0  0  0  0  0  0
  144.4835   75.8292  219.6363 H   0  0  0  0  0  0  0  0  0  0  0  0
  142.1828   76.8540  217.9463 H   0  0  0  0  0  0  0  0  0  0  0  0
  144.7960   75.8910  217.6400 H   0  0  0  0  0  0  0  0  0  0  0  0
  141.3979   74.7665  217.2777 H   0  0  0  0  0  0  0  0  0  0  0  0
  143.0158   74.0534  217.2511 H   0  0  0  0  0  0  0  0  0  0  0  0
  139.5984   73.6419  219.8795 H   0  0  0  0  0  0  0  0  0  0  0  0
  139.5181   72.1319  218.9139 H   0  0  0  0  0  0  0  0  0  0  0  0
  139.7380   74.3430  221.5830 H   0  0  0  0  0  0  0  0  0  0  0  0
  138.7688   69.8025  222.3797 H   0  0  0  0  0  0  0  0  0  0  0  0
  138.8034   68.3342  224.4001 H   0  0  0  0  0  0  0  0  0  0  0  0
  139.4320   67.9934  226.7680 H   0  0  0  0  0  0  0  0  0  0  0  0
  141.4828   71.1570  228.8932 H   0  0  0  0  0  0  0  0  0  0  0  0
  141.4138   72.5883  226.8485 H   0  0  0  0  0  0  0  0  0  0  0  0
  142.9913   80.5927  221.2160 H   0  0  0  0  0  0  0  0  0  0  0  0
  1  2  1  0
  2  3  1  0
  3  4  2  0
  4  5  1  0
  5  6  2  0
  6  7  1  0
  7  8  1  0
  7  9  1  0
  9 10  1  0
 10 11  2  0
 10 12  1  0
 12 13  1  0
 13 14  1  0
 14 15  1  0
 14 16  1  0
 16 17  1  0
 17 18  1  0
 18 19  2  0
 18 20  1  0
 20 21  1  0
 21 22  2  0
 22 23  1  0
 22 24  1  0
 24 25  2  0
 25 26  1  0
 26 27  2  0
 27 28  1  0
 28 29  2  0
 29 30  1  0
 29 31  1  0
 31 32  2  0
 32 33  1  0
 33 34  2  0
  6 35  1  0
 35 36  1  0
 35 37  2  0
 37  3  1  0
 17 12  1  0
 34 24  1  0
 33 27  1  0
  1 38  1  0
  1 39  1  0
  1 40  1  0
  4 41  1  0
  5 42  1  0
  7 43  1  6
  8 44  1  0
  8 45  1  0
  8 46  1  0
 12 47  1  1
 13 48  1  0
 13 49  1  0
 14 50  1  1
 15 51  1  0
 16 52  1  0
 16 53  1  0
 20 54  1  0
 20 55  1  0
 23 56  1  0
 25 57  1  0
 26 58  1  0
 28 59  1  0
 31 60  1  0
 32 61  1  0
 37 62  1  0
M  CHG  1   9  -1
M  END
>  <meeko>  (13) 
{"free_energy": -7.17, "intermolecular_energy": -10.75, "internal_energy": -3.53, "cluster_size": 2, "cluster_id": 1, "rank_in_cluster": 2}

$$$$

     RDKit          3D

 62 65  0  0  0  0  0  0  0  0999 V2000
  139.4980   72.5350  222.3300 C   0  0  0  0  0  0  0  0  0  0  0  0
  140.1850   73.4580  221.4900 O   0  0  0  0  0  0  0  0  0  0  0  0
  141.5360   73.3450  221.1280 C   0  0  0  0  0  0  0  0  0  0  0  0
  142.4300   74.4240  221.2090 C   0  0  0  0  0  0  0  0  0  0  0  0
  143.7670   74.2600  220.8420 C   0  0  0  0  0  0  0  0  0  0  0  0
  144.2490   73.0120  220.4020 C   0  0  0  0  0  0  0  0  0  0  0  0
  145.7170   72.8980  220.0250 C   0  0  2  0  0  0  0  0  0  0  0  0
  146.5860   73.7190  220.9770 C   0  0  0  0  0  0  0  0  0  0  0  0
  145.9490   73.3290  218.6480 N   0  0  0  0  0  0  0  0  0  0  0  0
  145.5360   72.6270  217.4670 C   0  0  0  0  0  0  0  0  0  0  0  0
  145.7750   71.3920  217.3880 O   0  0  0  0  0  0  0  0  0  0  0  0
  144.7670   73.3040  216.3550 C   0  0  2  0  0  0  0  0  0  0  0  0
  145.6010   73.3800  215.0750 C   0  0  0  0  0  0  0  0  0  0  0  0
  146.1680   74.7990  215.0370 C   0  0  1  0  0  0  0  0  0  0  0  0
  146.2210   75.2750  213.7180 O   0  0  0  0  0  0  0  0  0  0  0  0
  145.2210   75.6400  215.8940 C   0  0  0  0  0  0  0  0  0  0  0  0
  144.4790   74.6890  216.7060 N   0  0  0  0  0  0  0  0  0  0  0  0
  143.4880   75.0590  217.6850 C   0  0  0  0  0  0  0  0  0  0  0  0
  143.7370   75.9790  218.5100 O   0  0  0  0  0  0  0  0  0  0  0  0
  142.1710   74.3490  217.7690 C   0  0  0  0  0  0  0  0  0  0  0  0
  141.1000   75.3350  217.8730 N   0  0  0  0  0  0  0  0  0  0  0  0
  140.5360   75.7810  218.9630 C   0  0  0  0  0  0  0  0  0  0  0  0
  139.4340   75.0920  219.4640 O   0  0  0  0  0  0  0  0  0  0  0  0
  140.9960   76.9950  219.6890 C   0  0  0  0  0  0  0  0  0  0  0  0
  141.4100   78.1270  218.9670 C   0  0  0  0  0  0  0  0  0  0  0  0
  141.8220   79.2730  219.6500 C   0  0  0  0  0  0  0  0  0  0  0  0
  141.8120   79.2940  221.0490 C   0  0  0  0  0  0  0  0  0  0  0  0
  142.2190   80.4280  221.7670 C   0  0  0  0  0  0  0  0  0  0  0  0
  142.1920   80.4170  223.1650 C   0  0  0  0  0  0  0  0  0  0  0  0
  142.5870   81.5130  223.8590 F   0  0  0  0  0  0  0  0  0  0  0  0
  141.7580   79.2770  223.8510 C   0  0  0  0  0  0  0  0  0  0  0  0
  141.3520   78.1420  223.1420 C   0  0  0  0  0  0  0  0  0  0  0  0
  141.3770   78.1450  221.7420 C   0  0  0  0  0  0  0  0  0  0  0  0
  140.9830   77.0440  221.0500 N   0  0  0  0  0  0  0  0  0  0  0  0
  143.3370   71.9310  220.3020 C   0  0  0  0  0  0  0  0  0  0  0  0
  143.8130   70.3340  219.7290 Cl  0  0  0  0  0  0  0  0  0  0  0  0
  141.9980   72.1080  220.6690 C   0  0  0  0  0  0  0  0  0  0  0  0
  139.6863   72.7880  223.3838 H   0  0  0  0  0  0  0  0  0  0  0  0
  138.4181   72.5884  222.1274 H   0  0  0  0  0  0  0  0  0  0  0  0
  139.8591   71.5159  222.1274 H   0  0  0  0  0  0  0  0  0  0  0  0
  142.0756   75.4033  221.5632 H   0  0  0  0  0  0  0  0  0  0  0  0
  144.4536   75.1176  220.8973 H   0  0  0  0  0  0  0  0  0  0  0  0
  145.9958   71.8372  220.1083 H   0  0  0  0  0  0  0  0  0  0  0  0
  146.3249   73.4723  222.0167 H   0  0  0  0  0  0  0  0  0  0  0  0
  147.6461   73.4850  220.7998 H   0  0  0  0  0  0  0  0  0  0  0  0
  146.4125   74.7907  220.7998 H   0  0  0  0  0  0  0  0  0  0  0  0
  143.8511   72.7133  216.2058 H   0  0  0  0  0  0  0  0  0  0  0  0
  146.4159   72.6416  215.1033 H   0  0  0  0  0  0  0  0  0  0  0  0
  144.9974   73.1590  214.1824 H   0  0  0  0  0  0  0  0  0  0  0  0
  147.1981   74.8414  215.4206 H   0  0  0  0  0  0  0  0  0  0  0  0
  145.6950   76.1180  213.7010 H   0  0  0  0  0  0  0  0  0  0  0  0
  145.7920   76.3283  216.5345 H   0  0  0  0  0  0  0  0  0  0  0  0
  144.5517   76.2562  215.2756 H   0  0  0  0  0  0  0  0  0  0  0  0
  142.0234   73.7394  216.8653 H   0  0  0  0  0  0  0  0  0  0  0  0
  142.1591   73.6957  218.6539 H   0  0  0  0  0  0  0  0  0  0  0  0
  139.4770   74.6040  220.3510 H   0  0  0  0  0  0  0  0  0  0  0  0
  141.4095   78.1105  217.8671 H   0  0  0  0  0  0  0  0  0  0  0  0
  142.1542   80.1587  219.0886 H   0  0  0  0  0  0  0  0  0  0  0  0
  142.5594   81.3259  221.2304 H   0  0  0  0  0  0  0  0  0  0  0  0
  141.7361   79.2737  224.9508 H   0  0  0  0  0  0  0  0  0  0  0  0
  141.0130   77.2469  223.6841 H   0  0  0  0  0  0  0  0  0  0  0  0
  141.2992   71.2617  220.5952 H   0  0  0  0  0  0  0  0  0  0  0  0
  1  2  1  0
  2  3  1  0
  3  4  2  0
  4  5  1  0
  5  6  2  0
  6  7  1  0
  7  8  1  0
  7  9  1  0
  9 10  1  0
 10 11  2  0
 10 12  1  0
 12 13  1  0
 13 14  1  0
 14 15  1  0
 14 16  1  0
 16 17  1  0
 17 18  1  0
 18 19  2  0
 18 20  1  0
 20 21  1  0
 21 22  2  0
 22 23  1  0
 22 24  1  0
 24 25  2  0
 25 26  1  0
 26 27  2  0
 27 28  1  0
 28 29  2  0
 29 30  1  0
 29 31  1  0
 31 32  2  0
 32 33  1  0
 33 34  2  0
  6 35  1  0
 35 36  1  0
 35 37  2  0
 37  3  1  0
 17 12  1  0
 34 24  1  0
 33 27  1  0
  1 38  1  0
  1 39  1  0
  1 40  1  0
  4 41  1  0
  5 42  1  0
  7 43  1  6
  8 44  1  0
  8 45  1  0
  8 46  1  0
 12 47  1  6
 13 48  1  0
 13 49  1  0
 14 50  1  1
 15 51  1  0
 16 52  1  0
 16 53  1  0
 20 54  1  0
 20 55  1  0
 23 56  1  0
 25 57  1  0
 26 58  1  0
 28 59  1  0
 31 60  1  0
 32 61  1  0
 37 62  1  0
M  CHG  1   9  -1
M  END
>  <meeko>  (14) 
{"free_energy": -5.33, "intermolecular_energy": -8.91, "internal_energy": -4.03, "cluster_size": 1, "cluster_id": 9, "rank_in_cluster": 1}

$$$$

     RDKit          3D

 62 65  0  0  0  0  0  0  0  0999 V2000
  142.5750   81.6210  224.1540 C   0  0  0  0  0  0  0  0  0  0  0  0
  141.4630   80.7390  224.0290 O   0  0  0  0  0  0  0  0  0  0  0  0
  141.3780   79.7020  223.0880 C   0  0  0  0  0  0  0  0  0  0  0  0
  141.0470   78.3850  223.4450 C   0  0  0  0  0  0  0  0  0  0  0  0
  140.9700   77.3890  222.4710 C   0  0  0  0  0  0  0  0  0  0  0  0
  141.2040   77.6840  221.1150 C   0  0  0  0  0  0  0  0  0  0  0  0
  141.0970   76.5550  220.1020 C   0  0  2  0  0  0  0  0  0  0  0  0
  139.7160   75.9030  220.1620 C   0  0  0  0  0  0  0  0  0  0  0  0
  142.1310   75.5440  220.3190 N   0  0  0  0  0  0  0  0  0  0  0  0
  141.9860   74.3470  221.0950 C   0  0  0  0  0  0  0  0  0  0  0  0
  141.0810   74.3060  221.9700 O   0  0  0  0  0  0  0  0  0  0  0  0
  142.8320   73.1180  220.8450 C   0  0  2  0  0  0  0  0  0  0  0  0
  144.3110   73.4870  220.7130 C   0  0  0  0  0  0  0  0  0  0  0  0
  144.5920   73.5240  219.2120 C   0  0  1  0  0  0  0  0  0  0  0  0
  145.8830   73.0450  218.9390 O   0  0  0  0  0  0  0  0  0  0  0  0
  143.5240   72.6360  218.5730 C   0  0  0  0  0  0  0  0  0  0  0  0
  142.4750   72.5060  219.5720 N   0  0  0  0  0  0  0  0  0  0  0  0
  141.2540   71.7660  219.3730 C   0  0  0  0  0  0  0  0  0  0  0  0
  140.2720   72.3200  218.8100 O   0  0  0  0  0  0  0  0  0  0  0  0
  141.1110   70.3540  219.8540 C   0  0  0  0  0  0  0  0  0  0  0  0
  140.0270   70.2870  220.8300 N   0  0  0  0  0  0  0  0  0  0  0  0
  139.7650   71.1390  221.7840 C   0  0  0  0  0  0  0  0  0  0  0  0
  139.2640   72.3900  221.4310 O   0  0  0  0  0  0  0  0  0  0  0  0
  139.9870   70.8530  223.2260 C   0  0  0  0  0  0  0  0  0  0  0  0
  140.5050   71.8540  224.0660 C   0  0  0  0  0  0  0  0  0  0  0  0
  140.6940   71.5910  225.4250 C   0  0  0  0  0  0  0  0  0  0  0  0
  140.3590   70.3370  225.9460 C   0  0  0  0  0  0  0  0  0  0  0  0
  140.5350   70.0390  227.3050 C   0  0  0  0  0  0  0  0  0  0  0  0
  140.1850   68.7760  227.7950 C   0  0  0  0  0  0  0  0  0  0  0  0
  140.3580   68.4870  229.1080 F   0  0  0  0  0  0  0  0  0  0  0  0
  139.6580   67.8090  226.9320 C   0  0  0  0  0  0  0  0  0  0  0  0
  139.4790   68.0990  225.5750 C   0  0  0  0  0  0  0  0  0  0  0  0
  139.8280   69.3600  225.0780 C   0  0  0  0  0  0  0  0  0  0  0  0
  139.6570   69.6450  223.7600 N   0  0  0  0  0  0  0  0  0  0  0  0
  141.5600   79.0100  220.7610 C   0  0  0  0  0  0  0  0  0  0  0  0
  141.9140   79.4910  219.1030 Cl  0  0  0  0  0  0  0  0  0  0  0  0
  141.6380   80.0000  221.7480 C   0  0  0  0  0  0  0  0  0  0  0  0
  142.7899   81.7914  225.2193 H   0  0  0  0  0  0  0  0  0  0  0  0
  143.4549   81.1726  223.6696 H   0  0  0  0  0  0  0  0  0  0  0  0
  142.3387   82.5799  223.6696 H   0  0  0  0  0  0  0  0  0  0  0  0
  140.8474   78.1372  224.4980 H   0  0  0  0  0  0  0  0  0  0  0  0
  140.7230   76.3588  222.7671 H   0  0  0  0  0  0  0  0  0  0  0  0
  141.2444   76.9938  219.1042 H   0  0  0  0  0  0  0  0  0  0  0  0
  139.4215   75.7640  221.2127 H   0  0  0  0  0  0  0  0  0  0  0  0
  138.9828   76.5501  219.6583 H   0  0  0  0  0  0  0  0  0  0  0  0
  139.7497   74.9257  219.6583 H   0  0  0  0  0  0  0  0  0  0  0  0
  142.6585   72.4410  221.6944 H   0  0  0  0  0  0  0  0  0  0  0  0
  144.5029   74.4717  221.1641 H   0  0  0  0  0  0  0  0  0  0  0  0
  144.9589   72.7645  221.2310 H   0  0  0  0  0  0  0  0  0  0  0  0
  144.5518   74.5477  218.8115 H   0  0  0  0  0  0  0  0  0  0  0  0
  146.4240   73.8340  218.6690 H   0  0  0  0  0  0  0  0  0  0  0  0
  143.1291   73.1064  217.6604 H   0  0  0  0  0  0  0  0  0  0  0  0
  143.9306   71.6569  218.2798 H   0  0  0  0  0  0  0  0  0  0  0  0
  140.8806   69.6968  219.0025 H   0  0  0  0  0  0  0  0  0  0  0  0
  142.0508   70.0260  220.3222 H   0  0  0  0  0  0  0  0  0  0  0  0
  139.7780   73.0070  220.8120 H   0  0  0  0  0  0  0  0  0  0  0  0
  140.7608   72.8415  223.6545 H   0  0  0  0  0  0  0  0  0  0  0  0
  141.1058   72.3692  226.0845 H   0  0  0  0  0  0  0  0  0  0  0  0
  140.9481   70.7980  227.9856 H   0  0  0  0  0  0  0  0  0  0  0  0
  139.3835   66.8176  227.3216 H   0  0  0  0  0  0  0  0  0  0  0  0
  139.0643   67.3365  224.8992 H   0  0  0  0  0  0  0  0  0  0  0  0
  141.9080   81.0279  221.4642 H   0  0  0  0  0  0  0  0  0  0  0  0
  1  2  1  0
  2  3  1  0
  3  4  2  0
  4  5  1  0
  5  6  2  0
  6  7  1  0
  7  8  1  0
  7  9  1  0
  9 10  1  0
 10 11  2  0
 10 12  1  0
 12 13  1  0
 13 14  1  0
 14 15  1  0
 14 16  1  0
 16 17  1  0
 17 18  1  0
 18 19  2  0
 18 20  1  0
 20 21  1  0
 21 22  2  0
 22 23  1  0
 22 24  1  0
 24 25  2  0
 25 26  1  0
 26 27  2  0
 27 28  1  0
 28 29  2  0
 29 30  1  0
 29 31  1  0
 31 32  2  0
 32 33  1  0
 33 34  2  0
  6 35  1  0
 35 36  1  0
 35 37  2  0
 37  3  1  0
 17 12  1  0
 34 24  1  0
 33 27  1  0
  1 38  1  0
  1 39  1  0
  1 40  1  0
  4 41  1  0
  5 42  1  0
  7 43  1  6
  8 44  1  0
  8 45  1  0
  8 46  1  0
 12 47  1  1
 13 48  1  0
 13 49  1  0
 14 50  1  6
 15 51  1  0
 16 52  1  0
 16 53  1  0
 20 54  1  0
 20 55  1  0
 23 56  1  0
 25 57  1  0
 26 58  1  0
 28 59  1  0
 31 60  1  0
 32 61  1  0
 37 62  1  0
M  CHG  1   9  -1
M  END
>  <meeko>  (15) 
{"free_energy": -7.28, "intermolecular_energy": -10.85, "internal_energy": -3.32, "cluster_size": 4, "cluster_id": 2, "rank_in_cluster": 3}

$$$$

     RDKit          3D

 62 65  0  0  0  0  0  0  0  0999 V2000
  142.2960   79.9390  223.3050 C   0  0  0  0  0  0  0  0  0  0  0  0
  141.1030   79.1650  223.2280 O   0  0  0  0  0  0  0  0  0  0  0  0
  140.8680   78.1660  222.2730 C   0  0  0  0  0  0  0  0  0  0  0  0
  139.7250   77.3500  222.3010 C   0  0  0  0  0  0  0  0  0  0  0  0
  139.5340   76.3720  221.3240 C   0  0  0  0  0  0  0  0  0  0  0  0
  140.4680   76.1940  220.2860 C   0  0  0  0  0  0  0  0  0  0  0  0
  140.1970   75.1150  219.2480 C   0  0  2  0  0  0  0  0  0  0  0  0
  138.7280   75.1250  218.8280 C   0  0  0  0  0  0  0  0  0  0  0  0
  140.5590   73.7910  219.7500 N   0  0  0  0  0  0  0  0  0  0  0  0
  141.4190   73.5200  220.8650 C   0  0  0  0  0  0  0  0  0  0  0  0
  141.1540   74.0600  221.9720 O   0  0  0  0  0  0  0  0  0  0  0  0
  142.5830   72.5580  220.7700 C   0  0  2  0  0  0  0  0  0  0  0  0
  143.9140   73.3100  220.7130 C   0  0  0  0  0  0  0  0  0  0  0  0
  144.3060   73.3400  219.2360 C   0  0  1  0  0  0  0  0  0  0  0  0
  145.6960   73.2200  219.0910 O   0  0  0  0  0  0  0  0  0  0  0  0
  143.5760   72.1610  218.5940 C   0  0  0  0  0  0  0  0  0  0  0  0
  142.5170   71.8030  219.5250 N   0  0  0  0  0  0  0  0  0  0  0  0
  141.5620   70.7480  219.2990 C   0  0  0  0  0  0  0  0  0  0  0  0
  141.2000   70.4730  218.1240 O   0  0  0  0  0  0  0  0  0  0  0  0
  140.9570   69.9850  220.4390 C   0  0  0  0  0  0  0  0  0  0  0  0
  139.6750   70.5870  220.7930 N   0  0  0  0  0  0  0  0  0  0  0  0
  139.4030   71.3120  221.8440 C   0  0  0  0  0  0  0  0  0  0  0  0
  138.7200   72.5120  221.6580 O   0  0  0  0  0  0  0  0  0  0  0  0
  139.7960   70.9340  223.2280 C   0  0  0  0  0  0  0  0  0  0  0  0
  140.4200   71.8790  224.0600 C   0  0  0  0  0  0  0  0  0  0  0  0
  140.7700   71.5310  225.3660 C   0  0  0  0  0  0  0  0  0  0  0  0
  140.4910   70.2460  225.8440 C   0  0  0  0  0  0  0  0  0  0  0  0
  140.8280   69.8610  227.1500 C   0  0  0  0  0  0  0  0  0  0  0  0
  140.5300   68.5690  227.5970 C   0  0  0  0  0  0  0  0  0  0  0  0
  140.8590   68.1980  228.8590 F   0  0  0  0  0  0  0  0  0  0  0  0
  139.8940   67.6590  226.7460 C   0  0  0  0  0  0  0  0  0  0  0  0
  139.5550   68.0360  225.4420 C   0  0  0  0  0  0  0  0  0  0  0  0
  139.8510   69.3260  224.9860 C   0  0  0  0  0  0  0  0  0  0  0  0
  139.5240   69.6940  223.7200 N   0  0  0  0  0  0  0  0  0  0  0  0
  141.6310   77.0050  220.2740 C   0  0  0  0  0  0  0  0  0  0  0  0
  142.8890   76.8490  219.0490 Cl  0  0  0  0  0  0  0  0  0  0  0  0
  141.8140   77.9810  221.2610 C   0  0  0  0  0  0  0  0  0  0  0  0
  142.5561   80.1078  224.3604 H   0  0  0  0  0  0  0  0  0  0  0  0
  143.1155   79.4001  222.8070 H   0  0  0  0  0  0  0  0  0  0  0  0
  142.1378   80.9070  222.8070 H   0  0  0  0  0  0  0  0  0  0  0  0
  138.9771   77.4825  223.0966 H   0  0  0  0  0  0  0  0  0  0  0  0
  138.6409   75.7311  221.3656 H   0  0  0  0  0  0  0  0  0  0  0  0
  140.8227   75.3372  218.3710 H   0  0  0  0  0  0  0  0  0  0  0  0
  138.0904   75.1293  219.7244 H   0  0  0  0  0  0  0  0  0  0  0  0
  138.5241   76.0246  218.2286 H   0  0  0  0  0  0  0  0  0  0  0  0
  138.5119   74.2283  218.2286 H   0  0  0  0  0  0  0  0  0  0  0  0
  142.5238   71.9073  221.6549 H   0  0  0  0  0  0  0  0  0  0  0  0
  143.7940   74.3329  221.0993 H   0  0  0  0  0  0  0  0  0  0  0  0
  144.6840   72.8221  221.3287 H   0  0  0  0  0  0  0  0  0  0  0  0
  144.0278   74.2899  218.7562 H   0  0  0  0  0  0  0  0  0  0  0  0
  146.0420   74.1350  218.9180 H   0  0  0  0  0  0  0  0  0  0  0  0
  143.1506   72.4553  217.6232 H   0  0  0  0  0  0  0  0  0  0  0  0
  144.2546   71.3162  218.4048 H   0  0  0  0  0  0  0  0  0  0  0  0
  140.8016   68.9380  220.1396 H   0  0  0  0  0  0  0  0  0  0  0  0
  141.6330   70.0185  221.3061 H   0  0  0  0  0  0  0  0  0  0  0  0
  139.2000   73.3480  221.3460 H   0  0  0  0  0  0  0  0  0  0  0  0
  140.6322   72.8904  223.6832 H   0  0  0  0  0  0  0  0  0  0  0  0
  141.2644   72.2660  226.0182 H   0  0  0  0  0  0  0  0  0  0  0  0
  141.3264   70.5746  227.8226 H   0  0  0  0  0  0  0  0  0  0  0  0
  139.6600   66.6451  227.1027 H   0  0  0  0  0  0  0  0  0  0  0  0
  139.0555   67.3183  224.7746 H   0  0  0  0  0  0  0  0  0  0  0  0
  142.7153   78.6113  221.2396 H   0  0  0  0  0  0  0  0  0  0  0  0
  1  2  1  0
  2  3  1  0
  3  4  2  0
  4  5  1  0
  5  6  2  0
  6  7  1  0
  7  8  1  0
  7  9  1  0
  9 10  1  0
 10 11  2  0
 10 12  1  0
 12 13  1  0
 13 14  1  0
 14 15  1  0
 14 16  1  0
 16 17  1  0
 17 18  1  0
 18 19  2  0
 18 20  1  0
 20 21  1  0
 21 22  2  0
 22 23  1  0
 22 24  1  0
 24 25  2  0
 25 26  1  0
 26 27  2  0
 27 28  1  0
 28 29  2  0
 29 30  1  0
 29 31  1  0
 31 32  2  0
 32 33  1  0
 33 34  2  0
  6 35  1  0
 35 36  1  0
 35 37  2  0
 37  3  1  0
 17 12  1  0
 34 24  1  0
 33 27  1  0
  1 38  1  0
  1 39  1  0
  1 40  1  0
  4 41  1  0
  5 42  1  0
  7 43  1  6
  8 44  1  0
  8 45  1  0
  8 46  1  0
 12 47  1  1
 13 48  1  0
 13 49  1  0
 14 50  1  6
 15 51  1  0
 16 52  1  0
 16 53  1  0
 20 54  1  0
 20 55  1  0
 23 56  1  0
 25 57  1  0
 26 58  1  0
 28 59  1  0
 31 60  1  0
 32 61  1  0
 37 62  1  0
M  CHG  1   9  -1
M  END
>  <meeko>  (16) 
{"free_energy": -6.53, "intermolecular_energy": -10.11, "internal_energy": -4.02, "cluster_size": 4, "cluster_id": 2, "rank_in_cluster": 4}

$$$$

     RDKit          3D

 62 65  0  0  0  0  0  0  0  0999 V2000
  142.1740   81.3720  218.2270 C   0  0  0  0  0  0  0  0  0  0  0  0
  141.3560   81.1420  219.3700 O   0  0  0  0  0  0  0  0  0  0  0  0
  141.2520   79.9110  220.0340 C   0  0  0  0  0  0  0  0  0  0  0  0
  140.8740   78.7300  219.3760 C   0  0  0  0  0  0  0  0  0  0  0  0
  140.7900   77.5280  220.0800 C   0  0  0  0  0  0  0  0  0  0  0  0
  141.0970   77.4700  221.4530 C   0  0  0  0  0  0  0  0  0  0  0  0
  140.9930   76.1280  222.1600 C   0  0  2  0  0  0  0  0  0  0  0  0
  141.4650   74.9970  221.2460 C   0  0  0  0  0  0  0  0  0  0  0  0
  139.6260   75.8650  222.6060 N   0  0  0  0  0  0  0  0  0  0  0  0
  138.5500   76.8130  222.6220 C   0  0  0  0  0  0  0  0  0  0  0  0
  138.7800   77.9740  223.0520 O   0  0  0  0  0  0  0  0  0  0  0  0
  137.1790   76.4840  222.0740 C   0  0  2  0  0  0  0  0  0  0  0  0
  136.0890   77.2500  222.8250 C   0  0  0  0  0  0  0  0  0  0  0  0
  135.5100   76.2590  223.8340 C   0  0  1  0  0  0  0  0  0  0  0  0
  134.1290   76.4550  223.9830 O   0  0  0  0  0  0  0  0  0  0  0  0
  135.8170   74.8720  223.2670 C   0  0  0  0  0  0  0  0  0  0  0  0
  136.8720   75.0750  222.2860 N   0  0  0  0  0  0  0  0  0  0  0  0
  137.4850   74.0160  221.5250 C   0  0  0  0  0  0  0  0  0  0  0  0
  138.4400   74.2770  220.7460 O   0  0  0  0  0  0  0  0  0  0  0  0
  136.9870   72.6050  221.6110 C   0  0  0  0  0  0  0  0  0  0  0  0
  138.1040   71.7200  221.9260 N   0  0  0  0  0  0  0  0  0  0  0  0
  139.0240   71.8970  222.8360 C   0  0  0  0  0  0  0  0  0  0  0  0
  139.8130   73.0430  222.7610 O   0  0  0  0  0  0  0  0  0  0  0  0
  139.2880   70.9330  223.9370 C   0  0  0  0  0  0  0  0  0  0  0  0
  138.9370   69.5810  223.7820 C   0  0  0  0  0  0  0  0  0  0  0  0
  139.2040   68.6730  224.8080 C   0  0  0  0  0  0  0  0  0  0  0  0
  139.8270   69.1090  225.9830 C   0  0  0  0  0  0  0  0  0  0  0  0
  140.1100   68.2240  227.0340 C   0  0  0  0  0  0  0  0  0  0  0  0
  140.7370   68.6930  228.1930 C   0  0  0  0  0  0  0  0  0  0  0  0
  141.0090   67.8380  229.2090 F   0  0  0  0  0  0  0  0  0  0  0  0
  141.0860   70.0440  228.3060 C   0  0  0  0  0  0  0  0  0  0  0  0
  140.8060   70.9320  227.2620 C   0  0  0  0  0  0  0  0  0  0  0  0
  140.1780   70.4710  226.1000 C   0  0  0  0  0  0  0  0  0  0  0  0
  139.9040   71.3320  225.0850 N   0  0  0  0  0  0  0  0  0  0  0  0
  141.4570   78.6690  222.1180 C   0  0  0  0  0  0  0  0  0  0  0  0
  141.8260   78.7300  223.8400 Cl  0  0  0  0  0  0  0  0  0  0  0  0
  141.5350   79.8700  221.4020 C   0  0  0  0  0  0  0  0  0  0  0  0
  143.1858   81.6565  218.5515 H   0  0  0  0  0  0  0  0  0  0  0  0
  142.2271   80.4540  217.6234 H   0  0  0  0  0  0  0  0  0  0  0  0
  141.7409   82.1832  217.6234 H   0  0  0  0  0  0  0  0  0  0  0  0
  140.6430   78.7521  218.3008 H   0  0  0  0  0  0  0  0  0  0  0  0
  140.4795   76.6127  219.5548 H   0  0  0  0  0  0  0  0  0  0  0  0
  141.6448   76.1713  223.0450 H   0  0  0  0  0  0  0  0  0  0  0  0
  141.8170   74.1536  221.8581 H   0  0  0  0  0  0  0  0  0  0  0  0
  140.6299   74.6659  220.6111 H   0  0  0  0  0  0  0  0  0  0  0  0
  142.2877   75.3578  220.6111 H   0  0  0  0  0  0  0  0  0  0  0  0
  137.1972   76.7494  221.0066 H   0  0  0  0  0  0  0  0  0  0  0  0
  136.5190   78.1192  223.3441 H   0  0  0  0  0  0  0  0  0  0  0  0
  135.3166   77.6327  222.1417 H   0  0  0  0  0  0  0  0  0  0  0  0
  135.9482   76.3874  224.8348 H   0  0  0  0  0  0  0  0  0  0  0  0
  133.7220   76.2870  223.0920 H   0  0  0  0  0  0  0  0  0  0  0  0
  136.1600   74.1980  224.0658 H   0  0  0  0  0  0  0  0  0  0  0  0
  134.9260   74.4100  222.8168 H   0  0  0  0  0  0  0  0  0  0  0  0
  136.2251   72.5313  222.4010 H   0  0  0  0  0  0  0  0  0  0  0  0
  136.5425   72.3108  220.6488 H   0  0  0  0  0  0  0  0  0  0  0  0
  139.3960   73.9660  222.7170 H   0  0  0  0  0  0  0  0  0  0  0  0
  138.4533   69.2394  222.8550 H   0  0  0  0  0  0  0  0  0  0  0  0
  138.9249   67.6152  224.6931 H   0  0  0  0  0  0  0  0  0  0  0  0
  139.8389   67.1615  226.9467 H   0  0  0  0  0  0  0  0  0  0  0  0
  141.5816   70.4082  229.2180 H   0  0  0  0  0  0  0  0  0  0  0  0
  141.0798   71.9933  227.3548 H   0  0  0  0  0  0  0  0  0  0  0  0
  141.8232   80.7945  221.9239 H   0  0  0  0  0  0  0  0  0  0  0  0
  1  2  1  0
  2  3  1  0
  3  4  2  0
  4  5  1  0
  5  6  2  0
  6  7  1  0
  7  8  1  0
  7  9  1  0
  9 10  1  0
 10 11  2  0
 10 12  1  0
 12 13  1  0
 13 14  1  0
 14 15  1  0
 14 16  1  0
 16 17  1  0
 17 18  1  0
 18 19  2  0
 18 20  1  0
 20 21  1  0
 21 22  2  0
 22 23  1  0
 22 24  1  0
 24 25  2  0
 25 26  1  0
 26 27  2  0
 27 28  1  0
 28 29  2  0
 29 30  1  0
 29 31  1  0
 31 32  2  0
 32 33  1  0
 33 34  2  0
  6 35  1  0
 35 36  1  0
 35 37  2  0
 37  3  1  0
 17 12  1  0
 34 24  1  0
 33 27  1  0
  1 38  1  0
  1 39  1  0
  1 40  1  0
  4 41  1  0
  5 42  1  0
  7 43  1  1
  8 44  1  0
  8 45  1  0
  8 46  1  0
 12 47  1  6
 13 48  1  0
 13 49  1  0
 14 50  1  1
 15 51  1  0
 16 52  1  0
 16 53  1  0
 20 54  1  0
 20 55  1  0
 23 56  1  0
 25 57  1  0
 26 58  1  0
 28 59  1  0
 31 60  1  0
 32 61  1  0
 37 62  1  0
M  CHG  1   9  -1
M  END
>  <meeko>  (17) 
{"free_energy": -7.06, "intermolecular_energy": -10.64, "internal_energy": -3.15, "cluster_size": 5, "cluster_id": 5, "rank_in_cluster": 2}

$$$$

     RDKit          3D

 62 65  0  0  0  0  0  0  0  0999 V2000
  132.2670   74.3570  227.1540 C   0  0  0  0  0  0  0  0  0  0  0  0
  133.6090   73.9920  226.8460 O   0  0  0  0  0  0  0  0  0  0  0  0
  134.3050   74.4260  225.7090 C   0  0  0  0  0  0  0  0  0  0  0  0
  135.0740   73.5570  224.9180 C   0  0  0  0  0  0  0  0  0  0  0  0
  135.7450   74.0370  223.7920 C   0  0  0  0  0  0  0  0  0  0  0  0
  135.6520   75.3900  223.4160 C   0  0  0  0  0  0  0  0  0  0  0  0
  136.4010   75.8470  222.1750 C   0  0  2  0  0  0  0  0  0  0  0  0
  135.9910   75.0170  220.9580 C   0  0  0  0  0  0  0  0  0  0  0  0
  137.8480   75.7640  222.3640 N   0  0  0  0  0  0  0  0  0  0  0  0
  138.7220   76.8620  222.6600 C   0  0  0  0  0  0  0  0  0  0  0  0
  138.2080   77.9650  222.9910 O   0  0  0  0  0  0  0  0  0  0  0  0
  140.2270   76.7180  222.6580 C   0  0  2  0  0  0  0  0  0  0  0  0
  140.9060   78.0220  223.0800 C   0  0  0  0  0  0  0  0  0  0  0  0
  141.3450   78.6960  221.7800 C   0  0  1  0  0  0  0  0  0  0  0  0
  142.5690   79.3580  221.9560 O   0  0  0  0  0  0  0  0  0  0  0  0
  141.4650   77.5690  220.7550 C   0  0  0  0  0  0  0  0  0  0  0  0
  140.7100   76.4550  221.3080 N   0  0  0  0  0  0  0  0  0  0  0  0
  140.5370   75.1860  220.6480 C   0  0  0  0  0  0  0  0  0  0  0  0
  139.5870   75.0280  219.8350 O   0  0  0  0  0  0  0  0  0  0  0  0
  141.4470   74.0290  220.9310 C   0  0  0  0  0  0  0  0  0  0  0  0
  141.0600   73.4130  222.1970 N   0  0  0  0  0  0  0  0  0  0  0  0
  139.9710   72.7390  222.4510 C   0  0  0  0  0  0  0  0  0  0  0  0
  138.8390   73.0030  221.6840 O   0  0  0  0  0  0  0  0  0  0  0  0
  139.8690   71.7160  223.5260 C   0  0  0  0  0  0  0  0  0  0  0  0
  139.1680   70.5210  223.2900 C   0  0  0  0  0  0  0  0  0  0  0  0
  139.0910   69.5520  224.2920 C   0  0  0  0  0  0  0  0  0  0  0  0
  139.7190   69.7690  225.5230 C   0  0  0  0  0  0  0  0  0  0  0  0
  139.6620   68.8180  226.5520 C   0  0  0  0  0  0  0  0  0  0  0  0
  140.3050   69.0650  227.7700 C   0  0  0  0  0  0  0  0  0  0  0  0
  140.2490   68.1460  228.7650 F   0  0  0  0  0  0  0  0  0  0  0  0
  141.0080   70.2600  227.9640 C   0  0  0  0  0  0  0  0  0  0  0  0
  141.0680   71.2140  226.9430 C   0  0  0  0  0  0  0  0  0  0  0  0
  140.4260   70.9740  225.7220 C   0  0  0  0  0  0  0  0  0  0  0  0
  140.4820   71.8990  224.7280 N   0  0  0  0  0  0  0  0  0  0  0  0
  134.8920   76.2680  224.2290 C   0  0  0  0  0  0  0  0  0  0  0  0
  134.7330   77.9890  223.8830 Cl  0  0  0  0  0  0  0  0  0  0  0  0
  134.2260   75.7770  225.3590 C   0  0  0  0  0  0  0  0  0  0  0  0
  132.1380   74.3921  228.2458 H   0  0  0  0  0  0  0  0  0  0  0  0
  132.0491   75.3470  226.7270 H   0  0  0  0  0  0  0  0  0  0  0  0
  131.5776   73.6137  226.7270 H   0  0  0  0  0  0  0  0  0  0  0  0
  135.1479   72.4930  225.1870 H   0  0  0  0  0  0  0  0  0  0  0  0
  136.3553   73.3478  223.1899 H   0  0  0  0  0  0  0  0  0  0  0  0
  136.1333   76.8994  221.9997 H   0  0  0  0  0  0  0  0  0  0  0  0
  135.5271   74.0779  221.2940 H   0  0  0  0  0  0  0  0  0  0  0  0
  135.2702   75.5858  220.3522 H   0  0  0  0  0  0  0  0  0  0  0  0
  136.8807   74.7902  220.3522 H   0  0  0  0  0  0  0  0  0  0  0  0
  140.4624   75.8975  223.3518 H   0  0  0  0  0  0  0  0  0  0  0  0
  140.1989   78.6641  223.6257 H   0  0  0  0  0  0  0  0  0  0  0  0
  141.7578   77.8387  223.7514 H   0  0  0  0  0  0  0  0  0  0  0  0
  140.6264   79.4605  221.4498 H   0  0  0  0  0  0  0  0  0  0  0  0
  143.2760   78.7300  221.6490 H   0  0  0  0  0  0  0  0  0  0  0  0
  141.0385   77.8805  219.7901 H   0  0  0  0  0  0  0  0  0  0  0  0
  142.5147   77.2972  220.5700 H   0  0  0  0  0  0  0  0  0  0  0  0
  141.3643   73.2891  220.1213 H   0  0  0  0  0  0  0  0  0  0  0  0
  142.4865   74.3830  220.9945 H   0  0  0  0  0  0  0  0  0  0  0  0
  138.5790   73.9510  221.4390 H   0  0  0  0  0  0  0  0  0  0  0  0
  138.6814   70.3497  222.3185 H   0  0  0  0  0  0  0  0  0  0  0  0
  138.5370   68.6186  224.1137 H   0  0  0  0  0  0  0  0  0  0  0  0
  139.1116   67.8775  226.4016 H   0  0  0  0  0  0  0  0  0  0  0  0
  141.5145   70.4492  228.9220 H   0  0  0  0  0  0  0  0  0  0  0  0
  141.6195   72.1528  227.0992 H   0  0  0  0  0  0  0  0  0  0  0  0
  133.6324   76.4642  225.9798 H   0  0  0  0  0  0  0  0  0  0  0  0
  1  2  1  0
  2  3  1  0
  3  4  2  0
  4  5  1  0
  5  6  2  0
  6  7  1  0
  7  8  1  0
  7  9  1  0
  9 10  1  0
 10 11  2  0
 10 12  1  0
 12 13  1  0
 13 14  1  0
 14 15  1  0
 14 16  1  0
 16 17  1  0
 17 18  1  0
 18 19  2  0
 18 20  1  0
 20 21  1  0
 21 22  2  0
 22 23  1  0
 22 24  1  0
 24 25  2  0
 25 26  1  0
 26 27  2  0
 27 28  1  0
 28 29  2  0
 29 30  1  0
 29 31  1  0
 31 32  2  0
 32 33  1  0
 33 34  2  0
  6 35  1  0
 35 36  1  0
 35 37  2  0
 37  3  1  0
 17 12  1  0
 34 24  1  0
 33 27  1  0
  1 38  1  0
  1 39  1  0
  1 40  1  0
  4 41  1  0
  5 42  1  0
  7 43  1  6
  8 44  1  0
  8 45  1  0
  8 46  1  0
 12 47  1  1
 13 48  1  0
 13 49  1  0
 14 50  1  6
 15 51  1  0
 16 52  1  0
 16 53  1  0
 20 54  1  0
 20 55  1  0
 23 56  1  0
 25 57  1  0
 26 58  1  0
 28 59  1  0
 31 60  1  0
 32 61  1  0
 37 62  1  0
M  CHG  1   9  -1
M  END
>  <meeko>  (18) 
{"free_energy": -7.39, "intermolecular_energy": -10.97, "internal_energy": -3.43, "cluster_size": 2, "cluster_id": 3, "rank_in_cluster": 2}

$$$$

     RDKit          3D

 62 65  0  0  0  0  0  0  0  0999 V2000
  138.0960   80.8690  224.4380 C   0  0  0  0  0  0  0  0  0  0  0  0
  139.1010   79.8680  224.5700 O   0  0  0  0  0  0  0  0  0  0  0  0
  139.6760   79.1780  223.4930 C   0  0  0  0  0  0  0  0  0  0  0  0
  140.8770   79.5850  222.8920 C   0  0  0  0  0  0  0  0  0  0  0  0
  141.4120   78.8610  221.8250 C   0  0  0  0  0  0  0  0  0  0  0  0
  140.7720   77.7040  221.3420 C   0  0  0  0  0  0  0  0  0  0  0  0
  141.4100   76.9560  220.1820 C   0  0  2  0  0  0  0  0  0  0  0  0
  140.4500   76.8780  218.9950 C   0  0  0  0  0  0  0  0  0  0  0  0
  141.8190   75.6100  220.5770 N   0  0  0  0  0  0  0  0  0  0  0  0
  143.0550   74.9700  220.2280 C   0  0  0  0  0  0  0  0  0  0  0  0
  143.9600   75.6650  219.6950 O   0  0  0  0  0  0  0  0  0  0  0  0
  143.3270   73.5170  220.5450 C   0  0  2  0  0  0  0  0  0  0  0  0
  144.8110   73.2860  220.8350 C   0  0  0  0  0  0  0  0  0  0  0  0
  145.4000   72.7240  219.5420 C   0  0  1  0  0  0  0  0  0  0  0  0
  146.3890   71.7690  219.8230 O   0  0  0  0  0  0  0  0  0  0  0  0
  144.2230   72.1020  218.7920 C   0  0  0  0  0  0  0  0  0  0  0  0
  143.0290   72.6800  219.3890 N   0  0  0  0  0  0  0  0  0  0  0  0
  141.6850   72.3870  218.9600 C   0  0  0  0  0  0  0  0  0  0  0  0
  141.4950   71.6240  217.9750 O   0  0  0  0  0  0  0  0  0  0  0  0
  140.4980   72.9980  219.6410 C   0  0  0  0  0  0  0  0  0  0  0  0
  140.1810   72.2250  220.8390 N   0  0  0  0  0  0  0  0  0  0  0  0
  140.3480   72.5860  222.0830 C   0  0  0  0  0  0  0  0  0  0  0  0
  140.7000   73.9080  222.3440 O   0  0  0  0  0  0  0  0  0  0  0  0
  140.1990   71.6580  223.2350 C   0  0  0  0  0  0  0  0  0  0  0  0
  139.5820   70.4090  223.0510 C   0  0  0  0  0  0  0  0  0  0  0  0
  139.4610   69.5290  224.1290 C   0  0  0  0  0  0  0  0  0  0  0  0
  139.9620   69.8890  225.3840 C   0  0  0  0  0  0  0  0  0  0  0  0
  139.8590   69.0310  226.4880 C   0  0  0  0  0  0  0  0  0  0  0  0
  140.3750   69.4210  227.7290 C   0  0  0  0  0  0  0  0  0  0  0  0
  140.2720   68.5910  228.7960 F   0  0  0  0  0  0  0  0  0  0  0  0
  140.9970   70.6660  227.8710 C   0  0  0  0  0  0  0  0  0  0  0  0
  141.1040   71.5280  226.7740 C   0  0  0  0  0  0  0  0  0  0  0  0
  140.5890   71.1450  225.5310 C   0  0  0  0  0  0  0  0  0  0  0  0
  140.6900   71.9810  224.4630 N   0  0  0  0  0  0  0  0  0  0  0  0
  139.5480   77.3080  221.9380 C   0  0  0  0  0  0  0  0  0  0  0  0
  138.6350   75.9010  221.3960 Cl  0  0  0  0  0  0  0  0  0  0  0  0
  139.0190   78.0440  223.0050 C   0  0  0  0  0  0  0  0  0  0  0  0
  137.7692   81.1945  225.4367 H   0  0  0  0  0  0  0  0  0  0  0  0
  138.5052   81.7291  223.8877 H   0  0  0  0  0  0  0  0  0  0  0  0
  137.2375   80.4564  223.8877 H   0  0  0  0  0  0  0  0  0  0  0  0
  141.3994   80.4789  223.2635 H   0  0  0  0  0  0  0  0  0  0  0  0
  142.3471   79.1995  221.3549 H   0  0  0  0  0  0  0  0  0  0  0  0
  142.3072   77.5173  219.8820 H   0  0  0  0  0  0  0  0  0  0  0  0
  139.4170   76.7941  219.3637 H   0  0  0  0  0  0  0  0  0  0  0  0
  140.5483   77.7871  218.3835 H   0  0  0  0  0  0  0  0  0  0  0  0
  140.6938   75.9967  218.3835 H   0  0  0  0  0  0  0  0  0  0  0  0
  142.7010   73.2649  221.4136 H   0  0  0  0  0  0  0  0  0  0  0  0
  145.3023   74.2337  221.1006 H   0  0  0  0  0  0  0  0  0  0  0  0
  144.9581   72.5990  221.6814 H   0  0  0  0  0  0  0  0  0  0  0  0
  145.8887   73.5041  218.9399 H   0  0  0  0  0  0  0  0  0  0  0  0
  146.2940   71.5410  220.7860 H   0  0  0  0  0  0  0  0  0  0  0  0
  144.2756   72.3500  217.7216 H   0  0  0  0  0  0  0  0  0  0  0  0
  144.2259   71.0047  218.8686 H   0  0  0  0  0  0  0  0  0  0  0  0
  140.7296   74.0356  219.9233 H   0  0  0  0  0  0  0  0  0  0  0  0
  139.6359   72.9910  218.9578 H   0  0  0  0  0  0  0  0  0  0  0  0
  141.0770   74.5060  221.6170 H   0  0  0  0  0  0  0  0  0  0  0  0
  139.1955   70.1251  222.0610 H   0  0  0  0  0  0  0  0  0  0  0  0
  138.9719   68.5534  223.9908 H   0  0  0  0  0  0  0  0  0  0  0  0
  139.3723   68.0506  226.3787 H   0  0  0  0  0  0  0  0  0  0  0  0
  141.4030   70.9681  228.8477 H   0  0  0  0  0  0  0  0  0  0  0  0
  141.5930   72.5066  226.8890 H   0  0  0  0  0  0  0  0  0  0  0  0
  138.0725   77.7256  223.4664 H   0  0  0  0  0  0  0  0  0  0  0  0
  1  2  1  0
  2  3  1  0
  3  4  2  0
  4  5  1  0
  5  6  2  0
  6  7  1  0
  7  8  1  0
  7  9  1  0
  9 10  1  0
 10 11  2  0
 10 12  1  0
 12 13  1  0
 13 14  1  0
 14 15  1  0
 14 16  1  0
 16 17  1  0
 17 18  1  0
 18 19  2  0
 18 20  1  0
 20 21  1  0
 21 22  2  0
 22 23  1  0
 22 24  1  0
 24 25  2  0
 25 26  1  0
 26 27  2  0
 27 28  1  0
 28 29  2  0
 29 30  1  0
 29 31  1  0
 31 32  2  0
 32 33  1  0
 33 34  2  0
  6 35  1  0
 35 36  1  0
 35 37  2  0
 37  3  1  0
 17 12  1  0
 34 24  1  0
 33 27  1  0
  1 38  1  0
  1 39  1  0
  1 40  1  0
  4 41  1  0
  5 42  1  0
  7 43  1  6
  8 44  1  0
  8 45  1  0
  8 46  1  0
 12 47  1  1
 13 48  1  0
 13 49  1  0
 14 50  1  6
 15 51  1  0
 16 52  1  0
 16 53  1  0
 20 54  1  0
 20 55  1  0
 23 56  1  0
 25 57  1  0
 26 58  1  0
 28 59  1  0
 31 60  1  0
 32 61  1  0
 37 62  1  0
M  CHG  1   9  -1
M  END
>  <meeko>  (19) 
{"free_energy": -7.31, "intermolecular_energy": -10.89, "internal_energy": -2.88, "cluster_size": 4, "cluster_id": 2, "rank_in_cluster": 2}

$$$$

     RDKit          3D

 62 65  0  0  0  0  0  0  0  0999 V2000
  141.0670   76.6670  220.9490 C   0  0  0  0  0  0  0  0  0  0  0  0
  141.1770   75.3460  220.4250 O   0  0  0  0  0  0  0  0  0  0  0  0
  142.3020   74.8570  219.7450 C   0  0  0  0  0  0  0  0  0  0  0  0
  142.3100   74.6430  218.3570 C   0  0  0  0  0  0  0  0  0  0  0  0
  143.4560   74.1600  217.7250 C   0  0  0  0  0  0  0  0  0  0  0  0
  144.6280   73.8930  218.4570 C   0  0  0  0  0  0  0  0  0  0  0  0
  145.8460   73.3750  217.7080 C   0  0  2  0  0  0  0  0  0  0  0  0
  145.9280   73.9970  216.3140 C   0  0  0  0  0  0  0  0  0  0  0  0
  145.8230   71.9180  217.5980 N   0  0  0  0  0  0  0  0  0  0  0  0
  145.3110   71.0090  218.5820 C   0  0  0  0  0  0  0  0  0  0  0  0
  145.8550   70.9850  219.7180 O   0  0  0  0  0  0  0  0  0  0  0  0
  144.1020   70.1380  218.3220 C   0  0  2  0  0  0  0  0  0  0  0  0
  143.9560   69.8300  216.8300 C   0  0  0  0  0  0  0  0  0  0  0  0
  142.8980   70.8030  216.3110 C   0  0  1  0  0  0  0  0  0  0  0  0
  142.1050   70.1920  215.3280 O   0  0  0  0  0  0  0  0  0  0  0  0
  142.0670   71.1950  217.5330 C   0  0  0  0  0  0  0  0  0  0  0  0
  142.8800   70.8430  218.6870 N   0  0  0  0  0  0  0  0  0  0  0  0
  142.4850   71.0680  220.0550 C   0  0  0  0  0  0  0  0  0  0  0  0
  143.3140   71.5480  220.8740 O   0  0  0  0  0  0  0  0  0  0  0  0
  141.1120   70.7130  220.5390 C   0  0  0  0  0  0  0  0  0  0  0  0
  140.4180   71.9290  220.9520 N   0  0  0  0  0  0  0  0  0  0  0  0
  140.2920   72.3960  222.1650 C   0  0  0  0  0  0  0  0  0  0  0  0
  140.3170   73.7770  222.3440 O   0  0  0  0  0  0  0  0  0  0  0  0
  140.1390   71.5340  223.3660 C   0  0  0  0  0  0  0  0  0  0  0  0
  139.5030   70.2850  223.2550 C   0  0  0  0  0  0  0  0  0  0  0  0
  139.3780   69.4670  224.3790 C   0  0  0  0  0  0  0  0  0  0  0  0
  139.8940   69.8880  225.6100 C   0  0  0  0  0  0  0  0  0  0  0  0
  139.7870   69.0910  226.7590 C   0  0  0  0  0  0  0  0  0  0  0  0
  140.3180   69.5410  227.9730 C   0  0  0  0  0  0  0  0  0  0  0  0
  140.2120   68.7720  229.0850 F   0  0  0  0  0  0  0  0  0  0  0  0
  140.9580   70.7830  228.0440 C   0  0  0  0  0  0  0  0  0  0  0  0
  141.0680   71.5830  226.9020 C   0  0  0  0  0  0  0  0  0  0  0  0
  140.5380   71.1410  225.6840 C   0  0  0  0  0  0  0  0  0  0  0  0
  140.6430   71.9160  224.5720 N   0  0  0  0  0  0  0  0  0  0  0  0
  144.6100   74.0900  219.8610 C   0  0  0  0  0  0  0  0  0  0  0  0
  146.0020   73.7550  220.8890 Cl  0  0  0  0  0  0  0  0  0  0  0  0
  143.4530   74.5720  220.4850 C   0  0  0  0  0  0  0  0  0  0  0  0
  141.0703   76.6269  222.0483 H   0  0  0  0  0  0  0  0  0  0  0  0
  141.9179   77.2713  220.6016 H   0  0  0  0  0  0  0  0  0  0  0  0
  140.1278   77.1223  220.6016 H   0  0  0  0  0  0  0  0  0  0  0  0
  141.4079   74.8574  217.7651 H   0  0  0  0  0  0  0  0  0  0  0  0
  143.4434   73.9853  216.6390 H   0  0  0  0  0  0  0  0  0  0  0  0
  146.7361   73.6661  218.2851 H   0  0  0  0  0  0  0  0  0  0  0  0
  146.0713   75.0838  216.4053 H   0  0  0  0  0  0  0  0  0  0  0  0
  146.7763   73.5600  215.7668 H   0  0  0  0  0  0  0  0  0  0  0  0
  144.9954   73.7948  215.7668 H   0  0  0  0  0  0  0  0  0  0  0  0
  144.2459   69.2210  218.9123 H   0  0  0  0  0  0  0  0  0  0  0  0
  144.9121   69.9890  216.3098 H   0  0  0  0  0  0  0  0  0  0  0  0
  143.6659   68.7831  216.6570 H   0  0  0  0  0  0  0  0  0  0  0  0
  143.3491   71.6868  215.8362 H   0  0  0  0  0  0  0  0  0  0  0  0
  141.1910   70.5690  215.4300 H   0  0  0  0  0  0  0  0  0  0  0  0
  141.8582   72.2750  217.5252 H   0  0  0  0  0  0  0  0  0  0  0  0
  141.0951   70.6801  217.5470 H   0  0  0  0  0  0  0  0  0  0  0  0
  140.5505   70.2267  219.7277 H   0  0  0  0  0  0  0  0  0  0  0  0
  141.1885   70.0237  221.3928 H   0  0  0  0  0  0  0  0  0  0  0  0
  140.5070   74.4050  221.5720 H   0  0  0  0  0  0  0  0  0  0  0  0
  139.1049   69.9533  222.2847 H   0  0  0  0  0  0  0  0  0  0  0  0
  138.8745   68.4924  224.2974 H   0  0  0  0  0  0  0  0  0  0  0  0
  139.2862   68.1131  226.7060 H   0  0  0  0  0  0  0  0  0  0  0  0
  141.3757   71.1312  229.0002 H   0  0  0  0  0  0  0  0  0  0  0  0
  141.5710   72.5595  226.9609 H   0  0  0  0  0  0  0  0  0  0  0  0
  143.4498   74.7287  221.5738 H   0  0  0  0  0  0  0  0  0  0  0  0
  1  2  1  0
  2  3  1  0
  3  4  2  0
  4  5  1  0
  5  6  2  0
  6  7  1  0
  7  8  1  0
  7  9  1  0
  9 10  1  0
 10 11  2  0
 10 12  1  0
 12 13  1  0
 13 14  1  0
 14 15  1  0
 14 16  1  0
 16 17  1  0
 17 18  1  0
 18 19  2  0
 18 20  1  0
 20 21  1  0
 21 22  2  0
 22 23  1  0
 22 24  1  0
 24 25  2  0
 25 26  1  0
 26 27  2  0
 27 28  1  0
 28 29  2  0
 29 30  1  0
 29 31  1  0
 31 32  2  0
 32 33  1  0
 33 34  2  0
  6 35  1  0
 35 36  1  0
 35 37  2  0
 37  3  1  0
 17 12  1  0
 34 24  1  0
 33 27  1  0
  1 38  1  0
  1 39  1  0
  1 40  1  0
  4 41  1  0
  5 42  1  0
  7 43  1  1
  8 44  1  0
  8 45  1  0
  8 46  1  0
 12 47  1  1
 13 48  1  0
 13 49  1  0
 14 50  1  6
 15 51  1  0
 16 52  1  0
 16 53  1  0
 20 54  1  0
 20 55  1  0
 23 56  1  0
 25 57  1  0
 26 58  1  0
 28 59  1  0
 31 60  1  0
 32 61  1  0
 37 62  1  0
M  CHG  1   9  -1
M  END
>  <meeko>  (20) 
{"free_energy": -6.67, "intermolecular_energy": -10.25, "internal_energy": -3.68, "cluster_size": 3, "cluster_id": 4, "rank_in_cluster": 3}

$$$$
