
     RDKit          3D

 62 65  0  0  0  0  0  0  0  0999 V2000
  140.6700   72.2880  222.2610 C   0  0  0  0  0  0  0  0  0  0  0  0
  140.3140   73.3650  221.2830 C   0  0  0  0  0  0  0  0  0  0  0  0
  141.1300   74.3930  220.9910 C   0  0  0  0  0  0  0  0  0  0  0  0
  141.1800   75.5430  221.7860 O   0  0  0  0  0  0  0  0  0  0  0  0
  142.0100   74.3120  219.8540 N   0  0  0  0  0  0  0  0  0  0  0  0
  143.3590   73.9100  220.1510 C   0  0  0  0  0  0  0  0  0  0  0  0
  143.7100   72.5500  220.1630 C   0  0  0  0  0  0  0  0  0  0  0  0
  145.0200   72.1650  220.4660 C   0  0  0  0  0  0  0  0  0  0  0  0
  145.9800   73.1340  220.7720 C   0  0  0  0  0  0  0  0  0  0  0  0
  145.6340   74.4870  220.7740 C   0  0  0  0  0  0  0  0  0  0  0  0
  144.3280   74.8770  220.4670 C   0  0  0  0  0  0  0  0  0  0  0  0
  141.4680   74.2240  218.4710 C   0  0  2  0  0  0  0  0  0  0  0  0
  142.5360   74.5280  217.3920 C   0  0  0  0  0  0  0  0  0  0  0  0
  142.9460   76.0090  217.4110 C   0  0  0  0  0  0  0  0  0  0  0  0
  141.7730   76.8880  217.2030 N   0  0  2  0  0  0  0  0  0  0  0  0
  142.0860   78.3140  217.1360 C   0  0  0  0  0  0  0  0  0  0  0  0
  141.8780   78.9010  216.0820 O   0  0  0  0  0  0  0  0  0  0  0  0
  142.6350   79.1390  218.3030 C   0  0  1  0  0  0  0  0  0  0  0  0
  143.1270   80.4320  217.8090 N   0  0  0  0  0  0  0  0  0  0  0  0
  141.5360   79.3300  219.3870 C   0  0  0  0  0  0  0  0  0  0  0  0
  141.7490   78.4140  220.6240 C   0  0  0  0  0  0  0  0  0  0  0  0
  141.9020   79.3600  221.7540 C   0  0  0  0  0  0  0  0  0  0  0  0
  142.1620   79.0320  223.0880 C   0  0  0  0  0  0  0  0  0  0  0  0
  142.2710   80.0670  224.0290 C   0  0  0  0  0  0  0  0  0  0  0  0
  142.1110   81.4060  223.6290 C   0  0  0  0  0  0  0  0  0  0  0  0
  141.8400   81.7130  222.2870 C   0  0  0  0  0  0  0  0  0  0  0  0
  141.7340   80.6660  221.3670 C   0  0  0  0  0  0  0  0  0  0  0  0
  141.4440   80.7890  219.9210 C   0  0  0  0  0  0  0  0  0  0  0  0
  140.7590   76.6580  218.2560 C   0  0  0  0  0  0  0  0  0  0  0  0
  140.2830   75.1940  218.2540 C   0  0  0  0  0  0  0  0  0  0  0  0
  140.5446   72.6673  223.2859 H   0  0  0  0  0  0  0  0  0  0  0  0
  140.0107   71.4210  222.1077 H   0  0  0  0  0  0  0  0  0  0  0  0
  141.7162   71.9847  222.1077 H   0  0  0  0  0  0  0  0  0  0  0  0
  139.3376   73.3125  220.7792 H   0  0  0  0  0  0  0  0  0  0  0  0
  142.0410   76.0160  222.0290 H   0  0  0  0  0  0  0  0  0  0  0  0
  142.9527   71.7859  219.9335 H   0  0  0  0  0  0  0  0  0  0  0  0
  145.2949   71.0999  220.4635 H   0  0  0  0  0  0  0  0  0  0  0  0
  147.0097   72.8303  221.0116 H   0  0  0  0  0  0  0  0  0  0  0  0
  146.3910   75.2470  221.0177 H   0  0  0  0  0  0  0  0  0  0  0  0
  144.0579   75.9433  220.4727 H   0  0  0  0  0  0  0  0  0  0  0  0
  141.1286   73.1833  218.3622 H   0  0  0  0  0  0  0  0  0  0  0  0
  143.4244   73.9081  217.5831 H   0  0  0  0  0  0  0  0  0  0  0  0
  142.1062   74.3002  216.4054 H   0  0  0  0  0  0  0  0  0  0  0  0
  143.4027   76.2432  218.3839 H   0  0  0  0  0  0  0  0  0  0  0  0
  143.6635   76.1840  216.5958 H   0  0  0  0  0  0  0  0  0  0  0  0
  141.3510   76.6380  216.2760 H   0  0  0  0  0  0  0  0  0  0  0  0
  143.4771   78.6038  218.7661 H   0  0  0  0  0  0  0  0  0  0  0  0
  144.1680   80.4540  217.8960 H   0  0  0  0  0  0  0  0  0  0  0  0
  142.9250   80.4910  216.7860 H   0  0  0  0  0  0  0  0  0  0  0  0
  140.6064   79.0632  218.8629 H   0  0  0  0  0  0  0  0  0  0  0  0
  140.8791   77.7587  220.7787 H   0  0  0  0  0  0  0  0  0  0  0  0
  142.6173   77.7482  220.5110 H   0  0  0  0  0  0  0  0  0  0  0  0
  142.2790   77.9819  223.3941 H   0  0  0  0  0  0  0  0  0  0  0  0
  142.4821   79.8307  225.0824 H   0  0  0  0  0  0  0  0  0  0  0  0
  142.1985   82.2143  224.3700 H   0  0  0  0  0  0  0  0  0  0  0  0
  141.7134   82.7572  221.9652 H   0  0  0  0  0  0  0  0  0  0  0  0
  140.4370   81.2009  219.7588 H   0  0  0  0  0  0  0  0  0  0  0  0
  142.1397   81.4696  219.4084 H   0  0  0  0  0  0  0  0  0  0  0  0
  141.1994   76.8916  219.2365 H   0  0  0  0  0  0  0  0  0  0  0  0
  139.8940   77.3078  218.0571 H   0  0  0  0  0  0  0  0  0  0  0  0
  139.5505   75.0531  219.0624 H   0  0  0  0  0  0  0  0  0  0  0  0
  139.8267   74.9758  217.2772 H   0  0  0  0  0  0  0  0  0  0  0  0
  1  2  1  0
  2  3  2  0
  3  4  1  0
  3  5  1  0
  5  6  1  0
  6  7  2  0
  7  8  1  0
  8  9  2  0
  9 10  1  0
 10 11  2  0
  5 12  1  0
 12 13  1  0
 13 14  1  0
 14 15  1  0
 15 16  1  0
 16 17  2  0
 16 18  1  0
 18 19  1  0
 18 20  1  0
 20 21  1  0
 21 22  1  0
 22 23  2  0
 23 24  1  0
 24 25  2  0
 25 26  1  0
 26 27  2  0
 27 28  1  0
 15 29  1  0
 29 30  1  0
 11  6  1  0
 30 12  1  0
 28 20  1  0
 27 22  1  0
  1 31  1  0
  1 32  1  0
  1 33  1  0
  2 34  1  0
  4 35  1  0
  7 36  1  0
  8 37  1  0
  9 38  1  0
 10 39  1  0
 11 40  1  0
 12 41  1  1
 13 42  1  0
 13 43  1  0
 14 44  1  0
 14 45  1  0
 15 46  1  1
 18 47  1  1
 19 48  1  0
 19 49  1  0
 20 50  1  0
 21 51  1  0
 21 52  1  0
 23 53  1  0
 24 54  1  0
 25 55  1  0
 26 56  1  0
 28 57  1  0
 28 58  1  0
 29 59  1  0
 29 60  1  0
 30 61  1  0
 30 62  1  0
M  CHG  1  15   1
M  END
>  <meeko>  (1) 
{"free_energy": -7.52, "intermolecular_energy": -10.2, "internal_energy": -2.4, "cluster_size": 7, "cluster_id": 2, "rank_in_cluster": 1}

$$$$

     RDKit          3D

 62 65  0  0  0  0  0  0  0  0999 V2000
  139.6510   73.5880  221.9390 C   0  0  0  0  0  0  0  0  0  0  0  0
  140.7650   73.4490  220.9470 C   0  0  0  0  0  0  0  0  0  0  0  0
  141.5420   74.4780  220.5650 C   0  0  0  0  0  0  0  0  0  0  0  0
  141.4890   75.7200  221.2060 O   0  0  0  0  0  0  0  0  0  0  0  0
  142.4860   74.3040  219.4920 N   0  0  0  0  0  0  0  0  0  0  0  0
  143.7710   73.7880  219.8840 C   0  0  0  0  0  0  0  0  0  0  0  0
  144.7240   74.6310  220.4790 C   0  0  0  0  0  0  0  0  0  0  0  0
  145.9760   74.1280  220.8450 C   0  0  0  0  0  0  0  0  0  0  0  0
  146.2880   72.7870  220.6050 C   0  0  0  0  0  0  0  0  0  0  0  0
  145.3490   71.9460  220.0020 C   0  0  0  0  0  0  0  0  0  0  0  0
  144.0950   72.4430  219.6400 C   0  0  0  0  0  0  0  0  0  0  0  0
  142.0350   74.2470  218.0750 C   0  0  2  0  0  0  0  0  0  0  0  0
  143.0720   74.8480  217.0940 C   0  0  0  0  0  0  0  0  0  0  0  0
  143.1850   76.3710  217.2640 C   0  0  0  0  0  0  0  0  0  0  0  0
  141.8760   77.0290  217.0580 N   0  0  2  0  0  0  0  0  0  0  0  0
  141.9090   78.4880  217.1310 C   0  0  0  0  0  0  0  0  0  0  0  0
  141.3960   79.1230  216.2190 O   0  0  0  0  0  0  0  0  0  0  0  0
  142.5210   79.2860  218.2850 C   0  0  1  0  0  0  0  0  0  0  0  0
  143.1620   80.5010  217.7630 N   0  0  0  0  0  0  0  0  0  0  0  0
  141.4300   79.6310  219.3370 C   0  0  0  0  0  0  0  0  0  0  0  0
  141.2100   78.4890  220.3690 C   0  0  0  0  0  0  0  0  0  0  0  0
  141.5300   79.1140  221.6740 C   0  0  0  0  0  0  0  0  0  0  0  0
  141.5300   78.4850  222.9220 C   0  0  0  0  0  0  0  0  0  0  0  0
  141.8570   79.2400  224.0580 C   0  0  0  0  0  0  0  0  0  0  0  0
  142.1700   80.6050  223.9340 C   0  0  0  0  0  0  0  0  0  0  0  0
  142.1550   81.2190  222.6730 C   0  0  0  0  0  0  0  0  0  0  0  0
  141.8240   80.4490  221.5540 C   0  0  0  0  0  0  0  0  0  0  0  0
  141.7440   80.9170  220.1530 C   0  0  0  0  0  0  0  0  0  0  0  0
  140.8790   76.5130  218.0220 C   0  0  0  0  0  0  0  0  0  0  0  0
  140.6960   74.9930  217.8670 C   0  0  0  0  0  0  0  0  0  0  0  0
  140.0598   73.5370  222.9589 H   0  0  0  0  0  0  0  0  0  0  0  0
  139.1488   74.5558  221.7932 H   0  0  0  0  0  0  0  0  0  0  0  0
  138.9264   72.7733  221.7932 H   0  0  0  0  0  0  0  0  0  0  0  0
  140.9566   72.4578  220.5102 H   0  0  0  0  0  0  0  0  0  0  0  0
  142.1560   76.0140  221.9080 H   0  0  0  0  0  0  0  0  0  0  0  0
  144.4846   75.6897  220.6575 H   0  0  0  0  0  0  0  0  0  0  0  0
  146.7157   74.7878  221.3220 H   0  0  0  0  0  0  0  0  0  0  0  0
  147.2743   72.3929  220.8912 H   0  0  0  0  0  0  0  0  0  0  0  0
  145.5977   70.8914  219.8122 H   0  0  0  0  0  0  0  0  0  0  0  0
  143.3590   71.7795  219.1625 H   0  0  0  0  0  0  0  0  0  0  0  0
  141.9090   73.1761  217.8577 H   0  0  0  0  0  0  0  0  0  0  0  0
  144.0542   74.3921  217.2874 H   0  0  0  0  0  0  0  0  0  0  0  0
  142.7404   74.6373  216.0666 H   0  0  0  0  0  0  0  0  0  0  0  0
  143.5428   76.5934  218.2801 H   0  0  0  0  0  0  0  0  0  0  0  0
  143.8908   76.7548  216.5126 H   0  0  0  0  0  0  0  0  0  0  0  0
  141.5520   76.7920  216.0880 H   0  0  0  0  0  0  0  0  0  0  0  0
  143.2893   78.6772  218.7841 H   0  0  0  0  0  0  0  0  0  0  0  0
  144.1990   80.3910  217.8250 H   0  0  0  0  0  0  0  0  0  0  0  0
  142.9430   80.5760  216.7450 H   0  0  0  0  0  0  0  0  0  0  0  0
  140.5256   79.7846  218.7300 H   0  0  0  0  0  0  0  0  0  0  0  0
  140.1671   78.1399  220.3486 H   0  0  0  0  0  0  0  0  0  0  0  0
  141.8318   77.6060  220.1602 H   0  0  0  0  0  0  0  0  0  0  0  0
  141.2783   77.4179  223.0117 H   0  0  0  0  0  0  0  0  0  0  0  0
  141.8686   78.7626  225.0489 H   0  0  0  0  0  0  0  0  0  0  0  0
  142.4272   81.1926  224.8276 H   0  0  0  0  0  0  0  0  0  0  0  0
  142.3991   82.2863  222.5665 H   0  0  0  0  0  0  0  0  0  0  0  0
  140.9408   81.6593  220.0352 H   0  0  0  0  0  0  0  0  0  0  0  0
  142.6692   81.4107  219.8208 H   0  0  0  0  0  0  0  0  0  0  0  0
  141.2208   76.7316  219.0444 H   0  0  0  0  0  0  0  0  0  0  0  0
  139.9145   77.0037  217.8245 H   0  0  0  0  0  0  0  0  0  0  0  0
  139.9687   74.6407  218.6133 H   0  0  0  0  0  0  0  0  0  0  0  0
  140.3355   74.7865  216.8485 H   0  0  0  0  0  0  0  0  0  0  0  0
  1  2  1  0
  2  3  2  0
  3  4  1  0
  3  5  1  0
  5  6  1  0
  6  7  2  0
  7  8  1  0
  8  9  2  0
  9 10  1  0
 10 11  2  0
  5 12  1  0
 12 13  1  0
 13 14  1  0
 14 15  1  0
 15 16  1  0
 16 17  2  0
 16 18  1  0
 18 19  1  0
 18 20  1  0
 20 21  1  0
 21 22  1  0
 22 23  2  0
 23 24  1  0
 24 25  2  0
 25 26  1  0
 26 27  2  0
 27 28  1  0
 15 29  1  0
 29 30  1  0
 11  6  1  0
 30 12  1  0
 28 20  1  0
 27 22  1  0
  1 31  1  0
  1 32  1  0
  1 33  1  0
  2 34  1  0
  4 35  1  0
  7 36  1  0
  8 37  1  0
  9 38  1  0
 10 39  1  0
 11 40  1  0
 12 41  1  1
 13 42  1  0
 13 43  1  0
 14 44  1  0
 14 45  1  0
 15 46  1  1
 18 47  1  1
 19 48  1  0
 19 49  1  0
 20 50  1  0
 21 51  1  0
 21 52  1  0
 23 53  1  0
 24 54  1  0
 25 55  1  0
 26 56  1  0
 28 57  1  0
 28 58  1  0
 29 59  1  0
 29 60  1  0
 30 61  1  0
 30 62  1  0
M  CHG  1  15   1
M  END
>  <meeko>  (2) 
{"free_energy": -7.47, "intermolecular_energy": -10.15, "internal_energy": -2.44, "cluster_size": 7, "cluster_id": 2, "rank_in_cluster": 4}

$$$$

     RDKit          3D

 62 65  0  0  0  0  0  0  0  0999 V2000
  140.3170   71.7970  223.2030 C   0  0  0  0  0  0  0  0  0  0  0  0
  140.4290   72.1650  221.7560 C   0  0  0  0  0  0  0  0  0  0  0  0
  140.5630   73.4320  221.3270 C   0  0  0  0  0  0  0  0  0  0  0  0
  139.9980   74.5080  222.0190 O   0  0  0  0  0  0  0  0  0  0  0  0
  141.3360   73.7120  220.1450 N   0  0  0  0  0  0  0  0  0  0  0  0
  142.7640   73.6800  220.3240 C   0  0  0  0  0  0  0  0  0  0  0  0
  143.5090   74.8710  220.3100 C   0  0  0  0  0  0  0  0  0  0  0  0
  144.8980   74.8320  220.4700 C   0  0  0  0  0  0  0  0  0  0  0  0
  145.5490   73.6060  220.6290 C   0  0  0  0  0  0  0  0  0  0  0  0
  144.8150   72.4170  220.6310 C   0  0  0  0  0  0  0  0  0  0  0  0
  143.4270   72.4510  220.4780 C   0  0  0  0  0  0  0  0  0  0  0  0
  140.7290   73.6100  218.7900 C   0  0  2  0  0  0  0  0  0  0  0  0
  141.7530   73.8670  217.6570 C   0  0  0  0  0  0  0  0  0  0  0  0
  142.1980   75.3380  217.6270 C   0  0  0  0  0  0  0  0  0  0  0  0
  141.0380   76.2420  217.4550 N   0  0  2  0  0  0  0  0  0  0  0  0
  141.3810   77.6580  217.3440 C   0  0  0  0  0  0  0  0  0  0  0  0
  140.9780   78.2730  216.3650 O   0  0  0  0  0  0  0  0  0  0  0  0
  142.1900   78.4390  218.3820 C   0  0  1  0  0  0  0  0  0  0  0  0
  142.9760   79.4850  217.7130 N   0  0  0  0  0  0  0  0  0  0  0  0
  141.2430   79.0450  219.4550 C   0  0  0  0  0  0  0  0  0  0  0  0
  140.9450   78.0570  220.6180 C   0  0  0  0  0  0  0  0  0  0  0  0
  141.4500   78.7540  221.8240 C   0  0  0  0  0  0  0  0  0  0  0  0
  141.4580   78.2600  223.1310 C   0  0  0  0  0  0  0  0  0  0  0  0
  141.9750   79.0680  224.1550 C   0  0  0  0  0  0  0  0  0  0  0  0
  142.4660   80.3530  223.8620 C   0  0  0  0  0  0  0  0  0  0  0  0
  142.4400   80.8340  222.5450 C   0  0  0  0  0  0  0  0  0  0  0  0
  141.9190   80.0130  221.5400 C   0  0  0  0  0  0  0  0  0  0  0  0
  141.7970   80.3460  220.1040 C   0  0  0  0  0  0  0  0  0  0  0  0
  140.0690   76.0570  218.5570 C   0  0  0  0  0  0  0  0  0  0  0  0
  139.5590   74.6050  218.6080 C   0  0  0  0  0  0  0  0  0  0  0  0
  140.5814   72.6657  223.8238 H   0  0  0  0  0  0  0  0  0  0  0  0
  139.2844   71.4889  223.4241 H   0  0  0  0  0  0  0  0  0  0  0  0
  141.0029   70.9659  223.4241 H   0  0  0  0  0  0  0  0  0  0  0  0
  140.4002   71.3594  221.0075 H   0  0  0  0  0  0  0  0  0  0  0  0
  139.2790   74.4010  222.7240 H   0  0  0  0  0  0  0  0  0  0  0  0
  142.9990   75.8360  220.1729 H   0  0  0  0  0  0  0  0  0  0  0  0
  145.4779   75.7667  220.4707 H   0  0  0  0  0  0  0  0  0  0  0  0
  146.6416   73.5767  220.7529 H   0  0  0  0  0  0  0  0  0  0  0  0
  145.3308   71.4531  220.7532 H   0  0  0  0  0  0  0  0  0  0  0  0
  142.8518   71.5134  220.4781 H   0  0  0  0  0  0  0  0  0  0  0  0
  140.3608   72.5760  218.7179 H   0  0  0  0  0  0  0  0  0  0  0  0
  142.6346   73.2296  217.8198 H   0  0  0  0  0  0  0  0  0  0  0  0
  141.2729   73.6306  216.6959 H   0  0  0  0  0  0  0  0  0  0  0  0
  142.7046   75.5795  218.5730 H   0  0  0  0  0  0  0  0  0  0  0  0
  142.8806   75.4794  216.7761 H   0  0  0  0  0  0  0  0  0  0  0  0
  140.5680   75.9830  216.5530 H   0  0  0  0  0  0  0  0  0  0  0  0
  142.8855   77.7570  218.8930 H   0  0  0  0  0  0  0  0  0  0  0  0
  143.9930   79.2850  217.8490 H   0  0  0  0  0  0  0  0  0  0  0  0
  142.8070   79.4170  216.6850 H   0  0  0  0  0  0  0  0  0  0  0  0
  140.3251   79.2694  218.8919 H   0  0  0  0  0  0  0  0  0  0  0  0
  139.8649   77.8663  220.7010 H   0  0  0  0  0  0  0  0  0  0  0  0
  141.4182   77.0752  220.4691 H   0  0  0  0  0  0  0  0  0  0  0  0
  141.0663   77.2564  223.3530 H   0  0  0  0  0  0  0  0  0  0  0  0
  141.9964   78.6954  225.1898 H   0  0  0  0  0  0  0  0  0  0  0  0
  142.8714   80.9823  224.6680 H   0  0  0  0  0  0  0  0  0  0  0  0
  142.8220   81.8377  222.3071 H   0  0  0  0  0  0  0  0  0  0  0  0
  141.0992   81.1834  219.9558 H   0  0  0  0  0  0  0  0  0  0  0  0
  142.7536   80.6622  219.6625 H   0  0  0  0  0  0  0  0  0  0  0  0
  140.5595   76.2993  219.5113 H   0  0  0  0  0  0  0  0  0  0  0  0
  139.2109   76.7231  218.3836 H   0  0  0  0  0  0  0  0  0  0  0  0
  138.8621   74.4984  219.4524 H   0  0  0  0  0  0  0  0  0  0  0  0
  139.0527   74.3790  217.6580 H   0  0  0  0  0  0  0  0  0  0  0  0
  1  2  1  0
  2  3  2  0
  3  4  1  0
  3  5  1  0
  5  6  1  0
  6  7  2  0
  7  8  1  0
  8  9  2  0
  9 10  1  0
 10 11  2  0
  5 12  1  0
 12 13  1  0
 13 14  1  0
 14 15  1  0
 15 16  1  0
 16 17  2  0
 16 18  1  0
 18 19  1  0
 18 20  1  0
 20 21  1  0
 21 22  1  0
 22 23  2  0
 23 24  1  0
 24 25  2  0
 25 26  1  0
 26 27  2  0
 27 28  1  0
 15 29  1  0
 29 30  1  0
 11  6  1  0
 30 12  1  0
 28 20  1  0
 27 22  1  0
  1 31  1  0
  1 32  1  0
  1 33  1  0
  2 34  1  0
  4 35  1  0
  7 36  1  0
  8 37  1  0
  9 38  1  0
 10 39  1  0
 11 40  1  0
 12 41  1  1
 13 42  1  0
 13 43  1  0
 14 44  1  0
 14 45  1  0
 15 46  1  1
 18 47  1  1
 19 48  1  0
 19 49  1  0
 20 50  1  0
 21 51  1  0
 21 52  1  0
 23 53  1  0
 24 54  1  0
 25 55  1  0
 26 56  1  0
 28 57  1  0
 28 58  1  0
 29 59  1  0
 29 60  1  0
 30 61  1  0
 30 62  1  0
M  CHG  1  15   1
M  END
>  <meeko>  (3) 
{"free_energy": -7.39, "intermolecular_energy": -10.08, "internal_energy": -2.36, "cluster_size": 7, "cluster_id": 2, "rank_in_cluster": 5}

$$$$

     RDKit          3D

 62 65  0  0  0  0  0  0  0  0999 V2000
  146.3280   73.5000  221.6130 C   0  0  0  0  0  0  0  0  0  0  0  0
  145.9010   72.6330  220.4690 C   0  0  0  0  0  0  0  0  0  0  0  0
  145.4440   73.1240  219.3030 C   0  0  0  0  0  0  0  0  0  0  0  0
  146.2940   73.3600  218.2190 O   0  0  0  0  0  0  0  0  0  0  0  0
  144.0380   73.3860  219.1370 N   0  0  0  0  0  0  0  0  0  0  0  0
  143.7040   74.7370  218.7690 C   0  0  0  0  0  0  0  0  0  0  0  0
  143.3660   75.6790  219.7550 C   0  0  0  0  0  0  0  0  0  0  0  0
  143.0300   76.9860  219.3910 C   0  0  0  0  0  0  0  0  0  0  0  0
  143.0140   77.3540  218.0420 C   0  0  0  0  0  0  0  0  0  0  0  0
  143.3360   76.4180  217.0570 C   0  0  0  0  0  0  0  0  0  0  0  0
  143.6790   75.1120  217.4160 C   0  0  0  0  0  0  0  0  0  0  0  0
  143.0690   72.2740  218.9360 C   0  0  2  0  0  0  0  0  0  0  0  0
  141.7250   72.7540  218.3370 C   0  0  0  0  0  0  0  0  0  0  0  0
  140.9340   73.6010  219.3460 C   0  0  0  0  0  0  0  0  0  0  0  0
  140.6730   72.8430  220.5910 N   0  0  2  0  0  0  0  0  0  0  0  0
  139.8630   73.5530  221.5780 C   0  0  0  0  0  0  0  0  0  0  0  0
  139.9080   73.1720  222.7410 O   0  0  0  0  0  0  0  0  0  0  0  0
  138.9750   74.7600  221.2660 C   0  0  1  0  0  0  0  0  0  0  0  0
  138.0890   75.0310  222.4070 N   0  0  0  0  0  0  0  0  0  0  0  0
  139.8520   75.9980  220.9270 C   0  0  0  0  0  0  0  0  0  0  0  0
  139.0460   77.3260  220.9470 C   0  0  0  0  0  0  0  0  0  0  0  0
  139.7150   78.1390  221.9900 C   0  0  0  0  0  0  0  0  0  0  0  0
  139.3360   79.4130  222.4260 C   0  0  0  0  0  0  0  0  0  0  0  0
  140.0950   80.0370  223.4270 C   0  0  0  0  0  0  0  0  0  0  0  0
  141.2190   79.3890  223.9700 C   0  0  0  0  0  0  0  0  0  0  0  0
  141.5870   78.1150  223.5120 C   0  0  0  0  0  0  0  0  0  0  0  0
  140.8180   77.5120  222.5120 C   0  0  0  0  0  0  0  0  0  0  0  0
  141.0530   76.1870  221.8970 C   0  0  0  0  0  0  0  0  0  0  0  0
  141.9460   72.4200  221.2150 C   0  0  0  0  0  0  0  0  0  0  0  0
  142.7630   71.5320  220.2590 C   0  0  0  0  0  0  0  0  0  0  0  0
  146.0825   73.0016  222.5624 H   0  0  0  0  0  0  0  0  0  0  0  0
  147.4133   73.6708  221.5585 H   0  0  0  0  0  0  0  0  0  0  0  0
  145.8018   74.4645  221.5585 H   0  0  0  0  0  0  0  0  0  0  0  0
  145.9642   71.5413  220.5880 H   0  0  0  0  0  0  0  0  0  0  0  0
  146.4240   74.2730  217.8010 H   0  0  0  0  0  0  0  0  0  0  0  0
  143.3658   75.3874  220.8156 H   0  0  0  0  0  0  0  0  0  0  0  0
  142.7781   77.7252  220.1657 H   0  0  0  0  0  0  0  0  0  0  0  0
  142.7474   78.3823  217.7564 H   0  0  0  0  0  0  0  0  0  0  0  0
  143.3196   76.7094  215.9964 H   0  0  0  0  0  0  0  0  0  0  0  0
  143.9299   74.3764  216.6376 H   0  0  0  0  0  0  0  0  0  0  0  0
  143.5587   71.5926  218.2247 H   0  0  0  0  0  0  0  0  0  0  0  0
  141.9280   73.3601  217.4418 H   0  0  0  0  0  0  0  0  0  0  0  0
  141.1240   71.8692  218.0803 H   0  0  0  0  0  0  0  0  0  0  0  0
  141.5138   74.5034  219.5899 H   0  0  0  0  0  0  0  0  0  0  0  0
  139.9687   73.8717  218.8934 H   0  0  0  0  0  0  0  0  0  0  0  0
  140.1300   71.9840  220.3290 H   0  0  0  0  0  0  0  0  0  0  0  0
  138.3509   74.5385  220.3877 H   0  0  0  0  0  0  0  0  0  0  0  0
  137.8110   74.1230  222.8450 H   0  0  0  0  0  0  0  0  0  0  0  0
  138.6370   75.5420  223.1350 H   0  0  0  0  0  0  0  0  0  0  0  0
  140.2208   75.7845  219.9129 H   0  0  0  0  0  0  0  0  0  0  0  0
  139.0956   77.8276  219.9693 H   0  0  0  0  0  0  0  0  0  0  0  0
  137.9775   77.1683  221.1553 H   0  0  0  0  0  0  0  0  0  0  0  0
  138.4593   79.9160  221.9920 H   0  0  0  0  0  0  0  0  0  0  0  0
  139.8103   81.0362  223.7884 H   0  0  0  0  0  0  0  0  0  0  0  0
  141.8107   79.8821  224.7553 H   0  0  0  0  0  0  0  0  0  0  0  0
  142.4639   77.6003  223.9316 H   0  0  0  0  0  0  0  0  0  0  0  0
  142.0050   76.1760  221.3460 H   0  0  0  0  0  0  0  0  0  0  0  0
  141.1221   75.3822  222.6437 H   0  0  0  0  0  0  0  0  0  0  0  0
  142.5361   73.3130  221.4685 H   0  0  0  0  0  0  0  0  0  0  0  0
  141.7156   71.8394  222.1204 H   0  0  0  0  0  0  0  0  0  0  0  0
  143.7110   71.2579  220.7450 H   0  0  0  0  0  0  0  0  0  0  0  0
  142.1736   70.6325  220.0274 H   0  0  0  0  0  0  0  0  0  0  0  0
  1  2  1  0
  2  3  2  0
  3  4  1  0
  3  5  1  0
  5  6  1  0
  6  7  2  0
  7  8  1  0
  8  9  2  0
  9 10  1  0
 10 11  2  0
  5 12  1  0
 12 13  1  0
 13 14  1  0
 14 15  1  0
 15 16  1  0
 16 17  2  0
 16 18  1  0
 18 19  1  0
 18 20  1  0
 20 21  1  0
 21 22  1  0
 22 23  2  0
 23 24  1  0
 24 25  2  0
 25 26  1  0
 26 27  2  0
 27 28  1  0
 15 29  1  0
 29 30  1  0
 11  6  1  0
 30 12  1  0
 28 20  1  0
 27 22  1  0
  1 31  1  0
  1 32  1  0
  1 33  1  0
  2 34  1  0
  4 35  1  0
  7 36  1  0
  8 37  1  0
  9 38  1  0
 10 39  1  0
 11 40  1  0
 12 41  1  1
 13 42  1  0
 13 43  1  0
 14 44  1  0
 14 45  1  0
 15 46  1  1
 18 47  1  6
 19 48  1  0
 19 49  1  0
 20 50  1  0
 21 51  1  0
 21 52  1  0
 23 53  1  0
 24 54  1  0
 25 55  1  0
 26 56  1  0
 28 57  1  0
 28 58  1  0
 29 59  1  0
 29 60  1  0
 30 61  1  0
 30 62  1  0
M  CHG  1  15   1
M  END
>  <meeko>  (4) 
{"free_energy": -7.69, "intermolecular_energy": -10.38, "internal_energy": -2.65, "cluster_size": 7, "cluster_id": 1, "rank_in_cluster": 2}

$$$$

     RDKit          3D

 62 65  0  0  0  0  0  0  0  0999 V2000
  144.7520   72.7340  220.8270 C   0  0  0  0  0  0  0  0  0  0  0  0
  144.9700   74.1800  220.5050 C   0  0  0  0  0  0  0  0  0  0  0  0
  143.9920   74.9910  220.0650 C   0  0  0  0  0  0  0  0  0  0  0  0
  144.1220   76.3830  220.0890 O   0  0  0  0  0  0  0  0  0  0  0  0
  142.7850   74.4290  219.5170 N   0  0  0  0  0  0  0  0  0  0  0  0
  141.6590   74.4000  220.4130 C   0  0  0  0  0  0  0  0  0  0  0  0
  140.9030   73.2260  220.5660 C   0  0  0  0  0  0  0  0  0  0  0  0
  139.8020   73.2070  221.4280 C   0  0  0  0  0  0  0  0  0  0  0  0
  139.4420   74.3630  222.1270 C   0  0  0  0  0  0  0  0  0  0  0  0
  140.1830   75.5370  221.9690 C   0  0  0  0  0  0  0  0  0  0  0  0
  141.2870   75.5580  221.1140 C   0  0  0  0  0  0  0  0  0  0  0  0
  142.5990   74.2980  218.0460 C   0  0  2  0  0  0  0  0  0  0  0  0
  143.7070   75.0190  217.2390 C   0  0  0  0  0  0  0  0  0  0  0  0
  143.5950   76.5450  217.3750 C   0  0  0  0  0  0  0  0  0  0  0  0
  142.2680   77.0250  216.9240 N   0  0  2  0  0  0  0  0  0  0  0  0
  142.1030   78.4760  216.9540 C   0  0  0  0  0  0  0  0  0  0  0  0
  141.5180   79.0080  216.0190 O   0  0  0  0  0  0  0  0  0  0  0  0
  142.5890   79.3830  218.0870 C   0  0  1  0  0  0  0  0  0  0  0  0
  143.0380   80.6690  217.5360 N   0  0  0  0  0  0  0  0  0  0  0  0
  141.4590   79.5830  219.1360 C   0  0  0  0  0  0  0  0  0  0  0  0
  141.4440   78.4680  220.2190 C   0  0  0  0  0  0  0  0  0  0  0  0
  141.6580   79.1960  221.4920 C   0  0  0  0  0  0  0  0  0  0  0  0
  141.7710   78.6340  222.7670 C   0  0  0  0  0  0  0  0  0  0  0  0
  141.9690   79.4850  223.8650 C   0  0  0  0  0  0  0  0  0  0  0  0
  142.0410   80.8770  223.6770 C   0  0  0  0  0  0  0  0  0  0  0  0
  141.9150   81.4210  222.3900 C   0  0  0  0  0  0  0  0  0  0  0  0
  141.7170   80.5560  221.3100 C   0  0  0  0  0  0  0  0  0  0  0  0
  141.5500   80.9390  219.8910 C   0  0  0  0  0  0  0  0  0  0  0  0
  141.1920   76.3930  217.7190 C   0  0  0  0  0  0  0  0  0  0  0  0
  141.2340   74.8600  217.5860 C   0  0  0  0  0  0  0  0  0  0  0  0
  144.7319   72.6004  221.9187 H   0  0  0  0  0  0  0  0  0  0  0  0
  143.7939   72.4035  220.3994 H   0  0  0  0  0  0  0  0  0  0  0  0
  145.5701   72.1358  220.3994 H   0  0  0  0  0  0  0  0  0  0  0  0
  145.9788   74.5989  220.6347 H   0  0  0  0  0  0  0  0  0  0  0  0
  143.7690   76.9630  220.8400 H   0  0  0  0  0  0  0  0  0  0  0  0
  141.1776   72.3196  220.0065 H   0  0  0  0  0  0  0  0  0  0  0  0
  139.2194   72.2828  221.5560 H   0  0  0  0  0  0  0  0  0  0  0  0
  138.5740   74.3483  222.8025 H   0  0  0  0  0  0  0  0  0  0  0  0
  139.8964   76.4457  222.5187 H   0  0  0  0  0  0  0  0  0  0  0  0
  141.8667   76.4845  220.9895 H   0  0  0  0  0  0  0  0  0  0  0  0
  142.6490   73.2175  217.8461 H   0  0  0  0  0  0  0  0  0  0  0  0
  144.6899   74.6973  217.6138 H   0  0  0  0  0  0  0  0  0  0  0  0
  143.5895   74.7560  216.1774 H   0  0  0  0  0  0  0  0  0  0  0  0
  143.7382   76.8231  218.4296 H   0  0  0  0  0  0  0  0  0  0  0  0
  144.3673   77.0095  216.7442 H   0  0  0  0  0  0  0  0  0  0  0  0
  142.1520   76.7380  215.9220 H   0  0  0  0  0  0  0  0  0  0  0  0
  143.4414   78.9085  218.5953 H   0  0  0  0  0  0  0  0  0  0  0  0
  144.0630   80.7730  217.7090 H   0  0  0  0  0  0  0  0  0  0  0  0
  142.9260   80.6390  216.4980 H   0  0  0  0  0  0  0  0  0  0  0  0
  140.5390   79.5518  218.5339 H   0  0  0  0  0  0  0  0  0  0  0  0
  140.4766   77.9444  220.2267 H   0  0  0  0  0  0  0  0  0  0  0  0
  142.2078   77.6967  220.0408 H   0  0  0  0  0  0  0  0  0  0  0  0
  141.7059   77.5449  222.9069 H   0  0  0  0  0  0  0  0  0  0  0  0
  142.0682   79.0622  224.8757 H   0  0  0  0  0  0  0  0  0  0  0  0
  142.1964   81.5403  224.5406 H   0  0  0  0  0  0  0  0  0  0  0  0
  141.9710   82.5084  222.2337 H   0  0  0  0  0  0  0  0  0  0  0  0
  140.6299   81.5255  219.7512 H   0  0  0  0  0  0  0  0  0  0  0  0
  142.3742   81.5692  219.5257 H   0  0  0  0  0  0  0  0  0  0  0  0
  141.3192   76.6657  218.7770 H   0  0  0  0  0  0  0  0  0  0  0  0
  140.2224   76.7505  217.3422 H   0  0  0  0  0  0  0  0  0  0  0  0
  140.4381   74.4236  218.2074 H   0  0  0  0  0  0  0  0  0  0  0  0
  141.0868   74.5972  216.5280 H   0  0  0  0  0  0  0  0  0  0  0  0
  1  2  1  0
  2  3  2  0
  3  4  1  0
  3  5  1  0
  5  6  1  0
  6  7  2  0
  7  8  1  0
  8  9  2  0
  9 10  1  0
 10 11  2  0
  5 12  1  0
 12 13  1  0
 13 14  1  0
 14 15  1  0
 15 16  1  0
 16 17  2  0
 16 18  1  0
 18 19  1  0
 18 20  1  0
 20 21  1  0
 21 22  1  0
 22 23  2  0
 23 24  1  0
 24 25  2  0
 25 26  1  0
 26 27  2  0
 27 28  1  0
 15 29  1  0
 29 30  1  0
 11  6  1  0
 30 12  1  0
 28 20  1  0
 27 22  1  0
  1 31  1  0
  1 32  1  0
  1 33  1  0
  2 34  1  0
  4 35  1  0
  7 36  1  0
  8 37  1  0
  9 38  1  0
 10 39  1  0
 11 40  1  0
 12 41  1  6
 13 42  1  0
 13 43  1  0
 14 44  1  0
 14 45  1  0
 15 46  1  1
 18 47  1  1
 19 48  1  0
 19 49  1  0
 20 50  1  0
 21 51  1  0
 21 52  1  0
 23 53  1  0
 24 54  1  0
 25 55  1  0
 26 56  1  0
 28 57  1  0
 28 58  1  0
 29 59  1  0
 29 60  1  0
 30 61  1  0
 30 62  1  0
M  CHG  1  15   1
M  END
>  <meeko>  (5) 
{"free_energy": -6.93, "intermolecular_energy": -9.61, "internal_energy": -2.82, "cluster_size": 7, "cluster_id": 2, "rank_in_cluster": 7}

$$$$

     RDKit          3D

 62 65  0  0  0  0  0  0  0  0999 V2000
  145.1780   72.9670  220.8500 C   0  0  0  0  0  0  0  0  0  0  0  0
  145.1190   74.4200  220.4930 C   0  0  0  0  0  0  0  0  0  0  0  0
  143.9990   75.0290  220.0650 C   0  0  0  0  0  0  0  0  0  0  0  0
  143.8660   76.4210  220.0770 O   0  0  0  0  0  0  0  0  0  0  0  0
  142.9110   74.2440  219.5410 N   0  0  0  0  0  0  0  0  0  0  0  0
  141.8650   73.9420  220.4820 C   0  0  0  0  0  0  0  0  0  0  0  0
  141.0680   74.9700  221.0130 C   0  0  0  0  0  0  0  0  0  0  0  0
  140.0620   74.6730  221.9370 C   0  0  0  0  0  0  0  0  0  0  0  0
  139.8570   73.3530  222.3470 C   0  0  0  0  0  0  0  0  0  0  0  0
  140.6550   72.3270  221.8330 C   0  0  0  0  0  0  0  0  0  0  0  0
  141.6570   72.6190  220.9040 C   0  0  0  0  0  0  0  0  0  0  0  0
  142.6820   74.1320  218.0750 C   0  0  2  0  0  0  0  0  0  0  0  0
  143.7560   74.8780  217.2450 C   0  0  0  0  0  0  0  0  0  0  0  0
  143.6300   76.4010  217.4080 C   0  0  0  0  0  0  0  0  0  0  0  0
  142.2850   76.8710  217.0060 N   0  0  2  0  0  0  0  0  0  0  0  0
  142.1040   78.3200  217.0620 C   0  0  0  0  0  0  0  0  0  0  0  0
  141.5140   78.8630  216.1370 O   0  0  0  0  0  0  0  0  0  0  0  0
  142.5790   79.2100  218.2130 C   0  0  1  0  0  0  0  0  0  0  0  0
  143.0860   80.4820  217.6790 N   0  0  0  0  0  0  0  0  0  0  0  0
  141.4210   79.4440  219.2240 C   0  0  0  0  0  0  0  0  0  0  0  0
  141.2720   78.2810  220.2430 C   0  0  0  0  0  0  0  0  0  0  0  0
  141.4830   78.9260  221.5610 C   0  0  0  0  0  0  0  0  0  0  0  0
  141.4960   78.2920  222.8070 C   0  0  0  0  0  0  0  0  0  0  0  0
  141.7070   79.0690  223.9570 C   0  0  0  0  0  0  0  0  0  0  0  0
  141.8930   80.4580  223.8470 C   0  0  0  0  0  0  0  0  0  0  0  0
  141.8670   81.0750  222.5880 C   0  0  0  0  0  0  0  0  0  0  0  0
  141.6530   80.2840  221.4560 C   0  0  0  0  0  0  0  0  0  0  0  0
  141.5810   80.7500  220.0530 C   0  0  0  0  0  0  0  0  0  0  0  0
  141.2420   76.2140  217.8230 C   0  0  0  0  0  0  0  0  0  0  0  0
  141.2970   74.6840  217.6660 C   0  0  0  0  0  0  0  0  0  0  0  0
  145.1824   72.8583  221.9446 H   0  0  0  0  0  0  0  0  0  0  0  0
  144.3000   72.4512  220.4338 H   0  0  0  0  0  0  0  0  0  0  0  0
  146.0949   72.5241  220.4338 H   0  0  0  0  0  0  0  0  0  0  0  0
  146.0371   75.0188  220.5854 H   0  0  0  0  0  0  0  0  0  0  0  0
  144.2170   77.0080  220.8230 H   0  0  0  0  0  0  0  0  0  0  0  0
  141.2361   76.0113  220.7008 H   0  0  0  0  0  0  0  0  0  0  0  0
  139.4316   75.4786  222.3414 H   0  0  0  0  0  0  0  0  0  0  0  0
  139.0662   73.1209  223.0756 H   0  0  0  0  0  0  0  0  0  0  0  0
  140.4941   71.2891  222.1600 H   0  0  0  0  0  0  0  0  0  0  0  0
  142.2847   71.8101  220.5021 H   0  0  0  0  0  0  0  0  0  0  0  0
  142.7392   73.0553  217.8573 H   0  0  0  0  0  0  0  0  0  0  0  0
  144.7538   74.5627  217.5842 H   0  0  0  0  0  0  0  0  0  0  0  0
  143.6090   74.6293  216.1836 H   0  0  0  0  0  0  0  0  0  0  0  0
  143.8026   76.6649  218.4618 H   0  0  0  0  0  0  0  0  0  0  0  0
  144.3767   76.8844  216.7609 H   0  0  0  0  0  0  0  0  0  0  0  0
  142.1420   76.5970  216.0030 H   0  0  0  0  0  0  0  0  0  0  0  0
  143.3981   78.7089  218.7496 H   0  0  0  0  0  0  0  0  0  0  0  0
  144.1200   80.5240  217.8240 H   0  0  0  0  0  0  0  0  0  0  0  0
  142.9430   80.4850  216.6440 H   0  0  0  0  0  0  0  0  0  0  0  0
  140.5288   79.5145  218.5844 H   0  0  0  0  0  0  0  0  0  0  0  0
  140.2682   77.8351  220.1827 H   0  0  0  0  0  0  0  0  0  0  0  0
  141.9817   77.4617  220.0554 H   0  0  0  0  0  0  0  0  0  0  0  0
  141.3438   77.2054  222.8847 H   0  0  0  0  0  0  0  0  0  0  0  0
  141.7268   78.5896  224.9468 H   0  0  0  0  0  0  0  0  0  0  0  0
  142.0594   81.0625  224.7508 H   0  0  0  0  0  0  0  0  0  0  0  0
  142.0123   82.1612  222.4932 H   0  0  0  0  0  0  0  0  0  0  0  0
  140.7159   81.4134  219.9063 H   0  0  0  0  0  0  0  0  0  0  0  0
  142.4667   81.3311  219.7564 H   0  0  0  0  0  0  0  0  0  0  0  0
  141.3984   76.4724  218.8807 H   0  0  0  0  0  0  0  0  0  0  0  0
  140.2574   76.5651  217.4806 H   0  0  0  0  0  0  0  0  0  0  0  0
  140.5259   74.2293  218.3053 H   0  0  0  0  0  0  0  0  0  0  0  0
  141.1196   74.4346  216.6094 H   0  0  0  0  0  0  0  0  0  0  0  0
  1  2  1  0
  2  3  2  0
  3  4  1  0
  3  5  1  0
  5  6  1  0
  6  7  2  0
  7  8  1  0
  8  9  2  0
  9 10  1  0
 10 11  2  0
  5 12  1  0
 12 13  1  0
 13 14  1  0
 14 15  1  0
 15 16  1  0
 16 17  2  0
 16 18  1  0
 18 19  1  0
 18 20  1  0
 20 21  1  0
 21 22  1  0
 22 23  2  0
 23 24  1  0
 24 25  2  0
 25 26  1  0
 26 27  2  0
 27 28  1  0
 15 29  1  0
 29 30  1  0
 11  6  1  0
 30 12  1  0
 28 20  1  0
 27 22  1  0
  1 31  1  0
  1 32  1  0
  1 33  1  0
  2 34  1  0
  4 35  1  0
  7 36  1  0
  8 37  1  0
  9 38  1  0
 10 39  1  0
 11 40  1  0
 12 41  1  1
 13 42  1  0
 13 43  1  0
 14 44  1  0
 14 45  1  0
 15 46  1  1
 18 47  1  1
 19 48  1  0
 19 49  1  0
 20 50  1  0
 21 51  1  0
 21 52  1  0
 23 53  1  0
 24 54  1  0
 25 55  1  0
 26 56  1  0
 28 57  1  0
 28 58  1  0
 29 59  1  0
 29 60  1  0
 30 61  1  0
 30 62  1  0
M  CHG  1  15   1
M  END
>  <meeko>  (6) 
{"free_energy": -7.08, "intermolecular_energy": -9.76, "internal_energy": -2.74, "cluster_size": 7, "cluster_id": 2, "rank_in_cluster": 6}

$$$$

     RDKit          3D

 62 65  0  0  0  0  0  0  0  0999 V2000
  139.3020   78.2610  222.6170 C   0  0  0  0  0  0  0  0  0  0  0  0
  138.6660   77.0570  221.9940 C   0  0  0  0  0  0  0  0  0  0  0  0
  139.3430   75.9300  221.7100 C   0  0  0  0  0  0  0  0  0  0  0  0
  139.7360   75.0350  222.7110 O   0  0  0  0  0  0  0  0  0  0  0  0
  139.6490   75.6010  220.3420 N   0  0  0  0  0  0  0  0  0  0  0  0
  141.0140   75.8300  219.9470 C   0  0  0  0  0  0  0  0  0  0  0  0
  141.3230   76.8210  219.0000 C   0  0  0  0  0  0  0  0  0  0  0  0
  142.6500   77.0290  218.6100 C   0  0  0  0  0  0  0  0  0  0  0  0
  143.6690   76.2400  219.1490 C   0  0  0  0  0  0  0  0  0  0  0  0
  143.3660   75.2440  220.0810 C   0  0  0  0  0  0  0  0  0  0  0  0
  142.0440   75.0360  220.4790 C   0  0  0  0  0  0  0  0  0  0  0  0
  138.7590   74.7090  219.5510 C   0  0  2  0  0  0  0  0  0  0  0  0
  137.5880   74.1400  220.3890 C   0  0  0  0  0  0  0  0  0  0  0  0
  138.0870   73.1350  221.4390 C   0  0  0  0  0  0  0  0  0  0  0  0
  138.8230   72.0190  220.8020 N   0  0  2  0  0  0  0  0  0  0  0  0
  139.2710   70.9800  221.7260 C   0  0  0  0  0  0  0  0  0  0  0  0
  138.9640   69.8200  221.4810 O   0  0  0  0  0  0  0  0  0  0  0  0
  140.1240   71.2340  222.9710 C   0  0  1  0  0  0  0  0  0  0  0  0
  140.5360   72.6440  223.0110 N   0  0  0  0  0  0  0  0  0  0  0  0
  139.3340   70.8410  224.2510 C   0  0  0  0  0  0  0  0  0  0  0  0
  139.2290   69.3030  224.4420 C   0  0  0  0  0  0  0  0  0  0  0  0
  139.8930   69.0520  225.7420 C   0  0  0  0  0  0  0  0  0  0  0  0
  140.1030   67.8100  226.3470 C   0  0  0  0  0  0  0  0  0  0  0  0
  140.7500   67.7650  227.5910 C   0  0  0  0  0  0  0  0  0  0  0  0
  141.1690   68.9540  228.2140 C   0  0  0  0  0  0  0  0  0  0  0  0
  140.9400   70.1920  227.5940 C   0  0  0  0  0  0  0  0  0  0  0  0
  140.2920   70.2140  226.3560 C   0  0  0  0  0  0  0  0  0  0  0  0
  139.9530   71.4130  225.5580 C   0  0  0  0  0  0  0  0  0  0  0  0
  139.9830   72.5320  220.0400 C   0  0  0  0  0  0  0  0  0  0  0  0
  139.5340   73.5150  218.9440 C   0  0  0  0  0  0  0  0  0  0  0  0
  139.2562   78.1743  223.7126 H   0  0  0  0  0  0  0  0  0  0  0  0
  140.3527   78.3271  222.2980 H   0  0  0  0  0  0  0  0  0  0  0  0
  138.7644   79.1661  222.2980 H   0  0  0  0  0  0  0  0  0  0  0  0
  137.5925   77.0961  221.7570 H   0  0  0  0  0  0  0  0  0  0  0  0
  139.1290   74.3180  223.0870 H   0  0  0  0  0  0  0  0  0  0  0  0
  140.5201   77.4341  218.5647 H   0  0  0  0  0  0  0  0  0  0  0  0
  142.8913   77.8143  217.8785 H   0  0  0  0  0  0  0  0  0  0  0  0
  144.7118   76.4031  218.8392 H   0  0  0  0  0  0  0  0  0  0  0  0
  144.1703   74.6228  220.5018 H   0  0  0  0  0  0  0  0  0  0  0  0
  141.8083   74.2490  221.2105 H   0  0  0  0  0  0  0  0  0  0  0  0
  138.3553   75.3446  218.7491 H   0  0  0  0  0  0  0  0  0  0  0  0
  137.0782   74.9693  220.9012 H   0  0  0  0  0  0  0  0  0  0  0  0
  136.8979   73.6177  219.7101 H   0  0  0  0  0  0  0  0  0  0  0  0
  138.7569   73.6524  222.1415 H   0  0  0  0  0  0  0  0  0  0  0  0
  137.2159   72.7216  221.9684 H   0  0  0  0  0  0  0  0  0  0  0  0
  138.1660   71.5510  220.1310 H   0  0  0  0  0  0  0  0  0  0  0  0
  141.0292   70.6105  222.9283 H   0  0  0  0  0  0  0  0  0  0  0  0
  140.3710   73.0720  222.0720 H   0  0  0  0  0  0  0  0  0  0  0  0
  139.9060   73.1520  223.6710 H   0  0  0  0  0  0  0  0  0  0  0  0
  138.3389   71.2795  224.0848 H   0  0  0  0  0  0  0  0  0  0  0  0
  138.1765   68.9848  224.4737 H   0  0  0  0  0  0  0  0  0  0  0  0
  139.6934   68.7433  223.6167 H   0  0  0  0  0  0  0  0  0  0  0  0
  139.7671   66.8844  225.8567 H   0  0  0  0  0  0  0  0  0  0  0  0
  140.9301   66.7966  228.0806 H   0  0  0  0  0  0  0  0  0  0  0  0
  141.6771   68.9137  229.1888 H   0  0  0  0  0  0  0  0  0  0  0  0
  141.2644   71.1274  228.0734 H   0  0  0  0  0  0  0  0  0  0  0  0
  139.2254   72.0430  226.0907 H   0  0  0  0  0  0  0  0  0  0  0  0
  140.8280   72.0510  225.3649 H   0  0  0  0  0  0  0  0  0  0  0  0
  140.6655   73.0500  220.7298 H   0  0  0  0  0  0  0  0  0  0  0  0
  140.4903   71.6817  219.5607 H   0  0  0  0  0  0  0  0  0  0  0  0
  140.4213   73.8938  218.4155 H   0  0  0  0  0  0  0  0  0  0  0  0
  138.8680   72.9830  218.2486 H   0  0  0  0  0  0  0  0  0  0  0  0
  1  2  1  0
  2  3  2  0
  3  4  1  0
  3  5  1  0
  5  6  1  0
  6  7  2  0
  7  8  1  0
  8  9  2  0
  9 10  1  0
 10 11  2  0
  5 12  1  0
 12 13  1  0
 13 14  1  0
 14 15  1  0
 15 16  1  0
 16 17  2  0
 16 18  1  0
 18 19  1  0
 18 20  1  0
 20 21  1  0
 21 22  1  0
 22 23  2  0
 23 24  1  0
 24 25  2  0
 25 26  1  0
 26 27  2  0
 27 28  1  0
 15 29  1  0
 29 30  1  0
 11  6  1  0
 30 12  1  0
 28 20  1  0
 27 22  1  0
  1 31  1  0
  1 32  1  0
  1 33  1  0
  2 34  1  0
  4 35  1  0
  7 36  1  0
  8 37  1  0
  9 38  1  0
 10 39  1  0
 11 40  1  0
 12 41  1  1
 13 42  1  0
 13 43  1  0
 14 44  1  0
 14 45  1  0
 15 46  1  1
 18 47  1  6
 19 48  1  0
 19 49  1  0
 20 50  1  0
 21 51  1  0
 21 52  1  0
 23 53  1  0
 24 54  1  0
 25 55  1  0
 26 56  1  0
 28 57  1  0
 28 58  1  0
 29 59  1  0
 29 60  1  0
 30 61  1  0
 30 62  1  0
M  CHG  1  15   1
M  END
>  <meeko>  (7) 
{"free_energy": -6.89, "intermolecular_energy": -9.58, "internal_energy": -2.94, "cluster_size": 2, "cluster_id": 5, "rank_in_cluster": 2}

$$$$

     RDKit          3D

 62 65  0  0  0  0  0  0  0  0999 V2000
  146.2790   73.5420  221.6320 C   0  0  0  0  0  0  0  0  0  0  0  0
  145.9010   72.6500  220.4900 C   0  0  0  0  0  0  0  0  0  0  0  0
  145.4340   73.1140  219.3170 C   0  0  0  0  0  0  0  0  0  0  0  0
  146.2780   73.3370  218.2240 O   0  0  0  0  0  0  0  0  0  0  0  0
  144.0250   73.3590  219.1520 N   0  0  0  0  0  0  0  0  0  0  0  0
  143.6770   74.7010  218.7660 C   0  0  0  0  0  0  0  0  0  0  0  0
  143.6810   75.0750  217.4120 C   0  0  0  0  0  0  0  0  0  0  0  0
  143.3550   76.3840  217.0430 C   0  0  0  0  0  0  0  0  0  0  0  0
  143.0400   77.3280  218.0250 C   0  0  0  0  0  0  0  0  0  0  0  0
  143.0470   76.9660  219.3740 C   0  0  0  0  0  0  0  0  0  0  0  0
  143.3660   75.6580  219.7460 C   0  0  0  0  0  0  0  0  0  0  0  0
  143.0680   72.2340  218.9700 C   0  0  2  0  0  0  0  0  0  0  0  0
  141.7210   72.6900  218.3550 C   0  0  0  0  0  0  0  0  0  0  0  0
  140.9180   73.5510  219.3420 C   0  0  0  0  0  0  0  0  0  0  0  0
  140.6590   72.8170  220.6010 N   0  0  2  0  0  0  0  0  0  0  0  0
  139.8370   73.5400  221.5700 C   0  0  0  0  0  0  0  0  0  0  0  0
  139.8530   73.1620  222.7340 O   0  0  0  0  0  0  0  0  0  0  0  0
  138.9720   74.7580  221.2370 C   0  0  1  0  0  0  0  0  0  0  0  0
  138.0760   75.0520  222.3640 N   0  0  0  0  0  0  0  0  0  0  0  0
  139.8730   75.9790  220.8990 C   0  0  0  0  0  0  0  0  0  0  0  0
  139.0790   77.3140  220.8530 C   0  0  0  0  0  0  0  0  0  0  0  0
  139.7140   78.1500  221.9000 C   0  0  0  0  0  0  0  0  0  0  0  0
  139.3310   79.4370  222.2860 C   0  0  0  0  0  0  0  0  0  0  0  0
  140.0570   80.0820  223.2990 C   0  0  0  0  0  0  0  0  0  0  0  0
  141.1530   79.4390  223.9020 C   0  0  0  0  0  0  0  0  0  0  0  0
  141.5270   78.1510  223.4920 C   0  0  0  0  0  0  0  0  0  0  0  0
  140.7920   77.5280  222.4800 C   0  0  0  0  0  0  0  0  0  0  0  0
  141.0380   76.1850  221.9090 C   0  0  0  0  0  0  0  0  0  0  0  0
  141.9320   72.4180  221.2400 C   0  0  0  0  0  0  0  0  0  0  0  0
  142.7610   71.5180  220.3060 C   0  0  0  0  0  0  0  0  0  0  0  0
  146.0630   73.0322  222.5825 H   0  0  0  0  0  0  0  0  0  0  0  0
  147.3528   73.7740  221.5762 H   0  0  0  0  0  0  0  0  0  0  0  0
  145.6989   74.4749  221.5762 H   0  0  0  0  0  0  0  0  0  0  0  0
  146.0105   71.5628  220.6166 H   0  0  0  0  0  0  0  0  0  0  0  0
  146.4270   74.2500  217.8120 H   0  0  0  0  0  0  0  0  0  0  0  0
  143.9413   74.3362  216.6397 H   0  0  0  0  0  0  0  0  0  0  0  0
  143.3464   76.6706  215.9810 H   0  0  0  0  0  0  0  0  0  0  0  0
  142.7861   78.3581  217.7346 H   0  0  0  0  0  0  0  0  0  0  0  0
  142.8010   77.7118  220.1443 H   0  0  0  0  0  0  0  0  0  0  0  0
  143.3737   75.3766  220.8094 H   0  0  0  0  0  0  0  0  0  0  0  0
  143.5682   71.5424  218.2761 H   0  0  0  0  0  0  0  0  0  0  0  0
  141.9226   73.2789  217.4480 H   0  0  0  0  0  0  0  0  0  0  0  0
  141.1289   71.7946  218.1149 H   0  0  0  0  0  0  0  0  0  0  0  0
  141.4884   74.4637  219.5691 H   0  0  0  0  0  0  0  0  0  0  0  0
  139.9523   73.8036  218.8798 H   0  0  0  0  0  0  0  0  0  0  0  0
  140.1250   71.9480  220.3560 H   0  0  0  0  0  0  0  0  0  0  0  0
  138.3553   74.5394  220.3527 H   0  0  0  0  0  0  0  0  0  0  0  0
  137.7720   74.1520  222.8000 H   0  0  0  0  0  0  0  0  0  0  0  0
  138.6250   75.5530  223.0980 H   0  0  0  0  0  0  0  0  0  0  0  0
  140.2782   75.7345  219.9060 H   0  0  0  0  0  0  0  0  0  0  0  0
  139.1711   77.7890  219.8651 H   0  0  0  0  0  0  0  0  0  0  0  0
  138.0019   77.1702  221.0239 H   0  0  0  0  0  0  0  0  0  0  0  0
  138.4764   79.9353  221.8049 H   0  0  0  0  0  0  0  0  0  0  0  0
  139.7682   81.0930  223.6223 H   0  0  0  0  0  0  0  0  0  0  0  0
  141.7181   79.9475  224.6970 H   0  0  0  0  0  0  0  0  0  0  0  0
  142.3828   77.6409  223.9583 H   0  0  0  0  0  0  0  0  0  0  0  0
  142.0100   76.1519  221.3951 H   0  0  0  0  0  0  0  0  0  0  0  0
  141.0712   75.4000  222.6789 H   0  0  0  0  0  0  0  0  0  0  0  0
  142.5132   73.3210  221.4783 H   0  0  0  0  0  0  0  0  0  0  0  0
  141.7021   71.8542  222.1561 H   0  0  0  0  0  0  0  0  0  0  0  0
  143.7087   71.2617  220.8022 H   0  0  0  0  0  0  0  0  0  0  0  0
  142.1795   70.6097  220.0897 H   0  0  0  0  0  0  0  0  0  0  0  0
  1  2  1  0
  2  3  2  0
  3  4  1  0
  3  5  1  0
  5  6  1  0
  6  7  2  0
  7  8  1  0
  8  9  2  0
  9 10  1  0
 10 11  2  0
  5 12  1  0
 12 13  1  0
 13 14  1  0
 14 15  1  0
 15 16  1  0
 16 17  2  0
 16 18  1  0
 18 19  1  0
 18 20  1  0
 20 21  1  0
 21 22  1  0
 22 23  2  0
 23 24  1  0
 24 25  2  0
 25 26  1  0
 26 27  2  0
 27 28  1  0
 15 29  1  0
 29 30  1  0
 11  6  1  0
 30 12  1  0
 28 20  1  0
 27 22  1  0
  1 31  1  0
  1 32  1  0
  1 33  1  0
  2 34  1  0
  4 35  1  0
  7 36  1  0
  8 37  1  0
  9 38  1  0
 10 39  1  0
 11 40  1  0
 12 41  1  1
 13 42  1  0
 13 43  1  0
 14 44  1  0
 14 45  1  0
 15 46  1  1
 18 47  1  6
 19 48  1  0
 19 49  1  0
 20 50  1  0
 21 51  1  0
 21 52  1  0
 23 53  1  0
 24 54  1  0
 25 55  1  0
 26 56  1  0
 28 57  1  0
 28 58  1  0
 29 59  1  0
 29 60  1  0
 30 61  1  0
 30 62  1  0
M  CHG  1  15   1
M  END
>  <meeko>  (8) 
{"free_energy": -7.65, "intermolecular_energy": -10.34, "internal_energy": -2.67, "cluster_size": 7, "cluster_id": 1, "rank_in_cluster": 5}

$$$$

     RDKit          3D

 62 65  0  0  0  0  0  0  0  0999 V2000
  142.2440   77.4540  218.3330 C   0  0  0  0  0  0  0  0  0  0  0  0
  142.7920   76.7270  219.5220 C   0  0  0  0  0  0  0  0  0  0  0  0
  142.0140   76.1840  220.4750 C   0  0  0  0  0  0  0  0  0  0  0  0
  142.2530   74.9010  220.9780 O   0  0  0  0  0  0  0  0  0  0  0  0
  140.9240   76.9420  221.0300 N   0  0  0  0  0  0  0  0  0  0  0  0
  141.3070   78.1080  221.7820 C   0  0  0  0  0  0  0  0  0  0  0  0
  141.5890   79.3170  221.1230 C   0  0  0  0  0  0  0  0  0  0  0  0
  141.9750   80.4430  221.8570 C   0  0  0  0  0  0  0  0  0  0  0  0
  142.0970   80.3630  223.2470 C   0  0  0  0  0  0  0  0  0  0  0  0
  141.8310   79.1600  223.9060 C   0  0  0  0  0  0  0  0  0  0  0  0
  141.4390   78.0340  223.1780 C   0  0  0  0  0  0  0  0  0  0  0  0
  139.5380   76.7840  220.5120 C   0  0  2  0  0  0  0  0  0  0  0  0
  138.5200   76.4370  221.6260 C   0  0  0  0  0  0  0  0  0  0  0  0
  138.7510   75.0200  222.1730 C   0  0  0  0  0  0  0  0  0  0  0  0
  138.6600   74.0100  221.0940 N   0  0  2  0  0  0  0  0  0  0  0  0
  138.7960   72.6260  221.5410 C   0  0  0  0  0  0  0  0  0  0  0  0
  137.9210   71.8300  221.2270 O   0  0  0  0  0  0  0  0  0  0  0  0
  139.9740   72.0900  222.3590 C   0  0  1  0  0  0  0  0  0  0  0  0
  141.0720   73.0670  222.3470 N   0  0  0  0  0  0  0  0  0  0  0  0
  139.5180   71.7720  223.8110 C   0  0  0  0  0  0  0  0  0  0  0  0
  138.6530   70.4840  223.8980 C   0  0  0  0  0  0  0  0  0  0  0  0
  139.4220   69.5910  224.7970 C   0  0  0  0  0  0  0  0  0  0  0  0
  139.0880   68.2830  225.1600 C   0  0  0  0  0  0  0  0  0  0  0  0
  139.9390   67.5860  226.0310 C   0  0  0  0  0  0  0  0  0  0  0  0
  141.1000   68.2030  226.5300 C   0  0  0  0  0  0  0  0  0  0  0  0
  141.4120   69.5200  226.1600 C   0  0  0  0  0  0  0  0  0  0  0  0
  140.5500   70.1970  225.2930 C   0  0  0  0  0  0  0  0  0  0  0  0
  140.7020   71.5840  224.8020 C   0  0  0  0  0  0  0  0  0  0  0  0
  139.6620   74.2860  220.0410 C   0  0  0  0  0  0  0  0  0  0  0  0
  139.4510   75.6830  219.4290 C   0  0  0  0  0  0  0  0  0  0  0  0
  141.6142   78.2896  218.6724 H   0  0  0  0  0  0  0  0  0  0  0  0
  143.0749   77.8439  217.7266 H   0  0  0  0  0  0  0  0  0  0  0  0
  141.6404   76.7626  217.7266 H   0  0  0  0  0  0  0  0  0  0  0  0
  143.8835   76.6326  219.6206 H   0  0  0  0  0  0  0  0  0  0  0  0
  142.4590   74.7130  221.9520 H   0  0  0  0  0  0  0  0  0  0  0  0
  141.5059   79.3776  220.0278 H   0  0  0  0  0  0  0  0  0  0  0  0
  142.1826   81.3917  221.3404 H   0  0  0  0  0  0  0  0  0  0  0  0
  142.4030   81.2487  223.8232 H   0  0  0  0  0  0  0  0  0  0  0  0
  141.9304   79.0995  224.9998 H   0  0  0  0  0  0  0  0  0  0  0  0
  141.2333   77.0875  223.6994 H   0  0  0  0  0  0  0  0  0  0  0  0
  139.2813   77.7620  220.0789 H   0  0  0  0  0  0  0  0  0  0  0  0
  138.6281   77.1602  222.4478 H   0  0  0  0  0  0  0  0  0  0  0  0
  137.5080   76.4826  221.1974 H   0  0  0  0  0  0  0  0  0  0  0  0
  139.7509   74.9695  222.6288 H   0  0  0  0  0  0  0  0  0  0  0  0
  137.9737   74.8033  222.9205 H   0  0  0  0  0  0  0  0  0  0  0  0
  137.7030   74.0870  220.6690 H   0  0  0  0  0  0  0  0  0  0  0  0
  140.3381   71.1554  221.9075 H   0  0  0  0  0  0  0  0  0  0  0  0
  141.6850   72.8790  221.5220 H   0  0  0  0  0  0  0  0  0  0  0  0
  140.6650   74.0170  222.1890 H   0  0  0  0  0  0  0  0  0  0  0  0
  138.9279   72.6553  224.0964 H   0  0  0  0  0  0  0  0  0  0  0  0
  137.6629   70.7067  224.3225 H   0  0  0  0  0  0  0  0  0  0  0  0
  138.4683   70.0325  222.9121 H   0  0  0  0  0  0  0  0  0  0  0  0
  138.1751   67.8091  224.7701 H   0  0  0  0  0  0  0  0  0  0  0  0
  139.6973   66.5538  226.3244 H   0  0  0  0  0  0  0  0  0  0  0  0
  141.7648   67.6521  227.2116 H   0  0  0  0  0  0  0  0  0  0  0  0
  142.3182   70.0104  226.5452 H   0  0  0  0  0  0  0  0  0  0  0  0
  140.6325   72.3015  225.6329 H   0  0  0  0  0  0  0  0  0  0  0  0
  141.6791   71.7575  224.3275 H   0  0  0  0  0  0  0  0  0  0  0  0
  140.6690   74.2346  220.4807 H   0  0  0  0  0  0  0  0  0  0  0  0
  139.5493   73.5349  219.2453 H   0  0  0  0  0  0  0  0  0  0  0  0
  140.2264   75.8636  218.6699 H   0  0  0  0  0  0  0  0  0  0  0  0
  138.4498   75.7180  218.9747 H   0  0  0  0  0  0  0  0  0  0  0  0
  1  2  1  0
  2  3  2  0
  3  4  1  0
  3  5  1  0
  5  6  1  0
  6  7  2  0
  7  8  1  0
  8  9  2  0
  9 10  1  0
 10 11  2  0
  5 12  1  0
 12 13  1  0
 13 14  1  0
 14 15  1  0
 15 16  1  0
 16 17  2  0
 16 18  1  0
 18 19  1  0
 18 20  1  0
 20 21  1  0
 21 22  1  0
 22 23  2  0
 23 24  1  0
 24 25  2  0
 25 26  1  0
 26 27  2  0
 27 28  1  0
 15 29  1  0
 29 30  1  0
 11  6  1  0
 30 12  1  0
 28 20  1  0
 27 22  1  0
  1 31  1  0
  1 32  1  0
  1 33  1  0
  2 34  1  0
  4 35  1  0
  7 36  1  0
  8 37  1  0
  9 38  1  0
 10 39  1  0
 11 40  1  0
 12 41  1  1
 13 42  1  0
 13 43  1  0
 14 44  1  0
 14 45  1  0
 15 46  1  1
 18 47  1  6
 19 48  1  0
 19 49  1  0
 20 50  1  0
 21 51  1  0
 21 52  1  0
 23 53  1  0
 24 54  1  0
 25 55  1  0
 26 56  1  0
 28 57  1  0
 28 58  1  0
 29 59  1  0
 29 60  1  0
 30 61  1  0
 30 62  1  0
M  CHG  1  15   1
M  END
>  <meeko>  (9) 
{"free_energy": -6.67, "intermolecular_energy": -9.35, "internal_energy": -3.06, "cluster_size": 2, "cluster_id": 6, "rank_in_cluster": 1}

$$$$

     RDKit          3D

 62 65  0  0  0  0  0  0  0  0999 V2000
  145.1380   72.6740  220.4060 C   0  0  0  0  0  0  0  0  0  0  0  0
  145.0630   74.1640  220.5390 C   0  0  0  0  0  0  0  0  0  0  0  0
  144.0300   74.8930  220.0800 C   0  0  0  0  0  0  0  0  0  0  0  0
  144.0580   76.2910  220.0770 O   0  0  0  0  0  0  0  0  0  0  0  0
  142.8700   74.2330  219.5400 N   0  0  0  0  0  0  0  0  0  0  0  0
  141.7720   74.0740  220.4560 C   0  0  0  0  0  0  0  0  0  0  0  0
  141.2590   72.7960  220.7350 C   0  0  0  0  0  0  0  0  0  0  0  0
  140.1830   72.6490  221.6160 C   0  0  0  0  0  0  0  0  0  0  0  0
  139.6050   73.7760  222.2090 C   0  0  0  0  0  0  0  0  0  0  0  0
  140.1030   75.0500  221.9250 C   0  0  0  0  0  0  0  0  0  0  0  0
  141.1820   75.2010  221.0510 C   0  0  0  0  0  0  0  0  0  0  0  0
  142.6660   74.1230  218.0700 C   0  0  2  0  0  0  0  0  0  0  0  0
  143.7540   74.8700  217.2590 C   0  0  0  0  0  0  0  0  0  0  0  0
  143.6250   76.3930  217.4210 C   0  0  0  0  0  0  0  0  0  0  0  0
  142.2870   76.8640  216.9970 N   0  0  2  0  0  0  0  0  0  0  0  0
  142.1050   78.3120  217.0520 C   0  0  0  0  0  0  0  0  0  0  0  0
  141.5030   78.8530  216.1330 O   0  0  0  0  0  0  0  0  0  0  0  0
  142.5930   79.2060  218.1950 C   0  0  1  0  0  0  0  0  0  0  0  0
  143.1060   80.4710  217.6510 N   0  0  0  0  0  0  0  0  0  0  0  0
  141.4430   79.4540  219.2110 C   0  0  0  0  0  0  0  0  0  0  0  0
  141.2730   78.2860  220.2210 C   0  0  0  0  0  0  0  0  0  0  0  0
  141.5000   78.9150  221.5440 C   0  0  0  0  0  0  0  0  0  0  0  0
  141.5040   78.2710  222.7840 C   0  0  0  0  0  0  0  0  0  0  0  0
  141.7330   79.0330  223.9400 C   0  0  0  0  0  0  0  0  0  0  0  0
  141.9460   80.4200  223.8420 C   0  0  0  0  0  0  0  0  0  0  0  0
  141.9290   81.0480  222.5870 C   0  0  0  0  0  0  0  0  0  0  0  0
  141.6970   80.2700  221.4490 C   0  0  0  0  0  0  0  0  0  0  0  0
  141.6300   80.7500  220.0510 C   0  0  0  0  0  0  0  0  0  0  0  0
  141.2300   76.2060  217.7960 C   0  0  0  0  0  0  0  0  0  0  0  0
  141.2870   74.6760  217.6380 C   0  0  0  0  0  0  0  0  0  0  0  0
  145.1610   72.2173  221.4064 H   0  0  0  0  0  0  0  0  0  0  0  0
  144.2570   72.3101  219.8570 H   0  0  0  0  0  0  0  0  0  0  0  0
  146.0511   72.4004  219.8570 H   0  0  0  0  0  0  0  0  0  0  0  0
  145.8930   74.6875  221.0361 H   0  0  0  0  0  0  0  0  0  0  0  0
  144.4430   76.8420  220.8350 H   0  0  0  0  0  0  0  0  0  0  0  0
  141.7045   71.9097  220.2596 H   0  0  0  0  0  0  0  0  0  0  0  0
  139.7911   71.6465  221.8427 H   0  0  0  0  0  0  0  0  0  0  0  0
  138.7571   73.6592  222.9000 H   0  0  0  0  0  0  0  0  0  0  0  0
  139.6448   75.9352  222.3902 H   0  0  0  0  0  0  0  0  0  0  0  0
  141.5708   76.2056  220.8281 H   0  0  0  0  0  0  0  0  0  0  0  0
  142.7270   73.0466  217.8520 H   0  0  0  0  0  0  0  0  0  0  0  0
  144.7459   74.5546  217.6150 H   0  0  0  0  0  0  0  0  0  0  0  0
  143.6251   74.6221  216.1951 H   0  0  0  0  0  0  0  0  0  0  0  0
  143.7799   76.6560  218.4778 H   0  0  0  0  0  0  0  0  0  0  0  0
  144.3823   76.8766  216.7865 H   0  0  0  0  0  0  0  0  0  0  0  0
  142.1600   76.5910  215.9920 H   0  0  0  0  0  0  0  0  0  0  0  0
  143.4118   78.7023  218.7296 H   0  0  0  0  0  0  0  0  0  0  0  0
  144.1420   80.5040  217.7870 H   0  0  0  0  0  0  0  0  0  0  0  0
  142.9550   80.4700  216.6170 H   0  0  0  0  0  0  0  0  0  0  0  0
  140.5513   79.5471  218.5736 H   0  0  0  0  0  0  0  0  0  0  0  0
  140.2603   77.8610  220.1594 H   0  0  0  0  0  0  0  0  0  0  0  0
  141.9658   77.4545  220.0248 H   0  0  0  0  0  0  0  0  0  0  0  0
  141.3309   77.1869  222.8528 H   0  0  0  0  0  0  0  0  0  0  0  0
  141.7460   78.5443  224.9254 H   0  0  0  0  0  0  0  0  0  0  0  0
  142.1262   81.0134  224.7505 H   0  0  0  0  0  0  0  0  0  0  0  0
  142.0951   82.1319  222.5005 H   0  0  0  0  0  0  0  0  0  0  0  0
  140.7772   81.4309  219.9128 H   0  0  0  0  0  0  0  0  0  0  0  0
  142.5255   81.3171  219.7569 H   0  0  0  0  0  0  0  0  0  0  0  0
  141.3689   76.4630  218.8565 H   0  0  0  0  0  0  0  0  0  0  0  0
  140.2513   76.5579  217.4377 H   0  0  0  0  0  0  0  0  0  0  0  0
  140.5052   74.2207  218.2637 H   0  0  0  0  0  0  0  0  0  0  0  0
  141.1271   74.4277  216.5784 H   0  0  0  0  0  0  0  0  0  0  0  0
  1  2  1  0
  2  3  2  0
  3  4  1  0
  3  5  1  0
  5  6  1  0
  6  7  2  0
  7  8  1  0
  8  9  2  0
  9 10  1  0
 10 11  2  0
  5 12  1  0
 12 13  1  0
 13 14  1  0
 14 15  1  0
 15 16  1  0
 16 17  2  0
 16 18  1  0
 18 19  1  0
 18 20  1  0
 20 21  1  0
 21 22  1  0
 22 23  2  0
 23 24  1  0
 24 25  2  0
 25 26  1  0
 26 27  2  0
 27 28  1  0
 15 29  1  0
 29 30  1  0
 11  6  1  0
 30 12  1  0
 28 20  1  0
 27 22  1  0
  1 31  1  0
  1 32  1  0
  1 33  1  0
  2 34  1  0
  4 35  1  0
  7 36  1  0
  8 37  1  0
  9 38  1  0
 10 39  1  0
 11 40  1  0
 12 41  1  1
 13 42  1  0
 13 43  1  0
 14 44  1  0
 14 45  1  0
 15 46  1  1
 18 47  1  1
 19 48  1  0
 19 49  1  0
 20 50  1  0
 21 51  1  0
 21 52  1  0
 23 53  1  0
 24 54  1  0
 25 55  1  0
 26 56  1  0
 28 57  1  0
 28 58  1  0
 29 59  1  0
 29 60  1  0
 30 61  1  0
 30 62  1  0
M  CHG  1  15   1
M  END
>  <meeko>  (10) 
{"free_energy": -6.99, "intermolecular_energy": -9.67, "internal_energy": -2.8, "cluster_size": 1, "cluster_id": 4, "rank_in_cluster": 1}

$$$$

     RDKit          3D

 62 65  0  0  0  0  0  0  0  0999 V2000
  143.3220   82.0660  217.4160 C   0  0  0  0  0  0  0  0  0  0  0  0
  142.2020   81.5760  218.2810 C   0  0  0  0  0  0  0  0  0  0  0  0
  142.1050   80.3050  218.7110 C   0  0  0  0  0  0  0  0  0  0  0  0
  142.9530   79.3000  218.2350 O   0  0  0  0  0  0  0  0  0  0  0  0
  141.1340   79.9590  219.7160 N   0  0  0  0  0  0  0  0  0  0  0  0
  141.5680   80.1380  221.0760 C   0  0  0  0  0  0  0  0  0  0  0  0
  141.4730   81.3970  221.6920 C   0  0  0  0  0  0  0  0  0  0  0  0
  141.9100   81.5690  223.0100 C   0  0  0  0  0  0  0  0  0  0  0  0
  142.4550   80.4900  223.7110 C   0  0  0  0  0  0  0  0  0  0  0  0
  142.5630   79.2380  223.1000 C   0  0  0  0  0  0  0  0  0  0  0  0
  142.1230   79.0610  221.7860 C   0  0  0  0  0  0  0  0  0  0  0  0
  139.6890   79.8480  219.3780 C   0  0  2  0  0  0  0  0  0  0  0  0
  138.7980   79.6490  220.6290 C   0  0  0  0  0  0  0  0  0  0  0  0
  139.0190   78.2640  221.2590 C   0  0  0  0  0  0  0  0  0  0  0  0
  138.7440   77.1850  220.2840 N   0  0  2  0  0  0  0  0  0  0  0  0
  138.8620   75.8320  220.8240 C   0  0  0  0  0  0  0  0  0  0  0  0
  137.8770   75.1070  220.7810 O   0  0  0  0  0  0  0  0  0  0  0  0
  140.1430   75.2440  221.4200 C   0  0  1  0  0  0  0  0  0  0  0  0
  139.8060   74.1370  222.3250 N   0  0  0  0  0  0  0  0  0  0  0  0
  141.0960   74.7730  220.2850 C   0  0  0  0  0  0  0  0  0  0  0  0
  142.3770   75.6470  220.1780 C   0  0  0  0  0  0  0  0  0  0  0  0
  143.4870   74.6930  220.4140 C   0  0  0  0  0  0  0  0  0  0  0  0
  144.8500   74.9960  220.4670 C   0  0  0  0  0  0  0  0  0  0  0  0
  145.7640   73.9570  220.6970 C   0  0  0  0  0  0  0  0  0  0  0  0
  145.3070   72.6370  220.8610 C   0  0  0  0  0  0  0  0  0  0  0  0
  143.9350   72.3530  220.7940 C   0  0  0  0  0  0  0  0  0  0  0  0
  143.0420   73.4030  220.5620 C   0  0  0  0  0  0  0  0  0  0  0  0
  141.5710   73.3010  220.4480 C   0  0  0  0  0  0  0  0  0  0  0  0
  139.6240   77.3190  219.1020 C   0  0  0  0  0  0  0  0  0  0  0  0
  139.4130   78.6760  218.4070 C   0  0  0  0  0  0  0  0  0  0  0  0
  144.1450   82.4261  218.0508 H   0  0  0  0  0  0  0  0  0  0  0  0
  143.6818   81.2431  216.7809 H   0  0  0  0  0  0  0  0  0  0  0  0
  142.9618   82.8888  216.7809 H   0  0  0  0  0  0  0  0  0  0  0  0
  141.4204   82.2903  218.5793 H   0  0  0  0  0  0  0  0  0  0  0  0
  143.6290   79.4450  217.4960 H   0  0  0  0  0  0  0  0  0  0  0  0
  141.0542   82.2494  221.1370 H   0  0  0  0  0  0  0  0  0  0  0  0
  141.8246   82.5531  223.4941 H   0  0  0  0  0  0  0  0  0  0  0  0
  142.7999   80.6266  224.7466 H   0  0  0  0  0  0  0  0  0  0  0  0
  142.9947   78.3914  223.6539 H   0  0  0  0  0  0  0  0  0  0  0  0
  142.2115   78.0752  221.3061 H   0  0  0  0  0  0  0  0  0  0  0  0
  139.4330   80.8042  218.8983 H   0  0  0  0  0  0  0  0  0  0  0  0
  139.0440   80.4232  221.3707 H   0  0  0  0  0  0  0  0  0  0  0  0
  137.7450   79.7255  220.3204 H   0  0  0  0  0  0  0  0  0  0  0  0
  140.0629   78.1854  221.5968 H   0  0  0  0  0  0  0  0  0  0  0  0
  138.3284   78.1521  222.1079 H   0  0  0  0  0  0  0  0  0  0  0  0
  137.7490   77.2890  219.9700 H   0  0  0  0  0  0  0  0  0  0  0  0
  140.6658   76.0187  222.0000 H   0  0  0  0  0  0  0  0  0  0  0  0
  139.4650   74.5310  223.2310 H   0  0  0  0  0  0  0  0  0  0  0  0
  138.9970   73.6150  221.9190 H   0  0  0  0  0  0  0  0  0  0  0  0
  140.4832   74.8694  219.3766 H   0  0  0  0  0  0  0  0  0  0  0  0
  142.4578   76.1006  219.1791 H   0  0  0  0  0  0  0  0  0  0  0  0
  142.3790   76.4822  220.8938 H   0  0  0  0  0  0  0  0  0  0  0  0
  145.1998   76.0300  220.3309 H   0  0  0  0  0  0  0  0  0  0  0  0
  146.8409   74.1752  220.7492 H   0  0  0  0  0  0  0  0  0  0  0  0
  146.0272   71.8255  221.0422 H   0  0  0  0  0  0  0  0  0  0  0  0
  143.5688   71.3236  220.9216 H   0  0  0  0  0  0  0  0  0  0  0  0
  141.2887   72.7009  219.5704 H   0  0  0  0  0  0  0  0  0  0  0  0
  141.1151   72.8058  221.3180 H   0  0  0  0  0  0  0  0  0  0  0  0
  140.6729   77.2391  219.4237 H   0  0  0  0  0  0  0  0  0  0  0  0
  139.3770   76.5185  218.3892 H   0  0  0  0  0  0  0  0  0  0  0  0
  140.0981   78.7509  217.5496 H   0  0  0  0  0  0  0  0  0  0  0  0
  138.3669   78.7383  218.0727 H   0  0  0  0  0  0  0  0  0  0  0  0
  1  2  1  0
  2  3  2  0
  3  4  1  0
  3  5  1  0
  5  6  1  0
  6  7  2  0
  7  8  1  0
  8  9  2  0
  9 10  1  0
 10 11  2  0
  5 12  1  0
 12 13  1  0
 13 14  1  0
 14 15  1  0
 15 16  1  0
 16 17  2  0
 16 18  1  0
 18 19  1  0
 18 20  1  0
 20 21  1  0
 21 22  1  0
 22 23  2  0
 23 24  1  0
 24 25  2  0
 25 26  1  0
 26 27  2  0
 27 28  1  0
 15 29  1  0
 29 30  1  0
 11  6  1  0
 30 12  1  0
 28 20  1  0
 27 22  1  0
  1 31  1  0
  1 32  1  0
  1 33  1  0
  2 34  1  0
  4 35  1  0
  7 36  1  0
  8 37  1  0
  9 38  1  0
 10 39  1  0
 11 40  1  0
 12 41  1  1
 13 42  1  0
 13 43  1  0
 14 44  1  0
 14 45  1  0
 15 46  1  1
 18 47  1  1
 19 48  1  0
 19 49  1  0
 20 50  1  0
 21 51  1  0
 21 52  1  0
 23 53  1  0
 24 54  1  0
 25 55  1  0
 26 56  1  0
 28 57  1  0
 28 58  1  0
 29 59  1  0
 29 60  1  0
 30 61  1  0
 30 62  1  0
M  CHG  1  15   1
M  END
>  <meeko>  (11) 
{"free_energy": -7.22, "intermolecular_energy": -9.91, "internal_energy": -2.48, "cluster_size": 1, "cluster_id": 3, "rank_in_cluster": 1}

$$$$

     RDKit          3D

 62 65  0  0  0  0  0  0  0  0999 V2000
  140.4440   72.2880  222.3550 C   0  0  0  0  0  0  0  0  0  0  0  0
  140.2550   73.2460  221.2190 C   0  0  0  0  0  0  0  0  0  0  0  0
  141.0850   74.2770  220.9800 C   0  0  0  0  0  0  0  0  0  0  0  0
  141.1420   75.3880  221.8270 O   0  0  0  0  0  0  0  0  0  0  0  0
  141.9710   74.2380  219.8460 N   0  0  0  0  0  0  0  0  0  0  0  0
  143.3300   73.8680  220.1420 C   0  0  0  0  0  0  0  0  0  0  0  0
  143.7130   72.5160  220.1510 C   0  0  0  0  0  0  0  0  0  0  0  0
  145.0310   72.1610  220.4530 C   0  0  0  0  0  0  0  0  0  0  0  0
  145.9670   73.1520  220.7640 C   0  0  0  0  0  0  0  0  0  0  0  0
  145.5890   74.4970  220.7700 C   0  0  0  0  0  0  0  0  0  0  0  0
  144.2750   74.8560  220.4630 C   0  0  0  0  0  0  0  0  0  0  0  0
  141.4380   74.1580  218.4590 C   0  0  2  0  0  0  0  0  0  0  0  0
  142.4950   74.5340  217.3910 C   0  0  0  0  0  0  0  0  0  0  0  0
  142.8370   76.0320  217.4470 C   0  0  0  0  0  0  0  0  0  0  0  0
  141.6270   76.8620  217.2540 N   0  0  2  0  0  0  0  0  0  0  0  0
  141.8750   78.3020  217.2220 C   0  0  0  0  0  0  0  0  0  0  0  0
  141.5340   78.9230  216.2240 O   0  0  0  0  0  0  0  0  0  0  0  0
  142.5130   79.0990  218.3620 C   0  0  1  0  0  0  0  0  0  0  0  0
  143.1410   80.3150  217.8270 N   0  0  0  0  0  0  0  0  0  0  0  0
  141.4450   79.4430  219.4390 C   0  0  0  0  0  0  0  0  0  0  0  0
  141.3830   78.3890  220.5790 C   0  0  0  0  0  0  0  0  0  0  0  0
  141.7050   79.1600  221.8030 C   0  0  0  0  0  0  0  0  0  0  0  0
  141.8240   78.6540  223.1010 C   0  0  0  0  0  0  0  0  0  0  0  0
  142.1320   79.5390  224.1450 C   0  0  0  0  0  0  0  0  0  0  0  0
  142.3090   80.9090  223.8810 C   0  0  0  0  0  0  0  0  0  0  0  0
  142.1760   81.3980  222.5730 C   0  0  0  0  0  0  0  0  0  0  0  0
  141.8660   80.4990  221.5480 C   0  0  0  0  0  0  0  0  0  0  0  0
  141.6750   80.8240  220.1170 C   0  0  0  0  0  0  0  0  0  0  0  0
  140.6210   76.5620  218.2970 C   0  0  0  0  0  0  0  0  0  0  0  0
  140.2120   75.0790  218.2600 C   0  0  0  0  0  0  0  0  0  0  0  0
  140.3380   72.8251  223.3091 H   0  0  0  0  0  0  0  0  0  0  0  0
  139.6852   71.4939  222.2950 H   0  0  0  0  0  0  0  0  0  0  0  0
  141.4475   71.8415  222.2950 H   0  0  0  0  0  0  0  0  0  0  0  0
  139.3959   73.0992  220.5479 H   0  0  0  0  0  0  0  0  0  0  0  0
  141.9970   75.8910  222.0300 H   0  0  0  0  0  0  0  0  0  0  0  0
  142.9738   71.7349  219.9198 H   0  0  0  0  0  0  0  0  0  0  0  0
  145.3315   71.1029  220.4460 H   0  0  0  0  0  0  0  0  0  0  0  0
  147.0032   72.8721  221.0045 H   0  0  0  0  0  0  0  0  0  0  0  0
  146.3274   75.2741  221.0169 H   0  0  0  0  0  0  0  0  0  0  0  0
  143.9793   75.9155  220.4726 H   0  0  0  0  0  0  0  0  0  0  0  0
  141.1459   73.1060  218.3247 H   0  0  0  0  0  0  0  0  0  0  0  0
  143.4099   73.9505  217.5713 H   0  0  0  0  0  0  0  0  0  0  0  0
  142.0799   74.3094  216.3974 H   0  0  0  0  0  0  0  0  0  0  0  0
  143.2788   76.2633  218.4275 H   0  0  0  0  0  0  0  0  0  0  0  0
  143.5487   76.2585  216.6394 H   0  0  0  0  0  0  0  0  0  0  0  0
  141.2190   76.6150  216.3200 H   0  0  0  0  0  0  0  0  0  0  0  0
  143.2930   78.4901  218.8425 H   0  0  0  0  0  0  0  0  0  0  0  0
  144.1790   80.2300  217.9200 H   0  0  0  0  0  0  0  0  0  0  0  0
  142.9500   80.3600  216.8010 H   0  0  0  0  0  0  0  0  0  0  0  0
  140.5020   79.4569  218.8729 H   0  0  0  0  0  0  0  0  0  0  0  0
  140.3777   77.9480  220.6486 H   0  0  0  0  0  0  0  0  0  0  0  0
  142.0744   77.5493  220.4152 H   0  0  0  0  0  0  0  0  0  0  0  0
  141.6788   77.5819  223.2998 H   0  0  0  0  0  0  0  0  0  0  0  0
  142.2353   79.1605  225.1726 H   0  0  0  0  0  0  0  0  0  0  0  0
  142.5524   81.5989  224.7024 H   0  0  0  0  0  0  0  0  0  0  0  0
  142.3129   82.4680  222.3579 H   0  0  0  0  0  0  0  0  0  0  0  0
  140.8006   81.4769  219.9786 H   0  0  0  0  0  0  0  0  0  0  0  0
  142.5321   81.3653  219.6900 H   0  0  0  0  0  0  0  0  0  0  0  0
  141.0471   76.7929  219.2845 H   0  0  0  0  0  0  0  0  0  0  0  0
  139.7280   77.1761  218.1088 H   0  0  0  0  0  0  0  0  0  0  0  0
  139.4844   74.8869  219.0623 H   0  0  0  0  0  0  0  0  0  0  0  0
  139.7691   74.8633  217.2765 H   0  0  0  0  0  0  0  0  0  0  0  0
  1  2  1  0
  2  3  2  0
  3  4  1  0
  3  5  1  0
  5  6  1  0
  6  7  2  0
  7  8  1  0
  8  9  2  0
  9 10  1  0
 10 11  2  0
  5 12  1  0
 12 13  1  0
 13 14  1  0
 14 15  1  0
 15 16  1  0
 16 17  2  0
 16 18  1  0
 18 19  1  0
 18 20  1  0
 20 21  1  0
 21 22  1  0
 22 23  2  0
 23 24  1  0
 24 25  2  0
 25 26  1  0
 26 27  2  0
 27 28  1  0
 15 29  1  0
 29 30  1  0
 11  6  1  0
 30 12  1  0
 28 20  1  0
 27 22  1  0
  1 31  1  0
  1 32  1  0
  1 33  1  0
  2 34  1  0
  4 35  1  0
  7 36  1  0
  8 37  1  0
  9 38  1  0
 10 39  1  0
 11 40  1  0
 12 41  1  1
 13 42  1  0
 13 43  1  0
 14 44  1  0
 14 45  1  0
 15 46  1  1
 18 47  1  1
 19 48  1  0
 19 49  1  0
 20 50  1  0
 21 51  1  0
 21 52  1  0
 23 53  1  0
 24 54  1  0
 25 55  1  0
 26 56  1  0
 28 57  1  0
 28 58  1  0
 29 59  1  0
 29 60  1  0
 30 61  1  0
 30 62  1  0
M  CHG  1  15   1
M  END
>  <meeko>  (12) 
{"free_energy": -7.51, "intermolecular_energy": -10.19, "internal_energy": -2.43, "cluster_size": 7, "cluster_id": 2, "rank_in_cluster": 2}

$$$$

     RDKit          3D

 62 65  0  0  0  0  0  0  0  0999 V2000
  146.3090   73.5780  221.5950 C   0  0  0  0  0  0  0  0  0  0  0  0
  145.8010   72.7000  220.4920 C   0  0  0  0  0  0  0  0  0  0  0  0
  145.3670   73.1780  219.3120 C   0  0  0  0  0  0  0  0  0  0  0  0
  146.2320   73.3680  218.2310 O   0  0  0  0  0  0  0  0  0  0  0  0
  143.9700   73.4720  219.1280 N   0  0  0  0  0  0  0  0  0  0  0  0
  143.6740   74.8270  218.7430 C   0  0  0  0  0  0  0  0  0  0  0  0
  143.3300   75.7830  219.7140 C   0  0  0  0  0  0  0  0  0  0  0  0
  143.0300   77.0940  219.3330 C   0  0  0  0  0  0  0  0  0  0  0  0
  143.0560   77.4530  217.9820 C   0  0  0  0  0  0  0  0  0  0  0  0
  143.3850   76.5040  217.0110 C   0  0  0  0  0  0  0  0  0  0  0  0
  143.6910   75.1940  217.3870 C   0  0  0  0  0  0  0  0  0  0  0  0
  142.9770   72.3820  218.9270 C   0  0  2  0  0  0  0  0  0  0  0  0
  141.6330   72.8980  218.3560 C   0  0  0  0  0  0  0  0  0  0  0  0
  140.8740   73.7460  219.3890 C   0  0  0  0  0  0  0  0  0  0  0  0
  140.6180   72.9750  220.6270 N   0  0  2  0  0  0  0  0  0  0  0  0
  139.8370   73.6870  221.6360 C   0  0  0  0  0  0  0  0  0  0  0  0
  139.8890   73.2860  222.7920 O   0  0  0  0  0  0  0  0  0  0  0  0
  138.9730   74.9180  221.3560 C   0  0  1  0  0  0  0  0  0  0  0  0
  138.1460   75.2220  222.5330 N   0  0  0  0  0  0  0  0  0  0  0  0
  139.8710   76.1280  220.9710 C   0  0  0  0  0  0  0  0  0  0  0  0
  139.0930   77.4730  220.9660 C   0  0  0  0  0  0  0  0  0  0  0  0
  139.7930   78.3000  221.9770 C   0  0  0  0  0  0  0  0  0  0  0  0
  139.4480   79.5920  222.3830 C   0  0  0  0  0  0  0  0  0  0  0  0
  140.2340   80.2270  223.3560 C   0  0  0  0  0  0  0  0  0  0  0  0
  141.3510   79.5710  223.9010 C   0  0  0  0  0  0  0  0  0  0  0  0
  141.6860   78.2770  223.4730 C   0  0  0  0  0  0  0  0  0  0  0  0
  140.8910   77.6640  222.5010 C   0  0  0  0  0  0  0  0  0  0  0  0
  141.0890   76.3180  221.9190 C   0  0  0  0  0  0  0  0  0  0  0  0
  141.8920   72.5180  221.2250 C   0  0  0  0  0  0  0  0  0  0  0  0
  142.6760   71.6280  220.2440 C   0  0  0  0  0  0  0  0  0  0  0  0
  146.0510   73.1321  222.5669 H   0  0  0  0  0  0  0  0  0  0  0  0
  147.4019   73.6734  221.5139 H   0  0  0  0  0  0  0  0  0  0  0  0
  145.8471   74.5730  221.5139 H   0  0  0  0  0  0  0  0  0  0  0  0
  145.7821   71.6123  220.6552 H   0  0  0  0  0  0  0  0  0  0  0  0
  146.3490   74.2570  217.7590 H   0  0  0  0  0  0  0  0  0  0  0  0
  143.2968   75.4990  220.7762 H   0  0  0  0  0  0  0  0  0  0  0  0
  142.7734   77.8434  220.0963 H   0  0  0  0  0  0  0  0  0  0  0  0
  142.8170   78.4843  217.6832 H   0  0  0  0  0  0  0  0  0  0  0  0
  143.4031   76.7888  215.9487 H   0  0  0  0  0  0  0  0  0  0  0  0
  143.9458   74.4481  216.6197 H   0  0  0  0  0  0  0  0  0  0  0  0
  143.4424   71.7008  218.1994 H   0  0  0  0  0  0  0  0  0  0  0  0
  141.8345   73.5130  217.4666 H   0  0  0  0  0  0  0  0  0  0  0  0
  141.0104   72.0290  218.0966 H   0  0  0  0  0  0  0  0  0  0  0  0
  141.4748   74.6336  219.6363 H   0  0  0  0  0  0  0  0  0  0  0  0
  139.9073   74.0420  218.9556 H   0  0  0  0  0  0  0  0  0  0  0  0
  140.0540   72.1310  220.3620 H   0  0  0  0  0  0  0  0  0  0  0  0
  138.3046   74.7103  220.5074 H   0  0  0  0  0  0  0  0  0  0  0  0
  137.5360   74.3990  222.7400 H   0  0  0  0  0  0  0  0  0  0  0  0
  138.7760   75.3250  223.3600 H   0  0  0  0  0  0  0  0  0  0  0  0
  140.2207   75.8792  219.9582 H   0  0  0  0  0  0  0  0  0  0  0  0
  139.1389   77.9469  219.9744 H   0  0  0  0  0  0  0  0  0  0  0  0
  138.0246   77.3433  221.1934 H   0  0  0  0  0  0  0  0  0  0  0  0
  138.5759   80.1017  221.9475 H   0  0  0  0  0  0  0  0  0  0  0  0
  139.9753   81.2415  223.6935 H   0  0  0  0  0  0  0  0  0  0  0  0
  141.9638   80.0726  224.6644 H   0  0  0  0  0  0  0  0  0  0  0  0
  142.5578   77.7553  223.8947 H   0  0  0  0  0  0  0  0  0  0  0  0
  142.0326   76.2718  221.3556 H   0  0  0  0  0  0  0  0  0  0  0  0
  141.1514   75.5326  222.6866 H   0  0  0  0  0  0  0  0  0  0  0  0
  142.5037   73.3955  221.4817 H   0  0  0  0  0  0  0  0  0  0  0  0
  141.6641   71.9292  222.1257 H   0  0  0  0  0  0  0  0  0  0  0  0
  143.6255   71.3279  220.7113 H   0  0  0  0  0  0  0  0  0  0  0  0
  142.0647   70.7443  220.0089 H   0  0  0  0  0  0  0  0  0  0  0  0
  1  2  1  0
  2  3  2  0
  3  4  1  0
  3  5  1  0
  5  6  1  0
  6  7  2  0
  7  8  1  0
  8  9  2  0
  9 10  1  0
 10 11  2  0
  5 12  1  0
 12 13  1  0
 13 14  1  0
 14 15  1  0
 15 16  1  0
 16 17  2  0
 16 18  1  0
 18 19  1  0
 18 20  1  0
 20 21  1  0
 21 22  1  0
 22 23  2  0
 23 24  1  0
 24 25  2  0
 25 26  1  0
 26 27  2  0
 27 28  1  0
 15 29  1  0
 29 30  1  0
 11  6  1  0
 30 12  1  0
 28 20  1  0
 27 22  1  0
  1 31  1  0
  1 32  1  0
  1 33  1  0
  2 34  1  0
  4 35  1  0
  7 36  1  0
  8 37  1  0
  9 38  1  0
 10 39  1  0
 11 40  1  0
 12 41  1  1
 13 42  1  0
 13 43  1  0
 14 44  1  0
 14 45  1  0
 15 46  1  1
 18 47  1  6
 19 48  1  0
 19 49  1  0
 20 50  1  0
 21 51  1  0
 21 52  1  0
 23 53  1  0
 24 54  1  0
 25 55  1  0
 26 56  1  0
 28 57  1  0
 28 58  1  0
 29 59  1  0
 29 60  1  0
 30 61  1  0
 30 62  1  0
M  CHG  1  15   1
M  END
>  <meeko>  (13) 
{"free_energy": -7.68, "intermolecular_energy": -10.37, "internal_energy": -2.59, "cluster_size": 7, "cluster_id": 1, "rank_in_cluster": 3}

$$$$

     RDKit          3D

 62 65  0  0  0  0  0  0  0  0999 V2000
  139.8360   73.3620  221.9660 C   0  0  0  0  0  0  0  0  0  0  0  0
  140.7510   73.3690  220.7800 C   0  0  0  0  0  0  0  0  0  0  0  0
  141.5470   74.4080  220.4700 C   0  0  0  0  0  0  0  0  0  0  0  0
  141.4850   75.6170  221.1690 O   0  0  0  0  0  0  0  0  0  0  0  0
  142.5210   74.2770  219.4170 N   0  0  0  0  0  0  0  0  0  0  0  0
  143.8070   73.7800  219.8290 C   0  0  0  0  0  0  0  0  0  0  0  0
  144.7240   74.6300  220.4710 C   0  0  0  0  0  0  0  0  0  0  0  0
  145.9780   74.1450  220.8570 C   0  0  0  0  0  0  0  0  0  0  0  0
  146.3270   72.8180  220.5900 C   0  0  0  0  0  0  0  0  0  0  0  0
  145.4240   71.9730  219.9410 C   0  0  0  0  0  0  0  0  0  0  0  0
  144.1680   72.4500  219.5590 C   0  0  0  0  0  0  0  0  0  0  0  0
  142.1050   74.2410  217.9890 C   0  0  2  0  0  0  0  0  0  0  0  0
  143.1540   74.8780  217.0460 C   0  0  0  0  0  0  0  0  0  0  0  0
  143.2370   76.3990  217.2480 C   0  0  0  0  0  0  0  0  0  0  0  0
  141.9220   77.0400  217.0230 N   0  0  2  0  0  0  0  0  0  0  0  0
  141.9290   78.4970  217.1250 C   0  0  0  0  0  0  0  0  0  0  0  0
  141.3880   79.1400  216.2350 O   0  0  0  0  0  0  0  0  0  0  0  0
  142.5450   79.2830  218.2850 C   0  0  1  0  0  0  0  0  0  0  0  0
  143.1860   80.5020  217.7730 N   0  0  0  0  0  0  0  0  0  0  0  0
  141.4560   79.6210  219.3430 C   0  0  0  0  0  0  0  0  0  0  0  0
  141.1810   78.4410  220.3160 C   0  0  0  0  0  0  0  0  0  0  0  0
  141.5110   78.9900  221.6530 C   0  0  0  0  0  0  0  0  0  0  0  0
  141.4730   78.3030  222.8690 C   0  0  0  0  0  0  0  0  0  0  0  0
  141.8170   78.9890  224.0440 C   0  0  0  0  0  0  0  0  0  0  0  0
  142.1840   80.3460  223.9880 C   0  0  0  0  0  0  0  0  0  0  0  0
  142.2060   81.0190  222.7570 C   0  0  0  0  0  0  0  0  0  0  0  0
  141.8580   80.3170  221.6000 C   0  0  0  0  0  0  0  0  0  0  0  0
  141.8110   80.8540  220.2220 C   0  0  0  0  0  0  0  0  0  0  0  0
  140.9110   76.4880  217.9520 C   0  0  0  0  0  0  0  0  0  0  0  0
  140.7580   74.9680  217.7630 C   0  0  0  0  0  0  0  0  0  0  0  0
  140.4331   73.3666  222.8898 H   0  0  0  0  0  0  0  0  0  0  0  0
  139.1946   74.2553  221.9396 H   0  0  0  0  0  0  0  0  0  0  0  0
  139.2084   72.4590  221.9396 H   0  0  0  0  0  0  0  0  0  0  0  0
  140.7730   72.4812  220.1310 H   0  0  0  0  0  0  0  0  0  0  0  0
  142.2130   75.9360  221.7970 H   0  0  0  0  0  0  0  0  0  0  0  0
  144.4552   75.6779  220.6701 H   0  0  0  0  0  0  0  0  0  0  0  0
  146.6896   74.8080  221.3708 H   0  0  0  0  0  0  0  0  0  0  0  0
  147.3145   72.4386  220.8916 H   0  0  0  0  0  0  0  0  0  0  0  0
  145.7024   70.9299  219.7303 H   0  0  0  0  0  0  0  0  0  0  0  0
  143.4602   71.7825  219.0457 H   0  0  0  0  0  0  0  0  0  0  0  0
  142.0026   73.1727  217.7478 H   0  0  0  0  0  0  0  0  0  0  0  0
  144.1389   74.4347  217.2544 H   0  0  0  0  0  0  0  0  0  0  0  0
  142.8506   74.6822  216.0070 H   0  0  0  0  0  0  0  0  0  0  0  0
  143.5666   76.6072  218.2766 H   0  0  0  0  0  0  0  0  0  0  0  0
  143.9539   76.8089  216.5213 H   0  0  0  0  0  0  0  0  0  0  0  0
  141.6260   76.8170  216.0410 H   0  0  0  0  0  0  0  0  0  0  0  0
  143.3133   78.6679  218.7764 H   0  0  0  0  0  0  0  0  0  0  0  0
  144.2240   80.3790  217.8050 H   0  0  0  0  0  0  0  0  0  0  0  0
  142.9420   80.6030  216.7630 H   0  0  0  0  0  0  0  0  0  0  0  0
  140.5645   79.8392  218.7366 H   0  0  0  0  0  0  0  0  0  0  0  0
  140.1256   78.1344  220.2694 H   0  0  0  0  0  0  0  0  0  0  0  0
  141.7703   77.5453  220.0703 H   0  0  0  0  0  0  0  0  0  0  0  0
  141.1788   77.2437  222.9047 H   0  0  0  0  0  0  0  0  0  0  0  0
  141.7996   78.4646  225.0108 H   0  0  0  0  0  0  0  0  0  0  0  0
  142.4542   80.8803  224.9108 H   0  0  0  0  0  0  0  0  0  0  0  0
  142.4920   82.0798  222.7037 H   0  0  0  0  0  0  0  0  0  0  0  0
  141.0385   81.6320  220.1328 H   0  0  0  0  0  0  0  0  0  0  0  0
  142.7579   81.3264  219.9218 H   0  0  0  0  0  0  0  0  0  0  0  0
  141.2241   76.6919  218.9866 H   0  0  0  0  0  0  0  0  0  0  0  0
  139.9432   76.9661  217.7403 H   0  0  0  0  0  0  0  0  0  0  0  0
  140.0194   74.5887  218.4845 H   0  0  0  0  0  0  0  0  0  0  0  0
  140.4253   74.7755  216.7323 H   0  0  0  0  0  0  0  0  0  0  0  0
  1  2  1  0
  2  3  2  0
  3  4  1  0
  3  5  1  0
  5  6  1  0
  6  7  2  0
  7  8  1  0
  8  9  2  0
  9 10  1  0
 10 11  2  0
  5 12  1  0
 12 13  1  0
 13 14  1  0
 14 15  1  0
 15 16  1  0
 16 17  2  0
 16 18  1  0
 18 19  1  0
 18 20  1  0
 20 21  1  0
 21 22  1  0
 22 23  2  0
 23 24  1  0
 24 25  2  0
 25 26  1  0
 26 27  2  0
 27 28  1  0
 15 29  1  0
 29 30  1  0
 11  6  1  0
 30 12  1  0
 28 20  1  0
 27 22  1  0
  1 31  1  0
  1 32  1  0
  1 33  1  0
  2 34  1  0
  4 35  1  0
  7 36  1  0
  8 37  1  0
  9 38  1  0
 10 39  1  0
 11 40  1  0
 12 41  1  1
 13 42  1  0
 13 43  1  0
 14 44  1  0
 14 45  1  0
 15 46  1  1
 18 47  1  1
 19 48  1  0
 19 49  1  0
 20 50  1  0
 21 51  1  0
 21 52  1  0
 23 53  1  0
 24 54  1  0
 25 55  1  0
 26 56  1  0
 28 57  1  0
 28 58  1  0
 29 59  1  0
 29 60  1  0
 30 61  1  0
 30 62  1  0
M  CHG  1  15   1
M  END
>  <meeko>  (14) 
{"free_energy": -7.48, "intermolecular_energy": -10.16, "internal_energy": -2.45, "cluster_size": 7, "cluster_id": 2, "rank_in_cluster": 3}

$$$$

     RDKit          3D

 62 65  0  0  0  0  0  0  0  0999 V2000
  139.0280   78.1920  222.4430 C   0  0  0  0  0  0  0  0  0  0  0  0
  138.4850   76.9530  221.8000 C   0  0  0  0  0  0  0  0  0  0  0  0
  139.2180   75.8420  221.6070 C   0  0  0  0  0  0  0  0  0  0  0  0
  139.5980   75.0160  222.6690 O   0  0  0  0  0  0  0  0  0  0  0  0
  139.6020   75.4580  220.2730 N   0  0  0  0  0  0  0  0  0  0  0  0
  140.9840   75.6860  219.9430 C   0  0  0  0  0  0  0  0  0  0  0  0
  141.3400   76.7020  219.0400 C   0  0  0  0  0  0  0  0  0  0  0  0
  142.6840   76.9100  218.7120 C   0  0  0  0  0  0  0  0  0  0  0  0
  143.6740   76.0960  219.2700 C   0  0  0  0  0  0  0  0  0  0  0  0
  143.3240   75.0760  220.1590 C   0  0  0  0  0  0  0  0  0  0  0  0
  141.9840   74.8690  220.4940 C   0  0  0  0  0  0  0  0  0  0  0  0
  138.7650   74.5220  219.4750 C   0  0  2  0  0  0  0  0  0  0  0  0
  137.5430   73.9920  220.2650 C   0  0  0  0  0  0  0  0  0  0  0  0
  137.9750   73.0470  221.3960 C   0  0  0  0  0  0  0  0  0  0  0  0
  138.7510   71.9020  220.8680 N   0  0  2  0  0  0  0  0  0  0  0  0
  139.1400   70.9140  221.8720 C   0  0  0  0  0  0  0  0  0  0  0  0
  138.7510   69.7630  221.7280 O   0  0  0  0  0  0  0  0  0  0  0  0
  140.0260   71.2120  223.0840 C   0  0  1  0  0  0  0  0  0  0  0  0
  140.3780   72.6380  223.1030 N   0  0  0  0  0  0  0  0  0  0  0  0
  139.3000   70.7930  224.3940 C   0  0  0  0  0  0  0  0  0  0  0  0
  139.2600   69.2520  224.5900 C   0  0  0  0  0  0  0  0  0  0  0  0
  139.9820   69.0310  225.8660 C   0  0  0  0  0  0  0  0  0  0  0  0
  140.2610   67.7990  226.4640 C   0  0  0  0  0  0  0  0  0  0  0  0
  140.9560   67.7820  227.6820 C   0  0  0  0  0  0  0  0  0  0  0  0
  141.3530   68.9880  228.2870 C   0  0  0  0  0  0  0  0  0  0  0  0
  141.0540   70.2150  227.6750 C   0  0  0  0  0  0  0  0  0  0  0  0
  140.3590   70.2090  226.4620 C   0  0  0  0  0  0  0  0  0  0  0  0
  139.9460   71.3920  225.6760 C   0  0  0  0  0  0  0  0  0  0  0  0
  139.9570   72.3790  220.1550 C   0  0  0  0  0  0  0  0  0  0  0  0
  139.5780   73.3010  218.9830 C   0  0  0  0  0  0  0  0  0  0  0  0
  138.9822   78.0875  223.5371 H   0  0  0  0  0  0  0  0  0  0  0  0
  140.0729   78.3387  222.1321 H   0  0  0  0  0  0  0  0  0  0  0  0
  138.4277   79.0597  222.1321 H   0  0  0  0  0  0  0  0  0  0  0  0
  137.4358   76.9517  221.4696 H   0  0  0  0  0  0  0  0  0  0  0  0
  138.9840   74.3270  223.0860 H   0  0  0  0  0  0  0  0  0  0  0  0
  140.5607   77.3348  218.5903 H   0  0  0  0  0  0  0  0  0  0  0  0
  142.9618   77.7143  218.0149 H   0  0  0  0  0  0  0  0  0  0  0  0
  144.7301   76.2585  219.0090 H   0  0  0  0  0  0  0  0  0  0  0  0
  144.1047   74.4356  220.5953 H   0  0  0  0  0  0  0  0  0  0  0  0
  141.7113   74.0634  221.1917 H   0  0  0  0  0  0  0  0  0  0  0  0
  138.4129   75.1135  218.6170 H   0  0  0  0  0  0  0  0  0  0  0  0
  136.9998   74.8446  220.6986 H   0  0  0  0  0  0  0  0  0  0  0  0
  136.8989   73.4311  219.5718 H   0  0  0  0  0  0  0  0  0  0  0  0
  138.5983   73.6040  222.1110 H   0  0  0  0  0  0  0  0  0  0  0  0
  137.0723   72.6585  221.8901 H   0  0  0  0  0  0  0  0  0  0  0  0
  138.1390   71.3960  220.1820 H   0  0  0  0  0  0  0  0  0  0  0  0
  140.9552   70.6279  223.0109 H   0  0  0  0  0  0  0  0  0  0  0  0
  140.2650   73.0280  222.1400 H   0  0  0  0  0  0  0  0  0  0  0  0
  139.6830   73.1410  223.6980 H   0  0  0  0  0  0  0  0  0  0  0  0
  138.2835   71.1933  224.2658 H   0  0  0  0  0  0  0  0  0  0  0  0
  138.2223   68.8942  224.6615 H   0  0  0  0  0  0  0  0  0  0  0  0
  139.7133   68.7074  223.7486 H   0  0  0  0  0  0  0  0  0  0  0  0
  139.9414   66.8601  225.9882 H   0  0  0  0  0  0  0  0  0  0  0  0
  141.1913   66.8225  228.1657 H   0  0  0  0  0  0  0  0  0  0  0  0
  141.8989   68.9694  229.2418 H   0  0  0  0  0  0  0  0  0  0  0  0
  141.3606   71.1632  228.1408 H   0  0  0  0  0  0  0  0  0  0  0  0
  139.2160   71.9960  226.2348 H   0  0  0  0  0  0  0  0  0  0  0  0
  140.7886   72.0618  225.4492 H   0  0  0  0  0  0  0  0  0  0  0  0
  140.5940   72.9352  220.8585 H   0  0  0  0  0  0  0  0  0  0  0  0
  140.4943   71.5068  219.7543 H   0  0  0  0  0  0  0  0  0  0  0  0
  140.4969   73.6551  218.4929 H   0  0  0  0  0  0  0  0  0  0  0  0
  138.9579   72.7303  218.2760 H   0  0  0  0  0  0  0  0  0  0  0  0
  1  2  1  0
  2  3  2  0
  3  4  1  0
  3  5  1  0
  5  6  1  0
  6  7  2  0
  7  8  1  0
  8  9  2  0
  9 10  1  0
 10 11  2  0
  5 12  1  0
 12 13  1  0
 13 14  1  0
 14 15  1  0
 15 16  1  0
 16 17  2  0
 16 18  1  0
 18 19  1  0
 18 20  1  0
 20 21  1  0
 21 22  1  0
 22 23  2  0
 23 24  1  0
 24 25  2  0
 25 26  1  0
 26 27  2  0
 27 28  1  0
 15 29  1  0
 29 30  1  0
 11  6  1  0
 30 12  1  0
 28 20  1  0
 27 22  1  0
  1 31  1  0
  1 32  1  0
  1 33  1  0
  2 34  1  0
  4 35  1  0
  7 36  1  0
  8 37  1  0
  9 38  1  0
 10 39  1  0
 11 40  1  0
 12 41  1  1
 13 42  1  0
 13 43  1  0
 14 44  1  0
 14 45  1  0
 15 46  1  1
 18 47  1  6
 19 48  1  0
 19 49  1  0
 20 50  1  0
 21 51  1  0
 21 52  1  0
 23 53  1  0
 24 54  1  0
 25 55  1  0
 26 56  1  0
 28 57  1  0
 28 58  1  0
 29 59  1  0
 29 60  1  0
 30 61  1  0
 30 62  1  0
M  CHG  1  15   1
M  END
>  <meeko>  (15) 
{"free_energy": -6.94, "intermolecular_energy": -9.62, "internal_energy": -2.9, "cluster_size": 2, "cluster_id": 5, "rank_in_cluster": 1}

$$$$

     RDKit          3D

 62 65  0  0  0  0  0  0  0  0999 V2000
  146.0960   73.4640  221.6120 C   0  0  0  0  0  0  0  0  0  0  0  0
  145.9270   72.6460  220.3690 C   0  0  0  0  0  0  0  0  0  0  0  0
  145.4360   73.1440  219.2200 C   0  0  0  0  0  0  0  0  0  0  0  0
  146.2530   73.3820  218.1110 O   0  0  0  0  0  0  0  0  0  0  0  0
  144.0260   73.4120  219.1000 N   0  0  0  0  0  0  0  0  0  0  0  0
  143.6880   74.7620  218.7330 C   0  0  0  0  0  0  0  0  0  0  0  0
  143.6780   75.1510  217.3830 C   0  0  0  0  0  0  0  0  0  0  0  0
  143.3630   76.4680  217.0340 C   0  0  0  0  0  0  0  0  0  0  0  0
  143.0720   77.4040  218.0300 C   0  0  0  0  0  0  0  0  0  0  0  0
  143.0920   77.0270  219.3750 C   0  0  0  0  0  0  0  0  0  0  0  0
  143.4010   75.7110  219.7280 C   0  0  0  0  0  0  0  0  0  0  0  0
  143.0460   72.3040  218.9390 C   0  0  2  0  0  0  0  0  0  0  0  0
  141.6970   72.7820  218.3480 C   0  0  0  0  0  0  0  0  0  0  0  0
  140.9280   73.6600  219.3470 C   0  0  0  0  0  0  0  0  0  0  0  0
  140.6790   72.9340  220.6130 N   0  0  2  0  0  0  0  0  0  0  0  0
  139.8880   73.6730  221.5950 C   0  0  0  0  0  0  0  0  0  0  0  0
  139.9630   73.3340  222.7680 O   0  0  0  0  0  0  0  0  0  0  0  0
  138.9870   74.8650  221.2630 C   0  0  1  0  0  0  0  0  0  0  0  0
  138.0980   75.1450  222.3990 N   0  0  0  0  0  0  0  0  0  0  0  0
  139.8510   76.1070  220.9030 C   0  0  0  0  0  0  0  0  0  0  0  0
  139.0410   77.4320  220.9470 C   0  0  0  0  0  0  0  0  0  0  0  0
  139.7330   78.2460  221.9740 C   0  0  0  0  0  0  0  0  0  0  0  0
  139.3610   79.5170  222.4220 C   0  0  0  0  0  0  0  0  0  0  0  0
  140.1430   80.1430  223.4040 C   0  0  0  0  0  0  0  0  0  0  0  0
  141.2830   79.4980  223.9170 C   0  0  0  0  0  0  0  0  0  0  0  0
  141.6440   78.2260  223.4460 C   0  0  0  0  0  0  0  0  0  0  0  0
  140.8520   77.6220  222.4660 C   0  0  0  0  0  0  0  0  0  0  0  0
  141.0760   76.3000  221.8420 C   0  0  0  0  0  0  0  0  0  0  0  0
  141.9570   72.5140  221.2290 C   0  0  0  0  0  0  0  0  0  0  0  0
  142.7520   71.5970  220.2830 C   0  0  0  0  0  0  0  0  0  0  0  0
  145.9632   72.8213  222.4948 H   0  0  0  0  0  0  0  0  0  0  0  0
  147.1040   73.9041  221.6271 H   0  0  0  0  0  0  0  0  0  0  0  0
  145.3449   74.2675  221.6271 H   0  0  0  0  0  0  0  0  0  0  0  0
  146.2188   71.5858  220.3970 H   0  0  0  0  0  0  0  0  0  0  0  0
  146.3740   74.2960  217.6930 H   0  0  0  0  0  0  0  0  0  0  0  0
  143.9185   74.4180  216.5989 H   0  0  0  0  0  0  0  0  0  0  0  0
  143.3443   76.7671  215.9756 H   0  0  0  0  0  0  0  0  0  0  0  0
  142.8266   78.4402  217.7543 H   0  0  0  0  0  0  0  0  0  0  0  0
  142.8643   77.7667  220.1566 H   0  0  0  0  0  0  0  0  0  0  0  0
  143.4196   75.4173  220.7879 H   0  0  0  0  0  0  0  0  0  0  0  0
  143.5203   71.6017  218.2377 H   0  0  0  0  0  0  0  0  0  0  0  0
  141.8922   73.3646  217.4356 H   0  0  0  0  0  0  0  0  0  0  0  0
  141.0846   71.8967  218.1218 H   0  0  0  0  0  0  0  0  0  0  0  0
  141.5189   74.5629  219.5608 H   0  0  0  0  0  0  0  0  0  0  0  0
  139.9586   73.9288  218.9019 H   0  0  0  0  0  0  0  0  0  0  0  0
  140.1250   72.0730  220.3800 H   0  0  0  0  0  0  0  0  0  0  0  0
  138.3654   74.6224  220.3885 H   0  0  0  0  0  0  0  0  0  0  0  0
  137.4220   74.3550  222.5040 H   0  0  0  0  0  0  0  0  0  0  0  0
  138.6710   75.1470  223.2730 H   0  0  0  0  0  0  0  0  0  0  0  0
  140.1940   75.8956  219.8795 H   0  0  0  0  0  0  0  0  0  0  0  0
  139.0634   77.9358  219.9694 H   0  0  0  0  0  0  0  0  0  0  0  0
  137.9790   77.2694  221.1829 H   0  0  0  0  0  0  0  0  0  0  0  0
  138.4712   80.0171  222.0119 H   0  0  0  0  0  0  0  0  0  0  0  0
  139.8641   81.1407  223.7738 H   0  0  0  0  0  0  0  0  0  0  0  0
  141.8925   79.9913  224.6885 H   0  0  0  0  0  0  0  0  0  0  0  0
  142.5339   77.7141  223.8410 H   0  0  0  0  0  0  0  0  0  0  0  0
  142.0133   76.2944  221.2662 H   0  0  0  0  0  0  0  0  0  0  0  0
  141.1676   75.4941  222.5851 H   0  0  0  0  0  0  0  0  0  0  0  0
  142.5585   73.4072  221.4533 H   0  0  0  0  0  0  0  0  0  0  0  0
  141.7344   71.9568  222.1509 H   0  0  0  0  0  0  0  0  0  0  0  0
  143.7043   71.3256  220.7620 H   0  0  0  0  0  0  0  0  0  0  0  0
  142.1509   70.6982  220.0808 H   0  0  0  0  0  0  0  0  0  0  0  0
  1  2  1  0
  2  3  2  0
  3  4  1  0
  3  5  1  0
  5  6  1  0
  6  7  2  0
  7  8  1  0
  8  9  2  0
  9 10  1  0
 10 11  2  0
  5 12  1  0
 12 13  1  0
 13 14  1  0
 14 15  1  0
 15 16  1  0
 16 17  2  0
 16 18  1  0
 18 19  1  0
 18 20  1  0
 20 21  1  0
 21 22  1  0
 22 23  2  0
 23 24  1  0
 24 25  2  0
 25 26  1  0
 26 27  2  0
 27 28  1  0
 15 29  1  0
 29 30  1  0
 11  6  1  0
 30 12  1  0
 28 20  1  0
 27 22  1  0
  1 31  1  0
  1 32  1  0
  1 33  1  0
  2 34  1  0
  4 35  1  0
  7 36  1  0
  8 37  1  0
  9 38  1  0
 10 39  1  0
 11 40  1  0
 12 41  1  1
 13 42  1  0
 13 43  1  0
 14 44  1  0
 14 45  1  0
 15 46  1  1
 18 47  1  6
 19 48  1  0
 19 49  1  0
 20 50  1  0
 21 51  1  0
 21 52  1  0
 23 53  1  0
 24 54  1  0
 25 55  1  0
 26 56  1  0
 28 57  1  0
 28 58  1  0
 29 59  1  0
 29 60  1  0
 30 61  1  0
 30 62  1  0
M  CHG  1  15   1
M  END
>  <meeko>  (16) 
{"free_energy": -7.49, "intermolecular_energy": -10.18, "internal_energy": -2.68, "cluster_size": 7, "cluster_id": 1, "rank_in_cluster": 7}

$$$$

     RDKit          3D

 62 65  0  0  0  0  0  0  0  0999 V2000
  146.3020   73.4880  221.5630 C   0  0  0  0  0  0  0  0  0  0  0  0
  145.9220   72.6150  220.4070 C   0  0  0  0  0  0  0  0  0  0  0  0
  145.4420   73.0970  219.2470 C   0  0  0  0  0  0  0  0  0  0  0  0
  146.2750   73.3400  218.1490 O   0  0  0  0  0  0  0  0  0  0  0  0
  144.0310   73.3420  219.1000 N   0  0  0  0  0  0  0  0  0  0  0  0
  143.6770   74.6880  218.7350 C   0  0  0  0  0  0  0  0  0  0  0  0
  143.6570   75.0760  217.3840 C   0  0  0  0  0  0  0  0  0  0  0  0
  143.3260   76.3890  217.0360 C   0  0  0  0  0  0  0  0  0  0  0  0
  143.0290   77.3230  218.0330 C   0  0  0  0  0  0  0  0  0  0  0  0
  143.0600   76.9460  219.3780 C   0  0  0  0  0  0  0  0  0  0  0  0
  143.3840   75.6340  219.7300 C   0  0  0  0  0  0  0  0  0  0  0  0
  143.0740   72.2180  218.9140 C   0  0  2  0  0  0  0  0  0  0  0  0
  141.7220   72.6790  218.3160 C   0  0  0  0  0  0  0  0  0  0  0  0
  140.9260   73.5280  219.3190 C   0  0  0  0  0  0  0  0  0  0  0  0
  140.6790   72.7800  220.5730 N   0  0  2  0  0  0  0  0  0  0  0  0
  139.8650   73.4910  221.5560 C   0  0  0  0  0  0  0  0  0  0  0  0
  139.9340   73.1370  222.7260 O   0  0  0  0  0  0  0  0  0  0  0  0
  138.9450   74.6710  221.2320 C   0  0  1  0  0  0  0  0  0  0  0  0
  138.0420   74.9210  222.3640 N   0  0  0  0  0  0  0  0  0  0  0  0
  139.7890   75.9320  220.8940 C   0  0  0  0  0  0  0  0  0  0  0  0
  138.9610   77.2450  220.9720 C   0  0  0  0  0  0  0  0  0  0  0  0
  139.6490   78.0460  222.0130 C   0  0  0  0  0  0  0  0  0  0  0  0
  139.2630   79.3010  222.4910 C   0  0  0  0  0  0  0  0  0  0  0  0
  140.0430   79.9150  223.4820 C   0  0  0  0  0  0  0  0  0  0  0  0
  141.1950   79.2750  223.9730 C   0  0  0  0  0  0  0  0  0  0  0  0
  141.5700   78.0200  223.4720 C   0  0  0  0  0  0  0  0  0  0  0  0
  140.7800   77.4260  222.4840 C   0  0  0  0  0  0  0  0  0  0  0  0
  141.0180   76.1210  221.8290 C   0  0  0  0  0  0  0  0  0  0  0  0
  141.9580   72.3760  221.1960 C   0  0  0  0  0  0  0  0  0  0  0  0
  142.7800   71.4870  220.2460 C   0  0  0  0  0  0  0  0  0  0  0  0
  146.0755   72.9677  222.5054 H   0  0  0  0  0  0  0  0  0  0  0  0
  147.3783   73.7103  221.5164 H   0  0  0  0  0  0  0  0  0  0  0  0
  145.7313   74.4272  221.5164 H   0  0  0  0  0  0  0  0  0  0  0  0
  146.0413   71.5265  220.5119 H   0  0  0  0  0  0  0  0  0  0  0  0
  146.4070   74.2580  217.7430 H   0  0  0  0  0  0  0  0  0  0  0  0
  143.9022   74.3452  216.5992 H   0  0  0  0  0  0  0  0  0  0  0  0
  143.2993   76.6872  215.9775 H   0  0  0  0  0  0  0  0  0  0  0  0
  142.7705   78.3563  217.7581 H   0  0  0  0  0  0  0  0  0  0  0  0
  142.8289   77.6836  220.1607 H   0  0  0  0  0  0  0  0  0  0  0  0
  143.4097   75.3410  220.7899 H   0  0  0  0  0  0  0  0  0  0  0  0
  143.5683   71.5343  218.2082 H   0  0  0  0  0  0  0  0  0  0  0  0
  141.9153   73.2782  217.4140 H   0  0  0  0  0  0  0  0  0  0  0  0
  141.1290   71.7855  218.0713 H   0  0  0  0  0  0  0  0  0  0  0  0
  141.4967   74.4393  219.5508 H   0  0  0  0  0  0  0  0  0  0  0  0
  139.9559   73.7835  218.8678 H   0  0  0  0  0  0  0  0  0  0  0  0
  140.1430   71.9130  220.3230 H   0  0  0  0  0  0  0  0  0  0  0  0
  138.3343   74.4281  220.3499 H   0  0  0  0  0  0  0  0  0  0  0  0
  137.8250   74.0120  222.8320 H   0  0  0  0  0  0  0  0  0  0  0  0
  138.5540   75.4920  223.0730 H   0  0  0  0  0  0  0  0  0  0  0  0
  140.1278   75.7480  219.8638 H   0  0  0  0  0  0  0  0  0  0  0  0
  138.9703   77.7704  220.0056 H   0  0  0  0  0  0  0  0  0  0  0  0
  137.9028   77.0629  221.2106 H   0  0  0  0  0  0  0  0  0  0  0  0
  138.3642   79.7982  222.0974 H   0  0  0  0  0  0  0  0  0  0  0  0
  139.7528   80.9000  223.8763 H   0  0  0  0  0  0  0  0  0  0  0  0
  141.8029   79.7596  224.7513 H   0  0  0  0  0  0  0  0  0  0  0  0
  142.4697   77.5123  223.8499 H   0  0  0  0  0  0  0  0  0  0  0  0
  141.9512   76.1413  221.2470 H   0  0  0  0  0  0  0  0  0  0  0  0
  141.1260   75.3001  222.5532 H   0  0  0  0  0  0  0  0  0  0  0  0
  142.5401   73.2773  221.4384 H   0  0  0  0  0  0  0  0  0  0  0  0
  141.7367   71.8021  222.1080 H   0  0  0  0  0  0  0  0  0  0  0  0
  143.7325   71.2273  220.7311 H   0  0  0  0  0  0  0  0  0  0  0  0
  142.1984   70.5797  220.0257 H   0  0  0  0  0  0  0  0  0  0  0  0
  1  2  1  0
  2  3  2  0
  3  4  1  0
  3  5  1  0
  5  6  1  0
  6  7  2  0
  7  8  1  0
  8  9  2  0
  9 10  1  0
 10 11  2  0
  5 12  1  0
 12 13  1  0
 13 14  1  0
 14 15  1  0
 15 16  1  0
 16 17  2  0
 16 18  1  0
 18 19  1  0
 18 20  1  0
 20 21  1  0
 21 22  1  0
 22 23  2  0
 23 24  1  0
 24 25  2  0
 25 26  1  0
 26 27  2  0
 27 28  1  0
 15 29  1  0
 29 30  1  0
 11  6  1  0
 30 12  1  0
 28 20  1  0
 27 22  1  0
  1 31  1  0
  1 32  1  0
  1 33  1  0
  2 34  1  0
  4 35  1  0
  7 36  1  0
  8 37  1  0
  9 38  1  0
 10 39  1  0
 11 40  1  0
 12 41  1  1
 13 42  1  0
 13 43  1  0
 14 44  1  0
 14 45  1  0
 15 46  1  1
 18 47  1  6
 19 48  1  0
 19 49  1  0
 20 50  1  0
 21 51  1  0
 21 52  1  0
 23 53  1  0
 24 54  1  0
 25 55  1  0
 26 56  1  0
 28 57  1  0
 28 58  1  0
 29 59  1  0
 29 60  1  0
 30 61  1  0
 30 62  1  0
M  CHG  1  15   1
M  END
>  <meeko>  (17) 
{"free_energy": -7.65, "intermolecular_energy": -10.33, "internal_energy": -2.67, "cluster_size": 7, "cluster_id": 1, "rank_in_cluster": 6}

$$$$

     RDKit          3D

 62 65  0  0  0  0  0  0  0  0999 V2000
  142.1500   77.5450  218.3530 C   0  0  0  0  0  0  0  0  0  0  0  0
  142.7280   76.7820  219.5060 C   0  0  0  0  0  0  0  0  0  0  0  0
  141.9770   76.2480  220.4850 C   0  0  0  0  0  0  0  0  0  0  0  0
  142.2280   74.9690  220.9920 O   0  0  0  0  0  0  0  0  0  0  0  0
  140.9040   77.0130  221.0650 N   0  0  0  0  0  0  0  0  0  0  0  0
  141.3120   78.1760  221.8080 C   0  0  0  0  0  0  0  0  0  0  0  0
  141.4430   78.1160  223.2060 C   0  0  0  0  0  0  0  0  0  0  0  0
  141.8270   79.2530  223.9240 C   0  0  0  0  0  0  0  0  0  0  0  0
  142.0650   80.4560  223.2540 C   0  0  0  0  0  0  0  0  0  0  0  0
  141.9240   80.5250  221.8660 C   0  0  0  0  0  0  0  0  0  0  0  0
  141.5470   79.3910  221.1430 C   0  0  0  0  0  0  0  0  0  0  0  0
  139.5060   76.8640  220.5780 C   0  0  2  0  0  0  0  0  0  0  0  0
  138.5130   76.5150  221.7140 C   0  0  0  0  0  0  0  0  0  0  0  0
  138.7490   75.0930  222.2470 C   0  0  0  0  0  0  0  0  0  0  0  0
  138.6290   74.0910  221.1640 N   0  0  2  0  0  0  0  0  0  0  0  0
  138.7690   72.7040  221.5990 C   0  0  0  0  0  0  0  0  0  0  0  0
  137.8830   71.9140  221.3000 O   0  0  0  0  0  0  0  0  0  0  0  0
  139.9630   72.1570  222.3860 C   0  0  1  0  0  0  0  0  0  0  0  0
  141.0780   73.1130  222.3220 N   0  0  0  0  0  0  0  0  0  0  0  0
  139.5500   71.8700  223.8570 C   0  0  0  0  0  0  0  0  0  0  0  0
  138.5910   70.6540  223.9830 C   0  0  0  0  0  0  0  0  0  0  0  0
  139.3270   69.6990  224.8450 C   0  0  0  0  0  0  0  0  0  0  0  0
  138.9070   68.4210  225.2230 C   0  0  0  0  0  0  0  0  0  0  0  0
  139.7390   67.6550  226.0530 C   0  0  0  0  0  0  0  0  0  0  0  0
  140.9660   68.1760  226.4990 C   0  0  0  0  0  0  0  0  0  0  0  0
  141.3650   69.4660  226.1160 C   0  0  0  0  0  0  0  0  0  0  0  0
  140.5200   70.2120  225.2900 C   0  0  0  0  0  0  0  0  0  0  0  0
  140.7600   71.5850  224.7930 C   0  0  0  0  0  0  0  0  0  0  0  0
  139.6070   74.3690  220.0890 C   0  0  0  0  0  0  0  0  0  0  0  0
  139.3890   75.7700  219.4910 C   0  0  0  0  0  0  0  0  0  0  0  0
  141.5267   78.3677  218.7333 H   0  0  0  0  0  0  0  0  0  0  0  0
  142.9654   77.9560  217.7397 H   0  0  0  0  0  0  0  0  0  0  0  0
  141.5336   76.8713  217.7397 H   0  0  0  0  0  0  0  0  0  0  0  0
  143.8193   76.6526  219.5537 H   0  0  0  0  0  0  0  0  0  0  0  0
  142.4540   74.7880  221.9620 H   0  0  0  0  0  0  0  0  0  0  0  0
  141.2432   77.1732  223.7363 H   0  0  0  0  0  0  0  0  0  0  0  0
  141.9417   79.2003  225.0167 H   0  0  0  0  0  0  0  0  0  0  0  0
  142.3639   81.3502  223.8206 H   0  0  0  0  0  0  0  0  0  0  0  0
  142.1101   81.4739  221.3416 H   0  0  0  0  0  0  0  0  0  0  0  0
  141.4338   79.4494  220.0504 H   0  0  0  0  0  0  0  0  0  0  0  0
  139.2434   77.8453  220.1560 H   0  0  0  0  0  0  0  0  0  0  0  0
  138.6446   77.2324  222.5374 H   0  0  0  0  0  0  0  0  0  0  0  0
  137.4914   76.5684  221.3097 H   0  0  0  0  0  0  0  0  0  0  0  0
  139.7584   75.0346  222.6801 H   0  0  0  0  0  0  0  0  0  0  0  0
  137.9875   74.8752  223.0103 H   0  0  0  0  0  0  0  0  0  0  0  0
  137.6630   74.1750  220.7620 H   0  0  0  0  0  0  0  0  0  0  0  0
  140.2939   71.2084  221.9380 H   0  0  0  0  0  0  0  0  0  0  0  0
  141.6200   72.9440  221.4440 H   0  0  0  0  0  0  0  0  0  0  0  0
  140.6820   74.0750  222.2310 H   0  0  0  0  0  0  0  0  0  0  0  0
  139.0450   72.7959  224.1695 H   0  0  0  0  0  0  0  0  0  0  0  0
  137.6422   70.9524  224.4528 H   0  0  0  0  0  0  0  0  0  0  0  0
  138.3265   70.2227  223.0062 H   0  0  0  0  0  0  0  0  0  0  0  0
  137.9419   68.0230  224.8762 H   0  0  0  0  0  0  0  0  0  0  0  0
  139.4303   66.6435  226.3557 H   0  0  0  0  0  0  0  0  0  0  0  0
  141.6149   67.5714  227.1496 H   0  0  0  0  0  0  0  0  0  0  0  0
  142.3239   69.8816  226.4592 H   0  0  0  0  0  0  0  0  0  0  0  0
  140.7858   72.3025  225.6264 H   0  0  0  0  0  0  0  0  0  0  0  0
  141.7253   71.6824  224.2747 H   0  0  0  0  0  0  0  0  0  0  0  0
  140.6239   74.3098  220.5042 H   0  0  0  0  0  0  0  0  0  0  0  0
  139.4712   73.6236  219.2916 H   0  0  0  0  0  0  0  0  0  0  0  0
  140.1477   75.9516  218.7155 H   0  0  0  0  0  0  0  0  0  0  0  0
  138.3778   75.8124  219.0602 H   0  0  0  0  0  0  0  0  0  0  0  0
  1  2  1  0
  2  3  2  0
  3  4  1  0
  3  5  1  0
  5  6  1  0
  6  7  2  0
  7  8  1  0
  8  9  2  0
  9 10  1  0
 10 11  2  0
  5 12  1  0
 12 13  1  0
 13 14  1  0
 14 15  1  0
 15 16  1  0
 16 17  2  0
 16 18  1  0
 18 19  1  0
 18 20  1  0
 20 21  1  0
 21 22  1  0
 22 23  2  0
 23 24  1  0
 24 25  2  0
 25 26  1  0
 26 27  2  0
 27 28  1  0
 15 29  1  0
 29 30  1  0
 11  6  1  0
 30 12  1  0
 28 20  1  0
 27 22  1  0
  1 31  1  0
  1 32  1  0
  1 33  1  0
  2 34  1  0
  4 35  1  0
  7 36  1  0
  8 37  1  0
  9 38  1  0
 10 39  1  0
 11 40  1  0
 12 41  1  1
 13 42  1  0
 13 43  1  0
 14 44  1  0
 14 45  1  0
 15 46  1  1
 18 47  1  6
 19 48  1  0
 19 49  1  0
 20 50  1  0
 21 51  1  0
 21 52  1  0
 23 53  1  0
 24 54  1  0
 25 55  1  0
 26 56  1  0
 28 57  1  0
 28 58  1  0
 29 59  1  0
 29 60  1  0
 30 61  1  0
 30 62  1  0
M  CHG  1  15   1
M  END
>  <meeko>  (18) 
{"free_energy": -6.63, "intermolecular_energy": -9.31, "internal_energy": -3.07, "cluster_size": 2, "cluster_id": 6, "rank_in_cluster": 2}

$$$$

     RDKit          3D

 62 65  0  0  0  0  0  0  0  0999 V2000
  146.3100   73.5120  221.6320 C   0  0  0  0  0  0  0  0  0  0  0  0
  145.9750   72.6380  220.4620 C   0  0  0  0  0  0  0  0  0  0  0  0
  145.4990   73.1170  219.2990 C   0  0  0  0  0  0  0  0  0  0  0  0
  146.3380   73.3790  218.2110 O   0  0  0  0  0  0  0  0  0  0  0  0
  144.0850   73.3370  219.1380 N   0  0  0  0  0  0  0  0  0  0  0  0
  143.7120   74.6730  218.7570 C   0  0  0  0  0  0  0  0  0  0  0  0
  143.6980   75.0490  217.4040 C   0  0  0  0  0  0  0  0  0  0  0  0
  143.3480   76.3530  217.0410 C   0  0  0  0  0  0  0  0  0  0  0  0
  143.0260   77.2910  218.0260 C   0  0  0  0  0  0  0  0  0  0  0  0
  143.0510   76.9270  219.3750 C   0  0  0  0  0  0  0  0  0  0  0  0
  143.3940   75.6230  219.7420 C   0  0  0  0  0  0  0  0  0  0  0  0
  143.1480   72.1950  218.9540 C   0  0  2  0  0  0  0  0  0  0  0  0
  141.7940   72.6280  218.3380 C   0  0  0  0  0  0  0  0  0  0  0  0
  140.9750   73.4740  219.3260 C   0  0  0  0  0  0  0  0  0  0  0  0
  140.7280   72.7340  220.5840 N   0  0  2  0  0  0  0  0  0  0  0  0
  139.8930   73.4420  221.5520 C   0  0  0  0  0  0  0  0  0  0  0  0
  139.9110   73.0600  222.7150 O   0  0  0  0  0  0  0  0  0  0  0  0
  139.0110   74.6480  221.2210 C   0  0  1  0  0  0  0  0  0  0  0  0
  138.1150   74.9330  222.3510 N   0  0  0  0  0  0  0  0  0  0  0  0
  139.8940   75.8800  220.8770 C   0  0  0  0  0  0  0  0  0  0  0  0
  139.0800   77.2030  220.8190 C   0  0  0  0  0  0  0  0  0  0  0  0
  139.6990   78.0550  221.8610 C   0  0  0  0  0  0  0  0  0  0  0  0
  139.2950   79.3390  222.2370 C   0  0  0  0  0  0  0  0  0  0  0  0
  140.0070   80.0020  223.2480 C   0  0  0  0  0  0  0  0  0  0  0  0
  141.1110   79.3810  223.8600 C   0  0  0  0  0  0  0  0  0  0  0  0
  141.5060   78.0950  223.4600 C   0  0  0  0  0  0  0  0  0  0  0  0
  140.7840   77.4540  222.4500 C   0  0  0  0  0  0  0  0  0  0  0  0
  141.0520   76.1110  221.8900 C   0  0  0  0  0  0  0  0  0  0  0  0
  142.0080   72.3570  221.2230 C   0  0  0  0  0  0  0  0  0  0  0  0
  142.8530   71.4730  220.2900 C   0  0  0  0  0  0  0  0  0  0  0  0
  146.1021   72.9697  222.5662 H   0  0  0  0  0  0  0  0  0  0  0  0
  147.3755   73.7825  221.5944 H   0  0  0  0  0  0  0  0  0  0  0  0
  145.6982   74.4254  221.5944 H   0  0  0  0  0  0  0  0  0  0  0  0
  146.1256   71.5527  220.5590 H   0  0  0  0  0  0  0  0  0  0  0  0
  146.4740   74.3040  217.8230 H   0  0  0  0  0  0  0  0  0  0  0  0
  143.9630   74.3158  216.6280 H   0  0  0  0  0  0  0  0  0  0  0  0
  143.3260   76.6410  215.9796 H   0  0  0  0  0  0  0  0  0  0  0  0
  142.7526   78.3171  217.7389 H   0  0  0  0  0  0  0  0  0  0  0  0
  142.8004   77.6677  220.1487 H   0  0  0  0  0  0  0  0  0  0  0  0
  143.4151   75.3397  220.8047 H   0  0  0  0  0  0  0  0  0  0  0  0
  143.6602   71.5124  218.2600 H   0  0  0  0  0  0  0  0  0  0  0  0
  141.9862   73.2214  217.4320 H   0  0  0  0  0  0  0  0  0  0  0  0
  141.2178   71.7228  218.0959 H   0  0  0  0  0  0  0  0  0  0  0  0
  141.5292   74.3963  219.5546 H   0  0  0  0  0  0  0  0  0  0  0  0
  140.0053   73.7102  218.8635 H   0  0  0  0  0  0  0  0  0  0  0  0
  140.2090   71.8560  220.3370 H   0  0  0  0  0  0  0  0  0  0  0  0
  138.3937   74.4190  220.3398 H   0  0  0  0  0  0  0  0  0  0  0  0
  137.7580   74.0290  222.7370 H   0  0  0  0  0  0  0  0  0  0  0  0
  138.6790   75.3670  223.1160 H   0  0  0  0  0  0  0  0  0  0  0  0
  140.3059   75.6347  219.8870 H   0  0  0  0  0  0  0  0  0  0  0  0
  139.1679   77.6723  219.8280 H   0  0  0  0  0  0  0  0  0  0  0  0
  138.0046   77.0444  220.9877 H   0  0  0  0  0  0  0  0  0  0  0  0
  138.4348   79.8209  221.7494 H   0  0  0  0  0  0  0  0  0  0  0  0
  139.7010   81.0105  223.5631 H   0  0  0  0  0  0  0  0  0  0  0  0
  141.6654   79.9040  224.6531 H   0  0  0  0  0  0  0  0  0  0  0  0
  142.3677   77.6011  223.9327 H   0  0  0  0  0  0  0  0  0  0  0  0
  142.0264   76.0886  221.3800 H   0  0  0  0  0  0  0  0  0  0  0  0
  141.0938   75.3324  222.6659 H   0  0  0  0  0  0  0  0  0  0  0  0
  142.5730   73.2701  221.4620 H   0  0  0  0  0  0  0  0  0  0  0  0
  141.7875   71.7883  222.1384 H   0  0  0  0  0  0  0  0  0  0  0  0
  143.8048   71.2337  220.7867 H   0  0  0  0  0  0  0  0  0  0  0  0
  142.2881   70.5544  220.0731 H   0  0  0  0  0  0  0  0  0  0  0  0
  1  2  1  0
  2  3  2  0
  3  4  1  0
  3  5  1  0
  5  6  1  0
  6  7  2  0
  7  8  1  0
  8  9  2  0
  9 10  1  0
 10 11  2  0
  5 12  1  0
 12 13  1  0
 13 14  1  0
 14 15  1  0
 15 16  1  0
 16 17  2  0
 16 18  1  0
 18 19  1  0
 18 20  1  0
 20 21  1  0
 21 22  1  0
 22 23  2  0
 23 24  1  0
 24 25  2  0
 25 26  1  0
 26 27  2  0
 27 28  1  0
 15 29  1  0
 29 30  1  0
 11  6  1  0
 30 12  1  0
 28 20  1  0
 27 22  1  0
  1 31  1  0
  1 32  1  0
  1 33  1  0
  2 34  1  0
  4 35  1  0
  7 36  1  0
  8 37  1  0
  9 38  1  0
 10 39  1  0
 11 40  1  0
 12 41  1  1
 13 42  1  0
 13 43  1  0
 14 44  1  0
 14 45  1  0
 15 46  1  1
 18 47  1  6
 19 48  1  0
 19 49  1  0
 20 50  1  0
 21 51  1  0
 21 52  1  0
 23 53  1  0
 24 54  1  0
 25 55  1  0
 26 56  1  0
 28 57  1  0
 28 58  1  0
 29 59  1  0
 29 60  1  0
 30 61  1  0
 30 62  1  0
M  CHG  1  15   1
M  END
>  <meeko>  (19) 
{"free_energy": -7.75, "intermolecular_energy": -10.44, "internal_energy": -2.64, "cluster_size": 7, "cluster_id": 1, "rank_in_cluster": 1}

$$$$

     RDKit          3D

 62 65  0  0  0  0  0  0  0  0999 V2000
  146.2640   73.5570  221.6100 C   0  0  0  0  0  0  0  0  0  0  0  0
  145.8630   72.6780  220.4650 C   0  0  0  0  0  0  0  0  0  0  0  0
  145.4070   73.1570  219.2940 C   0  0  0  0  0  0  0  0  0  0  0  0
  146.2580   73.3800  218.2080 O   0  0  0  0  0  0  0  0  0  0  0  0
  144.0010   73.4180  219.1240 N   0  0  0  0  0  0  0  0  0  0  0  0
  143.6690   74.7650  218.7400 C   0  0  0  0  0  0  0  0  0  0  0  0
  143.3210   75.7160  219.7130 C   0  0  0  0  0  0  0  0  0  0  0  0
  142.9860   77.0200  219.3320 C   0  0  0  0  0  0  0  0  0  0  0  0
  142.9820   77.3740  217.9800 C   0  0  0  0  0  0  0  0  0  0  0  0
  143.3150   76.4280  217.0070 C   0  0  0  0  0  0  0  0  0  0  0  0
  143.6560   75.1270  217.3830 C   0  0  0  0  0  0  0  0  0  0  0  0
  143.0320   72.3050  218.9370 C   0  0  2  0  0  0  0  0  0  0  0  0
  141.6850   72.7810  218.3390 C   0  0  0  0  0  0  0  0  0  0  0  0
  140.8980   73.6360  219.3440 C   0  0  0  0  0  0  0  0  0  0  0  0
  140.6430   72.8880  220.5960 N   0  0  2  0  0  0  0  0  0  0  0  0
  139.8360   73.6060  221.5810 C   0  0  0  0  0  0  0  0  0  0  0  0
  139.9030   73.2490  222.7500 O   0  0  0  0  0  0  0  0  0  0  0  0
  138.9280   74.7950  221.2590 C   0  0  1  0  0  0  0  0  0  0  0  0
  138.0360   75.0600  222.3970 N   0  0  0  0  0  0  0  0  0  0  0  0
  139.7850   76.0450  220.9110 C   0  0  0  0  0  0  0  0  0  0  0  0
  138.9640   77.3640  220.9540 C   0  0  0  0  0  0  0  0  0  0  0  0
  139.6410   78.1790  221.9900 C   0  0  0  0  0  0  0  0  0  0  0  0
  139.2550   79.4450  222.4390 C   0  0  0  0  0  0  0  0  0  0  0  0
  140.0240   80.0730  223.4300 C   0  0  0  0  0  0  0  0  0  0  0  0
  141.1650   79.4360  223.9500 C   0  0  0  0  0  0  0  0  0  0  0  0
  141.5400   78.1690  223.4780 C   0  0  0  0  0  0  0  0  0  0  0  0
  140.7610   77.5620  222.4890 C   0  0  0  0  0  0  0  0  0  0  0  0
  141.0010   76.2440  221.8610 C   0  0  0  0  0  0  0  0  0  0  0  0
  141.9180   72.4690  221.2180 C   0  0  0  0  0  0  0  0  0  0  0  0
  142.7300   71.5740  220.2660 C   0  0  0  0  0  0  0  0  0  0  0  0
  146.0332   73.0510  222.5590 H   0  0  0  0  0  0  0  0  0  0  0  0
  147.3438   73.7599  221.5558 H   0  0  0  0  0  0  0  0  0  0  0  0
  145.7095   74.5055  221.5558 H   0  0  0  0  0  0  0  0  0  0  0  0
  145.9456   71.5880  220.5881 H   0  0  0  0  0  0  0  0  0  0  0  0
  146.4100   74.2930  217.7970 H   0  0  0  0  0  0  0  0  0  0  0  0
  143.3118   75.4353  220.7765 H   0  0  0  0  0  0  0  0  0  0  0  0
  142.7257   77.7666  220.0967 H   0  0  0  0  0  0  0  0  0  0  0  0
  142.7163   78.3988  217.6814 H   0  0  0  0  0  0  0  0  0  0  0  0
  143.3085   76.7085  215.9434 H   0  0  0  0  0  0  0  0  0  0  0  0
  143.9151   74.3839  216.6144 H   0  0  0  0  0  0  0  0  0  0  0  0
  143.5199   71.6174  218.2305 H   0  0  0  0  0  0  0  0  0  0  0  0
  141.8848   73.3800  217.4383 H   0  0  0  0  0  0  0  0  0  0  0  0
  141.0828   71.8943  218.0916 H   0  0  0  0  0  0  0  0  0  0  0  0
  141.4784   74.5407  219.5779 H   0  0  0  0  0  0  0  0  0  0  0  0
  139.9306   73.9028  218.8934 H   0  0  0  0  0  0  0  0  0  0  0  0
  140.0990   72.0270  220.3440 H   0  0  0  0  0  0  0  0  0  0  0  0
  138.3083   74.5562  220.3821 H   0  0  0  0  0  0  0  0  0  0  0  0
  137.8150   74.1560  222.8720 H   0  0  0  0  0  0  0  0  0  0  0  0
  138.5580   75.6310  223.0980 H   0  0  0  0  0  0  0  0  0  0  0  0
  140.1379   75.8403  219.8894 H   0  0  0  0  0  0  0  0  0  0  0  0
  138.9905   77.8721  219.9788 H   0  0  0  0  0  0  0  0  0  0  0  0
  137.9014   77.1921  221.1805 H   0  0  0  0  0  0  0  0  0  0  0  0
  138.3649   79.9397  222.0231 H   0  0  0  0  0  0  0  0  0  0  0  0
  139.7337   81.0668  223.8016 H   0  0  0  0  0  0  0  0  0  0  0  0
  141.7643   79.9318  224.7279 H   0  0  0  0  0  0  0  0  0  0  0  0
  142.4305   77.6628  223.8789 H   0  0  0  0  0  0  0  0  0  0  0  0
  141.9429   76.2486  221.2929 H   0  0  0  0  0  0  0  0  0  0  0  0
  141.0932   75.4357  222.6014 H   0  0  0  0  0  0  0  0  0  0  0  0
  142.5097   73.3635  221.4625 H   0  0  0  0  0  0  0  0  0  0  0  0
  141.6909   71.8954  222.1287 H   0  0  0  0  0  0  0  0  0  0  0  0
  143.6795   71.3025  220.7505 H   0  0  0  0  0  0  0  0  0  0  0  0
  142.1385   70.6737  220.0431 H   0  0  0  0  0  0  0  0  0  0  0  0
  1  2  1  0
  2  3  2  0
  3  4  1  0
  3  5  1  0
  5  6  1  0
  6  7  2  0
  7  8  1  0
  8  9  2  0
  9 10  1  0
 10 11  2  0
  5 12  1  0
 12 13  1  0
 13 14  1  0
 14 15  1  0
 15 16  1  0
 16 17  2  0
 16 18  1  0
 18 19  1  0
 18 20  1  0
 20 21  1  0
 21 22  1  0
 22 23  2  0
 23 24  1  0
 24 25  2  0
 25 26  1  0
 26 27  2  0
 27 28  1  0
 15 29  1  0
 29 30  1  0
 11  6  1  0
 30 12  1  0
 28 20  1  0
 27 22  1  0
  1 31  1  0
  1 32  1  0
  1 33  1  0
  2 34  1  0
  4 35  1  0
  7 36  1  0
  8 37  1  0
  9 38  1  0
 10 39  1  0
 11 40  1  0
 12 41  1  1
 13 42  1  0
 13 43  1  0
 14 44  1  0
 14 45  1  0
 15 46  1  1
 18 47  1  6
 19 48  1  0
 19 49  1  0
 20 50  1  0
 21 51  1  0
 21 52  1  0
 23 53  1  0
 24 54  1  0
 25 55  1  0
 26 56  1  0
 28 57  1  0
 28 58  1  0
 29 59  1  0
 29 60  1  0
 30 61  1  0
 30 62  1  0
M  CHG  1  15   1
M  END
>  <meeko>  (20) 
{"free_energy": -7.67, "intermolecular_energy": -10.35, "internal_energy": -2.66, "cluster_size": 7, "cluster_id": 1, "rank_in_cluster": 4}

$$$$
