
     RDKit          3D

 44 47  0  0  0  0  0  0  0  0999 V2000
  134.4370   68.3170  226.1820 H   0  0  0  0  0  0  0  0  0  0  0  0
  133.7870   69.0860  226.4570 N   0  0  0  0  0  0  0  0  0  0  0  0
  133.9930   70.3400  226.1850 C   0  0  0  0  0  0  0  0  0  0  0  0
  133.2450   71.2850  226.8250 N   0  0  0  0  0  0  0  0  0  0  0  0
  133.4120   72.6160  226.5890 C   0  0  0  0  0  0  0  0  0  0  0  0
  132.6730   73.5220  227.2740 N   0  0  0  0  0  0  0  0  0  0  0  0
  132.8230   74.8570  227.0770 C   0  0  0  0  0  0  0  0  0  0  0  0
  132.0340   75.7450  227.8160 C   0  0  0  0  0  0  0  0  0  0  0  0
  132.1830   77.1160  227.6280 C   0  0  0  0  0  0  0  0  0  0  0  0
  133.1130   77.5900  226.7080 C   0  0  0  0  0  0  0  0  0  0  0  0
  133.8890   76.6830  225.9820 C   0  0  0  0  0  0  0  0  0  0  0  0
  133.7440   75.3290  226.1650 N   0  0  0  0  0  0  0  0  0  0  0  0
  134.5090   74.4400  225.4480 C   0  0  0  0  0  0  0  0  0  0  0  0
  135.3580   74.8560  224.6090 O   0  0  0  0  0  0  0  0  0  0  0  0
  134.3550   73.0570  225.6490 C   0  0  0  0  0  0  0  0  0  0  0  0
  135.1210   72.1060  224.9630 C   0  0  0  0  0  0  0  0  0  0  0  0
  134.9700   70.7430  225.2450 C   0  0  0  0  0  0  0  0  0  0  0  0
  135.8880   69.7850  224.5940 C   0  0  0  0  0  0  0  0  0  0  0  0
  135.4040   68.5260  224.2570 O   0  0  0  0  0  0  0  0  0  0  0  0
  137.1200   70.1000  224.3040 N   0  0  0  0  0  0  0  0  0  0  0  0
  138.3000   69.2570  224.5300 C   0  0  1  0  0  0  0  0  0  0  0  0
  139.0870   69.1300  223.2260 C   0  0  0  0  0  0  0  0  0  0  0  0
  139.1810   69.8300  225.6230 C   0  0  0  0  0  0  0  0  0  0  0  0
  139.9550   70.9840  225.3950 C   0  0  0  0  0  0  0  0  0  0  0  0
  140.7170   71.5380  226.4280 C   0  0  0  0  0  0  0  0  0  0  0  0
  140.7180   70.9450  227.6930 C   0  0  0  0  0  0  0  0  0  0  0  0
  139.9650   69.7920  227.9260 C   0  0  0  0  0  0  0  0  0  0  0  0
  139.2040   69.2320  226.8960 C   0  0  0  0  0  0  0  0  0  0  0  0
  132.5290   70.9830  227.5250 H   0  0  0  0  0  0  0  0  0  0  0  0
  131.3006   75.3622  228.5409 H   0  0  0  0  0  0  0  0  0  0  0  0
  131.5677   77.8223  228.2047 H   0  0  0  0  0  0  0  0  0  0  0  0
  133.2365   78.6720  226.5532 H   0  0  0  0  0  0  0  0  0  0  0  0
  134.6249   77.0574  225.2552 H   0  0  0  0  0  0  0  0  0  0  0  0
  135.8437   72.4311  224.2001 H   0  0  0  0  0  0  0  0  0  0  0  0
  134.5000   68.2070  224.5840 H   0  0  0  0  0  0  0  0  0  0  0  0
  137.9657   68.2617  224.8579 H   0  0  0  0  0  0  0  0  0  0  0  0
  140.1494   68.9586  223.4541 H   0  0  0  0  0  0  0  0  0  0  0  0
  138.6960   68.2833  222.6427 H   0  0  0  0  0  0  0  0  0  0  0  0
  138.9821   70.0567  222.6427 H   0  0  0  0  0  0  0  0  0  0  0  0
  139.9601   71.4518  224.3995 H   0  0  0  0  0  0  0  0  0  0  0  0
  141.3165   72.4419  226.2445 H   0  0  0  0  0  0  0  0  0  0  0  0
  141.3125   71.3867  228.5063 H   0  0  0  0  0  0  0  0  0  0  0  0
  139.9709   69.3240  228.9215 H   0  0  0  0  0  0  0  0  0  0  0  0
  138.6199   68.3186  227.0819 H   0  0  0  0  0  0  0  0  0  0  0  0
  1  2  1  0
  2  3  2  0
  3  4  1  0
  4  5  1  0
  5  6  1  0
  6  7  2  0
  7  8  1  0
  8  9  2  0
  9 10  1  0
 10 11  2  0
 11 12  1  0
 12 13  1  0
 13 14  2  0
 13 15  1  0
 15 16  1  0
 16 17  2  0
 17 18  1  0
 18 19  1  0
 18 20  2  0
 20 21  1  0
 21 22  1  0
 21 23  1  0
 23 24  2  0
 24 25  1  0
 25 26  2  0
 26 27  1  0
 27 28  2  0
 17  3  1  0
 28 23  1  0
 15  5  2  0
 12  7  1  0
  4 29  1  0
  8 30  1  0
  9 31  1  0
 10 32  1  0
 11 33  1  0
 16 34  1  0
 19 35  1  0
 21 36  1  1
 22 37  1  0
 22 38  1  0
 22 39  1  0
 24 40  1  0
 25 41  1  0
 26 42  1  0
 27 43  1  0
 28 44  1  0
M  END
>  <meeko>  (1) 
{"free_energy": -7.5, "intermolecular_energy": -9.29, "internal_energy": -1.48, "cluster_size": 7, "cluster_id": 1, "rank_in_cluster": 3}

$$$$

     RDKit          3D

 44 47  0  0  0  0  0  0  0  0999 V2000
  136.3400   77.2600  223.4650 H   0  0  0  0  0  0  0  0  0  0  0  0
  136.8790   76.4430  223.1010 N   0  0  0  0  0  0  0  0  0  0  0  0
  138.0160   76.5450  222.4780 C   0  0  0  0  0  0  0  0  0  0  0  0
  138.8020   75.4370  222.3540 N   0  0  0  0  0  0  0  0  0  0  0  0
  140.0010   75.4740  221.7100 C   0  0  0  0  0  0  0  0  0  0  0  0
  140.7330   74.3410  221.5790 N   0  0  0  0  0  0  0  0  0  0  0  0
  141.9250   74.3370  220.9290 C   0  0  0  0  0  0  0  0  0  0  0  0
  142.6350   73.1360  220.8220 C   0  0  0  0  0  0  0  0  0  0  0  0
  143.8560   73.1170  220.1540 C   0  0  0  0  0  0  0  0  0  0  0  0
  144.3590   74.2900  219.6000 C   0  0  0  0  0  0  0  0  0  0  0  0
  143.6310   75.4760  219.7210 C   0  0  0  0  0  0  0  0  0  0  0  0
  142.4260   75.4990  220.3810 N   0  0  0  0  0  0  0  0  0  0  0  0
  141.7140   76.6690  220.4970 C   0  0  0  0  0  0  0  0  0  0  0  0
  142.1590   77.7430  219.9990 O   0  0  0  0  0  0  0  0  0  0  0  0
  140.4800   76.6770  221.1710 C   0  0  0  0  0  0  0  0  0  0  0  0
  139.7010   77.8340  221.3030 C   0  0  0  0  0  0  0  0  0  0  0  0
  138.4500   77.7740  221.9290 C   0  0  0  0  0  0  0  0  0  0  0  0
  137.6070   78.9870  221.9310 C   0  0  0  0  0  0  0  0  0  0  0  0
  136.2260   78.8370  222.0030 O   0  0  0  0  0  0  0  0  0  0  0  0
  138.1220   80.1850  221.8960 N   0  0  0  0  0  0  0  0  0  0  0  0
  138.7950   80.8680  223.0070 C   0  0  1  0  0  0  0  0  0  0  0  0
  138.1050   80.4970  224.3200 C   0  0  0  0  0  0  0  0  0  0  0  0
  140.2660   80.5030  223.0630 C   0  0  0  0  0  0  0  0  0  0  0  0
  140.7100   79.4170  223.8420 C   0  0  0  0  0  0  0  0  0  0  0  0
  142.0600   79.0530  223.8400 C   0  0  0  0  0  0  0  0  0  0  0  0
  142.9780   79.7700  223.0680 C   0  0  0  0  0  0  0  0  0  0  0  0
  142.5500   80.8570  222.3030 C   0  0  0  0  0  0  0  0  0  0  0  0
  141.2010   81.2280  222.3040 C   0  0  0  0  0  0  0  0  0  0  0  0
  138.4720   74.5290  222.7550 H   0  0  0  0  0  0  0  0  0  0  0  0
  142.2308   72.2128  221.2629 H   0  0  0  0  0  0  0  0  0  0  0  0
  144.4214   72.1777  220.0644 H   0  0  0  0  0  0  0  0  0  0  0  0
  145.3231   74.2835  219.0705 H   0  0  0  0  0  0  0  0  0  0  0  0
  144.0275   76.4035  219.2822 H   0  0  0  0  0  0  0  0  0  0  0  0
  140.0735   78.7929  220.9135 H   0  0  0  0  0  0  0  0  0  0  0  0
  135.7970   77.9210  221.9530 H   0  0  0  0  0  0  0  0  0  0  0  0
  138.7263   81.9543  222.8483 H   0  0  0  0  0  0  0  0  0  0  0  0
  138.7239   80.8298  225.1663 H   0  0  0  0  0  0  0  0  0  0  0  0
  137.1220   80.9882  224.3692 H   0  0  0  0  0  0  0  0  0  0  0  0
  137.9726   79.4061  224.3692 H   0  0  0  0  0  0  0  0  0  0  0  0
  139.9916   78.8527  224.4547 H   0  0  0  0  0  0  0  0  0  0  0  0
  142.4000   78.2010  224.4470 H   0  0  0  0  0  0  0  0  0  0  0  0
  144.0385   79.4779  223.0629 H   0  0  0  0  0  0  0  0  0  0  0  0
  143.2746   81.4225  221.6987 H   0  0  0  0  0  0  0  0  0  0  0  0
  140.8704   82.0913  221.7079 H   0  0  0  0  0  0  0  0  0  0  0  0
  1  2  1  0
  2  3  2  0
  3  4  1  0
  4  5  1  0
  5  6  1  0
  6  7  2  0
  7  8  1  0
  8  9  2  0
  9 10  1  0
 10 11  2  0
 11 12  1  0
 12 13  1  0
 13 14  2  0
 13 15  1  0
 15 16  1  0
 16 17  2  0
 17 18  1  0
 18 19  1  0
 18 20  2  0
 20 21  1  0
 21 22  1  0
 21 23  1  0
 23 24  2  0
 24 25  1  0
 25 26  2  0
 26 27  1  0
 27 28  2  0
 17  3  1  0
 28 23  1  0
 15  5  2  0
 12  7  1  0
  4 29  1  0
  8 30  1  0
  9 31  1  0
 10 32  1  0
 11 33  1  0
 16 34  1  0
 19 35  1  0
 21 36  1  6
 22 37  1  0
 22 38  1  0
 22 39  1  0
 24 40  1  0
 25 41  1  0
 26 42  1  0
 27 43  1  0
 28 44  1  0
M  END
>  <meeko>  (2) 
{"free_energy": -6.56, "intermolecular_energy": -8.35, "internal_energy": -2.23, "cluster_size": 11, "cluster_id": 3, "rank_in_cluster": 5}

$$$$

     RDKit          3D

 44 47  0  0  0  0  0  0  0  0999 V2000
  134.4860   68.3460  226.3160 H   0  0  0  0  0  0  0  0  0  0  0  0
  133.7640   69.0890  226.4480 N   0  0  0  0  0  0  0  0  0  0  0  0
  133.9650   70.3480  226.1940 C   0  0  0  0  0  0  0  0  0  0  0  0
  133.2140   71.2800  226.8480 N   0  0  0  0  0  0  0  0  0  0  0  0
  133.3760   72.6150  226.6320 C   0  0  0  0  0  0  0  0  0  0  0  0
  132.6340   73.5080  227.3300 N   0  0  0  0  0  0  0  0  0  0  0  0
  132.7790   74.8460  227.1530 C   0  0  0  0  0  0  0  0  0  0  0  0
  131.9870   75.7200  227.9050 C   0  0  0  0  0  0  0  0  0  0  0  0
  132.1310   77.0950  227.7370 C   0  0  0  0  0  0  0  0  0  0  0  0
  133.0580   77.5860  226.8230 C   0  0  0  0  0  0  0  0  0  0  0  0
  133.8370   76.6920  226.0840 C   0  0  0  0  0  0  0  0  0  0  0  0
  133.6980   75.3350  226.2470 N   0  0  0  0  0  0  0  0  0  0  0  0
  134.4660   74.4600  225.5170 C   0  0  0  0  0  0  0  0  0  0  0  0
  135.3130   74.8910  224.6830 O   0  0  0  0  0  0  0  0  0  0  0  0
  134.3170   73.0730  225.6970 C   0  0  0  0  0  0  0  0  0  0  0  0
  135.0860   72.1350  224.9980 C   0  0  0  0  0  0  0  0  0  0  0  0
  134.9400   70.7670  225.2590 C   0  0  0  0  0  0  0  0  0  0  0  0
  135.8610   69.8230  224.5940 C   0  0  0  0  0  0  0  0  0  0  0  0
  135.4360   68.5150  224.3870 O   0  0  0  0  0  0  0  0  0  0  0  0
  137.0410   70.1900  224.1750 N   0  0  0  0  0  0  0  0  0  0  0  0
  138.2740   69.4010  224.2730 C   0  0  1  0  0  0  0  0  0  0  0  0
  139.0230   69.4660  222.9420 C   0  0  0  0  0  0  0  0  0  0  0  0
  139.1560   69.9040  225.3990 C   0  0  0  0  0  0  0  0  0  0  0  0
  139.9270   71.0720  225.2450 C   0  0  0  0  0  0  0  0  0  0  0  0
  140.6910   71.5590  226.3100 C   0  0  0  0  0  0  0  0  0  0  0  0
  140.6970   70.8840  227.5340 C   0  0  0  0  0  0  0  0  0  0  0  0
  139.9470   69.7170  227.6920 C   0  0  0  0  0  0  0  0  0  0  0  0
  139.1840   69.2230  226.6300 C   0  0  0  0  0  0  0  0  0  0  0  0
  132.5000   70.9650  227.5440 H   0  0  0  0  0  0  0  0  0  0  0  0
  131.2552   75.3238  228.6244 H   0  0  0  0  0  0  0  0  0  0  0  0
  131.5140   77.7904  228.3249 H   0  0  0  0  0  0  0  0  0  0  0  0
  133.1768   78.6706  226.6831 H   0  0  0  0  0  0  0  0  0  0  0  0
  134.5711   77.0797  225.3624 H   0  0  0  0  0  0  0  0  0  0  0  0
  135.8080   72.4740  224.2405 H   0  0  0  0  0  0  0  0  0  0  0  0
  134.4840   68.2360  224.5900 H   0  0  0  0  0  0  0  0  0  0  0  0
  138.0093   68.3569  224.4960 H   0  0  0  0  0  0  0  0  0  0  0  0
  140.1023   69.5597  223.1328 H   0  0  0  0  0  0  0  0  0  0  0  0
  138.8305   68.5478  222.3677 H   0  0  0  0  0  0  0  0  0  0  0  0
  138.6752   70.3373  222.3677 H   0  0  0  0  0  0  0  0  0  0  0  0
  139.9283   71.6040  224.2822 H   0  0  0  0  0  0  0  0  0  0  0  0
  141.2880   72.4743  226.1845 H   0  0  0  0  0  0  0  0  0  0  0  0
  141.2929   71.2724  228.3731 H   0  0  0  0  0  0  0  0  0  0  0  0
  139.9566   69.1849  228.6547 H   0  0  0  0  0  0  0  0  0  0  0  0
  138.6029   68.2977  226.7572 H   0  0  0  0  0  0  0  0  0  0  0  0
  1  2  1  0
  2  3  2  0
  3  4  1  0
  4  5  1  0
  5  6  1  0
  6  7  2  0
  7  8  1  0
  8  9  2  0
  9 10  1  0
 10 11  2  0
 11 12  1  0
 12 13  1  0
 13 14  2  0
 13 15  1  0
 15 16  1  0
 16 17  2  0
 17 18  1  0
 18 19  1  0
 18 20  2  0
 20 21  1  0
 21 22  1  0
 21 23  1  0
 23 24  2  0
 24 25  1  0
 25 26  2  0
 26 27  1  0
 27 28  2  0
 17  3  1  0
 28 23  1  0
 15  5  2  0
 12  7  1  0
  4 29  1  0
  8 30  1  0
  9 31  1  0
 10 32  1  0
 11 33  1  0
 16 34  1  0
 19 35  1  0
 21 36  1  1
 22 37  1  0
 22 38  1  0
 22 39  1  0
 24 40  1  0
 25 41  1  0
 26 42  1  0
 27 43  1  0
 28 44  1  0
M  END
>  <meeko>  (3) 
{"free_energy": -7.38, "intermolecular_energy": -9.17, "internal_energy": -1.51, "cluster_size": 7, "cluster_id": 1, "rank_in_cluster": 7}

$$$$

     RDKit          3D

 44 47  0  0  0  0  0  0  0  0999 V2000
  136.3320   77.2870  223.4510 H   0  0  0  0  0  0  0  0  0  0  0  0
  136.8770   76.4680  223.1020 N   0  0  0  0  0  0  0  0  0  0  0  0
  138.0170   76.5660  222.4840 C   0  0  0  0  0  0  0  0  0  0  0  0
  138.8020   75.4560  222.3700 N   0  0  0  0  0  0  0  0  0  0  0  0
  140.0040   75.4880  221.7320 C   0  0  0  0  0  0  0  0  0  0  0  0
  140.7360   74.3550  221.6090 N   0  0  0  0  0  0  0  0  0  0  0  0
  141.9310   74.3460  220.9660 C   0  0  0  0  0  0  0  0  0  0  0  0
  142.6400   73.1430  220.8670 C   0  0  0  0  0  0  0  0  0  0  0  0
  143.8650   73.1190  220.2060 C   0  0  0  0  0  0  0  0  0  0  0  0
  144.3720   74.2900  219.6500 C   0  0  0  0  0  0  0  0  0  0  0  0
  143.6450   75.4780  219.7610 C   0  0  0  0  0  0  0  0  0  0  0  0
  142.4370   75.5050  220.4150 N   0  0  0  0  0  0  0  0  0  0  0  0
  141.7260   76.6760  220.5220 C   0  0  0  0  0  0  0  0  0  0  0  0
  142.1740   77.7470  220.0220 O   0  0  0  0  0  0  0  0  0  0  0  0
  140.4880   76.6890  221.1890 C   0  0  0  0  0  0  0  0  0  0  0  0
  139.7090   77.8470  221.3120 C   0  0  0  0  0  0  0  0  0  0  0  0
  138.4560   77.7920  221.9320 C   0  0  0  0  0  0  0  0  0  0  0  0
  137.6140   79.0060  221.9240 C   0  0  0  0  0  0  0  0  0  0  0  0
  136.2330   78.8580  221.9790 O   0  0  0  0  0  0  0  0  0  0  0  0
  138.1310   80.2030  221.8950 N   0  0  0  0  0  0  0  0  0  0  0  0
  138.8040   80.8790  223.0110 C   0  0  1  0  0  0  0  0  0  0  0  0
  138.1060   80.5110  224.3200 C   0  0  0  0  0  0  0  0  0  0  0  0
  140.2720   80.5040  223.0720 C   0  0  0  0  0  0  0  0  0  0  0  0
  140.7040   79.4080  223.8430 C   0  0  0  0  0  0  0  0  0  0  0  0
  142.0520   79.0350  223.8450 C   0  0  0  0  0  0  0  0  0  0  0  0
  142.9790   79.7540  223.0850 C   0  0  0  0  0  0  0  0  0  0  0  0
  142.5630   80.8510  222.3290 C   0  0  0  0  0  0  0  0  0  0  0  0
  141.2170   81.2310  222.3260 C   0  0  0  0  0  0  0  0  0  0  0  0
  138.4690   74.5500  222.7720 H   0  0  0  0  0  0  0  0  0  0  0  0
  142.2316   72.2221  221.3089 H   0  0  0  0  0  0  0  0  0  0  0  0
  144.4298   72.1787  220.1235 H   0  0  0  0  0  0  0  0  0  0  0  0
  145.3393   74.2802  219.1263 H   0  0  0  0  0  0  0  0  0  0  0  0
  144.0446   76.4028  219.3195 H   0  0  0  0  0  0  0  0  0  0  0  0
  140.0842   78.8036  220.9194 H   0  0  0  0  0  0  0  0  0  0  0  0
  135.8030   77.9410  221.9430 H   0  0  0  0  0  0  0  0  0  0  0  0
  138.7432   81.9661  222.8545 H   0  0  0  0  0  0  0  0  0  0  0  0
  138.7243   80.8370  225.1694 H   0  0  0  0  0  0  0  0  0  0  0  0
  137.1268   81.0101  224.3663 H   0  0  0  0  0  0  0  0  0  0  0  0
  137.9646   79.4211  224.3663 H   0  0  0  0  0  0  0  0  0  0  0  0
  139.9784   78.8427  224.4463 H   0  0  0  0  0  0  0  0  0  0  0  0
  142.3831   78.1748  224.4454 H   0  0  0  0  0  0  0  0  0  0  0  0
  144.0376   79.4549  223.0828 H   0  0  0  0  0  0  0  0  0  0  0  0
  143.2949   81.4176  221.7346 H   0  0  0  0  0  0  0  0  0  0  0  0
  140.8958   82.1029  221.7372 H   0  0  0  0  0  0  0  0  0  0  0  0
  1  2  1  0
  2  3  2  0
  3  4  1  0
  4  5  1  0
  5  6  1  0
  6  7  2  0
  7  8  1  0
  8  9  2  0
  9 10  1  0
 10 11  2  0
 11 12  1  0
 12 13  1  0
 13 14  2  0
 13 15  1  0
 15 16  1  0
 16 17  2  0
 17 18  1  0
 18 19  1  0
 18 20  2  0
 20 21  1  0
 21 22  1  0
 21 23  1  0
 23 24  2  0
 24 25  1  0
 25 26  2  0
 26 27  1  0
 27 28  2  0
 17  3  1  0
 28 23  1  0
 15  5  2  0
 12  7  1  0
  4 29  1  0
  8 30  1  0
  9 31  1  0
 10 32  1  0
 11 33  1  0
 16 34  1  0
 19 35  1  0
 21 36  1  6
 22 37  1  0
 22 38  1  0
 22 39  1  0
 24 40  1  0
 25 41  1  0
 26 42  1  0
 27 43  1  0
 28 44  1  0
M  END
>  <meeko>  (4) 
{"free_energy": -6.58, "intermolecular_energy": -8.37, "internal_energy": -2.23, "cluster_size": 11, "cluster_id": 3, "rank_in_cluster": 2}

$$$$

     RDKit          3D

 44 47  0  0  0  0  0  0  0  0999 V2000
  139.7780   70.8120  223.4990 H   0  0  0  0  0  0  0  0  0  0  0  0
  138.9310   71.4230  223.4680 N   0  0  0  0  0  0  0  0  0  0  0  0
  137.8040   71.1280  224.0430 C   0  0  0  0  0  0  0  0  0  0  0  0
  136.7870   72.0370  224.0060 N   0  0  0  0  0  0  0  0  0  0  0  0
  135.5790   71.7900  224.5850 C   0  0  0  0  0  0  0  0  0  0  0  0
  134.5850   72.7050  224.4920 N   0  0  0  0  0  0  0  0  0  0  0  0
  133.3640   72.4870  225.0430 C   0  0  0  0  0  0  0  0  0  0  0  0
  132.3750   73.4680  224.9120 C   0  0  0  0  0  0  0  0  0  0  0  0
  131.1160   73.2530  225.4680 C   0  0  0  0  0  0  0  0  0  0  0  0
  130.8540   72.0680  226.1480 C   0  0  0  0  0  0  0  0  0  0  0  0
  131.8580   71.1040  226.2650 C   0  0  0  0  0  0  0  0  0  0  0  0
  133.1020   71.3120  225.7180 N   0  0  0  0  0  0  0  0  0  0  0  0
  134.0870   70.3610  225.8370 C   0  0  0  0  0  0  0  0  0  0  0  0
  133.8630   69.2790  226.4510 O   0  0  0  0  0  0  0  0  0  0  0  0
  135.3530   70.5850  225.2690 C   0  0  0  0  0  0  0  0  0  0  0  0
  136.3890   69.6450  225.3390 C   0  0  0  0  0  0  0  0  0  0  0  0
  137.6110   69.8920  224.7030 C   0  0  0  0  0  0  0  0  0  0  0  0
  138.6270   68.8190  224.6930 C   0  0  0  0  0  0  0  0  0  0  0  0
  139.4250   68.6700  223.5640 O   0  0  0  0  0  0  0  0  0  0  0  0
  138.8110   68.0340  225.7180 N   0  0  0  0  0  0  0  0  0  0  0  0
  139.9000   68.1340  226.6960 C   0  0  1  0  0  0  0  0  0  0  0  0
  141.1260   67.3910  226.1660 C   0  0  0  0  0  0  0  0  0  0  0  0
  140.2450   69.5820  226.9850 C   0  0  0  0  0  0  0  0  0  0  0  0
  141.0650   70.3160  226.1060 C   0  0  0  0  0  0  0  0  0  0  0  0
  141.3280   71.6680  226.3500 C   0  0  0  0  0  0  0  0  0  0  0  0
  140.7820   72.2960  227.4730 C   0  0  0  0  0  0  0  0  0  0  0  0
  139.9800   71.5720  228.3580 C   0  0  0  0  0  0  0  0  0  0  0  0
  139.7160   70.2200  228.1210 C   0  0  0  0  0  0  0  0  0  0  0  0
  136.9320   72.9460  223.5090 H   0  0  0  0  0  0  0  0  0  0  0  0
  132.5902   74.4028  224.3736 H   0  0  0  0  0  0  0  0  0  0  0  0
  130.3315   74.0178  225.3697 H   0  0  0  0  0  0  0  0  0  0  0  0
  129.8626   71.8913  226.5907 H   0  0  0  0  0  0  0  0  0  0  0  0
  131.6507   70.1664  226.8017 H   0  0  0  0  0  0  0  0  0  0  0  0
  136.2415   68.7083  225.8965 H   0  0  0  0  0  0  0  0  0  0  0  0
  139.4790   69.3990  222.8620 H   0  0  0  0  0  0  0  0  0  0  0  0
  139.5704   67.6746  227.6395 H   0  0  0  0  0  0  0  0  0  0  0  0
  141.7277   67.0264  227.0116 H   0  0  0  0  0  0  0  0  0  0  0  0
  140.8009   66.5378  225.5525 H   0  0  0  0  0  0  0  0  0  0  0  0
  141.7318   68.0740  225.5525 H   0  0  0  0  0  0  0  0  0  0  0  0
  141.5005   69.8239  225.2238 H   0  0  0  0  0  0  0  0  0  0  0  0
  141.9652   72.2375  225.6574 H   0  0  0  0  0  0  0  0  0  0  0  0
  140.9841   73.3610  227.6599 H   0  0  0  0  0  0  0  0  0  0  0  0
  139.5551   72.0670  229.2437 H   0  0  0  0  0  0  0  0  0  0  0  0
  139.0915   69.6524  228.8265 H   0  0  0  0  0  0  0  0  0  0  0  0
  1  2  1  0
  2  3  2  0
  3  4  1  0
  4  5  1  0
  5  6  1  0
  6  7  2  0
  7  8  1  0
  8  9  2  0
  9 10  1  0
 10 11  2  0
 11 12  1  0
 12 13  1  0
 13 14  2  0
 13 15  1  0
 15 16  1  0
 16 17  2  0
 17 18  1  0
 18 19  1  0
 18 20  2  0
 20 21  1  0
 21 22  1  0
 21 23  1  0
 23 24  2  0
 24 25  1  0
 25 26  2  0
 26 27  1  0
 27 28  2  0
 17  3  1  0
 28 23  1  0
 15  5  2  0
 12  7  1  0
  4 29  1  0
  8 30  1  0
  9 31  1  0
 10 32  1  0
 11 33  1  0
 16 34  1  0
 19 35  1  0
 21 36  1  1
 22 37  1  0
 22 38  1  0
 22 39  1  0
 24 40  1  0
 25 41  1  0
 26 42  1  0
 27 43  1  0
 28 44  1  0
M  END
>  <meeko>  (5) 
{"free_energy": -6.99, "intermolecular_energy": -8.78, "internal_energy": -1.87, "cluster_size": 2, "cluster_id": 2, "rank_in_cluster": 2}

$$$$

     RDKit          3D

 44 47  0  0  0  0  0  0  0  0999 V2000
  136.2940   77.3180  223.4390 H   0  0  0  0  0  0  0  0  0  0  0  0
  136.8430   76.4960  223.1000 N   0  0  0  0  0  0  0  0  0  0  0  0
  137.9780   76.5920  222.4740 C   0  0  0  0  0  0  0  0  0  0  0  0
  138.7630   75.4830  222.3600 N   0  0  0  0  0  0  0  0  0  0  0  0
  139.9610   75.5120  221.7140 C   0  0  0  0  0  0  0  0  0  0  0  0
  140.6930   74.3780  221.5920 N   0  0  0  0  0  0  0  0  0  0  0  0
  141.8840   74.3670  220.9410 C   0  0  0  0  0  0  0  0  0  0  0  0
  142.5930   73.1640  220.8430 C   0  0  0  0  0  0  0  0  0  0  0  0
  143.8130   73.1380  220.1730 C   0  0  0  0  0  0  0  0  0  0  0  0
  144.3150   74.3050  219.6080 C   0  0  0  0  0  0  0  0  0  0  0  0
  143.5890   75.4930  219.7180 C   0  0  0  0  0  0  0  0  0  0  0  0
  142.3850   75.5230  220.3800 N   0  0  0  0  0  0  0  0  0  0  0  0
  141.6730   76.6950  220.4870 C   0  0  0  0  0  0  0  0  0  0  0  0
  142.1180   77.7630  219.9770 O   0  0  0  0  0  0  0  0  0  0  0  0
  140.4400   76.7100  221.1610 C   0  0  0  0  0  0  0  0  0  0  0  0
  139.6620   77.8680  221.2840 C   0  0  0  0  0  0  0  0  0  0  0  0
  138.4130   77.8150  221.9130 C   0  0  0  0  0  0  0  0  0  0  0  0
  137.5700   79.0290  221.9040 C   0  0  0  0  0  0  0  0  0  0  0  0
  136.1890   78.8800  221.9530 O   0  0  0  0  0  0  0  0  0  0  0  0
  138.0870   80.2270  221.8810 N   0  0  0  0  0  0  0  0  0  0  0  0
  138.7610   80.8970  222.9990 C   0  0  1  0  0  0  0  0  0  0  0  0
  138.0620   80.5270  224.3060 C   0  0  0  0  0  0  0  0  0  0  0  0
  140.2280   80.5180  223.0590 C   0  0  0  0  0  0  0  0  0  0  0  0
  140.6580   79.4220  223.8300 C   0  0  0  0  0  0  0  0  0  0  0  0
  142.0040   79.0440  223.8320 C   0  0  0  0  0  0  0  0  0  0  0  0
  142.9330   79.7600  223.0700 C   0  0  0  0  0  0  0  0  0  0  0  0
  142.5190   80.8580  222.3140 C   0  0  0  0  0  0  0  0  0  0  0  0
  141.1740   81.2410  222.3110 C   0  0  0  0  0  0  0  0  0  0  0  0
  138.4330   74.5780  222.7700 H   0  0  0  0  0  0  0  0  0  0  0  0
  142.1887   72.2451  221.2925 H   0  0  0  0  0  0  0  0  0  0  0  0
  144.3778   72.1976  220.0909 H   0  0  0  0  0  0  0  0  0  0  0  0
  145.2785   74.2927  219.0774 H   0  0  0  0  0  0  0  0  0  0  0  0
  143.9856   76.4157  219.2694 H   0  0  0  0  0  0  0  0  0  0  0  0
  140.0342   78.8230  220.8846 H   0  0  0  0  0  0  0  0  0  0  0  0
  135.7610   77.9620  221.9300 H   0  0  0  0  0  0  0  0  0  0  0  0
  138.7030   81.9848  222.8463 H   0  0  0  0  0  0  0  0  0  0  0  0
  138.6784   80.8533  225.1566 H   0  0  0  0  0  0  0  0  0  0  0  0
  137.0819   81.0244  224.3512 H   0  0  0  0  0  0  0  0  0  0  0  0
  137.9223   79.4368  224.3512 H   0  0  0  0  0  0  0  0  0  0  0  0
  139.9311   78.8596  224.4344 H   0  0  0  0  0  0  0  0  0  0  0  0
  142.3325   78.1833  224.4330 H   0  0  0  0  0  0  0  0  0  0  0  0
  143.9906   79.4576  223.0665 H   0  0  0  0  0  0  0  0  0  0  0  0
  143.2520   81.4230  221.7195 H   0  0  0  0  0  0  0  0  0  0  0  0
  140.8545   82.1123  221.7205 H   0  0  0  0  0  0  0  0  0  0  0  0
  1  2  1  0
  2  3  2  0
  3  4  1  0
  4  5  1  0
  5  6  1  0
  6  7  2  0
  7  8  1  0
  8  9  2  0
  9 10  1  0
 10 11  2  0
 11 12  1  0
 12 13  1  0
 13 14  2  0
 13 15  1  0
 15 16  1  0
 16 17  2  0
 17 18  1  0
 18 19  1  0
 18 20  2  0
 20 21  1  0
 21 22  1  0
 21 23  1  0
 23 24  2  0
 24 25  1  0
 25 26  2  0
 26 27  1  0
 27 28  2  0
 17  3  1  0
 28 23  1  0
 15  5  2  0
 12  7  1  0
  4 29  1  0
  8 30  1  0
  9 31  1  0
 10 32  1  0
 11 33  1  0
 16 34  1  0
 19 35  1  0
 21 36  1  6
 22 37  1  0
 22 38  1  0
 22 39  1  0
 24 40  1  0
 25 41  1  0
 26 42  1  0
 27 43  1  0
 28 44  1  0
M  END
>  <meeko>  (6) 
{"free_energy": -6.56, "intermolecular_energy": -8.35, "internal_energy": -2.22, "cluster_size": 11, "cluster_id": 3, "rank_in_cluster": 7}

$$$$

     RDKit          3D

 44 47  0  0  0  0  0  0  0  0999 V2000
  136.2930   77.3850  223.4110 H   0  0  0  0  0  0  0  0  0  0  0  0
  136.8710   76.5640  223.1220 N   0  0  0  0  0  0  0  0  0  0  0  0
  138.0050   76.6620  222.4940 C   0  0  0  0  0  0  0  0  0  0  0  0
  138.7930   75.5540  222.3810 N   0  0  0  0  0  0  0  0  0  0  0  0
  139.9900   75.5860  221.7320 C   0  0  0  0  0  0  0  0  0  0  0  0
  140.7250   74.4540  221.6120 N   0  0  0  0  0  0  0  0  0  0  0  0
  141.9150   74.4440  220.9590 C   0  0  0  0  0  0  0  0  0  0  0  0
  142.6270   73.2440  220.8640 C   0  0  0  0  0  0  0  0  0  0  0  0
  143.8460   73.2190  220.1920 C   0  0  0  0  0  0  0  0  0  0  0  0
  144.3440   74.3870  219.6230 C   0  0  0  0  0  0  0  0  0  0  0  0
  143.6140   75.5730  219.7310 C   0  0  0  0  0  0  0  0  0  0  0  0
  142.4110   75.6010  220.3950 N   0  0  0  0  0  0  0  0  0  0  0  0
  141.6970   76.7710  220.5000 C   0  0  0  0  0  0  0  0  0  0  0  0
  142.1370   77.8390  219.9870 O   0  0  0  0  0  0  0  0  0  0  0  0
  140.4640   76.7840  221.1770 C   0  0  0  0  0  0  0  0  0  0  0  0
  139.6830   77.9400  221.2970 C   0  0  0  0  0  0  0  0  0  0  0  0
  138.4350   77.8850  221.9290 C   0  0  0  0  0  0  0  0  0  0  0  0
  137.5890   79.0960  221.9180 C   0  0  0  0  0  0  0  0  0  0  0  0
  136.2070   78.9410  221.9190 O   0  0  0  0  0  0  0  0  0  0  0  0
  138.1010   80.2960  221.9370 N   0  0  0  0  0  0  0  0  0  0  0  0
  138.7810   80.9250  223.0750 C   0  0  1  0  0  0  0  0  0  0  0  0
  138.0860   80.5120  224.3720 C   0  0  0  0  0  0  0  0  0  0  0  0
  140.2470   80.5400  223.1170 C   0  0  0  0  0  0  0  0  0  0  0  0
  140.6780   79.4250  223.8610 C   0  0  0  0  0  0  0  0  0  0  0  0
  142.0230   79.0430  223.8460 C   0  0  0  0  0  0  0  0  0  0  0  0
  142.9490   79.7710  223.0940 C   0  0  0  0  0  0  0  0  0  0  0  0
  142.5340   80.8870  222.3640 C   0  0  0  0  0  0  0  0  0  0  0  0
  141.1910   81.2750  222.3780 C   0  0  0  0  0  0  0  0  0  0  0  0
  138.4670   74.6500  222.7930 H   0  0  0  0  0  0  0  0  0  0  0  0
  142.2263   72.3255  221.3175 H   0  0  0  0  0  0  0  0  0  0  0  0
  144.4130   72.2799  220.1112 H   0  0  0  0  0  0  0  0  0  0  0  0
  145.3069   74.3765  219.0913 H   0  0  0  0  0  0  0  0  0  0  0  0
  144.0068   76.4958  219.2791 H   0  0  0  0  0  0  0  0  0  0  0  0
  140.0513   78.8947  220.8933 H   0  0  0  0  0  0  0  0  0  0  0  0
  135.7830   78.0220  221.9450 H   0  0  0  0  0  0  0  0  0  0  0  0
  138.7252   82.0175  222.9594 H   0  0  0  0  0  0  0  0  0  0  0  0
  138.6759   80.8625  225.2318 H   0  0  0  0  0  0  0  0  0  0  0  0
  137.0821   80.9602  224.4089 H   0  0  0  0  0  0  0  0  0  0  0  0
  137.9998   79.4160  224.4089 H   0  0  0  0  0  0  0  0  0  0  0  0
  139.9529   78.8515  224.4571 H   0  0  0  0  0  0  0  0  0  0  0  0
  142.3525   78.1687  224.4266 H   0  0  0  0  0  0  0  0  0  0  0  0
  144.0054   79.4649  223.0770 H   0  0  0  0  0  0  0  0  0  0  0  0
  143.2653   81.4618  221.7769 H   0  0  0  0  0  0  0  0  0  0  0  0
  140.8711   82.1598  221.8080 H   0  0  0  0  0  0  0  0  0  0  0  0
  1  2  1  0
  2  3  2  0
  3  4  1  0
  4  5  1  0
  5  6  1  0
  6  7  2  0
  7  8  1  0
  8  9  2  0
  9 10  1  0
 10 11  2  0
 11 12  1  0
 12 13  1  0
 13 14  2  0
 13 15  1  0
 15 16  1  0
 16 17  2  0
 17 18  1  0
 18 19  1  0
 18 20  2  0
 20 21  1  0
 21 22  1  0
 21 23  1  0
 23 24  2  0
 24 25  1  0
 25 26  2  0
 26 27  1  0
 27 28  2  0
 17  3  1  0
 28 23  1  0
 15  5  2  0
 12  7  1  0
  4 29  1  0
  8 30  1  0
  9 31  1  0
 10 32  1  0
 11 33  1  0
 16 34  1  0
 19 35  1  0
 21 36  1  6
 22 37  1  0
 22 38  1  0
 22 39  1  0
 24 40  1  0
 25 41  1  0
 26 42  1  0
 27 43  1  0
 28 44  1  0
M  END
>  <meeko>  (7) 
{"free_energy": -6.56, "intermolecular_energy": -8.35, "internal_energy": -2.23, "cluster_size": 11, "cluster_id": 3, "rank_in_cluster": 6}

$$$$

     RDKit          3D

 44 47  0  0  0  0  0  0  0  0999 V2000
  139.6750   71.0210  223.5290 H   0  0  0  0  0  0  0  0  0  0  0  0
  138.7760   71.5520  223.4770 N   0  0  0  0  0  0  0  0  0  0  0  0
  137.6810   71.1800  224.0710 C   0  0  0  0  0  0  0  0  0  0  0  0
  136.6250   72.0430  224.1060 N   0  0  0  0  0  0  0  0  0  0  0  0
  135.4480   71.7160  224.7070 C   0  0  0  0  0  0  0  0  0  0  0  0
  134.4120   72.5890  224.6870 N   0  0  0  0  0  0  0  0  0  0  0  0
  133.2190   72.2900  225.2620 C   0  0  0  0  0  0  0  0  0  0  0  0
  132.1840   73.2310  225.2060 C   0  0  0  0  0  0  0  0  0  0  0  0
  130.9540   72.9350  225.7870 C   0  0  0  0  0  0  0  0  0  0  0  0
  130.7660   71.7090  226.4170 C   0  0  0  0  0  0  0  0  0  0  0  0
  131.8140   70.7870  226.4600 C   0  0  0  0  0  0  0  0  0  0  0  0
  133.0300   71.0760  225.8880 N   0  0  0  0  0  0  0  0  0  0  0  0
  134.0590   70.1660  225.9340 C   0  0  0  0  0  0  0  0  0  0  0  0
  133.9010   69.0480  226.5030 O   0  0  0  0  0  0  0  0  0  0  0  0
  135.2960   70.4720  225.3400 C   0  0  0  0  0  0  0  0  0  0  0  0
  136.3730   69.5770  225.3360 C   0  0  0  0  0  0  0  0  0  0  0  0
  137.5630   69.9080  224.6780 C   0  0  0  0  0  0  0  0  0  0  0  0
  138.6240   68.8840  224.5880 C   0  0  0  0  0  0  0  0  0  0  0  0
  139.4440   68.8730  223.4650 O   0  0  0  0  0  0  0  0  0  0  0  0
  138.8260   68.0150  225.5400 N   0  0  0  0  0  0  0  0  0  0  0  0
  139.7900   68.1490  226.6390 C   0  0  1  0  0  0  0  0  0  0  0  0
  141.0650   67.3830  226.2890 C   0  0  0  0  0  0  0  0  0  0  0  0
  140.1080   69.6060  226.9120 C   0  0  0  0  0  0  0  0  0  0  0  0
  139.6380   70.2390  228.0780 C   0  0  0  0  0  0  0  0  0  0  0  0
  139.9860   71.5660  228.3500 C   0  0  0  0  0  0  0  0  0  0  0  0
  140.8000   72.2730  227.4610 C   0  0  0  0  0  0  0  0  0  0  0  0
  141.2600   71.6580  226.2940 C   0  0  0  0  0  0  0  0  0  0  0  0
  140.9120   70.3330  226.0160 C   0  0  0  0  0  0  0  0  0  0  0  0
  136.7140   72.9790  223.6480 H   0  0  0  0  0  0  0  0  0  0  0  0
  132.3416   74.1981  224.7061 H   0  0  0  0  0  0  0  0  0  0  0  0
  130.1342   73.6674  225.7481 H   0  0  0  0  0  0  0  0  0  0  0  0
  129.7973   71.4672  226.8787 H   0  0  0  0  0  0  0  0  0  0  0  0
  131.6645   69.8175  226.9578 H   0  0  0  0  0  0  0  0  0  0  0  0
  136.2833   68.6098  225.8522 H   0  0  0  0  0  0  0  0  0  0  0  0
  139.3730   69.5950  222.7580 H   0  0  0  0  0  0  0  0  0  0  0  0
  139.3461   67.7269  227.5527 H   0  0  0  0  0  0  0  0  0  0  0  0
  141.5746   67.0769  227.2145 H   0  0  0  0  0  0  0  0  0  0  0  0
  140.8066   66.4905  225.7003 H   0  0  0  0  0  0  0  0  0  0  0  0
  141.7317   68.0303  225.7003 H   0  0  0  0  0  0  0  0  0  0  0  0
  138.9939   69.6874  228.7786 H   0  0  0  0  0  0  0  0  0  0  0  0
  139.6185   72.0538  229.2649 H   0  0  0  0  0  0  0  0  0  0  0  0
  141.0787   73.3143  227.6802 H   0  0  0  0  0  0  0  0  0  0  0  0
  141.8969   72.2172  225.5929 H   0  0  0  0  0  0  0  0  0  0  0  0
  141.2690   69.8563  225.0912 H   0  0  0  0  0  0  0  0  0  0  0  0
  1  2  1  0
  2  3  2  0
  3  4  1  0
  4  5  1  0
  5  6  1  0
  6  7  2  0
  7  8  1  0
  8  9  2  0
  9 10  1  0
 10 11  2  0
 11 12  1  0
 12 13  1  0
 13 14  2  0
 13 15  1  0
 15 16  1  0
 16 17  2  0
 17 18  1  0
 18 19  1  0
 18 20  2  0
 20 21  1  0
 21 22  1  0
 21 23  1  0
 23 24  2  0
 24 25  1  0
 25 26  2  0
 26 27  1  0
 27 28  2  0
 17  3  1  0
 28 23  1  0
 15  5  2  0
 12  7  1  0
  4 29  1  0
  8 30  1  0
  9 31  1  0
 10 32  1  0
 11 33  1  0
 16 34  1  0
 19 35  1  0
 21 36  1  1
 22 37  1  0
 22 38  1  0
 22 39  1  0
 24 40  1  0
 25 41  1  0
 26 42  1  0
 27 43  1  0
 28 44  1  0
M  END
>  <meeko>  (8) 
{"free_energy": -7.12, "intermolecular_energy": -8.91, "internal_energy": -1.84, "cluster_size": 2, "cluster_id": 2, "rank_in_cluster": 1}

$$$$

     RDKit          3D

 44 47  0  0  0  0  0  0  0  0999 V2000
  136.3290   77.2070  223.5030 H   0  0  0  0  0  0  0  0  0  0  0  0
  136.8590   76.3930  223.1190 N   0  0  0  0  0  0  0  0  0  0  0  0
  137.9960   76.4960  222.4970 C   0  0  0  0  0  0  0  0  0  0  0  0
  138.7840   75.3900  222.3750 N   0  0  0  0  0  0  0  0  0  0  0  0
  139.9830   75.4280  221.7310 C   0  0  0  0  0  0  0  0  0  0  0  0
  140.7180   74.2970  221.6010 N   0  0  0  0  0  0  0  0  0  0  0  0
  141.9100   74.2940  220.9530 C   0  0  0  0  0  0  0  0  0  0  0  0
  142.6220   73.0940  220.8470 C   0  0  0  0  0  0  0  0  0  0  0  0
  143.8440   73.0760  220.1800 C   0  0  0  0  0  0  0  0  0  0  0  0
  144.3450   74.2500  219.6260 C   0  0  0  0  0  0  0  0  0  0  0  0
  143.6150   75.4350  219.7450 C   0  0  0  0  0  0  0  0  0  0  0  0
  142.4100   75.4570  220.4040 N   0  0  0  0  0  0  0  0  0  0  0  0
  141.6950   76.6250  220.5190 C   0  0  0  0  0  0  0  0  0  0  0  0
  142.1380   77.6990  220.0200 O   0  0  0  0  0  0  0  0  0  0  0  0
  140.4600   76.6320  221.1910 C   0  0  0  0  0  0  0  0  0  0  0  0
  139.6790   77.7870  221.3210 C   0  0  0  0  0  0  0  0  0  0  0  0
  138.4280   77.7260  221.9470 C   0  0  0  0  0  0  0  0  0  0  0  0
  137.5830   78.9380  221.9470 C   0  0  0  0  0  0  0  0  0  0  0  0
  136.2040   78.7860  222.0440 O   0  0  0  0  0  0  0  0  0  0  0  0
  138.0960   80.1360  221.8860 N   0  0  0  0  0  0  0  0  0  0  0  0
  138.7750   80.8390  222.9800 C   0  0  1  0  0  0  0  0  0  0  0  0
  138.0930   80.4950  224.3040 C   0  0  0  0  0  0  0  0  0  0  0  0
  140.2460   80.4740  223.0350 C   0  0  0  0  0  0  0  0  0  0  0  0
  140.6950   79.4100  223.8390 C   0  0  0  0  0  0  0  0  0  0  0  0
  142.0450   79.0440  223.8370 C   0  0  0  0  0  0  0  0  0  0  0  0
  142.9570   79.7390  223.0380 C   0  0  0  0  0  0  0  0  0  0  0  0
  142.5240   80.8050  222.2470 C   0  0  0  0  0  0  0  0  0  0  0  0
  141.1760   81.1770  222.2490 C   0  0  0  0  0  0  0  0  0  0  0  0
  138.4550   74.4810  222.7760 H   0  0  0  0  0  0  0  0  0  0  0  0
  142.2187   72.1705  221.2880 H   0  0  0  0  0  0  0  0  0  0  0  0
  144.4110   72.1376  220.0913 H   0  0  0  0  0  0  0  0  0  0  0  0
  145.3098   74.2450  219.0977 H   0  0  0  0  0  0  0  0  0  0  0  0
  144.0103   76.3626  219.3052 H   0  0  0  0  0  0  0  0  0  0  0  0
  140.0497   78.7459  220.9298 H   0  0  0  0  0  0  0  0  0  0  0  0
  135.7730   77.8720  221.9780 H   0  0  0  0  0  0  0  0  0  0  0  0
  138.7052   81.9220  222.8004 H   0  0  0  0  0  0  0  0  0  0  0  0
  138.7315   80.8170  225.1399 H   0  0  0  0  0  0  0  0  0  0  0  0
  137.1239   81.0121  224.3625 H   0  0  0  0  0  0  0  0  0  0  0  0
  137.9329   79.4083  224.3625 H   0  0  0  0  0  0  0  0  0  0  0  0
  139.9807   78.8634  224.4723 H   0  0  0  0  0  0  0  0  0  0  0  0
  142.3890   78.2087  224.4646 H   0  0  0  0  0  0  0  0  0  0  0  0
  144.0172   79.4459  223.0323 H   0  0  0  0  0  0  0  0  0  0  0  0
  143.2441   81.3529  221.6215 H   0  0  0  0  0  0  0  0  0  0  0  0
  140.8414   82.0242  221.6323 H   0  0  0  0  0  0  0  0  0  0  0  0
  1  2  1  0
  2  3  2  0
  3  4  1  0
  4  5  1  0
  5  6  1  0
  6  7  2  0
  7  8  1  0
  8  9  2  0
  9 10  1  0
 10 11  2  0
 11 12  1  0
 12 13  1  0
 13 14  2  0
 13 15  1  0
 15 16  1  0
 16 17  2  0
 17 18  1  0
 18 19  1  0
 18 20  2  0
 20 21  1  0
 21 22  1  0
 21 23  1  0
 23 24  2  0
 24 25  1  0
 25 26  2  0
 26 27  1  0
 27 28  2  0
 17  3  1  0
 28 23  1  0
 15  5  2  0
 12  7  1  0
  4 29  1  0
  8 30  1  0
  9 31  1  0
 10 32  1  0
 11 33  1  0
 16 34  1  0
 19 35  1  0
 21 36  1  6
 22 37  1  0
 22 38  1  0
 22 39  1  0
 24 40  1  0
 25 41  1  0
 26 42  1  0
 27 43  1  0
 28 44  1  0
M  END
>  <meeko>  (9) 
{"free_energy": -6.56, "intermolecular_energy": -8.35, "internal_energy": -2.23, "cluster_size": 11, "cluster_id": 3, "rank_in_cluster": 8}

$$$$

     RDKit          3D

 44 47  0  0  0  0  0  0  0  0999 V2000
  136.2950   77.2910  223.4640 H   0  0  0  0  0  0  0  0  0  0  0  0
  136.8440   76.4690  223.1260 N   0  0  0  0  0  0  0  0  0  0  0  0
  137.9760   76.5640  222.4940 C   0  0  0  0  0  0  0  0  0  0  0  0
  138.7620   75.4550  222.3800 N   0  0  0  0  0  0  0  0  0  0  0  0
  139.9570   75.4840  221.7280 C   0  0  0  0  0  0  0  0  0  0  0  0
  140.6900   74.3510  221.6070 N   0  0  0  0  0  0  0  0  0  0  0  0
  141.8780   74.3390  220.9500 C   0  0  0  0  0  0  0  0  0  0  0  0
  142.5880   73.1370  220.8540 C   0  0  0  0  0  0  0  0  0  0  0  0
  143.8050   73.1100  220.1780 C   0  0  0  0  0  0  0  0  0  0  0  0
  144.3030   74.2760  219.6060 C   0  0  0  0  0  0  0  0  0  0  0  0
  143.5750   75.4640  219.7150 C   0  0  0  0  0  0  0  0  0  0  0  0
  142.3740   75.4940  220.3820 N   0  0  0  0  0  0  0  0  0  0  0  0
  141.6610   76.6650  220.4880 C   0  0  0  0  0  0  0  0  0  0  0  0
  142.1010   77.7320  219.9720 O   0  0  0  0  0  0  0  0  0  0  0  0
  140.4310   76.6810  221.1680 C   0  0  0  0  0  0  0  0  0  0  0  0
  139.6520   77.8380  221.2900 C   0  0  0  0  0  0  0  0  0  0  0  0
  138.4050   77.7860  221.9260 C   0  0  0  0  0  0  0  0  0  0  0  0
  137.5610   78.9980  221.9160 C   0  0  0  0  0  0  0  0  0  0  0  0
  136.1800   78.8460  221.9700 O   0  0  0  0  0  0  0  0  0  0  0  0
  138.0750   80.1970  221.8870 N   0  0  0  0  0  0  0  0  0  0  0  0
  138.7500   80.8730  223.0010 C   0  0  1  0  0  0  0  0  0  0  0  0
  138.0520   80.5080  224.3110 C   0  0  0  0  0  0  0  0  0  0  0  0
  140.2170   80.4950  223.0620 C   0  0  0  0  0  0  0  0  0  0  0  0
  140.6480   79.4050  223.8420 C   0  0  0  0  0  0  0  0  0  0  0  0
  141.9950   79.0280  223.8450 C   0  0  0  0  0  0  0  0  0  0  0  0
  142.9220   79.7370  223.0760 C   0  0  0  0  0  0  0  0  0  0  0  0
  142.5070   80.8290  222.3110 C   0  0  0  0  0  0  0  0  0  0  0  0
  141.1620   81.2120  222.3070 C   0  0  0  0  0  0  0  0  0  0  0  0
  138.4360   74.5520  222.7950 H   0  0  0  0  0  0  0  0  0  0  0  0
  142.1873   72.2195  221.3096 H   0  0  0  0  0  0  0  0  0  0  0  0
  144.3705   72.1700  220.0966 H   0  0  0  0  0  0  0  0  0  0  0  0
  145.2641   74.2631  219.0711 H   0  0  0  0  0  0  0  0  0  0  0  0
  143.9680   76.3859  219.2615 H   0  0  0  0  0  0  0  0  0  0  0  0
  140.0208   78.7918  220.8847 H   0  0  0  0  0  0  0  0  0  0  0  0
  135.7530   77.9280  221.9520 H   0  0  0  0  0  0  0  0  0  0  0  0
  138.6916   81.9600  222.8428 H   0  0  0  0  0  0  0  0  0  0  0  0
  138.6722   80.8323  225.1597 H   0  0  0  0  0  0  0  0  0  0  0  0
  137.0746   81.0104  224.3580 H   0  0  0  0  0  0  0  0  0  0  0  0
  137.9070   79.4186  224.3580 H   0  0  0  0  0  0  0  0  0  0  0  0
  139.9221   78.8473  224.4519 H   0  0  0  0  0  0  0  0  0  0  0  0
  142.3250   78.1728  224.4531 H   0  0  0  0  0  0  0  0  0  0  0  0
  143.9796   79.4345  223.0734 H   0  0  0  0  0  0  0  0  0  0  0  0
  143.2392   81.3888  221.7106 H   0  0  0  0  0  0  0  0  0  0  0  0
  140.8417   82.0787  221.7101 H   0  0  0  0  0  0  0  0  0  0  0  0
  1  2  1  0
  2  3  2  0
  3  4  1  0
  4  5  1  0
  5  6  1  0
  6  7  2  0
  7  8  1  0
  8  9  2  0
  9 10  1  0
 10 11  2  0
 11 12  1  0
 12 13  1  0
 13 14  2  0
 13 15  1  0
 15 16  1  0
 16 17  2  0
 17 18  1  0
 18 19  1  0
 18 20  2  0
 20 21  1  0
 21 22  1  0
 21 23  1  0
 23 24  2  0
 24 25  1  0
 25 26  2  0
 26 27  1  0
 27 28  2  0
 17  3  1  0
 28 23  1  0
 15  5  2  0
 12  7  1  0
  4 29  1  0
  8 30  1  0
  9 31  1  0
 10 32  1  0
 11 33  1  0
 16 34  1  0
 19 35  1  0
 21 36  1  6
 22 37  1  0
 22 38  1  0
 22 39  1  0
 24 40  1  0
 25 41  1  0
 26 42  1  0
 27 43  1  0
 28 44  1  0
M  END
>  <meeko>  (10) 
{"free_energy": -6.55, "intermolecular_energy": -8.34, "internal_energy": -2.23, "cluster_size": 11, "cluster_id": 3, "rank_in_cluster": 9}

$$$$

     RDKit          3D

 44 47  0  0  0  0  0  0  0  0999 V2000
  136.3390   77.2300  223.4820 H   0  0  0  0  0  0  0  0  0  0  0  0
  136.8680   76.4140  223.1010 N   0  0  0  0  0  0  0  0  0  0  0  0
  138.0050   76.5150  222.4800 C   0  0  0  0  0  0  0  0  0  0  0  0
  138.7910   75.4070  222.3570 N   0  0  0  0  0  0  0  0  0  0  0  0
  139.9910   75.4420  221.7140 C   0  0  0  0  0  0  0  0  0  0  0  0
  140.7220   74.3090  221.5840 N   0  0  0  0  0  0  0  0  0  0  0  0
  141.9150   74.3040  220.9360 C   0  0  0  0  0  0  0  0  0  0  0  0
  142.6240   73.1020  220.8300 C   0  0  0  0  0  0  0  0  0  0  0  0
  143.8460   73.0810  220.1630 C   0  0  0  0  0  0  0  0  0  0  0  0
  144.3510   74.2540  219.6100 C   0  0  0  0  0  0  0  0  0  0  0  0
  143.6240   75.4410  219.7300 C   0  0  0  0  0  0  0  0  0  0  0  0
  142.4180   75.4650  220.3880 N   0  0  0  0  0  0  0  0  0  0  0  0
  141.7070   76.6360  220.5040 C   0  0  0  0  0  0  0  0  0  0  0  0
  142.1530   77.7090  220.0060 O   0  0  0  0  0  0  0  0  0  0  0  0
  140.4710   76.6450  221.1750 C   0  0  0  0  0  0  0  0  0  0  0  0
  139.6930   77.8020  221.3060 C   0  0  0  0  0  0  0  0  0  0  0  0
  138.4420   77.7440  221.9310 C   0  0  0  0  0  0  0  0  0  0  0  0
  137.6000   78.9580  221.9310 C   0  0  0  0  0  0  0  0  0  0  0  0
  136.2200   78.8100  222.0220 O   0  0  0  0  0  0  0  0  0  0  0  0
  138.1160   80.1550  221.8780 N   0  0  0  0  0  0  0  0  0  0  0  0
  138.7790   80.8580  222.9830 C   0  0  1  0  0  0  0  0  0  0  0  0
  138.0810   80.5080  224.2970 C   0  0  0  0  0  0  0  0  0  0  0  0
  140.2500   80.4980  223.0550 C   0  0  0  0  0  0  0  0  0  0  0  0
  140.6890   79.4110  223.8350 C   0  0  0  0  0  0  0  0  0  0  0  0
  142.0400   79.0510  223.8480 C   0  0  0  0  0  0  0  0  0  0  0  0
  142.9640   79.7740  223.0880 C   0  0  0  0  0  0  0  0  0  0  0  0
  142.5420   80.8630  222.3230 C   0  0  0  0  0  0  0  0  0  0  0  0
  141.1920   81.2290  222.3090 C   0  0  0  0  0  0  0  0  0  0  0  0
  138.4590   74.4990  222.7570 H   0  0  0  0  0  0  0  0  0  0  0  0
  142.2183   72.1795  221.2709 H   0  0  0  0  0  0  0  0  0  0  0  0
  144.4101   72.1409  220.0735 H   0  0  0  0  0  0  0  0  0  0  0  0
  145.3160   74.2466  219.0820 H   0  0  0  0  0  0  0  0  0  0  0  0
  144.0222   76.3682  219.2921 H   0  0  0  0  0  0  0  0  0  0  0  0
  140.0666   78.7603  220.9161 H   0  0  0  0  0  0  0  0  0  0  0  0
  135.7870   77.8960  221.9620 H   0  0  0  0  0  0  0  0  0  0  0  0
  138.7081   81.9414  222.8061 H   0  0  0  0  0  0  0  0  0  0  0  0
  138.7105   80.8237  225.1420 H   0  0  0  0  0  0  0  0  0  0  0  0
  137.1125   81.0271  224.3473 H   0  0  0  0  0  0  0  0  0  0  0  0
  137.9176   79.4214  224.3473 H   0  0  0  0  0  0  0  0  0  0  0  0
  139.9653   78.8421  224.4372 H   0  0  0  0  0  0  0  0  0  0  0  0
  142.3759   78.1985  224.4566 H   0  0  0  0  0  0  0  0  0  0  0  0
  144.0252   79.4845  223.0927 H   0  0  0  0  0  0  0  0  0  0  0  0
  143.2721   81.4339  221.7305 H   0  0  0  0  0  0  0  0  0  0  0  0
  140.8654   82.0929  221.7115 H   0  0  0  0  0  0  0  0  0  0  0  0
  1  2  1  0
  2  3  2  0
  3  4  1  0
  4  5  1  0
  5  6  1  0
  6  7  2  0
  7  8  1  0
  8  9  2  0
  9 10  1  0
 10 11  2  0
 11 12  1  0
 12 13  1  0
 13 14  2  0
 13 15  1  0
 15 16  1  0
 16 17  2  0
 17 18  1  0
 18 19  1  0
 18 20  2  0
 20 21  1  0
 21 22  1  0
 21 23  1  0
 23 24  2  0
 24 25  1  0
 25 26  2  0
 26 27  1  0
 27 28  2  0
 17  3  1  0
 28 23  1  0
 15  5  2  0
 12  7  1  0
  4 29  1  0
  8 30  1  0
  9 31  1  0
 10 32  1  0
 11 33  1  0
 16 34  1  0
 19 35  1  0
 21 36  1  6
 22 37  1  0
 22 38  1  0
 22 39  1  0
 24 40  1  0
 25 41  1  0
 26 42  1  0
 27 43  1  0
 28 44  1  0
M  END
>  <meeko>  (11) 
{"free_energy": -6.58, "intermolecular_energy": -8.37, "internal_energy": -2.22, "cluster_size": 11, "cluster_id": 3, "rank_in_cluster": 1}

$$$$

     RDKit          3D

 44 47  0  0  0  0  0  0  0  0999 V2000
  134.5340   68.3590  226.2100 H   0  0  0  0  0  0  0  0  0  0  0  0
  133.8680   69.1220  226.4660 N   0  0  0  0  0  0  0  0  0  0  0  0
  134.0500   70.3740  226.1660 C   0  0  0  0  0  0  0  0  0  0  0  0
  133.3050   71.3200  226.8060 N   0  0  0  0  0  0  0  0  0  0  0  0
  133.4490   72.6480  226.5420 C   0  0  0  0  0  0  0  0  0  0  0  0
  132.7140   73.5580  227.2280 N   0  0  0  0  0  0  0  0  0  0  0  0
  132.8420   74.8900  227.0020 C   0  0  0  0  0  0  0  0  0  0  0  0
  132.0590   75.7820  227.7440 C   0  0  0  0  0  0  0  0  0  0  0  0
  132.1850   77.1510  227.5270 C   0  0  0  0  0  0  0  0  0  0  0  0
  133.0860   77.6200  226.5760 C   0  0  0  0  0  0  0  0  0  0  0  0
  133.8560   76.7090  225.8480 C   0  0  0  0  0  0  0  0  0  0  0  0
  133.7340   75.3570  226.0590 N   0  0  0  0  0  0  0  0  0  0  0  0
  134.4940   74.4650  225.3410 C   0  0  0  0  0  0  0  0  0  0  0  0
  135.3170   74.8770  224.4740 O   0  0  0  0  0  0  0  0  0  0  0  0
  134.3630   73.0840  225.5710 C   0  0  0  0  0  0  0  0  0  0  0  0
  135.1240   72.1300  224.8840 C   0  0  0  0  0  0  0  0  0  0  0  0
  134.9980   70.7710  225.1950 C   0  0  0  0  0  0  0  0  0  0  0  0
  135.9130   69.8130  224.5390 C   0  0  0  0  0  0  0  0  0  0  0  0
  135.4460   68.5340  224.2560 O   0  0  0  0  0  0  0  0  0  0  0  0
  137.1280   70.1440  224.1970 N   0  0  0  0  0  0  0  0  0  0  0  0
  138.3310   69.3250  224.3880 C   0  0  1  0  0  0  0  0  0  0  0  0
  139.1250   69.2810  223.0830 C   0  0  0  0  0  0  0  0  0  0  0  0
  139.1910   69.8710  225.5110 C   0  0  0  0  0  0  0  0  0  0  0  0
  139.9700   71.0290  225.3240 C   0  0  0  0  0  0  0  0  0  0  0  0
  140.7140   71.5580  226.3840 C   0  0  0  0  0  0  0  0  0  0  0  0
  140.6900   70.9350  227.6350 C   0  0  0  0  0  0  0  0  0  0  0  0
  139.9320   69.7780  227.8260 C   0  0  0  0  0  0  0  0  0  0  0  0
  139.1900   69.2430  226.7690 C   0  0  0  0  0  0  0  0  0  0  0  0
  132.6110   71.0220  227.5290 H   0  0  0  0  0  0  0  0  0  0  0  0
  131.3487   75.4034  228.4938 H   0  0  0  0  0  0  0  0  0  0  0  0
  131.5743   77.8599  228.1054 H   0  0  0  0  0  0  0  0  0  0  0  0
  133.1914   78.7005  226.3985 H   0  0  0  0  0  0  0  0  0  0  0  0
  134.5689   77.0791  225.0965 H   0  0  0  0  0  0  0  0  0  0  0  0
  135.8232   72.4497  224.0973 H   0  0  0  0  0  0  0  0  0  0  0  0
  134.5450   68.2200  224.5970 H   0  0  0  0  0  0  0  0  0  0  0  0
  138.0248   68.3059  224.6669 H   0  0  0  0  0  0  0  0  0  0  0  0
  140.1998   69.2214  223.3095 H   0  0  0  0  0  0  0  0  0  0  0  0
  138.8237   68.3982  222.5000 H   0  0  0  0  0  0  0  0  0  0  0  0
  138.9231   70.1917  222.5000 H   0  0  0  0  0  0  0  0  0  0  0  0
  139.9936   71.5199  224.3399 H   0  0  0  0  0  0  0  0  0  0  0  0
  141.3182   72.4647  226.2329 H   0  0  0  0  0  0  0  0  0  0  0  0
  141.2689   71.3566  228.4699 H   0  0  0  0  0  0  0  0  0  0  0  0
  139.9187   69.2866  228.8101 H   0  0  0  0  0  0  0  0  0  0  0  0
  138.6023   68.3259  226.9222 H   0  0  0  0  0  0  0  0  0  0  0  0
  1  2  1  0
  2  3  2  0
  3  4  1  0
  4  5  1  0
  5  6  1  0
  6  7  2  0
  7  8  1  0
  8  9  2  0
  9 10  1  0
 10 11  2  0
 11 12  1  0
 12 13  1  0
 13 14  2  0
 13 15  1  0
 15 16  1  0
 16 17  2  0
 17 18  1  0
 18 19  1  0
 18 20  2  0
 20 21  1  0
 21 22  1  0
 21 23  1  0
 23 24  2  0
 24 25  1  0
 25 26  2  0
 26 27  1  0
 27 28  2  0
 17  3  1  0
 28 23  1  0
 15  5  2  0
 12  7  1  0
  4 29  1  0
  8 30  1  0
  9 31  1  0
 10 32  1  0
 11 33  1  0
 16 34  1  0
 19 35  1  0
 21 36  1  1
 22 37  1  0
 22 38  1  0
 22 39  1  0
 24 40  1  0
 25 41  1  0
 26 42  1  0
 27 43  1  0
 28 44  1  0
M  END
>  <meeko>  (12) 
{"free_energy": -7.46, "intermolecular_energy": -9.25, "internal_energy": -1.5, "cluster_size": 7, "cluster_id": 1, "rank_in_cluster": 6}

$$$$

     RDKit          3D

 44 47  0  0  0  0  0  0  0  0999 V2000
  136.3330   77.2890  223.4480 H   0  0  0  0  0  0  0  0  0  0  0  0
  136.8790   76.4700  223.0990 N   0  0  0  0  0  0  0  0  0  0  0  0
  138.0150   76.5690  222.4750 C   0  0  0  0  0  0  0  0  0  0  0  0
  138.8030   75.4610  222.3600 N   0  0  0  0  0  0  0  0  0  0  0  0
  140.0020   75.4950  221.7150 C   0  0  0  0  0  0  0  0  0  0  0  0
  140.7350   74.3620  221.5920 N   0  0  0  0  0  0  0  0  0  0  0  0
  141.9280   74.3540  220.9430 C   0  0  0  0  0  0  0  0  0  0  0  0
  142.6390   73.1530  220.8440 C   0  0  0  0  0  0  0  0  0  0  0  0
  143.8600   73.1310  220.1760 C   0  0  0  0  0  0  0  0  0  0  0  0
  144.3620   74.3010  219.6150 C   0  0  0  0  0  0  0  0  0  0  0  0
  143.6330   75.4870  219.7270 C   0  0  0  0  0  0  0  0  0  0  0  0
  142.4270   75.5130  220.3860 N   0  0  0  0  0  0  0  0  0  0  0  0
  141.7140   76.6830  220.4940 C   0  0  0  0  0  0  0  0  0  0  0  0
  142.1570   77.7540  219.9890 O   0  0  0  0  0  0  0  0  0  0  0  0
  140.4800   76.6950  221.1670 C   0  0  0  0  0  0  0  0  0  0  0  0
  139.6990   77.8510  221.2910 C   0  0  0  0  0  0  0  0  0  0  0  0
  138.4490   77.7950  221.9180 C   0  0  0  0  0  0  0  0  0  0  0  0
  137.6040   79.0070  221.9110 C   0  0  0  0  0  0  0  0  0  0  0  0
  136.2230   78.8550  221.9720 O   0  0  0  0  0  0  0  0  0  0  0  0
  138.1180   80.2050  221.8770 N   0  0  0  0  0  0  0  0  0  0  0  0
  138.7930   80.8860  222.9880 C   0  0  1  0  0  0  0  0  0  0  0  0
  138.0930   80.5290  224.2990 C   0  0  0  0  0  0  0  0  0  0  0  0
  140.2590   80.5070  223.0530 C   0  0  0  0  0  0  0  0  0  0  0  0
  140.6880   79.4200  223.8390 C   0  0  0  0  0  0  0  0  0  0  0  0
  142.0350   79.0420  223.8450 C   0  0  0  0  0  0  0  0  0  0  0  0
  142.9640   79.7460  223.0730 C   0  0  0  0  0  0  0  0  0  0  0  0
  142.5500   80.8340  222.3020 C   0  0  0  0  0  0  0  0  0  0  0  0
  141.2060   81.2180  222.2950 C   0  0  0  0  0  0  0  0  0  0  0  0
  138.4740   74.5550  222.7670 H   0  0  0  0  0  0  0  0  0  0  0  0
  142.2358   72.2324  221.2911 H   0  0  0  0  0  0  0  0  0  0  0  0
  144.4261   72.1916  220.0919 H   0  0  0  0  0  0  0  0  0  0  0  0
  145.3268   74.2920  219.0867 H   0  0  0  0  0  0  0  0  0  0  0  0
  144.0289   76.4119  219.2823 H   0  0  0  0  0  0  0  0  0  0  0  0
  140.0698   78.8074  220.8937 H   0  0  0  0  0  0  0  0  0  0  0  0
  135.7960   77.9370  221.9390 H   0  0  0  0  0  0  0  0  0  0  0  0
  138.7364   81.9722  222.8235 H   0  0  0  0  0  0  0  0  0  0  0  0
  138.7175   80.8475  225.1467 H   0  0  0  0  0  0  0  0  0  0  0  0
  137.1208   81.0414  224.3469 H   0  0  0  0  0  0  0  0  0  0  0  0
  137.9369   79.4412  224.3469 H   0  0  0  0  0  0  0  0  0  0  0  0
  139.9609   78.8658  224.4508 H   0  0  0  0  0  0  0  0  0  0  0  0
  142.3636   78.1898  224.4579 H   0  0  0  0  0  0  0  0  0  0  0  0
  144.0214   79.4427  223.0730 H   0  0  0  0  0  0  0  0  0  0  0  0
  143.2829   81.3900  221.6990 H   0  0  0  0  0  0  0  0  0  0  0  0
  140.8873   82.0816  221.6929 H   0  0  0  0  0  0  0  0  0  0  0  0
  1  2  1  0
  2  3  2  0
  3  4  1  0
  4  5  1  0
  5  6  1  0
  6  7  2  0
  7  8  1  0
  8  9  2  0
  9 10  1  0
 10 11  2  0
 11 12  1  0
 12 13  1  0
 13 14  2  0
 13 15  1  0
 15 16  1  0
 16 17  2  0
 17 18  1  0
 18 19  1  0
 18 20  2  0
 20 21  1  0
 21 22  1  0
 21 23  1  0
 23 24  2  0
 24 25  1  0
 25 26  2  0
 26 27  1  0
 27 28  2  0
 17  3  1  0
 28 23  1  0
 15  5  2  0
 12  7  1  0
  4 29  1  0
  8 30  1  0
  9 31  1  0
 10 32  1  0
 11 33  1  0
 16 34  1  0
 19 35  1  0
 21 36  1  6
 22 37  1  0
 22 38  1  0
 22 39  1  0
 24 40  1  0
 25 41  1  0
 26 42  1  0
 27 43  1  0
 28 44  1  0
M  END
>  <meeko>  (13) 
{"free_energy": -6.57, "intermolecular_energy": -8.36, "internal_energy": -2.23, "cluster_size": 11, "cluster_id": 3, "rank_in_cluster": 3}

$$$$

     RDKit          3D

 44 47  0  0  0  0  0  0  0  0999 V2000
  136.3010   77.3320  223.4360 H   0  0  0  0  0  0  0  0  0  0  0  0
  136.8580   76.5090  223.1150 N   0  0  0  0  0  0  0  0  0  0  0  0
  137.9950   76.6020  222.4910 C   0  0  0  0  0  0  0  0  0  0  0  0
  138.7770   75.4910  222.3750 N   0  0  0  0  0  0  0  0  0  0  0  0
  139.9760   75.5180  221.7310 C   0  0  0  0  0  0  0  0  0  0  0  0
  140.7040   74.3820  221.6070 N   0  0  0  0  0  0  0  0  0  0  0  0
  141.8960   74.3690  220.9590 C   0  0  0  0  0  0  0  0  0  0  0  0
  142.6010   73.1640  220.8590 C   0  0  0  0  0  0  0  0  0  0  0  0
  143.8220   73.1360  220.1920 C   0  0  0  0  0  0  0  0  0  0  0  0
  144.3300   74.3040  219.6300 C   0  0  0  0  0  0  0  0  0  0  0  0
  143.6070   75.4930  219.7420 C   0  0  0  0  0  0  0  0  0  0  0  0
  142.4020   75.5260  220.4020 N   0  0  0  0  0  0  0  0  0  0  0  0
  141.6940   76.6990  220.5100 C   0  0  0  0  0  0  0  0  0  0  0  0
  142.1430   77.7670  220.0050 O   0  0  0  0  0  0  0  0  0  0  0  0
  140.4600   76.7160  221.1830 C   0  0  0  0  0  0  0  0  0  0  0  0
  139.6850   77.8770  221.3070 C   0  0  0  0  0  0  0  0  0  0  0  0
  138.4340   77.8260  221.9340 C   0  0  0  0  0  0  0  0  0  0  0  0
  137.5960   79.0430  221.9270 C   0  0  0  0  0  0  0  0  0  0  0  0
  136.2130   78.8970  221.9570 O   0  0  0  0  0  0  0  0  0  0  0  0
  138.1160   80.2390  221.9220 N   0  0  0  0  0  0  0  0  0  0  0  0
  138.7920   80.8900  223.0510 C   0  0  1  0  0  0  0  0  0  0  0  0
  138.0970   80.4930  224.3530 C   0  0  0  0  0  0  0  0  0  0  0  0
  140.2600   80.5130  223.1000 C   0  0  0  0  0  0  0  0  0  0  0  0
  140.6970   79.4210  223.8730 C   0  0  0  0  0  0  0  0  0  0  0  0
  142.0450   79.0460  223.8650 C   0  0  0  0  0  0  0  0  0  0  0  0
  142.9650   79.7590  223.0920 C   0  0  0  0  0  0  0  0  0  0  0  0
  142.5430   80.8520  222.3340 C   0  0  0  0  0  0  0  0  0  0  0  0
  141.1980   81.2340  222.3410 C   0  0  0  0  0  0  0  0  0  0  0  0
  138.4430   74.5870  222.7820 H   0  0  0  0  0  0  0  0  0  0  0  0
  142.1925   72.2451  221.3048 H   0  0  0  0  0  0  0  0  0  0  0  0
  144.3840   72.1940  220.1091 H   0  0  0  0  0  0  0  0  0  0  0  0
  145.2945   74.2901  219.1013 H   0  0  0  0  0  0  0  0  0  0  0  0
  144.0071   76.4156  219.2961 H   0  0  0  0  0  0  0  0  0  0  0  0
  140.0607   78.8317  220.9104 H   0  0  0  0  0  0  0  0  0  0  0  0
  135.7840   77.9790  221.9500 H   0  0  0  0  0  0  0  0  0  0  0  0
  138.7314   81.9804  222.9190 H   0  0  0  0  0  0  0  0  0  0  0  0
  138.6974   80.8360  225.2085 H   0  0  0  0  0  0  0  0  0  0  0  0
  137.1012   80.9585  224.3938 H   0  0  0  0  0  0  0  0  0  0  0  0
  137.9922   79.3988  224.3938 H   0  0  0  0  0  0  0  0  0  0  0  0
  139.9760   78.8602  224.4858 H   0  0  0  0  0  0  0  0  0  0  0  0
  142.3807   78.1892  224.4677 H   0  0  0  0  0  0  0  0  0  0  0  0
  144.0231   79.4584  223.0809 H   0  0  0  0  0  0  0  0  0  0  0  0
  143.2701   81.4143  221.7297 H   0  0  0  0  0  0  0  0  0  0  0  0
  140.8725   82.1027  221.7499 H   0  0  0  0  0  0  0  0  0  0  0  0
  1  2  1  0
  2  3  2  0
  3  4  1  0
  4  5  1  0
  5  6  1  0
  6  7  2  0
  7  8  1  0
  8  9  2  0
  9 10  1  0
 10 11  2  0
 11 12  1  0
 12 13  1  0
 13 14  2  0
 13 15  1  0
 15 16  1  0
 16 17  2  0
 17 18  1  0
 18 19  1  0
 18 20  2  0
 20 21  1  0
 21 22  1  0
 21 23  1  0
 23 24  2  0
 24 25  1  0
 25 26  2  0
 26 27  1  0
 27 28  2  0
 17  3  1  0
 28 23  1  0
 15  5  2  0
 12  7  1  0
  4 29  1  0
  8 30  1  0
  9 31  1  0
 10 32  1  0
 11 33  1  0
 16 34  1  0
 19 35  1  0
 21 36  1  6
 22 37  1  0
 22 38  1  0
 22 39  1  0
 24 40  1  0
 25 41  1  0
 26 42  1  0
 27 43  1  0
 28 44  1  0
M  END
>  <meeko>  (14) 
{"free_energy": -6.55, "intermolecular_energy": -8.34, "internal_energy": -2.23, "cluster_size": 11, "cluster_id": 3, "rank_in_cluster": 10}

$$$$

     RDKit          3D

 44 47  0  0  0  0  0  0  0  0999 V2000
  134.4390   68.3240  226.1910 H   0  0  0  0  0  0  0  0  0  0  0  0
  133.7910   69.0950  226.4660 N   0  0  0  0  0  0  0  0  0  0  0  0
  133.9960   70.3480  226.1880 C   0  0  0  0  0  0  0  0  0  0  0  0
  133.2520   71.2960  226.8260 N   0  0  0  0  0  0  0  0  0  0  0  0
  133.4190   72.6260  226.5850 C   0  0  0  0  0  0  0  0  0  0  0  0
  132.6840   73.5360  227.2690 N   0  0  0  0  0  0  0  0  0  0  0  0
  132.8350   74.8690  227.0660 C   0  0  0  0  0  0  0  0  0  0  0  0
  132.0490   75.7610  227.8050 C   0  0  0  0  0  0  0  0  0  0  0  0
  132.1980   77.1320  227.6100 C   0  0  0  0  0  0  0  0  0  0  0  0
  133.1250   77.6010  226.6850 C   0  0  0  0  0  0  0  0  0  0  0  0
  133.8980   76.6900  225.9600 C   0  0  0  0  0  0  0  0  0  0  0  0
  133.7530   75.3370  226.1480 N   0  0  0  0  0  0  0  0  0  0  0  0
  134.5140   74.4450  225.4330 C   0  0  0  0  0  0  0  0  0  0  0  0
  135.3610   74.8570  224.5880 O   0  0  0  0  0  0  0  0  0  0  0  0
  134.3590   73.0630  225.6390 C   0  0  0  0  0  0  0  0  0  0  0  0
  135.1220   72.1080  224.9550 C   0  0  0  0  0  0  0  0  0  0  0  0
  134.9700   70.7460  225.2420 C   0  0  0  0  0  0  0  0  0  0  0  0
  135.8850   69.7850  224.5920 C   0  0  0  0  0  0  0  0  0  0  0  0
  135.3990   68.5250  224.2610 O   0  0  0  0  0  0  0  0  0  0  0  0
  137.1170   70.0970  224.2970 N   0  0  0  0  0  0  0  0  0  0  0  0
  138.2970   69.2530  224.5200 C   0  0  1  0  0  0  0  0  0  0  0  0
  139.0820   69.1270  223.2150 C   0  0  0  0  0  0  0  0  0  0  0  0
  139.1790   69.8240  225.6140 C   0  0  0  0  0  0  0  0  0  0  0  0
  139.9610   70.9720  225.3820 C   0  0  0  0  0  0  0  0  0  0  0  0
  140.7250   71.5250  226.4150 C   0  0  0  0  0  0  0  0  0  0  0  0
  140.7200   70.9360  227.6830 C   0  0  0  0  0  0  0  0  0  0  0  0
  139.9590   69.7900  227.9180 C   0  0  0  0  0  0  0  0  0  0  0  0
  139.1950   69.2310  226.8880 C   0  0  0  0  0  0  0  0  0  0  0  0
  132.5390   70.9970  227.5310 H   0  0  0  0  0  0  0  0  0  0  0  0
  131.3186   75.3817  228.5348 H   0  0  0  0  0  0  0  0  0  0  0  0
  131.5849   77.8413  228.1853 H   0  0  0  0  0  0  0  0  0  0  0  0
  133.2489   78.6823  226.5252 H   0  0  0  0  0  0  0  0  0  0  0  0
  134.6319   77.0611  225.2295 H   0  0  0  0  0  0  0  0  0  0  0  0
  135.8435   72.4293  224.1893 H   0  0  0  0  0  0  0  0  0  0  0  0
  134.4980   68.2070  224.5970 H   0  0  0  0  0  0  0  0  0  0  0  0
  137.9632   68.2570  224.8463 H   0  0  0  0  0  0  0  0  0  0  0  0
  140.1448   68.9564  223.4414 H   0  0  0  0  0  0  0  0  0  0  0  0
  138.6908   68.2802  222.6321 H   0  0  0  0  0  0  0  0  0  0  0  0
  138.9755   70.0537  222.6321 H   0  0  0  0  0  0  0  0  0  0  0  0
  139.9710   71.4356  224.3845 H   0  0  0  0  0  0  0  0  0  0  0  0
  141.3305   72.4244  226.2295 H   0  0  0  0  0  0  0  0  0  0  0  0
  141.3162   71.3761  228.4959 H   0  0  0  0  0  0  0  0  0  0  0  0
  139.9599   69.3254  228.9151 H   0  0  0  0  0  0  0  0  0  0  0  0
  138.6038   68.3227  227.0763 H   0  0  0  0  0  0  0  0  0  0  0  0
  1  2  1  0
  2  3  2  0
  3  4  1  0
  4  5  1  0
  5  6  1  0
  6  7  2  0
  7  8  1  0
  8  9  2  0
  9 10  1  0
 10 11  2  0
 11 12  1  0
 12 13  1  0
 13 14  2  0
 13 15  1  0
 15 16  1  0
 16 17  2  0
 17 18  1  0
 18 19  1  0
 18 20  2  0
 20 21  1  0
 21 22  1  0
 21 23  1  0
 23 24  2  0
 24 25  1  0
 25 26  2  0
 26 27  1  0
 27 28  2  0
 17  3  1  0
 28 23  1  0
 15  5  2  0
 12  7  1  0
  4 29  1  0
  8 30  1  0
  9 31  1  0
 10 32  1  0
 11 33  1  0
 16 34  1  0
 19 35  1  0
 21 36  1  1
 22 37  1  0
 22 38  1  0
 22 39  1  0
 24 40  1  0
 25 41  1  0
 26 42  1  0
 27 43  1  0
 28 44  1  0
M  END
>  <meeko>  (15) 
{"free_energy": -7.49, "intermolecular_energy": -9.28, "internal_energy": -1.47, "cluster_size": 7, "cluster_id": 1, "rank_in_cluster": 4}

$$$$

     RDKit          3D

 44 47  0  0  0  0  0  0  0  0999 V2000
  136.2880   77.3970  223.3810 H   0  0  0  0  0  0  0  0  0  0  0  0
  136.8770   76.5780  223.1080 N   0  0  0  0  0  0  0  0  0  0  0  0
  138.0110   76.6780  222.4820 C   0  0  0  0  0  0  0  0  0  0  0  0
  138.8050   75.5740  222.3740 N   0  0  0  0  0  0  0  0  0  0  0  0
  140.0030   75.6080  221.7280 C   0  0  0  0  0  0  0  0  0  0  0  0
  140.7420   74.4790  221.6130 N   0  0  0  0  0  0  0  0  0  0  0  0
  141.9330   74.4720  220.9620 C   0  0  0  0  0  0  0  0  0  0  0  0
  142.6510   73.2740  220.8720 C   0  0  0  0  0  0  0  0  0  0  0  0
  143.8710   73.2520  220.2020 C   0  0  0  0  0  0  0  0  0  0  0  0
  144.3660   74.4200  219.6300 C   0  0  0  0  0  0  0  0  0  0  0  0
  143.6300   75.6040  219.7340 C   0  0  0  0  0  0  0  0  0  0  0  0
  142.4260   75.6290  220.3950 N   0  0  0  0  0  0  0  0  0  0  0  0
  141.7070   76.7960  220.4950 C   0  0  0  0  0  0  0  0  0  0  0  0
  142.1440   77.8640  219.9790 O   0  0  0  0  0  0  0  0  0  0  0  0
  140.4730   76.8060  221.1690 C   0  0  0  0  0  0  0  0  0  0  0  0
  139.6870   77.9590  221.2850 C   0  0  0  0  0  0  0  0  0  0  0  0
  138.4370   77.9020  221.9140 C   0  0  0  0  0  0  0  0  0  0  0  0
  137.5870   79.1090  221.8980 C   0  0  0  0  0  0  0  0  0  0  0  0
  136.2050   78.9490  221.8820 O   0  0  0  0  0  0  0  0  0  0  0  0
  138.0940   80.3110  221.9270 N   0  0  0  0  0  0  0  0  0  0  0  0
  138.7740   80.9320  223.0700 C   0  0  1  0  0  0  0  0  0  0  0  0
  138.0730   80.5170  224.3630 C   0  0  0  0  0  0  0  0  0  0  0  0
  140.2380   80.5390  223.1140 C   0  0  0  0  0  0  0  0  0  0  0  0
  140.6620   79.4240  223.8620 C   0  0  0  0  0  0  0  0  0  0  0  0
  142.0050   79.0360  223.8490 C   0  0  0  0  0  0  0  0  0  0  0  0
  142.9360   79.7570  223.0960 C   0  0  0  0  0  0  0  0  0  0  0  0
  142.5280   80.8720  222.3620 C   0  0  0  0  0  0  0  0  0  0  0  0
  141.1860   81.2680  222.3750 C   0  0  0  0  0  0  0  0  0  0  0  0
  138.4810   74.6700  222.7890 H   0  0  0  0  0  0  0  0  0  0  0  0
  142.2536   72.3552  221.3280 H   0  0  0  0  0  0  0  0  0  0  0  0
  144.4417   72.3148  220.1250 H   0  0  0  0  0  0  0  0  0  0  0  0
  145.3297   74.4117  219.0997 H   0  0  0  0  0  0  0  0  0  0  0  0
  144.0199   76.5273  219.2808 H   0  0  0  0  0  0  0  0  0  0  0  0
  140.0530   78.9141  220.8802 H   0  0  0  0  0  0  0  0  0  0  0  0
  135.7850   78.0280  221.9250 H   0  0  0  0  0  0  0  0  0  0  0  0
  138.7242   82.0253  222.9595 H   0  0  0  0  0  0  0  0  0  0  0  0
  138.6599   80.8644  225.2261 H   0  0  0  0  0  0  0  0  0  0  0  0
  137.0697   80.9668  224.3968 H   0  0  0  0  0  0  0  0  0  0  0  0
  137.9848   79.4211  224.3968 H   0  0  0  0  0  0  0  0  0  0  0  0
  139.9335   78.8559  224.4591 H   0  0  0  0  0  0  0  0  0  0  0  0
  142.3296   78.1618  224.4324 H   0  0  0  0  0  0  0  0  0  0  0  0
  143.9909   79.4456  223.0818 H   0  0  0  0  0  0  0  0  0  0  0  0
  143.2626   81.4402  221.7725 H   0  0  0  0  0  0  0  0  0  0  0  0
  140.8713   82.1541  221.8042 H   0  0  0  0  0  0  0  0  0  0  0  0
  1  2  1  0
  2  3  2  0
  3  4  1  0
  4  5  1  0
  5  6  1  0
  6  7  2  0
  7  8  1  0
  8  9  2  0
  9 10  1  0
 10 11  2  0
 11 12  1  0
 12 13  1  0
 13 14  2  0
 13 15  1  0
 15 16  1  0
 16 17  2  0
 17 18  1  0
 18 19  1  0
 18 20  2  0
 20 21  1  0
 21 22  1  0
 21 23  1  0
 23 24  2  0
 24 25  1  0
 25 26  2  0
 26 27  1  0
 27 28  2  0
 17  3  1  0
 28 23  1  0
 15  5  2  0
 12  7  1  0
  4 29  1  0
  8 30  1  0
  9 31  1  0
 10 32  1  0
 11 33  1  0
 16 34  1  0
 19 35  1  0
 21 36  1  6
 22 37  1  0
 22 38  1  0
 22 39  1  0
 24 40  1  0
 25 41  1  0
 26 42  1  0
 27 43  1  0
 28 44  1  0
M  END
>  <meeko>  (16) 
{"free_energy": -6.55, "intermolecular_energy": -8.34, "internal_energy": -2.23, "cluster_size": 11, "cluster_id": 3, "rank_in_cluster": 11}

$$$$

     RDKit          3D

 44 47  0  0  0  0  0  0  0  0999 V2000
  134.4520   68.3120  226.1990 H   0  0  0  0  0  0  0  0  0  0  0  0
  133.7890   69.0760  226.4600 N   0  0  0  0  0  0  0  0  0  0  0  0
  133.9890   70.3320  226.1890 C   0  0  0  0  0  0  0  0  0  0  0  0
  133.2410   71.2730  226.8340 N   0  0  0  0  0  0  0  0  0  0  0  0
  133.4030   72.6050  226.6010 C   0  0  0  0  0  0  0  0  0  0  0  0
  132.6640   73.5070  227.2910 N   0  0  0  0  0  0  0  0  0  0  0  0
  132.8090   74.8420  227.0960 C   0  0  0  0  0  0  0  0  0  0  0  0
  132.0210   75.7260  227.8420 C   0  0  0  0  0  0  0  0  0  0  0  0
  132.1640   77.0990  227.6550 C   0  0  0  0  0  0  0  0  0  0  0  0
  133.0870   77.5770  226.7310 C   0  0  0  0  0  0  0  0  0  0  0  0
  133.8620   76.6750  225.9990 C   0  0  0  0  0  0  0  0  0  0  0  0
  133.7230   75.3190  226.1800 N   0  0  0  0  0  0  0  0  0  0  0  0
  134.4870   74.4350  225.4570 C   0  0  0  0  0  0  0  0  0  0  0  0
  135.3300   74.8560  224.6140 O   0  0  0  0  0  0  0  0  0  0  0  0
  134.3390   73.0510  225.6560 C   0  0  0  0  0  0  0  0  0  0  0  0
  135.1040   72.1040  224.9640 C   0  0  0  0  0  0  0  0  0  0  0  0
  134.9590   70.7390  225.2440 C   0  0  0  0  0  0  0  0  0  0  0  0
  135.8770   69.7870  224.5860 C   0  0  0  0  0  0  0  0  0  0  0  0
  135.4030   68.5180  224.2690 O   0  0  0  0  0  0  0  0  0  0  0  0
  137.1010   70.1120  224.2720 N   0  0  0  0  0  0  0  0  0  0  0  0
  138.2930   69.2810  224.4730 C   0  0  1  0  0  0  0  0  0  0  0  0
  139.0720   69.1890  223.1610 C   0  0  0  0  0  0  0  0  0  0  0  0
  139.1740   69.8440  225.5710 C   0  0  0  0  0  0  0  0  0  0  0  0
  139.9470   71.0000  225.3520 C   0  0  0  0  0  0  0  0  0  0  0  0
  140.7100   71.5460  226.3890 C   0  0  0  0  0  0  0  0  0  0  0  0
  140.7130   70.9410  227.6490 C   0  0  0  0  0  0  0  0  0  0  0  0
  139.9600   69.7860  227.8720 C   0  0  0  0  0  0  0  0  0  0  0  0
  139.1980   69.2350  226.8380 C   0  0  0  0  0  0  0  0  0  0  0  0
  132.5310   70.9660  227.5380 H   0  0  0  0  0  0  0  0  0  0  0  0
  131.2937   75.3392  228.5710 H   0  0  0  0  0  0  0  0  0  0  0  0
  131.5493   77.8024  228.2359 H   0  0  0  0  0  0  0  0  0  0  0  0
  133.2059   78.6597  226.5776 H   0  0  0  0  0  0  0  0  0  0  0  0
  134.5924   77.0538  225.2689 H   0  0  0  0  0  0  0  0  0  0  0  0
  135.8214   72.4331  224.1978 H   0  0  0  0  0  0  0  0  0  0  0  0
  134.4930   68.2050  224.5870 H   0  0  0  0  0  0  0  0  0  0  0  0
  137.9743   68.2751  224.7838 H   0  0  0  0  0  0  0  0  0  0  0  0
  140.1429   69.0625  223.3785 H   0  0  0  0  0  0  0  0  0  0  0  0
  138.7115   68.3272  222.5802 H   0  0  0  0  0  0  0  0  0  0  0  0
  138.9222   70.1111  222.5802 H   0  0  0  0  0  0  0  0  0  0  0  0
  139.9509   71.4761  224.3604 H   0  0  0  0  0  0  0  0  0  0  0  0
  141.3082   72.4522  226.2130 H   0  0  0  0  0  0  0  0  0  0  0  0
  141.3088   71.3748  228.4656 H   0  0  0  0  0  0  0  0  0  0  0  0
  139.9667   69.3091  228.8632 H   0  0  0  0  0  0  0  0  0  0  0  0
  138.6140   68.3201  227.0164 H   0  0  0  0  0  0  0  0  0  0  0  0
  1  2  1  0
  2  3  2  0
  3  4  1  0
  4  5  1  0
  5  6  1  0
  6  7  2  0
  7  8  1  0
  8  9  2  0
  9 10  1  0
 10 11  2  0
 11 12  1  0
 12 13  1  0
 13 14  2  0
 13 15  1  0
 15 16  1  0
 16 17  2  0
 17 18  1  0
 18 19  1  0
 18 20  2  0
 20 21  1  0
 21 22  1  0
 21 23  1  0
 23 24  2  0
 24 25  1  0
 25 26  2  0
 26 27  1  0
 27 28  2  0
 17  3  1  0
 28 23  1  0
 15  5  2  0
 12  7  1  0
  4 29  1  0
  8 30  1  0
  9 31  1  0
 10 32  1  0
 11 33  1  0
 16 34  1  0
 19 35  1  0
 21 36  1  1
 22 37  1  0
 22 38  1  0
 22 39  1  0
 24 40  1  0
 25 41  1  0
 26 42  1  0
 27 43  1  0
 28 44  1  0
M  END
>  <meeko>  (17) 
{"free_energy": -7.49, "intermolecular_energy": -9.28, "internal_energy": -1.49, "cluster_size": 7, "cluster_id": 1, "rank_in_cluster": 5}

$$$$

     RDKit          3D

 44 47  0  0  0  0  0  0  0  0999 V2000
  134.3510   68.2850  226.1560 H   0  0  0  0  0  0  0  0  0  0  0  0
  133.7240   69.0640  226.4590 N   0  0  0  0  0  0  0  0  0  0  0  0
  133.9430   70.3170  226.1890 C   0  0  0  0  0  0  0  0  0  0  0  0
  133.2040   71.2680  226.8290 N   0  0  0  0  0  0  0  0  0  0  0  0
  133.3860   72.5970  226.5960 C   0  0  0  0  0  0  0  0  0  0  0  0
  132.6550   73.5100  227.2810 N   0  0  0  0  0  0  0  0  0  0  0  0
  132.8200   74.8430  227.0870 C   0  0  0  0  0  0  0  0  0  0  0  0
  132.0390   75.7380  227.8260 C   0  0  0  0  0  0  0  0  0  0  0  0
  132.2020   77.1080  227.6410 C   0  0  0  0  0  0  0  0  0  0  0  0
  133.1380   77.5740  226.7220 C   0  0  0  0  0  0  0  0  0  0  0  0
  133.9050   76.6600  225.9960 C   0  0  0  0  0  0  0  0  0  0  0  0
  133.7460   75.3070  226.1760 N   0  0  0  0  0  0  0  0  0  0  0  0
  134.5030   74.4120  225.4590 C   0  0  0  0  0  0  0  0  0  0  0  0
  135.3570   74.8210  224.6210 O   0  0  0  0  0  0  0  0  0  0  0  0
  134.3340   73.0300  225.6570 C   0  0  0  0  0  0  0  0  0  0  0  0
  135.0910   72.0720  224.9710 C   0  0  0  0  0  0  0  0  0  0  0  0
  134.9250   70.7100  225.2500 C   0  0  0  0  0  0  0  0  0  0  0  0
  135.8340   69.7440  224.5980 C   0  0  0  0  0  0  0  0  0  0  0  0
  135.3310   68.5000  224.2340 O   0  0  0  0  0  0  0  0  0  0  0  0
  137.0770   70.0380  224.3330 N   0  0  0  0  0  0  0  0  0  0  0  0
  138.2420   69.1940  224.6210 C   0  0  1  0  0  0  0  0  0  0  0  0
  139.0380   68.9740  223.3350 C   0  0  0  0  0  0  0  0  0  0  0  0
  139.1220   69.8220  225.6850 C   0  0  0  0  0  0  0  0  0  0  0  0
  139.1950   69.2680  226.9780 C   0  0  0  0  0  0  0  0  0  0  0  0
  140.0540   69.8190  227.9340 C   0  0  0  0  0  0  0  0  0  0  0  0
  140.8410   70.9280  227.6110 C   0  0  0  0  0  0  0  0  0  0  0  0
  140.7650   71.4930  226.3370 C   0  0  0  0  0  0  0  0  0  0  0  0
  139.9050   70.9480  225.3780 C   0  0  0  0  0  0  0  0  0  0  0  0
  132.4850   70.9720  227.5280 H   0  0  0  0  0  0  0  0  0  0  0  0
  131.3005   75.3614  228.5490 H   0  0  0  0  0  0  0  0  0  0  0  0
  131.5936   77.8195  228.2187 H   0  0  0  0  0  0  0  0  0  0  0  0
  133.2727   78.6549  226.5686 H   0  0  0  0  0  0  0  0  0  0  0  0
  134.6458   77.0279  225.2709 H   0  0  0  0  0  0  0  0  0  0  0  0
  135.8187   72.3908  224.2102 H   0  0  0  0  0  0  0  0  0  0  0  0
  134.4370   68.1750  224.5830 H   0  0  0  0  0  0  0  0  0  0  0  0
  137.8904   68.2255  225.0063 H   0  0  0  0  0  0  0  0  0  0  0  0
  140.0701   68.6887  223.5869 H   0  0  0  0  0  0  0  0  0  0  0  0
  138.5691   68.1718  222.7463 H   0  0  0  0  0  0  0  0  0  0  0  0
  139.0477   69.9031  222.7463 H   0  0  0  0  0  0  0  0  0  0  0  0
  138.5736   68.3981  227.2369 H   0  0  0  0  0  0  0  0  0  0  0  0
  140.1104   69.3794  228.9408 H   0  0  0  0  0  0  0  0  0  0  0  0
  141.5213   71.3561  228.3619 H   0  0  0  0  0  0  0  0  0  0  0  0
  141.3824   72.3683  226.0868 H   0  0  0  0  0  0  0  0  0  0  0  0
  139.8412   71.4029  224.3785 H   0  0  0  0  0  0  0  0  0  0  0  0
  1  2  1  0
  2  3  2  0
  3  4  1  0
  4  5  1  0
  5  6  1  0
  6  7  2  0
  7  8  1  0
  8  9  2  0
  9 10  1  0
 10 11  2  0
 11 12  1  0
 12 13  1  0
 13 14  2  0
 13 15  1  0
 15 16  1  0
 16 17  2  0
 17 18  1  0
 18 19  1  0
 18 20  2  0
 20 21  1  0
 21 22  1  0
 21 23  1  0
 23 24  2  0
 24 25  1  0
 25 26  2  0
 26 27  1  0
 27 28  2  0
 17  3  1  0
 28 23  1  0
 15  5  2  0
 12  7  1  0
  4 29  1  0
  8 30  1  0
  9 31  1  0
 10 32  1  0
 11 33  1  0
 16 34  1  0
 19 35  1  0
 21 36  1  1
 22 37  1  0
 22 38  1  0
 22 39  1  0
 24 40  1  0
 25 41  1  0
 26 42  1  0
 27 43  1  0
 28 44  1  0
M  END
>  <meeko>  (18) 
{"free_energy": -7.5, "intermolecular_energy": -9.29, "internal_energy": -1.46, "cluster_size": 7, "cluster_id": 1, "rank_in_cluster": 2}

$$$$

     RDKit          3D

 44 47  0  0  0  0  0  0  0  0999 V2000
  134.3280   68.3350  226.1480 H   0  0  0  0  0  0  0  0  0  0  0  0
  133.7050   69.1160  226.4530 N   0  0  0  0  0  0  0  0  0  0  0  0
  133.9330   70.3680  226.1890 C   0  0  0  0  0  0  0  0  0  0  0  0
  133.1960   71.3220  226.8290 N   0  0  0  0  0  0  0  0  0  0  0  0
  133.3860   72.6510  226.6020 C   0  0  0  0  0  0  0  0  0  0  0  0
  132.6570   73.5650  227.2860 N   0  0  0  0  0  0  0  0  0  0  0  0
  132.8300   74.8980  227.0970 C   0  0  0  0  0  0  0  0  0  0  0  0
  132.0510   75.7950  227.8370 C   0  0  0  0  0  0  0  0  0  0  0  0
  132.2230   77.1650  227.6570 C   0  0  0  0  0  0  0  0  0  0  0  0
  133.1660   77.6280  226.7440 C   0  0  0  0  0  0  0  0  0  0  0  0
  133.9320   76.7130  226.0190 C   0  0  0  0  0  0  0  0  0  0  0  0
  133.7640   75.3600  226.1930 N   0  0  0  0  0  0  0  0  0  0  0  0
  134.5200   74.4630  225.4770 C   0  0  0  0  0  0  0  0  0  0  0  0
  135.3810   74.8700  224.6450 O   0  0  0  0  0  0  0  0  0  0  0  0
  134.3420   73.0820  225.6690 C   0  0  0  0  0  0  0  0  0  0  0  0
  135.0970   72.1220  224.9830 C   0  0  0  0  0  0  0  0  0  0  0  0
  134.9220   70.7600  225.2560 C   0  0  0  0  0  0  0  0  0  0  0  0
  135.8290   69.7920  224.6060 C   0  0  0  0  0  0  0  0  0  0  0  0
  135.3190   68.5520  224.2320 O   0  0  0  0  0  0  0  0  0  0  0  0
  137.0750   70.0780  224.3510 N   0  0  0  0  0  0  0  0  0  0  0  0
  138.2290   69.2050  224.5970 C   0  0  1  0  0  0  0  0  0  0  0  0
  138.9630   68.9530  223.2810 C   0  0  0  0  0  0  0  0  0  0  0  0
  139.1690   69.8160  225.6180 C   0  0  0  0  0  0  0  0  0  0  0  0
  139.9400   70.9500  225.2980 C   0  0  0  0  0  0  0  0  0  0  0  0
  140.7600   71.5410  226.2640 C   0  0  0  0  0  0  0  0  0  0  0  0
  140.8220   71.0050  227.5530 C   0  0  0  0  0  0  0  0  0  0  0  0
  140.0720   69.8720  227.8760 C   0  0  0  0  0  0  0  0  0  0  0  0
  139.2530   69.2750  226.9130 C   0  0  0  0  0  0  0  0  0  0  0  0
  132.4720   71.0270  227.5230 H   0  0  0  0  0  0  0  0  0  0  0  0
  131.3077   75.4201  228.5561 H   0  0  0  0  0  0  0  0  0  0  0  0
  131.6162   77.8784  228.2339 H   0  0  0  0  0  0  0  0  0  0  0  0
  133.3070   78.7086  226.5944 H   0  0  0  0  0  0  0  0  0  0  0  0
  134.6792   77.0795  225.2997 H   0  0  0  0  0  0  0  0  0  0  0  0
  135.8302   72.4395  224.2269 H   0  0  0  0  0  0  0  0  0  0  0  0
  134.4210   68.2310  224.5730 H   0  0  0  0  0  0  0  0  0  0  0  0
  137.8685   68.2493  225.0052 H   0  0  0  0  0  0  0  0  0  0  0  0
  139.9841   68.6024  223.4920 H   0  0  0  0  0  0  0  0  0  0  0  0
  138.4251   68.1881  222.7018 H   0  0  0  0  0  0  0  0  0  0  0  0
  139.0083   69.8870  222.7018 H   0  0  0  0  0  0  0  0  0  0  0  0
  139.8970   71.3728  224.2834 H   0  0  0  0  0  0  0  0  0  0  0  0
  141.3570   72.4290  226.0090 H   0  0  0  0  0  0  0  0  0  0  0  0
  141.4620   71.4758  228.3138 H   0  0  0  0  0  0  0  0  0  0  0  0
  140.1258   69.4486  228.8898 H   0  0  0  0  0  0  0  0  0  0  0  0
  138.6713   68.3774  227.1698 H   0  0  0  0  0  0  0  0  0  0  0  0
  1  2  1  0
  2  3  2  0
  3  4  1  0
  4  5  1  0
  5  6  1  0
  6  7  2  0
  7  8  1  0
  8  9  2  0
  9 10  1  0
 10 11  2  0
 11 12  1  0
 12 13  1  0
 13 14  2  0
 13 15  1  0
 15 16  1  0
 16 17  2  0
 17 18  1  0
 18 19  1  0
 18 20  2  0
 20 21  1  0
 21 22  1  0
 21 23  1  0
 23 24  2  0
 24 25  1  0
 25 26  2  0
 26 27  1  0
 27 28  2  0
 17  3  1  0
 28 23  1  0
 15  5  2  0
 12  7  1  0
  4 29  1  0
  8 30  1  0
  9 31  1  0
 10 32  1  0
 11 33  1  0
 16 34  1  0
 19 35  1  0
 21 36  1  1
 22 37  1  0
 22 38  1  0
 22 39  1  0
 24 40  1  0
 25 41  1  0
 26 42  1  0
 27 43  1  0
 28 44  1  0
M  END
>  <meeko>  (19) 
{"free_energy": -7.51, "intermolecular_energy": -9.3, "internal_energy": -1.45, "cluster_size": 7, "cluster_id": 1, "rank_in_cluster": 1}

$$$$

     RDKit          3D

 44 47  0  0  0  0  0  0  0  0999 V2000
  136.3310   77.2840  223.4790 H   0  0  0  0  0  0  0  0  0  0  0  0
  136.8770   76.4670  223.1240 N   0  0  0  0  0  0  0  0  0  0  0  0
  138.0100   76.5720  222.4950 C   0  0  0  0  0  0  0  0  0  0  0  0
  138.8020   75.4680  222.3770 N   0  0  0  0  0  0  0  0  0  0  0  0
  139.9990   75.5070  221.7280 C   0  0  0  0  0  0  0  0  0  0  0  0
  140.7370   74.3780  221.6020 N   0  0  0  0  0  0  0  0  0  0  0  0
  141.9270   74.3760  220.9480 C   0  0  0  0  0  0  0  0  0  0  0  0
  142.6430   73.1780  220.8470 C   0  0  0  0  0  0  0  0  0  0  0  0
  143.8620   73.1620  220.1740 C   0  0  0  0  0  0  0  0  0  0  0  0
  144.3560   74.3340  219.6110 C   0  0  0  0  0  0  0  0  0  0  0  0
  143.6220   75.5170  219.7250 C   0  0  0  0  0  0  0  0  0  0  0  0
  142.4190   75.5370  220.3890 N   0  0  0  0  0  0  0  0  0  0  0  0
  141.7000   76.7040  220.5000 C   0  0  0  0  0  0  0  0  0  0  0  0
  142.1370   77.7760  219.9930 O   0  0  0  0  0  0  0  0  0  0  0  0
  140.4680   76.7090  221.1780 C   0  0  0  0  0  0  0  0  0  0  0  0
  139.6830   77.8620  221.3040 C   0  0  0  0  0  0  0  0  0  0  0  0
  138.4350   77.8000  221.9360 C   0  0  0  0  0  0  0  0  0  0  0  0
  137.5850   79.0080  221.9320 C   0  0  0  0  0  0  0  0  0  0  0  0
  136.2050   78.8500  222.0050 O   0  0  0  0  0  0  0  0  0  0  0  0
  138.0930   80.2090  221.8910 N   0  0  0  0  0  0  0  0  0  0  0  0
  138.7570   80.9020  223.0010 C   0  0  1  0  0  0  0  0  0  0  0  0
  138.0580   80.5450  224.3120 C   0  0  0  0  0  0  0  0  0  0  0  0
  140.2280   80.5380  223.0710 C   0  0  0  0  0  0  0  0  0  0  0  0
  140.6640   79.4500  223.8500 C   0  0  0  0  0  0  0  0  0  0  0  0
  142.0150   79.0870  223.8610 C   0  0  0  0  0  0  0  0  0  0  0  0
  142.9400   79.8080  223.1010 C   0  0  0  0  0  0  0  0  0  0  0  0
  142.5190   80.8980  222.3370 C   0  0  0  0  0  0  0  0  0  0  0  0
  141.1710   81.2680  222.3250 C   0  0  0  0  0  0  0  0  0  0  0  0
  138.4790   74.5610  222.7850 H   0  0  0  0  0  0  0  0  0  0  0  0
  142.2459   72.2557  221.2959 H   0  0  0  0  0  0  0  0  0  0  0  0
  144.4324   72.2254  220.0879 H   0  0  0  0  0  0  0  0  0  0  0  0
  145.3189   74.3293  219.0792 H   0  0  0  0  0  0  0  0  0  0  0  0
  144.0115   76.4435  219.2780 H   0  0  0  0  0  0  0  0  0  0  0  0
  140.0482   78.8198  220.9050 H   0  0  0  0  0  0  0  0  0  0  0  0
  135.7810   77.9300  221.9660 H   0  0  0  0  0  0  0  0  0  0  0  0
  138.6885   81.9867  222.8316 H   0  0  0  0  0  0  0  0  0  0  0  0
  138.6827   80.8641  225.1593 H   0  0  0  0  0  0  0  0  0  0  0  0
  137.0855   81.0568  224.3602 H   0  0  0  0  0  0  0  0  0  0  0  0
  137.9026   79.4571  224.3602 H   0  0  0  0  0  0  0  0  0  0  0  0
  139.9395   78.8827  224.4527 H   0  0  0  0  0  0  0  0  0  0  0  0
  142.3496   78.2332  224.4685 H   0  0  0  0  0  0  0  0  0  0  0  0
  144.0007   79.5164  223.1048 H   0  0  0  0  0  0  0  0  0  0  0  0
  143.2496   81.4669  221.7432 H   0  0  0  0  0  0  0  0  0  0  0  0
  140.8462   82.1339  221.7295 H   0  0  0  0  0  0  0  0  0  0  0  0
  1  2  1  0
  2  3  2  0
  3  4  1  0
  4  5  1  0
  5  6  1  0
  6  7  2  0
  7  8  1  0
  8  9  2  0
  9 10  1  0
 10 11  2  0
 11 12  1  0
 12 13  1  0
 13 14  2  0
 13 15  1  0
 15 16  1  0
 16 17  2  0
 17 18  1  0
 18 19  1  0
 18 20  2  0
 20 21  1  0
 21 22  1  0
 21 23  1  0
 23 24  2  0
 24 25  1  0
 25 26  2  0
 26 27  1  0
 27 28  2  0
 17  3  1  0
 28 23  1  0
 15  5  2  0
 12  7  1  0
  4 29  1  0
  8 30  1  0
  9 31  1  0
 10 32  1  0
 11 33  1  0
 16 34  1  0
 19 35  1  0
 21 36  1  6
 22 37  1  0
 22 38  1  0
 22 39  1  0
 24 40  1  0
 25 41  1  0
 26 42  1  0
 27 43  1  0
 28 44  1  0
M  END
>  <meeko>  (20) 
{"free_energy": -6.57, "intermolecular_energy": -8.36, "internal_energy": -2.23, "cluster_size": 11, "cluster_id": 3, "rank_in_cluster": 4}

$$$$
