
     RDKit          3D

 44 47  0  0  0  0  0  0  0  0999 V2000
  144.4470   76.9200  220.4960 H   0  0  0  0  0  0  0  0  0  0  0  0
  144.0720   76.3100  219.7370 N   0  0  0  0  0  0  0  0  0  0  0  0
  143.8100   75.0440  219.8650 C   0  0  0  0  0  0  0  0  0  0  0  0
  144.7930   74.1440  219.5740 N   0  0  0  0  0  0  0  0  0  0  0  0
  144.5820   72.8000  219.6190 C   0  0  0  0  0  0  0  0  0  0  0  0
  145.5890   71.9460  219.3140 N   0  0  0  0  0  0  0  0  0  0  0  0
  145.4140   70.6000  219.3450 C   0  0  0  0  0  0  0  0  0  0  0  0
  146.4900   69.7680  219.0190 C   0  0  0  0  0  0  0  0  0  0  0  0
  146.3230   68.3870  219.0460 C   0  0  0  0  0  0  0  0  0  0  0  0
  145.0890   67.8470  219.3970 C   0  0  0  0  0  0  0  0  0  0  0  0
  144.0300   68.6990  219.7180 C   0  0  0  0  0  0  0  0  0  0  0  0
  144.1910   70.0620  219.6910 N   0  0  0  0  0  0  0  0  0  0  0  0
  143.1460   70.8980  220.0070 C   0  0  0  0  0  0  0  0  0  0  0  0
  142.0200   70.4220  220.3280 O   0  0  0  0  0  0  0  0  0  0  0  0
  143.3250   72.2930  219.9760 C   0  0  0  0  0  0  0  0  0  0  0  0
  142.2990   73.1940  220.2950 C   0  0  0  0  0  0  0  0  0  0  0  0
  142.5280   74.5770  220.2560 C   0  0  0  0  0  0  0  0  0  0  0  0
  141.4280   75.4850  220.6560 C   0  0  0  0  0  0  0  0  0  0  0  0
  140.2330   75.0940  220.5690 O   0  0  0  0  0  0  0  0  0  0  0  0
  141.7200   76.8210  221.0960 N   0  0  0  0  0  0  0  0  0  0  0  0
  140.6660   77.7670  221.4800 C   0  0  1  0  0  0  0  0  0  0  0  0
  139.6330   77.0750  222.3760 C   0  0  0  0  0  0  0  0  0  0  0  0
  141.2620   78.9800  222.1700 C   0  0  0  0  0  0  0  0  0  0  0  0
  141.8190   78.8800  223.4600 C   0  0  0  0  0  0  0  0  0  0  0  0
  142.3670   80.0050  224.0840 C   0  0  0  0  0  0  0  0  0  0  0  0
  142.3670   81.2390  223.4290 C   0  0  0  0  0  0  0  0  0  0  0  0
  141.8180   81.3500  222.1490 C   0  0  0  0  0  0  0  0  0  0  0  0
  141.2690   80.2280  221.5210 C   0  0  0  0  0  0  0  0  0  0  0  0
  145.7380   74.4940  219.2910 H   0  0  0  0  0  0  0  0  0  0  0  0
  147.4620   70.2027  218.7430 H   0  0  0  0  0  0  0  0  0  0  0  0
  147.1631   67.7243  218.7909 H   0  0  0  0  0  0  0  0  0  0  0  0
  144.9489   66.7562  219.4214 H   0  0  0  0  0  0  0  0  0  0  0  0
  143.0548   68.2726  219.9959 H   0  0  0  0  0  0  0  0  0  0  0  0
  141.3067   72.8130  220.5781 H   0  0  0  0  0  0  0  0  0  0  0  0
  142.7210   77.0930  221.2170 H   0  0  0  0  0  0  0  0  0  0  0  0
  140.1547   78.1143  220.5701 H   0  0  0  0  0  0  0  0  0  0  0  0
  139.8896   77.2469  223.4318 H   0  0  0  0  0  0  0  0  0  0  0  0
  138.6341   77.4869  222.1697 H   0  0  0  0  0  0  0  0  0  0  0  0
  139.6338   75.9945  222.1697 H   0  0  0  0  0  0  0  0  0  0  0  0
  141.8229   77.9106  223.9799 H   0  0  0  0  0  0  0  0  0  0  0  0
  142.7987   79.9183  225.0920 H   0  0  0  0  0  0  0  0  0  0  0  0
  142.7991   82.1229  223.9209 H   0  0  0  0  0  0  0  0  0  0  0  0
  141.8177   82.3222  221.6343 H   0  0  0  0  0  0  0  0  0  0  0  0
  140.8396   80.3218  220.5126 H   0  0  0  0  0  0  0  0  0  0  0  0
  1  2  1  0
  2  3  2  0
  3  4  1  0
  4  5  1  0
  5  6  1  0
  6  7  2  0
  7  8  1  0
  8  9  2  0
  9 10  1  0
 10 11  2  0
 11 12  1  0
 12 13  1  0
 13 14  2  0
 13 15  1  0
 15 16  1  0
 16 17  2  0
 17 18  1  0
 18 19  2  0
 18 20  1  0
 20 21  1  0
 21 22  1  0
 21 23  1  0
 23 24  2  0
 24 25  1  0
 25 26  2  0
 26 27  1  0
 27 28  2  0
 17  3  1  0
 28 23  1  0
 15  5  2  0
 12  7  1  0
  4 29  1  0
  8 30  1  0
  9 31  1  0
 10 32  1  0
 11 33  1  0
 16 34  1  0
 20 35  1  0
 21 36  1  6
 22 37  1  0
 22 38  1  0
 22 39  1  0
 24 40  1  0
 25 41  1  0
 26 42  1  0
 27 43  1  0
 28 44  1  0
M  END
>  <meeko>  (1) 
{"free_energy": -8.18, "intermolecular_energy": -9.37, "internal_energy": -0.73, "cluster_size": 12, "cluster_id": 1, "rank_in_cluster": 8}

$$$$

     RDKit          3D

 44 47  0  0  0  0  0  0  0  0999 V2000
  133.9980   68.4520  225.9880 H   0  0  0  0  0  0  0  0  0  0  0  0
  133.5060   69.2360  226.4680 N   0  0  0  0  0  0  0  0  0  0  0  0
  133.7760   70.4960  226.3000 C   0  0  0  0  0  0  0  0  0  0  0  0
  132.9840   71.4190  226.9180 N   0  0  0  0  0  0  0  0  0  0  0  0
  133.1590   72.7570  226.7420 C   0  0  0  0  0  0  0  0  0  0  0  0
  132.3420   73.6360  227.3720 N   0  0  0  0  0  0  0  0  0  0  0  0
  132.4830   74.9760  227.2170 C   0  0  0  0  0  0  0  0  0  0  0  0
  131.6090   75.8340  227.8930 C   0  0  0  0  0  0  0  0  0  0  0  0
  131.7440   77.2110  227.7420 C   0  0  0  0  0  0  0  0  0  0  0  0
  132.7460   77.7210  226.9220 C   0  0  0  0  0  0  0  0  0  0  0  0
  133.6060   76.8440  226.2580 C   0  0  0  0  0  0  0  0  0  0  0  0
  133.4760   75.4850  226.4040 N   0  0  0  0  0  0  0  0  0  0  0  0
  134.3240   74.6250  225.7480 C   0  0  0  0  0  0  0  0  0  0  0  0
  135.2390   75.0730  225.0000 O   0  0  0  0  0  0  0  0  0  0  0  0
  134.1790   73.2340  225.9070 C   0  0  0  0  0  0  0  0  0  0  0  0
  135.0180   72.3090  225.2700 C   0  0  0  0  0  0  0  0  0  0  0  0
  134.8380   70.9320  225.4650 C   0  0  0  0  0  0  0  0  0  0  0  0
  135.7860   69.9980  224.8140 C   0  0  0  0  0  0  0  0  0  0  0  0
  135.4050   68.8360  224.5070 O   0  0  0  0  0  0  0  0  0  0  0  0
  137.1450   70.3980  224.5780 N   0  0  0  0  0  0  0  0  0  0  0  0
  138.1290   69.5020  223.9600 C   0  0  1  0  0  0  0  0  0  0  0  0
  138.7750   70.1800  222.7480 C   0  0  0  0  0  0  0  0  0  0  0  0
  139.1770   69.0810  224.9730 C   0  0  0  0  0  0  0  0  0  0  0  0
  139.2180   67.7630  225.4710 C   0  0  0  0  0  0  0  0  0  0  0  0
  140.1890   67.3880  226.4030 C   0  0  0  0  0  0  0  0  0  0  0  0
  141.1310   68.3190  226.8480 C   0  0  0  0  0  0  0  0  0  0  0  0
  141.1010   69.6280  226.3610 C   0  0  0  0  0  0  0  0  0  0  0  0
  140.1310   70.0090  225.4290 C   0  0  0  0  0  0  0  0  0  0  0  0
  132.2060   71.0920  227.5360 H   0  0  0  0  0  0  0  0  0  0  0  0
  130.8200   75.4229  228.5399 H   0  0  0  0  0  0  0  0  0  0  0  0
  131.0611   77.8937  228.2689 H   0  0  0  0  0  0  0  0  0  0  0  0
  132.8598   78.8080  226.7977 H   0  0  0  0  0  0  0  0  0  0  0  0
  134.3979   77.2471  225.6096 H   0  0  0  0  0  0  0  0  0  0  0  0
  135.8239   72.6662  224.6120 H   0  0  0  0  0  0  0  0  0  0  0  0
  137.4120   71.3860  224.7860 H   0  0  0  0  0  0  0  0  0  0  0  0
  137.6125   68.5952  223.6122 H   0  0  0  0  0  0  0  0  0  0  0  0
  139.4957   70.9365  223.0920 H   0  0  0  0  0  0  0  0  0  0  0  0
  139.2968   69.4257  222.1408 H   0  0  0  0  0  0  0  0  0  0  0  0
  137.9963   70.6648  222.1408 H   0  0  0  0  0  0  0  0  0  0  0  0
  138.4805   67.0246  225.1235 H   0  0  0  0  0  0  0  0  0  0  0  0
  140.2119   66.3576  226.7873 H   0  0  0  0  0  0  0  0  0  0  0  0
  141.8954   68.0216  227.5810 H   0  0  0  0  0  0  0  0  0  0  0  0
  141.8425   70.3609  226.7117 H   0  0  0  0  0  0  0  0  0  0  0  0
  140.1136   71.0414  225.0497 H   0  0  0  0  0  0  0  0  0  0  0  0
  1  2  1  0
  2  3  2  0
  3  4  1  0
  4  5  1  0
  5  6  1  0
  6  7  2  0
  7  8  1  0
  8  9  2  0
  9 10  1  0
 10 11  2  0
 11 12  1  0
 12 13  1  0
 13 14  2  0
 13 15  1  0
 15 16  1  0
 16 17  2  0
 17 18  1  0
 18 19  2  0
 18 20  1  0
 20 21  1  0
 21 22  1  0
 21 23  1  0
 23 24  2  0
 24 25  1  0
 25 26  2  0
 26 27  1  0
 27 28  2  0
 17  3  1  0
 28 23  1  0
 15  5  2  0
 12  7  1  0
  4 29  1  0
  8 30  1  0
  9 31  1  0
 10 32  1  0
 11 33  1  0
 16 34  1  0
 20 35  1  0
 21 36  1  6
 22 37  1  0
 22 38  1  0
 22 39  1  0
 24 40  1  0
 25 41  1  0
 26 42  1  0
 27 43  1  0
 28 44  1  0
M  END
>  <meeko>  (2) 
{"free_energy": -7.56, "intermolecular_energy": -8.75, "internal_energy": -0.94, "cluster_size": 6, "cluster_id": 2, "rank_in_cluster": 5}

$$$$

     RDKit          3D

 44 47  0  0  0  0  0  0  0  0999 V2000
  144.2320   76.9670  220.5110 H   0  0  0  0  0  0  0  0  0  0  0  0
  144.0540   76.3120  219.7190 N   0  0  0  0  0  0  0  0  0  0  0  0
  143.7940   75.0450  219.8480 C   0  0  0  0  0  0  0  0  0  0  0  0
  144.7790   74.1460  219.5600 N   0  0  0  0  0  0  0  0  0  0  0  0
  144.5710   72.8020  219.6070 C   0  0  0  0  0  0  0  0  0  0  0  0
  145.5790   71.9490  219.3050 N   0  0  0  0  0  0  0  0  0  0  0  0
  145.4060   70.6030  219.3370 C   0  0  0  0  0  0  0  0  0  0  0  0
  146.4840   69.7720  219.0150 C   0  0  0  0  0  0  0  0  0  0  0  0
  146.3200   68.3910  219.0440 C   0  0  0  0  0  0  0  0  0  0  0  0
  145.0860   67.8490  219.3940 C   0  0  0  0  0  0  0  0  0  0  0  0
  144.0250   68.7000  219.7120 C   0  0  0  0  0  0  0  0  0  0  0  0
  144.1840   70.0640  219.6830 N   0  0  0  0  0  0  0  0  0  0  0  0
  143.1370   70.8980  219.9970 C   0  0  0  0  0  0  0  0  0  0  0  0
  142.0110   70.4200  220.3160 O   0  0  0  0  0  0  0  0  0  0  0  0
  143.3140   72.2940  219.9630 C   0  0  0  0  0  0  0  0  0  0  0  0
  142.2850   73.1930  220.2790 C   0  0  0  0  0  0  0  0  0  0  0  0
  142.5120   74.5770  220.2380 C   0  0  0  0  0  0  0  0  0  0  0  0
  141.4100   75.4830  220.6350 C   0  0  0  0  0  0  0  0  0  0  0  0
  140.2150   75.0910  220.5440 O   0  0  0  0  0  0  0  0  0  0  0  0
  141.6990   76.8190  221.0780 N   0  0  0  0  0  0  0  0  0  0  0  0
  140.6420   77.7640  221.4580 C   0  0  1  0  0  0  0  0  0  0  0  0
  139.6100   77.0710  222.3540 C   0  0  0  0  0  0  0  0  0  0  0  0
  141.2360   78.9780  222.1470 C   0  0  0  0  0  0  0  0  0  0  0  0
  141.2390   80.2400  221.5200 C   0  0  0  0  0  0  0  0  0  0  0  0
  141.7870   81.3510  222.1660 C   0  0  0  0  0  0  0  0  0  0  0  0
  142.3370   81.2180  223.4440 C   0  0  0  0  0  0  0  0  0  0  0  0
  142.3390   79.9730  224.0760 C   0  0  0  0  0  0  0  0  0  0  0  0
  141.7920   78.8580  223.4340 C   0  0  0  0  0  0  0  0  0  0  0  0
  145.7230   74.4980  219.2780 H   0  0  0  0  0  0  0  0  0  0  0  0
  147.4558   70.2080  218.7404 H   0  0  0  0  0  0  0  0  0  0  0  0
  147.1619   67.7296  218.7914 H   0  0  0  0  0  0  0  0  0  0  0  0
  144.9477   66.7580  219.4199 H   0  0  0  0  0  0  0  0  0  0  0  0
  143.0501   68.2725  219.9891 H   0  0  0  0  0  0  0  0  0  0  0  0
  141.2930   72.8104  220.5610 H   0  0  0  0  0  0  0  0  0  0  0  0
  142.7000   77.0920  221.2020 H   0  0  0  0  0  0  0  0  0  0  0  0
  140.1305   78.1093  220.5474 H   0  0  0  0  0  0  0  0  0  0  0  0
  139.8665   77.2432  223.4097 H   0  0  0  0  0  0  0  0  0  0  0  0
  138.6106   77.4818  222.1477 H   0  0  0  0  0  0  0  0  0  0  0  0
  139.6120   75.9905  222.1477 H   0  0  0  0  0  0  0  0  0  0  0  0
  140.8067   80.3512  220.5146 H   0  0  0  0  0  0  0  0  0  0  0  0
  141.7856   82.3318  221.6681 H   0  0  0  0  0  0  0  0  0  0  0  0
  142.7680   82.0936  223.9516 H   0  0  0  0  0  0  0  0  0  0  0  0
  142.7721   79.8691  225.0818 H   0  0  0  0  0  0  0  0  0  0  0  0
  141.7963   77.8804  223.9383 H   0  0  0  0  0  0  0  0  0  0  0  0
  1  2  1  0
  2  3  2  0
  3  4  1  0
  4  5  1  0
  5  6  1  0
  6  7  2  0
  7  8  1  0
  8  9  2  0
  9 10  1  0
 10 11  2  0
 11 12  1  0
 12 13  1  0
 13 14  2  0
 13 15  1  0
 15 16  1  0
 16 17  2  0
 17 18  1  0
 18 19  2  0
 18 20  1  0
 20 21  1  0
 21 22  1  0
 21 23  1  0
 23 24  2  0
 24 25  1  0
 25 26  2  0
 26 27  1  0
 27 28  2  0
 17  3  1  0
 28 23  1  0
 15  5  2  0
 12  7  1  0
  4 29  1  0
  8 30  1  0
  9 31  1  0
 10 32  1  0
 11 33  1  0
 16 34  1  0
 20 35  1  0
 21 36  1  6
 22 37  1  0
 22 38  1  0
 22 39  1  0
 24 40  1  0
 25 41  1  0
 26 42  1  0
 27 43  1  0
 28 44  1  0
M  END
>  <meeko>  (3) 
{"free_energy": -8.19, "intermolecular_energy": -9.39, "internal_energy": -0.73, "cluster_size": 12, "cluster_id": 1, "rank_in_cluster": 4}

$$$$

     RDKit          3D

 44 47  0  0  0  0  0  0  0  0999 V2000
  133.9080   68.4370  225.8120 H   0  0  0  0  0  0  0  0  0  0  0  0
  133.5750   69.2010  226.4390 N   0  0  0  0  0  0  0  0  0  0  0  0
  133.8250   70.4650  226.2670 C   0  0  0  0  0  0  0  0  0  0  0  0
  133.0380   71.3770  226.9060 N   0  0  0  0  0  0  0  0  0  0  0  0
  133.1910   72.7180  226.7290 C   0  0  0  0  0  0  0  0  0  0  0  0
  132.3780   73.5850  227.3800 N   0  0  0  0  0  0  0  0  0  0  0  0
  132.5000   74.9270  227.2250 C   0  0  0  0  0  0  0  0  0  0  0  0
  131.6310   75.7730  227.9230 C   0  0  0  0  0  0  0  0  0  0  0  0
  131.7450   77.1520  227.7720 C   0  0  0  0  0  0  0  0  0  0  0  0
  132.7210   77.6760  226.9290 C   0  0  0  0  0  0  0  0  0  0  0  0
  133.5760   76.8100  226.2430 C   0  0  0  0  0  0  0  0  0  0  0  0
  133.4660   75.4500  226.3890 N   0  0  0  0  0  0  0  0  0  0  0  0
  134.3100   74.6020  225.7120 C   0  0  0  0  0  0  0  0  0  0  0  0
  135.2000   75.0630  224.9430 O   0  0  0  0  0  0  0  0  0  0  0  0
  134.1850   73.2090  225.8710 C   0  0  0  0  0  0  0  0  0  0  0  0
  135.0200   72.2960  225.2120 C   0  0  0  0  0  0  0  0  0  0  0  0
  134.8620   70.9160  225.4080 C   0  0  0  0  0  0  0  0  0  0  0  0
  135.8060   69.9950  224.7340 C   0  0  0  0  0  0  0  0  0  0  0  0
  135.4210   68.8420  224.3980 O   0  0  0  0  0  0  0  0  0  0  0  0
  137.1660   70.3960  224.5050 N   0  0  0  0  0  0  0  0  0  0  0  0
  138.1460   69.5120  223.8630 C   0  0  1  0  0  0  0  0  0  0  0  0
  138.7710   70.2070  222.6490 C   0  0  0  0  0  0  0  0  0  0  0  0
  139.2110   69.0860  224.8570 C   0  0  0  0  0  0  0  0  0  0  0  0
  139.2090   67.7920  225.4120 C   0  0  0  0  0  0  0  0  0  0  0  0
  140.1970   67.4120  226.3260 C   0  0  0  0  0  0  0  0  0  0  0  0
  141.1970   68.3160  226.6940 C   0  0  0  0  0  0  0  0  0  0  0  0
  141.2080   69.6020  226.1490 C   0  0  0  0  0  0  0  0  0  0  0  0
  140.2230   69.9880  225.2360 C   0  0  0  0  0  0  0  0  0  0  0  0
  132.2780   71.0390  227.5410 H   0  0  0  0  0  0  0  0  0  0  0  0
  130.8624   75.3508  228.5871 H   0  0  0  0  0  0  0  0  0  0  0  0
  131.0665   77.8251  228.3167 H   0  0  0  0  0  0  0  0  0  0  0  0
  132.8183   78.7645  226.8039 H   0  0  0  0  0  0  0  0  0  0  0  0
  134.3476   77.2237  225.5770 H   0  0  0  0  0  0  0  0  0  0  0  0
  135.8054   72.6646  224.5358 H   0  0  0  0  0  0  0  0  0  0  0  0
  137.4360   71.3780  224.7370 H   0  0  0  0  0  0  0  0  0  0  0  0
  137.6297   68.6061  223.5125 H   0  0  0  0  0  0  0  0  0  0  0  0
  139.4700   70.9843  222.9912 H   0  0  0  0  0  0  0  0  0  0  0  0
  139.3137   69.4673  222.0421 H   0  0  0  0  0  0  0  0  0  0  0  0
  137.9780   70.6684  222.0421 H   0  0  0  0  0  0  0  0  0  0  0  0
  138.4254   67.0754  225.1249 H   0  0  0  0  0  0  0  0  0  0  0  0
  140.1869   66.3996  226.7560 H   0  0  0  0  0  0  0  0  0  0  0  0
  141.9744   68.0153  227.4118 H   0  0  0  0  0  0  0  0  0  0  0  0
  141.9949   70.3136  226.4396 H   0  0  0  0  0  0  0  0  0  0  0  0
  140.2386   71.0025  224.8111 H   0  0  0  0  0  0  0  0  0  0  0  0
  1  2  1  0
  2  3  2  0
  3  4  1  0
  4  5  1  0
  5  6  1  0
  6  7  2  0
  7  8  1  0
  8  9  2  0
  9 10  1  0
 10 11  2  0
 11 12  1  0
 12 13  1  0
 13 14  2  0
 13 15  1  0
 15 16  1  0
 16 17  2  0
 17 18  1  0
 18 19  2  0
 18 20  1  0
 20 21  1  0
 21 22  1  0
 21 23  1  0
 23 24  2  0
 24 25  1  0
 25 26  2  0
 26 27  1  0
 27 28  2  0
 17  3  1  0
 28 23  1  0
 15  5  2  0
 12  7  1  0
  4 29  1  0
  8 30  1  0
  9 31  1  0
 10 32  1  0
 11 33  1  0
 16 34  1  0
 20 35  1  0
 21 36  1  6
 22 37  1  0
 22 38  1  0
 22 39  1  0
 24 40  1  0
 25 41  1  0
 26 42  1  0
 27 43  1  0
 28 44  1  0
M  END
>  <meeko>  (4) 
{"free_energy": -7.56, "intermolecular_energy": -8.75, "internal_energy": -0.95, "cluster_size": 6, "cluster_id": 2, "rank_in_cluster": 4}

$$$$

     RDKit          3D

 44 47  0  0  0  0  0  0  0  0999 V2000
  144.3260   76.9350  220.5010 H   0  0  0  0  0  0  0  0  0  0  0  0
  144.0300   76.3030  219.7260 N   0  0  0  0  0  0  0  0  0  0  0  0
  143.7760   75.0350  219.8580 C   0  0  0  0  0  0  0  0  0  0  0  0
  144.7620   74.1390  219.5640 N   0  0  0  0  0  0  0  0  0  0  0  0
  144.5580   72.7950  219.6140 C   0  0  0  0  0  0  0  0  0  0  0  0
  145.5670   71.9450  219.3050 N   0  0  0  0  0  0  0  0  0  0  0  0
  145.3990   70.5980  219.3410 C   0  0  0  0  0  0  0  0  0  0  0  0
  146.4780   69.7710  219.0110 C   0  0  0  0  0  0  0  0  0  0  0  0
  146.3190   68.3890  219.0430 C   0  0  0  0  0  0  0  0  0  0  0  0
  145.0890   67.8440  219.4030 C   0  0  0  0  0  0  0  0  0  0  0  0
  144.0280   68.6910  219.7270 C   0  0  0  0  0  0  0  0  0  0  0  0
  144.1820   70.0550  219.6960 N   0  0  0  0  0  0  0  0  0  0  0  0
  143.1340   70.8860  220.0160 C   0  0  0  0  0  0  0  0  0  0  0  0
  142.0120   70.4050  220.3440 O   0  0  0  0  0  0  0  0  0  0  0  0
  143.3060   72.2820  219.9800 C   0  0  0  0  0  0  0  0  0  0  0  0
  142.2770   73.1790  220.3020 C   0  0  0  0  0  0  0  0  0  0  0  0
  142.4980   74.5630  220.2580 C   0  0  0  0  0  0  0  0  0  0  0  0
  141.3960   75.4660  220.6620 C   0  0  0  0  0  0  0  0  0  0  0  0
  140.2020   75.0690  220.5840 O   0  0  0  0  0  0  0  0  0  0  0  0
  141.6830   76.8050  221.0960 N   0  0  0  0  0  0  0  0  0  0  0  0
  140.6260   77.7470  221.4830 C   0  0  1  0  0  0  0  0  0  0  0  0
  139.5820   77.0420  222.3550 C   0  0  0  0  0  0  0  0  0  0  0  0
  141.2170   78.9460  222.2010 C   0  0  0  0  0  0  0  0  0  0  0  0
  141.7050   78.8360  223.5180 C   0  0  0  0  0  0  0  0  0  0  0  0
  142.2480   79.9480  224.1680 C   0  0  0  0  0  0  0  0  0  0  0  0
  142.3120   81.1800  223.5130 C   0  0  0  0  0  0  0  0  0  0  0  0
  141.8320   81.3010  222.2060 C   0  0  0  0  0  0  0  0  0  0  0  0
  141.2880   80.1930  221.5520 C   0  0  0  0  0  0  0  0  0  0  0  0
  145.7030   74.4940  219.2740 H   0  0  0  0  0  0  0  0  0  0  0  0
  147.4459   70.2104  218.7280 H   0  0  0  0  0  0  0  0  0  0  0  0
  147.1611   67.7299  218.7851 H   0  0  0  0  0  0  0  0  0  0  0  0
  144.9545   66.7526  219.4318 H   0  0  0  0  0  0  0  0  0  0  0  0
  143.0564   68.2604  220.0107 H   0  0  0  0  0  0  0  0  0  0  0  0
  141.2882   72.7936  220.5915 H   0  0  0  0  0  0  0  0  0  0  0  0
  142.6840   77.0830  221.2100 H   0  0  0  0  0  0  0  0  0  0  0  0
  140.1259   78.1111  220.5735 H   0  0  0  0  0  0  0  0  0  0  0  0
  139.8213   77.2036  223.4164 H   0  0  0  0  0  0  0  0  0  0  0  0
  138.5849   77.4524  222.1373 H   0  0  0  0  0  0  0  0  0  0  0  0
  139.5902   75.9638  222.1373 H   0  0  0  0  0  0  0  0  0  0  0  0
  141.6584   77.8681  224.0385 H   0  0  0  0  0  0  0  0  0  0  0  0
  142.6255   79.8527  225.1968 H   0  0  0  0  0  0  0  0  0  0  0  0
  142.7398   82.0543  224.0254 H   0  0  0  0  0  0  0  0  0  0  0  0
  141.8827   82.2716  221.6908 H   0  0  0  0  0  0  0  0  0  0  0  0
  140.9127   80.2957  220.5231 H   0  0  0  0  0  0  0  0  0  0  0  0
  1  2  1  0
  2  3  2  0
  3  4  1  0
  4  5  1  0
  5  6  1  0
  6  7  2  0
  7  8  1  0
  8  9  2  0
  9 10  1  0
 10 11  2  0
 11 12  1  0
 12 13  1  0
 13 14  2  0
 13 15  1  0
 15 16  1  0
 16 17  2  0
 17 18  1  0
 18 19  2  0
 18 20  1  0
 20 21  1  0
 21 22  1  0
 21 23  1  0
 23 24  2  0
 24 25  1  0
 25 26  2  0
 26 27  1  0
 27 28  2  0
 17  3  1  0
 28 23  1  0
 15  5  2  0
 12  7  1  0
  4 29  1  0
  8 30  1  0
  9 31  1  0
 10 32  1  0
 11 33  1  0
 16 34  1  0
 20 35  1  0
 21 36  1  6
 22 37  1  0
 22 38  1  0
 22 39  1  0
 24 40  1  0
 25 41  1  0
 26 42  1  0
 27 43  1  0
 28 44  1  0
M  END
>  <meeko>  (5) 
{"free_energy": -8.2, "intermolecular_energy": -9.39, "internal_energy": -0.71, "cluster_size": 12, "cluster_id": 1, "rank_in_cluster": 3}

$$$$

     RDKit          3D

 44 47  0  0  0  0  0  0  0  0999 V2000
  144.0510   76.9460  220.6430 H   0  0  0  0  0  0  0  0  0  0  0  0
  144.4390   76.1820  220.0490 N   0  0  0  0  0  0  0  0  0  0  0  0
  144.0900   74.9320  220.1250 C   0  0  0  0  0  0  0  0  0  0  0  0
  144.9950   73.9800  219.7560 N   0  0  0  0  0  0  0  0  0  0  0  0
  144.6890   72.6550  219.7440 C   0  0  0  0  0  0  0  0  0  0  0  0
  145.6190   71.7470  219.3620 N   0  0  0  0  0  0  0  0  0  0  0  0
  145.3480   70.4180  219.3340 C   0  0  0  0  0  0  0  0  0  0  0  0
  146.3490   69.5280  218.9300 C   0  0  0  0  0  0  0  0  0  0  0  0
  146.0830   68.1630  218.8970 C   0  0  0  0  0  0  0  0  0  0  0  0
  144.8250   67.6950  219.2670 C   0  0  0  0  0  0  0  0  0  0  0  0
  143.8420   68.6030  219.6670 C   0  0  0  0  0  0  0  0  0  0  0  0
  144.1010   69.9510  219.7000 N   0  0  0  0  0  0  0  0  0  0  0  0
  143.1310   70.8420  220.0930 C   0  0  0  0  0  0  0  0  0  0  0  0
  141.9840   70.4320  220.4320 O   0  0  0  0  0  0  0  0  0  0  0  0
  143.4100   72.2210  220.1220 C   0  0  0  0  0  0  0  0  0  0  0  0
  142.4630   73.1750  220.5210 C   0  0  0  0  0  0  0  0  0  0  0  0
  142.7910   74.5390  220.5400 C   0  0  0  0  0  0  0  0  0  0  0  0
  141.7740   75.5020  221.0230 C   0  0  0  0  0  0  0  0  0  0  0  0
  140.9900   75.1680  221.9520 O   0  0  0  0  0  0  0  0  0  0  0  0
  141.6520   76.7920  220.4050 N   0  0  0  0  0  0  0  0  0  0  0  0
  140.6450   77.7720  220.8300 C   0  0  1  0  0  0  0  0  0  0  0  0
  139.3870   77.0550  221.3330 C   0  0  0  0  0  0  0  0  0  0  0  0
  141.2110   78.6910  221.8950 C   0  0  0  0  0  0  0  0  0  0  0  0
  141.6470   79.9920  221.5740 C   0  0  0  0  0  0  0  0  0  0  0  0
  142.1660   80.8300  222.5650 C   0  0  0  0  0  0  0  0  0  0  0  0
  142.2550   80.3820  223.8860 C   0  0  0  0  0  0  0  0  0  0  0  0
  141.8260   79.0950  224.2160 C   0  0  0  0  0  0  0  0  0  0  0  0
  141.3060   78.2530  223.2290 C   0  0  0  0  0  0  0  0  0  0  0  0
  145.9530   74.2760  219.4550 H   0  0  0  0  0  0  0  0  0  0  0  0
  147.3407   69.9055  218.6401 H   0  0  0  0  0  0  0  0  0  0  0  0
  146.8637   67.4560  218.5798 H   0  0  0  0  0  0  0  0  0  0  0  0
  144.6067   66.6171  219.2444 H   0  0  0  0  0  0  0  0  0  0  0  0
  142.8479   68.2336  219.9593 H   0  0  0  0  0  0  0  0  0  0  0  0
  141.4554   72.8516  220.8213 H   0  0  0  0  0  0  0  0  0  0  0  0
  142.3550   77.0620  219.6820 H   0  0  0  0  0  0  0  0  0  0  0  0
  140.3663   78.3905  219.9641 H   0  0  0  0  0  0  0  0  0  0  0  0
  139.3817   77.0520  222.4330 H   0  0  0  0  0  0  0  0  0  0  0  0
  138.4935   77.5795  220.9635 H   0  0  0  0  0  0  0  0  0  0  0  0
  139.3830   76.0189  220.9635 H   0  0  0  0  0  0  0  0  0  0  0  0
  141.5784   80.3506  220.5363 H   0  0  0  0  0  0  0  0  0  0  0  0
  142.5049   81.8436  222.3049 H   0  0  0  0  0  0  0  0  0  0  0  0
  142.6627   81.0429  224.6650 H   0  0  0  0  0  0  0  0  0  0  0  0
  141.8975   78.7427  225.2556 H   0  0  0  0  0  0  0  0  0  0  0  0
  140.9686   77.2408  223.4968 H   0  0  0  0  0  0  0  0  0  0  0  0
  1  2  1  0
  2  3  2  0
  3  4  1  0
  4  5  1  0
  5  6  1  0
  6  7  2  0
  7  8  1  0
  8  9  2  0
  9 10  1  0
 10 11  2  0
 11 12  1  0
 12 13  1  0
 13 14  2  0
 13 15  1  0
 15 16  1  0
 16 17  2  0
 17 18  1  0
 18 19  2  0
 18 20  1  0
 20 21  1  0
 21 22  1  0
 21 23  1  0
 23 24  2  0
 24 25  1  0
 25 26  2  0
 26 27  1  0
 27 28  2  0
 17  3  1  0
 28 23  1  0
 15  5  2  0
 12  7  1  0
  4 29  1  0
  8 30  1  0
  9 31  1  0
 10 32  1  0
 11 33  1  0
 16 34  1  0
 20 35  1  0
 21 36  1  6
 22 37  1  0
 22 38  1  0
 22 39  1  0
 24 40  1  0
 25 41  1  0
 26 42  1  0
 27 43  1  0
 28 44  1  0
M  END
>  <meeko>  (6) 
{"free_energy": -7.96, "intermolecular_energy": -9.15, "internal_energy": -0.57, "cluster_size": 12, "cluster_id": 1, "rank_in_cluster": 11}

$$$$

     RDKit          3D

 44 47  0  0  0  0  0  0  0  0999 V2000
  144.4490   76.9090  220.4750 H   0  0  0  0  0  0  0  0  0  0  0  0
  144.0570   76.3040  219.7220 N   0  0  0  0  0  0  0  0  0  0  0  0
  143.7960   75.0370  219.8490 C   0  0  0  0  0  0  0  0  0  0  0  0
  144.7810   74.1380  219.5620 N   0  0  0  0  0  0  0  0  0  0  0  0
  144.5710   72.7940  219.6070 C   0  0  0  0  0  0  0  0  0  0  0  0
  145.5790   71.9400  219.3050 N   0  0  0  0  0  0  0  0  0  0  0  0
  145.4050   70.5950  219.3360 C   0  0  0  0  0  0  0  0  0  0  0  0
  146.4830   69.7630  219.0140 C   0  0  0  0  0  0  0  0  0  0  0  0
  146.3180   68.3820  219.0410 C   0  0  0  0  0  0  0  0  0  0  0  0
  145.0830   67.8410  219.3880 C   0  0  0  0  0  0  0  0  0  0  0  0
  144.0220   68.6920  219.7040 C   0  0  0  0  0  0  0  0  0  0  0  0
  144.1820   70.0550  219.6780 N   0  0  0  0  0  0  0  0  0  0  0  0
  143.1350   70.8900  219.9910 C   0  0  0  0  0  0  0  0  0  0  0  0
  142.0080   70.4130  220.3070 O   0  0  0  0  0  0  0  0  0  0  0  0
  143.3130   72.2860  219.9600 C   0  0  0  0  0  0  0  0  0  0  0  0
  142.2850   73.1850  220.2740 C   0  0  0  0  0  0  0  0  0  0  0  0
  142.5130   74.5690  220.2360 C   0  0  0  0  0  0  0  0  0  0  0  0
  141.4110   75.4760  220.6320 C   0  0  0  0  0  0  0  0  0  0  0  0
  140.2160   75.0840  220.5410 O   0  0  0  0  0  0  0  0  0  0  0  0
  141.7000   76.8120  221.0750 N   0  0  0  0  0  0  0  0  0  0  0  0
  140.6430   77.7570  221.4540 C   0  0  1  0  0  0  0  0  0  0  0  0
  139.6060   77.0630  222.3440 C   0  0  0  0  0  0  0  0  0  0  0  0
  141.2360   78.9680  222.1500 C   0  0  0  0  0  0  0  0  0  0  0  0
  141.2640   80.2270  221.5170 C   0  0  0  0  0  0  0  0  0  0  0  0
  141.8110   81.3350  222.1700 C   0  0  0  0  0  0  0  0  0  0  0  0
  142.3350   81.2020  223.4590 C   0  0  0  0  0  0  0  0  0  0  0  0
  142.3120   79.9590  224.0960 C   0  0  0  0  0  0  0  0  0  0  0  0
  141.7660   78.8470  223.4480 C   0  0  0  0  0  0  0  0  0  0  0  0
  145.7260   74.4890  219.2820 H   0  0  0  0  0  0  0  0  0  0  0  0
  147.4555   70.1986  218.7411 H   0  0  0  0  0  0  0  0  0  0  0  0
  147.1598   67.7202  218.7892 H   0  0  0  0  0  0  0  0  0  0  0  0
  144.9439   66.7501  219.4131 H   0  0  0  0  0  0  0  0  0  0  0  0
  143.0458   68.2648  219.9772 H   0  0  0  0  0  0  0  0  0  0  0  0
  141.2918   72.8029  220.5524 H   0  0  0  0  0  0  0  0  0  0  0  0
  142.7000   77.0850  221.1990 H   0  0  0  0  0  0  0  0  0  0  0  0
  140.1359   78.1056  220.5422 H   0  0  0  0  0  0  0  0  0  0  0  0
  139.8584   77.2319  223.4012 H   0  0  0  0  0  0  0  0  0  0  0  0
  138.6081   77.4759  222.1347 H   0  0  0  0  0  0  0  0  0  0  0  0
  139.6072   75.9831  222.1347 H   0  0  0  0  0  0  0  0  0  0  0  0
  140.8528   80.3382  220.5028 H   0  0  0  0  0  0  0  0  0  0  0  0
  141.8292   82.3138  221.6685 H   0  0  0  0  0  0  0  0  0  0  0  0
  142.7651   82.0753  223.9713 H   0  0  0  0  0  0  0  0  0  0  0  0
  142.7246   79.8548  225.1103 H   0  0  0  0  0  0  0  0  0  0  0  0
  141.7506   77.8714  223.9559 H   0  0  0  0  0  0  0  0  0  0  0  0
  1  2  1  0
  2  3  2  0
  3  4  1  0
  4  5  1  0
  5  6  1  0
  6  7  2  0
  7  8  1  0
  8  9  2  0
  9 10  1  0
 10 11  2  0
 11 12  1  0
 12 13  1  0
 13 14  2  0
 13 15  1  0
 15 16  1  0
 16 17  2  0
 17 18  1  0
 18 19  2  0
 18 20  1  0
 20 21  1  0
 21 22  1  0
 21 23  1  0
 23 24  2  0
 24 25  1  0
 25 26  2  0
 26 27  1  0
 27 28  2  0
 17  3  1  0
 28 23  1  0
 15  5  2  0
 12  7  1  0
  4 29  1  0
  8 30  1  0
  9 31  1  0
 10 32  1  0
 11 33  1  0
 16 34  1  0
 20 35  1  0
 21 36  1  6
 22 37  1  0
 22 38  1  0
 22 39  1  0
 24 40  1  0
 25 41  1  0
 26 42  1  0
 27 43  1  0
 28 44  1  0
M  END
>  <meeko>  (7) 
{"free_energy": -8.19, "intermolecular_energy": -9.38, "internal_energy": -0.73, "cluster_size": 12, "cluster_id": 1, "rank_in_cluster": 5}

$$$$

     RDKit          3D

 44 47  0  0  0  0  0  0  0  0999 V2000
  133.8730   68.4170  225.8190 H   0  0  0  0  0  0  0  0  0  0  0  0
  133.5640   69.1820  226.4570 N   0  0  0  0  0  0  0  0  0  0  0  0
  133.8180   70.4440  226.2810 C   0  0  0  0  0  0  0  0  0  0  0  0
  133.0370   71.3610  226.9230 N   0  0  0  0  0  0  0  0  0  0  0  0
  133.1950   72.7000  226.7420 C   0  0  0  0  0  0  0  0  0  0  0  0
  132.3890   73.5720  227.3950 N   0  0  0  0  0  0  0  0  0  0  0  0
  132.5150   74.9140  227.2370 C   0  0  0  0  0  0  0  0  0  0  0  0
  131.6540   75.7640  227.9380 C   0  0  0  0  0  0  0  0  0  0  0  0
  131.7730   77.1420  227.7830 C   0  0  0  0  0  0  0  0  0  0  0  0
  132.7460   77.6600  226.9340 C   0  0  0  0  0  0  0  0  0  0  0  0
  133.5940   76.7900  226.2450 C   0  0  0  0  0  0  0  0  0  0  0  0
  133.4790   75.4310  226.3950 N   0  0  0  0  0  0  0  0  0  0  0  0
  134.3160   74.5770  225.7140 C   0  0  0  0  0  0  0  0  0  0  0  0
  135.2040   75.0340  224.9400 O   0  0  0  0  0  0  0  0  0  0  0  0
  134.1860   73.1850  225.8770 C   0  0  0  0  0  0  0  0  0  0  0  0
  135.0140   72.2670  225.2150 C   0  0  0  0  0  0  0  0  0  0  0  0
  134.8510   70.8890  225.4160 C   0  0  0  0  0  0  0  0  0  0  0  0
  135.7880   69.9630  224.7370 C   0  0  0  0  0  0  0  0  0  0  0  0
  135.3790   68.8350  224.3490 O   0  0  0  0  0  0  0  0  0  0  0  0
  137.1660   70.3280  224.5660 N   0  0  0  0  0  0  0  0  0  0  0  0
  138.1390   69.4370  223.9230 C   0  0  1  0  0  0  0  0  0  0  0  0
  138.7400   70.1120  222.6870 C   0  0  0  0  0  0  0  0  0  0  0  0
  139.2220   69.0330  224.9060 C   0  0  0  0  0  0  0  0  0  0  0  0
  139.2000   67.7710  225.5320 C   0  0  0  0  0  0  0  0  0  0  0  0
  140.2050   67.4110  226.4340 C   0  0  0  0  0  0  0  0  0  0  0  0
  141.2430   68.3020  226.7210 C   0  0  0  0  0  0  0  0  0  0  0  0
  141.2750   69.5560  226.1060 C   0  0  0  0  0  0  0  0  0  0  0  0
  140.2720   69.9210  225.2030 C   0  0  0  0  0  0  0  0  0  0  0  0
  132.2800   71.0270  227.5630 H   0  0  0  0  0  0  0  0  0  0  0  0
  130.8877   75.3463  228.6076 H   0  0  0  0  0  0  0  0  0  0  0  0
  131.1002   77.8191  228.3297 H   0  0  0  0  0  0  0  0  0  0  0  0
  132.8468   78.7479  226.8062 H   0  0  0  0  0  0  0  0  0  0  0  0
  134.3634   77.1993  225.5739 H   0  0  0  0  0  0  0  0  0  0  0  0
  135.7969   72.6306  224.5332 H   0  0  0  0  0  0  0  0  0  0  0  0
  137.4590   71.2920  224.8410 H   0  0  0  0  0  0  0  0  0  0  0  0
  137.6207   68.5231  223.5971 H   0  0  0  0  0  0  0  0  0  0  0  0
  139.4406   70.8989  223.0032 H   0  0  0  0  0  0  0  0  0  0  0  0
  139.2764   69.3638  222.0849 H   0  0  0  0  0  0  0  0  0  0  0  0
  137.9348   70.5583  222.0849 H   0  0  0  0  0  0  0  0  0  0  0  0
  138.3867   67.0646  225.3094 H   0  0  0  0  0  0  0  0  0  0  0  0
  140.1791   66.4241  226.9192 H   0  0  0  0  0  0  0  0  0  0  0  0
  142.0337   68.0162  227.4302 H   0  0  0  0  0  0  0  0  0  0  0  0
  142.0912   70.2578  226.3328 H   0  0  0  0  0  0  0  0  0  0  0  0
  140.3041   70.9094  224.7214 H   0  0  0  0  0  0  0  0  0  0  0  0
  1  2  1  0
  2  3  2  0
  3  4  1  0
  4  5  1  0
  5  6  1  0
  6  7  2  0
  7  8  1  0
  8  9  2  0
  9 10  1  0
 10 11  2  0
 11 12  1  0
 12 13  1  0
 13 14  2  0
 13 15  1  0
 15 16  1  0
 16 17  2  0
 17 18  1  0
 18 19  2  0
 18 20  1  0
 20 21  1  0
 21 22  1  0
 21 23  1  0
 23 24  2  0
 24 25  1  0
 25 26  2  0
 26 27  1  0
 27 28  2  0
 17  3  1  0
 28 23  1  0
 15  5  2  0
 12  7  1  0
  4 29  1  0
  8 30  1  0
  9 31  1  0
 10 32  1  0
 11 33  1  0
 16 34  1  0
 20 35  1  0
 21 36  1  6
 22 37  1  0
 22 38  1  0
 22 39  1  0
 24 40  1  0
 25 41  1  0
 26 42  1  0
 27 43  1  0
 28 44  1  0
M  END
>  <meeko>  (8) 
{"free_energy": -7.58, "intermolecular_energy": -8.77, "internal_energy": -0.94, "cluster_size": 6, "cluster_id": 2, "rank_in_cluster": 2}

$$$$

     RDKit          3D

 44 47  0  0  0  0  0  0  0  0999 V2000
  133.8830   68.4540  225.8850 H   0  0  0  0  0  0  0  0  0  0  0  0
  133.4850   69.2270  226.4610 N   0  0  0  0  0  0  0  0  0  0  0  0
  133.7600   70.4880  226.3040 C   0  0  0  0  0  0  0  0  0  0  0  0
  132.9600   71.4090  226.9150 N   0  0  0  0  0  0  0  0  0  0  0  0
  133.1390   72.7470  226.7500 C   0  0  0  0  0  0  0  0  0  0  0  0
  132.3140   73.6240  227.3720 N   0  0  0  0  0  0  0  0  0  0  0  0
  132.4600   74.9650  227.2270 C   0  0  0  0  0  0  0  0  0  0  0  0
  131.5770   75.8210  227.8940 C   0  0  0  0  0  0  0  0  0  0  0  0
  131.7160   77.1980  227.7540 C   0  0  0  0  0  0  0  0  0  0  0  0
  132.7320   77.7110  226.9520 C   0  0  0  0  0  0  0  0  0  0  0  0
  133.6010   76.8360  226.2970 C   0  0  0  0  0  0  0  0  0  0  0  0
  133.4660   75.4770  226.4330 N   0  0  0  0  0  0  0  0  0  0  0  0
  134.3240   74.6190  225.7860 C   0  0  0  0  0  0  0  0  0  0  0  0
  135.2510   75.0700  225.0550 O   0  0  0  0  0  0  0  0  0  0  0  0
  134.1730   73.2270  225.9340 C   0  0  0  0  0  0  0  0  0  0  0  0
  135.0210   72.3050  225.3050 C   0  0  0  0  0  0  0  0  0  0  0  0
  134.8350   70.9260  225.4890 C   0  0  0  0  0  0  0  0  0  0  0  0
  135.7920   69.9950  224.8480 C   0  0  0  0  0  0  0  0  0  0  0  0
  135.4250   68.8230  224.5610 O   0  0  0  0  0  0  0  0  0  0  0  0
  137.1440   70.4090  224.5970 N   0  0  0  0  0  0  0  0  0  0  0  0
  138.1370   69.5160  223.9880 C   0  0  1  0  0  0  0  0  0  0  0  0
  138.7980   70.1990  222.7870 C   0  0  0  0  0  0  0  0  0  0  0  0
  139.1720   69.0910  225.0130 C   0  0  0  0  0  0  0  0  0  0  0  0
  139.2170   67.7680  225.4940 C   0  0  0  0  0  0  0  0  0  0  0  0
  140.1770   67.3890  226.4370 C   0  0  0  0  0  0  0  0  0  0  0  0
  141.1030   68.3230  226.9090 C   0  0  0  0  0  0  0  0  0  0  0  0
  141.0680   69.6380  226.4380 C   0  0  0  0  0  0  0  0  0  0  0  0
  140.1100   70.0220  225.4960 C   0  0  0  0  0  0  0  0  0  0  0  0
  132.1720   71.0790  227.5190 H   0  0  0  0  0  0  0  0  0  0  0  0
  130.7771   75.4074  228.5257 H   0  0  0  0  0  0  0  0  0  0  0  0
  131.0263   77.8786  228.2746 H   0  0  0  0  0  0  0  0  0  0  0  0
  132.8493   78.7985  226.8351 H   0  0  0  0  0  0  0  0  0  0  0  0
  134.4041   77.2411  225.6639 H   0  0  0  0  0  0  0  0  0  0  0  0
  135.8382   72.6648  224.6625 H   0  0  0  0  0  0  0  0  0  0  0  0
  137.3990   71.4040  224.7880 H   0  0  0  0  0  0  0  0  0  0  0  0
  137.6257   68.6103  223.6298 H   0  0  0  0  0  0  0  0  0  0  0  0
  139.5218   70.9469  223.1431 H   0  0  0  0  0  0  0  0  0  0  0  0
  139.3189   69.4457  222.1777 H   0  0  0  0  0  0  0  0  0  0  0  0
  138.0281   70.6949  222.1777 H   0  0  0  0  0  0  0  0  0  0  0  0
  138.4917   67.0278  225.1251 H   0  0  0  0  0  0  0  0  0  0  0  0
  140.2035   66.3538  226.8080 H   0  0  0  0  0  0  0  0  0  0  0  0
  141.8584   68.0234  227.6503 H   0  0  0  0  0  0  0  0  0  0  0  0
  141.7968   70.3732  226.8099 H   0  0  0  0  0  0  0  0  0  0  0  0
  140.0890   71.0590  225.1296 H   0  0  0  0  0  0  0  0  0  0  0  0
  1  2  1  0
  2  3  2  0
  3  4  1  0
  4  5  1  0
  5  6  1  0
  6  7  2  0
  7  8  1  0
  8  9  2  0
  9 10  1  0
 10 11  2  0
 11 12  1  0
 12 13  1  0
 13 14  2  0
 13 15  1  0
 15 16  1  0
 16 17  2  0
 17 18  1  0
 18 19  2  0
 18 20  1  0
 20 21  1  0
 21 22  1  0
 21 23  1  0
 23 24  2  0
 24 25  1  0
 25 26  2  0
 26 27  1  0
 27 28  2  0
 17  3  1  0
 28 23  1  0
 15  5  2  0
 12  7  1  0
  4 29  1  0
  8 30  1  0
  9 31  1  0
 10 32  1  0
 11 33  1  0
 16 34  1  0
 20 35  1  0
 21 36  1  6
 22 37  1  0
 22 38  1  0
 22 39  1  0
 24 40  1  0
 25 41  1  0
 26 42  1  0
 27 43  1  0
 28 44  1  0
M  END
>  <meeko>  (9) 
{"free_energy": -7.55, "intermolecular_energy": -8.75, "internal_energy": -0.95, "cluster_size": 6, "cluster_id": 2, "rank_in_cluster": 6}

$$$$

     RDKit          3D

 44 47  0  0  0  0  0  0  0  0999 V2000
  140.0800   73.8800  222.0970 H   0  0  0  0  0  0  0  0  0  0  0  0
  140.8150   74.4230  221.5940 N   0  0  0  0  0  0  0  0  0  0  0  0
  141.8120   73.8990  220.9460 C   0  0  0  0  0  0  0  0  0  0  0  0
  141.9770   72.5460  220.9880 N   0  0  0  0  0  0  0  0  0  0  0  0
  143.0300   71.9250  220.3920 C   0  0  0  0  0  0  0  0  0  0  0  0
  143.1550   70.5780  220.4680 N   0  0  0  0  0  0  0  0  0  0  0  0
  144.1940   69.9250  219.8890 C   0  0  0  0  0  0  0  0  0  0  0  0
  144.2690   68.5330  220.0010 C   0  0  0  0  0  0  0  0  0  0  0  0
  145.3300   67.8520  219.4120 C   0  0  0  0  0  0  0  0  0  0  0  0
  146.3050   68.5610  218.7170 C   0  0  0  0  0  0  0  0  0  0  0  0
  146.2080   69.9510  218.6190 C   0  0  0  0  0  0  0  0  0  0  0  0
  145.1630   70.6260  219.1990 N   0  0  0  0  0  0  0  0  0  0  0  0
  145.0710   71.9940  219.1000 C   0  0  0  0  0  0  0  0  0  0  0  0
  145.9480   72.6510  218.4720 O   0  0  0  0  0  0  0  0  0  0  0  0
  143.9940   72.6730  219.7010 C   0  0  0  0  0  0  0  0  0  0  0  0
  143.8440   74.0650  219.6280 C   0  0  0  0  0  0  0  0  0  0  0  0
  142.7490   74.6960  220.2360 C   0  0  0  0  0  0  0  0  0  0  0  0
  142.6050   76.1620  220.0820 C   0  0  0  0  0  0  0  0  0  0  0  0
  143.5300   76.8270  219.5420 O   0  0  0  0  0  0  0  0  0  0  0  0
  141.4380   76.8300  220.5880 N   0  0  0  0  0  0  0  0  0  0  0  0
  141.2600   78.2830  220.4820 C   0  0  1  0  0  0  0  0  0  0  0  0
  139.8100   78.6130  220.1120 C   0  0  0  0  0  0  0  0  0  0  0  0
  141.6610   78.9650  221.7770 C   0  0  0  0  0  0  0  0  0  0  0  0
  142.2410   80.2490  221.7710 C   0  0  0  0  0  0  0  0  0  0  0  0
  142.6050   80.8670  222.9710 C   0  0  0  0  0  0  0  0  0  0  0  0
  142.3940   80.2130  224.1880 C   0  0  0  0  0  0  0  0  0  0  0  0
  141.8200   78.9400  224.2060 C   0  0  0  0  0  0  0  0  0  0  0  0
  141.4540   78.3180  223.0090 C   0  0  0  0  0  0  0  0  0  0  0  0
  141.2810   71.9640  221.5090 H   0  0  0  0  0  0  0  0  0  0  0  0
  143.4938   67.9797  220.5515 H   0  0  0  0  0  0  0  0  0  0  0  0
  145.3977   66.7573  219.4955 H   0  0  0  0  0  0  0  0  0  0  0  0
  147.1466   68.0303  218.2478 H   0  0  0  0  0  0  0  0  0  0  0  0
  146.9788   70.5118  218.0701 H   0  0  0  0  0  0  0  0  0  0  0  0
  144.5909   74.6669  219.0897 H   0  0  0  0  0  0  0  0  0  0  0  0
  140.6630   76.2450  220.9730 H   0  0  0  0  0  0  0  0  0  0  0  0
  141.9144   78.6626  219.6835 H   0  0  0  0  0  0  0  0  0  0  0  0
  139.2189   78.7475  221.0299 H   0  0  0  0  0  0  0  0  0  0  0  0
  139.7844   79.5399  219.5203 H   0  0  0  0  0  0  0  0  0  0  0  0
  139.3858   77.7884  219.5203 H   0  0  0  0  0  0  0  0  0  0  0  0
  142.4085   80.7685  220.8160 H   0  0  0  0  0  0  0  0  0  0  0  0
  143.0580   81.8693  222.9573 H   0  0  0  0  0  0  0  0  0  0  0  0
  142.6800   80.7009  225.1315 H   0  0  0  0  0  0  0  0  0  0  0  0
  141.6556   78.4257  225.1643 H   0  0  0  0  0  0  0  0  0  0  0  0
  141.0010   77.3158  223.0304 H   0  0  0  0  0  0  0  0  0  0  0  0
  1  2  1  0
  2  3  2  0
  3  4  1  0
  4  5  1  0
  5  6  1  0
  6  7  2  0
  7  8  1  0
  8  9  2  0
  9 10  1  0
 10 11  2  0
 11 12  1  0
 12 13  1  0
 13 14  2  0
 13 15  1  0
 15 16  1  0
 16 17  2  0
 17 18  1  0
 18 19  2  0
 18 20  1  0
 20 21  1  0
 21 22  1  0
 21 23  1  0
 23 24  2  0
 24 25  1  0
 25 26  2  0
 26 27  1  0
 27 28  2  0
 17  3  1  0
 28 23  1  0
 15  5  2  0
 12  7  1  0
  4 29  1  0
  8 30  1  0
  9 31  1  0
 10 32  1  0
 11 33  1  0
 16 34  1  0
 20 35  1  0
 21 36  1  6
 22 37  1  0
 22 38  1  0
 22 39  1  0
 24 40  1  0
 25 41  1  0
 26 42  1  0
 27 43  1  0
 28 44  1  0
M  END
>  <meeko>  (10) 
{"free_energy": -7.25, "intermolecular_energy": -8.45, "internal_energy": -0.91, "cluster_size": 2, "cluster_id": 3, "rank_in_cluster": 1}

$$$$

     RDKit          3D

 44 47  0  0  0  0  0  0  0  0999 V2000
  133.8750   68.4200  225.8410 H   0  0  0  0  0  0  0  0  0  0  0  0
  133.5410   69.1890  226.4630 N   0  0  0  0  0  0  0  0  0  0  0  0
  133.8000   70.4510  226.2880 C   0  0  0  0  0  0  0  0  0  0  0  0
  133.0150   71.3700  226.9200 N   0  0  0  0  0  0  0  0  0  0  0  0
  133.1770   72.7080  226.7390 C   0  0  0  0  0  0  0  0  0  0  0  0
  132.3660   73.5830  227.3830 N   0  0  0  0  0  0  0  0  0  0  0  0
  132.4970   74.9240  227.2240 C   0  0  0  0  0  0  0  0  0  0  0  0
  131.6300   75.7770  227.9150 C   0  0  0  0  0  0  0  0  0  0  0  0
  131.7530   77.1550  227.7600 C   0  0  0  0  0  0  0  0  0  0  0  0
  132.7360   77.6700  226.9190 C   0  0  0  0  0  0  0  0  0  0  0  0
  133.5890   76.7970  226.2400 C   0  0  0  0  0  0  0  0  0  0  0  0
  133.4700   75.4380  226.3910 N   0  0  0  0  0  0  0  0  0  0  0  0
  134.3110   74.5820  225.7200 C   0  0  0  0  0  0  0  0  0  0  0  0
  135.2080   75.0350  224.9540 O   0  0  0  0  0  0  0  0  0  0  0  0
  134.1770   73.1900  225.8840 C   0  0  0  0  0  0  0  0  0  0  0  0
  135.0100   72.2700  225.2310 C   0  0  0  0  0  0  0  0  0  0  0  0
  134.8430   70.8920  225.4320 C   0  0  0  0  0  0  0  0  0  0  0  0
  135.7840   69.9630  224.7640 C   0  0  0  0  0  0  0  0  0  0  0  0
  135.3820   68.8270  224.3930 O   0  0  0  0  0  0  0  0  0  0  0  0
  137.1590   70.3360  224.5820 N   0  0  0  0  0  0  0  0  0  0  0  0
  138.1360   69.4430  223.9500 C   0  0  1  0  0  0  0  0  0  0  0  0
  138.7460   70.1130  222.7150 C   0  0  0  0  0  0  0  0  0  0  0  0
  139.2130   69.0430  224.9420 C   0  0  0  0  0  0  0  0  0  0  0  0
  139.2000   67.7760  225.5560 C   0  0  0  0  0  0  0  0  0  0  0  0
  140.1990   67.4200  226.4670 C   0  0  0  0  0  0  0  0  0  0  0  0
  141.2220   68.3210  226.7730 C   0  0  0  0  0  0  0  0  0  0  0  0
  141.2450   69.5810  226.1700 C   0  0  0  0  0  0  0  0  0  0  0  0
  140.2490   69.9420  225.2590 C   0  0  0  0  0  0  0  0  0  0  0  0
  132.2510   71.0380  227.5530 H   0  0  0  0  0  0  0  0  0  0  0  0
  130.8558   75.3615  228.5768 H   0  0  0  0  0  0  0  0  0  0  0  0
  131.0765   77.8341  228.2996 H   0  0  0  0  0  0  0  0  0  0  0  0
  132.8401   78.7575  226.7902 H   0  0  0  0  0  0  0  0  0  0  0  0
  134.3659   77.2037  225.5759 H   0  0  0  0  0  0  0  0  0  0  0  0
  135.8000   72.6317  224.5564 H   0  0  0  0  0  0  0  0  0  0  0  0
  137.4450   71.3070  224.8430 H   0  0  0  0  0  0  0  0  0  0  0  0
  137.6196   68.5278  223.6248 H   0  0  0  0  0  0  0  0  0  0  0  0
  139.4550   70.8917  223.0329 H   0  0  0  0  0  0  0  0  0  0  0  0
  139.2747   69.3596  222.1126 H   0  0  0  0  0  0  0  0  0  0  0  0
  137.9464   70.5689  222.1126 H   0  0  0  0  0  0  0  0  0  0  0  0
  138.3985   67.0615  225.3173 H   0  0  0  0  0  0  0  0  0  0  0  0
  140.1795   66.4288  226.9436 H   0  0  0  0  0  0  0  0  0  0  0  0
  142.0087   68.0385  227.4881 H   0  0  0  0  0  0  0  0  0  0  0  0
  142.0494   70.2908  226.4131 H   0  0  0  0  0  0  0  0  0  0  0  0
  140.2745   70.9350  224.7865 H   0  0  0  0  0  0  0  0  0  0  0  0
  1  2  1  0
  2  3  2  0
  3  4  1  0
  4  5  1  0
  5  6  1  0
  6  7  2  0
  7  8  1  0
  8  9  2  0
  9 10  1  0
 10 11  2  0
 11 12  1  0
 12 13  1  0
 13 14  2  0
 13 15  1  0
 15 16  1  0
 16 17  2  0
 17 18  1  0
 18 19  2  0
 18 20  1  0
 20 21  1  0
 21 22  1  0
 21 23  1  0
 23 24  2  0
 24 25  1  0
 25 26  2  0
 26 27  1  0
 27 28  2  0
 17  3  1  0
 28 23  1  0
 15  5  2  0
 12  7  1  0
  4 29  1  0
  8 30  1  0
  9 31  1  0
 10 32  1  0
 11 33  1  0
 16 34  1  0
 20 35  1  0
 21 36  1  6
 22 37  1  0
 22 38  1  0
 22 39  1  0
 24 40  1  0
 25 41  1  0
 26 42  1  0
 27 43  1  0
 28 44  1  0
M  END
>  <meeko>  (11) 
{"free_energy": -7.58, "intermolecular_energy": -8.77, "internal_energy": -0.94, "cluster_size": 6, "cluster_id": 2, "rank_in_cluster": 3}

$$$$

     RDKit          3D

 44 47  0  0  0  0  0  0  0  0999 V2000
  140.9480   75.3040  222.0870 H   0  0  0  0  0  0  0  0  0  0  0  0
  140.8950   74.3890  221.5900 N   0  0  0  0  0  0  0  0  0  0  0  0
  141.8740   73.8450  220.9300 C   0  0  0  0  0  0  0  0  0  0  0  0
  142.0180   72.4890  220.9790 N   0  0  0  0  0  0  0  0  0  0  0  0
  143.0520   71.8470  220.3710 C   0  0  0  0  0  0  0  0  0  0  0  0
  143.1560   70.4990  220.4550 N   0  0  0  0  0  0  0  0  0  0  0  0
  144.1760   69.8260  219.8650 C   0  0  0  0  0  0  0  0  0  0  0  0
  144.2310   68.4330  219.9860 C   0  0  0  0  0  0  0  0  0  0  0  0
  145.2710   67.7310  219.3860 C   0  0  0  0  0  0  0  0  0  0  0  0
  146.2470   68.4210  218.6700 C   0  0  0  0  0  0  0  0  0  0  0  0
  146.1700   69.8110  218.5630 C   0  0  0  0  0  0  0  0  0  0  0  0
  145.1450   70.5060  219.1550 N   0  0  0  0  0  0  0  0  0  0  0  0
  145.0730   71.8750  219.0480 C   0  0  0  0  0  0  0  0  0  0  0  0
  145.9510   72.5140  218.4010 O   0  0  0  0  0  0  0  0  0  0  0  0
  144.0160   72.5750  219.6600 C   0  0  0  0  0  0  0  0  0  0  0  0
  143.8870   73.9690  219.5790 C   0  0  0  0  0  0  0  0  0  0  0  0
  142.8120   74.6220  220.2000 C   0  0  0  0  0  0  0  0  0  0  0  0
  142.6890   76.0890  220.0380 C   0  0  0  0  0  0  0  0  0  0  0  0
  143.6970   76.7660  219.7020 O   0  0  0  0  0  0  0  0  0  0  0  0
  141.4380   76.7420  220.3060 N   0  0  0  0  0  0  0  0  0  0  0  0
  141.2710   78.1950  220.1850 C   0  0  1  0  0  0  0  0  0  0  0  0
  139.8320   78.5310  219.7800 C   0  0  0  0  0  0  0  0  0  0  0  0
  141.6490   78.8860  221.4820 C   0  0  0  0  0  0  0  0  0  0  0  0
  141.4550   78.2520  222.7250 C   0  0  0  0  0  0  0  0  0  0  0  0
  141.8090   78.8990  223.9130 C   0  0  0  0  0  0  0  0  0  0  0  0
  142.3600   80.1830  223.8740 C   0  0  0  0  0  0  0  0  0  0  0  0
  142.5570   80.8210  222.6470 C   0  0  0  0  0  0  0  0  0  0  0  0
  142.2050   80.1780  221.4570 C   0  0  0  0  0  0  0  0  0  0  0  0
  141.3210   71.9220  221.5150 H   0  0  0  0  0  0  0  0  0  0  0  0
  143.4559   67.8961  220.5526 H   0  0  0  0  0  0  0  0  0  0  0  0
  145.3228   66.6359  219.4763 H   0  0  0  0  0  0  0  0  0  0  0  0
  147.0730   67.8741  218.1920 H   0  0  0  0  0  0  0  0  0  0  0  0
  146.9402   70.3558  217.9974 H   0  0  0  0  0  0  0  0  0  0  0  0
  144.6346   74.5549  219.0242 H   0  0  0  0  0  0  0  0  0  0  0  0
  140.6070   76.1470  220.5210 H   0  0  0  0  0  0  0  0  0  0  0  0
  141.9451   78.5639  219.3979 H   0  0  0  0  0  0  0  0  0  0  0  0
  139.2207   78.6737  220.6833 H   0  0  0  0  0  0  0  0  0  0  0  0
  139.8253   79.4549  219.1830 H   0  0  0  0  0  0  0  0  0  0  0  0
  139.4169   77.7056  219.1830 H   0  0  0  0  0  0  0  0  0  0  0  0
  141.0222   77.2414  222.7613 H   0  0  0  0  0  0  0  0  0  0  0  0
  141.6537   78.3969  224.8793 H   0  0  0  0  0  0  0  0  0  0  0  0
  142.6384   80.6909  224.8092 H   0  0  0  0  0  0  0  0  0  0  0  0
  142.9901   81.8317  222.6173 H   0  0  0  0  0  0  0  0  0  0  0  0
  142.3638   80.6857  220.4942 H   0  0  0  0  0  0  0  0  0  0  0  0
  1  2  1  0
  2  3  2  0
  3  4  1  0
  4  5  1  0
  5  6  1  0
  6  7  2  0
  7  8  1  0
  8  9  2  0
  9 10  1  0
 10 11  2  0
 11 12  1  0
 12 13  1  0
 13 14  2  0
 13 15  1  0
 15 16  1  0
 16 17  2  0
 17 18  1  0
 18 19  2  0
 18 20  1  0
 20 21  1  0
 21 22  1  0
 21 23  1  0
 23 24  2  0
 24 25  1  0
 25 26  2  0
 26 27  1  0
 27 28  2  0
 17  3  1  0
 28 23  1  0
 15  5  2  0
 12  7  1  0
  4 29  1  0
  8 30  1  0
  9 31  1  0
 10 32  1  0
 11 33  1  0
 16 34  1  0
 20 35  1  0
 21 36  1  6
 22 37  1  0
 22 38  1  0
 22 39  1  0
 24 40  1  0
 25 41  1  0
 26 42  1  0
 27 43  1  0
 28 44  1  0
M  END
>  <meeko>  (12) 
{"free_energy": -7.17, "intermolecular_energy": -8.37, "internal_energy": -0.99, "cluster_size": 2, "cluster_id": 3, "rank_in_cluster": 2}

$$$$

     RDKit          3D

 44 47  0  0  0  0  0  0  0  0999 V2000
  143.9030   77.0420  220.4600 H   0  0  0  0  0  0  0  0  0  0  0  0
  144.0800   76.3130  219.7360 N   0  0  0  0  0  0  0  0  0  0  0  0
  143.8140   75.0480  219.8750 C   0  0  0  0  0  0  0  0  0  0  0  0
  144.7400   74.1380  219.4560 N   0  0  0  0  0  0  0  0  0  0  0  0
  144.5130   72.7980  219.5070 C   0  0  0  0  0  0  0  0  0  0  0  0
  145.4610   71.9330  219.0710 N   0  0  0  0  0  0  0  0  0  0  0  0
  145.2680   70.5900  219.1030 C   0  0  0  0  0  0  0  0  0  0  0  0
  146.2830   69.7470  218.6390 C   0  0  0  0  0  0  0  0  0  0  0  0
  146.0980   68.3680  218.6660 C   0  0  0  0  0  0  0  0  0  0  0  0
  144.9050   67.8410  219.1540 C   0  0  0  0  0  0  0  0  0  0  0  0
  143.9070   68.7040  219.6120 C   0  0  0  0  0  0  0  0  0  0  0  0
  144.0870   70.0650  219.5860 N   0  0  0  0  0  0  0  0  0  0  0  0
  143.1010   70.9110  220.0370 C   0  0  0  0  0  0  0  0  0  0  0  0
  142.0130   70.4470  220.4830 O   0  0  0  0  0  0  0  0  0  0  0  0
  143.2990   72.3040  220.0040 C   0  0  0  0  0  0  0  0  0  0  0  0
  142.3340   73.2150  220.4560 C   0  0  0  0  0  0  0  0  0  0  0  0
  142.5800   74.5950  220.4100 C   0  0  0  0  0  0  0  0  0  0  0  0
  141.5510   75.5130  220.9520 C   0  0  0  0  0  0  0  0  0  0  0  0
  140.8190   75.1360  221.9060 O   0  0  0  0  0  0  0  0  0  0  0  0
  141.3580   76.8080  220.3630 N   0  0  0  0  0  0  0  0  0  0  0  0
  140.3370   77.7440  220.8460 C   0  0  1  0  0  0  0  0  0  0  0  0
  139.1290   76.9750  221.3920 C   0  0  0  0  0  0  0  0  0  0  0  0
  140.9170   78.6690  221.9000 C   0  0  0  0  0  0  0  0  0  0  0  0
  141.1940   78.2040  223.2010 C   0  0  0  0  0  0  0  0  0  0  0  0
  141.7300   79.0660  224.1620 C   0  0  0  0  0  0  0  0  0  0  0  0
  141.9960   80.3990  223.8380 C   0  0  0  0  0  0  0  0  0  0  0  0
  141.7250   80.8710  222.5520 C   0  0  0  0  0  0  0  0  0  0  0  0
  141.1900   80.0140  221.5860 C   0  0  0  0  0  0  0  0  0  0  0  0
  145.6500   74.4790  219.0670 H   0  0  0  0  0  0  0  0  0  0  0  0
  147.2222   70.1716  218.2549 H   0  0  0  0  0  0  0  0  0  0  0  0
  146.8908   67.6971  218.3034 H   0  0  0  0  0  0  0  0  0  0  0  0
  144.7497   66.7523  219.1786 H   0  0  0  0  0  0  0  0  0  0  0  0
  142.9648   68.2881  219.9984 H   0  0  0  0  0  0  0  0  0  0  0  0
  141.3761   72.8444  220.8499 H   0  0  0  0  0  0  0  0  0  0  0  0
  142.0210   77.1150  219.6160 H   0  0  0  0  0  0  0  0  0  0  0  0
  139.9981   78.3638  220.0028 H   0  0  0  0  0  0  0  0  0  0  0  0
  139.1517   76.9894  222.4917 H   0  0  0  0  0  0  0  0  0  0  0  0
  138.2018   77.4495  221.0381 H   0  0  0  0  0  0  0  0  0  0  0  0
  139.1665   75.9342  221.0381 H   0  0  0  0  0  0  0  0  0  0  0  0
  140.9871   77.1557  223.4621 H   0  0  0  0  0  0  0  0  0  0  0  0
  141.9428   78.6943  225.1752 H   0  0  0  0  0  0  0  0  0  0  0  0
  142.4185   81.0759  224.5952 H   0  0  0  0  0  0  0  0  0  0  0  0
  141.9333   81.9209  222.2983 H   0  0  0  0  0  0  0  0  0  0  0  0
  140.9811   80.3927  220.5746 H   0  0  0  0  0  0  0  0  0  0  0  0
  1  2  1  0
  2  3  2  0
  3  4  1  0
  4  5  1  0
  5  6  1  0
  6  7  2  0
  7  8  1  0
  8  9  2  0
  9 10  1  0
 10 11  2  0
 11 12  1  0
 12 13  1  0
 13 14  2  0
 13 15  1  0
 15 16  1  0
 16 17  2  0
 17 18  1  0
 18 19  2  0
 18 20  1  0
 20 21  1  0
 21 22  1  0
 21 23  1  0
 23 24  2  0
 24 25  1  0
 25 26  2  0
 26 27  1  0
 27 28  2  0
 17  3  1  0
 28 23  1  0
 15  5  2  0
 12  7  1  0
  4 29  1  0
  8 30  1  0
  9 31  1  0
 10 32  1  0
 11 33  1  0
 16 34  1  0
 20 35  1  0
 21 36  1  6
 22 37  1  0
 22 38  1  0
 22 39  1  0
 24 40  1  0
 25 41  1  0
 26 42  1  0
 27 43  1  0
 28 44  1  0
M  END
>  <meeko>  (13) 
{"free_energy": -7.88, "intermolecular_energy": -9.08, "internal_energy": -0.64, "cluster_size": 12, "cluster_id": 1, "rank_in_cluster": 12}

$$$$

     RDKit          3D

 44 47  0  0  0  0  0  0  0  0999 V2000
  144.1060   76.9770  220.5630 H   0  0  0  0  0  0  0  0  0  0  0  0
  143.8900   76.3270  219.7760 N   0  0  0  0  0  0  0  0  0  0  0  0
  143.6480   75.0570  219.9060 C   0  0  0  0  0  0  0  0  0  0  0  0
  144.6340   74.1700  219.5880 N   0  0  0  0  0  0  0  0  0  0  0  0
  144.4410   72.8240  219.6350 C   0  0  0  0  0  0  0  0  0  0  0  0
  145.4500   71.9830  219.3010 N   0  0  0  0  0  0  0  0  0  0  0  0
  145.2920   70.6350  219.3330 C   0  0  0  0  0  0  0  0  0  0  0  0
  146.3700   69.8170  218.9770 C   0  0  0  0  0  0  0  0  0  0  0  0
  146.2210   68.4340  219.0050 C   0  0  0  0  0  0  0  0  0  0  0  0
  145.0030   67.8780  219.3860 C   0  0  0  0  0  0  0  0  0  0  0  0
  143.9430   68.7160  219.7360 C   0  0  0  0  0  0  0  0  0  0  0  0
  144.0860   70.0810  219.7100 N   0  0  0  0  0  0  0  0  0  0  0  0
  143.0390   70.9030  220.0550 C   0  0  0  0  0  0  0  0  0  0  0  0
  141.9280   70.4120  220.4030 O   0  0  0  0  0  0  0  0  0  0  0  0
  143.2000   72.3010  220.0230 C   0  0  0  0  0  0  0  0  0  0  0  0
  142.1710   73.1870  220.3700 C   0  0  0  0  0  0  0  0  0  0  0  0
  142.3820   74.5740  220.3290 C   0  0  0  0  0  0  0  0  0  0  0  0
  141.2820   75.4670  220.7610 C   0  0  0  0  0  0  0  0  0  0  0  0
  140.0880   75.0700  220.6810 O   0  0  0  0  0  0  0  0  0  0  0  0
  141.5700   76.7960  221.2230 N   0  0  0  0  0  0  0  0  0  0  0  0
  140.5150   77.7270  221.6380 C   0  0  1  0  0  0  0  0  0  0  0  0
  139.4640   76.9970  222.4790 C   0  0  0  0  0  0  0  0  0  0  0  0
  141.1070   78.8980  222.4000 C   0  0  0  0  0  0  0  0  0  0  0  0
  142.4980   79.1180  222.4270 C   0  0  0  0  0  0  0  0  0  0  0  0
  143.0300   80.2020  223.1320 C   0  0  0  0  0  0  0  0  0  0  0  0
  142.1820   81.0780  223.8160 C   0  0  0  0  0  0  0  0  0  0  0  0
  140.8010   80.8700  223.7950 C   0  0  0  0  0  0  0  0  0  0  0  0
  140.2640   79.7880  223.0920 C   0  0  0  0  0  0  0  0  0  0  0  0
  145.5660   74.5330  219.2810 H   0  0  0  0  0  0  0  0  0  0  0  0
  147.3290   70.2645  218.6770 H   0  0  0  0  0  0  0  0  0  0  0  0
  147.0625   67.7823  218.7271 H   0  0  0  0  0  0  0  0  0  0  0  0
  144.8767   66.7856  219.4111 H   0  0  0  0  0  0  0  0  0  0  0  0
  142.9803   68.2768  220.0366 H   0  0  0  0  0  0  0  0  0  0  0  0
  141.1910   72.7925  220.6767 H   0  0  0  0  0  0  0  0  0  0  0  0
  142.5710   77.0720  221.3370 H   0  0  0  0  0  0  0  0  0  0  0  0
  140.0204   78.1241  220.7393 H   0  0  0  0  0  0  0  0  0  0  0  0
  139.6802   77.1471  223.5471 H   0  0  0  0  0  0  0  0  0  0  0  0
  138.4661   77.3974  222.2470 H   0  0  0  0  0  0  0  0  0  0  0  0
  139.4908   75.9221  222.2470 H   0  0  0  0  0  0  0  0  0  0  0  0
  143.1701   78.4326  221.8900 H   0  0  0  0  0  0  0  0  0  0  0  0
  144.1176   80.3658  223.1484 H   0  0  0  0  0  0  0  0  0  0  0  0
  142.6020   81.9303  224.3702 H   0  0  0  0  0  0  0  0  0  0  0  0
  140.1342   81.5597  224.3332 H   0  0  0  0  0  0  0  0  0  0  0  0
  139.1754   79.6308  223.0793 H   0  0  0  0  0  0  0  0  0  0  0  0
  1  2  1  0
  2  3  2  0
  3  4  1  0
  4  5  1  0
  5  6  1  0
  6  7  2  0
  7  8  1  0
  8  9  2  0
  9 10  1  0
 10 11  2  0
 11 12  1  0
 12 13  1  0
 13 14  2  0
 13 15  1  0
 15 16  1  0
 16 17  2  0
 17 18  1  0
 18 19  2  0
 18 20  1  0
 20 21  1  0
 21 22  1  0
 21 23  1  0
 23 24  2  0
 24 25  1  0
 25 26  2  0
 26 27  1  0
 27 28  2  0
 17  3  1  0
 28 23  1  0
 15  5  2  0
 12  7  1  0
  4 29  1  0
  8 30  1  0
  9 31  1  0
 10 32  1  0
 11 33  1  0
 16 34  1  0
 20 35  1  0
 21 36  1  6
 22 37  1  0
 22 38  1  0
 22 39  1  0
 24 40  1  0
 25 41  1  0
 26 42  1  0
 27 43  1  0
 28 44  1  0
M  END
>  <meeko>  (14) 
{"free_energy": -8.21, "intermolecular_energy": -9.4, "internal_energy": -0.7, "cluster_size": 12, "cluster_id": 1, "rank_in_cluster": 2}

$$$$

     RDKit          3D

 44 47  0  0  0  0  0  0  0  0999 V2000
  144.3850   76.9270  220.4900 H   0  0  0  0  0  0  0  0  0  0  0  0
  144.0550   76.3050  219.7200 N   0  0  0  0  0  0  0  0  0  0  0  0
  143.7950   75.0380  219.8490 C   0  0  0  0  0  0  0  0  0  0  0  0
  144.7790   74.1390  219.5610 N   0  0  0  0  0  0  0  0  0  0  0  0
  144.5700   72.7950  219.6080 C   0  0  0  0  0  0  0  0  0  0  0  0
  145.5770   71.9410  219.3040 N   0  0  0  0  0  0  0  0  0  0  0  0
  145.4030   70.5950  219.3370 C   0  0  0  0  0  0  0  0  0  0  0  0
  146.4810   69.7640  219.0130 C   0  0  0  0  0  0  0  0  0  0  0  0
  146.3160   68.3820  219.0420 C   0  0  0  0  0  0  0  0  0  0  0  0
  145.0810   67.8420  219.3930 C   0  0  0  0  0  0  0  0  0  0  0  0
  144.0220   68.6930  219.7120 C   0  0  0  0  0  0  0  0  0  0  0  0
  144.1810   70.0560  219.6840 N   0  0  0  0  0  0  0  0  0  0  0  0
  143.1350   70.8910  219.9980 C   0  0  0  0  0  0  0  0  0  0  0  0
  142.0090   70.4150  220.3180 O   0  0  0  0  0  0  0  0  0  0  0  0
  143.3130   72.2870  219.9640 C   0  0  0  0  0  0  0  0  0  0  0  0
  142.2850   73.1870  220.2810 C   0  0  0  0  0  0  0  0  0  0  0  0
  142.5130   74.5710  220.2400 C   0  0  0  0  0  0  0  0  0  0  0  0
  141.4120   75.4780  220.6390 C   0  0  0  0  0  0  0  0  0  0  0  0
  140.2170   75.0860  220.5510 O   0  0  0  0  0  0  0  0  0  0  0  0
  141.7020   76.8140  221.0780 N   0  0  0  0  0  0  0  0  0  0  0  0
  140.6460   77.7600  221.4600 C   0  0  1  0  0  0  0  0  0  0  0  0
  139.6210   77.0720  222.3680 C   0  0  0  0  0  0  0  0  0  0  0  0
  141.2420   78.9800  222.1360 C   0  0  0  0  0  0  0  0  0  0  0  0
  141.2500   80.2340  221.4940 C   0  0  0  0  0  0  0  0  0  0  0  0
  141.8010   81.3510  222.1290 C   0  0  0  0  0  0  0  0  0  0  0  0
  142.3480   81.2310  223.4090 C   0  0  0  0  0  0  0  0  0  0  0  0
  142.3450   79.9930  224.0560 C   0  0  0  0  0  0  0  0  0  0  0  0
  141.7950   78.8730  223.4260 C   0  0  0  0  0  0  0  0  0  0  0  0
  145.7230   74.4890  219.2780 H   0  0  0  0  0  0  0  0  0  0  0  0
  147.4526   70.1998  218.7371 H   0  0  0  0  0  0  0  0  0  0  0  0
  147.1569   67.7196  218.7889 H   0  0  0  0  0  0  0  0  0  0  0  0
  144.9412   66.7512  219.4186 H   0  0  0  0  0  0  0  0  0  0  0  0
  143.0471   68.2658  219.9895 H   0  0  0  0  0  0  0  0  0  0  0  0
  141.2929   72.8052  220.5638 H   0  0  0  0  0  0  0  0  0  0  0  0
  142.7030   77.0880  221.2000 H   0  0  0  0  0  0  0  0  0  0  0  0
  140.1278   78.0977  220.5504 H   0  0  0  0  0  0  0  0  0  0  0  0
  139.8860   77.2498  223.4207 H   0  0  0  0  0  0  0  0  0  0  0  0
  138.6201   77.4819  222.1675 H   0  0  0  0  0  0  0  0  0  0  0  0
  139.6212   75.9904  222.1675 H   0  0  0  0  0  0  0  0  0  0  0  0
  140.8199   80.3349  220.4866 H   0  0  0  0  0  0  0  0  0  0  0  0
  141.8039   82.3261  221.6199 H   0  0  0  0  0  0  0  0  0  0  0  0
  142.7809   82.1111  223.9071 H   0  0  0  0  0  0  0  0  0  0  0  0
  142.7764   79.8993  225.0635 H   0  0  0  0  0  0  0  0  0  0  0  0
  141.7943   77.9014  223.9418 H   0  0  0  0  0  0  0  0  0  0  0  0
  1  2  1  0
  2  3  2  0
  3  4  1  0
  4  5  1  0
  5  6  1  0
  6  7  2  0
  7  8  1  0
  8  9  2  0
  9 10  1  0
 10 11  2  0
 11 12  1  0
 12 13  1  0
 13 14  2  0
 13 15  1  0
 15 16  1  0
 16 17  2  0
 17 18  1  0
 18 19  2  0
 18 20  1  0
 20 21  1  0
 21 22  1  0
 21 23  1  0
 23 24  2  0
 24 25  1  0
 25 26  2  0
 26 27  1  0
 27 28  2  0
 17  3  1  0
 28 23  1  0
 15  5  2  0
 12  7  1  0
  4 29  1  0
  8 30  1  0
  9 31  1  0
 10 32  1  0
 11 33  1  0
 16 34  1  0
 20 35  1  0
 21 36  1  6
 22 37  1  0
 22 38  1  0
 22 39  1  0
 24 40  1  0
 25 41  1  0
 26 42  1  0
 27 43  1  0
 28 44  1  0
M  END
>  <meeko>  (15) 
{"free_energy": -8.18, "intermolecular_energy": -9.37, "internal_energy": -0.74, "cluster_size": 12, "cluster_id": 1, "rank_in_cluster": 9}

$$$$

     RDKit          3D

 44 47  0  0  0  0  0  0  0  0999 V2000
  144.3580   76.9260  220.4940 H   0  0  0  0  0  0  0  0  0  0  0  0
  143.8850   76.3350  219.7760 N   0  0  0  0  0  0  0  0  0  0  0  0
  143.6370   75.0660  219.9060 C   0  0  0  0  0  0  0  0  0  0  0  0
  144.6200   74.1750  219.5850 N   0  0  0  0  0  0  0  0  0  0  0  0
  144.4210   72.8300  219.6310 C   0  0  0  0  0  0  0  0  0  0  0  0
  145.4250   71.9840  219.2960 N   0  0  0  0  0  0  0  0  0  0  0  0
  145.2620   70.6380  219.3260 C   0  0  0  0  0  0  0  0  0  0  0  0
  146.3350   69.8150  218.9690 C   0  0  0  0  0  0  0  0  0  0  0  0
  146.1810   68.4330  218.9950 C   0  0  0  0  0  0  0  0  0  0  0  0
  144.9600   67.8810  219.3760 C   0  0  0  0  0  0  0  0  0  0  0  0
  143.9040   68.7240  219.7290 C   0  0  0  0  0  0  0  0  0  0  0  0
  144.0530   70.0880  219.7030 N   0  0  0  0  0  0  0  0  0  0  0  0
  143.0100   70.9140  220.0500 C   0  0  0  0  0  0  0  0  0  0  0  0
  141.8970   70.4280  220.3990 O   0  0  0  0  0  0  0  0  0  0  0  0
  143.1770   72.3110  220.0190 C   0  0  0  0  0  0  0  0  0  0  0  0
  142.1530   73.2020  220.3690 C   0  0  0  0  0  0  0  0  0  0  0  0
  142.3700   74.5880  220.3290 C   0  0  0  0  0  0  0  0  0  0  0  0
  141.2740   75.4860  220.7620 C   0  0  0  0  0  0  0  0  0  0  0  0
  140.0780   75.0940  220.6820 O   0  0  0  0  0  0  0  0  0  0  0  0
  141.5690   76.8120  221.2260 N   0  0  0  0  0  0  0  0  0  0  0  0
  140.5180   77.7480  221.6430 C   0  0  1  0  0  0  0  0  0  0  0  0
  139.4730   77.0250  222.4990 C   0  0  0  0  0  0  0  0  0  0  0  0
  141.1180   78.9240  222.3910 C   0  0  0  0  0  0  0  0  0  0  0  0
  142.5040   79.1700  222.3660 C   0  0  0  0  0  0  0  0  0  0  0  0
  143.0440   80.2580  223.0590 C   0  0  0  0  0  0  0  0  0  0  0  0
  142.2080   81.1130  223.7820 C   0  0  0  0  0  0  0  0  0  0  0  0
  140.8310   80.8790  223.8130 C   0  0  0  0  0  0  0  0  0  0  0  0
  140.2860   79.7930  223.1220 C   0  0  0  0  0  0  0  0  0  0  0  0
  145.5530   74.5340  219.2780 H   0  0  0  0  0  0  0  0  0  0  0  0
  147.2959   70.2585  218.6691 H   0  0  0  0  0  0  0  0  0  0  0  0
  147.0199   67.7785  218.7158 H   0  0  0  0  0  0  0  0  0  0  0  0
  144.8286   66.7891  219.3987 H   0  0  0  0  0  0  0  0  0  0  0  0
  142.9402   68.2890  220.0319 H   0  0  0  0  0  0  0  0  0  0  0  0
  141.1718   72.8119  220.6774 H   0  0  0  0  0  0  0  0  0  0  0  0
  142.5720   77.0840  221.3400 H   0  0  0  0  0  0  0  0  0  0  0  0
  140.0161   78.1391  220.7457 H   0  0  0  0  0  0  0  0  0  0  0  0
  139.6994   77.1816  223.5640 H   0  0  0  0  0  0  0  0  0  0  0  0
  138.4737   77.4257  222.2738 H   0  0  0  0  0  0  0  0  0  0  0  0
  139.4957   75.9485  222.2738 H   0  0  0  0  0  0  0  0  0  0  0  0
  143.1670   78.5015  221.7972 H   0  0  0  0  0  0  0  0  0  0  0  0
  144.1284   80.4410  223.0350 H   0  0  0  0  0  0  0  0  0  0  0  0
  142.6335   81.9692  224.3260 H   0  0  0  0  0  0  0  0  0  0  0  0
  140.1734   81.5517  224.3832 H   0  0  0  0  0  0  0  0  0  0  0  0
  139.2006   79.6164  223.1496 H   0  0  0  0  0  0  0  0  0  0  0  0
  1  2  1  0
  2  3  2  0
  3  4  1  0
  4  5  1  0
  5  6  1  0
  6  7  2  0
  7  8  1  0
  8  9  2  0
  9 10  1  0
 10 11  2  0
 11 12  1  0
 12 13  1  0
 13 14  2  0
 13 15  1  0
 15 16  1  0
 16 17  2  0
 17 18  1  0
 18 19  2  0
 18 20  1  0
 20 21  1  0
 21 22  1  0
 21 23  1  0
 23 24  2  0
 24 25  1  0
 25 26  2  0
 26 27  1  0
 27 28  2  0
 17  3  1  0
 28 23  1  0
 15  5  2  0
 12  7  1  0
  4 29  1  0
  8 30  1  0
  9 31  1  0
 10 32  1  0
 11 33  1  0
 16 34  1  0
 20 35  1  0
 21 36  1  6
 22 37  1  0
 22 38  1  0
 22 39  1  0
 24 40  1  0
 25 41  1  0
 26 42  1  0
 27 43  1  0
 28 44  1  0
M  END
>  <meeko>  (16) 
{"free_energy": -8.19, "intermolecular_energy": -9.38, "internal_energy": -0.72, "cluster_size": 12, "cluster_id": 1, "rank_in_cluster": 6}

$$$$

     RDKit          3D

 44 47  0  0  0  0  0  0  0  0999 V2000
  144.4520   76.9140  220.4750 H   0  0  0  0  0  0  0  0  0  0  0  0
  144.0720   76.3040  219.7190 N   0  0  0  0  0  0  0  0  0  0  0  0
  143.8100   75.0370  219.8480 C   0  0  0  0  0  0  0  0  0  0  0  0
  144.7940   74.1370  219.5620 N   0  0  0  0  0  0  0  0  0  0  0  0
  144.5830   72.7940  219.6090 C   0  0  0  0  0  0  0  0  0  0  0  0
  145.5900   71.9380  219.3070 N   0  0  0  0  0  0  0  0  0  0  0  0
  145.4150   70.5930  219.3400 C   0  0  0  0  0  0  0  0  0  0  0  0
  146.4910   69.7600  219.0180 C   0  0  0  0  0  0  0  0  0  0  0  0
  146.3250   68.3790  219.0470 C   0  0  0  0  0  0  0  0  0  0  0  0
  145.0900   67.8400  219.3970 C   0  0  0  0  0  0  0  0  0  0  0  0
  144.0300   68.6920  219.7140 C   0  0  0  0  0  0  0  0  0  0  0  0
  144.1910   70.0550  219.6850 N   0  0  0  0  0  0  0  0  0  0  0  0
  143.1450   70.8920  219.9980 C   0  0  0  0  0  0  0  0  0  0  0  0
  142.0190   70.4160  220.3160 O   0  0  0  0  0  0  0  0  0  0  0  0
  143.3250   72.2870  219.9640 C   0  0  0  0  0  0  0  0  0  0  0  0
  142.2980   73.1880  220.2790 C   0  0  0  0  0  0  0  0  0  0  0  0
  142.5270   74.5720  220.2380 C   0  0  0  0  0  0  0  0  0  0  0  0
  141.4270   75.4800  220.6340 C   0  0  0  0  0  0  0  0  0  0  0  0
  140.2310   75.0900  220.5440 O   0  0  0  0  0  0  0  0  0  0  0  0
  141.7170   76.8160  221.0750 N   0  0  0  0  0  0  0  0  0  0  0  0
  140.6620   77.7630  221.4540 C   0  0  1  0  0  0  0  0  0  0  0  0
  139.6270   77.0720  222.3480 C   0  0  0  0  0  0  0  0  0  0  0  0
  141.2570   78.9760  222.1450 C   0  0  0  0  0  0  0  0  0  0  0  0
  141.8080   78.8770  223.4380 C   0  0  0  0  0  0  0  0  0  0  0  0
  142.3540   80.0030  224.0620 C   0  0  0  0  0  0  0  0  0  0  0  0
  142.3590   81.2360  223.4050 C   0  0  0  0  0  0  0  0  0  0  0  0
  141.8160   81.3450  222.1230 C   0  0  0  0  0  0  0  0  0  0  0  0
  141.2680   80.2240  221.4940 C   0  0  0  0  0  0  0  0  0  0  0  0
  145.7390   74.4870  219.2800 H   0  0  0  0  0  0  0  0  0  0  0  0
  147.4636   70.1943  218.7432 H   0  0  0  0  0  0  0  0  0  0  0  0
  147.1657   67.7160  218.7945 H   0  0  0  0  0  0  0  0  0  0  0  0
  144.9500   66.7493  219.4237 H   0  0  0  0  0  0  0  0  0  0  0  0
  143.0543   68.2659  219.9903 H   0  0  0  0  0  0  0  0  0  0  0  0
  141.3051   72.8072  220.5604 H   0  0  0  0  0  0  0  0  0  0  0  0
  142.7180   77.0880  221.1980 H   0  0  0  0  0  0  0  0  0  0  0  0
  140.1533   78.1098  220.5424 H   0  0  0  0  0  0  0  0  0  0  0  0
  139.8826   77.2426  223.4042 H   0  0  0  0  0  0  0  0  0  0  0  0
  138.6290   77.4856  222.1408 H   0  0  0  0  0  0  0  0  0  0  0  0
  139.6264   75.9917  222.1408 H   0  0  0  0  0  0  0  0  0  0  0  0
  141.8087   77.9085  223.9595 H   0  0  0  0  0  0  0  0  0  0  0  0
  142.7805   79.9178  225.0724 H   0  0  0  0  0  0  0  0  0  0  0  0
  142.7903   82.1202  223.8971 H   0  0  0  0  0  0  0  0  0  0  0  0
  141.8197   82.3163  221.6068 H   0  0  0  0  0  0  0  0  0  0  0  0
  140.8426   80.3174  220.4839 H   0  0  0  0  0  0  0  0  0  0  0  0
  1  2  1  0
  2  3  2  0
  3  4  1  0
  4  5  1  0
  5  6  1  0
  6  7  2  0
  7  8  1  0
  8  9  2  0
  9 10  1  0
 10 11  2  0
 11 12  1  0
 12 13  1  0
 13 14  2  0
 13 15  1  0
 15 16  1  0
 16 17  2  0
 17 18  1  0
 18 19  2  0
 18 20  1  0
 20 21  1  0
 21 22  1  0
 21 23  1  0
 23 24  2  0
 24 25  1  0
 25 26  2  0
 26 27  1  0
 27 28  2  0
 17  3  1  0
 28 23  1  0
 15  5  2  0
 12  7  1  0
  4 29  1  0
  8 30  1  0
  9 31  1  0
 10 32  1  0
 11 33  1  0
 16 34  1  0
 20 35  1  0
 21 36  1  6
 22 37  1  0
 22 38  1  0
 22 39  1  0
 24 40  1  0
 25 41  1  0
 26 42  1  0
 27 43  1  0
 28 44  1  0
M  END
>  <meeko>  (17) 
{"free_energy": -8.19, "intermolecular_energy": -9.38, "internal_energy": -0.73, "cluster_size": 12, "cluster_id": 1, "rank_in_cluster": 7}

$$$$

     RDKit          3D

 44 47  0  0  0  0  0  0  0  0999 V2000
  133.9540   68.4110  225.8380 H   0  0  0  0  0  0  0  0  0  0  0  0
  133.5800   69.1800  226.4350 N   0  0  0  0  0  0  0  0  0  0  0  0
  133.8310   70.4430  226.2620 C   0  0  0  0  0  0  0  0  0  0  0  0
  133.0470   71.3560  226.9040 N   0  0  0  0  0  0  0  0  0  0  0  0
  133.2030   72.6970  226.7270 C   0  0  0  0  0  0  0  0  0  0  0  0
  132.3930   73.5650  227.3810 N   0  0  0  0  0  0  0  0  0  0  0  0
  132.5170   74.9070  227.2260 C   0  0  0  0  0  0  0  0  0  0  0  0
  131.6520   75.7540  227.9270 C   0  0  0  0  0  0  0  0  0  0  0  0
  131.7680   77.1330  227.7770 C   0  0  0  0  0  0  0  0  0  0  0  0
  132.7420   77.6550  226.9310 C   0  0  0  0  0  0  0  0  0  0  0  0
  133.5940   76.7890  226.2420 C   0  0  0  0  0  0  0  0  0  0  0  0
  133.4810   75.4290  226.3880 N   0  0  0  0  0  0  0  0  0  0  0  0
  134.3210   74.5790  225.7080 C   0  0  0  0  0  0  0  0  0  0  0  0
  135.2110   75.0390  224.9370 O   0  0  0  0  0  0  0  0  0  0  0  0
  134.1950   73.1860  225.8670 C   0  0  0  0  0  0  0  0  0  0  0  0
  135.0260   72.2720  225.2040 C   0  0  0  0  0  0  0  0  0  0  0  0
  134.8660   70.8920  225.4010 C   0  0  0  0  0  0  0  0  0  0  0  0
  135.8060   69.9700  224.7220 C   0  0  0  0  0  0  0  0  0  0  0  0
  135.3960   68.8500  224.3140 O   0  0  0  0  0  0  0  0  0  0  0  0
  137.1880   70.3310  224.5720 N   0  0  0  0  0  0  0  0  0  0  0  0
  138.1640   69.4420  223.9310 C   0  0  1  0  0  0  0  0  0  0  0  0
  138.7730   70.1240  222.7010 C   0  0  0  0  0  0  0  0  0  0  0  0
  139.2420   69.0330  224.9180 C   0  0  0  0  0  0  0  0  0  0  0  0
  139.2140   67.7690  225.5400 C   0  0  0  0  0  0  0  0  0  0  0  0
  140.2140   67.4040  226.4460 C   0  0  0  0  0  0  0  0  0  0  0  0
  141.2520   68.2920  226.7400 C   0  0  0  0  0  0  0  0  0  0  0  0
  141.2900   69.5470  226.1290 C   0  0  0  0  0  0  0  0  0  0  0  0
  140.2930   69.9180  225.2220 C   0  0  0  0  0  0  0  0  0  0  0  0
  132.2890   71.0190  227.5420 H   0  0  0  0  0  0  0  0  0  0  0  0
  130.8845   75.3327  228.5929 H   0  0  0  0  0  0  0  0  0  0  0  0
  131.0929   77.8071  228.3246 H   0  0  0  0  0  0  0  0  0  0  0  0
  132.8402   78.7434  226.8057 H   0  0  0  0  0  0  0  0  0  0  0  0
  134.3647   77.2018  225.5745 H   0  0  0  0  0  0  0  0  0  0  0  0
  135.8091   72.6394  224.5244 H   0  0  0  0  0  0  0  0  0  0  0  0
  137.4830   71.2900  224.8640 H   0  0  0  0  0  0  0  0  0  0  0  0
  137.6471   68.5296  223.5987 H   0  0  0  0  0  0  0  0  0  0  0  0
  139.4731   70.9080  223.0255 H   0  0  0  0  0  0  0  0  0  0  0  0
  139.3114   69.3785  222.0974 H   0  0  0  0  0  0  0  0  0  0  0  0
  137.9716   70.5750  222.0974 H   0  0  0  0  0  0  0  0  0  0  0  0
  138.4002   67.0651  225.3112 H   0  0  0  0  0  0  0  0  0  0  0  0
  140.1837   66.4159  226.9284 H   0  0  0  0  0  0  0  0  0  0  0  0
  142.0387   68.0026  227.4523 H   0  0  0  0  0  0  0  0  0  0  0  0
  142.1069   70.2458  226.3621 H   0  0  0  0  0  0  0  0  0  0  0  0
  140.3303   70.9076  224.7431 H   0  0  0  0  0  0  0  0  0  0  0  0
  1  2  1  0
  2  3  2  0
  3  4  1  0
  4  5  1  0
  5  6  1  0
  6  7  2  0
  7  8  1  0
  8  9  2  0
  9 10  1  0
 10 11  2  0
 11 12  1  0
 12 13  1  0
 13 14  2  0
 13 15  1  0
 15 16  1  0
 16 17  2  0
 17 18  1  0
 18 19  2  0
 18 20  1  0
 20 21  1  0
 21 22  1  0
 21 23  1  0
 23 24  2  0
 24 25  1  0
 25 26  2  0
 26 27  1  0
 27 28  2  0
 17  3  1  0
 28 23  1  0
 15  5  2  0
 12  7  1  0
  4 29  1  0
  8 30  1  0
  9 31  1  0
 10 32  1  0
 11 33  1  0
 16 34  1  0
 20 35  1  0
 21 36  1  6
 22 37  1  0
 22 38  1  0
 22 39  1  0
 24 40  1  0
 25 41  1  0
 26 42  1  0
 27 43  1  0
 28 44  1  0
M  END
>  <meeko>  (18) 
{"free_energy": -7.58, "intermolecular_energy": -8.77, "internal_energy": -0.94, "cluster_size": 6, "cluster_id": 2, "rank_in_cluster": 1}

$$$$

     RDKit          3D

 44 47  0  0  0  0  0  0  0  0999 V2000
  143.9300   77.0460  220.5770 H   0  0  0  0  0  0  0  0  0  0  0  0
  143.9030   76.3640  219.7880 N   0  0  0  0  0  0  0  0  0  0  0  0
  143.6550   75.0950  219.9120 C   0  0  0  0  0  0  0  0  0  0  0  0
  144.6400   74.2050  219.5980 N   0  0  0  0  0  0  0  0  0  0  0  0
  144.4420   72.8600  219.6390 C   0  0  0  0  0  0  0  0  0  0  0  0
  145.4500   72.0160  219.3100 N   0  0  0  0  0  0  0  0  0  0  0  0
  145.2880   70.6690  219.3360 C   0  0  0  0  0  0  0  0  0  0  0  0
  146.3650   69.8480  218.9860 C   0  0  0  0  0  0  0  0  0  0  0  0
  146.2110   68.4660  219.0070 C   0  0  0  0  0  0  0  0  0  0  0  0
  144.9880   67.9120  219.3770 C   0  0  0  0  0  0  0  0  0  0  0  0
  143.9280   68.7530  219.7220 C   0  0  0  0  0  0  0  0  0  0  0  0
  144.0760   70.1180  219.7020 N   0  0  0  0  0  0  0  0  0  0  0  0
  143.0300   70.9420  220.0420 C   0  0  0  0  0  0  0  0  0  0  0  0
  141.9140   70.4540  220.3790 O   0  0  0  0  0  0  0  0  0  0  0  0
  143.1960   72.3390  220.0150 C   0  0  0  0  0  0  0  0  0  0  0  0
  142.1680   73.2290  220.3580 C   0  0  0  0  0  0  0  0  0  0  0  0
  142.3840   74.6140  220.3230 C   0  0  0  0  0  0  0  0  0  0  0  0
  141.2840   75.5100  220.7490 C   0  0  0  0  0  0  0  0  0  0  0  0
  140.0890   75.1190  220.6560 O   0  0  0  0  0  0  0  0  0  0  0  0
  141.5740   76.8350  221.2210 N   0  0  0  0  0  0  0  0  0  0  0  0
  140.5190   77.7690  221.6310 C   0  0  1  0  0  0  0  0  0  0  0  0
  139.4570   77.0390  222.4590 C   0  0  0  0  0  0  0  0  0  0  0  0
  141.1080   78.9340  222.4040 C   0  0  0  0  0  0  0  0  0  0  0  0
  140.2810   79.8270  223.1140 C   0  0  0  0  0  0  0  0  0  0  0  0
  140.8370   80.8950  223.8230 C   0  0  0  0  0  0  0  0  0  0  0  0
  142.2220   81.0840  223.8350 C   0  0  0  0  0  0  0  0  0  0  0  0
  143.0520   80.2050  223.1350 C   0  0  0  0  0  0  0  0  0  0  0  0
  142.5010   79.1350  222.4240 C   0  0  0  0  0  0  0  0  0  0  0  0
  145.5760   74.5660  219.3000 H   0  0  0  0  0  0  0  0  0  0  0  0
  147.3283   70.2929  218.6958 H   0  0  0  0  0  0  0  0  0  0  0  0
  147.0523   67.8127  218.7323 H   0  0  0  0  0  0  0  0  0  0  0  0
  144.8580   66.8199  219.3973 H   0  0  0  0  0  0  0  0  0  0  0  0
  142.9615   68.3162  220.0137 H   0  0  0  0  0  0  0  0  0  0  0  0
  141.1844   72.8375  220.6569 H   0  0  0  0  0  0  0  0  0  0  0  0
  142.5750   77.1070  221.3460 H   0  0  0  0  0  0  0  0  0  0  0  0
  140.0349   78.1727  220.7295 H   0  0  0  0  0  0  0  0  0  0  0  0
  139.6648   77.1818  223.5297 H   0  0  0  0  0  0  0  0  0  0  0  0
  138.4630   77.4456  222.2209 H   0  0  0  0  0  0  0  0  0  0  0  0
  139.4806   75.9653  222.2209 H   0  0  0  0  0  0  0  0  0  0  0  0
  139.1906   79.6824  223.1101 H   0  0  0  0  0  0  0  0  0  0  0  0
  140.1836   81.5884  224.3728 H   0  0  0  0  0  0  0  0  0  0  0  0
  142.6580   81.9243  224.3953 H   0  0  0  0  0  0  0  0  0  0  0  0
  144.1417   80.3552  223.1433 H   0  0  0  0  0  0  0  0  0  0  0  0
  143.1604   78.4455  221.8765 H   0  0  0  0  0  0  0  0  0  0  0  0
  1  2  1  0
  2  3  2  0
  3  4  1  0
  4  5  1  0
  5  6  1  0
  6  7  2  0
  7  8  1  0
  8  9  2  0
  9 10  1  0
 10 11  2  0
 11 12  1  0
 12 13  1  0
 13 14  2  0
 13 15  1  0
 15 16  1  0
 16 17  2  0
 17 18  1  0
 18 19  2  0
 18 20  1  0
 20 21  1  0
 21 22  1  0
 21 23  1  0
 23 24  2  0
 24 25  1  0
 25 26  2  0
 26 27  1  0
 27 28  2  0
 17  3  1  0
 28 23  1  0
 15  5  2  0
 12  7  1  0
  4 29  1  0
  8 30  1  0
  9 31  1  0
 10 32  1  0
 11 33  1  0
 16 34  1  0
 20 35  1  0
 21 36  1  6
 22 37  1  0
 22 38  1  0
 22 39  1  0
 24 40  1  0
 25 41  1  0
 26 42  1  0
 27 43  1  0
 28 44  1  0
M  END
>  <meeko>  (19) 
{"free_energy": -8.22, "intermolecular_energy": -9.42, "internal_energy": -0.68, "cluster_size": 12, "cluster_id": 1, "rank_in_cluster": 1}

$$$$

     RDKit          3D

 44 47  0  0  0  0  0  0  0  0999 V2000
  144.4480   76.8680  220.5020 H   0  0  0  0  0  0  0  0  0  0  0  0
  143.7890   76.3260  219.9020 N   0  0  0  0  0  0  0  0  0  0  0  0
  143.5620   75.0510  220.0120 C   0  0  0  0  0  0  0  0  0  0  0  0
  144.5550   74.1810  219.6700 N   0  0  0  0  0  0  0  0  0  0  0  0
  144.3770   72.8320  219.6950 C   0  0  0  0  0  0  0  0  0  0  0  0
  145.3920   72.0080  219.3380 N   0  0  0  0  0  0  0  0  0  0  0  0
  145.2500   70.6580  219.3480 C   0  0  0  0  0  0  0  0  0  0  0  0
  146.3330   69.8580  218.9690 C   0  0  0  0  0  0  0  0  0  0  0  0
  146.2000   68.4740  218.9730 C   0  0  0  0  0  0  0  0  0  0  0  0
  144.9920   67.8970  219.3560 C   0  0  0  0  0  0  0  0  0  0  0  0
  143.9250   68.7170  219.7300 C   0  0  0  0  0  0  0  0  0  0  0  0
  144.0530   70.0840  219.7260 N   0  0  0  0  0  0  0  0  0  0  0  0
  143.0000   70.8880  220.0950 C   0  0  0  0  0  0  0  0  0  0  0  0
  141.8980   70.3790  220.4440 O   0  0  0  0  0  0  0  0  0  0  0  0
  143.1460   72.2880  220.0850 C   0  0  0  0  0  0  0  0  0  0  0  0
  142.1100   73.1570  220.4570 C   0  0  0  0  0  0  0  0  0  0  0  0
  142.3050   74.5460  220.4380 C   0  0  0  0  0  0  0  0  0  0  0  0
  141.2000   75.4200  220.8950 C   0  0  0  0  0  0  0  0  0  0  0  0
  140.0190   74.9770  220.9060 O   0  0  0  0  0  0  0  0  0  0  0  0
  141.4640   76.7780  221.2780 N   0  0  0  0  0  0  0  0  0  0  0  0
  140.4010   77.6910  221.7130 C   0  0  1  0  0  0  0  0  0  0  0  0
  139.4100   76.9550  222.6210 C   0  0  0  0  0  0  0  0  0  0  0  0
  140.9900   78.9000  222.4150 C   0  0  0  0  0  0  0  0  0  0  0  0
  140.1590   79.8950  222.9660 C   0  0  0  0  0  0  0  0  0  0  0  0
  140.7140   81.0040  223.6120 C   0  0  0  0  0  0  0  0  0  0  0  0
  142.1020   81.1320  223.7170 C   0  0  0  0  0  0  0  0  0  0  0  0
  142.9350   80.1500  223.1750 C   0  0  0  0  0  0  0  0  0  0  0  0
  142.3860   79.0400  222.5280 C   0  0  0  0  0  0  0  0  0  0  0  0
  145.4800   74.5590  219.3610 H   0  0  0  0  0  0  0  0  0  0  0  0
  147.2846   70.3213  218.6694 H   0  0  0  0  0  0  0  0  0  0  0  0
  147.0459   67.8372  218.6747 H   0  0  0  0  0  0  0  0  0  0  0  0
  144.8788   66.8029  219.3640 H   0  0  0  0  0  0  0  0  0  0  0  0
  142.9701   68.2619  220.0316 H   0  0  0  0  0  0  0  0  0  0  0  0
  141.1374   72.7464  220.7659 H   0  0  0  0  0  0  0  0  0  0  0  0
  142.4590   77.0950  221.3180 H   0  0  0  0  0  0  0  0  0  0  0  0
  139.8565   78.0481  220.8264 H   0  0  0  0  0  0  0  0  0  0  0  0
  139.6662   77.1453  223.6737 H   0  0  0  0  0  0  0  0  0  0  0  0
  138.3907   77.3167  222.4206 H   0  0  0  0  0  0  0  0  0  0  0  0
  139.4617   75.8747  222.4206 H   0  0  0  0  0  0  0  0  0  0  0  0
  139.0660   79.7989  222.8876 H   0  0  0  0  0  0  0  0  0  0  0  0
  140.0574   81.7768  224.0382 H   0  0  0  0  0  0  0  0  0  0  0  0
  142.5378   82.0046  224.2256 H   0  0  0  0  0  0  0  0  0  0  0  0
  144.0272   80.2511  223.2580 H   0  0  0  0  0  0  0  0  0  0  0  0
  143.0487   78.2710  222.1044 H   0  0  0  0  0  0  0  0  0  0  0  0
  1  2  1  0
  2  3  2  0
  3  4  1  0
  4  5  1  0
  5  6  1  0
  6  7  2  0
  7  8  1  0
  8  9  2  0
  9 10  1  0
 10 11  2  0
 11 12  1  0
 12 13  1  0
 13 14  2  0
 13 15  1  0
 15 16  1  0
 16 17  2  0
 17 18  1  0
 18 19  2  0
 18 20  1  0
 20 21  1  0
 21 22  1  0
 21 23  1  0
 23 24  2  0
 24 25  1  0
 25 26  2  0
 26 27  1  0
 27 28  2  0
 17  3  1  0
 28 23  1  0
 15  5  2  0
 12  7  1  0
  4 29  1  0
  8 30  1  0
  9 31  1  0
 10 32  1  0
 11 33  1  0
 16 34  1  0
 20 35  1  0
 21 36  1  6
 22 37  1  0
 22 38  1  0
 22 39  1  0
 24 40  1  0
 25 41  1  0
 26 42  1  0
 27 43  1  0
 28 44  1  0
M  END
>  <meeko>  (20) 
{"free_energy": -8.13, "intermolecular_energy": -9.32, "internal_energy": -0.69, "cluster_size": 12, "cluster_id": 1, "rank_in_cluster": 10}

$$$$
