
     RDKit          3D

 59 64  0  0  0  0  0  0  0  0999 V2000
  146.3230   73.0170  218.8290 N   0  0  0  0  0  0  0  0  0  0  0  0
  145.3820   72.1130  219.4040 C   0  0  0  0  0  0  0  0  0  0  0  0
  145.6390   70.8790  219.4100 O   0  0  0  0  0  0  0  0  0  0  0  0
  144.1160   72.6150  219.9870 C   0  0  0  0  0  0  0  0  0  0  0  0
  143.1600   71.7070  220.5170 C   0  0  0  0  0  0  0  0  0  0  0  0
  141.9550   72.1700  221.0740 C   0  0  0  0  0  0  0  0  0  0  0  0
  141.7300   73.5430  221.0870 C   0  0  0  0  0  0  0  0  0  0  0  0
  140.6620   74.2710  221.5630 C   0  0  0  0  0  0  0  0  0  0  0  0
  140.9900   75.6000  221.3020 C   0  0  0  0  0  0  0  0  0  0  0  0
  140.1560   76.7630  221.6550 C   0  0  0  0  0  0  0  0  0  0  0  0
  139.0830   76.5830  222.2930 O   0  0  0  0  0  0  0  0  0  0  0  0
  140.5680   78.0970  221.3330 N   0  0  0  0  0  0  0  0  0  0  0  0
  140.4370   78.6910  220.0040 C   0  0  0  0  0  0  0  0  0  0  0  0
  140.9300   80.1730  220.1540 C   0  0  1  0  0  0  0  0  0  0  0  0
  141.9710   80.5410  219.1070 C   0  0  0  0  0  0  0  0  0  0  0  0
  141.1250   81.0250  217.9470 C   0  0  0  0  0  0  0  0  0  0  0  0
  139.9200   81.6620  218.5140 N   0  0  0  0  0  0  0  0  0  0  0  0
  138.7030   81.3810  217.7150 C   0  0  2  0  0  0  0  0  0  0  0  0
  137.6410   80.6580  218.5300 C   0  0  0  0  0  0  0  0  0  0  0  0
  136.8780   79.8370  217.5080 C   0  0  0  0  0  0  0  0  0  0  0  0
  137.7810   79.5780  216.3820 N   0  0  0  0  0  0  0  0  0  0  0  0
  138.9810   80.3990  216.5760 C   0  0  0  0  0  0  0  0  0  0  0  0
  139.8070   81.1890  219.9100 C   0  0  0  0  0  0  0  0  0  0  0  0
  141.4560   80.2130  221.5630 C   0  0  0  0  0  0  0  0  0  0  0  0
  142.1000   81.2650  222.2270 C   0  0  0  0  0  0  0  0  0  0  0  0
  142.5330   81.0620  223.5460 C   0  0  0  0  0  0  0  0  0  0  0  0
  142.3280   79.8220  224.1770 C   0  0  0  0  0  0  0  0  0  0  0  0
  141.6760   78.7830  223.4960 C   0  0  0  0  0  0  0  0  0  0  0  0
  141.2260   79.0160  222.1910 C   0  0  0  0  0  0  0  0  0  0  0  0
  142.2040   75.6920  220.7080 N   0  0  0  0  0  0  0  0  0  0  0  0
  142.6420   74.4280  220.5780 C   0  0  0  0  0  0  0  0  0  0  0  0
  143.8460   74.0040  220.0220 C   0  0  0  0  0  0  0  0  0  0  0  0
  146.0670   74.0120  218.6390 H   0  0  0  0  0  0  0  0  0  0  0  0
  143.3657   70.6267  220.4911 H   0  0  0  0  0  0  0  0  0  0  0  0
  141.2140   71.4693  221.4862 H   0  0  0  0  0  0  0  0  0  0  0  0
  139.7500   73.8874  222.0438 H   0  0  0  0  0  0  0  0  0  0  0  0
  141.0620   78.1500  219.2783 H   0  0  0  0  0  0  0  0  0  0  0  0
  139.4014   78.6417  219.6363 H   0  0  0  0  0  0  0  0  0  0  0  0
  142.6355   81.3379  219.4722 H   0  0  0  0  0  0  0  0  0  0  0  0
  142.6359   79.7057  218.8420 H   0  0  0  0  0  0  0  0  0  0  0  0
  141.6899   81.7551  217.3488 H   0  0  0  0  0  0  0  0  0  0  0  0
  140.8485   80.1859  217.2917 H   0  0  0  0  0  0  0  0  0  0  0  0
  138.3780   82.3712  217.3630 H   0  0  0  0  0  0  0  0  0  0  0  0
  138.1056   80.0064  219.2847 H   0  0  0  0  0  0  0  0  0  0  0  0
  136.9901   81.3521  219.0818 H   0  0  0  0  0  0  0  0  0  0  0  0
  136.5557   78.8857  217.9565 H   0  0  0  0  0  0  0  0  0  0  0  0
  135.9832   80.3790  217.1681 H   0  0  0  0  0  0  0  0  0  0  0  0
  137.3110   79.8320  215.4810 H   0  0  0  0  0  0  0  0  0  0  0  0
  138.0410   78.5630  216.3570 H   0  0  0  0  0  0  0  0  0  0  0  0
  139.8347   79.7564  216.8372 H   0  0  0  0  0  0  0  0  0  0  0  0
  139.2242   80.9444  215.6522 H   0  0  0  0  0  0  0  0  0  0  0  0
  139.9132   82.0373  220.6021 H   0  0  0  0  0  0  0  0  0  0  0  0
  138.8248   80.7236  220.0794 H   0  0  0  0  0  0  0  0  0  0  0  0
  142.2628   82.2300  221.7248 H   0  0  0  0  0  0  0  0  0  0  0  0
  143.0350   81.8763  224.0890 H   0  0  0  0  0  0  0  0  0  0  0  0
  142.6799   79.6663  225.2075 H   0  0  0  0  0  0  0  0  0  0  0  0
  141.5216   77.8060  223.9773 H   0  0  0  0  0  0  0  0  0  0  0  0
  142.7110   76.5610  220.4240 H   0  0  0  0  0  0  0  0  0  0  0  0
  144.5686   74.7296  219.6204 H   0  0  0  0  0  0  0  0  0  0  0  0
  1  2  1  0
  2  3  2  0
  2  4  1  0
  4  5  2  0
  5  6  1  0
  6  7  2  0
  7  8  1  0
  8  9  2  0
  9 10  1  0
 10 11  2  0
 10 12  1  0
 12 13  1  0
 14 13  1  6
 14 15  1  0
 15 16  1  0
 16 17  1  0
 17 18  1  0
 18 19  1  0
 19 20  1  0
 20 21  1  0
 21 22  1  0
 17 23  1  0
 14 24  1  0
 24 25  2  0
 25 26  1  0
 26 27  2  0
 27 28  1  0
 28 29  2  0
  9 30  1  0
 30 31  1  0
 31 32  2  0
 32  4  1  0
 31  7  1  0
 29 12  1  0
 23 14  1  0
 29 24  1  0
 22 18  1  0
  1 33  1  0
  5 34  1  0
  6 35  1  0
  8 36  1  0
 13 37  1  0
 13 38  1  0
 15 39  1  0
 15 40  1  0
 16 41  1  0
 16 42  1  0
 18 43  1  6
 19 44  1  0
 19 45  1  0
 20 46  1  0
 20 47  1  0
 21 48  1  0
 21 49  1  0
 22 50  1  0
 22 51  1  0
 23 52  1  0
 23 53  1  0
 25 54  1  0
 26 55  1  0
 27 56  1  0
 28 57  1  0
 30 58  1  0
 32 59  1  0
M  CHG  2   1  -1  21   1
M  END
>  <meeko>  (1) 
{"free_energy": -8.17, "intermolecular_energy": -9.66, "internal_energy": -1.06, "cluster_size": 2, "cluster_id": 4, "rank_in_cluster": 1}

$$$$

     RDKit          3D

 59 64  0  0  0  0  0  0  0  0999 V2000
  146.3180   72.9940  218.9600 N   0  0  0  0  0  0  0  0  0  0  0  0
  145.1370   72.5430  219.6210 C   0  0  0  0  0  0  0  0  0  0  0  0
  145.0240   71.3210  219.9090 O   0  0  0  0  0  0  0  0  0  0  0  0
  144.0560   73.4950  219.9650 C   0  0  0  0  0  0  0  0  0  0  0  0
  142.9810   73.0880  220.8000 C   0  0  0  0  0  0  0  0  0  0  0  0
  141.9490   73.9830  221.1350 C   0  0  0  0  0  0  0  0  0  0  0  0
  142.0150   75.2740  220.6220 C   0  0  0  0  0  0  0  0  0  0  0  0
  141.1650   76.3460  220.7820 C   0  0  0  0  0  0  0  0  0  0  0  0
  141.7390   77.3730  220.0340 C   0  0  0  0  0  0  0  0  0  0  0  0
  141.1960   78.7370  219.9140 C   0  0  0  0  0  0  0  0  0  0  0  0
  141.0810   79.2610  218.7730 O   0  0  0  0  0  0  0  0  0  0  0  0
  140.7460   79.4600  221.0670 N   0  0  0  0  0  0  0  0  0  0  0  0
  139.3580   79.8580  221.2890 C   0  0  0  0  0  0  0  0  0  0  0  0
  139.3320   80.5350  222.7050 C   0  0  1  0  0  0  0  0  0  0  0  0
  138.6580   81.8990  222.6780 C   0  0  0  0  0  0  0  0  0  0  0  0
  137.2000   81.5580  222.9040 C   0  0  0  0  0  0  0  0  0  0  0  0
  137.1540   80.3690  223.7790 N   0  0  0  0  0  0  0  0  0  0  0  0
  136.0670   79.4330  223.4040 C   0  0  2  0  0  0  0  0  0  0  0  0
  136.6030   78.1750  222.7370 C   0  0  0  0  0  0  0  0  0  0  0  0
  135.4830   77.7340  221.8140 C   0  0  0  0  0  0  0  0  0  0  0  0
  134.6950   78.9220  221.4710 N   0  0  0  0  0  0  0  0  0  0  0  0
  135.1510   80.0210  222.3290 C   0  0  0  0  0  0  0  0  0  0  0  0
  138.4910   79.7430  223.7150 C   0  0  0  0  0  0  0  0  0  0  0  0
  140.7890   80.5920  223.0770 C   0  0  0  0  0  0  0  0  0  0  0  0
  141.3810   81.1720  224.2060 C   0  0  0  0  0  0  0  0  0  0  0  0
  142.7780   81.1280  224.3300 C   0  0  0  0  0  0  0  0  0  0  0  0
  143.5590   80.5190  223.3310 C   0  0  0  0  0  0  0  0  0  0  0  0
  142.9470   79.9390  222.2110 C   0  0  0  0  0  0  0  0  0  0  0  0
  141.5500   79.9690  222.1210 C   0  0  0  0  0  0  0  0  0  0  0  0
  142.8920   76.9620  219.4520 N   0  0  0  0  0  0  0  0  0  0  0  0
  143.0450   75.6780  219.8160 C   0  0  0  0  0  0  0  0  0  0  0  0
  144.0840   74.8190  219.4670 C   0  0  0  0  0  0  0  0  0  0  0  0
  146.5820   74.0050  218.9620 H   0  0  0  0  0  0  0  0  0  0  0  0
  142.9555   72.0596  221.1896 H   0  0  0  0  0  0  0  0  0  0  0  0
  141.1159   73.6717  221.7824 H   0  0  0  0  0  0  0  0  0  0  0  0
  140.2367   76.3836  221.3709 H   0  0  0  0  0  0  0  0  0  0  0  0
  139.0353   80.5717  220.5166 H   0  0  0  0  0  0  0  0  0  0  0  0
  138.6754   78.9969  221.2379 H   0  0  0  0  0  0  0  0  0  0  0  0
  139.0422   82.5466  223.4798 H   0  0  0  0  0  0  0  0  0  0  0  0
  138.8357   82.4539  221.7450 H   0  0  0  0  0  0  0  0  0  0  0  0
  136.6876   82.4018  223.3893 H   0  0  0  0  0  0  0  0  0  0  0  0
  136.6961   81.3555  221.9474 H   0  0  0  0  0  0  0  0  0  0  0  0
  135.5474   79.2314  224.3523 H   0  0  0  0  0  0  0  0  0  0  0  0
  137.5157   78.3963  222.1642 H   0  0  0  0  0  0  0  0  0  0  0  0
  136.8781   77.3978  223.4652 H   0  0  0  0  0  0  0  0  0  0  0  0
  135.9037   77.2870  220.9012 H   0  0  0  0  0  0  0  0  0  0  0  0
  134.8507   76.9812  222.3074 H   0  0  0  0  0  0  0  0  0  0  0  0
  133.6780   78.7350  221.6350 H   0  0  0  0  0  0  0  0  0  0  0  0
  134.8390   79.1700  220.4640 H   0  0  0  0  0  0  0  0  0  0  0  0
  135.7049   80.7579  221.7289 H   0  0  0  0  0  0  0  0  0  0  0  0
  134.2908   80.5249  222.7939 H   0  0  0  0  0  0  0  0  0  0  0  0
  138.9674   79.7759  224.7059 H   0  0  0  0  0  0  0  0  0  0  0  0
  138.4082   78.6909  223.4047 H   0  0  0  0  0  0  0  0  0  0  0  0
  140.7636   81.6521  224.9795 H   0  0  0  0  0  0  0  0  0  0  0  0
  143.2642   81.5713  225.2115 H   0  0  0  0  0  0  0  0  0  0  0  0
  144.6544   80.4978  223.4290 H   0  0  0  0  0  0  0  0  0  0  0  0
  143.5511   79.4705  221.4201 H   0  0  0  0  0  0  0  0  0  0  0  0
  143.5420   77.5260  218.8590 H   0  0  0  0  0  0  0  0  0  0  0  0
  144.9056   75.1611  218.8206 H   0  0  0  0  0  0  0  0  0  0  0  0
  1  2  1  0
  2  3  2  0
  2  4  1  0
  4  5  2  0
  5  6  1  0
  6  7  2  0
  7  8  1  0
  8  9  2  0
  9 10  1  0
 10 11  2  0
 10 12  1  0
 12 13  1  0
 14 13  1  6
 14 15  1  0
 15 16  1  0
 16 17  1  0
 17 18  1  0
 18 19  1  0
 19 20  1  0
 20 21  1  0
 21 22  1  0
 17 23  1  0
 14 24  1  0
 24 25  2  0
 25 26  1  0
 26 27  2  0
 27 28  1  0
 28 29  2  0
  9 30  1  0
 30 31  1  0
 31 32  2  0
 32  4  1  0
 31  7  1  0
 29 12  1  0
 23 14  1  0
 29 24  1  0
 22 18  1  0
  1 33  1  0
  5 34  1  0
  6 35  1  0
  8 36  1  0
 13 37  1  0
 13 38  1  0
 15 39  1  0
 15 40  1  0
 16 41  1  0
 16 42  1  0
 18 43  1  1
 19 44  1  0
 19 45  1  0
 20 46  1  0
 20 47  1  0
 21 48  1  0
 21 49  1  0
 22 50  1  0
 22 51  1  0
 23 52  1  0
 23 53  1  0
 25 54  1  0
 26 55  1  0
 27 56  1  0
 28 57  1  0
 30 58  1  0
 32 59  1  0
M  CHG  2   1  -1  21   1
M  END
>  <meeko>  (2) 
{"free_energy": -7.89, "intermolecular_energy": -9.39, "internal_energy": -1.16, "cluster_size": 11, "cluster_id": 3, "rank_in_cluster": 11}

$$$$

     RDKit          3D

 59 64  0  0  0  0  0  0  0  0999 V2000
  146.2590   73.0430  218.6240 N   0  0  0  0  0  0  0  0  0  0  0  0
  145.8410   73.2280  219.9750 C   0  0  0  0  0  0  0  0  0  0  0  0
  146.7120   73.3330  220.8790 O   0  0  0  0  0  0  0  0  0  0  0  0
  144.4000   73.2970  220.3140 C   0  0  0  0  0  0  0  0  0  0  0  0
  143.6210   72.1100  220.3790 C   0  0  0  0  0  0  0  0  0  0  0  0
  142.2530   72.1610  220.7010 C   0  0  0  0  0  0  0  0  0  0  0  0
  141.6900   73.4080  220.9510 C   0  0  0  0  0  0  0  0  0  0  0  0
  140.4010   73.7570  221.2880 C   0  0  0  0  0  0  0  0  0  0  0  0
  140.4260   75.1460  221.4100 C   0  0  0  0  0  0  0  0  0  0  0  0
  139.2720   75.9830  221.7830 C   0  0  0  0  0  0  0  0  0  0  0  0
  138.2470   75.4400  222.2770 O   0  0  0  0  0  0  0  0  0  0  0  0
  139.3150   77.4090  221.6430 N   0  0  0  0  0  0  0  0  0  0  0  0
  140.3940   78.1290  220.9710 C   0  0  0  0  0  0  0  0  0  0  0  0
  139.9680   79.6400  220.9870 C   0  0  1  0  0  0  0  0  0  0  0  0
  141.0680   80.5410  221.5270 C   0  0  0  0  0  0  0  0  0  0  0  0
  141.8760   80.8660  220.2870 C   0  0  0  0  0  0  0  0  0  0  0  0
  140.9400   80.9020  219.1460 N   0  0  0  0  0  0  0  0  0  0  0  0
  141.5300   80.3290  217.9120 C   0  0  2  0  0  0  0  0  0  0  0  0
  140.6670   79.2200  217.3290 C   0  0  0  0  0  0  0  0  0  0  0  0
  141.6520   78.3100  216.6220 C   0  0  0  0  0  0  0  0  0  0  0  0
  142.9560   78.4750  217.2720 N   0  0  0  0  0  0  0  0  0  0  0  0
  142.8540   79.6140  218.1900 C   0  0  0  0  0  0  0  0  0  0  0  0
  139.7180   80.1900  219.5760 C   0  0  0  0  0  0  0  0  0  0  0  0
  138.7270   79.6310  221.8370 C   0  0  0  0  0  0  0  0  0  0  0  0
  137.9540   80.7160  222.2680 C   0  0  0  0  0  0  0  0  0  0  0  0
  136.8420   80.4670  223.0860 C   0  0  0  0  0  0  0  0  0  0  0  0
  136.5240   79.1520  223.4690 C   0  0  0  0  0  0  0  0  0  0  0  0
  137.3080   78.0780  223.0230 C   0  0  0  0  0  0  0  0  0  0  0  0
  138.3950   78.3460  222.1830 C   0  0  0  0  0  0  0  0  0  0  0  0
  141.6690   75.6300  221.1750 N   0  0  0  0  0  0  0  0  0  0  0  0
  142.4290   74.5590  220.8910 C   0  0  0  0  0  0  0  0  0  0  0  0
  143.7860   74.5440  220.5780 C   0  0  0  0  0  0  0  0  0  0  0  0
  146.7190   73.8170  218.0930 H   0  0  0  0  0  0  0  0  0  0  0  0
  144.0945   71.1384  220.1747 H   0  0  0  0  0  0  0  0  0  0  0  0
  141.6476   71.2441  220.7535 H   0  0  0  0  0  0  0  0  0  0  0  0
  139.5403   73.0869  221.4298 H   0  0  0  0  0  0  0  0  0  0  0  0
  141.3421   77.9917  221.5116 H   0  0  0  0  0  0  0  0  0  0  0  0
  140.5517   77.7616  219.9462 H   0  0  0  0  0  0  0  0  0  0  0  0
  140.6480   81.4530  221.9764 H   0  0  0  0  0  0  0  0  0  0  0  0
  141.6635   80.0711  222.3236 H   0  0  0  0  0  0  0  0  0  0  0  0
  142.3651   81.8444  220.4029 H   0  0  0  0  0  0  0  0  0  0  0  0
  142.6577   80.1095  220.1239 H   0  0  0  0  0  0  0  0  0  0  0  0
  141.6365   81.1928  217.2394 H   0  0  0  0  0  0  0  0  0  0  0  0
  140.1388   78.6773  218.1268 H   0  0  0  0  0  0  0  0  0  0  0  0
  139.8901   79.6046  216.6519 H   0  0  0  0  0  0  0  0  0  0  0  0
  141.3217   77.2640  216.7046 H   0  0  0  0  0  0  0  0  0  0  0  0
  141.7178   78.5680  215.5547 H   0  0  0  0  0  0  0  0  0  0  0  0
  143.6940   78.6570  216.5520 H   0  0  0  0  0  0  0  0  0  0  0  0
  143.2050   77.6070  217.8030 H   0  0  0  0  0  0  0  0  0  0  0  0
  142.8744   79.2577  219.2305 H   0  0  0  0  0  0  0  0  0  0  0  0
  143.6987   80.3024  218.0398 H   0  0  0  0  0  0  0  0  0  0  0  0
  138.8655   80.8850  219.5908 H   0  0  0  0  0  0  0  0  0  0  0  0
  139.4853   79.3708  218.8797 H   0  0  0  0  0  0  0  0  0  0  0  0
  138.2135   81.7429  221.9711 H   0  0  0  0  0  0  0  0  0  0  0  0
  136.2162   81.3040  223.4293 H   0  0  0  0  0  0  0  0  0  0  0  0
  135.6576   78.9650  224.1205 H   0  0  0  0  0  0  0  0  0  0  0  0
  137.0736   77.0471  223.3269 H   0  0  0  0  0  0  0  0  0  0  0  0
  141.9850   76.6250  221.2210 H   0  0  0  0  0  0  0  0  0  0  0  0
  144.3657   75.4780  220.5371 H   0  0  0  0  0  0  0  0  0  0  0  0
  1  2  1  0
  2  3  2  0
  2  4  1  0
  4  5  2  0
  5  6  1  0
  6  7  2  0
  7  8  1  0
  8  9  2  0
  9 10  1  0
 10 11  2  0
 10 12  1  0
 12 13  1  0
 14 13  1  6
 14 15  1  0
 15 16  1  0
 16 17  1  0
 17 18  1  0
 18 19  1  0
 19 20  1  0
 20 21  1  0
 21 22  1  0
 17 23  1  0
 14 24  1  0
 24 25  2  0
 25 26  1  0
 26 27  2  0
 27 28  1  0
 28 29  2  0
  9 30  1  0
 30 31  1  0
 31 32  2  0
 32  4  1  0
 31  7  1  0
 29 12  1  0
 23 14  1  0
 29 24  1  0
 22 18  1  0
  1 33  1  0
  5 34  1  0
  6 35  1  0
  8 36  1  0
 13 37  1  0
 13 38  1  0
 15 39  1  0
 15 40  1  0
 16 41  1  0
 16 42  1  0
 18 43  1  6
 19 44  1  0
 19 45  1  0
 20 46  1  0
 20 47  1  0
 21 48  1  0
 21 49  1  0
 22 50  1  0
 22 51  1  0
 23 52  1  0
 23 53  1  0
 25 54  1  0
 26 55  1  0
 27 56  1  0
 28 57  1  0
 30 58  1  0
 32 59  1  0
M  CHG  2   1  -1  21   1
M  END
>  <meeko>  (3) 
{"free_energy": -8.58, "intermolecular_energy": -10.07, "internal_energy": -0.92, "cluster_size": 4, "cluster_id": 1, "rank_in_cluster": 3}

$$$$

     RDKit          3D

 59 64  0  0  0  0  0  0  0  0999 V2000
  146.0710   71.1580  219.1770 N   0  0  0  0  0  0  0  0  0  0  0  0
  145.5990   72.5040  219.2250 C   0  0  0  0  0  0  0  0  0  0  0  0
  146.3080   73.4210  218.7300 O   0  0  0  0  0  0  0  0  0  0  0  0
  144.2940   72.8220  219.8500 C   0  0  0  0  0  0  0  0  0  0  0  0
  143.3940   71.7800  220.2010 C   0  0  0  0  0  0  0  0  0  0  0  0
  142.1520   72.0690  220.7940 C   0  0  0  0  0  0  0  0  0  0  0  0
  141.8360   73.4040  221.0240 C   0  0  0  0  0  0  0  0  0  0  0  0
  140.7150   73.9750  221.5850 C   0  0  0  0  0  0  0  0  0  0  0  0
  140.9570   75.3470  221.5520 C   0  0  0  0  0  0  0  0  0  0  0  0
  140.0420   76.3800  222.0680 C   0  0  0  0  0  0  0  0  0  0  0  0
  139.1800   76.0680  222.9330 O   0  0  0  0  0  0  0  0  0  0  0  0
  140.1490   77.7450  221.6430 N   0  0  0  0  0  0  0  0  0  0  0  0
  140.9780   78.1860  220.5240 C   0  0  0  0  0  0  0  0  0  0  0  0
  140.7100   79.7260  220.3810 C   0  0  1  0  0  0  0  0  0  0  0  0
  141.9980   80.5330  220.3380 C   0  0  0  0  0  0  0  0  0  0  0  0
  142.3440   80.5380  218.8630 C   0  0  0  0  0  0  0  0  0  0  0  0
  141.0730   80.5290  218.1120 N   0  0  0  0  0  0  0  0  0  0  0  0
  141.1440   79.6890  216.8910 C   0  0  2  0  0  0  0  0  0  0  0  0
  142.0270   78.4670  217.0910 C   0  0  0  0  0  0  0  0  0  0  0  0
  142.5740   78.1700  215.7080 C   0  0  0  0  0  0  0  0  0  0  0  0
  142.5700   79.4240  214.9480 N   0  0  0  0  0  0  0  0  0  0  0  0
  141.8310   80.4180  215.7350 C   0  0  0  0  0  0  0  0  0  0  0  0
  140.0260   80.0780  219.0520 C   0  0  0  0  0  0  0  0  0  0  0  0
  139.8500   80.0310  221.5770 C   0  0  0  0  0  0  0  0  0  0  0  0
  139.3680   81.2710  222.0150 C   0  0  0  0  0  0  0  0  0  0  0  0
  138.5980   81.3180  223.1870 C   0  0  0  0  0  0  0  0  0  0  0  0
  138.3280   80.1390  223.9050 C   0  0  0  0  0  0  0  0  0  0  0  0
  138.8150   78.9060  223.4470 C   0  0  0  0  0  0  0  0  0  0  0  0
  139.5570   78.8780  222.2600 C   0  0  0  0  0  0  0  0  0  0  0  0
  142.1710   75.6120  221.0120 N   0  0  0  0  0  0  0  0  0  0  0  0
  142.6940   74.4170  220.6900 C   0  0  0  0  0  0  0  0  0  0  0  0
  143.9320   74.1660  220.1030 C   0  0  0  0  0  0  0  0  0  0  0  0
  146.3940   70.6710  220.0420 H   0  0  0  0  0  0  0  0  0  0  0  0
  143.6723   70.7337  220.0064 H   0  0  0  0  0  0  0  0  0  0  0  0
  141.4527   71.2650  221.0672 H   0  0  0  0  0  0  0  0  0  0  0  0
  139.8238   73.4606  221.9739 H   0  0  0  0  0  0  0  0  0  0  0  0
  142.0410   77.9994  220.7368 H   0  0  0  0  0  0  0  0  0  0  0  0
  140.7349   77.6430  219.5987 H   0  0  0  0  0  0  0  0  0  0  0  0
  141.8372   81.5555  220.7104 H   0  0  0  0  0  0  0  0  0  0  0  0
  142.7949   80.1141  220.9701 H   0  0  0  0  0  0  0  0  0  0  0  0
  142.9209   81.4412  218.6151 H   0  0  0  0  0  0  0  0  0  0  0  0
  142.9546   79.6605  218.6041 H   0  0  0  0  0  0  0  0  0  0  0  0
  140.0953   79.4335  216.6788 H   0  0  0  0  0  0  0  0  0  0  0  0
  142.8438   78.6872  217.7941 H   0  0  0  0  0  0  0  0  0  0  0  0
  141.4762   77.6155  217.5170 H   0  0  0  0  0  0  0  0  0  0  0  0
  143.6006   77.7828  215.7864 H   0  0  0  0  0  0  0  0  0  0  0  0
  141.9562   77.4122  215.2040 H   0  0  0  0  0  0  0  0  0  0  0  0
  142.1050   79.2790  214.0220 H   0  0  0  0  0  0  0  0  0  0  0  0
  143.5530   79.7510  214.7900 H   0  0  0  0  0  0  0  0  0  0  0  0
  142.5263   81.1732  216.1303 H   0  0  0  0  0  0  0  0  0  0  0  0
  141.0850   80.9259  215.1060 H   0  0  0  0  0  0  0  0  0  0  0  0
  139.2928   80.8827  219.2099 H   0  0  0  0  0  0  0  0  0  0  0  0
  139.4973   79.2022  218.6476 H   0  0  0  0  0  0  0  0  0  0  0  0
  139.5887   82.1896  221.4515 H   0  0  0  0  0  0  0  0  0  0  0  0
  138.2041   82.2804  223.5456 H   0  0  0  0  0  0  0  0  0  0  0  0
  137.7328   80.1841  224.8290 H   0  0  0  0  0  0  0  0  0  0  0  0
  138.6182   77.9807  224.0084 H   0  0  0  0  0  0  0  0  0  0  0  0
  142.6230   76.5460  220.8860 H   0  0  0  0  0  0  0  0  0  0  0  0
  144.6108   74.9916  219.8428 H   0  0  0  0  0  0  0  0  0  0  0  0
  1  2  1  0
  2  3  2  0
  2  4  1  0
  4  5  2  0
  5  6  1  0
  6  7  2  0
  7  8  1  0
  8  9  2  0
  9 10  1  0
 10 11  2  0
 10 12  1  0
 12 13  1  0
 14 13  1  6
 14 15  1  0
 15 16  1  0
 16 17  1  0
 17 18  1  0
 18 19  1  0
 19 20  1  0
 20 21  1  0
 21 22  1  0
 17 23  1  0
 14 24  1  0
 24 25  2  0
 25 26  1  0
 26 27  2  0
 27 28  1  0
 28 29  2  0
  9 30  1  0
 30 31  1  0
 31 32  2  0
 32  4  1  0
 31  7  1  0
 29 12  1  0
 23 14  1  0
 29 24  1  0
 22 18  1  0
  1 33  1  0
  5 34  1  0
  6 35  1  0
  8 36  1  0
 13 37  1  0
 13 38  1  0
 15 39  1  0
 15 40  1  0
 16 41  1  0
 16 42  1  0
 18 43  1  6
 19 44  1  0
 19 45  1  0
 20 46  1  0
 20 47  1  0
 21 48  1  0
 21 49  1  0
 22 50  1  0
 22 51  1  0
 23 52  1  0
 23 53  1  0
 25 54  1  0
 26 55  1  0
 27 56  1  0
 28 57  1  0
 30 58  1  0
 32 59  1  0
M  CHG  2   1  -1  21   1
M  END
>  <meeko>  (4) 
{"free_energy": -8.82, "intermolecular_energy": -10.31, "internal_energy": -0.92, "cluster_size": 4, "cluster_id": 1, "rank_in_cluster": 2}

$$$$

     RDKit          3D

 59 64  0  0  0  0  0  0  0  0999 V2000
  146.3060   72.0790  219.3330 N   0  0  0  0  0  0  0  0  0  0  0  0
  145.0800   72.5960  219.8450 C   0  0  0  0  0  0  0  0  0  0  0  0
  144.5340   72.0230  220.8260 O   0  0  0  0  0  0  0  0  0  0  0  0
  144.4530   73.7900  219.2340 C   0  0  0  0  0  0  0  0  0  0  0  0
  144.4980   73.9840  217.8260 C   0  0  0  0  0  0  0  0  0  0  0  0
  143.9060   75.1130  217.2330 C   0  0  0  0  0  0  0  0  0  0  0  0
  143.2790   76.0320  218.0680 C   0  0  0  0  0  0  0  0  0  0  0  0
  142.6220   77.2060  217.7730 C   0  0  0  0  0  0  0  0  0  0  0  0
  142.2030   77.7020  219.0070 C   0  0  0  0  0  0  0  0  0  0  0  0
  141.4310   78.9420  219.2020 C   0  0  0  0  0  0  0  0  0  0  0  0
  141.3300   79.7650  218.2530 O   0  0  0  0  0  0  0  0  0  0  0  0
  140.7480   79.2030  220.4350 N   0  0  0  0  0  0  0  0  0  0  0  0
  139.3220   78.9590  220.6440 C   0  0  0  0  0  0  0  0  0  0  0  0
  139.0510   79.3050  222.1510 C   0  0  1  0  0  0  0  0  0  0  0  0
  137.8790   80.2600  222.3190 C   0  0  0  0  0  0  0  0  0  0  0  0
  136.6910   79.3230  222.4040 C   0  0  0  0  0  0  0  0  0  0  0  0
  137.1520   78.0840  223.0600 N   0  0  0  0  0  0  0  0  0  0  0  0
  136.5340   76.8700  222.4730 C   0  0  2  0  0  0  0  0  0  0  0  0
  135.7230   76.0910  223.4970 C   0  0  0  0  0  0  0  0  0  0  0  0
  135.8010   74.6530  223.0230 C   0  0  0  0  0  0  0  0  0  0  0  0
  137.0330   74.5090  222.2410 N   0  0  0  0  0  0  0  0  0  0  0  0
  137.5860   75.8510  222.0300 C   0  0  0  0  0  0  0  0  0  0  0  0
  138.6260   78.0750  222.9640 C   0  0  0  0  0  0  0  0  0  0  0  0
  140.3640   79.8810  222.6060 C   0  0  0  0  0  0  0  0  0  0  0  0
  140.6900   80.4400  223.8480 C   0  0  0  0  0  0  0  0  0  0  0  0
  141.9850   80.9440  224.0390 C   0  0  0  0  0  0  0  0  0  0  0  0
  142.9270   80.8920  222.9960 C   0  0  0  0  0  0  0  0  0  0  0  0
  142.5830   80.3220  221.7610 C   0  0  0  0  0  0  0  0  0  0  0  0
  141.2940   79.7990  221.6020 C   0  0  0  0  0  0  0  0  0  0  0  0
  142.5690   76.8700  220.0120 N   0  0  0  0  0  0  0  0  0  0  0  0
  143.2290   75.8580  219.4250 C   0  0  0  0  0  0  0  0  0  0  0  0
  143.8020   74.7510  220.0450 C   0  0  0  0  0  0  0  0  0  0  0  0
  146.3200   71.4680  218.4860 H   0  0  0  0  0  0  0  0  0  0  0  0
  145.0030   73.2404  217.1920 H   0  0  0  0  0  0  0  0  0  0  0  0
  143.9376   75.2647  216.1440 H   0  0  0  0  0  0  0  0  0  0  0  0
  142.4627   77.6542  216.7812 H   0  0  0  0  0  0  0  0  0  0  0  0
  138.7215   79.6059  219.9875 H   0  0  0  0  0  0  0  0  0  0  0  0
  139.0482   77.9198  220.4094 H   0  0  0  0  0  0  0  0  0  0  0  0
  137.9812   80.8545  223.2388 H   0  0  0  0  0  0  0  0  0  0  0  0
  137.7963   80.9949  221.5047 H   0  0  0  0  0  0  0  0  0  0  0  0
  135.8885   79.7862  222.9969 H   0  0  0  0  0  0  0  0  0  0  0  0
  136.2943   79.1069  221.4010 H   0  0  0  0  0  0  0  0  0  0  0  0
  135.9249   77.2538  221.6413 H   0  0  0  0  0  0  0  0  0  0  0  0
  136.1607   76.1945  224.5008 H   0  0  0  0  0  0  0  0  0  0  0  0
  134.6868   76.4519  223.5743 H   0  0  0  0  0  0  0  0  0  0  0  0
  135.8245   73.9739  223.8880 H   0  0  0  0  0  0  0  0  0  0  0  0
  134.9232   74.4006  222.4100 H   0  0  0  0  0  0  0  0  0  0  0  0
  136.8220   74.0570  221.3210 H   0  0  0  0  0  0  0  0  0  0  0  0
  137.7220   73.9160  222.7620 H   0  0  0  0  0  0  0  0  0  0  0  0
  138.5014   75.9758  222.6270 H   0  0  0  0  0  0  0  0  0  0  0  0
  137.8384   75.9983  220.9695 H   0  0  0  0  0  0  0  0  0  0  0  0
  139.0668   78.1214  223.9708 H   0  0  0  0  0  0  0  0  0  0  0  0
  138.9734   77.1528  222.4753 H   0  0  0  0  0  0  0  0  0  0  0  0
  139.9459   80.4829  224.6570 H   0  0  0  0  0  0  0  0  0  0  0  0
  142.2649   81.3817  225.0086 H   0  0  0  0  0  0  0  0  0  0  0  0
  143.9371   81.2997  223.1490 H   0  0  0  0  0  0  0  0  0  0  0  0
  143.3098   80.2868  220.9360 H   0  0  0  0  0  0  0  0  0  0  0  0
  142.3670   76.9760  221.0320 H   0  0  0  0  0  0  0  0  0  0  0  0
  143.7504   74.6261  221.1367 H   0  0  0  0  0  0  0  0  0  0  0  0
  1  2  1  0
  2  3  2  0
  2  4  1  0
  4  5  2  0
  5  6  1  0
  6  7  2  0
  7  8  1  0
  8  9  2  0
  9 10  1  0
 10 11  2  0
 10 12  1  0
 12 13  1  0
 14 13  1  6
 14 15  1  0
 15 16  1  0
 16 17  1  0
 17 18  1  0
 18 19  1  0
 19 20  1  0
 20 21  1  0
 21 22  1  0
 17 23  1  0
 14 24  1  0
 24 25  2  0
 25 26  1  0
 26 27  2  0
 27 28  1  0
 28 29  2  0
  9 30  1  0
 30 31  1  0
 31 32  2  0
 32  4  1  0
 31  7  1  0
 29 12  1  0
 23 14  1  0
 29 24  1  0
 22 18  1  0
  1 33  1  0
  5 34  1  0
  6 35  1  0
  8 36  1  0
 13 37  1  0
 13 38  1  0
 15 39  1  0
 15 40  1  0
 16 41  1  0
 16 42  1  0
 18 43  1  6
 19 44  1  0
 19 45  1  0
 20 46  1  0
 20 47  1  0
 21 48  1  0
 21 49  1  0
 22 50  1  0
 22 51  1  0
 23 52  1  0
 23 53  1  0
 25 54  1  0
 26 55  1  0
 27 56  1  0
 28 57  1  0
 30 58  1  0
 32 59  1  0
M  CHG  2   1  -1  21   1
M  END
>  <meeko>  (5) 
{"free_energy": -8.16, "intermolecular_energy": -9.65, "internal_energy": -0.98, "cluster_size": 1, "cluster_id": 6, "rank_in_cluster": 1}

$$$$

     RDKit          3D

 59 64  0  0  0  0  0  0  0  0999 V2000
  146.2450   72.8890  218.9870 N   0  0  0  0  0  0  0  0  0  0  0  0
  144.9060   72.6610  219.4240 C   0  0  0  0  0  0  0  0  0  0  0  0
  144.5190   71.4800  219.6260 O   0  0  0  0  0  0  0  0  0  0  0  0
  143.9810   73.7990  219.6370 C   0  0  0  0  0  0  0  0  0  0  0  0
  144.0320   74.9340  218.7840 C   0  0  0  0  0  0  0  0  0  0  0  0
  143.1580   76.0200  218.9750 C   0  0  0  0  0  0  0  0  0  0  0  0
  142.2470   75.9450  220.0230 C   0  0  0  0  0  0  0  0  0  0  0  0
  141.2850   76.8390  220.4390 C   0  0  0  0  0  0  0  0  0  0  0  0
  140.6810   76.2290  221.5370 C   0  0  0  0  0  0  0  0  0  0  0  0
  139.5660   76.8000  222.3140 C   0  0  0  0  0  0  0  0  0  0  0  0
  138.6480   76.0430  222.7280 O   0  0  0  0  0  0  0  0  0  0  0  0
  139.5360   78.1930  222.6530 N   0  0  0  0  0  0  0  0  0  0  0  0
  138.3310   79.0180  222.5970 C   0  0  0  0  0  0  0  0  0  0  0  0
  138.7600   80.4290  223.1340 C   0  0  1  0  0  0  0  0  0  0  0  0
  138.3500   81.5520  222.1930 C   0  0  0  0  0  0  0  0  0  0  0  0
  136.9490   81.8890  222.6610 C   0  0  0  0  0  0  0  0  0  0  0  0
  136.9020   81.6560  224.1180 N   0  0  0  0  0  0  0  0  0  0  0  0
  135.6090   81.0760  224.5560 C   0  0  2  0  0  0  0  0  0  0  0  0
  135.4870   79.6070  224.1790 C   0  0  0  0  0  0  0  0  0  0  0  0
  133.9960   79.3880  224.0030 C   0  0  0  0  0  0  0  0  0  0  0  0
  133.3960   80.6780  223.6490 N   0  0  0  0  0  0  0  0  0  0  0  0
  134.4220   81.7110  223.8300 C   0  0  0  0  0  0  0  0  0  0  0  0
  138.0540   80.7910  224.4480 C   0  0  0  0  0  0  0  0  0  0  0  0
  140.2500   80.2910  223.2920 C   0  0  0  0  0  0  0  0  0  0  0  0
  141.1840   81.2660  223.6650 C   0  0  0  0  0  0  0  0  0  0  0  0
  142.5400   80.9110  223.7190 C   0  0  0  0  0  0  0  0  0  0  0  0
  142.9450   79.6040  223.3960 C   0  0  0  0  0  0  0  0  0  0  0  0
  141.9930   78.6400  223.0300 C   0  0  0  0  0  0  0  0  0  0  0  0
  140.6420   79.0070  223.0110 C   0  0  0  0  0  0  0  0  0  0  0  0
  141.2310   75.0160  221.7810 N   0  0  0  0  0  0  0  0  0  0  0  0
  142.1890   74.8580  220.8520 C   0  0  0  0  0  0  0  0  0  0  0  0
  143.0370   73.7650  220.6910 C   0  0  0  0  0  0  0  0  0  0  0  0
  146.5190   73.7920  218.5410 H   0  0  0  0  0  0  0  0  0  0  0  0
  144.7642   74.9641  217.9636 H   0  0  0  0  0  0  0  0  0  0  0  0
  143.1942   76.9003  218.3164 H   0  0  0  0  0  0  0  0  0  0  0  0
  141.0460   77.8192  220.0007 H   0  0  0  0  0  0  0  0  0  0  0  0
  137.9666   79.0956  221.5620 H   0  0  0  0  0  0  0  0  0  0  0  0
  137.5142   78.5864  223.1941 H   0  0  0  0  0  0  0  0  0  0  0  0
  139.0205   82.4182  222.2943 H   0  0  0  0  0  0  0  0  0  0  0  0
  138.3977   81.2690  221.1311 H   0  0  0  0  0  0  0  0  0  0  0  0
  136.7226   82.9428  222.4413 H   0  0  0  0  0  0  0  0  0  0  0  0
  136.2060   81.2642  222.1437 H   0  0  0  0  0  0  0  0  0  0  0  0
  135.5925   81.2461  225.6426 H   0  0  0  0  0  0  0  0  0  0  0  0
  136.0247   79.3991  223.2422 H   0  0  0  0  0  0  0  0  0  0  0  0
  135.9231   78.9406  224.9378 H   0  0  0  0  0  0  0  0  0  0  0  0
  133.8165   78.6581  223.1999 H   0  0  0  0  0  0  0  0  0  0  0  0
  133.5514   78.9972  224.9301 H   0  0  0  0  0  0  0  0  0  0  0  0
  132.5750   80.8730  224.2700 H   0  0  0  0  0  0  0  0  0  0  0  0
  133.0730   80.6640  222.6530 H   0  0  0  0  0  0  0  0  0  0  0  0
  134.7445   82.0926  222.8500 H   0  0  0  0  0  0  0  0  0  0  0  0
  134.0200   82.5503  224.4164 H   0  0  0  0  0  0  0  0  0  0  0  0
  138.7484   81.3290  225.1101 H   0  0  0  0  0  0  0  0  0  0  0  0
  137.7158   79.8814  224.9659 H   0  0  0  0  0  0  0  0  0  0  0  0
  140.8609   82.2885  223.9104 H   0  0  0  0  0  0  0  0  0  0  0  0
  143.2901   81.6589  224.0155 H   0  0  0  0  0  0  0  0  0  0  0  0
  144.0114   79.3362  223.4303 H   0  0  0  0  0  0  0  0  0  0  0  0
  142.3015   77.6183  222.7638 H   0  0  0  0  0  0  0  0  0  0  0  0
  140.9600   74.3300  222.5220 H   0  0  0  0  0  0  0  0  0  0  0  0
  142.9747   72.8981  221.3653 H   0  0  0  0  0  0  0  0  0  0  0  0
  1  2  1  0
  2  3  2  0
  2  4  1  0
  4  5  2  0
  5  6  1  0
  6  7  2  0
  7  8  1  0
  8  9  2  0
  9 10  1  0
 10 11  2  0
 10 12  1  0
 12 13  1  0
 14 13  1  6
 14 15  1  0
 15 16  1  0
 16 17  1  0
 17 18  1  0
 18 19  1  0
 19 20  1  0
 20 21  1  0
 21 22  1  0
 17 23  1  0
 14 24  1  0
 24 25  2  0
 25 26  1  0
 26 27  2  0
 27 28  1  0
 28 29  2  0
  9 30  1  0
 30 31  1  0
 31 32  2  0
 32  4  1  0
 31  7  1  0
 29 12  1  0
 23 14  1  0
 29 24  1  0
 22 18  1  0
  1 33  1  0
  5 34  1  0
  6 35  1  0
  8 36  1  0
 13 37  1  0
 13 38  1  0
 15 39  1  0
 15 40  1  0
 16 41  1  0
 16 42  1  0
 18 43  1  1
 19 44  1  0
 19 45  1  0
 20 46  1  0
 20 47  1  0
 21 48  1  0
 21 49  1  0
 22 50  1  0
 22 51  1  0
 23 52  1  0
 23 53  1  0
 25 54  1  0
 26 55  1  0
 27 56  1  0
 28 57  1  0
 30 58  1  0
 32 59  1  0
M  CHG  2   1  -1  21   1
M  END
>  <meeko>  (6) 
{"free_energy": -8.27, "intermolecular_energy": -9.76, "internal_energy": -1.12, "cluster_size": 11, "cluster_id": 3, "rank_in_cluster": 9}

$$$$

     RDKit          3D

 59 64  0  0  0  0  0  0  0  0999 V2000
  138.8610   67.0190  226.5140 N   0  0  0  0  0  0  0  0  0  0  0  0
  139.9660   67.8980  226.7170 C   0  0  0  0  0  0  0  0  0  0  0  0
  140.8050   67.6310  227.6180 O   0  0  0  0  0  0  0  0  0  0  0  0
  140.1270   69.1090  225.8800 C   0  0  0  0  0  0  0  0  0  0  0  0
  141.2420   69.9700  226.0710 C   0  0  0  0  0  0  0  0  0  0  0  0
  141.4070   71.1230  225.2820 C   0  0  0  0  0  0  0  0  0  0  0  0
  140.4450   71.3920  224.3140 C   0  0  0  0  0  0  0  0  0  0  0  0
  140.3510   72.4260  223.4090 C   0  0  0  0  0  0  0  0  0  0  0  0
  139.1780   72.1740  222.6990 C   0  0  0  0  0  0  0  0  0  0  0  0
  138.6620   73.0050  221.5970 C   0  0  0  0  0  0  0  0  0  0  0  0
  138.1720   72.4470  220.5780 O   0  0  0  0  0  0  0  0  0  0  0  0
  138.6590   74.4350  221.6850 N   0  0  0  0  0  0  0  0  0  0  0  0
  139.7680   75.2810  221.2500 C   0  0  0  0  0  0  0  0  0  0  0  0
  139.2800   76.7590  221.4560 C   0  0  1  0  0  0  0  0  0  0  0  0
  140.2810   77.5910  222.2420 C   0  0  0  0  0  0  0  0  0  0  0  0
  141.1940   78.1290  221.1590 C   0  0  0  0  0  0  0  0  0  0  0  0
  140.3760   78.3220  219.9460 N   0  0  0  0  0  0  0  0  0  0  0  0
  141.1100   77.9670  218.7070 C   0  0  2  0  0  0  0  0  0  0  0  0
  142.2730   77.0260  218.9830 C   0  0  0  0  0  0  0  0  0  0  0  0
  143.2790   77.3430  217.8930 C   0  0  0  0  0  0  0  0  0  0  0  0
  143.0480   78.7260  217.4640 N   0  0  0  0  0  0  0  0  0  0  0  0
  141.8000   79.1820  218.0840 C   0  0  0  0  0  0  0  0  0  0  0  0
  139.1490   77.5190  220.1300 C   0  0  0  0  0  0  0  0  0  0  0  0
  137.9610   76.5830  222.1600 C   0  0  0  0  0  0  0  0  0  0  0  0
  137.1040   77.5650  222.6700 C   0  0  0  0  0  0  0  0  0  0  0  0
  135.9280   77.1610  223.3180 C   0  0  0  0  0  0  0  0  0  0  0  0
  135.6290   75.7940  223.4560 C   0  0  0  0  0  0  0  0  0  0  0  0
  136.4980   74.8250  222.9330 C   0  0  0  0  0  0  0  0  0  0  0  0
  137.6510   75.2510  222.2640 C   0  0  0  0  0  0  0  0  0  0  0  0
  138.5850   71.0360  223.1320 N   0  0  0  0  0  0  0  0  0  0  0  0
  139.3670   70.5720  224.1210 C   0  0  0  0  0  0  0  0  0  0  0  0
  139.1740   69.4210  224.8820 C   0  0  0  0  0  0  0  0  0  0  0  0
  138.6570   66.2480  227.1890 H   0  0  0  0  0  0  0  0  0  0  0  0
  141.9855   69.7316  226.8458 H   0  0  0  0  0  0  0  0  0  0  0  0
  142.2693   71.7906  225.4260 H   0  0  0  0  0  0  0  0  0  0  0  0
  141.0484   73.2662  223.2757 H   0  0  0  0  0  0  0  0  0  0  0  0
  140.6626   75.0840  221.8589 H   0  0  0  0  0  0  0  0  0  0  0  0
  140.0415   75.0857  220.2026 H   0  0  0  0  0  0  0  0  0  0  0  0
  139.7801   78.4090  222.7805 H   0  0  0  0  0  0  0  0  0  0  0  0
  140.8132   77.0168  223.0147 H   0  0  0  0  0  0  0  0  0  0  0  0
  141.6281   79.0887  221.4760 H   0  0  0  0  0  0  0  0  0  0  0  0
  142.0186   77.4278  220.9632 H   0  0  0  0  0  0  0  0  0  0  0  0
  140.3412   77.5243  218.0567 H   0  0  0  0  0  0  0  0  0  0  0  0
  142.7023   77.2184  219.9773 H   0  0  0  0  0  0  0  0  0  0  0  0
  141.9683   75.9691  218.9789 H   0  0  0  0  0  0  0  0  0  0  0  0
  144.3016   77.2377  218.2844 H   0  0  0  0  0  0  0  0  0  0  0  0
  143.1611   76.6513  217.0459 H   0  0  0  0  0  0  0  0  0  0  0  0
  142.9690   78.7680  216.4200 H   0  0  0  0  0  0  0  0  0  0  0  0
  143.8440   79.3350  217.7700 H   0  0  0  0  0  0  0  0  0  0  0  0
  142.0206   79.9263  218.8633 H   0  0  0  0  0  0  0  0  0  0  0  0
  141.1472   79.6477  217.3310 H   0  0  0  0  0  0  0  0  0  0  0  0
  138.2706   78.1803  220.1630 H   0  0  0  0  0  0  0  0  0  0  0  0
  139.0220   76.8147  219.2946 H   0  0  0  0  0  0  0  0  0  0  0  0
  137.3481   78.6324  222.5646 H   0  0  0  0  0  0  0  0  0  0  0  0
  135.2367   77.9164  223.7199 H   0  0  0  0  0  0  0  0  0  0  0  0
  134.7106   75.4835  223.9758 H   0  0  0  0  0  0  0  0  0  0  0  0
  136.2779   73.7532  223.0463 H   0  0  0  0  0  0  0  0  0  0  0  0
  137.7120   70.5930  222.7660 H   0  0  0  0  0  0  0  0  0  0  0  0
  138.3029   68.7714  224.7112 H   0  0  0  0  0  0  0  0  0  0  0  0
  1  2  1  0
  2  3  2  0
  2  4  1  0
  4  5  2  0
  5  6  1  0
  6  7  2  0
  7  8  1  0
  8  9  2  0
  9 10  1  0
 10 11  2  0
 10 12  1  0
 12 13  1  0
 14 13  1  6
 14 15  1  0
 15 16  1  0
 16 17  1  0
 17 18  1  0
 18 19  1  0
 19 20  1  0
 20 21  1  0
 21 22  1  0
 17 23  1  0
 14 24  1  0
 24 25  2  0
 25 26  1  0
 26 27  2  0
 27 28  1  0
 28 29  2  0
  9 30  1  0
 30 31  1  0
 31 32  2  0
 32  4  1  0
 31  7  1  0
 29 12  1  0
 23 14  1  0
 29 24  1  0
 22 18  1  0
  1 33  1  0
  5 34  1  0
  6 35  1  0
  8 36  1  0
 13 37  1  0
 13 38  1  0
 15 39  1  0
 15 40  1  0
 16 41  1  0
 16 42  1  0
 18 43  1  6
 19 44  1  0
 19 45  1  0
 20 46  1  0
 20 47  1  0
 21 48  1  0
 21 49  1  0
 22 50  1  0
 22 51  1  0
 23 52  1  0
 23 53  1  0
 25 54  1  0
 26 55  1  0
 27 56  1  0
 28 57  1  0
 30 58  1  0
 32 59  1  0
M  CHG  2   1  -1  21   1
M  END
>  <meeko>  (7) 
{"free_energy": -8.17, "intermolecular_energy": -9.66, "internal_energy": -1.05, "cluster_size": 1, "cluster_id": 5, "rank_in_cluster": 1}

$$$$

     RDKit          3D

 59 64  0  0  0  0  0  0  0  0999 V2000
  146.3070   72.9950  218.9760 N   0  0  0  0  0  0  0  0  0  0  0  0
  145.7140   73.2730  220.2440 C   0  0  0  0  0  0  0  0  0  0  0  0
  146.3350   72.9580  221.2940 O   0  0  0  0  0  0  0  0  0  0  0  0
  144.3860   73.9240  220.3270 C   0  0  0  0  0  0  0  0  0  0  0  0
  143.2480   73.1790  220.7390 C   0  0  0  0  0  0  0  0  0  0  0  0
  141.9810   73.7850  220.8240 C   0  0  0  0  0  0  0  0  0  0  0  0
  141.8810   75.1320  220.4900 C   0  0  0  0  0  0  0  0  0  0  0  0
  140.7910   75.9740  220.4840 C   0  0  0  0  0  0  0  0  0  0  0  0
  141.2910   77.2040  220.0610 C   0  0  0  0  0  0  0  0  0  0  0  0
  140.4960   78.4360  219.9160 C   0  0  0  0  0  0  0  0  0  0  0  0
  140.0020   78.7260  218.7930 O   0  0  0  0  0  0  0  0  0  0  0  0
  140.2290   79.2820  221.0420 N   0  0  0  0  0  0  0  0  0  0  0  0
  138.9110   79.8310  221.3540 C   0  0  0  0  0  0  0  0  0  0  0  0
  139.0870   80.6100  222.7060 C   0  0  1  0  0  0  0  0  0  0  0  0
  138.5410   82.0270  222.6280 C   0  0  0  0  0  0  0  0  0  0  0  0
  137.0860   81.8490  223.0130 C   0  0  0  0  0  0  0  0  0  0  0  0
  137.0190   80.7390  223.9830 N   0  0  0  0  0  0  0  0  0  0  0  0
  135.8190   79.8890  223.7870 C   0  0  2  0  0  0  0  0  0  0  0  0
  136.1590   78.5700  223.1110 C   0  0  0  0  0  0  0  0  0  0  0  0
  134.8980   78.1990  222.3550 C   0  0  0  0  0  0  0  0  0  0  0  0
  134.1720   79.4400  222.0650 N   0  0  0  0  0  0  0  0  0  0  0  0
  134.8240   80.5210  222.8130 C   0  0  0  0  0  0  0  0  0  0  0  0
  138.2810   79.9810  223.8500 C   0  0  0  0  0  0  0  0  0  0  0  0
  140.5720   80.5500  222.9380 C   0  0  0  0  0  0  0  0  0  0  0  0
  141.3230   81.1500  223.9570 C   0  0  0  0  0  0  0  0  0  0  0  0
  142.7150   80.9780  223.9570 C   0  0  0  0  0  0  0  0  0  0  0  0
  143.3360   80.2240  222.9460 C   0  0  0  0  0  0  0  0  0  0  0  0
  142.5660   79.6260  221.9370 C   0  0  0  0  0  0  0  0  0  0  0  0
  141.1760   79.7860  221.9720 C   0  0  0  0  0  0  0  0  0  0  0  0
  142.6240   77.1320  219.8300 N   0  0  0  0  0  0  0  0  0  0  0  0
  142.9690   75.8600  220.0910 C   0  0  0  0  0  0  0  0  0  0  0  0
  144.2380   75.2920  219.9990 C   0  0  0  0  0  0  0  0  0  0  0  0
  146.6930   73.7640  218.3830 H   0  0  0  0  0  0  0  0  0  0  0  0
  143.3591   72.1149  220.9947 H   0  0  0  0  0  0  0  0  0  0  0  0
  141.0981   73.2124  221.1442 H   0  0  0  0  0  0  0  0  0  0  0  0
  139.7531   75.7291  220.7540 H   0  0  0  0  0  0  0  0  0  0  0  0
  138.5813   80.5142  220.5574 H   0  0  0  0  0  0  0  0  0  0  0  0
  138.1500   79.0409  221.4357 H   0  0  0  0  0  0  0  0  0  0  0  0
  139.0595   82.6907  223.3355 H   0  0  0  0  0  0  0  0  0  0  0  0
  138.6759   82.4915  221.6401 H   0  0  0  0  0  0  0  0  0  0  0  0
  136.7026   82.7725  223.4713 H   0  0  0  0  0  0  0  0  0  0  0  0
  136.4738   81.6275  222.1263 H   0  0  0  0  0  0  0  0  0  0  0  0
  135.4114   79.7621  224.8008 H   0  0  0  0  0  0  0  0  0  0  0  0
  137.0055   78.6936  222.4195 H   0  0  0  0  0  0  0  0  0  0  0  0
  136.4602   77.7948  223.8309 H   0  0  0  0  0  0  0  0  0  0  0  0
  135.1601   77.6898  221.4158 H   0  0  0  0  0  0  0  0  0  0  0  0
  134.2750   77.5186  222.9542 H   0  0  0  0  0  0  0  0  0  0  0  0
  133.1730   79.3470  222.3630 H   0  0  0  0  0  0  0  0  0  0  0  0
  134.2050   79.6440  221.0380 H   0  0  0  0  0  0  0  0  0  0  0  0
  135.3547   81.1884  222.1180 H   0  0  0  0  0  0  0  0  0  0  0  0
  134.0753   81.1115  223.3614 H   0  0  0  0  0  0  0  0  0  0  0  0
  138.8534   80.0397  224.7875 H   0  0  0  0  0  0  0  0  0  0  0  0
  138.0728   78.9222  223.6367 H   0  0  0  0  0  0  0  0  0  0  0  0
  140.8310   81.7440  224.7413 H   0  0  0  0  0  0  0  0  0  0  0  0
  143.3233   81.4350  224.7514 H   0  0  0  0  0  0  0  0  0  0  0  0
  144.4293   80.1024  222.9460 H   0  0  0  0  0  0  0  0  0  0  0  0
  143.0445   79.0439  221.1356 H   0  0  0  0  0  0  0  0  0  0  0  0
  143.2620   77.9030  219.5300 H   0  0  0  0  0  0  0  0  0  0  0  0
  145.1027   75.8921  219.6794 H   0  0  0  0  0  0  0  0  0  0  0  0
  1  2  1  0
  2  3  2  0
  2  4  1  0
  4  5  2  0
  5  6  1  0
  6  7  2  0
  7  8  1  0
  8  9  2  0
  9 10  1  0
 10 11  2  0
 10 12  1  0
 12 13  1  0
 14 13  1  6
 14 15  1  0
 15 16  1  0
 16 17  1  0
 17 18  1  0
 18 19  1  0
 19 20  1  0
 20 21  1  0
 21 22  1  0
 17 23  1  0
 14 24  1  0
 24 25  2  0
 25 26  1  0
 26 27  2  0
 27 28  1  0
 28 29  2  0
  9 30  1  0
 30 31  1  0
 31 32  2  0
 32  4  1  0
 31  7  1  0
 29 12  1  0
 23 14  1  0
 29 24  1  0
 22 18  1  0
  1 33  1  0
  5 34  1  0
  6 35  1  0
  8 36  1  0
 13 37  1  0
 13 38  1  0
 15 39  1  0
 15 40  1  0
 16 41  1  0
 16 42  1  0
 18 43  1  1
 19 44  1  0
 19 45  1  0
 20 46  1  0
 20 47  1  0
 21 48  1  0
 21 49  1  0
 22 50  1  0
 22 51  1  0
 23 52  1  0
 23 53  1  0
 25 54  1  0
 26 55  1  0
 27 56  1  0
 28 57  1  0
 30 58  1  0
 32 59  1  0
M  CHG  2   1  -1  21   1
M  END
>  <meeko>  (8) 
{"free_energy": -8.66, "intermolecular_energy": -10.16, "internal_energy": -1.14, "cluster_size": 11, "cluster_id": 3, "rank_in_cluster": 1}

$$$$

     RDKit          3D

 59 64  0  0  0  0  0  0  0  0999 V2000
  145.8970   72.7120  218.4470 N   0  0  0  0  0  0  0  0  0  0  0  0
  145.3840   73.2290  219.6730 C   0  0  0  0  0  0  0  0  0  0  0  0
  145.9230   72.8830  220.7590 O   0  0  0  0  0  0  0  0  0  0  0  0
  144.2330   74.1610  219.6740 C   0  0  0  0  0  0  0  0  0  0  0  0
  143.9410   74.9420  218.5230 C   0  0  0  0  0  0  0  0  0  0  0  0
  142.8510   75.8300  218.5100 C   0  0  0  0  0  0  0  0  0  0  0  0
  142.0710   75.9190  219.6590 C   0  0  0  0  0  0  0  0  0  0  0  0
  140.9590   76.6850  219.9280 C   0  0  0  0  0  0  0  0  0  0  0  0
  140.6080   76.3590  221.2380 C   0  0  0  0  0  0  0  0  0  0  0  0
  139.4550   76.9140  221.9680 C   0  0  0  0  0  0  0  0  0  0  0  0
  138.4650   76.1740  222.2160 O   0  0  0  0  0  0  0  0  0  0  0  0
  139.4620   78.2650  222.4470 N   0  0  0  0  0  0  0  0  0  0  0  0
  138.2630   79.0910  222.5680 C   0  0  0  0  0  0  0  0  0  0  0  0
  138.7430   80.4410  223.2110 C   0  0  1  0  0  0  0  0  0  0  0  0
  138.2710   81.6530  222.4220 C   0  0  0  0  0  0  0  0  0  0  0  0
  136.9130   81.9410  223.0290 C   0  0  0  0  0  0  0  0  0  0  0  0
  136.9760   81.5620  224.4540 N   0  0  0  0  0  0  0  0  0  0  0  0
  135.7170   80.9400  224.9310 C   0  0  2  0  0  0  0  0  0  0  0  0
  135.3540   79.7000  224.1280 C   0  0  0  0  0  0  0  0  0  0  0  0
  133.8400   79.6390  224.1940 C   0  0  0  0  0  0  0  0  0  0  0  0
  133.3490   81.0040  224.4100 N   0  0  0  0  0  0  0  0  0  0  0  0
  134.5090   81.8520  224.7070 C   0  0  0  0  0  0  0  0  0  0  0  0
  138.1440   80.6680  224.6050 C   0  0  0  0  0  0  0  0  0  0  0  0
  140.2400   80.2870  223.2370 C   0  0  0  0  0  0  0  0  0  0  0  0
  141.2070   81.2190  223.6330 C   0  0  0  0  0  0  0  0  0  0  0  0
  142.5610   80.8610  223.5460 C   0  0  0  0  0  0  0  0  0  0  0  0
  142.9290   79.5930  223.0620 C   0  0  0  0  0  0  0  0  0  0  0  0
  141.9440   78.6710  222.6760 C   0  0  0  0  0  0  0  0  0  0  0  0
  140.5990   79.0390  222.7980 C   0  0  0  0  0  0  0  0  0  0  0  0
  141.4520   75.4290  221.7470 N   0  0  0  0  0  0  0  0  0  0  0  0
  142.3420   75.1740  220.7740 C   0  0  0  0  0  0  0  0  0  0  0  0
  143.4120   74.2830  220.8200 C   0  0  0  0  0  0  0  0  0  0  0  0
  146.3160   71.7560  218.4000 H   0  0  0  0  0  0  0  0  0  0  0  0
  144.5766   74.8504  217.6299 H   0  0  0  0  0  0  0  0  0  0  0  0
  142.6221   76.4349  217.6202 H   0  0  0  0  0  0  0  0  0  0  0  0
  140.4574   77.3978  219.2569 H   0  0  0  0  0  0  0  0  0  0  0  0
  137.8209   79.2734  221.5774 H   0  0  0  0  0  0  0  0  0  0  0  0
  137.4912   78.6008  223.1795 H   0  0  0  0  0  0  0  0  0  0  0  0
  138.9541   82.5045  222.5574 H   0  0  0  0  0  0  0  0  0  0  0  0
  138.2346   81.4786  221.3365 H   0  0  0  0  0  0  0  0  0  0  0  0
  136.6787   83.0116  222.9349 H   0  0  0  0  0  0  0  0  0  0  0  0
  136.1276   81.3715  222.5105 H   0  0  0  0  0  0  0  0  0  0  0  0
  135.9081   80.7264  225.9930 H   0  0  0  0  0  0  0  0  0  0  0  0
  135.6948   79.7968  223.0866 H   0  0  0  0  0  0  0  0  0  0  0  0
  135.8284   78.7899  224.5239 H   0  0  0  0  0  0  0  0  0  0  0  0
  133.4393   79.2415  223.2498 H   0  0  0  0  0  0  0  0  0  0  0  0
  133.5158   78.9785  225.0117 H   0  0  0  0  0  0  0  0  0  0  0  0
  132.6770   81.0190  225.2130 H   0  0  0  0  0  0  0  0  0  0  0  0
  132.8620   81.3510  223.5500 H   0  0  0  0  0  0  0  0  0  0  0  0
  134.7034   82.5280  223.8613 H   0  0  0  0  0  0  0  0  0  0  0  0
  134.3181   82.4601  225.6035 H   0  0  0  0  0  0  0  0  0  0  0  0
  138.8916   81.1365  225.2619 H   0  0  0  0  0  0  0  0  0  0  0  0
  137.8401   79.7107  225.0536 H   0  0  0  0  0  0  0  0  0  0  0  0
  140.9114   82.2112  224.0046 H   0  0  0  0  0  0  0  0  0  0  0  0
  143.3376   81.5750  223.8576 H   0  0  0  0  0  0  0  0  0  0  0  0
  143.9926   79.3229  222.9857 H   0  0  0  0  0  0  0  0  0  0  0  0
  142.2227   77.6809  222.2861 H   0  0  0  0  0  0  0  0  0  0  0  0
  141.4130   74.9830  222.6920 H   0  0  0  0  0  0  0  0  0  0  0  0
  143.6134   73.6896  221.7240 H   0  0  0  0  0  0  0  0  0  0  0  0
  1  2  1  0
  2  3  2  0
  2  4  1  0
  4  5  2  0
  5  6  1  0
  6  7  2  0
  7  8  1  0
  8  9  2  0
  9 10  1  0
 10 11  2  0
 10 12  1  0
 12 13  1  0
 14 13  1  6
 14 15  1  0
 15 16  1  0
 16 17  1  0
 17 18  1  0
 18 19  1  0
 19 20  1  0
 20 21  1  0
 21 22  1  0
 17 23  1  0
 14 24  1  0
 24 25  2  0
 25 26  1  0
 26 27  2  0
 27 28  1  0
 28 29  2  0
  9 30  1  0
 30 31  1  0
 31 32  2  0
 32  4  1  0
 31  7  1  0
 29 12  1  0
 23 14  1  0
 29 24  1  0
 22 18  1  0
  1 33  1  0
  5 34  1  0
  6 35  1  0
  8 36  1  0
 13 37  1  0
 13 38  1  0
 15 39  1  0
 15 40  1  0
 16 41  1  0
 16 42  1  0
 18 43  1  1
 19 44  1  0
 19 45  1  0
 20 46  1  0
 20 47  1  0
 21 48  1  0
 21 49  1  0
 22 50  1  0
 22 51  1  0
 23 52  1  0
 23 53  1  0
 25 54  1  0
 26 55  1  0
 27 56  1  0
 28 57  1  0
 30 58  1  0
 32 59  1  0
M  CHG  2   1  -1  21   1
M  END
>  <meeko>  (9) 
{"free_energy": -8.04, "intermolecular_energy": -9.53, "internal_energy": -1.06, "cluster_size": 11, "cluster_id": 3, "rank_in_cluster": 10}

$$$$

     RDKit          3D

 59 64  0  0  0  0  0  0  0  0999 V2000
  146.3150   73.0340  218.2560 N   0  0  0  0  0  0  0  0  0  0  0  0
  145.7810   72.4820  219.4580 C   0  0  0  0  0  0  0  0  0  0  0  0
  146.4540   71.6260  220.0920 O   0  0  0  0  0  0  0  0  0  0  0  0
  144.4540   72.9100  219.9580 C   0  0  0  0  0  0  0  0  0  0  0  0
  143.5170   71.9460  220.4210 C   0  0  0  0  0  0  0  0  0  0  0  0
  142.2540   72.3380  220.8980 C   0  0  0  0  0  0  0  0  0  0  0  0
  141.9530   73.6960  220.9000 C   0  0  0  0  0  0  0  0  0  0  0  0
  140.8160   74.3600  221.3070 C   0  0  0  0  0  0  0  0  0  0  0  0
  141.0870   75.7080  221.0730 C   0  0  0  0  0  0  0  0  0  0  0  0
  140.1670   76.8190  221.3730 C   0  0  0  0  0  0  0  0  0  0  0  0
  139.0270   76.5680  221.8500 O   0  0  0  0  0  0  0  0  0  0  0  0
  140.5650   78.1830  221.1840 N   0  0  0  0  0  0  0  0  0  0  0  0
  140.4520   78.8950  219.9130 C   0  0  0  0  0  0  0  0  0  0  0  0
  140.9200   80.3640  220.2080 C   0  0  1  0  0  0  0  0  0  0  0  0
  141.9750   80.8400  219.2220 C   0  0  0  0  0  0  0  0  0  0  0  0
  141.1460   81.4180  218.0930 C   0  0  0  0  0  0  0  0  0  0  0  0
  139.9200   81.9840  218.6900 N   0  0  0  0  0  0  0  0  0  0  0  0
  138.7240   81.7610  217.8430 C   0  0  2  0  0  0  0  0  0  0  0  0
  137.8480   83.0010  217.7570 C   0  0  0  0  0  0  0  0  0  0  0  0
  136.4480   82.4580  217.5440 C   0  0  0  0  0  0  0  0  0  0  0  0
  136.4040   81.1060  218.1100 N   0  0  0  0  0  0  0  0  0  0  0  0
  137.7790   80.7220  218.4500 C   0  0  0  0  0  0  0  0  0  0  0  0
  139.7860   81.3830  220.0340 C   0  0  0  0  0  0  0  0  0  0  0  0
  141.4160   80.2810  221.6260 C   0  0  0  0  0  0  0  0  0  0  0  0
  142.0300   81.2750  222.3980 C   0  0  0  0  0  0  0  0  0  0  0  0
  142.4390   80.9590  223.7010 C   0  0  0  0  0  0  0  0  0  0  0  0
  142.2400   79.6630  224.2110 C   0  0  0  0  0  0  0  0  0  0  0  0
  141.6180   78.6820  223.4240 C   0  0  0  0  0  0  0  0  0  0  0  0
  141.1920   79.0280  222.1370 C   0  0  0  0  0  0  0  0  0  0  0  0
  142.3300   75.8710  220.5600 N   0  0  0  0  0  0  0  0  0  0  0  0
  142.8450   74.6340  220.4560 C   0  0  0  0  0  0  0  0  0  0  0  0
  144.1050   74.2810  219.9790 C   0  0  0  0  0  0  0  0  0  0  0  0
  146.8070   73.9550  218.2590 H   0  0  0  0  0  0  0  0  0  0  0  0
  143.7840   70.8790  220.4058 H   0  0  0  0  0  0  0  0  0  0  0  0
  141.5273   71.5948  221.2580 H   0  0  0  0  0  0  0  0  0  0  0  0
  139.8969   73.9230  221.7246 H   0  0  0  0  0  0  0  0  0  0  0  0
  141.0993   78.4310  219.1542 H   0  0  0  0  0  0  0  0  0  0  0  0
  139.4247   78.8665  219.5208 H   0  0  0  0  0  0  0  0  0  0  0  0
  142.6202   81.6084  219.6729 H   0  0  0  0  0  0  0  0  0  0  0  0
  142.6569   80.0409  218.8956 H   0  0  0  0  0  0  0  0  0  0  0  0
  141.7120   82.2076  217.5771 H   0  0  0  0  0  0  0  0  0  0  0  0
  140.8959   80.6396  217.3571 H   0  0  0  0  0  0  0  0  0  0  0  0
  139.1368   81.4550  216.8704 H   0  0  0  0  0  0  0  0  0  0  0  0
  137.9027   83.5820  218.6895 H   0  0  0  0  0  0  0  0  0  0  0  0
  138.1615   83.6815  216.9516 H   0  0  0  0  0  0  0  0  0  0  0  0
  135.7151   83.1013  218.0529 H   0  0  0  0  0  0  0  0  0  0  0  0
  136.2022   82.4354  216.4721 H   0  0  0  0  0  0  0  0  0  0  0  0
  136.0060   80.4380  217.4100 H   0  0  0  0  0  0  0  0  0  0  0  0
  135.8070   81.0960  218.9700 H   0  0  0  0  0  0  0  0  0  0  0  0
  137.9010   80.6999  219.5430 H   0  0  0  0  0  0  0  0  0  0  0  0
  138.0055   79.7214  218.0531 H   0  0  0  0  0  0  0  0  0  0  0  0
  139.8648   82.1654  220.8032 H   0  0  0  0  0  0  0  0  0  0  0  0
  138.8079   80.8906  220.1387 H   0  0  0  0  0  0  0  0  0  0  0  0
  142.1883   82.2841  221.9898 H   0  0  0  0  0  0  0  0  0  0  0  0
  142.9171   81.7269  224.3269 H   0  0  0  0  0  0  0  0  0  0  0  0
  142.5732   79.4179  225.2303 H   0  0  0  0  0  0  0  0  0  0  0  0
  141.4685   77.6630  223.8104 H   0  0  0  0  0  0  0  0  0  0  0  0
  142.8050   76.7680  220.3130 H   0  0  0  0  0  0  0  0  0  0  0  0
  144.8106   75.0483  219.6277 H   0  0  0  0  0  0  0  0  0  0  0  0
  1  2  1  0
  2  3  2  0
  2  4  1  0
  4  5  2  0
  5  6  1  0
  6  7  2  0
  7  8  1  0
  8  9  2  0
  9 10  1  0
 10 11  2  0
 10 12  1  0
 12 13  1  0
 14 13  1  6
 14 15  1  0
 15 16  1  0
 16 17  1  0
 17 18  1  0
 18 19  1  0
 19 20  1  0
 20 21  1  0
 21 22  1  0
 17 23  1  0
 14 24  1  0
 24 25  2  0
 25 26  1  0
 26 27  2  0
 27 28  1  0
 28 29  2  0
  9 30  1  0
 30 31  1  0
 31 32  2  0
 32  4  1  0
 31  7  1  0
 29 12  1  0
 23 14  1  0
 29 24  1  0
 22 18  1  0
  1 33  1  0
  5 34  1  0
  6 35  1  0
  8 36  1  0
 13 37  1  0
 13 38  1  0
 15 39  1  0
 15 40  1  0
 16 41  1  0
 16 42  1  0
 18 43  1  6
 19 44  1  0
 19 45  1  0
 20 46  1  0
 20 47  1  0
 21 48  1  0
 21 49  1  0
 22 50  1  0
 22 51  1  0
 23 52  1  0
 23 53  1  0
 25 54  1  0
 26 55  1  0
 27 56  1  0
 28 57  1  0
 30 58  1  0
 32 59  1  0
M  CHG  2   1  -1  21   1
M  END
>  <meeko>  (10) 
{"free_energy": -8.12, "intermolecular_energy": -9.61, "internal_energy": -0.98, "cluster_size": 2, "cluster_id": 4, "rank_in_cluster": 2}

$$$$

     RDKit          3D

 59 64  0  0  0  0  0  0  0  0999 V2000
  146.6510   69.7340  217.9710 N   0  0  0  0  0  0  0  0  0  0  0  0
  145.7970   69.7700  219.1130 C   0  0  0  0  0  0  0  0  0  0  0  0
  145.5590   68.7000  219.7350 O   0  0  0  0  0  0  0  0  0  0  0  0
  145.1960   71.0470  219.5630 C   0  0  0  0  0  0  0  0  0  0  0  0
  146.0040   72.2060  219.7160 C   0  0  0  0  0  0  0  0  0  0  0  0
  145.4450   73.4240  220.1430 C   0  0  0  0  0  0  0  0  0  0  0  0
  144.0800   73.4550  220.4100 C   0  0  0  0  0  0  0  0  0  0  0  0
  143.2730   74.4900  220.8300 C   0  0  0  0  0  0  0  0  0  0  0  0
  142.0000   73.9320  220.9310 C   0  0  0  0  0  0  0  0  0  0  0  0
  140.7850   74.6660  221.3280 C   0  0  0  0  0  0  0  0  0  0  0  0
  139.9240   74.0920  222.0480 O   0  0  0  0  0  0  0  0  0  0  0  0
  140.5900   76.0360  220.9550 N   0  0  0  0  0  0  0  0  0  0  0  0
  141.3810   76.7220  219.9370 C   0  0  0  0  0  0  0  0  0  0  0  0
  140.7560   78.1570  219.8120 C   0  0  1  0  0  0  0  0  0  0  0  0
  141.8050   79.2530  219.9200 C   0  0  0  0  0  0  0  0  0  0  0  0
  142.2680   79.4180  218.4860 C   0  0  0  0  0  0  0  0  0  0  0  0
  141.1110   79.1400  217.6140 N   0  0  0  0  0  0  0  0  0  0  0  0
  141.4950   78.4070  216.3830 C   0  0  2  0  0  0  0  0  0  0  0  0
  142.6840   77.4890  216.6140 C   0  0  0  0  0  0  0  0  0  0  0  0
  143.3730   77.4190  215.2640 C   0  0  0  0  0  0  0  0  0  0  0  0
  143.0450   78.6480  214.5340 N   0  0  0  0  0  0  0  0  0  0  0  0
  142.0040   79.3510  215.2910 C   0  0  0  0  0  0  0  0  0  0  0  0
  140.1280   78.4010  218.4330 C   0  0  0  0  0  0  0  0  0  0  0  0
  139.7450   78.1820  220.9250 C   0  0  0  0  0  0  0  0  0  0  0  0
  138.9360   79.2430  221.3490 C   0  0  0  0  0  0  0  0  0  0  0  0
  138.0770   79.0410  222.4390 C   0  0  0  0  0  0  0  0  0  0  0  0
  138.0430   77.7970  223.0930 C   0  0  0  0  0  0  0  0  0  0  0  0
  138.8570   76.7440  222.6500 C   0  0  0  0  0  0  0  0  0  0  0  0
  139.6850   76.9580  221.5420 C   0  0  0  0  0  0  0  0  0  0  0  0
  142.0140   72.6240  220.5780 N   0  0  0  0  0  0  0  0  0  0  0  0
  143.2910   72.3460  220.2670 C   0  0  0  0  0  0  0  0  0  0  0  0
  143.8110   71.1250  219.8450 C   0  0  0  0  0  0  0  0  0  0  0  0
  147.6860   69.6480  218.0760 H   0  0  0  0  0  0  0  0  0  0  0  0
  147.0806   72.1498  219.4976 H   0  0  0  0  0  0  0  0  0  0  0  0
  146.0672   74.3233  220.2620 H   0  0  0  0  0  0  0  0  0  0  0  0
  143.5687   75.5286  221.0395 H   0  0  0  0  0  0  0  0  0  0  0  0
  142.4339   76.7877  220.2486 H   0  0  0  0  0  0  0  0  0  0  0  0
  141.3624   76.1851  218.9771 H   0  0  0  0  0  0  0  0  0  0  0  0
  141.3656   80.1854  220.3042 H   0  0  0  0  0  0  0  0  0  0  0  0
  142.6211   79.0074  220.6154 H   0  0  0  0  0  0  0  0  0  0  0  0
  142.6242   80.4457  218.3218 H   0  0  0  0  0  0  0  0  0  0  0  0
  143.0963   78.7292  218.2636 H   0  0  0  0  0  0  0  0  0  0  0  0
  140.5812   77.8659  216.0964 H   0  0  0  0  0  0  0  0  0  0  0  0
  143.3587   77.9094  217.3743 H   0  0  0  0  0  0  0  0  0  0  0  0
  142.3833   76.4976  216.9837 H   0  0  0  0  0  0  0  0  0  0  0  0
  144.4617   77.3441  215.4021 H   0  0  0  0  0  0  0  0  0  0  0  0
  143.0350   76.5350  214.7034 H   0  0  0  0  0  0  0  0  0  0  0  0
  142.6960   78.4110  213.5750 H   0  0  0  0  0  0  0  0  0  0  0  0
  143.8960   79.2530  214.4480 H   0  0  0  0  0  0  0  0  0  0  0  0
  142.4238   80.2591  215.7483 H   0  0  0  0  0  0  0  0  0  0  0  0
  141.1795   79.6450  214.6249 H   0  0  0  0  0  0  0  0  0  0  0  0
  139.2083   78.9949  218.5403 H   0  0  0  0  0  0  0  0  0  0  0  0
  139.8694   77.4452  217.9538 H   0  0  0  0  0  0  0  0  0  0  0  0
  138.9734   80.2160  220.8372 H   0  0  0  0  0  0  0  0  0  0  0  0
  137.4273   79.8591  222.7835 H   0  0  0  0  0  0  0  0  0  0  0  0
  137.3759   77.6489  223.9550 H   0  0  0  0  0  0  0  0  0  0  0  0
  138.8448   75.7708  223.1625 H   0  0  0  0  0  0  0  0  0  0  0  0
  141.2030   71.9670  220.5340 H   0  0  0  0  0  0  0  0  0  0  0  0
  143.1621   70.2438  219.7337 H   0  0  0  0  0  0  0  0  0  0  0  0
  1  2  1  0
  2  3  2  0
  2  4  1  0
  4  5  2  0
  5  6  1  0
  6  7  2  0
  7  8  1  0
  8  9  2  0
  9 10  1  0
 10 11  2  0
 10 12  1  0
 12 13  1  0
 14 13  1  6
 14 15  1  0
 15 16  1  0
 16 17  1  0
 17 18  1  0
 18 19  1  0
 19 20  1  0
 20 21  1  0
 21 22  1  0
 17 23  1  0
 14 24  1  0
 24 25  2  0
 25 26  1  0
 26 27  2  0
 27 28  1  0
 28 29  2  0
  9 30  1  0
 30 31  1  0
 31 32  2  0
 32  4  1  0
 31  7  1  0
 29 12  1  0
 23 14  1  0
 29 24  1  0
 22 18  1  0
  1 33  1  0
  5 34  1  0
  6 35  1  0
  8 36  1  0
 13 37  1  0
 13 38  1  0
 15 39  1  0
 15 40  1  0
 16 41  1  0
 16 42  1  0
 18 43  1  6
 19 44  1  0
 19 45  1  0
 20 46  1  0
 20 47  1  0
 21 48  1  0
 21 49  1  0
 22 50  1  0
 22 51  1  0
 23 52  1  0
 23 53  1  0
 25 54  1  0
 26 55  1  0
 27 56  1  0
 28 57  1  0
 30 58  1  0
 32 59  1  0
M  CHG  2   1  -1  21   1
M  END
>  <meeko>  (11) 
{"free_energy": -8.67, "intermolecular_energy": -10.16, "internal_energy": -0.97, "cluster_size": 1, "cluster_id": 2, "rank_in_cluster": 1}

$$$$

     RDKit          3D

 59 64  0  0  0  0  0  0  0  0999 V2000
  146.3250   70.9610  219.3410 N   0  0  0  0  0  0  0  0  0  0  0  0
  145.5570   71.6180  218.3360 C   0  0  0  0  0  0  0  0  0  0  0  0
  145.6890   71.2650  217.1330 O   0  0  0  0  0  0  0  0  0  0  0  0
  144.6160   72.7040  218.6970 C   0  0  0  0  0  0  0  0  0  0  0  0
  144.6150   73.9240  217.9690 C   0  0  0  0  0  0  0  0  0  0  0  0
  143.7260   74.9620  218.3010 C   0  0  0  0  0  0  0  0  0  0  0  0
  142.8520   74.7550  219.3640 C   0  0  0  0  0  0  0  0  0  0  0  0
  141.8860   75.5760  219.9010 C   0  0  0  0  0  0  0  0  0  0  0  0
  141.3320   74.8400  220.9470 C   0  0  0  0  0  0  0  0  0  0  0  0
  140.2320   75.2980  221.8140 C   0  0  0  0  0  0  0  0  0  0  0  0
  139.5810   74.4540  222.4860 O   0  0  0  0  0  0  0  0  0  0  0  0
  139.9250   76.6920  221.9480 N   0  0  0  0  0  0  0  0  0  0  0  0
  140.9100   77.7600  221.7970 C   0  0  0  0  0  0  0  0  0  0  0  0
  140.1050   79.1010  221.9390 C   0  0  1  0  0  0  0  0  0  0  0  0
  140.7330   80.0430  222.9540 C   0  0  0  0  0  0  0  0  0  0  0  0
  141.7270   80.8240  222.1190 C   0  0  0  0  0  0  0  0  0  0  0  0
  141.1590   80.9520  220.7620 N   0  0  0  0  0  0  0  0  0  0  0  0
  142.1930   80.8360  219.7040 C   0  0  2  0  0  0  0  0  0  0  0  0
  141.9980   81.8670  218.6030 C   0  0  0  0  0  0  0  0  0  0  0  0
  142.5680   81.2050  217.3630 C   0  0  0  0  0  0  0  0  0  0  0  0
  142.4770   79.7530  217.5530 N   0  0  0  0  0  0  0  0  0  0  0  0
  142.0900   79.5110  218.9470 C   0  0  0  0  0  0  0  0  0  0  0  0
  140.1060   79.9220  220.6430 C   0  0  0  0  0  0  0  0  0  0  0  0
  138.7300   78.6280  222.3280 C   0  0  0  0  0  0  0  0  0  0  0  0
  137.6070   79.3910  222.6700 C   0  0  0  0  0  0  0  0  0  0  0  0
  136.4260   78.7260  223.0290 C   0  0  0  0  0  0  0  0  0  0  0  0
  136.3820   77.3200  223.0520 C   0  0  0  0  0  0  0  0  0  0  0  0
  137.5170   76.5730  222.7010 C   0  0  0  0  0  0  0  0  0  0  0  0
  138.6770   77.2580  222.3180 C   0  0  0  0  0  0  0  0  0  0  0  0
  141.9140   73.6200  221.0430 N   0  0  0  0  0  0  0  0  0  0  0  0
  142.8440   73.5850  220.0740 C   0  0  0  0  0  0  0  0  0  0  0  0
  143.7090   72.5360  219.7700 C   0  0  0  0  0  0  0  0  0  0  0  0
  146.2980   71.2820  220.3350 H   0  0  0  0  0  0  0  0  0  0  0  0
  145.3190   74.0586  217.1345 H   0  0  0  0  0  0  0  0  0  0  0  0
  143.7216   75.9072  217.7384 H   0  0  0  0  0  0  0  0  0  0  0  0
  141.6116   76.5904  219.5758 H   0  0  0  0  0  0  0  0  0  0  0  0
  141.6775   77.6881  222.5817 H   0  0  0  0  0  0  0  0  0  0  0  0
  141.4313   77.6989  220.8303 H   0  0  0  0  0  0  0  0  0  0  0  0
  139.9776   80.7092  223.3963 H   0  0  0  0  0  0  0  0  0  0  0  0
  141.1951   79.5205  223.8046 H   0  0  0  0  0  0  0  0  0  0  0  0
  141.8843   81.8210  222.5564 H   0  0  0  0  0  0  0  0  0  0  0  0
  142.6978   80.3077  222.0868 H   0  0  0  0  0  0  0  0  0  0  0  0
  143.1444   80.9536  220.2434 H   0  0  0  0  0  0  0  0  0  0  0  0
  140.9304   82.0946  218.4672 H   0  0  0  0  0  0  0  0  0  0  0  0
  142.4900   82.8239  218.8319 H   0  0  0  0  0  0  0  0  0  0  0  0
  141.9878   81.5044  216.4777 H   0  0  0  0  0  0  0  0  0  0  0  0
  143.6137   81.5094  217.2089 H   0  0  0  0  0  0  0  0  0  0  0  0
  143.4040   79.3080  217.3540 H   0  0  0  0  0  0  0  0  0  0  0  0
  141.7590   79.3510  216.9060 H   0  0  0  0  0  0  0  0  0  0  0  0
  141.0562   79.1374  218.9878 H   0  0  0  0  0  0  0  0  0  0  0  0
  142.7517   78.7591  219.4018 H   0  0  0  0  0  0  0  0  0  0  0  0
  139.1264   80.4026  220.5037 H   0  0  0  0  0  0  0  0  0  0  0  0
  140.2998   79.2725  219.7767 H   0  0  0  0  0  0  0  0  0  0  0  0
  137.6504   80.4901  222.6573 H   0  0  0  0  0  0  0  0  0  0  0  0
  135.5298   79.3062  223.2939 H   0  0  0  0  0  0  0  0  0  0  0  0
  135.4556   76.8049  223.3459 H   0  0  0  0  0  0  0  0  0  0  0  0
  137.4960   75.4735  222.7262 H   0  0  0  0  0  0  0  0  0  0  0  0
  141.6830   72.8540  221.7150 H   0  0  0  0  0  0  0  0  0  0  0  0
  143.6874   71.6011  220.3493 H   0  0  0  0  0  0  0  0  0  0  0  0
  1  2  1  0
  2  3  2  0
  2  4  1  0
  4  5  2  0
  5  6  1  0
  6  7  2  0
  7  8  1  0
  8  9  2  0
  9 10  1  0
 10 11  2  0
 10 12  1  0
 12 13  1  0
 14 13  1  6
 14 15  1  0
 15 16  1  0
 16 17  1  0
 17 18  1  0
 18 19  1  0
 19 20  1  0
 20 21  1  0
 21 22  1  0
 17 23  1  0
 14 24  1  0
 24 25  2  0
 25 26  1  0
 26 27  2  0
 27 28  1  0
 28 29  2  0
  9 30  1  0
 30 31  1  0
 31 32  2  0
 32  4  1  0
 31  7  1  0
 29 12  1  0
 23 14  1  0
 29 24  1  0
 22 18  1  0
  1 33  1  0
  5 34  1  0
  6 35  1  0
  8 36  1  0
 13 37  1  0
 13 38  1  0
 15 39  1  0
 15 40  1  0
 16 41  1  0
 16 42  1  0
 18 43  1  1
 19 44  1  0
 19 45  1  0
 20 46  1  0
 20 47  1  0
 21 48  1  0
 21 49  1  0
 22 50  1  0
 22 51  1  0
 23 52  1  0
 23 53  1  0
 25 54  1  0
 26 55  1  0
 27 56  1  0
 28 57  1  0
 30 58  1  0
 32 59  1  0
M  CHG  2   1  -1  21   1
M  END
>  <meeko>  (12) 
{"free_energy": -8.31, "intermolecular_energy": -9.8, "internal_energy": -1.0, "cluster_size": 4, "cluster_id": 1, "rank_in_cluster": 4}

$$$$

     RDKit          3D

 59 64  0  0  0  0  0  0  0  0999 V2000
  146.3120   73.0170  218.7580 N   0  0  0  0  0  0  0  0  0  0  0  0
  145.8560   73.2130  220.0950 C   0  0  0  0  0  0  0  0  0  0  0  0
  146.7010   73.3990  221.0110 O   0  0  0  0  0  0  0  0  0  0  0  0
  144.4070   73.1990  220.4060 C   0  0  0  0  0  0  0  0  0  0  0  0
  143.6730   71.9840  220.3470 C   0  0  0  0  0  0  0  0  0  0  0  0
  142.2980   71.9570  220.6410 C   0  0  0  0  0  0  0  0  0  0  0  0
  141.6830   73.1560  220.9890 C   0  0  0  0  0  0  0  0  0  0  0  0
  140.3750   73.4270  221.3260 C   0  0  0  0  0  0  0  0  0  0  0  0
  140.3460   74.7990  221.5720 C   0  0  0  0  0  0  0  0  0  0  0  0
  139.1540   75.5570  221.9910 C   0  0  0  0  0  0  0  0  0  0  0  0
  138.0950   74.9370  222.2790 O   0  0  0  0  0  0  0  0  0  0  0  0
  139.1940   76.9830  222.1300 N   0  0  0  0  0  0  0  0  0  0  0  0
  140.3900   77.7900  221.9000 C   0  0  0  0  0  0  0  0  0  0  0  0
  139.9350   79.2820  222.0810 C   0  0  1  0  0  0  0  0  0  0  0  0
  140.8350   80.0450  223.0410 C   0  0  0  0  0  0  0  0  0  0  0  0
  141.9250   80.5740  222.1310 C   0  0  0  0  0  0  0  0  0  0  0  0
  141.3120   80.8380  220.8150 N   0  0  0  0  0  0  0  0  0  0  0  0
  142.2140   80.4870  219.6900 C   0  0  2  0  0  0  0  0  0  0  0  0
  142.0660   81.4470  218.5200 C   0  0  0  0  0  0  0  0  0  0  0  0
  142.4160   80.6130  217.3030 C   0  0  0  0  0  0  0  0  0  0  0  0
  142.1380   79.2110  217.6300 N   0  0  0  0  0  0  0  0  0  0  0  0
  141.8540   79.1380  219.0670 C   0  0  0  0  0  0  0  0  0  0  0  0
  140.0410   80.0860  220.7790 C   0  0  0  0  0  0  0  0  0  0  0  0
  138.5180   79.1450  222.5680 C   0  0  0  0  0  0  0  0  0  0  0  0
  137.6320   80.1490  222.9760 C   0  0  0  0  0  0  0  0  0  0  0  0
  136.3550   79.7800  223.4220 C   0  0  0  0  0  0  0  0  0  0  0  0
  135.9830   78.4240  223.4630 C   0  0  0  0  0  0  0  0  0  0  0  0
  136.8830   77.4320  223.0450 C   0  0  0  0  0  0  0  0  0  0  0  0
  138.1420   77.8260  222.5760 C   0  0  0  0  0  0  0  0  0  0  0  0
  141.5740   75.3470  221.4090 N   0  0  0  0  0  0  0  0  0  0  0  0
  142.3790   74.3330  221.0480 C   0  0  0  0  0  0  0  0  0  0  0  0
  143.7420   74.3950  220.7660 C   0  0  0  0  0  0  0  0  0  0  0  0
  146.7440   73.7990  218.2170 H   0  0  0  0  0  0  0  0  0  0  0  0
  144.1868   71.0523  220.0677 H   0  0  0  0  0  0  0  0  0  0  0  0
  141.7267   71.0180  220.5973 H   0  0  0  0  0  0  0  0  0  0  0  0
  139.5373   72.7167  221.3875 H   0  0  0  0  0  0  0  0  0  0  0  0
  141.1712   77.5355  222.6314 H   0  0  0  0  0  0  0  0  0  0  0  0
  140.8143   77.6126  220.9008 H   0  0  0  0  0  0  0  0  0  0  0  0
  140.2896   80.8681  223.5259 H   0  0  0  0  0  0  0  0  0  0  0  0
  141.2184   79.4246  223.8645 H   0  0  0  0  0  0  0  0  0  0  0  0
  142.3418   81.5040  222.5449 H   0  0  0  0  0  0  0  0  0  0  0  0
  142.7424   79.8437  222.0391 H   0  0  0  0  0  0  0  0  0  0  0  0
  143.2188   80.5025  220.1374 H   0  0  0  0  0  0  0  0  0  0  0  0
  141.0340   81.8216  218.4517 H   0  0  0  0  0  0  0  0  0  0  0  0
  142.7093   82.3336  218.6205 H   0  0  0  0  0  0  0  0  0  0  0  0
  141.8032   80.9264  216.4449 H   0  0  0  0  0  0  0  0  0  0  0  0
  143.4752   80.7444  217.0369 H   0  0  0  0  0  0  0  0  0  0  0  0
  142.9690   78.6180  217.3970 H   0  0  0  0  0  0  0  0  0  0  0  0
  141.3120   78.8710  217.0830 H   0  0  0  0  0  0  0  0  0  0  0  0
  140.7863   78.9266  219.2260 H   0  0  0  0  0  0  0  0  0  0  0  0
  142.4427   78.3336  219.5320 H   0  0  0  0  0  0  0  0  0  0  0  0
  139.1949   80.7846  220.7007 H   0  0  0  0  0  0  0  0  0  0  0  0
  140.0170   79.4134  219.9090 H   0  0  0  0  0  0  0  0  0  0  0  0
  137.9318   81.2070  222.9473 H   0  0  0  0  0  0  0  0  0  0  0  0
  135.6413   80.5538  223.7411 H   0  0  0  0  0  0  0  0  0  0  0  0
  134.9833   78.1404  223.8239 H   0  0  0  0  0  0  0  0  0  0  0  0
  136.6056   76.3683  223.0849 H   0  0  0  0  0  0  0  0  0  0  0  0
  141.8520   76.3440  221.5510 H   0  0  0  0  0  0  0  0  0  0  0  0
  144.2870   75.3489  220.8218 H   0  0  0  0  0  0  0  0  0  0  0  0
  1  2  1  0
  2  3  2  0
  2  4  1  0
  4  5  2  0
  5  6  1  0
  6  7  2  0
  7  8  1  0
  8  9  2  0
  9 10  1  0
 10 11  2  0
 10 12  1  0
 12 13  1  0
 14 13  1  6
 14 15  1  0
 15 16  1  0
 16 17  1  0
 17 18  1  0
 18 19  1  0
 19 20  1  0
 20 21  1  0
 21 22  1  0
 17 23  1  0
 14 24  1  0
 24 25  2  0
 25 26  1  0
 26 27  2  0
 27 28  1  0
 28 29  2  0
  9 30  1  0
 30 31  1  0
 31 32  2  0
 32  4  1  0
 31  7  1  0
 29 12  1  0
 23 14  1  0
 29 24  1  0
 22 18  1  0
  1 33  1  0
  5 34  1  0
  6 35  1  0
  8 36  1  0
 13 37  1  0
 13 38  1  0
 15 39  1  0
 15 40  1  0
 16 41  1  0
 16 42  1  0
 18 43  1  1
 19 44  1  0
 19 45  1  0
 20 46  1  0
 20 47  1  0
 21 48  1  0
 21 49  1  0
 22 50  1  0
 22 51  1  0
 23 52  1  0
 23 53  1  0
 25 54  1  0
 26 55  1  0
 27 56  1  0
 28 57  1  0
 30 58  1  0
 32 59  1  0
M  CHG  2   1  -1  21   1
M  END
>  <meeko>  (13) 
{"free_energy": -9.11, "intermolecular_energy": -10.6, "internal_energy": -0.67, "cluster_size": 4, "cluster_id": 1, "rank_in_cluster": 1}

$$$$

     RDKit          3D

 59 64  0  0  0  0  0  0  0  0999 V2000
  146.3070   72.6550  219.1180 N   0  0  0  0  0  0  0  0  0  0  0  0
  145.8210   73.2240  220.3320 C   0  0  0  0  0  0  0  0  0  0  0  0
  146.5470   73.1900  221.3610 O   0  0  0  0  0  0  0  0  0  0  0  0
  144.4780   73.8480  220.3860 C   0  0  0  0  0  0  0  0  0  0  0  0
  143.3430   73.0770  220.7590 C   0  0  0  0  0  0  0  0  0  0  0  0
  142.0640   73.6570  220.8140 C   0  0  0  0  0  0  0  0  0  0  0  0
  141.9460   75.0050  220.4920 C   0  0  0  0  0  0  0  0  0  0  0  0
  140.8390   75.8250  220.4640 C   0  0  0  0  0  0  0  0  0  0  0  0
  141.3270   77.0690  220.0670 C   0  0  0  0  0  0  0  0  0  0  0  0
  140.5110   78.2870  219.9130 C   0  0  0  0  0  0  0  0  0  0  0  0
  140.0080   78.5570  218.7890 O   0  0  0  0  0  0  0  0  0  0  0  0
  140.2360   79.1410  221.0300 N   0  0  0  0  0  0  0  0  0  0  0  0
  138.9120   79.6790  221.3380 C   0  0  0  0  0  0  0  0  0  0  0  0
  139.0800   80.4720  222.6820 C   0  0  1  0  0  0  0  0  0  0  0  0
  138.5190   81.8830  222.5910 C   0  0  0  0  0  0  0  0  0  0  0  0
  137.0670   81.6940  222.9780 C   0  0  0  0  0  0  0  0  0  0  0  0
  137.0120   80.5920  223.9590 N   0  0  0  0  0  0  0  0  0  0  0  0
  135.8210   79.7280  223.7720 C   0  0  2  0  0  0  0  0  0  0  0  0
  136.1630   78.4350  223.0480 C   0  0  0  0  0  0  0  0  0  0  0  0
  134.8870   78.0640  222.3160 C   0  0  0  0  0  0  0  0  0  0  0  0
  134.1330   79.3010  222.0830 N   0  0  0  0  0  0  0  0  0  0  0  0
  134.7880   80.3710  222.8440 C   0  0  0  0  0  0  0  0  0  0  0  0
  138.2810   79.8460  223.8320 C   0  0  0  0  0  0  0  0  0  0  0  0
  140.5660   80.4300  222.9150 C   0  0  0  0  0  0  0  0  0  0  0  0
  141.3110   81.0480  223.9270 C   0  0  0  0  0  0  0  0  0  0  0  0
  142.7050   80.8900  223.9280 C   0  0  0  0  0  0  0  0  0  0  0  0
  143.3330   80.1320  222.9240 C   0  0  0  0  0  0  0  0  0  0  0  0
  142.5690   79.5170  221.9210 C   0  0  0  0  0  0  0  0  0  0  0  0
  141.1770   79.6640  221.9560 C   0  0  0  0  0  0  0  0  0  0  0  0
  142.6670   77.0250  219.8720 N   0  0  0  0  0  0  0  0  0  0  0  0
  143.0300   75.7580  220.1300 C   0  0  0  0  0  0  0  0  0  0  0  0
  144.3110   75.2160  220.0670 C   0  0  0  0  0  0  0  0  0  0  0  0
  146.6650   71.6740  219.0900 H   0  0  0  0  0  0  0  0  0  0  0  0
  143.4676   72.0128  221.0078 H   0  0  0  0  0  0  0  0  0  0  0  0
  141.1839   73.0635  221.1026 H   0  0  0  0  0  0  0  0  0  0  0  0
  139.7991   75.5570  220.7024 H   0  0  0  0  0  0  0  0  0  0  0  0
  138.5746   80.3512  220.5353 H   0  0  0  0  0  0  0  0  0  0  0  0
  138.1597   78.8815  221.4276 H   0  0  0  0  0  0  0  0  0  0  0  0
  139.0309   82.5586  223.2920 H   0  0  0  0  0  0  0  0  0  0  0  0
  138.6487   82.3394  221.5986 H   0  0  0  0  0  0  0  0  0  0  0  0
  136.6743   82.6179  223.4278 H   0  0  0  0  0  0  0  0  0  0  0  0
  136.4567   81.4580  222.0938 H   0  0  0  0  0  0  0  0  0  0  0  0
  135.4445   79.5652  224.7927 H   0  0  0  0  0  0  0  0  0  0  0  0
  136.9876   78.5931  222.3373 H   0  0  0  0  0  0  0  0  0  0  0  0
  136.4967   77.6445  223.7363 H   0  0  0  0  0  0  0  0  0  0  0  0
  135.1309   77.5869  221.3553 H   0  0  0  0  0  0  0  0  0  0  0  0
  134.2923   77.3556  222.9114 H   0  0  0  0  0  0  0  0  0  0  0  0
  133.1440   79.1820  222.4060 H   0  0  0  0  0  0  0  0  0  0  0  0
  134.1340   79.5340  221.0620 H   0  0  0  0  0  0  0  0  0  0  0  0
  135.2879   81.0671  222.1545 H   0  0  0  0  0  0  0  0  0  0  0  0
  134.0454   80.9325  223.4299 H   0  0  0  0  0  0  0  0  0  0  0  0
  138.8534   79.9191  224.7685 H   0  0  0  0  0  0  0  0  0  0  0  0
  138.0832   78.7833  223.6284 H   0  0  0  0  0  0  0  0  0  0  0  0
  140.8133   81.6451  224.7053 H   0  0  0  0  0  0  0  0  0  0  0  0
  143.3091   81.3610  224.7174 H   0  0  0  0  0  0  0  0  0  0  0  0
  144.4274   80.0208  222.9250 H   0  0  0  0  0  0  0  0  0  0  0  0
  143.0528   78.9323  221.1247 H   0  0  0  0  0  0  0  0  0  0  0  0
  143.2970   77.8120  219.5970 H   0  0  0  0  0  0  0  0  0  0  0  0
  145.1718   75.8362  219.7764 H   0  0  0  0  0  0  0  0  0  0  0  0
  1  2  1  0
  2  3  2  0
  2  4  1  0
  4  5  2  0
  5  6  1  0
  6  7  2  0
  7  8  1  0
  8  9  2  0
  9 10  1  0
 10 11  2  0
 10 12  1  0
 12 13  1  0
 14 13  1  6
 14 15  1  0
 15 16  1  0
 16 17  1  0
 17 18  1  0
 18 19  1  0
 19 20  1  0
 20 21  1  0
 21 22  1  0
 17 23  1  0
 14 24  1  0
 24 25  2  0
 25 26  1  0
 26 27  2  0
 27 28  1  0
 28 29  2  0
  9 30  1  0
 30 31  1  0
 31 32  2  0
 32  4  1  0
 31  7  1  0
 29 12  1  0
 23 14  1  0
 29 24  1  0
 22 18  1  0
  1 33  1  0
  5 34  1  0
  6 35  1  0
  8 36  1  0
 13 37  1  0
 13 38  1  0
 15 39  1  0
 15 40  1  0
 16 41  1  0
 16 42  1  0
 18 43  1  1
 19 44  1  0
 19 45  1  0
 20 46  1  0
 20 47  1  0
 21 48  1  0
 21 49  1  0
 22 50  1  0
 22 51  1  0
 23 52  1  0
 23 53  1  0
 25 54  1  0
 26 55  1  0
 27 56  1  0
 28 57  1  0
 30 58  1  0
 32 59  1  0
M  CHG  2   1  -1  21   1
M  END
>  <meeko>  (14) 
{"free_energy": -8.36, "intermolecular_energy": -9.86, "internal_energy": -1.13, "cluster_size": 11, "cluster_id": 3, "rank_in_cluster": 7}

$$$$

     RDKit          3D

 59 64  0  0  0  0  0  0  0  0999 V2000
  146.3150   73.0400  218.9530 N   0  0  0  0  0  0  0  0  0  0  0  0
  145.7930   73.4040  220.2300 C   0  0  0  0  0  0  0  0  0  0  0  0
  146.5120   73.2510  221.2530 O   0  0  0  0  0  0  0  0  0  0  0  0
  144.4230   73.9550  220.3540 C   0  0  0  0  0  0  0  0  0  0  0  0
  143.3540   73.1260  220.7880 C   0  0  0  0  0  0  0  0  0  0  0  0
  142.0490   73.6370  220.9110 C   0  0  0  0  0  0  0  0  0  0  0  0
  141.8420   74.9750  220.5920 C   0  0  0  0  0  0  0  0  0  0  0  0
  140.6930   75.7350  220.6220 C   0  0  0  0  0  0  0  0  0  0  0  0
  141.0910   77.0010  220.1960 C   0  0  0  0  0  0  0  0  0  0  0  0
  140.2040   78.1720  220.0830 C   0  0  0  0  0  0  0  0  0  0  0  0
  139.5350   78.3430  219.0280 O   0  0  0  0  0  0  0  0  0  0  0  0
  140.0470   79.0910  221.1720 N   0  0  0  0  0  0  0  0  0  0  0  0
  138.7790   79.7260  221.5260 C   0  0  0  0  0  0  0  0  0  0  0  0
  139.0740   80.5660  222.8190 C   0  0  1  0  0  0  0  0  0  0  0  0
  138.5960   82.0040  222.6910 C   0  0  0  0  0  0  0  0  0  0  0  0
  137.1600   81.9260  223.1670 C   0  0  0  0  0  0  0  0  0  0  0  0
  137.0940   80.8750  224.2010 N   0  0  0  0  0  0  0  0  0  0  0  0
  135.8430   80.0810  224.1210 C   0  0  2  0  0  0  0  0  0  0  0  0
  135.9940   78.8690  223.2160 C   0  0  0  0  0  0  0  0  0  0  0  0
  134.5990   78.6310  222.6700 C   0  0  0  0  0  0  0  0  0  0  0  0
  133.8860   79.9130  222.7000 N   0  0  0  0  0  0  0  0  0  0  0  0
  134.7110   80.8640  223.4520 C   0  0  0  0  0  0  0  0  0  0  0  0
  138.3050   80.0440  224.0400 C   0  0  0  0  0  0  0  0  0  0  0  0
  140.5650   80.4390  222.9700 C   0  0  0  0  0  0  0  0  0  0  0  0
  141.4040   81.0520  223.9090 C   0  0  0  0  0  0  0  0  0  0  0  0
  142.7830   80.8060  223.8410 C   0  0  0  0  0  0  0  0  0  0  0  0
  143.3040   79.9650  222.8410 C   0  0  0  0  0  0  0  0  0  0  0  0
  142.4470   79.3560  221.9130 C   0  0  0  0  0  0  0  0  0  0  0  0
  141.0710   79.5930  222.0170 C   0  0  0  0  0  0  0  0  0  0  0  0
  142.4190   77.0280  219.9300 N   0  0  0  0  0  0  0  0  0  0  0  0
  142.8630   75.7830  220.1710 C   0  0  0  0  0  0  0  0  0  0  0  0
  144.1670   75.3110  220.0410 C   0  0  0  0  0  0  0  0  0  0  0  0
  146.7150   73.7600  218.3110 H   0  0  0  0  0  0  0  0  0  0  0  0
  143.5492   72.0711  221.0310 H   0  0  0  0  0  0  0  0  0  0  0  0
  141.2190   72.9989  221.2486 H   0  0  0  0  0  0  0  0  0  0  0  0
  139.6834   75.4132  220.9173 H   0  0  0  0  0  0  0  0  0  0  0  0
  138.4375   80.3819  220.7116 H   0  0  0  0  0  0  0  0  0  0  0  0
  137.9853   78.9835  221.6953 H   0  0  0  0  0  0  0  0  0  0  0  0
  139.1885   82.6764  223.3288 H   0  0  0  0  0  0  0  0  0  0  0  0
  138.6949   82.4059  221.6718 H   0  0  0  0  0  0  0  0  0  0  0  0
  136.8522   82.8923  223.5930 H   0  0  0  0  0  0  0  0  0  0  0  0
  136.4859   81.6904  222.3303 H   0  0  0  0  0  0  0  0  0  0  0  0
  135.6265   79.8146  225.1661 H   0  0  0  0  0  0  0  0  0  0  0  0
  136.7012   79.0781  222.3998 H   0  0  0  0  0  0  0  0  0  0  0  0
  136.3907   77.9931  223.7503 H   0  0  0  0  0  0  0  0  0  0  0  0
  134.6591   78.2594  221.6364 H   0  0  0  0  0  0  0  0  0  0  0  0
  134.0700   77.8805  223.2757 H   0  0  0  0  0  0  0  0  0  0  0  0
  132.9560   79.7930  223.1680 H   0  0  0  0  0  0  0  0  0  0  0  0
  133.7350   80.2630  221.7250 H   0  0  0  0  0  0  0  0  0  0  0  0
  135.1307   81.6164  222.7682 H   0  0  0  0  0  0  0  0  0  0  0  0
  134.1040   81.3813  224.2096 H   0  0  0  0  0  0  0  0  0  0  0  0
  138.9339   80.1211  224.9392 H   0  0  0  0  0  0  0  0  0  0  0  0
  138.0302   78.9884  223.8981 H   0  0  0  0  0  0  0  0  0  0  0  0
  140.9897   81.7132  224.6843 H   0  0  0  0  0  0  0  0  0  0  0  0
  143.4596   81.2723  224.5722 H   0  0  0  0  0  0  0  0  0  0  0  0
  144.3877   79.7844  222.7868 H   0  0  0  0  0  0  0  0  0  0  0  0
  142.8471   78.7063  221.1206 H   0  0  0  0  0  0  0  0  0  0  0  0
  142.9910   77.8460  219.6200 H   0  0  0  0  0  0  0  0  0  0  0  0
  144.9766   75.9750  219.7038 H   0  0  0  0  0  0  0  0  0  0  0  0
  1  2  1  0
  2  3  2  0
  2  4  1  0
  4  5  2  0
  5  6  1  0
  6  7  2  0
  7  8  1  0
  8  9  2  0
  9 10  1  0
 10 11  2  0
 10 12  1  0
 12 13  1  0
 14 13  1  6
 14 15  1  0
 15 16  1  0
 16 17  1  0
 17 18  1  0
 18 19  1  0
 19 20  1  0
 20 21  1  0
 21 22  1  0
 17 23  1  0
 14 24  1  0
 24 25  2  0
 25 26  1  0
 26 27  2  0
 27 28  1  0
 28 29  2  0
  9 30  1  0
 30 31  1  0
 31 32  2  0
 32  4  1  0
 31  7  1  0
 29 12  1  0
 23 14  1  0
 29 24  1  0
 22 18  1  0
  1 33  1  0
  5 34  1  0
  6 35  1  0
  8 36  1  0
 13 37  1  0
 13 38  1  0
 15 39  1  0
 15 40  1  0
 16 41  1  0
 16 42  1  0
 18 43  1  1
 19 44  1  0
 19 45  1  0
 20 46  1  0
 20 47  1  0
 21 48  1  0
 21 49  1  0
 22 50  1  0
 22 51  1  0
 23 52  1  0
 23 53  1  0
 25 54  1  0
 26 55  1  0
 27 56  1  0
 28 57  1  0
 30 58  1  0
 32 59  1  0
M  CHG  2   1  -1  21   1
M  END
>  <meeko>  (15) 
{"free_energy": -8.61, "intermolecular_energy": -10.1, "internal_energy": -1.09, "cluster_size": 11, "cluster_id": 3, "rank_in_cluster": 3}

$$$$

     RDKit          3D

 59 64  0  0  0  0  0  0  0  0999 V2000
  145.9540   72.8420  218.6230 N   0  0  0  0  0  0  0  0  0  0  0  0
  144.7200   72.6770  219.3170 C   0  0  0  0  0  0  0  0  0  0  0  0
  144.3790   71.5250  219.6990 O   0  0  0  0  0  0  0  0  0  0  0  0
  143.8460   73.8430  219.5880 C   0  0  0  0  0  0  0  0  0  0  0  0
  143.9920   75.0380  218.8330 C   0  0  0  0  0  0  0  0  0  0  0  0
  143.1680   76.1510  219.0790 C   0  0  0  0  0  0  0  0  0  0  0  0
  142.2120   76.0430  220.0830 C   0  0  0  0  0  0  0  0  0  0  0  0
  141.2800   76.9530  220.5340 C   0  0  0  0  0  0  0  0  0  0  0  0
  140.6000   76.2920  221.5560 C   0  0  0  0  0  0  0  0  0  0  0  0
  139.4860   76.8600  222.3340 C   0  0  0  0  0  0  0  0  0  0  0  0
  138.5480   76.1070  222.7130 O   0  0  0  0  0  0  0  0  0  0  0  0
  139.4750   78.2420  222.7140 N   0  0  0  0  0  0  0  0  0  0  0  0
  138.2740   79.0740  222.7250 C   0  0  0  0  0  0  0  0  0  0  0  0
  138.7300   80.4670  223.2880 C   0  0  1  0  0  0  0  0  0  0  0  0
  138.2930   81.6180  222.3950 C   0  0  0  0  0  0  0  0  0  0  0  0
  136.9110   81.9480  222.9230 C   0  0  0  0  0  0  0  0  0  0  0  0
  136.9150   81.6730  224.3730 N   0  0  0  0  0  0  0  0  0  0  0  0
  135.6360   81.0870  224.8410 C   0  0  2  0  0  0  0  0  0  0  0  0
  135.3390   79.7560  224.1670 C   0  0  0  0  0  0  0  0  0  0  0  0
  133.8250   79.6740  224.1470 C   0  0  0  0  0  0  0  0  0  0  0  0
  133.3050   81.0450  224.1730 N   0  0  0  0  0  0  0  0  0  0  0  0
  134.4330   81.9430  224.4390 C   0  0  0  0  0  0  0  0  0  0  0  0
  138.0730   80.7940  224.6360 C   0  0  0  0  0  0  0  0  0  0  0  0
  140.2230   80.3180  223.3880 C   0  0  0  0  0  0  0  0  0  0  0  0
  141.1760   81.2760  223.7540 C   0  0  0  0  0  0  0  0  0  0  0  0
  142.5310   80.9140  223.7500 C   0  0  0  0  0  0  0  0  0  0  0  0
  142.9160   79.6150  223.3740 C   0  0  0  0  0  0  0  0  0  0  0  0
  141.9460   78.6670  223.0160 C   0  0  0  0  0  0  0  0  0  0  0  0
  140.5980   79.0410  223.0550 C   0  0  0  0  0  0  0  0  0  0  0  0
  141.0760   75.0350  221.7200 N   0  0  0  0  0  0  0  0  0  0  0  0
  142.0630   74.8990  220.8180 C   0  0  0  0  0  0  0  0  0  0  0  0
  142.8590   73.7770  220.5990 C   0  0  0  0  0  0  0  0  0  0  0  0
  146.4200   73.7750  218.5680 H   0  0  0  0  0  0  0  0  0  0  0  0
  144.7590   75.0933  218.0464 H   0  0  0  0  0  0  0  0  0  0  0  0
  143.2764   77.0773  218.4958 H   0  0  0  0  0  0  0  0  0  0  0  0
  141.1100   77.9763  220.1679 H   0  0  0  0  0  0  0  0  0  0  0  0
  137.8738   79.1840  221.7063 H   0  0  0  0  0  0  0  0  0  0  0  0
  137.4763   78.6289  223.3378 H   0  0  0  0  0  0  0  0  0  0  0  0
  138.9715   82.4778  222.4966 H   0  0  0  0  0  0  0  0  0  0  0  0
  138.3009   81.3653  221.3244 H   0  0  0  0  0  0  0  0  0  0  0  0
  136.6829   83.0088  222.7422 H   0  0  0  0  0  0  0  0  0  0  0  0
  136.1463   81.3420  222.4150 H   0  0  0  0  0  0  0  0  0  0  0  0
  135.7627   81.0020  225.9304 H   0  0  0  0  0  0  0  0  0  0  0  0
  135.7435   79.7386  223.1442 H   0  0  0  0  0  0  0  0  0  0  0  0
  135.7983   78.9069  224.6943 H   0  0  0  0  0  0  0  0  0  0  0  0
  133.4893   79.1631  223.2325 H   0  0  0  0  0  0  0  0  0  0  0  0
  133.4580   79.1057  225.0144 H   0  0  0  0  0  0  0  0  0  0  0  0
  132.5830   81.1390  224.9260 H   0  0  0  0  0  0  0  0  0  0  0  0
  132.8680   81.2810  223.2500 H   0  0  0  0  0  0  0  0  0  0  0  0
  134.6718   82.5203  223.5336 H   0  0  0  0  0  0  0  0  0  0  0  0
  134.1787   82.6465  225.2455 H   0  0  0  0  0  0  0  0  0  0  0  0
  138.7935   81.3094  225.2881 H   0  0  0  0  0  0  0  0  0  0  0  0
  137.7483   79.8712  225.1389 H   0  0  0  0  0  0  0  0  0  0  0  0
  140.8681   82.2928  224.0391 H   0  0  0  0  0  0  0  0  0  0  0  0
  143.2954   81.6491  224.0421 H   0  0  0  0  0  0  0  0  0  0  0  0
  143.9813   79.3412  223.3605 H   0  0  0  0  0  0  0  0  0  0  0  0
  142.2386   77.6514  222.7112 H   0  0  0  0  0  0  0  0  0  0  0  0
  140.7400   74.3080  222.3920 H   0  0  0  0  0  0  0  0  0  0  0  0
  142.7235   72.8635  221.1967 H   0  0  0  0  0  0  0  0  0  0  0  0
  1  2  1  0
  2  3  2  0
  2  4  1  0
  4  5  2  0
  5  6  1  0
  6  7  2  0
  7  8  1  0
  8  9  2  0
  9 10  1  0
 10 11  2  0
 10 12  1  0
 12 13  1  0
 14 13  1  6
 14 15  1  0
 15 16  1  0
 16 17  1  0
 17 18  1  0
 18 19  1  0
 19 20  1  0
 20 21  1  0
 21 22  1  0
 17 23  1  0
 14 24  1  0
 24 25  2  0
 25 26  1  0
 26 27  2  0
 27 28  1  0
 28 29  2  0
  9 30  1  0
 30 31  1  0
 31 32  2  0
 32  4  1  0
 31  7  1  0
 29 12  1  0
 23 14  1  0
 29 24  1  0
 22 18  1  0
  1 33  1  0
  5 34  1  0
  6 35  1  0
  8 36  1  0
 13 37  1  0
 13 38  1  0
 15 39  1  0
 15 40  1  0
 16 41  1  0
 16 42  1  0
 18 43  1  1
 19 44  1  0
 19 45  1  0
 20 46  1  0
 20 47  1  0
 21 48  1  0
 21 49  1  0
 22 50  1  0
 22 51  1  0
 23 52  1  0
 23 53  1  0
 25 54  1  0
 26 55  1  0
 27 56  1  0
 28 57  1  0
 30 58  1  0
 32 59  1  0
M  CHG  2   1  -1  21   1
M  END
>  <meeko>  (16) 
{"free_energy": -8.41, "intermolecular_energy": -9.9, "internal_energy": -1.06, "cluster_size": 11, "cluster_id": 3, "rank_in_cluster": 5}

$$$$

     RDKit          3D

 59 64  0  0  0  0  0  0  0  0999 V2000
  146.2650   73.0230  218.5790 N   0  0  0  0  0  0  0  0  0  0  0  0
  145.0790   72.8020  219.3380 C   0  0  0  0  0  0  0  0  0  0  0  0
  144.8710   71.6620  219.8340 O   0  0  0  0  0  0  0  0  0  0  0  0
  144.1010   73.8960  219.5430 C   0  0  0  0  0  0  0  0  0  0  0  0
  144.0590   74.9980  218.6470 C   0  0  0  0  0  0  0  0  0  0  0  0
  143.1350   76.0420  218.8290 C   0  0  0  0  0  0  0  0  0  0  0  0
  142.2680   75.9610  219.9140 C   0  0  0  0  0  0  0  0  0  0  0  0
  141.2740   76.8190  220.3320 C   0  0  0  0  0  0  0  0  0  0  0  0
  140.7450   76.2230  221.4750 C   0  0  0  0  0  0  0  0  0  0  0  0
  139.6290   76.7650  222.2720 C   0  0  0  0  0  0  0  0  0  0  0  0
  138.7240   75.9870  222.6790 O   0  0  0  0  0  0  0  0  0  0  0  0
  139.5840   78.1500  222.6370 N   0  0  0  0  0  0  0  0  0  0  0  0
  138.3550   78.9380  222.6890 C   0  0  0  0  0  0  0  0  0  0  0  0
  138.7820   80.3530  223.2180 C   0  0  1  0  0  0  0  0  0  0  0  0
  138.2680   81.4770  222.3320 C   0  0  0  0  0  0  0  0  0  0  0  0
  136.8980   81.7630  222.9120 C   0  0  0  0  0  0  0  0  0  0  0  0
  136.9700   81.5060  224.3640 N   0  0  0  0  0  0  0  0  0  0  0  0
  135.7330   80.8790  224.8890 C   0  0  2  0  0  0  0  0  0  0  0  0
  135.2940   79.6910  224.0480 C   0  0  0  0  0  0  0  0  0  0  0  0
  133.7870   79.6500  224.2120 C   0  0  0  0  0  0  0  0  0  0  0  0
  133.3380   81.0090  224.5330 N   0  0  0  0  0  0  0  0  0  0  0  0
  134.5310   81.8210  224.7960 C   0  0  0  0  0  0  0  0  0  0  0  0
  138.1700   80.6720  224.5880 C   0  0  0  0  0  0  0  0  0  0  0  0
  140.2830   80.2590  223.2580 C   0  0  0  0  0  0  0  0  0  0  0  0
  141.2140   81.2550  223.5750 C   0  0  0  0  0  0  0  0  0  0  0  0
  142.5800   80.9420  223.5180 C   0  0  0  0  0  0  0  0  0  0  0  0
  142.9970   79.6530  223.1410 C   0  0  0  0  0  0  0  0  0  0  0  0
  142.0480   78.6670  222.8330 C   0  0  0  0  0  0  0  0  0  0  0  0
  140.6900   78.9920  222.9240 C   0  0  0  0  0  0  0  0  0  0  0  0
  141.3680   75.0500  221.7440 N   0  0  0  0  0  0  0  0  0  0  0  0
  142.2990   74.9070  220.7860 C   0  0  0  0  0  0  0  0  0  0  0  0
  143.1990   73.8540  220.6330 C   0  0  0  0  0  0  0  0  0  0  0  0
  146.7680   73.9380  218.6210 H   0  0  0  0  0  0  0  0  0  0  0  0
  144.7590   75.0348  217.7993 H   0  0  0  0  0  0  0  0  0  0  0  0
  143.0988   76.8953  218.1358 H   0  0  0  0  0  0  0  0  0  0  0  0
  140.9658   77.7664  219.8657 H   0  0  0  0  0  0  0  0  0  0  0  0
  137.9097   79.0213  221.6866 H   0  0  0  0  0  0  0  0  0  0  0  0
  137.6000   78.4716  223.3389 H   0  0  0  0  0  0  0  0  0  0  0  0
  138.9183   82.3618  222.3973 H   0  0  0  0  0  0  0  0  0  0  0  0
  138.2421   81.2125  221.2646 H   0  0  0  0  0  0  0  0  0  0  0  0
  136.6241   82.8126  222.7292 H   0  0  0  0  0  0  0  0  0  0  0  0
  136.1364   81.1234  222.4420 H   0  0  0  0  0  0  0  0  0  0  0  0
  135.9895   80.6044  225.9228 H   0  0  0  0  0  0  0  0  0  0  0  0
  135.5669   79.8389  222.9927 H   0  0  0  0  0  0  0  0  0  0  0  0
  135.7759   78.7535  224.3623 H   0  0  0  0  0  0  0  0  0  0  0  0
  133.3172   79.3109  223.2770 H   0  0  0  0  0  0  0  0  0  0  0  0
  133.5047   78.9509  225.0130 H   0  0  0  0  0  0  0  0  0  0  0  0
  132.7210   80.9910  225.3780 H   0  0  0  0  0  0  0  0  0  0  0  0
  132.8020   81.4100  223.7270 H   0  0  0  0  0  0  0  0  0  0  0  0
  134.6820   82.5390  223.9764 H   0  0  0  0  0  0  0  0  0  0  0  0
  134.4119   82.3823  225.7345 H   0  0  0  0  0  0  0  0  0  0  0  0
  138.8974   81.2209  225.2041 H   0  0  0  0  0  0  0  0  0  0  0  0
  137.9003   79.7441  225.1137 H   0  0  0  0  0  0  0  0  0  0  0  0
  140.8810   82.2630  223.8631 H   0  0  0  0  0  0  0  0  0  0  0  0
  143.3283   81.7081  223.7693 H   0  0  0  0  0  0  0  0  0  0  0  0
  144.0701   79.4173  223.0875 H   0  0  0  0  0  0  0  0  0  0  0  0
  142.3648   77.6592  222.5263 H   0  0  0  0  0  0  0  0  0  0  0  0
  141.1620   74.3820  222.5200 H   0  0  0  0  0  0  0  0  0  0  0  0
  143.2082   73.0121  221.3409 H   0  0  0  0  0  0  0  0  0  0  0  0
  1  2  1  0
  2  3  2  0
  2  4  1  0
  4  5  2  0
  5  6  1  0
  6  7  2  0
  7  8  1  0
  8  9  2  0
  9 10  1  0
 10 11  2  0
 10 12  1  0
 12 13  1  0
 14 13  1  6
 14 15  1  0
 15 16  1  0
 16 17  1  0
 17 18  1  0
 18 19  1  0
 19 20  1  0
 20 21  1  0
 21 22  1  0
 17 23  1  0
 14 24  1  0
 24 25  2  0
 25 26  1  0
 26 27  2  0
 27 28  1  0
 28 29  2  0
  9 30  1  0
 30 31  1  0
 31 32  2  0
 32  4  1  0
 31  7  1  0
 29 12  1  0
 23 14  1  0
 29 24  1  0
 22 18  1  0
  1 33  1  0
  5 34  1  0
  6 35  1  0
  8 36  1  0
 13 37  1  0
 13 38  1  0
 15 39  1  0
 15 40  1  0
 16 41  1  0
 16 42  1  0
 18 43  1  1
 19 44  1  0
 19 45  1  0
 20 46  1  0
 20 47  1  0
 21 48  1  0
 21 49  1  0
 22 50  1  0
 22 51  1  0
 23 52  1  0
 23 53  1  0
 25 54  1  0
 26 55  1  0
 27 56  1  0
 28 57  1  0
 30 58  1  0
 32 59  1  0
M  CHG  2   1  -1  21   1
M  END
>  <meeko>  (17) 
{"free_energy": -8.41, "intermolecular_energy": -9.9, "internal_energy": -1.07, "cluster_size": 11, "cluster_id": 3, "rank_in_cluster": 4}

$$$$

     RDKit          3D

 59 64  0  0  0  0  0  0  0  0999 V2000
  145.9510   72.8440  218.6730 N   0  0  0  0  0  0  0  0  0  0  0  0
  144.7900   72.7140  219.4910 C   0  0  0  0  0  0  0  0  0  0  0  0
  144.5600   71.6140  220.0610 O   0  0  0  0  0  0  0  0  0  0  0  0
  143.8640   73.8570  219.6700 C   0  0  0  0  0  0  0  0  0  0  0  0
  143.9250   74.9740  218.7940 C   0  0  0  0  0  0  0  0  0  0  0  0
  143.0520   76.0650  218.9530 C   0  0  0  0  0  0  0  0  0  0  0  0
  142.1290   76.0130  219.9930 C   0  0  0  0  0  0  0  0  0  0  0  0
  141.1640   76.9170  220.3790 C   0  0  0  0  0  0  0  0  0  0  0  0
  140.5470   76.3310  221.4830 C   0  0  0  0  0  0  0  0  0  0  0  0
  139.4250   76.9190  222.2360 C   0  0  0  0  0  0  0  0  0  0  0  0
  138.4560   76.1880  222.5750 O   0  0  0  0  0  0  0  0  0  0  0  0
  139.4400   78.2960  222.6340 N   0  0  0  0  0  0  0  0  0  0  0  0
  138.2530   79.1460  222.6720 C   0  0  0  0  0  0  0  0  0  0  0  0
  138.7380   80.5240  223.2470 C   0  0  1  0  0  0  0  0  0  0  0  0
  138.3080   81.6940  222.3760 C   0  0  0  0  0  0  0  0  0  0  0  0
  136.9390   82.0390  222.9250 C   0  0  0  0  0  0  0  0  0  0  0  0
  136.9560   81.7440  224.3710 N   0  0  0  0  0  0  0  0  0  0  0  0
  135.6730   81.1710  224.8460 C   0  0  2  0  0  0  0  0  0  0  0  0
  135.4040   79.8000  224.2450 C   0  0  0  0  0  0  0  0  0  0  0  0
  133.8910   79.7000  224.2000 C   0  0  0  0  0  0  0  0  0  0  0  0
  133.3570   81.0640  224.1360 N   0  0  0  0  0  0  0  0  0  0  0  0
  134.4710   81.9890  224.3710 C   0  0  0  0  0  0  0  0  0  0  0  0
  138.1030   80.8430  224.6080 C   0  0  0  0  0  0  0  0  0  0  0  0
  140.2300   80.3500  223.3270 C   0  0  0  0  0  0  0  0  0  0  0  0
  141.2020   81.2890  223.6950 C   0  0  0  0  0  0  0  0  0  0  0  0
  142.5510   80.9050  223.6680 C   0  0  0  0  0  0  0  0  0  0  0  0
  142.9110   79.6050  223.2710 C   0  0  0  0  0  0  0  0  0  0  0  0
  141.9220   78.6780  222.9110 C   0  0  0  0  0  0  0  0  0  0  0  0
  140.5800   79.0720  222.9720 C   0  0  0  0  0  0  0  0  0  0  0  0
  141.0920   75.1220  221.7580 N   0  0  0  0  0  0  0  0  0  0  0  0
  142.0600   74.9430  220.8440 C   0  0  0  0  0  0  0  0  0  0  0  0
  142.9080   73.8460  220.7140 C   0  0  0  0  0  0  0  0  0  0  0  0
  146.4050   73.7730  218.5280 H   0  0  0  0  0  0  0  0  0  0  0  0
  144.6652   74.9856  217.9804 H   0  0  0  0  0  0  0  0  0  0  0  0
  143.0973   76.9316  218.2770 H   0  0  0  0  0  0  0  0  0  0  0  0
  140.9314   77.8880  219.9174 H   0  0  0  0  0  0  0  0  0  0  0  0
  137.8412   79.2758  221.6603 H   0  0  0  0  0  0  0  0  0  0  0  0
  137.4566   78.7052  223.2896 H   0  0  0  0  0  0  0  0  0  0  0  0
  139.0015   82.5414  222.4809 H   0  0  0  0  0  0  0  0  0  0  0  0
  138.2981   81.4557  221.3022 H   0  0  0  0  0  0  0  0  0  0  0  0
  136.7262   83.1058  222.7614 H   0  0  0  0  0  0  0  0  0  0  0  0
  136.1583   81.4527  222.4182 H   0  0  0  0  0  0  0  0  0  0  0  0
  135.7773   81.1500  225.9408 H   0  0  0  0  0  0  0  0  0  0  0  0
  135.8294   79.7279  223.2332 H   0  0  0  0  0  0  0  0  0  0  0  0
  135.8614   78.9881  224.8295 H   0  0  0  0  0  0  0  0  0  0  0  0
  133.5791   79.1332  223.3104 H   0  0  0  0  0  0  0  0  0  0  0  0
  133.5122   79.1788  225.0915 H   0  0  0  0  0  0  0  0  0  0  0  0
  132.6190   81.1940  224.8670 H   0  0  0  0  0  0  0  0  0  0  0  0
  132.9370   81.2410  223.1920 H   0  0  0  0  0  0  0  0  0  0  0  0
  134.7226   82.5149  223.4382 H   0  0  0  0  0  0  0  0  0  0  0  0
  134.1937   82.7360  225.1293 H   0  0  0  0  0  0  0  0  0  0  0  0
  138.8397   81.3380  225.2579 H   0  0  0  0  0  0  0  0  0  0  0  0
  137.7699   79.9187  225.1027 H   0  0  0  0  0  0  0  0  0  0  0  0
  140.9136   82.3061  223.9988 H   0  0  0  0  0  0  0  0  0  0  0  0
  143.3308   81.6243  223.9588 H   0  0  0  0  0  0  0  0  0  0  0  0
  143.9715   79.3142  223.2427 H   0  0  0  0  0  0  0  0  0  0  0  0
  142.1950   77.6627  222.5875 H   0  0  0  0  0  0  0  0  0  0  0  0
  140.8120   74.4520  222.5100 H   0  0  0  0  0  0  0  0  0  0  0  0
  142.8368   72.9929  221.4048 H   0  0  0  0  0  0  0  0  0  0  0  0
  1  2  1  0
  2  3  2  0
  2  4  1  0
  4  5  2  0
  5  6  1  0
  6  7  2  0
  7  8  1  0
  8  9  2  0
  9 10  1  0
 10 11  2  0
 10 12  1  0
 12 13  1  0
 14 13  1  6
 14 15  1  0
 15 16  1  0
 16 17  1  0
 17 18  1  0
 18 19  1  0
 19 20  1  0
 20 21  1  0
 21 22  1  0
 17 23  1  0
 14 24  1  0
 24 25  2  0
 25 26  1  0
 26 27  2  0
 27 28  1  0
 28 29  2  0
  9 30  1  0
 30 31  1  0
 31 32  2  0
 32  4  1  0
 31  7  1  0
 29 12  1  0
 23 14  1  0
 29 24  1  0
 22 18  1  0
  1 33  1  0
  5 34  1  0
  6 35  1  0
  8 36  1  0
 13 37  1  0
 13 38  1  0
 15 39  1  0
 15 40  1  0
 16 41  1  0
 16 42  1  0
 18 43  1  1
 19 44  1  0
 19 45  1  0
 20 46  1  0
 20 47  1  0
 21 48  1  0
 21 49  1  0
 22 50  1  0
 22 51  1  0
 23 52  1  0
 23 53  1  0
 25 54  1  0
 26 55  1  0
 27 56  1  0
 28 57  1  0
 30 58  1  0
 32 59  1  0
M  CHG  2   1  -1  21   1
M  END
>  <meeko>  (18) 
{"free_energy": -8.34, "intermolecular_energy": -9.83, "internal_energy": -1.07, "cluster_size": 11, "cluster_id": 3, "rank_in_cluster": 8}

$$$$

     RDKit          3D

 59 64  0  0  0  0  0  0  0  0999 V2000
  146.3190   72.9910  218.9960 N   0  0  0  0  0  0  0  0  0  0  0  0
  145.7300   73.2660  220.2660 C   0  0  0  0  0  0  0  0  0  0  0  0
  146.3530   72.9470  221.3140 O   0  0  0  0  0  0  0  0  0  0  0  0
  144.4020   73.9170  220.3550 C   0  0  0  0  0  0  0  0  0  0  0  0
  143.2660   73.1750  220.7770 C   0  0  0  0  0  0  0  0  0  0  0  0
  142.0010   73.7810  220.8670 C   0  0  0  0  0  0  0  0  0  0  0  0
  141.8990   75.1270  220.5290 C   0  0  0  0  0  0  0  0  0  0  0  0
  140.8090   75.9690  220.5260 C   0  0  0  0  0  0  0  0  0  0  0  0
  141.3070   77.1980  220.0940 C   0  0  0  0  0  0  0  0  0  0  0  0
  140.5110   78.4300  219.9500 C   0  0  0  0  0  0  0  0  0  0  0  0
  140.0180   78.7190  218.8270 O   0  0  0  0  0  0  0  0  0  0  0  0
  140.2440   79.2760  221.0750 N   0  0  0  0  0  0  0  0  0  0  0  0
  138.9270   79.8250  221.3870 C   0  0  0  0  0  0  0  0  0  0  0  0
  139.1020   80.6040  222.7380 C   0  0  1  0  0  0  0  0  0  0  0  0
  138.5560   82.0210  222.6600 C   0  0  0  0  0  0  0  0  0  0  0  0
  137.1020   81.8440  223.0440 C   0  0  0  0  0  0  0  0  0  0  0  0
  137.0340   80.7340  224.0140 N   0  0  0  0  0  0  0  0  0  0  0  0
  135.8330   79.8840  223.8180 C   0  0  2  0  0  0  0  0  0  0  0  0
  136.1720   78.5680  223.1360 C   0  0  0  0  0  0  0  0  0  0  0  0
  134.9100   78.2000  222.3810 C   0  0  0  0  0  0  0  0  0  0  0  0
  134.1830   79.4420  222.0980 N   0  0  0  0  0  0  0  0  0  0  0  0
  134.8360   80.5200  222.8480 C   0  0  0  0  0  0  0  0  0  0  0  0
  138.2950   79.9750  223.8820 C   0  0  0  0  0  0  0  0  0  0  0  0
  140.5870   80.5440  222.9720 C   0  0  0  0  0  0  0  0  0  0  0  0
  141.3380   81.1430  223.9900 C   0  0  0  0  0  0  0  0  0  0  0  0
  142.7290   80.9700  223.9910 C   0  0  0  0  0  0  0  0  0  0  0  0
  143.3510   80.2160  222.9800 C   0  0  0  0  0  0  0  0  0  0  0  0
  142.5810   79.6180  221.9710 C   0  0  0  0  0  0  0  0  0  0  0  0
  141.1910   79.7790  222.0060 C   0  0  0  0  0  0  0  0  0  0  0  0
  142.6390   77.1240  219.8550 N   0  0  0  0  0  0  0  0  0  0  0  0
  142.9850   75.8530  220.1200 C   0  0  0  0  0  0  0  0  0  0  0  0
  144.2530   75.2840  220.0220 C   0  0  0  0  0  0  0  0  0  0  0  0
  146.5490   73.7640  218.3330 H   0  0  0  0  0  0  0  0  0  0  0  0
  143.3781   72.1120  221.0367 H   0  0  0  0  0  0  0  0  0  0  0  0
  141.1199   73.2096  221.1942 H   0  0  0  0  0  0  0  0  0  0  0  0
  139.7728   75.7255  220.8035 H   0  0  0  0  0  0  0  0  0  0  0  0
  138.5974   80.5080  220.5902 H   0  0  0  0  0  0  0  0  0  0  0  0
  138.1663   79.0347  221.4692 H   0  0  0  0  0  0  0  0  0  0  0  0
  139.0744   82.6845  223.3678 H   0  0  0  0  0  0  0  0  0  0  0  0
  138.6913   82.4852  221.6720 H   0  0  0  0  0  0  0  0  0  0  0  0
  136.7190   82.7678  223.5022 H   0  0  0  0  0  0  0  0  0  0  0  0
  136.4901   81.6229  222.1571 H   0  0  0  0  0  0  0  0  0  0  0  0
  135.4274   79.7529  224.8321 H   0  0  0  0  0  0  0  0  0  0  0  0
  137.0172   78.6946  222.4435 H   0  0  0  0  0  0  0  0  0  0  0  0
  136.4747   77.7899  223.8521 H   0  0  0  0  0  0  0  0  0  0  0  0
  135.1705   77.6951  221.4390 H   0  0  0  0  0  0  0  0  0  0  0  0
  134.2885   77.5167  222.9783 H   0  0  0  0  0  0  0  0  0  0  0  0
  133.1840   79.3470  222.3980 H   0  0  0  0  0  0  0  0  0  0  0  0
  134.2130   79.6500  221.0720 H   0  0  0  0  0  0  0  0  0  0  0  0
  135.3654   81.1898  222.1544 H   0  0  0  0  0  0  0  0  0  0  0  0
  134.0885   81.1089  223.3998 H   0  0  0  0  0  0  0  0  0  0  0  0
  138.8670   80.0332  224.8198 H   0  0  0  0  0  0  0  0  0  0  0  0
  138.0863   78.9162  223.6689 H   0  0  0  0  0  0  0  0  0  0  0  0
  140.8463   81.7378  224.7739 H   0  0  0  0  0  0  0  0  0  0  0  0
  143.3369   81.4261  224.7863 H   0  0  0  0  0  0  0  0  0  0  0  0
  144.4443   80.0947  222.9802 H   0  0  0  0  0  0  0  0  0  0  0  0
  143.0592   79.0353  221.1699 H   0  0  0  0  0  0  0  0  0  0  0  0
  143.2750   77.8930  219.5480 H   0  0  0  0  0  0  0  0  0  0  0  0
  145.1160   75.8821  219.6942 H   0  0  0  0  0  0  0  0  0  0  0  0
  1  2  1  0
  2  3  2  0
  2  4  1  0
  4  5  2  0
  5  6  1  0
  6  7  2  0
  7  8  1  0
  8  9  2  0
  9 10  1  0
 10 11  2  0
 10 12  1  0
 12 13  1  0
 14 13  1  6
 14 15  1  0
 15 16  1  0
 16 17  1  0
 17 18  1  0
 18 19  1  0
 19 20  1  0
 20 21  1  0
 21 22  1  0
 17 23  1  0
 14 24  1  0
 24 25  2  0
 25 26  1  0
 26 27  2  0
 27 28  1  0
 28 29  2  0
  9 30  1  0
 30 31  1  0
 31 32  2  0
 32  4  1  0
 31  7  1  0
 29 12  1  0
 23 14  1  0
 29 24  1  0
 22 18  1  0
  1 33  1  0
  5 34  1  0
  6 35  1  0
  8 36  1  0
 13 37  1  0
 13 38  1  0
 15 39  1  0
 15 40  1  0
 16 41  1  0
 16 42  1  0
 18 43  1  1
 19 44  1  0
 19 45  1  0
 20 46  1  0
 20 47  1  0
 21 48  1  0
 21 49  1  0
 22 50  1  0
 22 51  1  0
 23 52  1  0
 23 53  1  0
 25 54  1  0
 26 55  1  0
 27 56  1  0
 28 57  1  0
 30 58  1  0
 32 59  1  0
M  CHG  2   1  -1  21   1
M  END
>  <meeko>  (19) 
{"free_energy": -8.63, "intermolecular_energy": -10.12, "internal_energy": -1.14, "cluster_size": 11, "cluster_id": 3, "rank_in_cluster": 2}

$$$$

     RDKit          3D

 59 64  0  0  0  0  0  0  0  0999 V2000
  146.2340   73.0140  219.0030 N   0  0  0  0  0  0  0  0  0  0  0  0
  145.6780   73.3500  220.2730 C   0  0  0  0  0  0  0  0  0  0  0  0
  146.3580   73.1480  221.3140 O   0  0  0  0  0  0  0  0  0  0  0  0
  144.3170   73.9290  220.3690 C   0  0  0  0  0  0  0  0  0  0  0  0
  143.2290   73.1310  220.8140 C   0  0  0  0  0  0  0  0  0  0  0  0
  141.9330   73.6690  220.9110 C   0  0  0  0  0  0  0  0  0  0  0  0
  141.7530   75.0020  220.5560 C   0  0  0  0  0  0  0  0  0  0  0  0
  140.6180   75.7830  220.5550 C   0  0  0  0  0  0  0  0  0  0  0  0
  141.0440   77.0310  220.1010 C   0  0  0  0  0  0  0  0  0  0  0  0
  140.1800   78.2150  219.9490 C   0  0  0  0  0  0  0  0  0  0  0  0
  139.5750   78.4040  218.8600 O   0  0  0  0  0  0  0  0  0  0  0  0
  139.9730   79.1260  221.0360 N   0  0  0  0  0  0  0  0  0  0  0  0
  138.7140   79.8230  221.2870 C   0  0  0  0  0  0  0  0  0  0  0  0
  138.9330   80.6280  222.6160 C   0  0  1  0  0  0  0  0  0  0  0  0
  138.5450   82.0920  222.4720 C   0  0  0  0  0  0  0  0  0  0  0  0
  137.0690   82.0840  222.8160 C   0  0  0  0  0  0  0  0  0  0  0  0
  136.8550   81.0240  223.8200 N   0  0  0  0  0  0  0  0  0  0  0  0
  135.5770   80.3000  223.6140 C   0  0  2  0  0  0  0  0  0  0  0  0
  134.7720   80.1880  224.8990 C   0  0  0  0  0  0  0  0  0  0  0  0
  133.9770   78.9070  224.7340 C   0  0  0  0  0  0  0  0  0  0  0  0
  134.7160   78.0420  223.8080 N   0  0  0  0  0  0  0  0  0  0  0  0
  135.8040   78.8370  223.2290 C   0  0  0  0  0  0  0  0  0  0  0  0
  138.0310   80.1320  223.7540 C   0  0  0  0  0  0  0  0  0  0  0  0
  140.3960   80.4190  222.8990 C   0  0  0  0  0  0  0  0  0  0  0  0
  141.1770   80.9730  223.9210 C   0  0  0  0  0  0  0  0  0  0  0  0
  142.5420   80.6530  223.9730 C   0  0  0  0  0  0  0  0  0  0  0  0
  143.1070   79.8000  223.0080 C   0  0  0  0  0  0  0  0  0  0  0  0
  142.3070   79.2510  221.9950 C   0  0  0  0  0  0  0  0  0  0  0  0
  140.9410   79.5600  221.9800 C   0  0  0  0  0  0  0  0  0  0  0  0
  142.3750   77.0260  219.8470 N   0  0  0  0  0  0  0  0  0  0  0  0
  142.7930   75.7800  220.1250 C   0  0  0  0  0  0  0  0  0  0  0  0
  144.0890   75.2810  220.0200 C   0  0  0  0  0  0  0  0  0  0  0  0
  146.6670   73.7460  218.3960 H   0  0  0  0  0  0  0  0  0  0  0  0
  143.4023   72.0794  221.0860 H   0  0  0  0  0  0  0  0  0  0  0  0
  141.0883   73.0550  221.2567 H   0  0  0  0  0  0  0  0  0  0  0  0
  139.5998   75.4873  220.8478 H   0  0  0  0  0  0  0  0  0  0  0  0
  138.4824   80.5074  220.4576 H   0  0  0  0  0  0  0  0  0  0  0  0
  137.8709   79.1215  221.3711 H   0  0  0  0  0  0  0  0  0  0  0  0
  139.1117   82.7228  223.1727 H   0  0  0  0  0  0  0  0  0  0  0  0
  138.7571   82.5024  221.4737 H   0  0  0  0  0  0  0  0  0  0  0  0
  136.7744   83.0594  223.2305 H   0  0  0  0  0  0  0  0  0  0  0  0
  136.4622   81.8962  221.9179 H   0  0  0  0  0  0  0  0  0  0  0  0
  135.0638   80.8787  222.8319 H   0  0  0  0  0  0  0  0  0  0  0  0
  135.4385   80.1231  225.7717 H   0  0  0  0  0  0  0  0  0  0  0  0
  134.1275   81.0632  225.0683 H   0  0  0  0  0  0  0  0  0  0  0  0
  133.8662   78.4064  225.7072 H   0  0  0  0  0  0  0  0  0  0  0  0
  132.9725   79.1238  224.3415 H   0  0  0  0  0  0  0  0  0  0  0  0
  134.0770   77.7000  223.0520 H   0  0  0  0  0  0  0  0  0  0  0  0
  135.1080   77.2180  224.3220 H   0  0  0  0  0  0  0  0  0  0  0  0
  136.7703   78.4922  223.6257 H   0  0  0  0  0  0  0  0  0  0  0  0
  135.8168   78.7274  222.1346 H   0  0  0  0  0  0  0  0  0  0  0  0
  138.5792   80.1644  224.7071 H   0  0  0  0  0  0  0  0  0  0  0  0
  137.7161   79.0942  223.5700 H   0  0  0  0  0  0  0  0  0  0  0  0
  140.7293   81.6453  224.6677 H   0  0  0  0  0  0  0  0  0  0  0  0
  143.1727   81.0708  224.7715 H   0  0  0  0  0  0  0  0  0  0  0  0
  144.1803   79.5625  223.0478 H   0  0  0  0  0  0  0  0  0  0  0  0
  142.7428   78.5924  221.2293 H   0  0  0  0  0  0  0  0  0  0  0  0
  142.9640   77.8250  219.5230 H   0  0  0  0  0  0  0  0  0  0  0  0
  144.9140   75.9214  219.6747 H   0  0  0  0  0  0  0  0  0  0  0  0
  1  2  1  0
  2  3  2  0
  2  4  1  0
  4  5  2  0
  5  6  1  0
  6  7  2  0
  7  8  1  0
  8  9  2  0
  9 10  1  0
 10 11  2  0
 10 12  1  0
 12 13  1  0
 14 13  1  6
 14 15  1  0
 15 16  1  0
 16 17  1  0
 17 18  1  0
 18 19  1  0
 19 20  1  0
 20 21  1  0
 21 22  1  0
 17 23  1  0
 14 24  1  0
 24 25  2  0
 25 26  1  0
 26 27  2  0
 27 28  1  0
 28 29  2  0
  9 30  1  0
 30 31  1  0
 31 32  2  0
 32  4  1  0
 31  7  1  0
 29 12  1  0
 23 14  1  0
 29 24  1  0
 22 18  1  0
  1 33  1  0
  5 34  1  0
  6 35  1  0
  8 36  1  0
 13 37  1  0
 13 38  1  0
 15 39  1  0
 15 40  1  0
 16 41  1  0
 16 42  1  0
 18 43  1  6
 19 44  1  0
 19 45  1  0
 20 46  1  0
 20 47  1  0
 21 48  1  0
 21 49  1  0
 22 50  1  0
 22 51  1  0
 23 52  1  0
 23 53  1  0
 25 54  1  0
 26 55  1  0
 27 56  1  0
 28 57  1  0
 30 58  1  0
 32 59  1  0
M  CHG  2   1  -1  21   1
M  END
>  <meeko>  (20) 
{"free_energy": -8.4, "intermolecular_energy": -9.89, "internal_energy": -1.0, "cluster_size": 11, "cluster_id": 3, "rank_in_cluster": 6}

$$$$
