
     RDKit          3D

 61 65  0  0  0  0  0  0  0  0999 V2000
  133.9340   79.2700  225.3070 C   0  0  0  0  0  0  0  0  0  0  0  0
  133.5090   78.7860  223.9820 N   0  0  0  0  0  0  0  0  0  0  0  0
  134.3160   77.6310  223.5340 C   0  0  0  0  0  0  0  0  0  0  0  0
  135.7720   78.0310  223.2380 C   0  0  0  0  0  0  0  0  0  0  0  0
  135.8300   79.3560  222.6060 N   0  0  0  0  0  0  0  0  0  0  0  0
  136.9800   80.2050  222.7920 C   0  0  0  0  0  0  0  0  0  0  0  0
  136.8180   81.4460  222.9490 O   0  0  0  0  0  0  0  0  0  0  0  0
  138.3530   79.6510  222.8280 C   0  0  0  0  0  0  0  0  0  0  0  0
  139.3740   80.3410  223.4990 C   0  0  0  0  0  0  0  0  0  0  0  0
  140.6720   79.8270  223.5240 C   0  0  0  0  0  0  0  0  0  0  0  0
  140.9650   78.6230  222.8810 C   0  0  0  0  0  0  0  0  0  0  0  0
  139.9570   77.9170  222.1990 C   0  0  0  0  0  0  0  0  0  0  0  0
  140.2770   76.6470  221.5040 C   0  0  0  0  0  0  0  0  0  0  0  0
  141.5200   76.2710  221.4220 N   0  0  0  0  0  0  0  0  0  0  0  0
  142.0110   74.9400  221.1940 C   0  0  0  0  0  0  0  0  0  0  0  0
  143.2370   74.8120  220.5260 C   0  0  0  0  0  0  0  0  0  0  0  0
  143.7430   73.5560  220.1900 C   0  0  0  0  0  0  0  0  0  0  0  0
  143.0120   72.4050  220.4930 C   0  0  0  0  0  0  0  0  0  0  0  0
  143.5210   71.1100  220.1260 C   0  0  0  0  0  0  0  0  0  0  0  0
  143.9500   70.0250  219.8210 C   0  0  0  0  0  0  0  0  0  0  0  0
  144.4680   68.7330  219.4570 C   0  0  0  0  0  0  0  0  0  0  0  0
  145.8510   68.5380  219.3350 C   0  0  0  0  0  0  0  0  0  0  0  0
  146.3520   67.2810  218.9790 C   0  0  0  0  0  0  0  0  0  0  0  0
  145.4750   66.2180  218.7440 C   0  0  0  0  0  0  0  0  0  0  0  0
  144.0950   66.4090  218.8670 C   0  0  0  0  0  0  0  0  0  0  0  0
  143.5900   67.6650  219.2210 C   0  0  0  0  0  0  0  0  0  0  0  0
  141.7750   72.5140  221.1390 C   0  0  0  0  0  0  0  0  0  0  0  0
  141.2680   73.7680  221.5090 C   0  0  0  0  0  0  0  0  0  0  0  0
  139.9630   73.7980  222.1170 N   0  0  0  0  0  0  0  0  0  0  0  0
  138.9850   74.5980  221.8160 C   0  0  0  0  0  0  0  0  0  0  0  0
  137.7180   74.3600  222.3390 O   0  0  0  0  0  0  0  0  0  0  0  0
  139.1870   75.7860  220.9320 C   0  0  0  0  0  0  0  0  0  0  0  0
  138.6560   78.4530  222.1610 C   0  0  0  0  0  0  0  0  0  0  0  0
  134.6150   79.8780  221.9750 C   0  0  0  0  0  0  0  0  0  0  0  0
  133.4500   79.8860  222.9830 C   0  0  0  0  0  0  0  0  0  0  0  0
  133.4243   78.6896  226.0902 H   0  0  0  0  0  0  0  0  0  0  0  0
  135.0224   79.1483  225.4101 H   0  0  0  0  0  0  0  0  0  0  0  0
  133.6726   80.3335  225.4101 H   0  0  0  0  0  0  0  0  0  0  0  0
  134.3107   76.8653  224.3238 H   0  0  0  0  0  0  0  0  0  0  0  0
  133.8723   77.2440  222.6048 H   0  0  0  0  0  0  0  0  0  0  0  0
  136.3381   78.0559  224.1808 H   0  0  0  0  0  0  0  0  0  0  0  0
  136.2080   77.2922  222.5495 H   0  0  0  0  0  0  0  0  0  0  0  0
  139.1510   81.2907  224.0073 H   0  0  0  0  0  0  0  0  0  0  0  0
  141.4672   80.3731  224.0527 H   0  0  0  0  0  0  0  0  0  0  0  0
  141.9897   78.2240  222.9077 H   0  0  0  0  0  0  0  0  0  0  0  0
  143.8080   75.7147  220.2631 H   0  0  0  0  0  0  0  0  0  0  0  0
  144.7174   73.4722  219.6866 H   0  0  0  0  0  0  0  0  0  0  0  0
  146.5424   69.3735  219.5192 H   0  0  0  0  0  0  0  0  0  0  0  0
  147.4373   67.1290  218.8839 H   0  0  0  0  0  0  0  0  0  0  0  0
  145.8705   65.2310  218.4622 H   0  0  0  0  0  0  0  0  0  0  0  0
  143.4060   65.5710  218.6853 H   0  0  0  0  0  0  0  0  0  0  0  0
  142.5042   67.8148  219.3142 H   0  0  0  0  0  0  0  0  0  0  0  0
  141.1942   71.6060  221.3588 H   0  0  0  0  0  0  0  0  0  0  0  0
  137.5820   73.7120  223.1070 H   0  0  0  0  0  0  0  0  0  0  0  0
  139.4736   75.4505  219.9244 H   0  0  0  0  0  0  0  0  0  0  0  0
  138.2532   76.3640  220.8703 H   0  0  0  0  0  0  0  0  0  0  0  0
  137.8676   77.9274  221.6024 H   0  0  0  0  0  0  0  0  0  0  0  0
  134.7998   80.9046  221.6259 H   0  0  0  0  0  0  0  0  0  0  0  0
  134.3480   79.2331  221.1248 H   0  0  0  0  0  0  0  0  0  0  0  0
  133.4654   80.8446  223.5223 H   0  0  0  0  0  0  0  0  0  0  0  0
  132.5261   79.7416  222.4038 H   0  0  0  0  0  0  0  0  0  0  0  0
  1  2  1  0
  2  3  1  0
  3  4  1  0
  4  5  1  0
  5  6  1  0
  6  7  2  0
  6  8  1  0
  8  9  2  0
  9 10  1  0
 10 11  2  0
 11 12  1  0
 12 13  1  0
 13 14  2  0
 14 15  1  0
 15 16  2  0
 16 17  1  0
 17 18  2  0
 18 19  1  0
 19 20  3  0
 20 21  1  0
 21 22  2  0
 22 23  1  0
 23 24  2  0
 24 25  1  0
 25 26  2  0
 18 27  1  0
 27 28  2  0
 28 29  1  0
 29 30  2  0
 30 31  1  0
 30 32  1  0
 12 33  2  0
  5 34  1  0
 34 35  1  0
 35  2  1  0
 33  8  1  0
 32 13  1  0
 28 15  1  0
 26 21  1  0
  1 36  1  0
  1 37  1  0
  1 38  1  0
  3 39  1  0
  3 40  1  0
  4 41  1  0
  4 42  1  0
  9 43  1  0
 10 44  1  0
 11 45  1  0
 16 46  1  0
 17 47  1  0
 22 48  1  0
 23 49  1  0
 24 50  1  0
 25 51  1  0
 26 52  1  0
 27 53  1  0
 31 54  1  0
 32 55  1  0
 32 56  1  0
 33 57  1  0
 34 58  1  0
 34 59  1  0
 35 60  1  0
 35 61  1  0
M  END
>  <meeko>  (1) 
{"free_energy": -5.42, "intermolecular_energy": -8.7, "internal_energy": -1.17, "cluster_size": 2, "cluster_id": 4, "rank_in_cluster": 2}

$$$$

     RDKit          3D

 61 65  0  0  0  0  0  0  0  0999 V2000
  143.9990   69.1910  217.2270 C   0  0  0  0  0  0  0  0  0  0  0  0
  143.2420   69.2770  218.4890 N   0  0  0  0  0  0  0  0  0  0  0  0
  142.0920   70.2000  218.3780 C   0  0  0  0  0  0  0  0  0  0  0  0
  142.5450   71.6610  218.2170 C   0  0  0  0  0  0  0  0  0  0  0  0
  143.7280   71.9340  219.0450 N   0  0  0  0  0  0  0  0  0  0  0  0
  144.6870   72.9340  218.6430 C   0  0  0  0  0  0  0  0  0  0  0  0
  145.9180   72.7160  218.8100 O   0  0  0  0  0  0  0  0  0  0  0  0
  144.2610   74.2040  218.0130 C   0  0  0  0  0  0  0  0  0  0  0  0
  144.8330   74.6150  216.7990 C   0  0  0  0  0  0  0  0  0  0  0  0
  144.4420   75.8190  216.2090 C   0  0  0  0  0  0  0  0  0  0  0  0
  143.4810   76.6240  216.8230 C   0  0  0  0  0  0  0  0  0  0  0  0
  142.8990   76.2330  218.0420 C   0  0  0  0  0  0  0  0  0  0  0  0
  141.8900   77.1010  218.6980 C   0  0  0  0  0  0  0  0  0  0  0  0
  141.5360   76.8380  219.9210 N   0  0  0  0  0  0  0  0  0  0  0  0
  140.9140   77.7360  220.8560 C   0  0  0  0  0  0  0  0  0  0  0  0
  140.0490   77.1760  221.8080 C   0  0  0  0  0  0  0  0  0  0  0  0
  139.3410   77.9860  222.6960 C   0  0  0  0  0  0  0  0  0  0  0  0
  139.4660   79.3750  222.6260 C   0  0  0  0  0  0  0  0  0  0  0  0
  138.7170   80.2120  223.5270 C   0  0  0  0  0  0  0  0  0  0  0  0
  138.0870   80.9120  224.2800 C   0  0  0  0  0  0  0  0  0  0  0  0
  137.3360   81.7420  225.1830 C   0  0  0  0  0  0  0  0  0  0  0  0
  136.9210   83.0200  224.7830 C   0  0  0  0  0  0  0  0  0  0  0  0
  136.1930   83.8280  225.6630 C   0  0  0  0  0  0  0  0  0  0  0  0
  135.8780   83.3620  226.9430 C   0  0  0  0  0  0  0  0  0  0  0  0
  136.2890   82.0870  227.3450 C   0  0  0  0  0  0  0  0  0  0  0  0
  137.0190   81.2780  226.4680 C   0  0  0  0  0  0  0  0  0  0  0  0
  140.3060   79.9520  221.6680 C   0  0  0  0  0  0  0  0  0  0  0  0
  141.0460   79.1510  220.7880 C   0  0  0  0  0  0  0  0  0  0  0  0
  141.8430   79.8240  219.7940 N   0  0  0  0  0  0  0  0  0  0  0  0
  141.9140   79.5330  218.5300 C   0  0  0  0  0  0  0  0  0  0  0  0
  142.5830   80.3940  217.6660 O   0  0  0  0  0  0  0  0  0  0  0  0
  141.3090   78.2850  217.9780 C   0  0  0  0  0  0  0  0  0  0  0  0
  143.3130   75.0290  218.6400 C   0  0  0  0  0  0  0  0  0  0  0  0
  144.0220   71.0250  220.1550 C   0  0  0  0  0  0  0  0  0  0  0  0
  144.1260   69.5750  219.6460 C   0  0  0  0  0  0  0  0  0  0  0  0
  145.0695   69.0694  217.4491 H   0  0  0  0  0  0  0  0  0  0  0  0
  143.6448   68.3273  216.6451 H   0  0  0  0  0  0  0  0  0  0  0  0
  143.8476   70.1121  216.6451 H   0  0  0  0  0  0  0  0  0  0  0  0
  141.4903   69.9153  217.5023 H   0  0  0  0  0  0  0  0  0  0  0  0
  141.5030   70.1250  219.3040 H   0  0  0  0  0  0  0  0  0  0  0  0
  142.7924   71.8478  217.1616 H   0  0  0  0  0  0  0  0  0  0  0  0
  141.7274   72.3218  218.5409 H   0  0  0  0  0  0  0  0  0  0  0  0
  145.5921   73.9865  216.3104 H   0  0  0  0  0  0  0  0  0  0  0  0
  144.8932   76.1342  215.2566 H   0  0  0  0  0  0  0  0  0  0  0  0
  143.1772   77.5698  216.3505 H   0  0  0  0  0  0  0  0  0  0  0  0
  139.9274   76.0837  221.8548 H   0  0  0  0  0  0  0  0  0  0  0  0
  138.6841   77.5304  223.4516 H   0  0  0  0  0  0  0  0  0  0  0  0
  137.1681   83.3878  223.7762 H   0  0  0  0  0  0  0  0  0  0  0  0
  135.8682   84.8305  225.3477 H   0  0  0  0  0  0  0  0  0  0  0  0
  135.3065   83.9986  227.6344 H   0  0  0  0  0  0  0  0  0  0  0  0
  136.0381   81.7203  228.3513 H   0  0  0  0  0  0  0  0  0  0  0  0
  137.3448   80.2768  226.7865 H   0  0  0  0  0  0  0  0  0  0  0  0
  140.3867   81.0472  221.6046 H   0  0  0  0  0  0  0  0  0  0  0  0
  143.4300   80.1050  217.1890 H   0  0  0  0  0  0  0  0  0  0  0  0
  140.2190   78.3074  218.1243 H   0  0  0  0  0  0  0  0  0  0  0  0
  141.5269   78.2101  216.9024 H   0  0  0  0  0  0  0  0  0  0  0  0
  142.8893   74.7301  219.6101 H   0  0  0  0  0  0  0  0  0  0  0  0
  144.9759   71.3158  220.6192 H   0  0  0  0  0  0  0  0  0  0  0  0
  143.2089   71.0874  220.8933 H   0  0  0  0  0  0  0  0  0  0  0  0
  145.1669   69.3882  219.3434 H   0  0  0  0  0  0  0  0  0  0  0  0
  143.8020   68.9235  220.4709 H   0  0  0  0  0  0  0  0  0  0  0  0
  1  2  1  0
  2  3  1  0
  3  4  1  0
  4  5  1  0
  5  6  1  0
  6  7  2  0
  6  8  1  0
  8  9  2  0
  9 10  1  0
 10 11  2  0
 11 12  1  0
 12 13  1  0
 13 14  2  0
 14 15  1  0
 15 16  2  0
 16 17  1  0
 17 18  2  0
 18 19  1  0
 19 20  3  0
 20 21  1  0
 21 22  2  0
 22 23  1  0
 23 24  2  0
 24 25  1  0
 25 26  2  0
 18 27  1  0
 27 28  2  0
 28 29  1  0
 29 30  2  0
 30 31  1  0
 30 32  1  0
 12 33  2  0
  5 34  1  0
 34 35  1  0
 35  2  1  0
 33  8  1  0
 32 13  1  0
 28 15  1  0
 26 21  1  0
  1 36  1  0
  1 37  1  0
  1 38  1  0
  3 39  1  0
  3 40  1  0
  4 41  1  0
  4 42  1  0
  9 43  1  0
 10 44  1  0
 11 45  1  0
 16 46  1  0
 17 47  1  0
 22 48  1  0
 23 49  1  0
 24 50  1  0
 25 51  1  0
 26 52  1  0
 27 53  1  0
 31 54  1  0
 32 55  1  0
 32 56  1  0
 33 57  1  0
 34 58  1  0
 34 59  1  0
 35 60  1  0
 35 61  1  0
M  END
>  <meeko>  (2) 
{"free_energy": -5.23, "intermolecular_energy": -8.51, "internal_energy": -1.18, "cluster_size": 1, "cluster_id": 6, "rank_in_cluster": 1}

$$$$

     RDKit          3D

 61 65  0  0  0  0  0  0  0  0999 V2000
  143.1480   80.6060  223.9290 C   0  0  0  0  0  0  0  0  0  0  0  0
  141.8480   79.9890  224.2490 N   0  0  0  0  0  0  0  0  0  0  0  0
  141.7470   78.6130  223.7160 C   0  0  0  0  0  0  0  0  0  0  0  0
  141.7000   78.5980  222.1780 C   0  0  0  0  0  0  0  0  0  0  0  0
  140.9070   79.7260  221.6700 N   0  0  0  0  0  0  0  0  0  0  0  0
  141.1980   80.3020  220.3810 C   0  0  0  0  0  0  0  0  0  0  0  0
  141.1360   81.5530  220.2310 O   0  0  0  0  0  0  0  0  0  0  0  0
  141.5940   79.4600  219.2290 C   0  0  0  0  0  0  0  0  0  0  0  0
  142.2020   80.0430  218.1060 C   0  0  0  0  0  0  0  0  0  0  0  0
  142.5640   79.2530  217.0130 C   0  0  0  0  0  0  0  0  0  0  0  0
  142.3250   77.8780  217.0280 C   0  0  0  0  0  0  0  0  0  0  0  0
  141.7130   77.2740  218.1420 C   0  0  0  0  0  0  0  0  0  0  0  0
  141.4470   75.8150  218.1450 C   0  0  0  0  0  0  0  0  0  0  0  0
  140.4020   75.3690  218.7790 N   0  0  0  0  0  0  0  0  0  0  0  0
  140.3840   74.4580  219.8910 C   0  0  0  0  0  0  0  0  0  0  0  0
  139.4640   74.7140  220.9170 C   0  0  0  0  0  0  0  0  0  0  0  0
  139.4400   73.9280  222.0700 C   0  0  0  0  0  0  0  0  0  0  0  0
  140.3600   72.8890  222.2260 C   0  0  0  0  0  0  0  0  0  0  0  0
  140.3510   72.0930  223.4250 C   0  0  0  0  0  0  0  0  0  0  0  0
  140.3460   71.4240  224.4280 C   0  0  0  0  0  0  0  0  0  0  0  0
  140.3440   70.6220  225.6230 C   0  0  0  0  0  0  0  0  0  0  0  0
  139.6560   69.4010  225.6490 C   0  0  0  0  0  0  0  0  0  0  0  0
  139.6530   68.6240  226.8120 C   0  0  0  0  0  0  0  0  0  0  0  0
  140.3350   69.0640  227.9500 C   0  0  0  0  0  0  0  0  0  0  0  0
  141.0230   70.2810  227.9270 C   0  0  0  0  0  0  0  0  0  0  0  0
  141.0270   71.0620  226.7660 C   0  0  0  0  0  0  0  0  0  0  0  0
  141.3010   72.6340  221.2220 C   0  0  0  0  0  0  0  0  0  0  0  0
  141.3180   73.3960  220.0460 C   0  0  0  0  0  0  0  0  0  0  0  0
  142.3540   73.1070  219.0880 N   0  0  0  0  0  0  0  0  0  0  0  0
  143.0190   73.9700  218.3810 C   0  0  0  0  0  0  0  0  0  0  0  0
  144.4000   74.0550  218.5230 O   0  0  0  0  0  0  0  0  0  0  0  0
  142.3440   74.8670  217.4030 C   0  0  0  0  0  0  0  0  0  0  0  0
  141.3320   78.0800  219.2300 C   0  0  0  0  0  0  0  0  0  0  0  0
  139.9720   80.3850  222.5850 C   0  0  0  0  0  0  0  0  0  0  0  0
  140.7090   80.8590  223.8530 C   0  0  0  0  0  0  0  0  0  0  0  0
  143.6747   80.8560  224.8618 H   0  0  0  0  0  0  0  0  0  0  0  0
  143.7548   79.8998  223.3432 H   0  0  0  0  0  0  0  0  0  0  0  0
  142.9846   81.5226  223.3432 H   0  0  0  0  0  0  0  0  0  0  0  0
  142.6216   78.0362  224.0512 H   0  0  0  0  0  0  0  0  0  0  0  0
  140.8132   78.1688  224.0910 H   0  0  0  0  0  0  0  0  0  0  0  0
  142.7248   78.6714  221.7850 H   0  0  0  0  0  0  0  0  0  0  0  0
  141.2303   77.6595  221.8484 H   0  0  0  0  0  0  0  0  0  0  0  0
  142.3939   81.1260  218.0870 H   0  0  0  0  0  0  0  0  0  0  0  0
  143.0397   79.7165  216.1361 H   0  0  0  0  0  0  0  0  0  0  0  0
  142.6167   77.2628  216.1640 H   0  0  0  0  0  0  0  0  0  0  0  0
  138.7515   75.5454  220.8120 H   0  0  0  0  0  0  0  0  0  0  0  0
  138.6965   74.1269  222.8559 H   0  0  0  0  0  0  0  0  0  0  0  0
  139.1183   69.0538  224.7544 H   0  0  0  0  0  0  0  0  0  0  0  0
  139.1134   67.6657  226.8311 H   0  0  0  0  0  0  0  0  0  0  0  0
  140.3305   68.4524  228.8643 H   0  0  0  0  0  0  0  0  0  0  0  0
  141.5616   70.6248  228.8224 H   0  0  0  0  0  0  0  0  0  0  0  0
  141.5658   72.0209  226.7499 H   0  0  0  0  0  0  0  0  0  0  0  0
  142.0355   71.8264  221.3574 H   0  0  0  0  0  0  0  0  0  0  0  0
  144.9270   74.8040  218.0890 H   0  0  0  0  0  0  0  0  0  0  0  0
  143.1000   75.4370  216.8430 H   0  0  0  0  0  0  0  0  0  0  0  0
  141.7485   74.2671  216.6991 H   0  0  0  0  0  0  0  0  0  0  0  0
  140.8228   77.6242  220.0919 H   0  0  0  0  0  0  0  0  0  0  0  0
  139.5220   81.2530  222.0810 H   0  0  0  0  0  0  0  0  0  0  0  0
  139.1885   79.6687  222.8732 H   0  0  0  0  0  0  0  0  0  0  0  0
  141.0948   81.8729  223.6707 H   0  0  0  0  0  0  0  0  0  0  0  0
  139.9807   80.8258  224.6767 H   0  0  0  0  0  0  0  0  0  0  0  0
  1  2  1  0
  2  3  1  0
  3  4  1  0
  4  5  1  0
  5  6  1  0
  6  7  2  0
  6  8  1  0
  8  9  2  0
  9 10  1  0
 10 11  2  0
 11 12  1  0
 12 13  1  0
 13 14  2  0
 14 15  1  0
 15 16  2  0
 16 17  1  0
 17 18  2  0
 18 19  1  0
 19 20  3  0
 20 21  1  0
 21 22  2  0
 22 23  1  0
 23 24  2  0
 24 25  1  0
 25 26  2  0
 18 27  1  0
 27 28  2  0
 28 29  1  0
 29 30  2  0
 30 31  1  0
 30 32  1  0
 12 33  2  0
  5 34  1  0
 34 35  1  0
 35  2  1  0
 33  8  1  0
 32 13  1  0
 28 15  1  0
 26 21  1  0
  1 36  1  0
  1 37  1  0
  1 38  1  0
  3 39  1  0
  3 40  1  0
  4 41  1  0
  4 42  1  0
  9 43  1  0
 10 44  1  0
 11 45  1  0
 16 46  1  0
 17 47  1  0
 22 48  1  0
 23 49  1  0
 24 50  1  0
 25 51  1  0
 26 52  1  0
 27 53  1  0
 31 54  1  0
 32 55  1  0
 32 56  1  0
 33 57  1  0
 34 58  1  0
 34 59  1  0
 35 60  1  0
 35 61  1  0
M  END
>  <meeko>  (3) 
{"free_energy": -6.29, "intermolecular_energy": -9.57, "internal_energy": -1.27, "cluster_size": 8, "cluster_id": 1, "rank_in_cluster": 4}

$$$$

     RDKit          3D

 61 65  0  0  0  0  0  0  0  0999 V2000
  142.2030   81.2220  223.6430 C   0  0  0  0  0  0  0  0  0  0  0  0
  141.2370   80.2100  224.1070 N   0  0  0  0  0  0  0  0  0  0  0  0
  141.7170   78.8350  223.8500 C   0  0  0  0  0  0  0  0  0  0  0  0
  141.7620   78.5170  222.3450 C   0  0  0  0  0  0  0  0  0  0  0  0
  140.6170   79.1210  221.6510 N   0  0  0  0  0  0  0  0  0  0  0  0
  140.7260   79.5160  220.2680 C   0  0  0  0  0  0  0  0  0  0  0  0
  140.1840   80.5880  219.8830 O   0  0  0  0  0  0  0  0  0  0  0  0
  141.4840   78.7040  219.2890 C   0  0  0  0  0  0  0  0  0  0  0  0
  142.2430   79.3320  218.2900 C   0  0  0  0  0  0  0  0  0  0  0  0
  142.9480   78.5680  217.3570 C   0  0  0  0  0  0  0  0  0  0  0  0
  142.9030   77.1730  217.4120 C   0  0  0  0  0  0  0  0  0  0  0  0
  142.1460   76.5240  218.4030 C   0  0  0  0  0  0  0  0  0  0  0  0
  142.0890   75.0430  218.4450 C   0  0  0  0  0  0  0  0  0  0  0  0
  141.0220   74.4680  218.9190 N   0  0  0  0  0  0  0  0  0  0  0  0
  140.9370   73.6040  220.0650 C   0  0  0  0  0  0  0  0  0  0  0  0
  139.8310   73.7650  220.9110 C   0  0  0  0  0  0  0  0  0  0  0  0
  139.7170   73.0260  222.0890 C   0  0  0  0  0  0  0  0  0  0  0  0
  140.7260   72.1320  222.4530 C   0  0  0  0  0  0  0  0  0  0  0  0
  140.6210   71.3860  223.6800 C   0  0  0  0  0  0  0  0  0  0  0  0
  140.5350   70.7600  224.7060 C   0  0  0  0  0  0  0  0  0  0  0  0
  140.4350   70.0090  225.9290 C   0  0  0  0  0  0  0  0  0  0  0  0
  140.5970   70.6520  227.1650 C   0  0  0  0  0  0  0  0  0  0  0  0
  140.5020   69.9190  228.3530 C   0  0  0  0  0  0  0  0  0  0  0  0
  140.2440   68.5460  228.3100 C   0  0  0  0  0  0  0  0  0  0  0  0
  140.0800   67.9020  227.0800 C   0  0  0  0  0  0  0  0  0  0  0  0
  140.1760   68.6310  225.8890 C   0  0  0  0  0  0  0  0  0  0  0  0
  141.8490   71.9760  221.6320 C   0  0  0  0  0  0  0  0  0  0  0  0
  141.9640   72.6900  220.4310 C   0  0  0  0  0  0  0  0  0  0  0  0
  143.1750   72.5150  219.6730 N   0  0  0  0  0  0  0  0  0  0  0  0
  143.8380   73.4390  219.0450 C   0  0  0  0  0  0  0  0  0  0  0  0
  145.1530   73.7090  219.4100 O   0  0  0  0  0  0  0  0  0  0  0  0
  143.2260   74.2130  217.9200 C   0  0  0  0  0  0  0  0  0  0  0  0
  141.4220   77.3010  219.3250 C   0  0  0  0  0  0  0  0  0  0  0  0
  139.4500   79.5120  222.4460 C   0  0  0  0  0  0  0  0  0  0  0  0
  139.8710   80.4650  223.5800 C   0  0  0  0  0  0  0  0  0  0  0  0
  142.6687   81.7099  224.5120 H   0  0  0  0  0  0  0  0  0  0  0  0
  142.9803   80.7355  223.0354 H   0  0  0  0  0  0  0  0  0  0  0  0
  141.6809   81.9758  223.0354 H   0  0  0  0  0  0  0  0  0  0  0  0
  142.7292   78.7275  224.2670 H   0  0  0  0  0  0  0  0  0  0  0  0
  141.0163   78.1337  224.3267 H   0  0  0  0  0  0  0  0  0  0  0  0
  142.6940   78.9172  221.9193 H   0  0  0  0  0  0  0  0  0  0  0  0
  141.7192   77.4258  222.2132 H   0  0  0  0  0  0  0  0  0  0  0  0
  142.2830   80.4302  218.2413 H   0  0  0  0  0  0  0  0  0  0  0  0
  143.5408   79.0668  216.5761 H   0  0  0  0  0  0  0  0  0  0  0  0
  143.4634   76.5786  216.6754 H   0  0  0  0  0  0  0  0  0  0  0  0
  139.0425   74.4835  220.6426 H   0  0  0  0  0  0  0  0  0  0  0  0
  138.8321   73.1477  222.7311 H   0  0  0  0  0  0  0  0  0  0  0  0
  140.7988   71.7328  227.2003 H   0  0  0  0  0  0  0  0  0  0  0  0
  140.6305   70.4238  229.3218 H   0  0  0  0  0  0  0  0  0  0  0  0
  140.1699   67.9714  229.2451 H   0  0  0  0  0  0  0  0  0  0  0  0
  139.8754   66.8217  227.0482 H   0  0  0  0  0  0  0  0  0  0  0  0
  140.0483   68.1232  224.9216 H   0  0  0  0  0  0  0  0  0  0  0  0
  142.6505   71.2852  221.9327 H   0  0  0  0  0  0  0  0  0  0  0  0
  145.6820   74.4460  218.9580 H   0  0  0  0  0  0  0  0  0  0  0  0
  143.9848   74.8716  217.4723 H   0  0  0  0  0  0  0  0  0  0  0  0
  142.8499   73.5160  217.1567 H   0  0  0  0  0  0  0  0  0  0  0  0
  140.7995   76.8040  220.0836 H   0  0  0  0  0  0  0  0  0  0  0  0
  138.7221   80.0201  221.7964 H   0  0  0  0  0  0  0  0  0  0  0  0
  138.9980   78.6106  222.8854 H   0  0  0  0  0  0  0  0  0  0  0  0
  139.8346   81.4956  223.1973 H   0  0  0  0  0  0  0  0  0  0  0  0
  139.1719   80.2978  224.4127 H   0  0  0  0  0  0  0  0  0  0  0  0
  1  2  1  0
  2  3  1  0
  3  4  1  0
  4  5  1  0
  5  6  1  0
  6  7  2  0
  6  8  1  0
  8  9  2  0
  9 10  1  0
 10 11  2  0
 11 12  1  0
 12 13  1  0
 13 14  2  0
 14 15  1  0
 15 16  2  0
 16 17  1  0
 17 18  2  0
 18 19  1  0
 19 20  3  0
 20 21  1  0
 21 22  2  0
 22 23  1  0
 23 24  2  0
 24 25  1  0
 25 26  2  0
 18 27  1  0
 27 28  2  0
 28 29  1  0
 29 30  2  0
 30 31  1  0
 30 32  1  0
 12 33  2  0
  5 34  1  0
 34 35  1  0
 35  2  1  0
 33  8  1  0
 32 13  1  0
 28 15  1  0
 26 21  1  0
  1 36  1  0
  1 37  1  0
  1 38  1  0
  3 39  1  0
  3 40  1  0
  4 41  1  0
  4 42  1  0
  9 43  1  0
 10 44  1  0
 11 45  1  0
 16 46  1  0
 17 47  1  0
 22 48  1  0
 23 49  1  0
 24 50  1  0
 25 51  1  0
 26 52  1  0
 27 53  1  0
 31 54  1  0
 32 55  1  0
 32 56  1  0
 33 57  1  0
 34 58  1  0
 34 59  1  0
 35 60  1  0
 35 61  1  0
M  END
>  <meeko>  (4) 
{"free_energy": -6.35, "intermolecular_energy": -9.63, "internal_energy": -1.29, "cluster_size": 8, "cluster_id": 1, "rank_in_cluster": 3}

$$$$

     RDKit          3D

 61 65  0  0  0  0  0  0  0  0999 V2000
  142.5730   80.9130  223.6860 C   0  0  0  0  0  0  0  0  0  0  0  0
  141.4990   79.9910  224.0970 N   0  0  0  0  0  0  0  0  0  0  0  0
  141.8130   78.5890  223.7420 C   0  0  0  0  0  0  0  0  0  0  0  0
  141.8090   78.3710  222.2200 C   0  0  0  0  0  0  0  0  0  0  0  0
  140.7360   79.1490  221.5840 N   0  0  0  0  0  0  0  0  0  0  0  0
  140.8800   79.6200  220.2290 C   0  0  0  0  0  0  0  0  0  0  0  0
  140.4640   80.7710  219.9250 O   0  0  0  0  0  0  0  0  0  0  0  0
  141.5290   78.7930  219.1870 C   0  0  0  0  0  0  0  0  0  0  0  0
  142.1330   79.4040  218.0770 C   0  0  0  0  0  0  0  0  0  0  0  0
  142.7350   78.6260  217.0860 C   0  0  0  0  0  0  0  0  0  0  0  0
  142.7410   77.2340  217.1920 C   0  0  0  0  0  0  0  0  0  0  0  0
  142.1390   76.6010  218.2940 C   0  0  0  0  0  0  0  0  0  0  0  0
  142.1340   75.1210  218.3920 C   0  0  0  0  0  0  0  0  0  0  0  0
  141.0600   74.5230  218.8190 N   0  0  0  0  0  0  0  0  0  0  0  0
  140.9350   73.6950  219.9880 C   0  0  0  0  0  0  0  0  0  0  0  0
  139.7680   73.8340  220.7530 C   0  0  0  0  0  0  0  0  0  0  0  0
  139.6050   73.1300  221.9460 C   0  0  0  0  0  0  0  0  0  0  0  0
  140.6250   72.2960  222.4090 C   0  0  0  0  0  0  0  0  0  0  0  0
  140.4680   71.5870  223.6520 C   0  0  0  0  0  0  0  0  0  0  0  0
  140.3330   70.9930  224.6920 C   0  0  0  0  0  0  0  0  0  0  0  0
  140.1760   70.2790  225.9310 C   0  0  0  0  0  0  0  0  0  0  0  0
  140.3300   70.9490  227.1530 C   0  0  0  0  0  0  0  0  0  0  0  0
  140.1790   70.2530  228.3570 C   0  0  0  0  0  0  0  0  0  0  0  0
  139.8730   68.8890  228.3440 C   0  0  0  0  0  0  0  0  0  0  0  0
  139.7180   68.2180  227.1270 C   0  0  0  0  0  0  0  0  0  0  0  0
  139.8690   68.9100  225.9210 C   0  0  0  0  0  0  0  0  0  0  0  0
  141.8060   72.1630  221.6710 C   0  0  0  0  0  0  0  0  0  0  0  0
  141.9720   72.8400  220.4550 C   0  0  0  0  0  0  0  0  0  0  0  0
  143.2390   72.6950  219.7860 N   0  0  0  0  0  0  0  0  0  0  0  0
  143.9000   73.6250  219.1660 C   0  0  0  0  0  0  0  0  0  0  0  0
  145.1700   73.9770  219.6110 O   0  0  0  0  0  0  0  0  0  0  0  0
  143.3330   74.3180  217.9740 C   0  0  0  0  0  0  0  0  0  0  0  0
  141.5160   77.3920  219.2770 C   0  0  0  0  0  0  0  0  0  0  0  0
  139.6300   79.6180  222.4220 C   0  0  0  0  0  0  0  0  0  0  0  0
  140.1680   80.4380  223.6100 C   0  0  0  0  0  0  0  0  0  0  0  0
  143.0596   81.3307  224.5797 H   0  0  0  0  0  0  0  0  0  0  0  0
  143.3155   80.3667  223.0858 H   0  0  0  0  0  0  0  0  0  0  0  0
  142.1454   81.7297  223.0858 H   0  0  0  0  0  0  0  0  0  0  0  0
  142.8088   78.3366  224.1353 H   0  0  0  0  0  0  0  0  0  0  0  0
  141.0389   77.9432  224.1820 H   0  0  0  0  0  0  0  0  0  0  0  0
  142.7780   78.6889  221.8076 H   0  0  0  0  0  0  0  0  0  0  0  0
  141.6382   77.3034  222.0172 H   0  0  0  0  0  0  0  0  0  0  0  0
  142.1321   80.5003  217.9874 H   0  0  0  0  0  0  0  0  0  0  0  0
  143.2062   79.1116  216.2187 H   0  0  0  0  0  0  0  0  0  0  0  0
  143.2197   76.6284  216.4084 H   0  0  0  0  0  0  0  0  0  0  0  0
  138.9700   74.5076  220.4074 H   0  0  0  0  0  0  0  0  0  0  0  0
  138.6734   73.2317  222.5220 H   0  0  0  0  0  0  0  0  0  0  0  0
  140.5697   72.0225  227.1649 H   0  0  0  0  0  0  0  0  0  0  0  0
  140.3012   70.7795  229.3150 H   0  0  0  0  0  0  0  0  0  0  0  0
  139.7541   68.3433  229.2916 H   0  0  0  0  0  0  0  0  0  0  0  0
  139.4771   67.1448  227.1182 H   0  0  0  0  0  0  0  0  0  0  0  0
  139.7470   68.3808  224.9644 H   0  0  0  0  0  0  0  0  0  0  0  0
  142.6139   71.5195  222.0495 H   0  0  0  0  0  0  0  0  0  0  0  0
  145.5650   74.8870  219.4010 H   0  0  0  0  0  0  0  0  0  0  0  0
  144.0917   74.9875  217.5424 H   0  0  0  0  0  0  0  0  0  0  0  0
  143.0344   73.5733  217.2214 H   0  0  0  0  0  0  0  0  0  0  0  0
  141.0127   76.9068  220.1262 H   0  0  0  0  0  0  0  0  0  0  0  0
  138.9607   80.2493  221.8191 H   0  0  0  0  0  0  0  0  0  0  0  0
  139.0806   78.7470  222.8087 H   0  0  0  0  0  0  0  0  0  0  0  0
  140.2491   81.4893  223.2967 H   0  0  0  0  0  0  0  0  0  0  0  0
  139.4607   80.2981  224.4407 H   0  0  0  0  0  0  0  0  0  0  0  0
  1  2  1  0
  2  3  1  0
  3  4  1  0
  4  5  1  0
  5  6  1  0
  6  7  2  0
  6  8  1  0
  8  9  2  0
  9 10  1  0
 10 11  2  0
 11 12  1  0
 12 13  1  0
 13 14  2  0
 14 15  1  0
 15 16  2  0
 16 17  1  0
 17 18  2  0
 18 19  1  0
 19 20  3  0
 20 21  1  0
 21 22  2  0
 22 23  1  0
 23 24  2  0
 24 25  1  0
 25 26  2  0
 18 27  1  0
 27 28  2  0
 28 29  1  0
 29 30  2  0
 30 31  1  0
 30 32  1  0
 12 33  2  0
  5 34  1  0
 34 35  1  0
 35  2  1  0
 33  8  1  0
 32 13  1  0
 28 15  1  0
 26 21  1  0
  1 36  1  0
  1 37  1  0
  1 38  1  0
  3 39  1  0
  3 40  1  0
  4 41  1  0
  4 42  1  0
  9 43  1  0
 10 44  1  0
 11 45  1  0
 16 46  1  0
 17 47  1  0
 22 48  1  0
 23 49  1  0
 24 50  1  0
 25 51  1  0
 26 52  1  0
 27 53  1  0
 31 54  1  0
 32 55  1  0
 32 56  1  0
 33 57  1  0
 34 58  1  0
 34 59  1  0
 35 60  1  0
 35 61  1  0
M  END
>  <meeko>  (5) 
{"free_energy": -6.58, "intermolecular_energy": -9.86, "internal_energy": -1.26, "cluster_size": 8, "cluster_id": 1, "rank_in_cluster": 1}

$$$$

     RDKit          3D

 61 65  0  0  0  0  0  0  0  0999 V2000
  143.2670   80.1990  222.9230 C   0  0  0  0  0  0  0  0  0  0  0  0
  141.8400   79.9380  223.1850 N   0  0  0  0  0  0  0  0  0  0  0  0
  141.4940   78.5160  222.9720 C   0  0  0  0  0  0  0  0  0  0  0  0
  141.5890   78.1200  221.4890 C   0  0  0  0  0  0  0  0  0  0  0  0
  141.1100   79.2100  220.6270 N   0  0  0  0  0  0  0  0  0  0  0  0
  141.6390   79.3750  219.2960 C   0  0  0  0  0  0  0  0  0  0  0  0
  141.8650   80.5350  218.8560 O   0  0  0  0  0  0  0  0  0  0  0  0
  141.9490   78.2090  218.4370 C   0  0  0  0  0  0  0  0  0  0  0  0
  142.8750   78.3320  217.3900 C   0  0  0  0  0  0  0  0  0  0  0  0
  143.1600   77.2380  216.5700 C   0  0  0  0  0  0  0  0  0  0  0  0
  142.5250   76.0130  216.7850 C   0  0  0  0  0  0  0  0  0  0  0  0
  141.5910   75.8700  217.8260 C   0  0  0  0  0  0  0  0  0  0  0  0
  140.9070   74.5710  218.0400 C   0  0  0  0  0  0  0  0  0  0  0  0
  140.0110   74.4790  218.9780 N   0  0  0  0  0  0  0  0  0  0  0  0
  140.0420   73.6160  220.1270 C   0  0  0  0  0  0  0  0  0  0  0  0
  139.5850   74.1460  221.3420 C   0  0  0  0  0  0  0  0  0  0  0  0
  139.6610   73.4040  222.5210 C   0  0  0  0  0  0  0  0  0  0  0  0
  140.2240   72.1260  222.5070 C   0  0  0  0  0  0  0  0  0  0  0  0
  140.3240   71.3690  223.7260 C   0  0  0  0  0  0  0  0  0  0  0  0
  140.4110   70.7350  224.7490 C   0  0  0  0  0  0  0  0  0  0  0  0
  140.5200   69.9790  225.9680 C   0  0  0  0  0  0  0  0  0  0  0  0
  140.7580   70.6360  227.1840 C   0  0  0  0  0  0  0  0  0  0  0  0
  140.8660   69.8990  228.3680 C   0  0  0  0  0  0  0  0  0  0  0  0
  140.7360   68.5080  228.3410 C   0  0  0  0  0  0  0  0  0  0  0  0
  140.4980   67.8500  227.1310 C   0  0  0  0  0  0  0  0  0  0  0  0
  140.3900   68.5830  225.9440 C   0  0  0  0  0  0  0  0  0  0  0  0
  140.7070   71.5900  221.3080 C   0  0  0  0  0  0  0  0  0  0  0  0
  140.6110   72.3120  220.1100 C   0  0  0  0  0  0  0  0  0  0  0  0
  141.1830   71.7140  218.9320 N   0  0  0  0  0  0  0  0  0  0  0  0
  141.8480   72.3240  217.9960 C   0  0  0  0  0  0  0  0  0  0  0  0
  143.1700   71.9690  217.7520 O   0  0  0  0  0  0  0  0  0  0  0  0
  141.2160   73.3870  217.1680 C   0  0  0  0  0  0  0  0  0  0  0  0
  141.2950   76.9830  218.6340 C   0  0  0  0  0  0  0  0  0  0  0  0
  140.2600   80.2430  221.2230 C   0  0  0  0  0  0  0  0  0  0  0  0
  140.9600   80.8760  222.4400 C   0  0  0  0  0  0  0  0  0  0  0  0
  143.8032   80.2971  223.8784 H   0  0  0  0  0  0  0  0  0  0  0  0
  143.6929   79.3638  222.3475 H   0  0  0  0  0  0  0  0  0  0  0  0
  143.3697   81.1308  222.3475 H   0  0  0  0  0  0  0  0  0  0  0  0
  142.1877   77.8901  223.5526 H   0  0  0  0  0  0  0  0  0  0  0  0
  140.4550   78.3645  223.3000 H   0  0  0  0  0  0  0  0  0  0  0  0
  142.6375   77.8982  221.2412 H   0  0  0  0  0  0  0  0  0  0  0  0
  140.9603   77.2335  221.3194 H   0  0  0  0  0  0  0  0  0  0  0  0
  143.3785   79.2941  217.2143 H   0  0  0  0  0  0  0  0  0  0  0  0
  143.8876   77.3417  215.7515 H   0  0  0  0  0  0  0  0  0  0  0  0
  142.7568   75.1554  216.1364 H   0  0  0  0  0  0  0  0  0  0  0  0
  139.1608   75.1606  221.3659 H   0  0  0  0  0  0  0  0  0  0  0  0
  139.2774   73.8256  223.4618 H   0  0  0  0  0  0  0  0  0  0  0  0
  140.8597   71.7311  227.2067 H   0  0  0  0  0  0  0  0  0  0  0  0
  141.0535   70.4150  229.3212 H   0  0  0  0  0  0  0  0  0  0  0  0
  140.8210   67.9301  229.2731 H   0  0  0  0  0  0  0  0  0  0  0  0
  140.3955   66.7549  227.1119 H   0  0  0  0  0  0  0  0  0  0  0  0
  140.2031   68.0642  224.9922 H   0  0  0  0  0  0  0  0  0  0  0  0
  141.1672   70.5909  221.3054 H   0  0  0  0  0  0  0  0  0  0  0  0
  143.6030   71.1910  218.2380 H   0  0  0  0  0  0  0  0  0  0  0  0
  141.9068   73.6896  216.3672 H   0  0  0  0  0  0  0  0  0  0  0  0
  140.2872   73.0044  216.7198 H   0  0  0  0  0  0  0  0  0  0  0  0
  140.5415   76.8912  219.4301 H   0  0  0  0  0  0  0  0  0  0  0  0
  140.0582   81.0232  220.4743 H   0  0  0  0  0  0  0  0  0  0  0  0
  139.3166   79.7833  221.5525 H   0  0  0  0  0  0  0  0  0  0  0  0
  141.5724   81.7190  222.0874 H   0  0  0  0  0  0  0  0  0  0  0  0
  140.1680   81.1906  223.1355 H   0  0  0  0  0  0  0  0  0  0  0  0
  1  2  1  0
  2  3  1  0
  3  4  1  0
  4  5  1  0
  5  6  1  0
  6  7  2  0
  6  8  1  0
  8  9  2  0
  9 10  1  0
 10 11  2  0
 11 12  1  0
 12 13  1  0
 13 14  2  0
 14 15  1  0
 15 16  2  0
 16 17  1  0
 17 18  2  0
 18 19  1  0
 19 20  3  0
 20 21  1  0
 21 22  2  0
 22 23  1  0
 23 24  2  0
 24 25  1  0
 25 26  2  0
 18 27  1  0
 27 28  2  0
 28 29  1  0
 29 30  2  0
 30 31  1  0
 30 32  1  0
 12 33  2  0
  5 34  1  0
 34 35  1  0
 35  2  1  0
 33  8  1  0
 32 13  1  0
 28 15  1  0
 26 21  1  0
  1 36  1  0
  1 37  1  0
  1 38  1  0
  3 39  1  0
  3 40  1  0
  4 41  1  0
  4 42  1  0
  9 43  1  0
 10 44  1  0
 11 45  1  0
 16 46  1  0
 17 47  1  0
 22 48  1  0
 23 49  1  0
 24 50  1  0
 25 51  1  0
 26 52  1  0
 27 53  1  0
 31 54  1  0
 32 55  1  0
 32 56  1  0
 33 57  1  0
 34 58  1  0
 34 59  1  0
 35 60  1  0
 35 61  1  0
M  END
>  <meeko>  (6) 
{"free_energy": -5.07, "intermolecular_energy": -8.36, "internal_energy": -1.28, "cluster_size": 8, "cluster_id": 1, "rank_in_cluster": 8}

$$$$

     RDKit          3D

 61 65  0  0  0  0  0  0  0  0999 V2000
  139.5550   71.0180  228.3550 C   0  0  0  0  0  0  0  0  0  0  0  0
  140.9470   70.6160  228.0810 N   0  0  0  0  0  0  0  0  0  0  0  0
  141.3980   71.0720  226.7480 C   0  0  0  0  0  0  0  0  0  0  0  0
  140.6610   70.3380  225.6140 C   0  0  0  0  0  0  0  0  0  0  0  0
  140.4460   68.9260  225.9600 N   0  0  0  0  0  0  0  0  0  0  0  0
  139.3110   68.2090  225.4330 C   0  0  0  0  0  0  0  0  0  0  0  0
  138.6910   67.3980  226.1730 O   0  0  0  0  0  0  0  0  0  0  0  0
  138.8390   68.4220  224.0460 C   0  0  0  0  0  0  0  0  0  0  0  0
  139.0990   67.4590  223.0580 C   0  0  0  0  0  0  0  0  0  0  0  0
  138.6660   67.6630  221.7460 C   0  0  0  0  0  0  0  0  0  0  0  0
  137.9710   68.8250  221.4070 C   0  0  0  0  0  0  0  0  0  0  0  0
  137.7030   69.8040  222.3800 C   0  0  0  0  0  0  0  0  0  0  0  0
  136.9780   71.0440  222.0100 C   0  0  0  0  0  0  0  0  0  0  0  0
  135.7800   71.2340  222.4780 N   0  0  0  0  0  0  0  0  0  0  0  0
  135.3500   72.2800  223.3650 C   0  0  0  0  0  0  0  0  0  0  0  0
  134.3000   71.9870  224.2460 C   0  0  0  0  0  0  0  0  0  0  0  0
  133.7670   72.9700  225.0800 C   0  0  0  0  0  0  0  0  0  0  0  0
  134.2610   74.2750  225.0240 C   0  0  0  0  0  0  0  0  0  0  0  0
  133.6960   75.2960  225.8670 C   0  0  0  0  0  0  0  0  0  0  0  0
  133.2230   76.1490  226.5760 C   0  0  0  0  0  0  0  0  0  0  0  0
  132.6530   77.1660  227.4200 C   0  0  0  0  0  0  0  0  0  0  0  0
  131.4700   76.9100  228.1270 C   0  0  0  0  0  0  0  0  0  0  0  0
  130.9160   77.9000  228.9450 C   0  0  0  0  0  0  0  0  0  0  0  0
  131.5420   79.1450  229.0590 C   0  0  0  0  0  0  0  0  0  0  0  0
  132.7230   79.4030  228.3560 C   0  0  0  0  0  0  0  0  0  0  0  0
  133.2790   78.4150  227.5360 C   0  0  0  0  0  0  0  0  0  0  0  0
  135.2930   74.5930  224.1340 C   0  0  0  0  0  0  0  0  0  0  0  0
  135.8580   73.6090  223.3110 C   0  0  0  0  0  0  0  0  0  0  0  0
  136.8760   74.0290  222.3830 N   0  0  0  0  0  0  0  0  0  0  0  0
  137.8660   73.3140  221.9410 C   0  0  0  0  0  0  0  0  0  0  0  0
  139.1710   73.6920  222.2380 O   0  0  0  0  0  0  0  0  0  0  0  0
  137.6260   72.0820  221.1390 C   0  0  0  0  0  0  0  0  0  0  0  0
  138.1610   69.6000  223.6950 C   0  0  0  0  0  0  0  0  0  0  0  0
  141.2740   68.3360  227.0150 C   0  0  0  0  0  0  0  0  0  0  0  0
  141.1590   69.1630  228.3100 C   0  0  0  0  0  0  0  0  0  0  0  0
  139.3940   71.0645  229.4422 H   0  0  0  0  0  0  0  0  0  0  0  0
  139.3655   72.0076  227.9136 H   0  0  0  0  0  0  0  0  0  0  0  0
  138.8671   70.2818  227.9136 H   0  0  0  0  0  0  0  0  0  0  0  0
  141.2064   72.1514  226.6572 H   0  0  0  0  0  0  0  0  0  0  0  0
  142.4719   70.8523  226.6565 H   0  0  0  0  0  0  0  0  0  0  0  0
  139.6869   70.8204  225.4454 H   0  0  0  0  0  0  0  0  0  0  0  0
  141.2758   70.3883  224.7032 H   0  0  0  0  0  0  0  0  0  0  0  0
  139.6457   66.5406  223.3182 H   0  0  0  0  0  0  0  0  0  0  0  0
  138.8735   66.9048  220.9766 H   0  0  0  0  0  0  0  0  0  0  0  0
  137.6307   68.9758  220.3719 H   0  0  0  0  0  0  0  0  0  0  0  0
  133.8902   70.9668  224.2803 H   0  0  0  0  0  0  0  0  0  0  0  0
  132.9581   72.7174  225.7813 H   0  0  0  0  0  0  0  0  0  0  0  0
  130.9774   75.9305  228.0385 H   0  0  0  0  0  0  0  0  0  0  0  0
  129.9872   77.6990  229.4990 H   0  0  0  0  0  0  0  0  0  0  0  0
  131.1049   79.9226  229.7026 H   0  0  0  0  0  0  0  0  0  0  0  0
  133.2149   80.3826  228.4477 H   0  0  0  0  0  0  0  0  0  0  0  0
  134.2075   78.6183  226.9823 H   0  0  0  0  0  0  0  0  0  0  0  0
  135.6650   75.6268  224.0796 H   0  0  0  0  0  0  0  0  0  0  0  0
  139.3850   74.2320  223.0700 H   0  0  0  0  0  0  0  0  0  0  0  0
  136.9641   72.3172  220.2925 H   0  0  0  0  0  0  0  0  0  0  0  0
  138.5831   71.6980  220.7562 H   0  0  0  0  0  0  0  0  0  0  0  0
  137.9855   70.3733  224.4573 H   0  0  0  0  0  0  0  0  0  0  0  0
  140.9353   67.3077  227.2098 H   0  0  0  0  0  0  0  0  0  0  0  0
  142.3235   68.3309  226.6856 H   0  0  0  0  0  0  0  0  0  0  0  0
  140.3098   68.7770  228.8930 H   0  0  0  0  0  0  0  0  0  0  0  0
  142.1174   69.0603  228.8400 H   0  0  0  0  0  0  0  0  0  0  0  0
  1  2  1  0
  2  3  1  0
  3  4  1  0
  4  5  1  0
  5  6  1  0
  6  7  2  0
  6  8  1  0
  8  9  2  0
  9 10  1  0
 10 11  2  0
 11 12  1  0
 12 13  1  0
 13 14  2  0
 14 15  1  0
 15 16  2  0
 16 17  1  0
 17 18  2  0
 18 19  1  0
 19 20  3  0
 20 21  1  0
 21 22  2  0
 22 23  1  0
 23 24  2  0
 24 25  1  0
 25 26  2  0
 18 27  1  0
 27 28  2  0
 28 29  1  0
 29 30  2  0
 30 31  1  0
 30 32  1  0
 12 33  2  0
  5 34  1  0
 34 35  1  0
 35  2  1  0
 33  8  1  0
 32 13  1  0
 28 15  1  0
 26 21  1  0
  1 36  1  0
  1 37  1  0
  1 38  1  0
  3 39  1  0
  3 40  1  0
  4 41  1  0
  4 42  1  0
  9 43  1  0
 10 44  1  0
 11 45  1  0
 16 46  1  0
 17 47  1  0
 22 48  1  0
 23 49  1  0
 24 50  1  0
 25 51  1  0
 26 52  1  0
 27 53  1  0
 31 54  1  0
 32 55  1  0
 32 56  1  0
 33 57  1  0
 34 58  1  0
 34 59  1  0
 35 60  1  0
 35 61  1  0
M  END
>  <meeko>  (7) 
{"free_energy": -5.35, "intermolecular_energy": -8.63, "internal_energy": -1.23, "cluster_size": 1, "cluster_id": 5, "rank_in_cluster": 1}

$$$$

     RDKit          3D

 61 65  0  0  0  0  0  0  0  0999 V2000
  145.3600   71.3740  219.6040 C   0  0  0  0  0  0  0  0  0  0  0  0
  145.9680   72.6140  219.0880 N   0  0  0  0  0  0  0  0  0  0  0  0
  145.8860   73.7160  220.0710 C   0  0  0  0  0  0  0  0  0  0  0  0
  144.4350   74.1790  220.2900 C   0  0  0  0  0  0  0  0  0  0  0  0
  143.6860   74.1600  219.0260 N   0  0  0  0  0  0  0  0  0  0  0  0
  142.2620   73.9330  219.0240 C   0  0  0  0  0  0  0  0  0  0  0  0
  141.7490   73.2140  218.1240 O   0  0  0  0  0  0  0  0  0  0  0  0
  141.3860   74.5060  220.0710 C   0  0  0  0  0  0  0  0  0  0  0  0
  140.7000   73.6590  220.9550 C   0  0  0  0  0  0  0  0  0  0  0  0
  139.8630   74.1950  221.9360 C   0  0  0  0  0  0  0  0  0  0  0  0
  139.7020   75.5780  222.0450 C   0  0  0  0  0  0  0  0  0  0  0  0
  140.3770   76.4440  221.1660 C   0  0  0  0  0  0  0  0  0  0  0  0
  140.1890   77.9110  221.2760 C   0  0  0  0  0  0  0  0  0  0  0  0
  138.9840   78.3820  221.4020 N   0  0  0  0  0  0  0  0  0  0  0  0
  138.4430   79.0930  222.5290 C   0  0  0  0  0  0  0  0  0  0  0  0
  137.0740   78.9390  222.7900 C   0  0  0  0  0  0  0  0  0  0  0  0
  136.4540   79.6580  223.8120 C   0  0  0  0  0  0  0  0  0  0  0  0
  137.1920   80.5680  224.5720 C   0  0  0  0  0  0  0  0  0  0  0  0
  136.5480   81.3290  225.6110 C   0  0  0  0  0  0  0  0  0  0  0  0
  136.0090   81.9630  226.4830 C   0  0  0  0  0  0  0  0  0  0  0  0
  135.3700   82.7200  227.5260 C   0  0  0  0  0  0  0  0  0  0  0  0
  135.1210   84.0890  227.3500 C   0  0  0  0  0  0  0  0  0  0  0  0
  134.5010   84.8240  228.3670 C   0  0  0  0  0  0  0  0  0  0  0  0
  134.1300   84.1950  229.5590 C   0  0  0  0  0  0  0  0  0  0  0  0
  134.3760   82.8310  229.7370 C   0  0  0  0  0  0  0  0  0  0  0  0
  134.9960   82.0920  228.7240 C   0  0  0  0  0  0  0  0  0  0  0  0
  138.5540   80.7530  224.3100 C   0  0  0  0  0  0  0  0  0  0  0  0
  139.1970   80.0150  223.3070 C   0  0  0  0  0  0  0  0  0  0  0  0
  140.5860   80.3060  223.0620 N   0  0  0  0  0  0  0  0  0  0  0  0
  141.4870   79.4780  222.6240 C   0  0  0  0  0  0  0  0  0  0  0  0
  142.5790   79.1650  223.4260 O   0  0  0  0  0  0  0  0  0  0  0  0
  141.3700   78.8400  221.2770 C   0  0  0  0  0  0  0  0  0  0  0  0
  141.2020   75.8940  220.1680 C   0  0  0  0  0  0  0  0  0  0  0  0
  144.4420   74.1560  217.7710 C   0  0  0  0  0  0  0  0  0  0  0  0
  145.4350   72.9780  217.7500 C   0  0  0  0  0  0  0  0  0  0  0  0
  145.3686   71.3915  220.7038 H   0  0  0  0  0  0  0  0  0  0  0  0
  144.3225   71.2981  219.2466 H   0  0  0  0  0  0  0  0  0  0  0  0
  145.9353   70.5072  219.2466 H   0  0  0  0  0  0  0  0  0  0  0  0
  146.2977   73.3690  221.0302 H   0  0  0  0  0  0  0  0  0  0  0  0
  146.4614   74.5676  219.6790 H   0  0  0  0  0  0  0  0  0  0  0  0
  143.9460   73.5056  221.0093 H   0  0  0  0  0  0  0  0  0  0  0  0
  144.4475   75.2084  220.6775 H   0  0  0  0  0  0  0  0  0  0  0  0
  140.8220   72.5687  220.8749 H   0  0  0  0  0  0  0  0  0  0  0  0
  139.3284   73.5252  222.6256 H   0  0  0  0  0  0  0  0  0  0  0  0
  139.0436   75.9923  222.8227 H   0  0  0  0  0  0  0  0  0  0  0  0
  136.4807   78.2416  222.1804 H   0  0  0  0  0  0  0  0  0  0  0  0
  135.3841   79.5083  224.0192 H   0  0  0  0  0  0  0  0  0  0  0  0
  135.4130   84.5851  226.4126 H   0  0  0  0  0  0  0  0  0  0  0  0
  134.3055   85.8975  228.2282 H   0  0  0  0  0  0  0  0  0  0  0  0
  133.6439   84.7744  230.3577 H   0  0  0  0  0  0  0  0  0  0  0  0
  134.0817   82.3377  230.6751 H   0  0  0  0  0  0  0  0  0  0  0  0
  135.1904   81.0187  228.8664 H   0  0  0  0  0  0  0  0  0  0  0  0
  139.1263   81.4858  224.8978 H   0  0  0  0  0  0  0  0  0  0  0  0
  143.3560   78.6220  223.0660 H   0  0  0  0  0  0  0  0  0  0  0  0
  141.2282   79.6175  220.5119 H   0  0  0  0  0  0  0  0  0  0  0  0
  142.2869   78.2753  221.0526 H   0  0  0  0  0  0  0  0  0  0  0  0
  141.7093   76.5602  219.4547 H   0  0  0  0  0  0  0  0  0  0  0  0
  143.7437   74.0573  216.9268 H   0  0  0  0  0  0  0  0  0  0  0  0
  145.0026   75.0987  217.6874 H   0  0  0  0  0  0  0  0  0  0  0  0
  144.9214   72.0999  217.3315 H   0  0  0  0  0  0  0  0  0  0  0  0
  146.2938   73.2961  217.1407 H   0  0  0  0  0  0  0  0  0  0  0  0
  1  2  1  0
  2  3  1  0
  3  4  1  0
  4  5  1  0
  5  6  1  0
  6  7  2  0
  6  8  1  0
  8  9  2  0
  9 10  1  0
 10 11  2  0
 11 12  1  0
 12 13  1  0
 13 14  2  0
 14 15  1  0
 15 16  2  0
 16 17  1  0
 17 18  2  0
 18 19  1  0
 19 20  3  0
 20 21  1  0
 21 22  2  0
 22 23  1  0
 23 24  2  0
 24 25  1  0
 25 26  2  0
 18 27  1  0
 27 28  2  0
 28 29  1  0
 29 30  2  0
 30 31  1  0
 30 32  1  0
 12 33  2  0
  5 34  1  0
 34 35  1  0
 35  2  1  0
 33  8  1  0
 32 13  1  0
 28 15  1  0
 26 21  1  0
  1 36  1  0
  1 37  1  0
  1 38  1  0
  3 39  1  0
  3 40  1  0
  4 41  1  0
  4 42  1  0
  9 43  1  0
 10 44  1  0
 11 45  1  0
 16 46  1  0
 17 47  1  0
 22 48  1  0
 23 49  1  0
 24 50  1  0
 25 51  1  0
 26 52  1  0
 27 53  1  0
 31 54  1  0
 32 55  1  0
 32 56  1  0
 33 57  1  0
 34 58  1  0
 34 59  1  0
 35 60  1  0
 35 61  1  0
M  END
>  <meeko>  (8) 
{"free_energy": -5.66, "intermolecular_energy": -8.94, "internal_energy": -1.19, "cluster_size": 1, "cluster_id": 3, "rank_in_cluster": 1}

$$$$

     RDKit          3D

 61 65  0  0  0  0  0  0  0  0999 V2000
  142.6180   70.1960  218.1100 C   0  0  0  0  0  0  0  0  0  0  0  0
  143.1140   70.1880  219.4990 N   0  0  0  0  0  0  0  0  0  0  0  0
  142.3190   71.0800  220.3700 C   0  0  0  0  0  0  0  0  0  0  0  0
  142.5180   72.5610  220.0050 C   0  0  0  0  0  0  0  0  0  0  0  0
  143.9150   72.8230  219.6320 N   0  0  0  0  0  0  0  0  0  0  0  0
  144.2370   73.8730  218.6960 C   0  0  0  0  0  0  0  0  0  0  0  0
  145.1430   73.6840  217.8390 O   0  0  0  0  0  0  0  0  0  0  0  0
  143.5110   75.1630  218.7010 C   0  0  0  0  0  0  0  0  0  0  0  0
  143.4610   75.9470  217.5390 C   0  0  0  0  0  0  0  0  0  0  0  0
  142.7880   77.1710  217.5440 C   0  0  0  0  0  0  0  0  0  0  0  0
  142.1600   77.6240  218.7060 C   0  0  0  0  0  0  0  0  0  0  0  0
  142.2010   76.8550  219.8830 C   0  0  0  0  0  0  0  0  0  0  0  0
  141.5460   77.3480  221.1190 C   0  0  0  0  0  0  0  0  0  0  0  0
  141.2780   78.6170  221.2240 N   0  0  0  0  0  0  0  0  0  0  0  0
  140.3600   79.2370  222.1400 C   0  0  0  0  0  0  0  0  0  0  0  0
  140.6740   80.5270  222.5910 C   0  0  0  0  0  0  0  0  0  0  0  0
  139.8810   81.1650  223.5450 C   0  0  0  0  0  0  0  0  0  0  0  0
  138.7740   80.5080  224.0850 C   0  0  0  0  0  0  0  0  0  0  0  0
  137.9690   81.1570  225.0870 C   0  0  0  0  0  0  0  0  0  0  0  0
  137.2920   81.6970  225.9250 C   0  0  0  0  0  0  0  0  0  0  0  0
  136.4890   82.3450  226.9280 C   0  0  0  0  0  0  0  0  0  0  0  0
  135.9540   81.6010  227.9890 C   0  0  0  0  0  0  0  0  0  0  0  0
  135.1720   82.2320  228.9620 C   0  0  0  0  0  0  0  0  0  0  0  0
  134.9230   83.6050  228.8790 C   0  0  0  0  0  0  0  0  0  0  0  0
  135.4570   84.3500  227.8230 C   0  0  0  0  0  0  0  0  0  0  0  0
  136.2390   83.7230  226.8470 C   0  0  0  0  0  0  0  0  0  0  0  0
  138.4590   79.2110  223.6640 C   0  0  0  0  0  0  0  0  0  0  0  0
  139.2290   78.5690  222.6850 C   0  0  0  0  0  0  0  0  0  0  0  0
  138.8730   77.2150  222.3490 N   0  0  0  0  0  0  0  0  0  0  0  0
  139.6850   76.2110  222.2070 C   0  0  0  0  0  0  0  0  0  0  0  0
  139.1690   74.9310  222.0300 O   0  0  0  0  0  0  0  0  0  0  0  0
  141.1640   76.4000  222.2190 C   0  0  0  0  0  0  0  0  0  0  0  0
  142.8990   75.6330  219.8740 C   0  0  0  0  0  0  0  0  0  0  0  0
  144.9380   71.8630  220.0540 C   0  0  0  0  0  0  0  0  0  0  0  0
  144.5760   70.4470  219.5660 C   0  0  0  0  0  0  0  0  0  0  0  0
  141.5181   70.2137  218.1135 H   0  0  0  0  0  0  0  0  0  0  0  0
  142.9974   71.0881  217.5903 H   0  0  0  0  0  0  0  0  0  0  0  0
  142.9685   69.2921  217.5903 H   0  0  0  0  0  0  0  0  0  0  0  0
  141.2541   70.8267  220.2618 H   0  0  0  0  0  0  0  0  0  0  0  0
  142.6566   70.9351  221.4068 H   0  0  0  0  0  0  0  0  0  0  0  0
  141.8647   72.8145  219.1571 H   0  0  0  0  0  0  0  0  0  0  0  0
  142.2652   73.1771  220.8805 H   0  0  0  0  0  0  0  0  0  0  0  0
  143.9537   75.5965  216.6201 H   0  0  0  0  0  0  0  0  0  0  0  0
  142.7526   77.7804  216.6290 H   0  0  0  0  0  0  0  0  0  0  0  0
  141.6301   78.5879  218.7009 H   0  0  0  0  0  0  0  0  0  0  0  0
  141.5576   81.0429  222.1871 H   0  0  0  0  0  0  0  0  0  0  0  0
  140.1280   82.1859  223.8718 H   0  0  0  0  0  0  0  0  0  0  0  0
  136.1493   80.5206  228.0563 H   0  0  0  0  0  0  0  0  0  0  0  0
  134.7524   81.6470  229.7937 H   0  0  0  0  0  0  0  0  0  0  0  0
  134.3069   84.0994  229.6445 H   0  0  0  0  0  0  0  0  0  0  0  0
  135.2619   85.4307  227.7596 H   0  0  0  0  0  0  0  0  0  0  0  0
  136.6577   84.3103  226.0164 H   0  0  0  0  0  0  0  0  0  0  0  0
  137.5974   78.6897  224.1066 H   0  0  0  0  0  0  0  0  0  0  0  0
  138.8200   74.3930  222.8150 H   0  0  0  0  0  0  0  0  0  0  0  0
  141.4745   76.8163  223.1887 H   0  0  0  0  0  0  0  0  0  0  0  0
  141.6630   75.4320  222.0645 H   0  0  0  0  0  0  0  0  0  0  0  0
  142.9659   75.0388  220.7973 H   0  0  0  0  0  0  0  0  0  0  0  0
  145.9088   72.1565  219.6281 H   0  0  0  0  0  0  0  0  0  0  0  0
  144.9941   71.8595  221.1526 H   0  0  0  0  0  0  0  0  0  0  0  0
  144.9986   70.3090  218.5598 H   0  0  0  0  0  0  0  0  0  0  0  0
  144.9919   69.7407  220.2996 H   0  0  0  0  0  0  0  0  0  0  0  0
  1  2  1  0
  2  3  1  0
  3  4  1  0
  4  5  1  0
  5  6  1  0
  6  7  2  0
  6  8  1  0
  8  9  2  0
  9 10  1  0
 10 11  2  0
 11 12  1  0
 12 13  1  0
 13 14  2  0
 14 15  1  0
 15 16  2  0
 16 17  1  0
 17 18  2  0
 18 19  1  0
 19 20  3  0
 20 21  1  0
 21 22  2  0
 22 23  1  0
 23 24  2  0
 24 25  1  0
 25 26  2  0
 18 27  1  0
 27 28  2  0
 28 29  1  0
 29 30  2  0
 30 31  1  0
 30 32  1  0
 12 33  2  0
  5 34  1  0
 34 35  1  0
 35  2  1  0
 33  8  1  0
 32 13  1  0
 28 15  1  0
 26 21  1  0
  1 36  1  0
  1 37  1  0
  1 38  1  0
  3 39  1  0
  3 40  1  0
  4 41  1  0
  4 42  1  0
  9 43  1  0
 10 44  1  0
 11 45  1  0
 16 46  1  0
 17 47  1  0
 22 48  1  0
 23 49  1  0
 24 50  1  0
 25 51  1  0
 26 52  1  0
 27 53  1  0
 31 54  1  0
 32 55  1  0
 32 56  1  0
 33 57  1  0
 34 58  1  0
 34 59  1  0
 35 60  1  0
 35 61  1  0
M  END
>  <meeko>  (9) 
{"free_energy": -5.64, "intermolecular_energy": -8.92, "internal_energy": -1.14, "cluster_size": 3, "cluster_id": 2, "rank_in_cluster": 2}

$$$$

     RDKit          3D

 61 65  0  0  0  0  0  0  0  0999 V2000
  143.0080   78.4230  212.7680 C   0  0  0  0  0  0  0  0  0  0  0  0
  141.9000   79.3040  213.1780 N   0  0  0  0  0  0  0  0  0  0  0  0
  142.1670   79.9500  214.4820 C   0  0  0  0  0  0  0  0  0  0  0  0
  142.1640   78.9320  215.6350 C   0  0  0  0  0  0  0  0  0  0  0  0
  141.1230   77.9150  215.4300 N   0  0  0  0  0  0  0  0  0  0  0  0
  141.2900   76.5820  215.9530 C   0  0  0  0  0  0  0  0  0  0  0  0
  140.9160   75.5930  215.2640 O   0  0  0  0  0  0  0  0  0  0  0  0
  141.9160   76.3410  217.2730 C   0  0  0  0  0  0  0  0  0  0  0  0
  143.0690   75.5480  217.3710 C   0  0  0  0  0  0  0  0  0  0  0  0
  143.6540   75.3090  218.6160 C   0  0  0  0  0  0  0  0  0  0  0  0
  143.0970   75.8570  219.7730 C   0  0  0  0  0  0  0  0  0  0  0  0
  141.9390   76.6520  219.6970 C   0  0  0  0  0  0  0  0  0  0  0  0
  141.3420   77.2180  220.9310 C   0  0  0  0  0  0  0  0  0  0  0  0
  140.9730   78.4650  220.9350 N   0  0  0  0  0  0  0  0  0  0  0  0
  140.1030   79.1100  221.8810 C   0  0  0  0  0  0  0  0  0  0  0  0
  140.3580   80.4560  222.1760 C   0  0  0  0  0  0  0  0  0  0  0  0
  139.6150   81.1310  223.1450 C   0  0  0  0  0  0  0  0  0  0  0  0
  138.6200   80.4570  223.8560 C   0  0  0  0  0  0  0  0  0  0  0  0
  137.8680   81.1460  224.8720 C   0  0  0  0  0  0  0  0  0  0  0  0
  137.2400   81.7250  225.7230 C   0  0  0  0  0  0  0  0  0  0  0  0
  136.4930   82.4150  226.7410 C   0  0  0  0  0  0  0  0  0  0  0  0
  136.2890   83.7990  226.6480 C   0  0  0  0  0  0  0  0  0  0  0  0
  135.5650   84.4680  227.6400 C   0  0  0  0  0  0  0  0  0  0  0  0
  135.0430   83.7580  228.7250 C   0  0  0  0  0  0  0  0  0  0  0  0
  135.2440   82.3780  228.8210 C   0  0  0  0  0  0  0  0  0  0  0  0
  135.9690   81.7050  227.8310 C   0  0  0  0  0  0  0  0  0  0  0  0
  138.3670   79.1060  223.5920 C   0  0  0  0  0  0  0  0  0  0  0  0
  139.0850   78.4230  222.6010 C   0  0  0  0  0  0  0  0  0  0  0  0
  138.8050   77.0210  222.4310 N   0  0  0  0  0  0  0  0  0  0  0  0
  139.6750   76.0670  222.2930 C   0  0  0  0  0  0  0  0  0  0  0  0
  139.2440   74.7440  222.2680 O   0  0  0  0  0  0  0  0  0  0  0  0
  141.1320   76.3620  222.1470 C   0  0  0  0  0  0  0  0  0  0  0  0
  141.3440   76.8700  218.4410 C   0  0  0  0  0  0  0  0  0  0  0  0
  140.0280   78.2200  214.5050 C   0  0  0  0  0  0  0  0  0  0  0  0
  140.5880   78.6080  213.1230 C   0  0  0  0  0  0  0  0  0  0  0  0
  143.5095   78.0242  213.6622 H   0  0  0  0  0  0  0  0  0  0  0  0
  142.6118   77.5906  212.1679 H   0  0  0  0  0  0  0  0  0  0  0  0
  143.7297   78.9966  212.1679 H   0  0  0  0  0  0  0  0  0  0  0  0
  143.1512   80.4396  214.4419 H   0  0  0  0  0  0  0  0  0  0  0  0
  141.3684   80.6825  214.6706 H   0  0  0  0  0  0  0  0  0  0  0  0
  143.1459   78.4385  215.6830 H   0  0  0  0  0  0  0  0  0  0  0  0
  141.9569   79.4643  216.5751 H   0  0  0  0  0  0  0  0  0  0  0  0
  143.5138   75.1130  216.4638 H   0  0  0  0  0  0  0  0  0  0  0  0
  144.5579   74.6861  218.6856 H   0  0  0  0  0  0  0  0  0  0  0  0
  143.5663   75.6660  220.7494 H   0  0  0  0  0  0  0  0  0  0  0  0
  141.1552   80.9879  221.6360 H   0  0  0  0  0  0  0  0  0  0  0  0
  139.8130   82.1937  223.3488 H   0  0  0  0  0  0  0  0  0  0  0  0
  136.6986   84.3589  225.7943 H   0  0  0  0  0  0  0  0  0  0  0  0
  135.4062   85.5540  227.5663 H   0  0  0  0  0  0  0  0  0  0  0  0
  134.4734   84.2858  229.5041 H   0  0  0  0  0  0  0  0  0  0  0  0
  134.8321   81.8207  229.6752 H   0  0  0  0  0  0  0  0  0  0  0  0
  136.1278   80.6192  227.9078 H   0  0  0  0  0  0  0  0  0  0  0  0
  137.5959   78.5743  224.1688 H   0  0  0  0  0  0  0  0  0  0  0  0
  138.4160   74.4530  222.7770 H   0  0  0  0  0  0  0  0  0  0  0  0
  141.4907   76.8958  223.0394 H   0  0  0  0  0  0  0  0  0  0  0  0
  141.6910   75.4209  222.0380 H   0  0  0  0  0  0  0  0  0  0  0  0
  140.4194   77.4621  218.3732 H   0  0  0  0  0  0  0  0  0  0  0  0
  139.3842   77.3342  214.4001 H   0  0  0  0  0  0  0  0  0  0  0  0
  139.4461   79.0634  214.9050 H   0  0  0  0  0  0  0  0  0  0  0  0
  140.7074   77.6907  212.5278 H   0  0  0  0  0  0  0  0  0  0  0  0
  139.8717   79.3124  212.6748 H   0  0  0  0  0  0  0  0  0  0  0  0
  1  2  1  0
  2  3  1  0
  3  4  1  0
  4  5  1  0
  5  6  1  0
  6  7  2  0
  6  8  1  0
  8  9  2  0
  9 10  1  0
 10 11  2  0
 11 12  1  0
 12 13  1  0
 13 14  2  0
 14 15  1  0
 15 16  2  0
 16 17  1  0
 17 18  2  0
 18 19  1  0
 19 20  3  0
 20 21  1  0
 21 22  2  0
 22 23  1  0
 23 24  2  0
 24 25  1  0
 25 26  2  0
 18 27  1  0
 27 28  2  0
 28 29  1  0
 29 30  2  0
 30 31  1  0
 30 32  1  0
 12 33  2  0
  5 34  1  0
 34 35  1  0
 35  2  1  0
 33  8  1  0
 32 13  1  0
 28 15  1  0
 26 21  1  0
  1 36  1  0
  1 37  1  0
  1 38  1  0
  3 39  1  0
  3 40  1  0
  4 41  1  0
  4 42  1  0
  9 43  1  0
 10 44  1  0
 11 45  1  0
 16 46  1  0
 17 47  1  0
 22 48  1  0
 23 49  1  0
 24 50  1  0
 25 51  1  0
 26 52  1  0
 27 53  1  0
 31 54  1  0
 32 55  1  0
 32 56  1  0
 33 57  1  0
 34 58  1  0
 34 59  1  0
 35 60  1  0
 35 61  1  0
M  END
>  <meeko>  (10) 
{"free_energy": -4.65, "intermolecular_energy": -7.93, "internal_energy": -1.17, "cluster_size": 1, "cluster_id": 9, "rank_in_cluster": 1}

$$$$

     RDKit          3D

 61 65  0  0  0  0  0  0  0  0999 V2000
  141.9670   81.6390  223.4180 C   0  0  0  0  0  0  0  0  0  0  0  0
  141.1250   80.5740  223.9910 N   0  0  0  0  0  0  0  0  0  0  0  0
  141.7380   79.2390  223.8220 C   0  0  0  0  0  0  0  0  0  0  0  0
  141.7740   78.8100  222.3450 C   0  0  0  0  0  0  0  0  0  0  0  0
  140.5540   79.2380  221.6480 N   0  0  0  0  0  0  0  0  0  0  0  0
  140.5830   79.5310  220.2360 C   0  0  0  0  0  0  0  0  0  0  0  0
  139.9220   80.5090  219.7910 O   0  0  0  0  0  0  0  0  0  0  0  0
  141.3930   78.7250  219.2950 C   0  0  0  0  0  0  0  0  0  0  0  0
  142.2000   79.3590  218.3380 C   0  0  0  0  0  0  0  0  0  0  0  0
  142.9560   78.6010  217.4410 C   0  0  0  0  0  0  0  0  0  0  0  0
  142.9150   77.2060  217.4890 C   0  0  0  0  0  0  0  0  0  0  0  0
  142.1090   76.5510  218.4380 C   0  0  0  0  0  0  0  0  0  0  0  0
  142.0560   75.0690  218.4730 C   0  0  0  0  0  0  0  0  0  0  0  0
  140.9920   74.4890  218.9460 N   0  0  0  0  0  0  0  0  0  0  0  0
  140.9130   73.6210  220.0890 C   0  0  0  0  0  0  0  0  0  0  0  0
  139.8060   73.7720  220.9370 C   0  0  0  0  0  0  0  0  0  0  0  0
  139.6960   73.0280  222.1110 C   0  0  0  0  0  0  0  0  0  0  0  0
  140.7110   72.1380  222.4720 C   0  0  0  0  0  0  0  0  0  0  0  0
  140.6100   71.3880  223.6960 C   0  0  0  0  0  0  0  0  0  0  0  0
  140.5240   70.7560  224.7190 C   0  0  0  0  0  0  0  0  0  0  0  0
  140.4270   70.0000  225.9400 C   0  0  0  0  0  0  0  0  0  0  0  0
  140.5540   70.6450  227.1780 C   0  0  0  0  0  0  0  0  0  0  0  0
  140.4610   69.9090  228.3640 C   0  0  0  0  0  0  0  0  0  0  0  0
  140.2420   68.5290  228.3160 C   0  0  0  0  0  0  0  0  0  0  0  0
  140.1140   67.8830  227.0820 C   0  0  0  0  0  0  0  0  0  0  0  0
  140.2070   68.6160  225.8940 C   0  0  0  0  0  0  0  0  0  0  0  0
  141.8340   71.9920  221.6500 C   0  0  0  0  0  0  0  0  0  0  0  0
  141.9440   72.7100  220.4520 C   0  0  0  0  0  0  0  0  0  0  0  0
  143.1570   72.5450  219.6930 N   0  0  0  0  0  0  0  0  0  0  0  0
  143.8100   73.4740  219.0620 C   0  0  0  0  0  0  0  0  0  0  0  0
  145.1210   73.7600  219.4280 O   0  0  0  0  0  0  0  0  0  0  0  0
  143.1940   74.2450  217.9400 C   0  0  0  0  0  0  0  0  0  0  0  0
  141.3350   77.3220  219.3240 C   0  0  0  0  0  0  0  0  0  0  0  0
  139.3750   79.5690  222.4520 C   0  0  0  0  0  0  0  0  0  0  0  0
  139.7260   80.6480  223.4950 C   0  0  0  0  0  0  0  0  0  0  0  0
  142.4266   82.2203  224.2309 H   0  0  0  0  0  0  0  0  0  0  0  0
  142.7560   81.1888  222.7977 H   0  0  0  0  0  0  0  0  0  0  0  0
  141.3469   82.3028  222.7977 H   0  0  0  0  0  0  0  0  0  0  0  0
  142.7671   79.2680  224.2096 H   0  0  0  0  0  0  0  0  0  0  0  0
  141.1278   78.5099  224.3752 H   0  0  0  0  0  0  0  0  0  0  0  0
  142.6474   79.2679  221.8576 H   0  0  0  0  0  0  0  0  0  0  0  0
  141.8408   77.7130  222.2978 H   0  0  0  0  0  0  0  0  0  0  0  0
  142.2373   80.4575  218.2941 H   0  0  0  0  0  0  0  0  0  0  0  0
  143.5863   79.1050  216.6936 H   0  0  0  0  0  0  0  0  0  0  0  0
  143.5160   76.6162  216.7812 H   0  0  0  0  0  0  0  0  0  0  0  0
  139.0135   74.4874  220.6721 H   0  0  0  0  0  0  0  0  0  0  0  0
  138.8101   73.1416  222.7531 H   0  0  0  0  0  0  0  0  0  0  0  0
  140.7269   71.7306  227.2170 H   0  0  0  0  0  0  0  0  0  0  0  0
  140.5602   70.4163  229.3350 H   0  0  0  0  0  0  0  0  0  0  0  0
  140.1703   67.9510  229.2491 H   0  0  0  0  0  0  0  0  0  0  0  0
  139.9400   66.7975  227.0456 H   0  0  0  0  0  0  0  0  0  0  0  0
  140.1076   68.1067  224.9241 H   0  0  0  0  0  0  0  0  0  0  0  0
  142.6400   71.3053  221.9480 H   0  0  0  0  0  0  0  0  0  0  0  0
  145.6510   74.4860  218.9580 H   0  0  0  0  0  0  0  0  0  0  0  0
  143.9488   74.9071  217.4906 H   0  0  0  0  0  0  0  0  0  0  0  0
  142.8196   73.5489  217.1750 H   0  0  0  0  0  0  0  0  0  0  0  0
  140.6765   76.8202  220.0482 H   0  0  0  0  0  0  0  0  0  0  0  0
  138.5800   79.9468  221.7922 H   0  0  0  0  0  0  0  0  0  0  0  0
  139.0320   78.6638  222.9744 H   0  0  0  0  0  0  0  0  0  0  0  0
  139.5731   81.6359  223.0361 H   0  0  0  0  0  0  0  0  0  0  0  0
  139.0706   80.4789  224.3621 H   0  0  0  0  0  0  0  0  0  0  0  0
  1  2  1  0
  2  3  1  0
  3  4  1  0
  4  5  1  0
  5  6  1  0
  6  7  2  0
  6  8  1  0
  8  9  2  0
  9 10  1  0
 10 11  2  0
 11 12  1  0
 12 13  1  0
 13 14  2  0
 14 15  1  0
 15 16  2  0
 16 17  1  0
 17 18  2  0
 18 19  1  0
 19 20  3  0
 20 21  1  0
 21 22  2  0
 22 23  1  0
 23 24  2  0
 24 25  1  0
 25 26  2  0
 18 27  1  0
 27 28  2  0
 28 29  1  0
 29 30  2  0
 30 31  1  0
 30 32  1  0
 12 33  2  0
  5 34  1  0
 34 35  1  0
 35  2  1  0
 33  8  1  0
 32 13  1  0
 28 15  1  0
 26 21  1  0
  1 36  1  0
  1 37  1  0
  1 38  1  0
  3 39  1  0
  3 40  1  0
  4 41  1  0
  4 42  1  0
  9 43  1  0
 10 44  1  0
 11 45  1  0
 16 46  1  0
 17 47  1  0
 22 48  1  0
 23 49  1  0
 24 50  1  0
 25 51  1  0
 26 52  1  0
 27 53  1  0
 31 54  1  0
 32 55  1  0
 32 56  1  0
 33 57  1  0
 34 58  1  0
 34 59  1  0
 35 60  1  0
 35 61  1  0
M  END
>  <meeko>  (11) 
{"free_energy": -6.37, "intermolecular_energy": -9.65, "internal_energy": -1.28, "cluster_size": 8, "cluster_id": 1, "rank_in_cluster": 2}

$$$$

     RDKit          3D

 61 65  0  0  0  0  0  0  0  0999 V2000
  140.6590   82.6850  221.1250 C   0  0  0  0  0  0  0  0  0  0  0  0
  141.8300   81.9320  221.6090 N   0  0  0  0  0  0  0  0  0  0  0  0
  141.9080   80.5870  221.0000 C   0  0  0  0  0  0  0  0  0  0  0  0
  140.7660   79.6750  221.4800 C   0  0  0  0  0  0  0  0  0  0  0  0
  140.4760   79.9080  222.9020 N   0  0  0  0  0  0  0  0  0  0  0  0
  139.1470   79.6960  223.4210 C   0  0  0  0  0  0  0  0  0  0  0  0
  138.6790   80.4980  224.2740 O   0  0  0  0  0  0  0  0  0  0  0  0
  138.3060   78.5700  222.9560 C   0  0  0  0  0  0  0  0  0  0  0  0
  136.9120   78.6190  223.1160 C   0  0  0  0  0  0  0  0  0  0  0  0
  136.1170   77.5520  222.6910 C   0  0  0  0  0  0  0  0  0  0  0  0
  136.7020   76.4290  222.1030 C   0  0  0  0  0  0  0  0  0  0  0  0
  138.0970   76.3580  221.9370 C   0  0  0  0  0  0  0  0  0  0  0  0
  138.7140   75.1550  221.3270 C   0  0  0  0  0  0  0  0  0  0  0  0
  139.9790   75.1820  221.0260 N   0  0  0  0  0  0  0  0  0  0  0  0
  140.8320   74.0560  220.7570 C   0  0  0  0  0  0  0  0  0  0  0  0
  141.8690   74.2410  219.8320 C   0  0  0  0  0  0  0  0  0  0  0  0
  142.6880   73.1770  219.4520 C   0  0  0  0  0  0  0  0  0  0  0  0
  142.4610   71.9010  219.9720 C   0  0  0  0  0  0  0  0  0  0  0  0
  143.2910   70.7980  219.5630 C   0  0  0  0  0  0  0  0  0  0  0  0
  143.9880   69.8760  219.2210 C   0  0  0  0  0  0  0  0  0  0  0  0
  144.8240   68.7780  218.8110 C   0  0  0  0  0  0  0  0  0  0  0  0
  145.4250   68.7880  217.5450 C   0  0  0  0  0  0  0  0  0  0  0  0
  146.2360   67.7190  217.1470 C   0  0  0  0  0  0  0  0  0  0  0  0
  146.4470   66.6410  218.0120 C   0  0  0  0  0  0  0  0  0  0  0  0
  145.8490   66.6290  219.2760 C   0  0  0  0  0  0  0  0  0  0  0  0
  145.0370   67.6950  219.6770 C   0  0  0  0  0  0  0  0  0  0  0  0
  141.4160   71.6930  220.8790 C   0  0  0  0  0  0  0  0  0  0  0  0
  140.6030   72.7580  221.2930 C   0  0  0  0  0  0  0  0  0  0  0  0
  139.5140   72.4490  222.1820 N   0  0  0  0  0  0  0  0  0  0  0  0
  138.2940   72.8870  222.0960 C   0  0  0  0  0  0  0  0  0  0  0  0
  137.3280   72.4000  222.9700 O   0  0  0  0  0  0  0  0  0  0  0  0
  137.9050   73.9120  221.0900 C   0  0  0  0  0  0  0  0  0  0  0  0
  138.8920   77.4280  222.3870 C   0  0  0  0  0  0  0  0  0  0  0  0
  141.4980   80.5630  223.7200 C   0  0  0  0  0  0  0  0  0  0  0  0
  141.9010   81.9120  223.0940 C   0  0  0  0  0  0  0  0  0  0  0  0
  140.0813   83.0565  221.9842 H   0  0  0  0  0  0  0  0  0  0  0  0
  140.9967   83.5357  220.5148 H   0  0  0  0  0  0  0  0  0  0  0  0
  140.0251   82.0248  220.5148 H   0  0  0  0  0  0  0  0  0  0  0  0
  141.8476   80.6874  219.9063 H   0  0  0  0  0  0  0  0  0  0  0  0
  142.8612   80.1293  221.3032 H   0  0  0  0  0  0  0  0  0  0  0  0
  139.8630   79.8858  220.8883 H   0  0  0  0  0  0  0  0  0  0  0  0
  141.0727   78.6267  221.3494 H   0  0  0  0  0  0  0  0  0  0  0  0
  136.4441   79.5010  223.5778 H   0  0  0  0  0  0  0  0  0  0  0  0
  135.0255   77.5968  222.8201 H   0  0  0  0  0  0  0  0  0  0  0  0
  136.0683   75.5948  221.7675 H   0  0  0  0  0  0  0  0  0  0  0  0
  142.0394   75.2382  219.4000 H   0  0  0  0  0  0  0  0  0  0  0  0
  143.5123   73.3434  218.7429 H   0  0  0  0  0  0  0  0  0  0  0  0
  145.2593   69.6360  216.8642 H   0  0  0  0  0  0  0  0  0  0  0  0
  146.7076   67.7270  216.1532 H   0  0  0  0  0  0  0  0  0  0  0  0
  147.0843   65.8012  217.6978 H   0  0  0  0  0  0  0  0  0  0  0  0
  146.0173   65.7805  219.9555 H   0  0  0  0  0  0  0  0  0  0  0  0
  144.5657   67.6842  220.6709 H   0  0  0  0  0  0  0  0  0  0  0  0
  141.2301   70.6825  221.2718 H   0  0  0  0  0  0  0  0  0  0  0  0
  137.4210   72.5150  223.9730 H   0  0  0  0  0  0  0  0  0  0  0  0
  138.1025   73.5299  220.0776 H   0  0  0  0  0  0  0  0  0  0  0  0
  136.8331   74.1403  221.1846 H   0  0  0  0  0  0  0  0  0  0  0  0
  139.9863   77.3691  222.2919 H   0  0  0  0  0  0  0  0  0  0  0  0
  141.0980   80.7367  224.7299 H   0  0  0  0  0  0  0  0  0  0  0  0
  142.3845   79.9139  223.7721 H   0  0  0  0  0  0  0  0  0  0  0  0
  141.2275   82.6896  223.4835 H   0  0  0  0  0  0  0  0  0  0  0  0
  142.9521   82.0890  223.3659 H   0  0  0  0  0  0  0  0  0  0  0  0
  1  2  1  0
  2  3  1  0
  3  4  1  0
  4  5  1  0
  5  6  1  0
  6  7  2  0
  6  8  1  0
  8  9  2  0
  9 10  1  0
 10 11  2  0
 11 12  1  0
 12 13  1  0
 13 14  2  0
 14 15  1  0
 15 16  2  0
 16 17  1  0
 17 18  2  0
 18 19  1  0
 19 20  3  0
 20 21  1  0
 21 22  2  0
 22 23  1  0
 23 24  2  0
 24 25  1  0
 25 26  2  0
 18 27  1  0
 27 28  2  0
 28 29  1  0
 29 30  2  0
 30 31  1  0
 30 32  1  0
 12 33  2  0
  5 34  1  0
 34 35  1  0
 35  2  1  0
 33  8  1  0
 32 13  1  0
 28 15  1  0
 26 21  1  0
  1 36  1  0
  1 37  1  0
  1 38  1  0
  3 39  1  0
  3 40  1  0
  4 41  1  0
  4 42  1  0
  9 43  1  0
 10 44  1  0
 11 45  1  0
 16 46  1  0
 17 47  1  0
 22 48  1  0
 23 49  1  0
 24 50  1  0
 25 51  1  0
 26 52  1  0
 27 53  1  0
 31 54  1  0
 32 55  1  0
 32 56  1  0
 33 57  1  0
 34 58  1  0
 34 59  1  0
 35 60  1  0
 35 61  1  0
M  END
>  <meeko>  (12) 
{"free_energy": -4.65, "intermolecular_energy": -7.94, "internal_energy": -1.12, "cluster_size": 1, "cluster_id": 8, "rank_in_cluster": 1}

$$$$

     RDKit          3D

 61 65  0  0  0  0  0  0  0  0999 V2000
  134.8510   77.8510  224.0130 C   0  0  0  0  0  0  0  0  0  0  0  0
  134.4050   79.0350  223.2570 N   0  0  0  0  0  0  0  0  0  0  0  0
  134.9770   79.0630  221.8930 C   0  0  0  0  0  0  0  0  0  0  0  0
  136.4980   79.2940  221.9150 C   0  0  0  0  0  0  0  0  0  0  0  0
  136.8640   80.2500  222.9690 N   0  0  0  0  0  0  0  0  0  0  0  0
  138.1550   80.1750  223.6080 C   0  0  0  0  0  0  0  0  0  0  0  0
  138.2470   80.3780  224.8490 O   0  0  0  0  0  0  0  0  0  0  0  0
  139.3780   79.8400  222.8430 C   0  0  0  0  0  0  0  0  0  0  0  0
  140.3750   80.8090  222.6490 C   0  0  0  0  0  0  0  0  0  0  0  0
  141.5230   80.5000  221.9170 C   0  0  0  0  0  0  0  0  0  0  0  0
  141.6890   79.2250  221.3730 C   0  0  0  0  0  0  0  0  0  0  0  0
  140.7010   78.2410  221.5530 C   0  0  0  0  0  0  0  0  0  0  0  0
  140.8750   76.8930  220.9580 C   0  0  0  0  0  0  0  0  0  0  0  0
  142.0800   76.4400  220.7710 N   0  0  0  0  0  0  0  0  0  0  0  0
  142.4790   75.0650  220.6370 C   0  0  0  0  0  0  0  0  0  0  0  0
  143.6100   74.7970  219.8530 C   0  0  0  0  0  0  0  0  0  0  0  0
  144.0140   73.4850  219.6030 C   0  0  0  0  0  0  0  0  0  0  0  0
  143.2720   72.4170  220.1120 C   0  0  0  0  0  0  0  0  0  0  0  0
  143.6740   71.0630  219.8350 C   0  0  0  0  0  0  0  0  0  0  0  0
  144.0090   69.9280  219.6040 C   0  0  0  0  0  0  0  0  0  0  0  0
  144.4050   68.5720  219.3320 C   0  0  0  0  0  0  0  0  0  0  0  0
  145.7640   68.2420  219.2390 C   0  0  0  0  0  0  0  0  0  0  0  0
  146.1470   66.9230  218.9730 C   0  0  0  0  0  0  0  0  0  0  0  0
  145.1760   65.9330  218.8000 C   0  0  0  0  0  0  0  0  0  0  0  0
  143.8190   66.2580  218.8930 C   0  0  0  0  0  0  0  0  0  0  0  0
  143.4320   67.5760  219.1580 C   0  0  0  0  0  0  0  0  0  0  0  0
  142.1260   72.6650  220.8760 C   0  0  0  0  0  0  0  0  0  0  0  0
  141.7250   73.9780  221.1610 C   0  0  0  0  0  0  0  0  0  0  0  0
  140.5040   74.1470  221.9050 N   0  0  0  0  0  0  0  0  0  0  0  0
  139.5320   74.9630  221.6260 C   0  0  0  0  0  0  0  0  0  0  0  0
  138.3220   74.8430  222.3020 O   0  0  0  0  0  0  0  0  0  0  0  0
  139.6840   76.0470  220.6070 C   0  0  0  0  0  0  0  0  0  0  0  0
  139.5370   78.5670  222.2730 C   0  0  0  0  0  0  0  0  0  0  0  0
  135.8200   81.1280  223.5030 C   0  0  0  0  0  0  0  0  0  0  0  0
  134.6310   80.2940  224.0150 C   0  0  0  0  0  0  0  0  0  0  0  0
  134.7744   78.0543  225.0913 H   0  0  0  0  0  0  0  0  0  0  0  0
  134.2152   76.9909  223.7559 H   0  0  0  0  0  0  0  0  0  0  0  0
  135.8962   77.6241  223.7559 H   0  0  0  0  0  0  0  0  0  0  0  0
  134.7701   78.1014  221.4005 H   0  0  0  0  0  0  0  0  0  0  0  0
  134.5129   79.8963  221.3450 H   0  0  0  0  0  0  0  0  0  0  0  0
  137.0057   78.3367  222.1039 H   0  0  0  0  0  0  0  0  0  0  0  0
  136.8069   79.7050  220.9426 H   0  0  0  0  0  0  0  0  0  0  0  0
  140.2513   81.8155  223.0753 H   0  0  0  0  0  0  0  0  0  0  0  0
  142.3000   81.2643  221.7683 H   0  0  0  0  0  0  0  0  0  0  0  0
  142.5980   78.9889  220.8003 H   0  0  0  0  0  0  0  0  0  0  0  0
  144.1867   75.6323  219.4292 H   0  0  0  0  0  0  0  0  0  0  0  0
  144.9169   73.2920  219.0050 H   0  0  0  0  0  0  0  0  0  0  0  0
  146.5295   69.0201  219.3752 H   0  0  0  0  0  0  0  0  0  0  0  0
  147.2138   66.6649  218.9000 H   0  0  0  0  0  0  0  0  0  0  0  0
  145.4795   64.8967  218.5904 H   0  0  0  0  0  0  0  0  0  0  0  0
  143.0559   65.4773  218.7578 H   0  0  0  0  0  0  0  0  0  0  0  0
  142.3646   67.8317  219.2300 H   0  0  0  0  0  0  0  0  0  0  0  0
  141.5332   71.8204  221.2572 H   0  0  0  0  0  0  0  0  0  0  0  0
  138.1180   74.0310  222.8730 H   0  0  0  0  0  0  0  0  0  0  0  0
  139.8311   75.5993  219.6130 H   0  0  0  0  0  0  0  0  0  0  0  0
  138.7785   76.6714  220.5945 H   0  0  0  0  0  0  0  0  0  0  0  0
  138.7423   77.8156  222.3906 H   0  0  0  0  0  0  0  0  0  0  0  0
  136.2329   81.7193  224.3336 H   0  0  0  0  0  0  0  0  0  0  0  0
  135.4701   81.7962  222.7023 H   0  0  0  0  0  0  0  0  0  0  0  0
  134.8177   80.0353  225.0677 H   0  0  0  0  0  0  0  0  0  0  0  0
  133.7296   80.9107  223.8841 H   0  0  0  0  0  0  0  0  0  0  0  0
  1  2  1  0
  2  3  1  0
  3  4  1  0
  4  5  1  0
  5  6  1  0
  6  7  2  0
  6  8  1  0
  8  9  2  0
  9 10  1  0
 10 11  2  0
 11 12  1  0
 12 13  1  0
 13 14  2  0
 14 15  1  0
 15 16  2  0
 16 17  1  0
 17 18  2  0
 18 19  1  0
 19 20  3  0
 20 21  1  0
 21 22  2  0
 22 23  1  0
 23 24  2  0
 24 25  1  0
 25 26  2  0
 18 27  1  0
 27 28  2  0
 28 29  1  0
 29 30  2  0
 30 31  1  0
 30 32  1  0
 12 33  2  0
  5 34  1  0
 34 35  1  0
 35  2  1  0
 33  8  1  0
 32 13  1  0
 28 15  1  0
 26 21  1  0
  1 36  1  0
  1 37  1  0
  1 38  1  0
  3 39  1  0
  3 40  1  0
  4 41  1  0
  4 42  1  0
  9 43  1  0
 10 44  1  0
 11 45  1  0
 16 46  1  0
 17 47  1  0
 22 48  1  0
 23 49  1  0
 24 50  1  0
 25 51  1  0
 26 52  1  0
 27 53  1  0
 31 54  1  0
 32 55  1  0
 32 56  1  0
 33 57  1  0
 34 58  1  0
 34 59  1  0
 35 60  1  0
 35 61  1  0
M  END
>  <meeko>  (13) 
{"free_energy": -5.59, "intermolecular_energy": -8.87, "internal_energy": -1.18, "cluster_size": 2, "cluster_id": 4, "rank_in_cluster": 1}

$$$$

     RDKit          3D

 61 65  0  0  0  0  0  0  0  0999 V2000
  142.8510   80.6030  223.7310 C   0  0  0  0  0  0  0  0  0  0  0  0
  141.6280   79.8410  224.0380 N   0  0  0  0  0  0  0  0  0  0  0  0
  141.7450   78.4250  223.6260 C   0  0  0  0  0  0  0  0  0  0  0  0
  141.7970   78.2780  222.0960 C   0  0  0  0  0  0  0  0  0  0  0  0
  140.8940   79.2400  221.4490 N   0  0  0  0  0  0  0  0  0  0  0  0
  141.1860   79.7430  220.1290 C   0  0  0  0  0  0  0  0  0  0  0  0
  140.9680   80.9570  219.8660 O   0  0  0  0  0  0  0  0  0  0  0  0
  141.7620   78.8730  219.0800 C   0  0  0  0  0  0  0  0  0  0  0  0
  142.4160   79.4400  217.9750 C   0  0  0  0  0  0  0  0  0  0  0  0
  142.9490   78.6220  216.9760 C   0  0  0  0  0  0  0  0  0  0  0  0
  142.8360   77.2340  217.0690 C   0  0  0  0  0  0  0  0  0  0  0  0
  142.1810   76.6450  218.1660 C   0  0  0  0  0  0  0  0  0  0  0  0
  142.0500   75.1700  218.2500 C   0  0  0  0  0  0  0  0  0  0  0  0
  140.9640   74.6650  218.7590 N   0  0  0  0  0  0  0  0  0  0  0  0
  140.8580   73.8350  219.9280 C   0  0  0  0  0  0  0  0  0  0  0  0
  139.7830   74.0780  220.7940 C   0  0  0  0  0  0  0  0  0  0  0  0
  139.6540   73.3750  221.9920 C   0  0  0  0  0  0  0  0  0  0  0  0
  140.6210   72.4350  222.3570 C   0  0  0  0  0  0  0  0  0  0  0  0
  140.5020   71.7270  223.6050 C   0  0  0  0  0  0  0  0  0  0  0  0
  140.4000   71.1330  224.6490 C   0  0  0  0  0  0  0  0  0  0  0  0
  140.2790   70.4200  225.8930 C   0  0  0  0  0  0  0  0  0  0  0  0
  140.3430   71.1130  227.1100 C   0  0  0  0  0  0  0  0  0  0  0  0
  140.2270   70.4180  228.3180 C   0  0  0  0  0  0  0  0  0  0  0  0
  140.0470   69.0320  228.3140 C   0  0  0  0  0  0  0  0  0  0  0  0
  139.9800   68.3380  227.1020 C   0  0  0  0  0  0  0  0  0  0  0  0
  140.0970   69.0290  225.8920 C   0  0  0  0  0  0  0  0  0  0  0  0
  141.7140   72.1970  221.5170 C   0  0  0  0  0  0  0  0  0  0  0  0
  141.8410   72.8740  220.2960 C   0  0  0  0  0  0  0  0  0  0  0  0
  143.0240   72.6130  219.5170 N   0  0  0  0  0  0  0  0  0  0  0  0
  143.7220   73.4840  218.8520 C   0  0  0  0  0  0  0  0  0  0  0  0
  145.0590   73.6840  219.1790 O   0  0  0  0  0  0  0  0  0  0  0  0
  143.1330   74.2700  217.7280 C   0  0  0  0  0  0  0  0  0  0  0  0
  141.6290   77.4770  219.1570 C   0  0  0  0  0  0  0  0  0  0  0  0
  139.8240   79.8360  222.2520 C   0  0  0  0  0  0  0  0  0  0  0  0
  140.4110   80.5090  223.5080 C   0  0  0  0  0  0  0  0  0  0  0  0
  143.3388   80.9069  224.6689 H   0  0  0  0  0  0  0  0  0  0  0  0
  143.5386   79.9732  223.1474 H   0  0  0  0  0  0  0  0  0  0  0  0
  142.5887   81.4978  223.1474 H   0  0  0  0  0  0  0  0  0  0  0  0
  142.6660   78.0040  224.0557 H   0  0  0  0  0  0  0  0  0  0  0  0
  140.8571   77.8881  223.9912 H   0  0  0  0  0  0  0  0  0  0  0  0
  142.8254   78.4601  221.7508 H   0  0  0  0  0  0  0  0  0  0  0  0
  141.4783   77.2598  221.8283 H   0  0  0  0  0  0  0  0  0  0  0  0
  142.5092   80.5332  217.8954 H   0  0  0  0  0  0  0  0  0  0  0  0
  143.4598   79.0735  216.1127 H   0  0  0  0  0  0  0  0  0  0  0  0
  143.2616   76.5968  216.2798 H   0  0  0  0  0  0  0  0  0  0  0  0
  139.0304   74.8338  220.5252 H   0  0  0  0  0  0  0  0  0  0  0  0
  138.7914   73.5607  222.6489 H   0  0  0  0  0  0  0  0  0  0  0  0
  140.4845   72.2038  227.1147 H   0  0  0  0  0  0  0  0  0  0  0  0
  140.2775   70.9627  229.2723 H   0  0  0  0  0  0  0  0  0  0  0  0
  139.9580   68.4867  229.2651 H   0  0  0  0  0  0  0  0  0  0  0  0
  139.8351   67.2476  227.1004 H   0  0  0  0  0  0  0  0  0  0  0  0
  140.0463   68.4818  224.9391 H   0  0  0  0  0  0  0  0  0  0  0  0
  142.4828   71.4701  221.8181 H   0  0  0  0  0  0  0  0  0  0  0  0
  145.6110   74.3980  218.7170 H   0  0  0  0  0  0  0  0  0  0  0  0
  143.9187   74.8790  217.2571 H   0  0  0  0  0  0  0  0  0  0  0  0
  142.7054   73.5792  216.9864 H   0  0  0  0  0  0  0  0  0  0  0  0
  141.0866   77.0287  220.0025 H   0  0  0  0  0  0  0  0  0  0  0  0
  139.2950   80.5895  221.6500 H   0  0  0  0  0  0  0  0  0  0  0  0
  139.1259   79.0447  222.5626 H   0  0  0  0  0  0  0  0  0  0  0  0
  140.6689   81.5481  223.2553 H   0  0  0  0  0  0  0  0  0  0  0  0
  139.6435   80.4424  224.2932 H   0  0  0  0  0  0  0  0  0  0  0  0
  1  2  1  0
  2  3  1  0
  3  4  1  0
  4  5  1  0
  5  6  1  0
  6  7  2  0
  6  8  1  0
  8  9  2  0
  9 10  1  0
 10 11  2  0
 11 12  1  0
 12 13  1  0
 13 14  2  0
 14 15  1  0
 15 16  2  0
 16 17  1  0
 17 18  2  0
 18 19  1  0
 19 20  3  0
 20 21  1  0
 21 22  2  0
 22 23  1  0
 23 24  2  0
 24 25  1  0
 25 26  2  0
 18 27  1  0
 27 28  2  0
 28 29  1  0
 29 30  2  0
 30 31  1  0
 30 32  1  0
 12 33  2  0
  5 34  1  0
 34 35  1  0
 35  2  1  0
 33  8  1  0
 32 13  1  0
 28 15  1  0
 26 21  1  0
  1 36  1  0
  1 37  1  0
  1 38  1  0
  3 39  1  0
  3 40  1  0
  4 41  1  0
  4 42  1  0
  9 43  1  0
 10 44  1  0
 11 45  1  0
 16 46  1  0
 17 47  1  0
 22 48  1  0
 23 49  1  0
 24 50  1  0
 25 51  1  0
 26 52  1  0
 27 53  1  0
 31 54  1  0
 32 55  1  0
 32 56  1  0
 33 57  1  0
 34 58  1  0
 34 59  1  0
 35 60  1  0
 35 61  1  0
M  END
>  <meeko>  (14) 
{"free_energy": -5.87, "intermolecular_energy": -9.15, "internal_energy": -1.27, "cluster_size": 8, "cluster_id": 1, "rank_in_cluster": 6}

$$$$

     RDKit          3D

 61 65  0  0  0  0  0  0  0  0999 V2000
  136.2640   74.2140  220.4220 C   0  0  0  0  0  0  0  0  0  0  0  0
  136.7780   74.0200  221.7900 N   0  0  0  0  0  0  0  0  0  0  0  0
  137.3660   75.2620  222.3370 C   0  0  0  0  0  0  0  0  0  0  0  0
  138.6580   75.6550  221.6000 C   0  0  0  0  0  0  0  0  0  0  0  0
  139.4470   74.4640  221.2600 N   0  0  0  0  0  0  0  0  0  0  0  0
  140.3040   74.4610  220.1000 C   0  0  0  0  0  0  0  0  0  0  0  0
  140.3770   73.4250  219.3850 O   0  0  0  0  0  0  0  0  0  0  0  0
  141.0840   75.6580  219.7110 C   0  0  0  0  0  0  0  0  0  0  0  0
  142.1950   75.5300  218.8640 C   0  0  0  0  0  0  0  0  0  0  0  0
  142.9400   76.6560  218.5060 C   0  0  0  0  0  0  0  0  0  0  0  0
  142.5860   77.9170  218.9890 C   0  0  0  0  0  0  0  0  0  0  0  0
  141.4790   78.0660  219.8430 C   0  0  0  0  0  0  0  0  0  0  0  0
  141.1170   79.4070  220.3660 C   0  0  0  0  0  0  0  0  0  0  0  0
  139.8620   79.6890  220.5550 N   0  0  0  0  0  0  0  0  0  0  0  0
  139.2160   79.9720  221.8080 C   0  0  0  0  0  0  0  0  0  0  0  0
  137.8690   79.6050  221.9350 C   0  0  0  0  0  0  0  0  0  0  0  0
  137.1450   79.9190  223.0850 C   0  0  0  0  0  0  0  0  0  0  0  0
  137.7530   80.6360  224.1180 C   0  0  0  0  0  0  0  0  0  0  0  0
  137.0000   80.9810  225.2950 C   0  0  0  0  0  0  0  0  0  0  0  0
  136.3710   81.2740  226.2810 C   0  0  0  0  0  0  0  0  0  0  0  0
  135.6170   81.6270  227.4550 C   0  0  0  0  0  0  0  0  0  0  0  0
  134.2680   81.9910  227.3410 C   0  0  0  0  0  0  0  0  0  0  0  0
  133.5370   82.3370  228.4830 C   0  0  0  0  0  0  0  0  0  0  0  0
  134.1510   82.3190  229.7390 C   0  0  0  0  0  0  0  0  0  0  0  0
  135.4960   81.9550  229.8560 C   0  0  0  0  0  0  0  0  0  0  0  0
  136.2300   81.6110  228.7160 C   0  0  0  0  0  0  0  0  0  0  0  0
  139.0890   81.0320  223.9990 C   0  0  0  0  0  0  0  0  0  0  0  0
  139.8380   80.6970  222.8630 C   0  0  0  0  0  0  0  0  0  0  0  0
  141.1880   81.1920  222.7930 N   0  0  0  0  0  0  0  0  0  0  0  0
  142.1890   80.6340  222.1800 C   0  0  0  0  0  0  0  0  0  0  0  0
  143.2980   80.2220  222.9120 O   0  0  0  0  0  0  0  0  0  0  0  0
  142.1800   80.4120  220.7060 C   0  0  0  0  0  0  0  0  0  0  0  0
  140.7460   76.9250  220.2150 C   0  0  0  0  0  0  0  0  0  0  0  0
  139.1790   73.2220  221.9900 C   0  0  0  0  0  0  0  0  0  0  0  0
  137.6890   72.8480  221.8780 C   0  0  0  0  0  0  0  0  0  0  0  0
  135.2358   74.6021  220.4682 H   0  0  0  0  0  0  0  0  0  0  0  0
  136.9035   74.9326  219.8885 H   0  0  0  0  0  0  0  0  0  0  0  0
  136.2692   73.2520  219.8885 H   0  0  0  0  0  0  0  0  0  0  0  0
  136.6351   76.0775  222.2339 H   0  0  0  0  0  0  0  0  0  0  0  0
  137.6152   75.0859  223.3938 H   0  0  0  0  0  0  0  0  0  0  0  0
  138.3971   76.1908  220.6754 H   0  0  0  0  0  0  0  0  0  0  0  0
  139.2582   76.2992  222.2594 H   0  0  0  0  0  0  0  0  0  0  0  0
  142.4805   74.5393  218.4804 H   0  0  0  0  0  0  0  0  0  0  0  0
  143.8093   76.5486  217.8406 H   0  0  0  0  0  0  0  0  0  0  0  0
  143.1764   78.7990  218.6999 H   0  0  0  0  0  0  0  0  0  0  0  0
  137.3758   79.0614  221.1157 H   0  0  0  0  0  0  0  0  0  0  0  0
  136.0958   79.6021  223.1784 H   0  0  0  0  0  0  0  0  0  0  0  0
  133.7839   82.0046  226.3534 H   0  0  0  0  0  0  0  0  0  0  0  0
  132.4788   82.6233  228.3925 H   0  0  0  0  0  0  0  0  0  0  0  0
  133.5754   82.5914  230.6359 H   0  0  0  0  0  0  0  0  0  0  0  0
  135.9771   81.9392  230.8451 H   0  0  0  0  0  0  0  0  0  0  0  0
  137.2888   81.3277  228.8088 H   0  0  0  0  0  0  0  0  0  0  0  0
  139.5575   81.6134  224.8068 H   0  0  0  0  0  0  0  0  0  0  0  0
  144.0570   79.7140  222.4720 H   0  0  0  0  0  0  0  0  0  0  0  0
  141.9674   81.3610  220.1920 H   0  0  0  0  0  0  0  0  0  0  0  0
  143.1618   80.0363  220.3822 H   0  0  0  0  0  0  0  0  0  0  0  0
  139.8982   77.0257  220.9086 H   0  0  0  0  0  0  0  0  0  0  0  0
  139.7896   72.4119  221.5647 H   0  0  0  0  0  0  0  0  0  0  0  0
  139.4330   73.3678  223.0503 H   0  0  0  0  0  0  0  0  0  0  0  0
  137.5528   72.2350  220.9748 H   0  0  0  0  0  0  0  0  0  0  0  0
  137.4256   72.3076  222.7992 H   0  0  0  0  0  0  0  0  0  0  0  0
  1  2  1  0
  2  3  1  0
  3  4  1  0
  4  5  1  0
  5  6  1  0
  6  7  2  0
  6  8  1  0
  8  9  2  0
  9 10  1  0
 10 11  2  0
 11 12  1  0
 12 13  1  0
 13 14  2  0
 14 15  1  0
 15 16  2  0
 16 17  1  0
 17 18  2  0
 18 19  1  0
 19 20  3  0
 20 21  1  0
 21 22  2  0
 22 23  1  0
 23 24  2  0
 24 25  1  0
 25 26  2  0
 18 27  1  0
 27 28  2  0
 28 29  1  0
 29 30  2  0
 30 31  1  0
 30 32  1  0
 12 33  2  0
  5 34  1  0
 34 35  1  0
 35  2  1  0
 33  8  1  0
 32 13  1  0
 28 15  1  0
 26 21  1  0
  1 36  1  0
  1 37  1  0
  1 38  1  0
  3 39  1  0
  3 40  1  0
  4 41  1  0
  4 42  1  0
  9 43  1  0
 10 44  1  0
 11 45  1  0
 16 46  1  0
 17 47  1  0
 22 48  1  0
 23 49  1  0
 24 50  1  0
 25 51  1  0
 26 52  1  0
 27 53  1  0
 31 54  1  0
 32 55  1  0
 32 56  1  0
 33 57  1  0
 34 58  1  0
 34 59  1  0
 35 60  1  0
 35 61  1  0
M  END
>  <meeko>  (15) 
{"free_energy": -4.24, "intermolecular_energy": -7.52, "internal_energy": -1.11, "cluster_size": 1, "cluster_id": 10, "rank_in_cluster": 1}

$$$$

     RDKit          3D

 61 65  0  0  0  0  0  0  0  0999 V2000
  142.8100   80.8260  223.8250 C   0  0  0  0  0  0  0  0  0  0  0  0
  141.5900   80.0780  224.1780 N   0  0  0  0  0  0  0  0  0  0  0  0
  141.6740   78.6620  223.7610 C   0  0  0  0  0  0  0  0  0  0  0  0
  141.6640   78.5160  222.2290 C   0  0  0  0  0  0  0  0  0  0  0  0
  140.7490   79.4900  221.6190 N   0  0  0  0  0  0  0  0  0  0  0  0
  140.9960   79.9910  220.2890 C   0  0  0  0  0  0  0  0  0  0  0  0
  140.7830   81.2080  220.0350 O   0  0  0  0  0  0  0  0  0  0  0  0
  141.5200   79.1150  219.2170 C   0  0  0  0  0  0  0  0  0  0  0  0
  142.2130   79.6690  218.1300 C   0  0  0  0  0  0  0  0  0  0  0  0
  142.6980   78.8470  217.1110 C   0  0  0  0  0  0  0  0  0  0  0  0
  142.4960   77.4660  217.1650 C   0  0  0  0  0  0  0  0  0  0  0  0
  141.8010   76.8910  218.2440 C   0  0  0  0  0  0  0  0  0  0  0  0
  141.5760   75.4250  218.2880 C   0  0  0  0  0  0  0  0  0  0  0  0
  140.5230   74.9700  218.9000 N   0  0  0  0  0  0  0  0  0  0  0  0
  140.4920   74.0870  220.0350 C   0  0  0  0  0  0  0  0  0  0  0  0
  139.5300   74.3410  221.0220 C   0  0  0  0  0  0  0  0  0  0  0  0
  139.4880   73.5850  222.1940 C   0  0  0  0  0  0  0  0  0  0  0  0
  140.4320   72.5780  222.4090 C   0  0  0  0  0  0  0  0  0  0  0  0
  140.4050   71.8130  223.6270 C   0  0  0  0  0  0  0  0  0  0  0  0
  140.3850   71.1720  224.6480 C   0  0  0  0  0  0  0  0  0  0  0  0
  140.3580   70.4030  225.8640 C   0  0  0  0  0  0  0  0  0  0  0  0
  140.4690   71.0460  227.1050 C   0  0  0  0  0  0  0  0  0  0  0  0
  140.4450   70.2970  228.2870 C   0  0  0  0  0  0  0  0  0  0  0  0
  140.3100   68.9070  228.2320 C   0  0  0  0  0  0  0  0  0  0  0  0
  140.1970   68.2620  226.9960 C   0  0  0  0  0  0  0  0  0  0  0  0
  140.2220   69.0080  225.8120 C   0  0  0  0  0  0  0  0  0  0  0  0
  141.4150   72.3260  221.4450 C   0  0  0  0  0  0  0  0  0  0  0  0
  141.4510   73.0570  220.2500 C   0  0  0  0  0  0  0  0  0  0  0  0
  142.5280   72.7760  219.3360 N   0  0  0  0  0  0  0  0  0  0  0  0
  143.1940   73.6410  218.6320 C   0  0  0  0  0  0  0  0  0  0  0  0
  144.5650   73.7730  218.8270 O   0  0  0  0  0  0  0  0  0  0  0  0
  142.5250   74.4800  217.6080 C   0  0  0  0  0  0  0  0  0  0  0  0
  141.2980   77.7290  219.2560 C   0  0  0  0  0  0  0  0  0  0  0  0
  139.7190   80.0980  222.4630 C   0  0  0  0  0  0  0  0  0  0  0  0
  140.3620   80.7630  223.6960 C   0  0  0  0  0  0  0  0  0  0  0  0
  143.3252   81.1419  224.7441 H   0  0  0  0  0  0  0  0  0  0  0  0
  143.4771   80.1815  223.2337 H   0  0  0  0  0  0  0  0  0  0  0  0
  142.5382   81.7129  223.2337 H   0  0  0  0  0  0  0  0  0  0  0  0
  142.6061   78.2298  224.1538 H   0  0  0  0  0  0  0  0  0  0  0  0
  140.7949   78.1351  224.1605 H   0  0  0  0  0  0  0  0  0  0  0  0
  142.6803   78.6854  221.8438 H   0  0  0  0  0  0  0  0  0  0  0  0
  141.3221   77.5023  221.9733 H   0  0  0  0  0  0  0  0  0  0  0  0
  142.3749   80.7559  218.0805 H   0  0  0  0  0  0  0  0  0  0  0  0
  143.2412   79.2886  216.2625 H   0  0  0  0  0  0  0  0  0  0  0  0
  142.8826   76.8247  216.3592 H   0  0  0  0  0  0  0  0  0  0  0  0
  138.7977   75.1477  220.8706 H   0  0  0  0  0  0  0  0  0  0  0  0
  138.7119   73.7819  222.9483 H   0  0  0  0  0  0  0  0  0  0  0  0
  140.5750   72.1400  227.1496 H   0  0  0  0  0  0  0  0  0  0  0  0
  140.5325   70.8026  229.2600 H   0  0  0  0  0  0  0  0  0  0  0  0
  140.2926   68.3195  229.1618 H   0  0  0  0  0  0  0  0  0  0  0  0
  140.0885   67.1682  226.9545 H   0  0  0  0  0  0  0  0  0  0  0  0
  140.1349   68.5000  224.8402 H   0  0  0  0  0  0  0  0  0  0  0  0
  142.1679   71.5451  221.6276 H   0  0  0  0  0  0  0  0  0  0  0  0
  145.0580   74.6090  218.5340 H   0  0  0  0  0  0  0  0  0  0  0  0
  143.2806   75.0541  217.0516 H   0  0  0  0  0  0  0  0  0  0  0  0
  141.9697   73.8376  216.9087 H   0  0  0  0  0  0  0  0  0  0  0  0
  140.7242   77.2935  220.0873 H   0  0  0  0  0  0  0  0  0  0  0  0
  139.1762   80.8583  221.8823 H   0  0  0  0  0  0  0  0  0  0  0  0
  139.0243   79.3147  222.8003 H   0  0  0  0  0  0  0  0  0  0  0  0
  140.6234   81.7989  223.4340 H   0  0  0  0  0  0  0  0  0  0  0  0
  139.6245   80.7066  224.5102 H   0  0  0  0  0  0  0  0  0  0  0  0
  1  2  1  0
  2  3  1  0
  3  4  1  0
  4  5  1  0
  5  6  1  0
  6  7  2  0
  6  8  1  0
  8  9  2  0
  9 10  1  0
 10 11  2  0
 11 12  1  0
 12 13  1  0
 13 14  2  0
 14 15  1  0
 15 16  2  0
 16 17  1  0
 17 18  2  0
 18 19  1  0
 19 20  3  0
 20 21  1  0
 21 22  2  0
 22 23  1  0
 23 24  2  0
 24 25  1  0
 25 26  2  0
 18 27  1  0
 27 28  2  0
 28 29  1  0
 29 30  2  0
 30 31  1  0
 30 32  1  0
 12 33  2  0
  5 34  1  0
 34 35  1  0
 35  2  1  0
 33  8  1  0
 32 13  1  0
 28 15  1  0
 26 21  1  0
  1 36  1  0
  1 37  1  0
  1 38  1  0
  3 39  1  0
  3 40  1  0
  4 41  1  0
  4 42  1  0
  9 43  1  0
 10 44  1  0
 11 45  1  0
 16 46  1  0
 17 47  1  0
 22 48  1  0
 23 49  1  0
 24 50  1  0
 25 51  1  0
 26 52  1  0
 27 53  1  0
 31 54  1  0
 32 55  1  0
 32 56  1  0
 33 57  1  0
 34 58  1  0
 34 59  1  0
 35 60  1  0
 35 61  1  0
M  END
>  <meeko>  (16) 
{"free_energy": -6.11, "intermolecular_energy": -9.39, "internal_energy": -1.28, "cluster_size": 8, "cluster_id": 1, "rank_in_cluster": 5}

$$$$

     RDKit          3D

 61 65  0  0  0  0  0  0  0  0999 V2000
  142.4380   80.9730  223.7900 C   0  0  0  0  0  0  0  0  0  0  0  0
  141.3540   80.0520  224.1770 N   0  0  0  0  0  0  0  0  0  0  0  0
  141.6780   78.6500  223.8380 C   0  0  0  0  0  0  0  0  0  0  0  0
  141.7150   78.4230  222.3160 C   0  0  0  0  0  0  0  0  0  0  0  0
  140.6590   79.1980  221.6490 N   0  0  0  0  0  0  0  0  0  0  0  0
  140.8390   79.6630  220.2960 C   0  0  0  0  0  0  0  0  0  0  0  0
  140.4300   80.8120  219.9740 O   0  0  0  0  0  0  0  0  0  0  0  0
  141.5160   78.8300  219.2760 C   0  0  0  0  0  0  0  0  0  0  0  0
  142.1940   79.4380  218.2080 C   0  0  0  0  0  0  0  0  0  0  0  0
  142.8240   78.6560  217.2370 C   0  0  0  0  0  0  0  0  0  0  0  0
  142.7830   77.2630  217.3210 C   0  0  0  0  0  0  0  0  0  0  0  0
  142.1050   76.6340  218.3810 C   0  0  0  0  0  0  0  0  0  0  0  0
  142.0510   75.1530  218.4550 C   0  0  0  0  0  0  0  0  0  0  0  0
  140.9740   74.5860  218.9150 N   0  0  0  0  0  0  0  0  0  0  0  0
  140.8660   73.7370  220.0690 C   0  0  0  0  0  0  0  0  0  0  0  0
  139.7270   73.8860  220.8740 C   0  0  0  0  0  0  0  0  0  0  0  0
  139.5860   73.1600  222.0570 C   0  0  0  0  0  0  0  0  0  0  0  0
  140.5990   72.2930  222.4690 C   0  0  0  0  0  0  0  0  0  0  0  0
  140.4650   71.5620  223.7020 C   0  0  0  0  0  0  0  0  0  0  0  0
  140.3500   70.9510  224.7360 C   0  0  0  0  0  0  0  0  0  0  0  0
  140.2150   70.2190  225.9660 C   0  0  0  0  0  0  0  0  0  0  0  0
  140.0400   68.8280  225.9410 C   0  0  0  0  0  0  0  0  0  0  0  0
  139.9060   68.1170  227.1390 C   0  0  0  0  0  0  0  0  0  0  0  0
  139.9460   68.7920  228.3620 C   0  0  0  0  0  0  0  0  0  0  0  0
  140.1210   70.1790  228.3910 C   0  0  0  0  0  0  0  0  0  0  0  0
  140.2540   70.8940  227.1950 C   0  0  0  0  0  0  0  0  0  0  0  0
  141.7540   72.1490  221.6920 C   0  0  0  0  0  0  0  0  0  0  0  0
  141.8970   72.8480  220.4860 C   0  0  0  0  0  0  0  0  0  0  0  0
  143.1380   72.6890  219.7740 N   0  0  0  0  0  0  0  0  0  0  0  0
  143.7960   73.6150  219.1430 C   0  0  0  0  0  0  0  0  0  0  0  0
  145.0820   73.9460  219.5560 O   0  0  0  0  0  0  0  0  0  0  0  0
  143.2030   74.3160  217.9770 C   0  0  0  0  0  0  0  0  0  0  0  0
  141.4560   77.4290  219.3430 C   0  0  0  0  0  0  0  0  0  0  0  0
  139.5300   79.6700  222.4540 C   0  0  0  0  0  0  0  0  0  0  0  0
  140.0360   80.4960  223.6520 C   0  0  0  0  0  0  0  0  0  0  0  0
  142.9151   81.3784  224.6944 H   0  0  0  0  0  0  0  0  0  0  0  0
  143.1854   80.4295  223.1934 H   0  0  0  0  0  0  0  0  0  0  0  0
  142.0224   81.7984  223.1934 H   0  0  0  0  0  0  0  0  0  0  0  0
  142.6631   78.4005  224.2591 H   0  0  0  0  0  0  0  0  0  0  0  0
  140.8925   78.0062  224.2604 H   0  0  0  0  0  0  0  0  0  0  0  0
  142.6945   78.7387  221.9276 H   0  0  0  0  0  0  0  0  0  0  0  0
  141.5505   77.3543  222.1138 H   0  0  0  0  0  0  0  0  0  0  0  0
  142.2294   80.5350  218.1353 H   0  0  0  0  0  0  0  0  0  0  0  0
  143.3543   79.1394  216.4033 H   0  0  0  0  0  0  0  0  0  0  0  0
  143.2837   76.6539  216.5540 H   0  0  0  0  0  0  0  0  0  0  0  0
  138.9343   74.5847  220.5684 H   0  0  0  0  0  0  0  0  0  0  0  0
  138.6761   73.2710  222.6652 H   0  0  0  0  0  0  0  0  0  0  0  0
  140.0080   68.2953  224.9791 H   0  0  0  0  0  0  0  0  0  0  0  0
  139.7691   67.0258  227.1179 H   0  0  0  0  0  0  0  0  0  0  0  0
  139.8397   68.2317  229.3026 H   0  0  0  0  0  0  0  0  0  0  0  0
  140.1542   70.7087  229.3545 H   0  0  0  0  0  0  0  0  0  0  0  0
  140.3891   71.9854  227.2189 H   0  0  0  0  0  0  0  0  0  0  0  0
  142.5583   71.4799  222.0317 H   0  0  0  0  0  0  0  0  0  0  0  0
  145.7020   74.4840  218.9610 H   0  0  0  0  0  0  0  0  0  0  0  0
  143.9605   74.9615  217.5083 H   0  0  0  0  0  0  0  0  0  0  0  0
  142.8521   73.5822  217.2365 H   0  0  0  0  0  0  0  0  0  0  0  0
  140.8949   76.9473  220.1573 H   0  0  0  0  0  0  0  0  0  0  0  0
  138.8769   80.2980  221.8302 H   0  0  0  0  0  0  0  0  0  0  0  0
  138.9701   78.8008  222.8295 H   0  0  0  0  0  0  0  0  0  0  0  0
  140.1251   81.5458  223.3357 H   0  0  0  0  0  0  0  0  0  0  0  0
  139.3068   80.3596  224.4642 H   0  0  0  0  0  0  0  0  0  0  0  0
  1  2  1  0
  2  3  1  0
  3  4  1  0
  4  5  1  0
  5  6  1  0
  6  7  2  0
  6  8  1  0
  8  9  2  0
  9 10  1  0
 10 11  2  0
 11 12  1  0
 12 13  1  0
 13 14  2  0
 14 15  1  0
 15 16  2  0
 16 17  1  0
 17 18  2  0
 18 19  1  0
 19 20  3  0
 20 21  1  0
 21 22  2  0
 22 23  1  0
 23 24  2  0
 24 25  1  0
 25 26  2  0
 18 27  1  0
 27 28  2  0
 28 29  1  0
 29 30  2  0
 30 31  1  0
 30 32  1  0
 12 33  2  0
  5 34  1  0
 34 35  1  0
 35  2  1  0
 33  8  1  0
 32 13  1  0
 28 15  1  0
 26 21  1  0
  1 36  1  0
  1 37  1  0
  1 38  1  0
  3 39  1  0
  3 40  1  0
  4 41  1  0
  4 42  1  0
  9 43  1  0
 10 44  1  0
 11 45  1  0
 16 46  1  0
 17 47  1  0
 22 48  1  0
 23 49  1  0
 24 50  1  0
 25 51  1  0
 26 52  1  0
 27 53  1  0
 31 54  1  0
 32 55  1  0
 32 56  1  0
 33 57  1  0
 34 58  1  0
 34 59  1  0
 35 60  1  0
 35 61  1  0
M  END
>  <meeko>  (17) 
{"free_energy": -5.74, "intermolecular_energy": -9.02, "internal_energy": -1.29, "cluster_size": 8, "cluster_id": 1, "rank_in_cluster": 7}

$$$$

     RDKit          3D

 61 65  0  0  0  0  0  0  0  0999 V2000
  142.9040   70.0110  217.4890 C   0  0  0  0  0  0  0  0  0  0  0  0
  143.1360   69.9070  218.9410 N   0  0  0  0  0  0  0  0  0  0  0  0
  142.1750   70.7270  219.7110 C   0  0  0  0  0  0  0  0  0  0  0  0
  142.4050   72.2320  219.4920 C   0  0  0  0  0  0  0  0  0  0  0  0
  143.8410   72.5330  219.4030 N   0  0  0  0  0  0  0  0  0  0  0  0
  144.3060   73.6500  218.6190 C   0  0  0  0  0  0  0  0  0  0  0  0
  145.3580   73.5320  217.9330 O   0  0  0  0  0  0  0  0  0  0  0  0
  143.5630   74.9300  218.5800 C   0  0  0  0  0  0  0  0  0  0  0  0
  143.4880   75.6640  217.3860 C   0  0  0  0  0  0  0  0  0  0  0  0
  142.7990   76.8790  217.3500 C   0  0  0  0  0  0  0  0  0  0  0  0
  142.1790   77.3710  218.5000 C   0  0  0  0  0  0  0  0  0  0  0  0
  142.2460   76.6530  219.7070 C   0  0  0  0  0  0  0  0  0  0  0  0
  141.5990   77.1900  220.9290 C   0  0  0  0  0  0  0  0  0  0  0  0
  141.2790   78.4500  220.9690 N   0  0  0  0  0  0  0  0  0  0  0  0
  140.3720   79.0870  221.8850 C   0  0  0  0  0  0  0  0  0  0  0  0
  140.6530   80.4090  222.2540 C   0  0  0  0  0  0  0  0  0  0  0  0
  139.8710   81.0710  223.2010 C   0  0  0  0  0  0  0  0  0  0  0  0
  138.8100   80.4050  223.8180 C   0  0  0  0  0  0  0  0  0  0  0  0
  138.0180   81.0780  224.8130 C   0  0  0  0  0  0  0  0  0  0  0  0
  137.3560   81.6430  225.6480 C   0  0  0  0  0  0  0  0  0  0  0  0
  136.5720   82.3170  226.6480 C   0  0  0  0  0  0  0  0  0  0  0  0
  136.2450   83.6720  226.4900 C   0  0  0  0  0  0  0  0  0  0  0  0
  135.4840   84.3260  227.4640 C   0  0  0  0  0  0  0  0  0  0  0  0
  135.0480   83.6320  228.5960 C   0  0  0  0  0  0  0  0  0  0  0  0
  135.3710   82.2810  228.7560 C   0  0  0  0  0  0  0  0  0  0  0  0
  136.1330   81.6230  227.7850 C   0  0  0  0  0  0  0  0  0  0  0  0
  138.5290   79.0760  223.4800 C   0  0  0  0  0  0  0  0  0  0  0  0
  139.2870   78.4090  222.5080 C   0  0  0  0  0  0  0  0  0  0  0  0
  138.9710   77.0260  222.2590 N   0  0  0  0  0  0  0  0  0  0  0  0
  139.8150   76.0470  222.1360 C   0  0  0  0  0  0  0  0  0  0  0  0
  139.3420   74.7420  222.0340 O   0  0  0  0  0  0  0  0  0  0  0  0
  141.2860   76.2910  222.0920 C   0  0  0  0  0  0  0  0  0  0  0  0
  142.9600   75.4410  219.7400 C   0  0  0  0  0  0  0  0  0  0  0  0
  144.7890   71.5540  219.9390 C   0  0  0  0  0  0  0  0  0  0  0  0
  144.5550   70.1740  219.2950 C   0  0  0  0  0  0  0  0  0  0  0  0
  141.9141   70.4548  217.3067 H   0  0  0  0  0  0  0  0  0  0  0  0
  143.6798   70.6475  217.0384 H   0  0  0  0  0  0  0  0  0  0  0  0
  142.9450   69.0084  217.0384 H   0  0  0  0  0  0  0  0  0  0  0  0
  141.1536   70.4726  219.3915 H   0  0  0  0  0  0  0  0  0  0  0  0
  142.3201   70.5107  220.7797 H   0  0  0  0  0  0  0  0  0  0  0  0
  141.9134   72.5397  218.5573 H   0  0  0  0  0  0  0  0  0  0  0  0
  141.9819   72.7813  220.3459 H   0  0  0  0  0  0  0  0  0  0  0  0
  143.9731   75.2816  216.4758 H   0  0  0  0  0  0  0  0  0  0  0  0
  142.7448   77.4503  216.4116 H   0  0  0  0  0  0  0  0  0  0  0  0
  141.6348   78.3262  218.4616 H   0  0  0  0  0  0  0  0  0  0  0  0
  141.5022   80.9325  221.7905 H   0  0  0  0  0  0  0  0  0  0  0  0
  140.0901   82.1170  223.4615 H   0  0  0  0  0  0  0  0  0  0  0  0
  136.5872   84.2201  225.5998 H   0  0  0  0  0  0  0  0  0  0  0  0
  135.2281   85.3885  227.3390 H   0  0  0  0  0  0  0  0  0  0  0  0
  134.4505   84.1488  229.3614 H   0  0  0  0  0  0  0  0  0  0  0  0
  135.0255   81.7351  229.6463 H   0  0  0  0  0  0  0  0  0  0  0  0
  136.3881   80.5607  227.9132 H   0  0  0  0  0  0  0  0  0  0  0  0
  137.7044   78.5495  223.9827 H   0  0  0  0  0  0  0  0  0  0  0  0
  138.7920   74.3240  222.7770 H   0  0  0  0  0  0  0  0  0  0  0  0
  141.6080   76.7724  223.0272 H   0  0  0  0  0  0  0  0  0  0  0  0
  141.8177   75.3350  221.9760 H   0  0  0  0  0  0  0  0  0  0  0  0
  143.0467   74.8872  220.6864 H   0  0  0  0  0  0  0  0  0  0  0  0
  145.8150   71.8862  219.7222 H   0  0  0  0  0  0  0  0  0  0  0  0
  144.6411   71.4711  221.0259 H   0  0  0  0  0  0  0  0  0  0  0  0
  145.1582   70.1134  218.3771 H   0  0  0  0  0  0  0  0  0  0  0  0
  144.8450   69.4200  220.0416 H   0  0  0  0  0  0  0  0  0  0  0  0
  1  2  1  0
  2  3  1  0
  3  4  1  0
  4  5  1  0
  5  6  1  0
  6  7  2  0
  6  8  1  0
  8  9  2  0
  9 10  1  0
 10 11  2  0
 11 12  1  0
 12 13  1  0
 13 14  2  0
 14 15  1  0
 15 16  2  0
 16 17  1  0
 17 18  2  0
 18 19  1  0
 19 20  3  0
 20 21  1  0
 21 22  2  0
 22 23  1  0
 23 24  2  0
 24 25  1  0
 25 26  2  0
 18 27  1  0
 27 28  2  0
 28 29  1  0
 29 30  2  0
 30 31  1  0
 30 32  1  0
 12 33  2  0
  5 34  1  0
 34 35  1  0
 35  2  1  0
 33  8  1  0
 32 13  1  0
 28 15  1  0
 26 21  1  0
  1 36  1  0
  1 37  1  0
  1 38  1  0
  3 39  1  0
  3 40  1  0
  4 41  1  0
  4 42  1  0
  9 43  1  0
 10 44  1  0
 11 45  1  0
 16 46  1  0
 17 47  1  0
 22 48  1  0
 23 49  1  0
 24 50  1  0
 25 51  1  0
 26 52  1  0
 27 53  1  0
 31 54  1  0
 32 55  1  0
 32 56  1  0
 33 57  1  0
 34 58  1  0
 34 59  1  0
 35 60  1  0
 35 61  1  0
M  END
>  <meeko>  (18) 
{"free_energy": -5.71, "intermolecular_energy": -8.99, "internal_energy": -1.18, "cluster_size": 3, "cluster_id": 2, "rank_in_cluster": 1}

$$$$

     RDKit          3D

 61 65  0  0  0  0  0  0  0  0999 V2000
  143.6210   80.5730  223.3420 C   0  0  0  0  0  0  0  0  0  0  0  0
  142.2180   80.3910  223.7570 N   0  0  0  0  0  0  0  0  0  0  0  0
  141.7340   79.0230  223.4700 C   0  0  0  0  0  0  0  0  0  0  0  0
  141.6220   78.7620  221.9580 C   0  0  0  0  0  0  0  0  0  0  0  0
  141.1360   79.9590  221.2570 N   0  0  0  0  0  0  0  0  0  0  0  0
  141.5170   80.2090  219.8890 C   0  0  0  0  0  0  0  0  0  0  0  0
  141.7840   81.3870  219.5250 O   0  0  0  0  0  0  0  0  0  0  0  0
  141.6270   79.1100  218.9030 C   0  0  0  0  0  0  0  0  0  0  0  0
  142.3960   79.2810  217.7410 C   0  0  0  0  0  0  0  0  0  0  0  0
  142.4920   78.2510  216.8030 C   0  0  0  0  0  0  0  0  0  0  0  0
  141.8230   77.0430  217.0140 C   0  0  0  0  0  0  0  0  0  0  0  0
  141.0450   76.8530  218.1690 C   0  0  0  0  0  0  0  0  0  0  0  0
  140.3240   75.5740  218.3790 C   0  0  0  0  0  0  0  0  0  0  0  0
  140.9860   74.5440  218.8170 N   0  0  0  0  0  0  0  0  0  0  0  0
  140.7970   73.8560  220.0660 C   0  0  0  0  0  0  0  0  0  0  0  0
  141.9230   73.2570  220.6480 C   0  0  0  0  0  0  0  0  0  0  0  0
  141.8090   72.5000  221.8140 C   0  0  0  0  0  0  0  0  0  0  0  0
  140.5570   72.3060  222.4010 C   0  0  0  0  0  0  0  0  0  0  0  0
  140.4360   71.5050  223.5910 C   0  0  0  0  0  0  0  0  0  0  0  0
  140.3310   70.8350  224.5880 C   0  0  0  0  0  0  0  0  0  0  0  0
  140.2000   70.0350  225.7770 C   0  0  0  0  0  0  0  0  0  0  0  0
  140.0710   70.6530  227.0290 C   0  0  0  0  0  0  0  0  0  0  0  0
  139.9470   69.8740  228.1840 C   0  0  0  0  0  0  0  0  0  0  0  0
  139.9500   68.4790  228.0920 C   0  0  0  0  0  0  0  0  0  0  0  0
  140.0770   67.8600  226.8450 C   0  0  0  0  0  0  0  0  0  0  0  0
  140.2030   68.6360  225.6870 C   0  0  0  0  0  0  0  0  0  0  0  0
  139.4190   72.8760  221.8210 C   0  0  0  0  0  0  0  0  0  0  0  0
  139.5210   73.6640  220.6660 C   0  0  0  0  0  0  0  0  0  0  0  0
  138.2960   74.1660  220.1000 N   0  0  0  0  0  0  0  0  0  0  0  0
  138.1470   75.2670  219.4250 C   0  0  0  0  0  0  0  0  0  0  0  0
  137.3270   76.2730  219.9260 O   0  0  0  0  0  0  0  0  0  0  0  0
  138.8460   75.4730  218.1260 C   0  0  0  0  0  0  0  0  0  0  0  0
  140.9370   77.9040  219.0990 C   0  0  0  0  0  0  0  0  0  0  0  0
  140.4490   80.9890  222.0390 C   0  0  0  0  0  0  0  0  0  0  0  0
  141.3370   81.4540  223.2090 C   0  0  0  0  0  0  0  0  0  0  0  0
  144.2594   80.6558  224.2339 H   0  0  0  0  0  0  0  0  0  0  0  0
  143.9407   79.7088  222.7412 H   0  0  0  0  0  0  0  0  0  0  0  0
  143.7096   81.4902  222.7412 H   0  0  0  0  0  0  0  0  0  0  0  0
  142.4373   78.2978  223.9054 H   0  0  0  0  0  0  0  0  0  0  0  0
  140.7319   78.9154  223.9107 H   0  0  0  0  0  0  0  0  0  0  0  0
  142.6127   78.4907  221.5644 H   0  0  0  0  0  0  0  0  0  0  0  0
  140.9073   77.9421  221.7934 H   0  0  0  0  0  0  0  0  0  0  0  0
  142.9249   80.2300  217.5687 H   0  0  0  0  0  0  0  0  0  0  0  0
  143.0965   78.3914  215.8948 H   0  0  0  0  0  0  0  0  0  0  0  0
  141.9056   76.2355  216.2716 H   0  0  0  0  0  0  0  0  0  0  0  0
  142.9096   73.3857  220.1789 H   0  0  0  0  0  0  0  0  0  0  0  0
  142.7055   72.0558  222.2711 H   0  0  0  0  0  0  0  0  0  0  0  0
  140.0673   71.7505  227.1028 H   0  0  0  0  0  0  0  0  0  0  0  0
  139.8470   70.3595  229.1660 H   0  0  0  0  0  0  0  0  0  0  0  0
  139.8523   67.8680  229.0015 H   0  0  0  0  0  0  0  0  0  0  0  0
  140.0779   66.7623  226.7738 H   0  0  0  0  0  0  0  0  0  0  0  0
  140.3044   68.1482  224.7063 H   0  0  0  0  0  0  0  0  0  0  0  0
  138.4326   72.7040  222.2764 H   0  0  0  0  0  0  0  0  0  0  0  0
  137.4750   77.2430  219.6730 H   0  0  0  0  0  0  0  0  0  0  0  0
  138.6429   74.6226  217.4585 H   0  0  0  0  0  0  0  0  0  0  0  0
  138.4852   76.3973  217.6512 H   0  0  0  0  0  0  0  0  0  0  0  0
  140.3042   77.7785  219.9900 H   0  0  0  0  0  0  0  0  0  0  0  0
  140.2250   81.8483  221.3898 H   0  0  0  0  0  0  0  0  0  0  0  0
  139.5164   80.5685  222.4431 H   0  0  0  0  0  0  0  0  0  0  0  0
  141.9708   82.2805  222.8552 H   0  0  0  0  0  0  0  0  0  0  0  0
  140.6605   81.7576  224.0215 H   0  0  0  0  0  0  0  0  0  0  0  0
  1  2  1  0
  2  3  1  0
  3  4  1  0
  4  5  1  0
  5  6  1  0
  6  7  2  0
  6  8  1  0
  8  9  2  0
  9 10  1  0
 10 11  2  0
 11 12  1  0
 12 13  1  0
 13 14  2  0
 14 15  1  0
 15 16  2  0
 16 17  1  0
 17 18  2  0
 18 19  1  0
 19 20  3  0
 20 21  1  0
 21 22  2  0
 22 23  1  0
 23 24  2  0
 24 25  1  0
 25 26  2  0
 18 27  1  0
 27 28  2  0
 28 29  1  0
 29 30  2  0
 30 31  1  0
 30 32  1  0
 12 33  2  0
  5 34  1  0
 34 35  1  0
 35  2  1  0
 33  8  1  0
 32 13  1  0
 28 15  1  0
 26 21  1  0
  1 36  1  0
  1 37  1  0
  1 38  1  0
  3 39  1  0
  3 40  1  0
  4 41  1  0
  4 42  1  0
  9 43  1  0
 10 44  1  0
 11 45  1  0
 16 46  1  0
 17 47  1  0
 22 48  1  0
 23 49  1  0
 24 50  1  0
 25 51  1  0
 26 52  1  0
 27 53  1  0
 31 54  1  0
 32 55  1  0
 32 56  1  0
 33 57  1  0
 34 58  1  0
 34 59  1  0
 35 60  1  0
 35 61  1  0
M  END
>  <meeko>  (19) 
{"free_energy": -4.9, "intermolecular_energy": -8.18, "internal_energy": -1.19, "cluster_size": 1, "cluster_id": 7, "rank_in_cluster": 1}

$$$$

     RDKit          3D

 61 65  0  0  0  0  0  0  0  0999 V2000
  144.7480   69.8830  216.2910 C   0  0  0  0  0  0  0  0  0  0  0  0
  144.2080   69.3850  217.5690 N   0  0  0  0  0  0  0  0  0  0  0  0
  142.8760   69.9560  217.8620 C   0  0  0  0  0  0  0  0  0  0  0  0
  142.9520   71.4650  218.1530 C   0  0  0  0  0  0  0  0  0  0  0  0
  144.1600   71.7870  218.9240 N   0  0  0  0  0  0  0  0  0  0  0  0
  144.7870   73.0790  218.7950 C   0  0  0  0  0  0  0  0  0  0  0  0
  146.0450   73.1600  218.7800 O   0  0  0  0  0  0  0  0  0  0  0  0
  143.9860   74.3160  218.6550 C   0  0  0  0  0  0  0  0  0  0  0  0
  144.0510   75.0670  217.4710 C   0  0  0  0  0  0  0  0  0  0  0  0
  143.3060   76.2410  217.3410 C   0  0  0  0  0  0  0  0  0  0  0  0
  142.4920   76.6780  218.3870 C   0  0  0  0  0  0  0  0  0  0  0  0
  142.4150   75.9420  219.5830 C   0  0  0  0  0  0  0  0  0  0  0  0
  141.5600   76.4200  220.6970 C   0  0  0  0  0  0  0  0  0  0  0  0
  141.7990   77.5890  221.2160 N   0  0  0  0  0  0  0  0  0  0  0  0
  140.8980   78.3930  221.9960 C   0  0  0  0  0  0  0  0  0  0  0  0
  141.4600   79.2230  222.9750 C   0  0  0  0  0  0  0  0  0  0  0  0
  140.6510   79.9720  223.8310 C   0  0  0  0  0  0  0  0  0  0  0  0
  139.2610   79.8760  223.7380 C   0  0  0  0  0  0  0  0  0  0  0  0
  138.4260   80.6290  224.6370 C   0  0  0  0  0  0  0  0  0  0  0  0
  137.7240   81.2600  225.3870 C   0  0  0  0  0  0  0  0  0  0  0  0
  136.8810   82.0090  226.2810 C   0  0  0  0  0  0  0  0  0  0  0  0
  136.6000   83.3570  226.0180 C   0  0  0  0  0  0  0  0  0  0  0  0
  135.7830   84.0850  226.8890 C   0  0  0  0  0  0  0  0  0  0  0  0
  135.2450   83.4700  228.0230 C   0  0  0  0  0  0  0  0  0  0  0  0
  135.5220   82.1250  228.2880 C   0  0  0  0  0  0  0  0  0  0  0  0
  136.3400   81.3940  227.4200 C   0  0  0  0  0  0  0  0  0  0  0  0
  138.6820   79.0340  222.7830 C   0  0  0  0  0  0  0  0  0  0  0  0
  139.4810   78.2990  221.8960 C   0  0  0  0  0  0  0  0  0  0  0  0
  138.8090   77.4130  220.9820 N   0  0  0  0  0  0  0  0  0  0  0  0
  139.1280   76.1810  220.7190 C   0  0  0  0  0  0  0  0  0  0  0  0
  138.2650   75.3960  219.9630 O   0  0  0  0  0  0  0  0  0  0  0  0
  140.4150   75.5880  221.2000 C   0  0  0  0  0  0  0  0  0  0  0  0
  143.1840   74.7720  219.7140 C   0  0  0  0  0  0  0  0  0  0  0  0
  144.8310   70.7030  219.6470 C   0  0  0  0  0  0  0  0  0  0  0  0
  145.1780   69.5530  218.6830 C   0  0  0  0  0  0  0  0  0  0  0  0
  145.5433   70.6164  216.4899 H   0  0  0  0  0  0  0  0  0  0  0  0
  145.1607   69.0419  215.7147 H   0  0  0  0  0  0  0  0  0  0  0  0
  143.9430   70.3623  215.7147 H   0  0  0  0  0  0  0  0  0  0  0  0
  142.2203   69.7935  216.9939 H   0  0  0  0  0  0  0  0  0  0  0  0
  142.4789   69.4550  218.7571 H   0  0  0  0  0  0  0  0  0  0  0  0
  142.9745   72.0153  217.2008 H   0  0  0  0  0  0  0  0  0  0  0  0
  142.0697   71.7555  218.7422 H   0  0  0  0  0  0  0  0  0  0  0  0
  144.6911   74.7296  216.6425 H   0  0  0  0  0  0  0  0  0  0  0  0
  143.3610   76.8240  216.4098 H   0  0  0  0  0  0  0  0  0  0  0  0
  141.9075   77.6031  218.2754 H   0  0  0  0  0  0  0  0  0  0  0  0
  142.5541   79.2852  223.0703 H   0  0  0  0  0  0  0  0  0  0  0  0
  141.1080   80.6374  224.5783 H   0  0  0  0  0  0  0  0  0  0  0  0
  137.0224   83.8425  225.1259 H   0  0  0  0  0  0  0  0  0  0  0  0
  135.5636   85.1427  226.6814 H   0  0  0  0  0  0  0  0  0  0  0  0
  134.6033   84.0442  228.7075 H   0  0  0  0  0  0  0  0  0  0  0  0
  135.0963   81.6416  229.1797 H   0  0  0  0  0  0  0  0  0  0  0  0
  136.5591   80.3368  227.6305 H   0  0  0  0  0  0  0  0  0  0  0  0
  137.5868   78.9475  222.7272 H   0  0  0  0  0  0  0  0  0  0  0  0
  137.2730   75.3550  220.1720 H   0  0  0  0  0  0  0  0  0  0  0  0
  140.4254   75.5741  222.2999 H   0  0  0  0  0  0  0  0  0  0  0  0
  140.5118   74.5592  220.8230 H   0  0  0  0  0  0  0  0  0  0  0  0
  143.1571   74.2070  220.6574 H   0  0  0  0  0  0  0  0  0  0  0  0
  145.7561   71.0877  220.1010 H   0  0  0  0  0  0  0  0  0  0  0  0
  144.1572   70.3235  220.4293 H   0  0  0  0  0  0  0  0  0  0  0  0
  146.1701   69.7510  218.2510 H   0  0  0  0  0  0  0  0  0  0  0  0
  145.1505   68.6244  219.2720 H   0  0  0  0  0  0  0  0  0  0  0  0
  1  2  1  0
  2  3  1  0
  3  4  1  0
  4  5  1  0
  5  6  1  0
  6  7  2  0
  6  8  1  0
  8  9  2  0
  9 10  1  0
 10 11  2  0
 11 12  1  0
 12 13  1  0
 13 14  2  0
 14 15  1  0
 15 16  2  0
 16 17  1  0
 17 18  2  0
 18 19  1  0
 19 20  3  0
 20 21  1  0
 21 22  2  0
 22 23  1  0
 23 24  2  0
 24 25  1  0
 25 26  2  0
 18 27  1  0
 27 28  2  0
 28 29  1  0
 29 30  2  0
 30 31  1  0
 30 32  1  0
 12 33  2  0
  5 34  1  0
 34 35  1  0
 35  2  1  0
 33  8  1  0
 32 13  1  0
 28 15  1  0
 26 21  1  0
  1 36  1  0
  1 37  1  0
  1 38  1  0
  3 39  1  0
  3 40  1  0
  4 41  1  0
  4 42  1  0
  9 43  1  0
 10 44  1  0
 11 45  1  0
 16 46  1  0
 17 47  1  0
 22 48  1  0
 23 49  1  0
 24 50  1  0
 25 51  1  0
 26 52  1  0
 27 53  1  0
 31 54  1  0
 32 55  1  0
 32 56  1  0
 33 57  1  0
 34 58  1  0
 34 59  1  0
 35 60  1  0
 35 61  1  0
M  END
>  <meeko>  (20) 
{"free_energy": -4.77, "intermolecular_energy": -8.06, "internal_energy": -1.15, "cluster_size": 3, "cluster_id": 2, "rank_in_cluster": 3}

$$$$
