
     RDKit          3D

 41 42  0  0  0  0  0  0  0  0999 V2000
  140.1370   74.3070  220.4420 O   0  0  0  0  0  0  0  0  0  0  0  0
  139.9710   74.7200  221.6210 C   0  0  0  0  0  0  0  0  0  0  0  0
  139.9430   76.2000  221.9030 C   0  0  0  0  0  0  0  0  0  0  0  0
  138.5300   76.7330  222.1880 C   0  0  0  0  0  0  0  0  0  0  0  0
  137.4150   75.9630  221.4670 C   0  0  0  0  0  0  0  0  0  0  0  0
  136.4390   75.4820  222.3950 O   0  0  0  0  0  0  0  0  0  0  0  0
  136.3170   74.1690  222.8860 C   0  0  0  0  0  0  0  0  0  0  0  0
  136.8680   73.0490  222.2300 C   0  0  0  0  0  0  0  0  0  0  0  0
  136.6980   71.7650  222.7560 C   0  0  0  0  0  0  0  0  0  0  0  0
  135.9750   71.5810  223.9380 C   0  0  0  0  0  0  0  0  0  0  0  0
  135.7510   69.9680  224.5880 Cl  0  0  0  0  0  0  0  0  0  0  0  0
  135.4240   72.6830  224.5940 C   0  0  0  0  0  0  0  0  0  0  0  0
  135.5910   73.9700  224.0720 C   0  0  0  0  0  0  0  0  0  0  0  0
  134.8880   75.3370  224.9240 Cl  0  0  0  0  0  0  0  0  0  0  0  0
  139.8730   73.7640  222.6780 N   0  0  0  0  0  0  0  0  0  0  0  0
  140.7050   72.6350  222.7370 N   0  0  0  0  0  0  0  0  0  0  0  0
  140.2560   71.4300  222.9220 C   0  0  0  0  0  0  0  0  0  0  0  0
  140.0040   70.8430  224.2570 C   0  0  0  0  0  0  0  0  0  0  0  0
  139.3090   69.6310  224.4170 C   0  0  0  0  0  0  0  0  0  0  0  0
  139.1180   69.0910  225.6910 C   0  0  0  0  0  0  0  0  0  0  0  0
  139.6200   69.7500  226.8160 C   0  0  0  0  0  0  0  0  0  0  0  0
  140.3190   70.9620  226.6770 C   0  0  0  0  0  0  0  0  0  0  0  0
  140.9110   71.6550  227.8780 C   0  0  0  0  0  0  0  0  0  0  0  0
  141.6020   70.7320  228.6410 F   0  0  0  0  0  0  0  0  0  0  0  0
  141.7840   72.6510  227.4730 F   0  0  0  0  0  0  0  0  0  0  0  0
  139.9240   72.2340  228.6560 F   0  0  0  0  0  0  0  0  0  0  0  0
  140.5370   71.4800  225.3890 C   0  0  0  0  0  0  0  0  0  0  0  0
  140.5765   76.4014  222.7794 H   0  0  0  0  0  0  0  0  0  0  0  0
  140.3112   76.7125  221.0020 H   0  0  0  0  0  0  0  0  0  0  0  0
  138.3488   76.6707  223.2712 H   0  0  0  0  0  0  0  0  0  0  0  0
  138.4978   77.7662  221.8119 H   0  0  0  0  0  0  0  0  0  0  0  0
  136.9249   76.6325  220.7448 H   0  0  0  0  0  0  0  0  0  0  0  0
  137.8626   75.1003  220.9519 H   0  0  0  0  0  0  0  0  0  0  0  0
  137.4356   73.1866  221.2978 H   0  0  0  0  0  0  0  0  0  0  0  0
  137.1341   70.8977  222.2386 H   0  0  0  0  0  0  0  0  0  0  0  0
  134.8562   72.5388  225.5250 H   0  0  0  0  0  0  0  0  0  0  0  0
  140.0515   70.8109  222.0361 H   0  0  0  0  0  0  0  0  0  0  0  0
  138.9140   69.1058  223.5349 H   0  0  0  0  0  0  0  0  0  0  0  0
  138.5707   68.1441  225.8088 H   0  0  0  0  0  0  0  0  0  0  0  0
  139.4675   69.3182  227.8161 H   0  0  0  0  0  0  0  0  0  0  0  0
  141.1329   72.3964  225.2661 H   0  0  0  0  0  0  0  0  0  0  0  0
  1  2  2  0
  2  3  1  0
  3  4  1  0
  4  5  1  0
  5  6  1  0
  6  7  1  0
  7  8  2  0
  8  9  1  0
  9 10  2  0
 10 11  1  0
 10 12  1  0
 12 13  2  0
 13 14  1  0
  2 15  1  0
 15 16  1  0
 16 17  2  0
 17 18  1  0
 18 19  2  0
 19 20  1  0
 20 21  2  0
 21 22  1  0
 22 23  1  0
 23 24  1  0
 23 25  1  0
 23 26  1  0
 22 27  2  0
 13  7  1  0
 27 18  1  0
  3 28  1  0
  3 29  1  0
  4 30  1  0
  4 31  1  0
  5 32  1  0
  5 33  1  0
  8 34  1  0
  9 35  1  0
 12 36  1  0
 17 37  1  0
 19 38  1  0
 20 39  1  0
 21 40  1  0
 27 41  1  0
M  CHG  1  15  -1
M  END
>  <meeko>  (1) 
{"free_energy": -4.92, "intermolecular_energy": -7.9, "internal_energy": -1.85, "cluster_size": 2, "cluster_id": 6, "rank_in_cluster": 2}

$$$$

     RDKit          3D

 41 42  0  0  0  0  0  0  0  0999 V2000
  139.5110   74.8000  220.0120 O   0  0  0  0  0  0  0  0  0  0  0  0
  139.4380   74.7170  221.2670 C   0  0  0  0  0  0  0  0  0  0  0  0
  138.4360   75.5520  222.0200 C   0  0  0  0  0  0  0  0  0  0  0  0
  137.5980   76.4610  221.1050 C   0  0  0  0  0  0  0  0  0  0  0  0
  137.2630   77.8260  221.7210 C   0  0  0  0  0  0  0  0  0  0  0  0
  137.9770   78.0280  222.9450 O   0  0  0  0  0  0  0  0  0  0  0  0
  139.2500   78.6090  223.0920 C   0  0  0  0  0  0  0  0  0  0  0  0
  140.4420   77.9510  222.7260 C   0  0  0  0  0  0  0  0  0  0  0  0
  141.6800   78.5720  222.9140 C   0  0  0  0  0  0  0  0  0  0  0  0
  141.7460   79.8520  223.4710 C   0  0  0  0  0  0  0  0  0  0  0  0
  143.3010   80.6230  223.7180 Cl  0  0  0  0  0  0  0  0  0  0  0  0
  140.5720   80.5120  223.8380 C   0  0  0  0  0  0  0  0  0  0  0  0
  139.3290   79.8950  223.6530 C   0  0  0  0  0  0  0  0  0  0  0  0
  137.8690   80.7530  224.1220 Cl  0  0  0  0  0  0  0  0  0  0  0  0
  140.3600   73.8700  221.9550 N   0  0  0  0  0  0  0  0  0  0  0  0
  139.9510   73.0100  222.9850 N   0  0  0  0  0  0  0  0  0  0  0  0
  140.3260   71.7680  223.0660 C   0  0  0  0  0  0  0  0  0  0  0  0
  140.2730   70.9730  224.3140 C   0  0  0  0  0  0  0  0  0  0  0  0
  139.9010   69.6170  224.3160 C   0  0  0  0  0  0  0  0  0  0  0  0
  139.8930   68.8910  225.5090 C   0  0  0  0  0  0  0  0  0  0  0  0
  140.2580   69.5050  226.7080 C   0  0  0  0  0  0  0  0  0  0  0  0
  140.6350   70.8600  226.7270 C   0  0  0  0  0  0  0  0  0  0  0  0
  141.0820   71.5210  228.0070 C   0  0  0  0  0  0  0  0  0  0  0  0
  141.8540   72.6260  227.7010 F   0  0  0  0  0  0  0  0  0  0  0  0
  139.9820   71.9270  228.7450 F   0  0  0  0  0  0  0  0  0  0  0  0
  141.8270   70.6510  228.7830 F   0  0  0  0  0  0  0  0  0  0  0  0
  140.6730   71.5740  225.5180 C   0  0  0  0  0  0  0  0  0  0  0  0
  137.7559   74.8784  222.5619 H   0  0  0  0  0  0  0  0  0  0  0  0
  139.0002   76.2046  222.7025 H   0  0  0  0  0  0  0  0  0  0  0  0
  138.1609   76.6296  220.1751 H   0  0  0  0  0  0  0  0  0  0  0  0
  136.6416   75.9455  220.9328 H   0  0  0  0  0  0  0  0  0  0  0  0
  137.5382   78.6185  221.0095 H   0  0  0  0  0  0  0  0  0  0  0  0
  136.1847   77.8571  221.9362 H   0  0  0  0  0  0  0  0  0  0  0  0
  140.3974   76.9422  222.2896 H   0  0  0  0  0  0  0  0  0  0  0  0
  142.6045   78.0520  222.6228 H   0  0  0  0  0  0  0  0  0  0  0  0
  140.6237   81.5205  224.2741 H   0  0  0  0  0  0  0  0  0  0  0  0
  140.7042   71.2799  222.1557 H   0  0  0  0  0  0  0  0  0  0  0  0
  139.6151   69.1260  223.3741 H   0  0  0  0  0  0  0  0  0  0  0  0
  139.5979   67.8313  225.5036 H   0  0  0  0  0  0  0  0  0  0  0  0
  140.2508   68.9261  227.6433 H   0  0  0  0  0  0  0  0  0  0  0  0
  141.0207   72.6176  225.5145 H   0  0  0  0  0  0  0  0  0  0  0  0
  1  2  2  0
  2  3  1  0
  3  4  1  0
  4  5  1  0
  5  6  1  0
  6  7  1  0
  7  8  2  0
  8  9  1  0
  9 10  2  0
 10 11  1  0
 10 12  1  0
 12 13  2  0
 13 14  1  0
  2 15  1  0
 15 16  1  0
 16 17  2  0
 17 18  1  0
 18 19  2  0
 19 20  1  0
 20 21  2  0
 21 22  1  0
 22 23  1  0
 23 24  1  0
 23 25  1  0
 23 26  1  0
 22 27  2  0
 13  7  1  0
 27 18  1  0
  3 28  1  0
  3 29  1  0
  4 30  1  0
  4 31  1  0
  5 32  1  0
  5 33  1  0
  8 34  1  0
  9 35  1  0
 12 36  1  0
 17 37  1  0
 19 38  1  0
 20 39  1  0
 21 40  1  0
 27 41  1  0
M  CHG  1  15  -1
M  END
>  <meeko>  (2) 
{"free_energy": -6.55, "intermolecular_energy": -9.53, "internal_energy": -0.77, "cluster_size": 6, "cluster_id": 1, "rank_in_cluster": 4}

$$$$

     RDKit          3D

 41 42  0  0  0  0  0  0  0  0999 V2000
  138.4650   75.4130  221.8860 O   0  0  0  0  0  0  0  0  0  0  0  0
  138.7700   74.2370  221.5520 C   0  0  0  0  0  0  0  0  0  0  0  0
  137.7470   73.3520  220.8900 C   0  0  0  0  0  0  0  0  0  0  0  0
  136.5440   73.0380  221.7950 C   0  0  0  0  0  0  0  0  0  0  0  0
  136.9150   72.3040  223.0910 C   0  0  0  0  0  0  0  0  0  0  0  0
  135.7810   72.1840  223.9560 O   0  0  0  0  0  0  0  0  0  0  0  0
  135.1510   73.2220  224.6670 C   0  0  0  0  0  0  0  0  0  0  0  0
  135.4490   74.5850  224.4640 C   0  0  0  0  0  0  0  0  0  0  0  0
  134.8020   75.5700  225.2140 C   0  0  0  0  0  0  0  0  0  0  0  0
  133.8550   75.2120  226.1780 C   0  0  0  0  0  0  0  0  0  0  0  0
  133.0560   76.4490  227.1280 Cl  0  0  0  0  0  0  0  0  0  0  0  0
  133.5540   73.8650  226.3890 C   0  0  0  0  0  0  0  0  0  0  0  0
  134.1980   72.8730  225.6400 C   0  0  0  0  0  0  0  0  0  0  0  0
  133.7950   71.1870  225.9260 Cl  0  0  0  0  0  0  0  0  0  0  0  0
  140.0750   73.7470  221.8710 N   0  0  0  0  0  0  0  0  0  0  0  0
  140.3230   72.9990  223.0310 N   0  0  0  0  0  0  0  0  0  0  0  0
  140.1790   71.7090  223.0900 C   0  0  0  0  0  0  0  0  0  0  0  0
  140.0220   70.9560  224.3560 C   0  0  0  0  0  0  0  0  0  0  0  0
  139.4240   69.6850  224.3940 C   0  0  0  0  0  0  0  0  0  0  0  0
  139.3220   68.9900  225.6020 C   0  0  0  0  0  0  0  0  0  0  0  0
  139.8180   69.5540  226.7800 C   0  0  0  0  0  0  0  0  0  0  0  0
  140.4200   70.8240  226.7620 C   0  0  0  0  0  0  0  0  0  0  0  0
  141.0060   71.4200  228.0170 C   0  0  0  0  0  0  0  0  0  0  0  0
  141.8310   72.4770  227.6760 F   0  0  0  0  0  0  0  0  0  0  0  0
  139.9960   71.8830  228.8430 F   0  0  0  0  0  0  0  0  0  0  0  0
  141.7430   70.4810  228.7180 F   0  0  0  0  0  0  0  0  0  0  0  0
  140.5490   71.5010  225.5370 C   0  0  0  0  0  0  0  0  0  0  0  0
  137.3809   73.8573  219.9841 H   0  0  0  0  0  0  0  0  0  0  0  0
  138.2409   72.3968  220.6582 H   0  0  0  0  0  0  0  0  0  0  0  0
  136.0547   73.9863  222.0620 H   0  0  0  0  0  0  0  0  0  0  0  0
  135.8833   72.3672  221.2263 H   0  0  0  0  0  0  0  0  0  0  0  0
  137.2849   71.2986  222.8415 H   0  0  0  0  0  0  0  0  0  0  0  0
  137.6923   72.8830  223.6111 H   0  0  0  0  0  0  0  0  0  0  0  0
  136.1958   74.8747  223.7101 H   0  0  0  0  0  0  0  0  0  0  0  0
  135.0385   76.6310  225.0455 H   0  0  0  0  0  0  0  0  0  0  0  0
  132.8082   73.5823  227.1465 H   0  0  0  0  0  0  0  0  0  0  0  0
  140.1734   71.1440  222.1462 H   0  0  0  0  0  0  0  0  0  0  0  0
  139.0345   69.2352  223.4688 H   0  0  0  0  0  0  0  0  0  0  0  0
  138.8501   67.9966  225.6255 H   0  0  0  0  0  0  0  0  0  0  0  0
  139.7369   69.0008  227.7273 H   0  0  0  0  0  0  0  0  0  0  0  0
  141.0693   72.4696  225.5036 H   0  0  0  0  0  0  0  0  0  0  0  0
  1  2  2  0
  2  3  1  0
  3  4  1  0
  4  5  1  0
  5  6  1  0
  6  7  1  0
  7  8  2  0
  8  9  1  0
  9 10  2  0
 10 11  1  0
 10 12  1  0
 12 13  2  0
 13 14  1  0
  2 15  1  0
 15 16  1  0
 16 17  2  0
 17 18  1  0
 18 19  2  0
 19 20  1  0
 20 21  2  0
 21 22  1  0
 22 23  1  0
 23 24  1  0
 23 25  1  0
 23 26  1  0
 22 27  2  0
 13  7  1  0
 27 18  1  0
  3 28  1  0
  3 29  1  0
  4 30  1  0
  4 31  1  0
  5 32  1  0
  5 33  1  0
  8 34  1  0
  9 35  1  0
 12 36  1  0
 17 37  1  0
 19 38  1  0
 20 39  1  0
 21 40  1  0
 27 41  1  0
M  CHG  1  15  -1
M  END
>  <meeko>  (3) 
{"free_energy": -5.4, "intermolecular_energy": -8.38, "internal_energy": -1.21, "cluster_size": 2, "cluster_id": 6, "rank_in_cluster": 1}

$$$$

     RDKit          3D

 41 42  0  0  0  0  0  0  0  0999 V2000
  141.1760   73.9380  220.8010 O   0  0  0  0  0  0  0  0  0  0  0  0
  140.2490   73.9570  221.6530 C   0  0  0  0  0  0  0  0  0  0  0  0
  139.1700   75.0050  221.5680 C   0  0  0  0  0  0  0  0  0  0  0  0
  139.5310   76.3050  222.3050 C   0  0  0  0  0  0  0  0  0  0  0  0
  141.0390   76.5760  222.3880 C   0  0  0  0  0  0  0  0  0  0  0  0
  141.3040   77.9780  222.5060 O   0  0  0  0  0  0  0  0  0  0  0  0
  141.4880   78.8930  221.4540 C   0  0  0  0  0  0  0  0  0  0  0  0
  141.5740   78.5020  220.1010 C   0  0  0  0  0  0  0  0  0  0  0  0
  141.7760   79.4570  219.1010 C   0  0  0  0  0  0  0  0  0  0  0  0
  141.8990   80.8080  219.4330 C   0  0  0  0  0  0  0  0  0  0  0  0
  142.1660   82.0010  218.1770 Cl  0  0  0  0  0  0  0  0  0  0  0  0
  141.8160   81.2060  220.7690 C   0  0  0  0  0  0  0  0  0  0  0  0
  141.6140   80.2550  221.7760 C   0  0  0  0  0  0  0  0  0  0  0  0
  141.5100   80.7870  223.4480 Cl  0  0  0  0  0  0  0  0  0  0  0  0
  140.2790   73.0130  222.7250 N   0  0  0  0  0  0  0  0  0  0  0  0
  139.9280   71.6670  222.5390 N   0  0  0  0  0  0  0  0  0  0  0  0
  139.1630   71.0120  223.3590 C   0  0  0  0  0  0  0  0  0  0  0  0
  139.6260   70.4670  224.6570 C   0  0  0  0  0  0  0  0  0  0  0  0
  139.7520   69.0860  224.8800 C   0  0  0  0  0  0  0  0  0  0  0  0
  140.2210   68.6100  226.1070 C   0  0  0  0  0  0  0  0  0  0  0  0
  140.5720   69.5050  227.1190 C   0  0  0  0  0  0  0  0  0  0  0  0
  140.4550   70.8910  226.9150 C   0  0  0  0  0  0  0  0  0  0  0  0
  140.8800   71.8690  227.9810 C   0  0  0  0  0  0  0  0  0  0  0  0
  141.4650   72.9690  227.3810 F   0  0  0  0  0  0  0  0  0  0  0  0
  139.7820   72.2850  228.7150 F   0  0  0  0  0  0  0  0  0  0  0  0
  141.7900   71.2930  228.8510 F   0  0  0  0  0  0  0  0  0  0  0  0
  140.0140   71.3620  225.6660 C   0  0  0  0  0  0  0  0  0  0  0  0
  138.9942   75.2410  220.5081 H   0  0  0  0  0  0  0  0  0  0  0  0
  138.2732   74.5918  222.0528 H   0  0  0  0  0  0  0  0  0  0  0  0
  139.0569   77.1454  221.7768 H   0  0  0  0  0  0  0  0  0  0  0  0
  139.1693   76.1966  223.3382 H   0  0  0  0  0  0  0  0  0  0  0  0
  141.4496   76.0574  223.2669 H   0  0  0  0  0  0  0  0  0  0  0  0
  141.5120   76.2069  221.4660 H   0  0  0  0  0  0  0  0  0  0  0  0
  141.4815   77.4395  219.8318 H   0  0  0  0  0  0  0  0  0  0  0  0
  141.8384   79.1435  218.0485 H   0  0  0  0  0  0  0  0  0  0  0  0
  141.9097   82.2703  221.0308 H   0  0  0  0  0  0  0  0  0  0  0  0
  138.1125   70.8528  223.0741 H   0  0  0  0  0  0  0  0  0  0  0  0
  139.4802   68.3760  224.0850 H   0  0  0  0  0  0  0  0  0  0  0  0
  140.3139   67.5270  226.2760 H   0  0  0  0  0  0  0  0  0  0  0  0
  140.9424   69.1235  228.0820 H   0  0  0  0  0  0  0  0  0  0  0  0
  139.9726   72.4449  225.4773 H   0  0  0  0  0  0  0  0  0  0  0  0
  1  2  2  0
  2  3  1  0
  3  4  1  0
  4  5  1  0
  5  6  1  0
  6  7  1  0
  7  8  2  0
  8  9  1  0
  9 10  2  0
 10 11  1  0
 10 12  1  0
 12 13  2  0
 13 14  1  0
  2 15  1  0
 15 16  1  0
 16 17  2  0
 17 18  1  0
 18 19  2  0
 19 20  1  0
 20 21  2  0
 21 22  1  0
 22 23  1  0
 23 24  1  0
 23 25  1  0
 23 26  1  0
 22 27  2  0
 13  7  1  0
 27 18  1  0
  3 28  1  0
  3 29  1  0
  4 30  1  0
  4 31  1  0
  5 32  1  0
  5 33  1  0
  8 34  1  0
  9 35  1  0
 12 36  1  0
 17 37  1  0
 19 38  1  0
 20 39  1  0
 21 40  1  0
 27 41  1  0
M  CHG  1  15  -1
M  END
>  <meeko>  (4) 
{"free_energy": -6.0, "intermolecular_energy": -8.98, "internal_energy": -0.8, "cluster_size": 6, "cluster_id": 2, "rank_in_cluster": 6}

$$$$

     RDKit          3D

 41 42  0  0  0  0  0  0  0  0999 V2000
  142.9630   74.2180  220.8750 O   0  0  0  0  0  0  0  0  0  0  0  0
  141.9050   74.8930  220.7640 C   0  0  0  0  0  0  0  0  0  0  0  0
  141.5550   75.5330  219.4460 C   0  0  0  0  0  0  0  0  0  0  0  0
  142.7070   76.3600  218.8520 C   0  0  0  0  0  0  0  0  0  0  0  0
  142.2670   77.7030  218.2550 C   0  0  0  0  0  0  0  0  0  0  0  0
  141.3480   78.3750  219.1210 O   0  0  0  0  0  0  0  0  0  0  0  0
  141.6490   79.0140  220.3380 C   0  0  0  0  0  0  0  0  0  0  0  0
  141.8410   78.3130  221.5470 C   0  0  0  0  0  0  0  0  0  0  0  0
  142.1200   79.0050  222.7290 C   0  0  0  0  0  0  0  0  0  0  0  0
  142.2050   80.4000  222.7230 C   0  0  0  0  0  0  0  0  0  0  0  0
  142.5400   81.2660  224.2100 Cl  0  0  0  0  0  0  0  0  0  0  0  0
  142.0140   81.1030  221.5320 C   0  0  0  0  0  0  0  0  0  0  0  0
  141.7350   80.4160  220.3450 C   0  0  0  0  0  0  0  0  0  0  0  0
  141.5040   81.3290  218.8620 Cl  0  0  0  0  0  0  0  0  0  0  0  0
  141.0860   75.0860  221.9190 N   0  0  0  0  0  0  0  0  0  0  0  0
  139.8290   74.4770  222.0480 N   0  0  0  0  0  0  0  0  0  0  0  0
  138.7100   75.1340  221.9780 C   0  0  0  0  0  0  0  0  0  0  0  0
  138.6220   76.5760  221.6520 C   0  0  0  0  0  0  0  0  0  0  0  0
  138.3670   77.0290  220.3470 C   0  0  0  0  0  0  0  0  0  0  0  0
  138.2590   78.3960  220.0830 C   0  0  0  0  0  0  0  0  0  0  0  0
  138.4000   79.3240  221.1180 C   0  0  0  0  0  0  0  0  0  0  0  0
  138.6530   78.8900  222.4320 C   0  0  0  0  0  0  0  0  0  0  0  0
  138.7540   79.8790  223.5660 C   0  0  0  0  0  0  0  0  0  0  0  0
  137.5060   80.0450  224.1360 F   0  0  0  0  0  0  0  0  0  0  0  0
  139.6340   79.4130  224.5290 F   0  0  0  0  0  0  0  0  0  0  0  0
  139.2120   81.1060  223.1190 F   0  0  0  0  0  0  0  0  0  0  0  0
  138.7260   77.5120  222.6930 C   0  0  0  0  0  0  0  0  0  0  0  0
  141.2887   74.7401  218.7316 H   0  0  0  0  0  0  0  0  0  0  0  0
  140.7169   76.2218  219.6283 H   0  0  0  0  0  0  0  0  0  0  0  0
  143.4375   76.5588  219.6500 H   0  0  0  0  0  0  0  0  0  0  0  0
  143.1315   75.7686  218.0273 H   0  0  0  0  0  0  0  0  0  0  0  0
  143.1528   78.3385  218.1085 H   0  0  0  0  0  0  0  0  0  0  0  0
  141.7658   77.5111  217.2948 H   0  0  0  0  0  0  0  0  0  0  0  0
  141.7708   77.2153  221.5596 H   0  0  0  0  0  0  0  0  0  0  0  0
  142.2730   78.4501  223.6664 H   0  0  0  0  0  0  0  0  0  0  0  0
  142.0831   82.2008  221.5265 H   0  0  0  0  0  0  0  0  0  0  0  0
  137.7750   74.5880  222.1719 H   0  0  0  0  0  0  0  0  0  0  0  0
  138.2518   76.3030  219.5287 H   0  0  0  0  0  0  0  0  0  0  0  0
  138.0625   78.7430  219.0578 H   0  0  0  0  0  0  0  0  0  0  0  0
  138.3127   80.3995  220.9042 H   0  0  0  0  0  0  0  0  0  0  0  0
  138.8664   77.1617  223.7262 H   0  0  0  0  0  0  0  0  0  0  0  0
  1  2  2  0
  2  3  1  0
  3  4  1  0
  4  5  1  0
  5  6  1  0
  6  7  1  0
  7  8  2  0
  8  9  1  0
  9 10  2  0
 10 11  1  0
 10 12  1  0
 12 13  2  0
 13 14  1  0
  2 15  1  0
 15 16  1  0
 16 17  2  0
 17 18  1  0
 18 19  2  0
 19 20  1  0
 20 21  2  0
 21 22  1  0
 22 23  1  0
 23 24  1  0
 23 25  1  0
 23 26  1  0
 22 27  2  0
 13  7  1  0
 27 18  1  0
  3 28  1  0
  3 29  1  0
  4 30  1  0
  4 31  1  0
  5 32  1  0
  5 33  1  0
  8 34  1  0
  9 35  1  0
 12 36  1  0
 17 37  1  0
 19 38  1  0
 20 39  1  0
 21 40  1  0
 27 41  1  0
M  CHG  1  15  -1
M  END
>  <meeko>  (5) 
{"free_energy": -4.02, "intermolecular_energy": -7.01, "internal_energy": -2.56, "cluster_size": 1, "cluster_id": 8, "rank_in_cluster": 1}

$$$$

     RDKit          3D

 41 42  0  0  0  0  0  0  0  0999 V2000
  137.8460   72.6620  222.3190 O   0  0  0  0  0  0  0  0  0  0  0  0
  138.3870   73.7170  221.8920 C   0  0  0  0  0  0  0  0  0  0  0  0
  137.6950   74.5460  220.8420 C   0  0  0  0  0  0  0  0  0  0  0  0
  136.9930   75.7860  221.4190 C   0  0  0  0  0  0  0  0  0  0  0  0
  137.5650   76.2570  222.7630 C   0  0  0  0  0  0  0  0  0  0  0  0
  137.8040   77.6680  222.7540 O   0  0  0  0  0  0  0  0  0  0  0  0
  139.0450   78.3140  222.9010 C   0  0  0  0  0  0  0  0  0  0  0  0
  140.2700   77.7150  222.5420 C   0  0  0  0  0  0  0  0  0  0  0  0
  141.4740   78.4000  222.7280 C   0  0  0  0  0  0  0  0  0  0  0  0
  141.4740   79.6850  223.2780 C   0  0  0  0  0  0  0  0  0  0  0  0
  142.9860   80.5360  223.5240 Cl  0  0  0  0  0  0  0  0  0  0  0  0
  140.2660   80.2870  223.6380 C   0  0  0  0  0  0  0  0  0  0  0  0
  139.0580   79.6060  223.4530 C   0  0  0  0  0  0  0  0  0  0  0  0
  137.5540   80.3910  223.9130 Cl  0  0  0  0  0  0  0  0  0  0  0  0
  139.6850   74.0690  222.3750 N   0  0  0  0  0  0  0  0  0  0  0  0
  140.7000   73.1140  222.5410 N   0  0  0  0  0  0  0  0  0  0  0  0
  140.4660   71.8410  222.6580 C   0  0  0  0  0  0  0  0  0  0  0  0
  140.1400   71.1800  223.9420 C   0  0  0  0  0  0  0  0  0  0  0  0
  139.3880   69.9940  223.9970 C   0  0  0  0  0  0  0  0  0  0  0  0
  139.1270   69.3810  225.2250 C   0  0  0  0  0  0  0  0  0  0  0  0
  139.6150   69.9410  226.4080 C   0  0  0  0  0  0  0  0  0  0  0  0
  140.3710   71.1270  226.3730 C   0  0  0  0  0  0  0  0  0  0  0  0
  140.9490   71.7130  227.6370 C   0  0  0  0  0  0  0  0  0  0  0  0
  141.9080   72.6510  227.3060 F   0  0  0  0  0  0  0  0  0  0  0  0
  139.9520   72.3260  228.3790 F   0  0  0  0  0  0  0  0  0  0  0  0
  141.5300   70.7310  228.4220 F   0  0  0  0  0  0  0  0  0  0  0  0
  140.6580   71.7180  225.1310 C   0  0  0  0  0  0  0  0  0  0  0  0
  138.4441   74.8776  220.1079 H   0  0  0  0  0  0  0  0  0  0  0  0
  136.9203   73.9142  220.3830 H   0  0  0  0  0  0  0  0  0  0  0  0
  137.0907   76.6077  220.6942 H   0  0  0  0  0  0  0  0  0  0  0  0
  135.9453   75.5039  221.5998 H   0  0  0  0  0  0  0  0  0  0  0  0
  136.8476   76.0190  223.5622 H   0  0  0  0  0  0  0  0  0  0  0  0
  138.5211   75.7413  222.9363 H   0  0  0  0  0  0  0  0  0  0  0  0
  140.2781   76.7022  222.1129 H   0  0  0  0  0  0  0  0  0  0  0  0
  142.4244   77.9265  222.4407 H   0  0  0  0  0  0  0  0  0  0  0  0
  140.2646   81.2994  224.0682 H   0  0  0  0  0  0  0  0  0  0  0  0
  140.5128   71.2194  221.7517 H   0  0  0  0  0  0  0  0  0  0  0  0
  139.0031   69.5463  223.0689 H   0  0  0  0  0  0  0  0  0  0  0  0
  138.5353   68.4544  225.2604 H   0  0  0  0  0  0  0  0  0  0  0  0
  139.4073   69.4524  227.3714 H   0  0  0  0  0  0  0  0  0  0  0  0
  141.2962   72.6130  225.0896 H   0  0  0  0  0  0  0  0  0  0  0  0
  1  2  2  0
  2  3  1  0
  3  4  1  0
  4  5  1  0
  5  6  1  0
  6  7  1  0
  7  8  2  0
  8  9  1  0
  9 10  2  0
 10 11  1  0
 10 12  1  0
 12 13  2  0
 13 14  1  0
  2 15  1  0
 15 16  1  0
 16 17  2  0
 17 18  1  0
 18 19  2  0
 19 20  1  0
 20 21  2  0
 21 22  1  0
 22 23  1  0
 23 24  1  0
 23 25  1  0
 23 26  1  0
 22 27  2  0
 13  7  1  0
 27 18  1  0
  3 28  1  0
  3 29  1  0
  4 30  1  0
  4 31  1  0
  5 32  1  0
  5 33  1  0
  8 34  1  0
  9 35  1  0
 12 36  1  0
 17 37  1  0
 19 38  1  0
 20 39  1  0
 21 40  1  0
 27 41  1  0
M  CHG  1  15  -1
M  END
>  <meeko>  (6) 
{"free_energy": -6.39, "intermolecular_energy": -9.37, "internal_energy": -0.7, "cluster_size": 6, "cluster_id": 1, "rank_in_cluster": 5}

$$$$

     RDKit          3D

 41 42  0  0  0  0  0  0  0  0999 V2000
  140.3570   76.0380  222.3790 O   0  0  0  0  0  0  0  0  0  0  0  0
  139.5660   75.0820  222.1600 C   0  0  0  0  0  0  0  0  0  0  0  0
  138.0780   75.3010  222.2470 C   0  0  0  0  0  0  0  0  0  0  0  0
  137.7030   76.6960  222.7730 C   0  0  0  0  0  0  0  0  0  0  0  0
  137.0190   77.5920  221.7320 C   0  0  0  0  0  0  0  0  0  0  0  0
  137.5690   78.9120  221.7480 O   0  0  0  0  0  0  0  0  0  0  0  0
  138.8610   79.2830  222.1660 C   0  0  0  0  0  0  0  0  0  0  0  0
  140.0320   78.8850  221.4890 C   0  0  0  0  0  0  0  0  0  0  0  0
  141.2890   79.2690  221.9640 C   0  0  0  0  0  0  0  0  0  0  0  0
  141.3950   80.0480  223.1200 C   0  0  0  0  0  0  0  0  0  0  0  0
  142.9740   80.5160  223.7210 Cl  0  0  0  0  0  0  0  0  0  0  0  0
  140.2420   80.4450  223.7990 C   0  0  0  0  0  0  0  0  0  0  0  0
  138.9810   80.0640  223.3280 C   0  0  0  0  0  0  0  0  0  0  0  0
  137.5480   80.5840  224.2020 Cl  0  0  0  0  0  0  0  0  0  0  0  0
  140.1080   73.7880  221.8920 N   0  0  0  0  0  0  0  0  0  0  0  0
  140.5030   72.9210  222.9230 N   0  0  0  0  0  0  0  0  0  0  0  0
  140.0700   71.7010  223.0300 C   0  0  0  0  0  0  0  0  0  0  0  0
  140.0100   70.9600  224.3110 C   0  0  0  0  0  0  0  0  0  0  0  0
  139.5430   69.6360  224.3820 C   0  0  0  0  0  0  0  0  0  0  0  0
  139.5310   68.9570  225.6030 C   0  0  0  0  0  0  0  0  0  0  0  0
  139.9860   69.5890  226.7620 C   0  0  0  0  0  0  0  0  0  0  0  0
  140.4580   70.9130  226.7120 C   0  0  0  0  0  0  0  0  0  0  0  0
  141.0010   71.5880  227.9460 C   0  0  0  0  0  0  0  0  0  0  0  0
  141.7000   70.6640  228.6990 F   0  0  0  0  0  0  0  0  0  0  0  0
  141.8530   72.6210  227.5910 F   0  0  0  0  0  0  0  0  0  0  0  0
  139.9790   72.1160  228.7160 F   0  0  0  0  0  0  0  0  0  0  0  0
  140.4990   71.5760  225.4730 C   0  0  0  0  0  0  0  0  0  0  0  0
  137.6468   75.1782  221.2425 H   0  0  0  0  0  0  0  0  0  0  0  0
  137.6793   74.5639  222.9596 H   0  0  0  0  0  0  0  0  0  0  0  0
  137.0191   76.5719  223.6255 H   0  0  0  0  0  0  0  0  0  0  0  0
  138.6430   77.1939  223.0532 H   0  0  0  0  0  0  0  0  0  0  0  0
  137.1620   77.1553  220.7326 H   0  0  0  0  0  0  0  0  0  0  0  0
  135.9484   77.6566  221.9760 H   0  0  0  0  0  0  0  0  0  0  0  0
  139.9557   78.2684  220.5813 H   0  0  0  0  0  0  0  0  0  0  0  0
  142.1971   78.9576  221.4270 H   0  0  0  0  0  0  0  0  0  0  0  0
  140.3251   81.0595  224.7075 H   0  0  0  0  0  0  0  0  0  0  0  0
  139.7287   71.1895  222.1179 H   0  0  0  0  0  0  0  0  0  0  0  0
  139.1853   69.1322  223.4719 H   0  0  0  0  0  0  0  0  0  0  0  0
  139.1622   67.9218  225.6514 H   0  0  0  0  0  0  0  0  0  0  0  0
  139.9752   69.0482  227.7198 H   0  0  0  0  0  0  0  0  0  0  0  0
  140.9198   72.5906  225.4137 H   0  0  0  0  0  0  0  0  0  0  0  0
  1  2  2  0
  2  3  1  0
  3  4  1  0
  4  5  1  0
  5  6  1  0
  6  7  1  0
  7  8  2  0
  8  9  1  0
  9 10  2  0
 10 11  1  0
 10 12  1  0
 12 13  2  0
 13 14  1  0
  2 15  1  0
 15 16  1  0
 16 17  2  0
 17 18  1  0
 18 19  2  0
 19 20  1  0
 20 21  2  0
 21 22  1  0
 22 23  1  0
 23 24  1  0
 23 25  1  0
 23 26  1  0
 22 27  2  0
 13  7  1  0
 27 18  1  0
  3 28  1  0
  3 29  1  0
  4 30  1  0
  4 31  1  0
  5 32  1  0
  5 33  1  0
  8 34  1  0
  9 35  1  0
 12 36  1  0
 17 37  1  0
 19 38  1  0
 20 39  1  0
 21 40  1  0
 27 41  1  0
M  CHG  1  15  -1
M  END
>  <meeko>  (7) 
{"free_energy": -6.55, "intermolecular_energy": -9.53, "internal_energy": -1.03, "cluster_size": 6, "cluster_id": 1, "rank_in_cluster": 3}

$$$$

     RDKit          3D

 41 42  0  0  0  0  0  0  0  0999 V2000
  140.6340   76.3400  222.7200 O   0  0  0  0  0  0  0  0  0  0  0  0
  140.0620   75.5010  221.9730 C   0  0  0  0  0  0  0  0  0  0  0  0
  138.8370   75.9010  221.1930 C   0  0  0  0  0  0  0  0  0  0  0  0
  137.8520   76.7530  222.0090 C   0  0  0  0  0  0  0  0  0  0  0  0
  137.2580   77.9360  221.2330 C   0  0  0  0  0  0  0  0  0  0  0  0
  137.7380   79.1820  221.7470 O   0  0  0  0  0  0  0  0  0  0  0  0
  139.0630   79.4920  222.1050 C   0  0  0  0  0  0  0  0  0  0  0  0
  140.1770   79.1240  221.3230 C   0  0  0  0  0  0  0  0  0  0  0  0
  141.4720   79.4430  221.7420 C   0  0  0  0  0  0  0  0  0  0  0  0
  141.6730   80.1280  222.9430 C   0  0  0  0  0  0  0  0  0  0  0  0
  143.2990   80.5150  223.4710 Cl  0  0  0  0  0  0  0  0  0  0  0  0
  140.5770   80.4960  223.7250 C   0  0  0  0  0  0  0  0  0  0  0  0
  139.2780   80.1790  223.3120 C   0  0  0  0  0  0  0  0  0  0  0  0
  137.9190   80.6590  224.3170 Cl  0  0  0  0  0  0  0  0  0  0  0  0
  140.5580   74.1620  221.9350 N   0  0  0  0  0  0  0  0  0  0  0  0
  139.9260   73.1160  222.6240 N   0  0  0  0  0  0  0  0  0  0  0  0
  140.5280   72.0120  222.9490 C   0  0  0  0  0  0  0  0  0  0  0  0
  140.2450   71.2560  224.1900 C   0  0  0  0  0  0  0  0  0  0  0  0
  139.6060   70.0050  224.1690 C   0  0  0  0  0  0  0  0  0  0  0  0
  139.3840   69.3060  225.3580 C   0  0  0  0  0  0  0  0  0  0  0  0
  139.8000   69.8450  226.5770 C   0  0  0  0  0  0  0  0  0  0  0  0
  140.4440   71.0950  226.6200 C   0  0  0  0  0  0  0  0  0  0  0  0
  140.9450   71.6620  227.9240 C   0  0  0  0  0  0  0  0  0  0  0  0
  141.5440   70.6550  228.6570 F   0  0  0  0  0  0  0  0  0  0  0  0
  141.8740   72.6620  227.6840 F   0  0  0  0  0  0  0  0  0  0  0  0
  139.9070   72.2030  228.6640 F   0  0  0  0  0  0  0  0  0  0  0  0
  140.6930   71.7750  225.4160 C   0  0  0  0  0  0  0  0  0  0  0  0
  139.1558   76.4805  220.3141 H   0  0  0  0  0  0  0  0  0  0  0  0
  138.3130   74.9762  220.9098 H   0  0  0  0  0  0  0  0  0  0  0  0
  137.0258   76.1059  222.3387 H   0  0  0  0  0  0  0  0  0  0  0  0
  138.4197   77.1773  222.8503 H   0  0  0  0  0  0  0  0  0  0  0  0
  137.5430   77.8505  220.1740 H   0  0  0  0  0  0  0  0  0  0  0  0
  136.1637   77.9113  221.3420 H   0  0  0  0  0  0  0  0  0  0  0  0
  140.0262   78.5826  220.3774 H   0  0  0  0  0  0  0  0  0  0  0  0
  142.3351   79.1539  221.1244 H   0  0  0  0  0  0  0  0  0  0  0  0
  140.7349   81.0373  224.6695 H   0  0  0  0  0  0  0  0  0  0  0  0
  141.2916   71.6162  222.2632 H   0  0  0  0  0  0  0  0  0  0  0  0
  139.2788   69.5737  223.2114 H   0  0  0  0  0  0  0  0  0  0  0  0
  138.8802   68.3285  225.3338 H   0  0  0  0  0  0  0  0  0  0  0  0
  139.6231   69.2888  227.5094 H   0  0  0  0  0  0  0  0  0  0  0  0
  141.2458   72.7259  225.4337 H   0  0  0  0  0  0  0  0  0  0  0  0
  1  2  2  0
  2  3  1  0
  3  4  1  0
  4  5  1  0
  5  6  1  0
  6  7  1  0
  7  8  2  0
  8  9  1  0
  9 10  2  0
 10 11  1  0
 10 12  1  0
 12 13  2  0
 13 14  1  0
  2 15  1  0
 15 16  1  0
 16 17  2  0
 17 18  1  0
 18 19  2  0
 19 20  1  0
 20 21  2  0
 21 22  1  0
 22 23  1  0
 23 24  1  0
 23 25  1  0
 23 26  1  0
 22 27  2  0
 13  7  1  0
 27 18  1  0
  3 28  1  0
  3 29  1  0
  4 30  1  0
  4 31  1  0
  5 32  1  0
  5 33  1  0
  8 34  1  0
  9 35  1  0
 12 36  1  0
 17 37  1  0
 19 38  1  0
 20 39  1  0
 21 40  1  0
 27 41  1  0
M  CHG  1  15  -1
M  END
>  <meeko>  (8) 
{"free_energy": -6.56, "intermolecular_energy": -9.54, "internal_energy": -1.07, "cluster_size": 6, "cluster_id": 1, "rank_in_cluster": 2}

$$$$

     RDKit          3D

 41 42  0  0  0  0  0  0  0  0999 V2000
  140.7880   75.7140  222.2500 O   0  0  0  0  0  0  0  0  0  0  0  0
  140.1920   74.6550  221.9200 C   0  0  0  0  0  0  0  0  0  0  0  0
  138.8900   74.7270  221.1650 C   0  0  0  0  0  0  0  0  0  0  0  0
  139.0190   74.2870  219.6970 C   0  0  0  0  0  0  0  0  0  0  0  0
  140.1070   75.0340  218.9150 C   0  0  0  0  0  0  0  0  0  0  0  0
  141.1720   74.1520  218.5450 O   0  0  0  0  0  0  0  0  0  0  0  0
  142.3650   73.9260  219.2550 C   0  0  0  0  0  0  0  0  0  0  0  0
  142.6940   72.6810  219.8290 C   0  0  0  0  0  0  0  0  0  0  0  0
  143.8870   72.5220  220.5400 C   0  0  0  0  0  0  0  0  0  0  0  0
  144.7630   73.6010  220.6930 C   0  0  0  0  0  0  0  0  0  0  0  0
  146.2510   73.4020  221.5980 Cl  0  0  0  0  0  0  0  0  0  0  0  0
  144.4460   74.8380  220.1300 C   0  0  0  0  0  0  0  0  0  0  0  0
  143.2530   75.0030  219.4170 C   0  0  0  0  0  0  0  0  0  0  0  0
  142.8840   76.5730  218.7170 Cl  0  0  0  0  0  0  0  0  0  0  0  0
  140.7400   73.4000  222.3290 N   0  0  0  0  0  0  0  0  0  0  0  0
  140.1080   72.5910  223.2850 N   0  0  0  0  0  0  0  0  0  0  0  0
  140.6460   71.5130  223.7720 C   0  0  0  0  0  0  0  0  0  0  0  0
  140.7760   71.2420  225.2220 C   0  0  0  0  0  0  0  0  0  0  0  0
  141.0720   72.2600  226.1450 C   0  0  0  0  0  0  0  0  0  0  0  0
  141.1560   71.9720  227.5090 C   0  0  0  0  0  0  0  0  0  0  0  0
  140.9410   70.6700  227.9670 C   0  0  0  0  0  0  0  0  0  0  0  0
  140.6410   69.6380  227.0600 C   0  0  0  0  0  0  0  0  0  0  0  0
  140.3550   68.2400  227.5460 C   0  0  0  0  0  0  0  0  0  0  0  0
  141.4140   67.4170  227.2120 F   0  0  0  0  0  0  0  0  0  0  0  0
  140.1950   68.2360  228.9220 F   0  0  0  0  0  0  0  0  0  0  0  0
  139.1980   67.7400  226.9740 F   0  0  0  0  0  0  0  0  0  0  0  0
  140.5260   69.9430  225.6930 C   0  0  0  0  0  0  0  0  0  0  0  0
  138.1595   74.0730  221.6636 H   0  0  0  0  0  0  0  0  0  0  0  0
  138.5684   75.7789  221.1652 H   0  0  0  0  0  0  0  0  0  0  0  0
  139.2547   73.2127  219.6773 H   0  0  0  0  0  0  0  0  0  0  0  0
  138.0606   74.5194  219.2098 H   0  0  0  0  0  0  0  0  0  0  0  0
  139.6640   75.4643  218.0047 H   0  0  0  0  0  0  0  0  0  0  0  0
  140.5170   75.8274  219.5572 H   0  0  0  0  0  0  0  0  0  0  0  0
  142.0073   71.8290  219.7166 H   0  0  0  0  0  0  0  0  0  0  0  0
  144.1373   71.5455  220.9803 H   0  0  0  0  0  0  0  0  0  0  0  0
  145.1363   75.6864  220.2471 H   0  0  0  0  0  0  0  0  0  0  0  0
  141.0264   70.7590  223.0672 H   0  0  0  0  0  0  0  0  0  0  0  0
  141.2383   73.2882  225.7913 H   0  0  0  0  0  0  0  0  0  0  0  0
  141.3922   72.7730  228.2249 H   0  0  0  0  0  0  0  0  0  0  0  0
  141.0067   70.4507  229.0429 H   0  0  0  0  0  0  0  0  0  0  0  0
  140.2365   69.1542  224.9830 H   0  0  0  0  0  0  0  0  0  0  0  0
  1  2  2  0
  2  3  1  0
  3  4  1  0
  4  5  1  0
  5  6  1  0
  6  7  1  0
  7  8  2  0
  8  9  1  0
  9 10  2  0
 10 11  1  0
 10 12  1  0
 12 13  2  0
 13 14  1  0
  2 15  1  0
 15 16  1  0
 16 17  2  0
 17 18  1  0
 18 19  2  0
 19 20  1  0
 20 21  2  0
 21 22  1  0
 22 23  1  0
 23 24  1  0
 23 25  1  0
 23 26  1  0
 22 27  2  0
 13  7  1  0
 27 18  1  0
  3 28  1  0
  3 29  1  0
  4 30  1  0
  4 31  1  0
  5 32  1  0
  5 33  1  0
  8 34  1  0
  9 35  1  0
 12 36  1  0
 17 37  1  0
 19 38  1  0
 20 39  1  0
 21 40  1  0
 27 41  1  0
M  CHG  1  15  -1
M  END
>  <meeko>  (9) 
{"free_energy": -6.25, "intermolecular_energy": -9.24, "internal_energy": -1.31, "cluster_size": 1, "cluster_id": 4, "rank_in_cluster": 1}

$$$$

     RDKit          3D

 41 42  0  0  0  0  0  0  0  0999 V2000
  141.3510   75.2760  221.9890 O   0  0  0  0  0  0  0  0  0  0  0  0
  140.3220   74.6690  221.5880 C   0  0  0  0  0  0  0  0  0  0  0  0
  139.6090   75.1350  220.3460 C   0  0  0  0  0  0  0  0  0  0  0  0
  138.1470   75.5360  220.6040 C   0  0  0  0  0  0  0  0  0  0  0  0
  137.9840   76.6840  221.6090 C   0  0  0  0  0  0  0  0  0  0  0  0
  138.6930   77.8500  221.1780 O   0  0  0  0  0  0  0  0  0  0  0  0
  139.6640   78.5640  221.9050 C   0  0  0  0  0  0  0  0  0  0  0  0
  139.4090   79.1420  223.1660 C   0  0  0  0  0  0  0  0  0  0  0  0
  140.4090   79.8560  223.8320 C   0  0  0  0  0  0  0  0  0  0  0  0
  141.6700   80.0070  223.2500 C   0  0  0  0  0  0  0  0  0  0  0  0
  142.9180   80.9160  224.0810 Cl  0  0  0  0  0  0  0  0  0  0  0  0
  141.9320   79.4410  222.0010 C   0  0  0  0  0  0  0  0  0  0  0  0
  140.9350   78.7240  221.3290 C   0  0  0  0  0  0  0  0  0  0  0  0
  141.2970   78.0200  219.7600 Cl  0  0  0  0  0  0  0  0  0  0  0  0
  139.8180   73.5820  222.3660 N   0  0  0  0  0  0  0  0  0  0  0  0
  140.6490   72.5470  222.8220 N   0  0  0  0  0  0  0  0  0  0  0  0
  140.2220   71.3430  223.0590 C   0  0  0  0  0  0  0  0  0  0  0  0
  140.0940   70.7680  224.4180 C   0  0  0  0  0  0  0  0  0  0  0  0
  139.5950   69.4720  224.6320 C   0  0  0  0  0  0  0  0  0  0  0  0
  139.5190   68.9510  225.9260 C   0  0  0  0  0  0  0  0  0  0  0  0
  139.9420   69.7140  227.0160 C   0  0  0  0  0  0  0  0  0  0  0  0
  140.4460   71.0130  226.8220 C   0  0  0  0  0  0  0  0  0  0  0  0
  140.9550   71.8270  227.9860 C   0  0  0  0  0  0  0  0  0  0  0  0
  141.8130   71.0500  228.7420 F   0  0  0  0  0  0  0  0  0  0  0  0
  141.6380   72.9410  227.5270 F   0  0  0  0  0  0  0  0  0  0  0  0
  139.9120   72.2580  228.7870 F   0  0  0  0  0  0  0  0  0  0  0  0
  140.5510   71.5160  225.5150 C   0  0  0  0  0  0  0  0  0  0  0  0
  140.1446   76.0062  219.9409 H   0  0  0  0  0  0  0  0  0  0  0  0
  139.5980   74.2927  219.6386 H   0  0  0  0  0  0  0  0  0  0  0  0
  137.6994   75.8465  219.6483 H   0  0  0  0  0  0  0  0  0  0  0  0
  137.6477   74.6579  221.0394 H   0  0  0  0  0  0  0  0  0  0  0  0
  136.9158   76.9282  221.7055 H   0  0  0  0  0  0  0  0  0  0  0  0
  138.3958   76.3623  222.5770 H   0  0  0  0  0  0  0  0  0  0  0  0
  138.4171   79.0302  223.6281 H   0  0  0  0  0  0  0  0  0  0  0  0
  140.2026   80.3002  224.8169 H   0  0  0  0  0  0  0  0  0  0  0  0
  142.9253   79.5588  221.5433 H   0  0  0  0  0  0  0  0  0  0  0  0
  139.9394   70.7148  222.2014 H   0  0  0  0  0  0  0  0  0  0  0  0
  139.2628   68.8650  223.7769 H   0  0  0  0  0  0  0  0  0  0  0  0
  139.1247   67.9367  226.0865 H   0  0  0  0  0  0  0  0  0  0  0  0
  139.8809   69.2971  228.0321 H   0  0  0  0  0  0  0  0  0  0  0  0
  140.9966   72.5079  225.3486 H   0  0  0  0  0  0  0  0  0  0  0  0
  1  2  2  0
  2  3  1  0
  3  4  1  0
  4  5  1  0
  5  6  1  0
  6  7  1  0
  7  8  2  0
  8  9  1  0
  9 10  2  0
 10 11  1  0
 10 12  1  0
 12 13  2  0
 13 14  1  0
  2 15  1  0
 15 16  1  0
 16 17  2  0
 17 18  1  0
 18 19  2  0
 19 20  1  0
 20 21  2  0
 21 22  1  0
 22 23  1  0
 23 24  1  0
 23 25  1  0
 23 26  1  0
 22 27  2  0
 13  7  1  0
 27 18  1  0
  3 28  1  0
  3 29  1  0
  4 30  1  0
  4 31  1  0
  5 32  1  0
  5 33  1  0
  8 34  1  0
  9 35  1  0
 12 36  1  0
 17 37  1  0
 19 38  1  0
 20 39  1  0
 21 40  1  0
 27 41  1  0
M  CHG  1  15  -1
M  END
>  <meeko>  (10) 
{"free_energy": -6.57, "intermolecular_energy": -9.56, "internal_energy": -1.0, "cluster_size": 6, "cluster_id": 2, "rank_in_cluster": 1}

$$$$

     RDKit          3D

 41 42  0  0  0  0  0  0  0  0999 V2000
  141.2890   74.6840  221.6310 O   0  0  0  0  0  0  0  0  0  0  0  0
  140.1160   74.2340  221.7290 C   0  0  0  0  0  0  0  0  0  0  0  0
  139.0090   74.8320  220.9010 C   0  0  0  0  0  0  0  0  0  0  0  0
  137.7280   75.1010  221.7080 C   0  0  0  0  0  0  0  0  0  0  0  0
  137.9130   76.1050  222.8540 C   0  0  0  0  0  0  0  0  0  0  0  0
  138.2410   77.4050  222.3520 O   0  0  0  0  0  0  0  0  0  0  0  0
  139.3680   78.1780  222.6850 C   0  0  0  0  0  0  0  0  0  0  0  0
  140.6910   77.7140  222.5330 C   0  0  0  0  0  0  0  0  0  0  0  0
  141.7710   78.5220  222.9000 C   0  0  0  0  0  0  0  0  0  0  0  0
  141.5470   79.7970  223.4260 C   0  0  0  0  0  0  0  0  0  0  0  0
  142.9030   80.8030  223.8990 Cl  0  0  0  0  0  0  0  0  0  0  0  0
  140.2410   80.2650  223.5830 C   0  0  0  0  0  0  0  0  0  0  0  0
  139.1560   79.4610  223.2170 C   0  0  0  0  0  0  0  0  0  0  0  0
  137.5240   80.0800  223.4220 Cl  0  0  0  0  0  0  0  0  0  0  0  0
  139.8520   73.2000  222.6790 N   0  0  0  0  0  0  0  0  0  0  0  0
  140.3010   71.8850  222.4870 N   0  0  0  0  0  0  0  0  0  0  0  0
  139.9530   70.8950  223.2540 C   0  0  0  0  0  0  0  0  0  0  0  0
  140.3330   70.7880  224.6820 C   0  0  0  0  0  0  0  0  0  0  0  0
  140.8670   71.8770  225.3920 C   0  0  0  0  0  0  0  0  0  0  0  0
  141.1840   71.7480  226.7460 C   0  0  0  0  0  0  0  0  0  0  0  0
  140.9680   70.5360  227.4060 C   0  0  0  0  0  0  0  0  0  0  0  0
  140.4320   69.4360  226.7130 C   0  0  0  0  0  0  0  0  0  0  0  0
  140.1450   68.1390  227.4260 C   0  0  0  0  0  0  0  0  0  0  0  0
  139.6120   68.4130  228.6720 F   0  0  0  0  0  0  0  0  0  0  0  0
  139.2360   67.3850  226.7020 F   0  0  0  0  0  0  0  0  0  0  0  0
  141.2990   67.3900  227.5850 F   0  0  0  0  0  0  0  0  0  0  0  0
  140.0850   69.5850  225.3600 C   0  0  0  0  0  0  0  0  0  0  0  0
  139.3630   75.7842  220.4790 H   0  0  0  0  0  0  0  0  0  0  0  0
  138.7554   74.1025  220.1177 H   0  0  0  0  0  0  0  0  0  0  0  0
  136.9634   75.4952  221.0224 H   0  0  0  0  0  0  0  0  0  0  0  0
  137.4331   74.1453  222.1659 H   0  0  0  0  0  0  0  0  0  0  0  0
  136.9786   76.1679  223.4310 H   0  0  0  0  0  0  0  0  0  0  0  0
  138.7389   75.7583  223.4925 H   0  0  0  0  0  0  0  0  0  0  0  0
  140.8742   76.7098  222.1230 H   0  0  0  0  0  0  0  0  0  0  0  0
  142.7997   78.1532  222.7744 H   0  0  0  0  0  0  0  0  0  0  0  0
  140.0645   81.2692  223.9958 H   0  0  0  0  0  0  0  0  0  0  0  0
  139.3417   70.0910  222.8181 H   0  0  0  0  0  0  0  0  0  0  0  0
  141.0360   72.8352  224.8790 H   0  0  0  0  0  0  0  0  0  0  0  0
  141.6051   72.6035  227.2944 H   0  0  0  0  0  0  0  0  0  0  0  0
  141.2184   70.4416  228.4730 H   0  0  0  0  0  0  0  0  0  0  0  0
  139.6128   68.7477  224.8252 H   0  0  0  0  0  0  0  0  0  0  0  0
  1  2  2  0
  2  3  1  0
  3  4  1  0
  4  5  1  0
  5  6  1  0
  6  7  1  0
  7  8  2  0
  8  9  1  0
  9 10  2  0
 10 11  1  0
 10 12  1  0
 12 13  2  0
 13 14  1  0
  2 15  1  0
 15 16  1  0
 16 17  2  0
 17 18  1  0
 18 19  2  0
 19 20  1  0
 20 21  2  0
 21 22  1  0
 22 23  1  0
 23 24  1  0
 23 25  1  0
 23 26  1  0
 22 27  2  0
 13  7  1  0
 27 18  1  0
  3 28  1  0
  3 29  1  0
  4 30  1  0
  4 31  1  0
  5 32  1  0
  5 33  1  0
  8 34  1  0
  9 35  1  0
 12 36  1  0
 17 37  1  0
 19 38  1  0
 20 39  1  0
 21 40  1  0
 27 41  1  0
M  CHG  1  15  -1
M  END
>  <meeko>  (11) 
{"free_energy": -6.57, "intermolecular_energy": -9.56, "internal_energy": -0.98, "cluster_size": 6, "cluster_id": 1, "rank_in_cluster": 1}

$$$$

     RDKit          3D

 41 42  0  0  0  0  0  0  0  0999 V2000
  141.5320   72.1460  220.2680 O   0  0  0  0  0  0  0  0  0  0  0  0
  141.3290   73.2830  220.7700 C   0  0  0  0  0  0  0  0  0  0  0  0
  142.2570   74.4250  220.4470 C   0  0  0  0  0  0  0  0  0  0  0  0
  141.7490   75.3100  219.2970 C   0  0  0  0  0  0  0  0  0  0  0  0
  142.3630   76.7160  219.2740 C   0  0  0  0  0  0  0  0  0  0  0  0
  141.4100   77.7010  219.6890 O   0  0  0  0  0  0  0  0  0  0  0  0
  141.5710   78.6490  220.7150 C   0  0  0  0  0  0  0  0  0  0  0  0
  142.0430   79.9580  220.4850 C   0  0  0  0  0  0  0  0  0  0  0  0
  142.1990   80.8510  221.5490 C   0  0  0  0  0  0  0  0  0  0  0  0
  141.8930   80.4510  222.8530 C   0  0  0  0  0  0  0  0  0  0  0  0
  142.1040   81.5690  224.1860 Cl  0  0  0  0  0  0  0  0  0  0  0  0
  141.4270   79.1570  223.0910 C   0  0  0  0  0  0  0  0  0  0  0  0
  141.2680   78.2590  222.0300 C   0  0  0  0  0  0  0  0  0  0  0  0
  140.6760   76.6380  222.3630 Cl  0  0  0  0  0  0  0  0  0  0  0  0
  140.2480   73.4470  221.6900 N   0  0  0  0  0  0  0  0  0  0  0  0
  140.2340   72.8080  222.9390 N   0  0  0  0  0  0  0  0  0  0  0  0
  140.1360   71.5200  223.0790 C   0  0  0  0  0  0  0  0  0  0  0  0
  140.0620   70.8390  224.3910 C   0  0  0  0  0  0  0  0  0  0  0  0
  139.5910   69.5210  224.5190 C   0  0  0  0  0  0  0  0  0  0  0  0
  139.5650   68.8990  225.7690 C   0  0  0  0  0  0  0  0  0  0  0  0
  140.0110   69.5820  226.9020 C   0  0  0  0  0  0  0  0  0  0  0  0
  140.4870   70.9010  226.7960 C   0  0  0  0  0  0  0  0  0  0  0  0
  141.0200   71.6310  228.0030 C   0  0  0  0  0  0  0  0  0  0  0  0
  141.7430   70.7490  228.7840 F   0  0  0  0  0  0  0  0  0  0  0  0
  141.8480   72.6690  227.6080 F   0  0  0  0  0  0  0  0  0  0  0  0
  139.9900   72.1630  228.7600 F   0  0  0  0  0  0  0  0  0  0  0  0
  140.5410   71.5070  225.5290 C   0  0  0  0  0  0  0  0  0  0  0  0
  142.3693   75.0494  221.3456 H   0  0  0  0  0  0  0  0  0  0  0  0
  143.2141   73.9883  220.1258 H   0  0  0  0  0  0  0  0  0  0  0  0
  141.9884   74.8123  218.3457 H   0  0  0  0  0  0  0  0  0  0  0  0
  140.6668   75.4375  219.4474 H   0  0  0  0  0  0  0  0  0  0  0  0
  143.2266   76.7422  219.9549 H   0  0  0  0  0  0  0  0  0  0  0  0
  142.6758   76.9441  218.2444 H   0  0  0  0  0  0  0  0  0  0  0  0
  142.2899   80.2782  219.4620 H   0  0  0  0  0  0  0  0  0  0  0  0
  142.5636   81.8714  221.3596 H   0  0  0  0  0  0  0  0  0  0  0  0
  141.1839   78.8421  224.1165 H   0  0  0  0  0  0  0  0  0  0  0  0
  140.1064   70.9003  222.1706 H   0  0  0  0  0  0  0  0  0  0  0  0
  139.2409   68.9764  223.6297 H   0  0  0  0  0  0  0  0  0  0  0  0
  139.1921   67.8682  225.8612 H   0  0  0  0  0  0  0  0  0  0  0  0
  139.9900   69.0855  227.8833 H   0  0  0  0  0  0  0  0  0  0  0  0
  140.9639   72.5174  225.4278 H   0  0  0  0  0  0  0  0  0  0  0  0
  1  2  2  0
  2  3  1  0
  3  4  1  0
  4  5  1  0
  5  6  1  0
  6  7  1  0
  7  8  2  0
  8  9  1  0
  9 10  2  0
 10 11  1  0
 10 12  1  0
 12 13  2  0
 13 14  1  0
  2 15  1  0
 15 16  1  0
 16 17  2  0
 17 18  1  0
 18 19  2  0
 19 20  1  0
 20 21  2  0
 21 22  1  0
 22 23  1  0
 23 24  1  0
 23 25  1  0
 23 26  1  0
 22 27  2  0
 13  7  1  0
 27 18  1  0
  3 28  1  0
  3 29  1  0
  4 30  1  0
  4 31  1  0
  5 32  1  0
  5 33  1  0
  8 34  1  0
  9 35  1  0
 12 36  1  0
 17 37  1  0
 19 38  1  0
 20 39  1  0
 21 40  1  0
 27 41  1  0
M  CHG  1  15  -1
M  END
>  <meeko>  (12) 
{"free_energy": -6.31, "intermolecular_energy": -9.3, "internal_energy": -0.66, "cluster_size": 6, "cluster_id": 2, "rank_in_cluster": 3}

$$$$

     RDKit          3D

 41 42  0  0  0  0  0  0  0  0999 V2000
  141.7820   73.0110  221.1040 O   0  0  0  0  0  0  0  0  0  0  0  0
  140.8960   73.5420  221.8250 C   0  0  0  0  0  0  0  0  0  0  0  0
  140.4600   74.9600  221.5610 C   0  0  0  0  0  0  0  0  0  0  0  0
  139.1760   75.3470  222.3130 C   0  0  0  0  0  0  0  0  0  0  0  0
  138.2940   76.3530  221.5630 C   0  0  0  0  0  0  0  0  0  0  0  0
  139.0680   77.4530  221.0740 O   0  0  0  0  0  0  0  0  0  0  0  0
  139.9580   78.2520  221.8150 C   0  0  0  0  0  0  0  0  0  0  0  0
  139.5950   78.8960  223.0160 C   0  0  0  0  0  0  0  0  0  0  0  0
  140.5180   79.6940  223.6980 C   0  0  0  0  0  0  0  0  0  0  0  0
  141.8100   79.8630  223.1920 C   0  0  0  0  0  0  0  0  0  0  0  0
  142.9610   80.8750  224.0430 Cl  0  0  0  0  0  0  0  0  0  0  0  0
  142.1790   79.2320  222.0030 C   0  0  0  0  0  0  0  0  0  0  0  0
  141.2590   78.4320  221.3160 C   0  0  0  0  0  0  0  0  0  0  0  0
  141.7550   77.6470  219.8230 Cl  0  0  0  0  0  0  0  0  0  0  0  0
  140.3670   72.7990  222.9250 N   0  0  0  0  0  0  0  0  0  0  0  0
  139.5760   71.6560  222.7350 N   0  0  0  0  0  0  0  0  0  0  0  0
  139.9060   70.4810  223.1820 C   0  0  0  0  0  0  0  0  0  0  0  0
  139.9030   70.1160  224.6170 C   0  0  0  0  0  0  0  0  0  0  0  0
  139.5130   68.8410  225.0590 C   0  0  0  0  0  0  0  0  0  0  0  0
  139.5530   68.5220  226.4180 C   0  0  0  0  0  0  0  0  0  0  0  0
  139.9860   69.4690  227.3490 C   0  0  0  0  0  0  0  0  0  0  0  0
  140.3820   70.7510  226.9270 C   0  0  0  0  0  0  0  0  0  0  0  0
  140.9010   71.7650  227.9150 C   0  0  0  0  0  0  0  0  0  0  0  0
  141.8130   71.1540  228.7560 F   0  0  0  0  0  0  0  0  0  0  0  0
  141.5270   72.8060  227.2490 F   0  0  0  0  0  0  0  0  0  0  0  0
  139.8720   72.2930  228.6750 F   0  0  0  0  0  0  0  0  0  0  0  0
  140.3710   71.0510  225.5540 C   0  0  0  0  0  0  0  0  0  0  0  0
  141.2671   75.6384  221.8746 H   0  0  0  0  0  0  0  0  0  0  0  0
  140.2469   75.0423  220.4850 H   0  0  0  0  0  0  0  0  0  0  0  0
  138.5882   74.4336  222.4869 H   0  0  0  0  0  0  0  0  0  0  0  0
  139.4890   75.8333  223.2487 H   0  0  0  0  0  0  0  0  0  0  0  0
  137.8136   75.8459  220.7132 H   0  0  0  0  0  0  0  0  0  0  0  0
  137.5368   76.7413  222.2601 H   0  0  0  0  0  0  0  0  0  0  0  0
  138.5792   78.7695  223.4186 H   0  0  0  0  0  0  0  0  0  0  0  0
  140.2268   80.1904  224.6355 H   0  0  0  0  0  0  0  0  0  0  0  0
  143.1959   79.3639  221.6048 H   0  0  0  0  0  0  0  0  0  0  0  0
  140.2046   69.7138  222.4525 H   0  0  0  0  0  0  0  0  0  0  0  0
  139.1742   68.0896  224.3306 H   0  0  0  0  0  0  0  0  0  0  0  0
  139.2427   67.5223  226.7562 H   0  0  0  0  0  0  0  0  0  0  0  0
  140.0175   69.2108  228.4178 H   0  0  0  0  0  0  0  0  0  0  0  0
  140.7336   72.0306  225.2092 H   0  0  0  0  0  0  0  0  0  0  0  0
  1  2  2  0
  2  3  1  0
  3  4  1  0
  4  5  1  0
  5  6  1  0
  6  7  1  0
  7  8  2  0
  8  9  1  0
  9 10  2  0
 10 11  1  0
 10 12  1  0
 12 13  2  0
 13 14  1  0
  2 15  1  0
 15 16  1  0
 16 17  2  0
 17 18  1  0
 18 19  2  0
 19 20  1  0
 20 21  2  0
 21 22  1  0
 22 23  1  0
 23 24  1  0
 23 25  1  0
 23 26  1  0
 22 27  2  0
 13  7  1  0
 27 18  1  0
  3 28  1  0
  3 29  1  0
  4 30  1  0
  4 31  1  0
  5 32  1  0
  5 33  1  0
  8 34  1  0
  9 35  1  0
 12 36  1  0
 17 37  1  0
 19 38  1  0
 20 39  1  0
 21 40  1  0
 27 41  1  0
M  CHG  1  15  -1
M  END
>  <meeko>  (13) 
{"free_energy": -6.27, "intermolecular_energy": -9.25, "internal_energy": -0.88, "cluster_size": 6, "cluster_id": 2, "rank_in_cluster": 4}

$$$$

     RDKit          3D

 41 42  0  0  0  0  0  0  0  0999 V2000
  139.8000   75.3870  222.7110 O   0  0  0  0  0  0  0  0  0  0  0  0
  139.7930   74.7360  221.6320 C   0  0  0  0  0  0  0  0  0  0  0  0
  139.4450   75.4250  220.3390 C   0  0  0  0  0  0  0  0  0  0  0  0
  138.0570   76.0850  220.3610 C   0  0  0  0  0  0  0  0  0  0  0  0
  138.0770   77.5900  220.0590 C   0  0  0  0  0  0  0  0  0  0  0  0
  138.1910   78.3550  221.2630 O   0  0  0  0  0  0  0  0  0  0  0  0
  139.3730   78.8690  221.8260 C   0  0  0  0  0  0  0  0  0  0  0  0
  140.6590   78.5310  221.3560 C   0  0  0  0  0  0  0  0  0  0  0  0
  141.7980   79.0600  221.9690 C   0  0  0  0  0  0  0  0  0  0  0  0
  141.6710   79.9270  223.0580 C   0  0  0  0  0  0  0  0  0  0  0  0
  143.1020   80.5770  223.8340 Cl  0  0  0  0  0  0  0  0  0  0  0  0
  140.4030   80.2660  223.5330 C   0  0  0  0  0  0  0  0  0  0  0  0
  139.2590   79.7400  222.9230 C   0  0  0  0  0  0  0  0  0  0  0  0
  137.6760   80.1900  223.5400 Cl  0  0  0  0  0  0  0  0  0  0  0  0
  140.0570   73.3320  221.6730 N   0  0  0  0  0  0  0  0  0  0  0  0
  140.3180   72.6620  222.8780 N   0  0  0  0  0  0  0  0  0  0  0  0
  140.0010   71.4180  223.0830 C   0  0  0  0  0  0  0  0  0  0  0  0
  140.0130   70.7770  224.4180 C   0  0  0  0  0  0  0  0  0  0  0  0
  139.6500   69.4310  224.5980 C   0  0  0  0  0  0  0  0  0  0  0  0
  139.7030   68.8500  225.8680 C   0  0  0  0  0  0  0  0  0  0  0  0
  140.1210   69.6030  226.9670 C   0  0  0  0  0  0  0  0  0  0  0  0
  140.4900   70.9510  226.8070 C   0  0  0  0  0  0  0  0  0  0  0  0
  140.9940   71.7590  227.9760 C   0  0  0  0  0  0  0  0  0  0  0  0
  139.9160   72.2120  228.7140 F   0  0  0  0  0  0  0  0  0  0  0  0
  141.8000   70.9760  228.7870 F   0  0  0  0  0  0  0  0  0  0  0  0
  141.7350   72.8470  227.5480 F   0  0  0  0  0  0  0  0  0  0  0  0
  140.4660   71.5170  225.5210 C   0  0  0  0  0  0  0  0  0  0  0  0
  140.1987   76.2017  220.1425 H   0  0  0  0  0  0  0  0  0  0  0  0
  139.4300   74.6566  219.5520 H   0  0  0  0  0  0  0  0  0  0  0  0
  137.4263   75.5894  219.6083 H   0  0  0  0  0  0  0  0  0  0  0  0
  137.6660   75.9703  221.3827 H   0  0  0  0  0  0  0  0  0  0  0  0
  138.9348   77.8145  219.4080 H   0  0  0  0  0  0  0  0  0  0  0  0
  137.1336   77.8594  219.5616 H   0  0  0  0  0  0  0  0  0  0  0  0
  140.7662   77.8466  220.5015 H   0  0  0  0  0  0  0  0  0  0  0  0
  142.7970   78.7934  221.5936 H   0  0  0  0  0  0  0  0  0  0  0  0
  140.3029   80.9488  224.3896 H   0  0  0  0  0  0  0  0  0  0  0  0
  139.7075   70.8074  222.2164 H   0  0  0  0  0  0  0  0  0  0  0  0
  139.3227   68.8322  223.7353 H   0  0  0  0  0  0  0  0  0  0  0  0
  139.4147   67.7969  226.0021 H   0  0  0  0  0  0  0  0  0  0  0  0
  140.1620   69.1394  227.9637 H   0  0  0  0  0  0  0  0  0  0  0  0
  140.8065   72.5530  225.3771 H   0  0  0  0  0  0  0  0  0  0  0  0
  1  2  2  0
  2  3  1  0
  3  4  1  0
  4  5  1  0
  5  6  1  0
  6  7  1  0
  7  8  2  0
  8  9  1  0
  9 10  2  0
 10 11  1  0
 10 12  1  0
 12 13  2  0
 13 14  1  0
  2 15  1  0
 15 16  1  0
 16 17  2  0
 17 18  1  0
 18 19  2  0
 19 20  1  0
 20 21  2  0
 21 22  1  0
 22 23  1  0
 23 24  1  0
 23 25  1  0
 23 26  1  0
 22 27  2  0
 13  7  1  0
 27 18  1  0
  3 28  1  0
  3 29  1  0
  4 30  1  0
  4 31  1  0
  5 32  1  0
  5 33  1  0
  8 34  1  0
  9 35  1  0
 12 36  1  0
 17 37  1  0
 19 38  1  0
 20 39  1  0
 21 40  1  0
 27 41  1  0
M  CHG  1  15  -1
M  END
>  <meeko>  (14) 
{"free_energy": -6.19, "intermolecular_energy": -9.17, "internal_energy": -0.82, "cluster_size": 6, "cluster_id": 1, "rank_in_cluster": 6}

$$$$

     RDKit          3D

 41 42  0  0  0  0  0  0  0  0999 V2000
  139.5270   75.0360  220.3370 O   0  0  0  0  0  0  0  0  0  0  0  0
  140.5290   74.7480  221.0440 C   0  0  0  0  0  0  0  0  0  0  0  0
  141.9190   74.9490  220.4980 C   0  0  0  0  0  0  0  0  0  0  0  0
  141.9300   75.5430  219.0800 C   0  0  0  0  0  0  0  0  0  0  0  0
  142.3750   77.0110  219.0230 C   0  0  0  0  0  0  0  0  0  0  0  0
  141.4030   77.8680  219.6320 O   0  0  0  0  0  0  0  0  0  0  0  0
  141.6020   78.7160  220.7370 C   0  0  0  0  0  0  0  0  0  0  0  0
  141.5030   78.2750  222.0720 C   0  0  0  0  0  0  0  0  0  0  0  0
  141.6920   79.1700  223.1290 C   0  0  0  0  0  0  0  0  0  0  0  0
  141.9770   80.5130  222.8690 C   0  0  0  0  0  0  0  0  0  0  0  0
  142.2000   81.6360  224.1970 Cl  0  0  0  0  0  0  0  0  0  0  0  0
  142.0750   80.9610  221.5510 C   0  0  0  0  0  0  0  0  0  0  0  0
  141.8870   80.0690  220.4880 C   0  0  0  0  0  0  0  0  0  0  0  0
  142.0200   80.6620  218.8390 Cl  0  0  0  0  0  0  0  0  0  0  0  0
  140.3190   74.1740  222.3360 N   0  0  0  0  0  0  0  0  0  0  0  0
  139.8520   72.8610  222.4970 N   0  0  0  0  0  0  0  0  0  0  0  0
  140.5820   71.9010  222.9810 C   0  0  0  0  0  0  0  0  0  0  0  0
  140.2640   71.1760  224.2320 C   0  0  0  0  0  0  0  0  0  0  0  0
  139.5760   69.9500  224.2270 C   0  0  0  0  0  0  0  0  0  0  0  0
  139.3220   69.2800  225.4260 C   0  0  0  0  0  0  0  0  0  0  0  0
  139.7520   69.8220  226.6390 C   0  0  0  0  0  0  0  0  0  0  0  0
  140.4430   71.0470  226.6650 C   0  0  0  0  0  0  0  0  0  0  0  0
  140.9600   71.6160  227.9620 C   0  0  0  0  0  0  0  0  0  0  0  0
  139.8970   72.1020  228.7010 F   0  0  0  0  0  0  0  0  0  0  0  0
  141.6060   70.6320  228.6920 F   0  0  0  0  0  0  0  0  0  0  0  0
  141.8570   72.6450  227.7330 F   0  0  0  0  0  0  0  0  0  0  0  0
  140.7250   71.6970  225.4510 C   0  0  0  0  0  0  0  0  0  0  0  0
  142.4629   75.6315  221.1677 H   0  0  0  0  0  0  0  0  0  0  0  0
  142.3959   73.9593  220.4427 H   0  0  0  0  0  0  0  0  0  0  0  0
  142.6180   74.9484  218.4610 H   0  0  0  0  0  0  0  0  0  0  0  0
  140.8939   75.5094  218.7122 H   0  0  0  0  0  0  0  0  0  0  0  0
  143.3317   77.1174  219.5554 H   0  0  0  0  0  0  0  0  0  0  0  0
  142.4854   77.3020  217.9680 H   0  0  0  0  0  0  0  0  0  0  0  0
  141.2756   77.2198  222.2835 H   0  0  0  0  0  0  0  0  0  0  0  0
  141.6162   78.8162  224.1678 H   0  0  0  0  0  0  0  0  0  0  0  0
  142.3006   82.0180  221.3465 H   0  0  0  0  0  0  0  0  0  0  0  0
  141.4883   71.6104  222.4295 H   0  0  0  0  0  0  0  0  0  0  0  0
  139.2363   69.5165  223.2748 H   0  0  0  0  0  0  0  0  0  0  0  0
  138.7814   68.3221  225.4147 H   0  0  0  0  0  0  0  0  0  0  0  0
  139.5493   69.2882  227.5792 H   0  0  0  0  0  0  0  0  0  0  0  0
  141.3144   72.6257  225.4564 H   0  0  0  0  0  0  0  0  0  0  0  0
  1  2  2  0
  2  3  1  0
  3  4  1  0
  4  5  1  0
  5  6  1  0
  6  7  1  0
  7  8  2  0
  8  9  1  0
  9 10  2  0
 10 11  1  0
 10 12  1  0
 12 13  2  0
 13 14  1  0
  2 15  1  0
 15 16  1  0
 16 17  2  0
 17 18  1  0
 18 19  2  0
 19 20  1  0
 20 21  2  0
 21 22  1  0
 22 23  1  0
 23 24  1  0
 23 25  1  0
 23 26  1  0
 22 27  2  0
 13  7  1  0
 27 18  1  0
  3 28  1  0
  3 29  1  0
  4 30  1  0
  4 31  1  0
  5 32  1  0
  5 33  1  0
  8 34  1  0
  9 35  1  0
 12 36  1  0
 17 37  1  0
 19 38  1  0
 20 39  1  0
 21 40  1  0
 27 41  1  0
M  CHG  1  15  -1
M  END
>  <meeko>  (15) 
{"free_energy": -6.56, "intermolecular_energy": -9.54, "internal_energy": -0.77, "cluster_size": 6, "cluster_id": 2, "rank_in_cluster": 2}

$$$$

     RDKit          3D

 41 42  0  0  0  0  0  0  0  0999 V2000
  142.0470   72.7470  219.6380 O   0  0  0  0  0  0  0  0  0  0  0  0
  142.0980   71.5470  220.0190 C   0  0  0  0  0  0  0  0  0  0  0  0
  142.9290   70.5500  219.2540 C   0  0  0  0  0  0  0  0  0  0  0  0
  144.3780   70.4600  219.7580 C   0  0  0  0  0  0  0  0  0  0  0  0
  145.4340   70.6750  218.6650 C   0  0  0  0  0  0  0  0  0  0  0  0
  145.9020   72.0270  218.6610 O   0  0  0  0  0  0  0  0  0  0  0  0
  145.1490   73.1810  218.9430 C   0  0  0  0  0  0  0  0  0  0  0  0
  145.0410   73.7320  220.2370 C   0  0  0  0  0  0  0  0  0  0  0  0
  144.2620   74.8700  220.4590 C   0  0  0  0  0  0  0  0  0  0  0  0
  143.5770   75.4710  219.3980 C   0  0  0  0  0  0  0  0  0  0  0  0
  142.5890   76.8900  219.6830 Cl  0  0  0  0  0  0  0  0  0  0  0  0
  143.6750   74.9320  218.1140 C   0  0  0  0  0  0  0  0  0  0  0  0
  144.4540   73.7930  217.8860 C   0  0  0  0  0  0  0  0  0  0  0  0
  144.5610   73.1410  216.2570 Cl  0  0  0  0  0  0  0  0  0  0  0  0
  141.3100   71.1460  221.1410 N   0  0  0  0  0  0  0  0  0  0  0  0
  141.1210   71.9820  222.2520 N   0  0  0  0  0  0  0  0  0  0  0  0
  140.0990   71.8860  223.0490 C   0  0  0  0  0  0  0  0  0  0  0  0
  140.0950   71.0720  224.2860 C   0  0  0  0  0  0  0  0  0  0  0  0
  139.7280   69.7150  224.2810 C   0  0  0  0  0  0  0  0  0  0  0  0
  139.7670   68.9700  225.4610 C   0  0  0  0  0  0  0  0  0  0  0  0
  140.1750   69.5680  226.6560 C   0  0  0  0  0  0  0  0  0  0  0  0
  140.5480   70.9230  226.6810 C   0  0  0  0  0  0  0  0  0  0  0  0
  141.0410   71.5660  227.9530 C   0  0  0  0  0  0  0  0  0  0  0  0
  141.7240   70.6260  228.7020 F   0  0  0  0  0  0  0  0  0  0  0  0
  141.8940   72.6170  227.6590 F   0  0  0  0  0  0  0  0  0  0  0  0
  139.9870   72.0600  228.7030 F   0  0  0  0  0  0  0  0  0  0  0  0
  140.5380   71.6560  225.4820 C   0  0  0  0  0  0  0  0  0  0  0  0
  142.4626   69.5584  219.3503 H   0  0  0  0  0  0  0  0  0  0  0  0
  142.9660   70.8880  218.2079 H   0  0  0  0  0  0  0  0  0  0  0  0
  144.5225   71.2262  220.5340 H   0  0  0  0  0  0  0  0  0  0  0  0
  144.5190   69.4381  220.1400 H   0  0  0  0  0  0  0  0  0  0  0  0
  146.2838   70.0011  218.8486 H   0  0  0  0  0  0  0  0  0  0  0  0
  144.9753   70.4608  217.6884 H   0  0  0  0  0  0  0  0  0  0  0  0
  145.5738   73.2624  221.0769 H   0  0  0  0  0  0  0  0  0  0  0  0
  144.1871   75.2946  221.4710 H   0  0  0  0  0  0  0  0  0  0  0  0
  143.1377   75.4047  217.2786 H   0  0  0  0  0  0  0  0  0  0  0  0
  139.1852   72.4408  222.7900 H   0  0  0  0  0  0  0  0  0  0  0  0
  139.4085   69.2378  223.3428 H   0  0  0  0  0  0  0  0  0  0  0  0
  139.4757   67.9093  225.4499 H   0  0  0  0  0  0  0  0  0  0  0  0
  140.2045   68.9753  227.5822 H   0  0  0  0  0  0  0  0  0  0  0  0
  140.8819   72.7009  225.4814 H   0  0  0  0  0  0  0  0  0  0  0  0
  1  2  2  0
  2  3  1  0
  3  4  1  0
  4  5  1  0
  5  6  1  0
  6  7  1  0
  7  8  2  0
  8  9  1  0
  9 10  2  0
 10 11  1  0
 10 12  1  0
 12 13  2  0
 13 14  1  0
  2 15  1  0
 15 16  1  0
 16 17  2  0
 17 18  1  0
 18 19  2  0
 19 20  1  0
 20 21  2  0
 21 22  1  0
 22 23  1  0
 23 24  1  0
 23 25  1  0
 23 26  1  0
 22 27  2  0
 13  7  1  0
 27 18  1  0
  3 28  1  0
  3 29  1  0
  4 30  1  0
  4 31  1  0
  5 32  1  0
  5 33  1  0
  8 34  1  0
  9 35  1  0
 12 36  1  0
 17 37  1  0
 19 38  1  0
 20 39  1  0
 21 40  1  0
 27 41  1  0
M  CHG  1  15  -1
M  END
>  <meeko>  (16) 
{"free_energy": -5.2, "intermolecular_energy": -8.18, "internal_energy": -1.31, "cluster_size": 1, "cluster_id": 7, "rank_in_cluster": 1}

$$$$

     RDKit          3D

 41 42  0  0  0  0  0  0  0  0999 V2000
  137.6530   74.5350  221.1780 O   0  0  0  0  0  0  0  0  0  0  0  0
  138.5510   73.7670  221.6150 C   0  0  0  0  0  0  0  0  0  0  0  0
  138.4280   72.2780  221.4230 C   0  0  0  0  0  0  0  0  0  0  0  0
  139.7830   71.5820  221.2180 C   0  0  0  0  0  0  0  0  0  0  0  0
  140.6480   71.5170  222.4840 C   0  0  0  0  0  0  0  0  0  0  0  0
  139.8380   71.5390  223.6630 O   0  0  0  0  0  0  0  0  0  0  0  0
  140.0950   70.8720  224.8750 C   0  0  0  0  0  0  0  0  0  0  0  0
  140.7970   71.4640  225.9450 C   0  0  0  0  0  0  0  0  0  0  0  0
  141.0370   70.7430  227.1180 C   0  0  0  0  0  0  0  0  0  0  0  0
  140.5870   69.4260  227.2380 C   0  0  0  0  0  0  0  0  0  0  0  0
  140.9030   68.5200  228.7050 Cl  0  0  0  0  0  0  0  0  0  0  0  0
  139.8930   68.8290  226.1840 C   0  0  0  0  0  0  0  0  0  0  0  0
  139.6480   69.5460  225.0070 C   0  0  0  0  0  0  0  0  0  0  0  0
  138.7680   68.7690  223.6990 Cl  0  0  0  0  0  0  0  0  0  0  0  0
  139.6440   74.3300  222.3430 N   0  0  0  0  0  0  0  0  0  0  0  0
  139.9790   75.6890  222.2460 N   0  0  0  0  0  0  0  0  0  0  0  0
  141.0940   76.1120  221.7280 C   0  0  0  0  0  0  0  0  0  0  0  0
  141.3710   77.5340  221.4230 C   0  0  0  0  0  0  0  0  0  0  0  0
  141.4940   78.0000  220.1030 C   0  0  0  0  0  0  0  0  0  0  0  0
  141.7250   79.3550  219.8520 C   0  0  0  0  0  0  0  0  0  0  0  0
  141.8320   80.2570  220.9130 C   0  0  0  0  0  0  0  0  0  0  0  0
  141.7100   79.8110  222.2410 C   0  0  0  0  0  0  0  0  0  0  0  0
  141.7700   80.7830  223.3920 C   0  0  0  0  0  0  0  0  0  0  0  0
  141.8910   82.0680  222.8970 F   0  0  0  0  0  0  0  0  0  0  0  0
  140.6140   80.6970  224.1510 F   0  0  0  0  0  0  0  0  0  0  0  0
  142.8490   80.5140  224.2160 F   0  0  0  0  0  0  0  0  0  0  0  0
  141.4440   78.4520  222.4820 C   0  0  0  0  0  0  0  0  0  0  0  0
  137.9454   71.8490  222.3135 H   0  0  0  0  0  0  0  0  0  0  0  0
  137.8336   72.1129  220.5122 H   0  0  0  0  0  0  0  0  0  0  0  0
  139.5956   70.5542  220.8737 H   0  0  0  0  0  0  0  0  0  0  0  0
  140.3402   72.1798  220.4816 H   0  0  0  0  0  0  0  0  0  0  0  0
  141.2364   70.5877  222.4697 H   0  0  0  0  0  0  0  0  0  0  0  0
  141.3112   72.3944  222.4994 H   0  0  0  0  0  0  0  0  0  0  0  0
  141.1578   72.4993  225.8560 H   0  0  0  0  0  0  0  0  0  0  0  0
  141.5820   71.2141  227.9493 H   0  0  0  0  0  0  0  0  0  0  0  0
  139.5377   67.7923  226.2787 H   0  0  0  0  0  0  0  0  0  0  0  0
  141.8758   75.3714  221.5037 H   0  0  0  0  0  0  0  0  0  0  0  0
  141.4080   77.2947  219.2633 H   0  0  0  0  0  0  0  0  0  0  0  0
  141.8228   79.7122  218.8162 H   0  0  0  0  0  0  0  0  0  0  0  0
  142.0128   81.3226  220.7086 H   0  0  0  0  0  0  0  0  0  0  0  0
  141.2911   78.1035  223.5141 H   0  0  0  0  0  0  0  0  0  0  0  0
  1  2  2  0
  2  3  1  0
  3  4  1  0
  4  5  1  0
  5  6  1  0
  6  7  1  0
  7  8  2  0
  8  9  1  0
  9 10  2  0
 10 11  1  0
 10 12  1  0
 12 13  2  0
 13 14  1  0
  2 15  1  0
 15 16  1  0
 16 17  2  0
 17 18  1  0
 18 19  2  0
 19 20  1  0
 20 21  2  0
 21 22  1  0
 22 23  1  0
 23 24  1  0
 23 25  1  0
 23 26  1  0
 22 27  2  0
 13  7  1  0
 27 18  1  0
  3 28  1  0
  3 29  1  0
  4 30  1  0
  4 31  1  0
  5 32  1  0
  5 33  1  0
  8 34  1  0
  9 35  1  0
 12 36  1  0
 17 37  1  0
 19 38  1  0
 20 39  1  0
 21 40  1  0
 27 41  1  0
M  CHG  1  15  -1
M  END
>  <meeko>  (17) 
{"free_energy": -6.08, "intermolecular_energy": -9.07, "internal_energy": -0.64, "cluster_size": 2, "cluster_id": 3, "rank_in_cluster": 2}

$$$$

     RDKit          3D

 41 42  0  0  0  0  0  0  0  0999 V2000
  140.1800   72.2640  223.6930 O   0  0  0  0  0  0  0  0  0  0  0  0
  140.1240   72.4980  222.4570 C   0  0  0  0  0  0  0  0  0  0  0  0
  139.4610   71.5100  221.5330 C   0  0  0  0  0  0  0  0  0  0  0  0
  140.0450   71.5270  220.1110 C   0  0  0  0  0  0  0  0  0  0  0  0
  140.0290   72.9100  219.4470 C   0  0  0  0  0  0  0  0  0  0  0  0
  141.3040   73.2220  218.8770 O   0  0  0  0  0  0  0  0  0  0  0  0
  142.5470   73.2120  219.5360 C   0  0  0  0  0  0  0  0  0  0  0  0
  143.1270   72.0410  220.0650 C   0  0  0  0  0  0  0  0  0  0  0  0
  144.3570   72.0970  220.7270 C   0  0  0  0  0  0  0  0  0  0  0  0
  145.0210   73.3180  220.8740 C   0  0  0  0  0  0  0  0  0  0  0  0
  146.5560   73.3870  221.7160 Cl  0  0  0  0  0  0  0  0  0  0  0  0
  144.4540   74.4830  220.3550 C   0  0  0  0  0  0  0  0  0  0  0  0
  143.2230   74.4340  219.6910 C   0  0  0  0  0  0  0  0  0  0  0  0
  142.5380   75.9180  219.0470 Cl  0  0  0  0  0  0  0  0  0  0  0  0
  140.7520   73.6770  221.9490 N   0  0  0  0  0  0  0  0  0  0  0  0
  140.2990   74.9620  222.2850 N   0  0  0  0  0  0  0  0  0  0  0  0
  140.9890   76.0400  222.0640 C   0  0  0  0  0  0  0  0  0  0  0  0
  140.5460   77.3960  222.4600 C   0  0  0  0  0  0  0  0  0  0  0  0
  139.1980   77.6880  222.7300 C   0  0  0  0  0  0  0  0  0  0  0  0
  138.8210   78.9710  223.1320 C   0  0  0  0  0  0  0  0  0  0  0  0
  139.7830   79.9740  223.2730 C   0  0  0  0  0  0  0  0  0  0  0  0
  141.1380   79.7010  223.0100 C   0  0  0  0  0  0  0  0  0  0  0  0
  142.1930   80.7600  223.2100 C   0  0  0  0  0  0  0  0  0  0  0  0
  143.4320   80.1540  223.3080 F   0  0  0  0  0  0  0  0  0  0  0  0
  142.2010   81.6360  222.1370 F   0  0  0  0  0  0  0  0  0  0  0  0
  141.9550   81.4890  224.3630 F   0  0  0  0  0  0  0  0  0  0  0  0
  141.5120   78.3990  222.6390 C   0  0  0  0  0  0  0  0  0  0  0  0
  139.5875   70.5005  221.9512 H   0  0  0  0  0  0  0  0  0  0  0  0
  138.4012   71.7943  221.4553 H   0  0  0  0  0  0  0  0  0  0  0  0
  141.0874   71.1791  220.1608 H   0  0  0  0  0  0  0  0  0  0  0  0
  139.4090   70.8718  219.4976 H   0  0  0  0  0  0  0  0  0  0  0  0
  139.2684   72.9184  218.6524 H   0  0  0  0  0  0  0  0  0  0  0  0
  139.7950   73.6633  220.2137 H   0  0  0  0  0  0  0  0  0  0  0  0
  142.6084   71.0771  219.9562 H   0  0  0  0  0  0  0  0  0  0  0  0
  144.8035   71.1775  221.1334 H   0  0  0  0  0  0  0  0  0  0  0  0
  144.9770   75.4440  220.4684 H   0  0  0  0  0  0  0  0  0  0  0  0
  141.9581   75.9397  221.5533 H   0  0  0  0  0  0  0  0  0  0  0  0
  138.4360   76.9018  222.6241 H   0  0  0  0  0  0  0  0  0  0  0  0
  137.7635   79.1925  223.3383 H   0  0  0  0  0  0  0  0  0  0  0  0
  139.4797   80.9823  223.5912 H   0  0  0  0  0  0  0  0  0  0  0  0
  142.5753   78.1621  222.4868 H   0  0  0  0  0  0  0  0  0  0  0  0
  1  2  2  0
  2  3  1  0
  3  4  1  0
  4  5  1  0
  5  6  1  0
  6  7  1  0
  7  8  2  0
  8  9  1  0
  9 10  2  0
 10 11  1  0
 10 12  1  0
 12 13  2  0
 13 14  1  0
  2 15  1  0
 15 16  1  0
 16 17  2  0
 17 18  1  0
 18 19  2  0
 19 20  1  0
 20 21  2  0
 21 22  1  0
 22 23  1  0
 23 24  1  0
 23 25  1  0
 23 26  1  0
 22 27  2  0
 13  7  1  0
 27 18  1  0
  3 28  1  0
  3 29  1  0
  4 30  1  0
  4 31  1  0
  5 32  1  0
  5 33  1  0
  8 34  1  0
  9 35  1  0
 12 36  1  0
 17 37  1  0
 19 38  1  0
 20 39  1  0
 21 40  1  0
 27 41  1  0
M  CHG  1  15  -1
M  END
>  <meeko>  (18) 
{"free_energy": -5.55, "intermolecular_energy": -8.53, "internal_energy": -1.24, "cluster_size": 1, "cluster_id": 5, "rank_in_cluster": 1}

$$$$

     RDKit          3D

 41 42  0  0  0  0  0  0  0  0999 V2000
  139.0860   75.5480  221.7180 O   0  0  0  0  0  0  0  0  0  0  0  0
  139.8860   74.8240  221.0670 C   0  0  0  0  0  0  0  0  0  0  0  0
  140.6580   75.4060  219.9110 C   0  0  0  0  0  0  0  0  0  0  0  0
  141.9440   76.1260  220.3470 C   0  0  0  0  0  0  0  0  0  0  0  0
  141.8120   77.6540  220.4120 C   0  0  0  0  0  0  0  0  0  0  0  0
  141.8530   78.1170  221.7650 O   0  0  0  0  0  0  0  0  0  0  0  0
  140.8380   78.8100  222.4500 C   0  0  0  0  0  0  0  0  0  0  0  0
  139.4860   78.4060  222.4340 C   0  0  0  0  0  0  0  0  0  0  0  0
  138.5190   79.1470  223.1190 C   0  0  0  0  0  0  0  0  0  0  0  0
  138.8830   80.2990  223.8220 C   0  0  0  0  0  0  0  0  0  0  0  0
  137.6650   81.2330  224.6690 Cl  0  0  0  0  0  0  0  0  0  0  0  0
  140.2180   80.7070  223.8430 C   0  0  0  0  0  0  0  0  0  0  0  0
  141.1910   79.9700  223.1590 C   0  0  0  0  0  0  0  0  0  0  0  0
  142.8640   80.5080  223.2070 Cl  0  0  0  0  0  0  0  0  0  0  0  0
  139.9940   73.4400  221.4060 N   0  0  0  0  0  0  0  0  0  0  0  0
  140.1920   73.0140  222.7280 N   0  0  0  0  0  0  0  0  0  0  0  0
  140.6540   71.8390  223.0340 C   0  0  0  0  0  0  0  0  0  0  0  0
  140.2980   71.1130  224.2750 C   0  0  0  0  0  0  0  0  0  0  0  0
  139.5710   69.9100  224.2500 C   0  0  0  0  0  0  0  0  0  0  0  0
  139.2810   69.2370  225.4390 C   0  0  0  0  0  0  0  0  0  0  0  0
  139.7150   69.7530  226.6620 C   0  0  0  0  0  0  0  0  0  0  0  0
  140.4440   70.9540  226.7080 C   0  0  0  0  0  0  0  0  0  0  0  0
  140.9640   71.4930  228.0170 C   0  0  0  0  0  0  0  0  0  0  0  0
  139.8980   71.9170  228.7890 F   0  0  0  0  0  0  0  0  0  0  0  0
  141.6540   70.5060  228.7010 F   0  0  0  0  0  0  0  0  0  0  0  0
  141.8230   72.5600  227.8110 F   0  0  0  0  0  0  0  0  0  0  0  0
  140.7610   71.6070  225.5050 C   0  0  0  0  0  0  0  0  0  0  0  0
  140.9289   74.5902  219.2247 H   0  0  0  0  0  0  0  0  0  0  0  0
  140.0114   76.1530  219.4274 H   0  0  0  0  0  0  0  0  0  0  0  0
  142.2237   75.7601  221.3459 H   0  0  0  0  0  0  0  0  0  0  0  0
  142.7068   75.9043  219.5861 H   0  0  0  0  0  0  0  0  0  0  0  0
  142.6406   78.1105  219.8507 H   0  0  0  0  0  0  0  0  0  0  0  0
  140.8445   77.9402  219.9738 H   0  0  0  0  0  0  0  0  0  0  0  0
  139.1915   77.5029  221.8793 H   0  0  0  0  0  0  0  0  0  0  0  0
  137.4680   78.8226  223.1048 H   0  0  0  0  0  0  0  0  0  0  0  0
  140.5060   81.6112  224.3993 H   0  0  0  0  0  0  0  0  0  0  0  0
  141.3491   71.3558  222.3316 H   0  0  0  0  0  0  0  0  0  0  0  0
  139.2290   69.4969  223.2896 H   0  0  0  0  0  0  0  0  0  0  0  0
  138.7091   68.2978  225.4120 H   0  0  0  0  0  0  0  0  0  0  0  0
  139.4851   69.2166  227.5945 H   0  0  0  0  0  0  0  0  0  0  0  0
  141.3795   72.5164  225.5271 H   0  0  0  0  0  0  0  0  0  0  0  0
  1  2  2  0
  2  3  1  0
  3  4  1  0
  4  5  1  0
  5  6  1  0
  6  7  1  0
  7  8  2  0
  8  9  1  0
  9 10  2  0
 10 11  1  0
 10 12  1  0
 12 13  2  0
 13 14  1  0
  2 15  1  0
 15 16  1  0
 16 17  2  0
 17 18  1  0
 18 19  2  0
 19 20  1  0
 20 21  2  0
 21 22  1  0
 22 23  1  0
 23 24  1  0
 23 25  1  0
 23 26  1  0
 22 27  2  0
 13  7  1  0
 27 18  1  0
  3 28  1  0
  3 29  1  0
  4 30  1  0
  4 31  1  0
  5 32  1  0
  5 33  1  0
  8 34  1  0
  9 35  1  0
 12 36  1  0
 17 37  1  0
 19 38  1  0
 20 39  1  0
 21 40  1  0
 27 41  1  0
M  CHG  1  15  -1
M  END
>  <meeko>  (19) 
{"free_energy": -6.18, "intermolecular_energy": -9.17, "internal_energy": -0.78, "cluster_size": 6, "cluster_id": 2, "rank_in_cluster": 5}

$$$$

     RDKit          3D

 41 42  0  0  0  0  0  0  0  0999 V2000
  141.5170   72.2000  221.7940 O   0  0  0  0  0  0  0  0  0  0  0  0
  140.3040   72.4870  221.9760 C   0  0  0  0  0  0  0  0  0  0  0  0
  139.2410   71.4440  221.7510 C   0  0  0  0  0  0  0  0  0  0  0  0
  138.0080   71.6350  222.6490 C   0  0  0  0  0  0  0  0  0  0  0  0
  137.8100   70.5180  223.6830 C   0  0  0  0  0  0  0  0  0  0  0  0
  139.0070   69.7510  223.8470 O   0  0  0  0  0  0  0  0  0  0  0  0
  139.5700   69.3180  225.0620 C   0  0  0  0  0  0  0  0  0  0  0  0
  139.3270   68.0410  225.6090 C   0  0  0  0  0  0  0  0  0  0  0  0
  139.9010   67.6740  226.8300 C   0  0  0  0  0  0  0  0  0  0  0  0
  140.7180   68.5730  227.5210 C   0  0  0  0  0  0  0  0  0  0  0  0
  141.4250   68.1140  229.0580 Cl  0  0  0  0  0  0  0  0  0  0  0  0
  140.9640   69.8400  226.9880 C   0  0  0  0  0  0  0  0  0  0  0  0
  140.3930   70.2130  225.7660 C   0  0  0  0  0  0  0  0  0  0  0  0
  140.7240   71.8140  225.1200 Cl  0  0  0  0  0  0  0  0  0  0  0  0
  139.9600   73.8270  222.3360 N   0  0  0  0  0  0  0  0  0  0  0  0
  140.7690   74.9190  221.9860 N   0  0  0  0  0  0  0  0  0  0  0  0
  140.3100   75.9870  221.4070 C   0  0  0  0  0  0  0  0  0  0  0  0
  140.1020   77.2770  222.1050 C   0  0  0  0  0  0  0  0  0  0  0  0
  138.8480   77.6490  222.6200 C   0  0  0  0  0  0  0  0  0  0  0  0
  138.6960   78.8590  223.3010 C   0  0  0  0  0  0  0  0  0  0  0  0
  139.7920   79.7070  223.4780 C   0  0  0  0  0  0  0  0  0  0  0  0
  141.0550   79.3520  222.9720 C   0  0  0  0  0  0  0  0  0  0  0  0
  142.2560   80.2340  223.2020 C   0  0  0  0  0  0  0  0  0  0  0  0
  142.6410   80.1400  224.5270 F   0  0  0  0  0  0  0  0  0  0  0  0
  143.3080   79.8300  222.3960 F   0  0  0  0  0  0  0  0  0  0  0  0
  141.9680   81.5560  222.9090 F   0  0  0  0  0  0  0  0  0  0  0  0
  141.2050   78.1170  222.3180 C   0  0  0  0  0  0  0  0  0  0  0  0
  138.9195   71.4930  220.7002 H   0  0  0  0  0  0  0  0  0  0  0  0
  139.6814   70.4678  222.0024 H   0  0  0  0  0  0  0  0  0  0  0  0
  138.1158   72.5887  223.1864 H   0  0  0  0  0  0  0  0  0  0  0  0
  137.1279   71.6178  221.9893 H   0  0  0  0  0  0  0  0  0  0  0  0
  137.5356   70.9669  224.6490 H   0  0  0  0  0  0  0  0  0  0  0  0
  137.0121   69.8495  223.3273 H   0  0  0  0  0  0  0  0  0  0  0  0
  138.6822   67.3297  225.0720 H   0  0  0  0  0  0  0  0  0  0  0  0
  139.7090   66.6748  227.2479 H   0  0  0  0  0  0  0  0  0  0  0  0
  141.6087   70.5472  227.5304 H   0  0  0  0  0  0  0  0  0  0  0  0
  140.0614   75.9305  220.3369 H   0  0  0  0  0  0  0  0  0  0  0  0
  137.9822   76.9839  222.4860 H   0  0  0  0  0  0  0  0  0  0  0  0
  137.7111   79.1448  223.6988 H   0  0  0  0  0  0  0  0  0  0  0  0
  139.6662   80.6580  224.0163 H   0  0  0  0  0  0  0  0  0  0  0  0
  142.2003   77.8051  221.9686 H   0  0  0  0  0  0  0  0  0  0  0  0
  1  2  2  0
  2  3  1  0
  3  4  1  0
  4  5  1  0
  5  6  1  0
  6  7  1  0
  7  8  2  0
  8  9  1  0
  9 10  2  0
 10 11  1  0
 10 12  1  0
 12 13  2  0
 13 14  1  0
  2 15  1  0
 15 16  1  0
 16 17  2  0
 17 18  1  0
 18 19  2  0
 19 20  1  0
 20 21  2  0
 21 22  1  0
 22 23  1  0
 23 24  1  0
 23 25  1  0
 23 26  1  0
 22 27  2  0
 13  7  1  0
 27 18  1  0
  3 28  1  0
  3 29  1  0
  4 30  1  0
  4 31  1  0
  5 32  1  0
  5 33  1  0
  8 34  1  0
  9 35  1  0
 12 36  1  0
 17 37  1  0
 19 38  1  0
 20 39  1  0
 21 40  1  0
 27 41  1  0
M  CHG  1  15  -1
M  END
>  <meeko>  (20) 
{"free_energy": -6.4, "intermolecular_energy": -9.38, "internal_energy": -0.75, "cluster_size": 2, "cluster_id": 3, "rank_in_cluster": 1}

$$$$
