
     RDKit          3D

 48 52  0  0  0  0  0  0  0  0999 V2000
  140.1240   74.9440  222.2810 O   0  0  0  0  0  0  0  0  0  0  0  0
  139.7300   76.2790  221.7110 S   0  0  0  0  0  0  0  0  0  0  0  0
  139.2490   76.0780  220.3000 O   0  0  0  0  0  0  0  0  0  0  0  0
  138.4040   76.9270  222.7240 C   0  0  0  0  0  0  0  0  0  0  0  0
  138.1970   78.3980  222.4960 C   0  0  0  0  0  0  0  0  0  0  0  0
  138.4460   79.3160  223.5310 C   0  0  0  0  0  0  0  0  0  0  0  0
  138.2260   80.6810  223.3280 C   0  0  0  0  0  0  0  0  0  0  0  0
  137.7590   81.1400  222.0940 C   0  0  0  0  0  0  0  0  0  0  0  0
  137.5130   80.2340  221.0580 C   0  0  0  0  0  0  0  0  0  0  0  0
  137.7320   78.8680  221.2560 C   0  0  0  0  0  0  0  0  0  0  0  0
  141.1160   77.3470  221.7380 N   0  0  0  0  0  0  0  0  0  0  0  0
  141.3930   77.8770  223.0940 C   0  0  0  0  0  0  0  0  0  0  0  0
  141.5950   79.3300  222.9170 C   0  0  0  0  0  0  0  0  0  0  0  0
  141.9830   80.2680  223.8760 C   0  0  0  0  0  0  0  0  0  0  0  0
  142.1010   81.6120  223.4860 C   0  0  0  0  0  0  0  0  0  0  0  0
  141.8220   81.9920  222.1590 C   0  0  0  0  0  0  0  0  0  0  0  0
  141.4280   81.0260  221.2180 C   0  0  0  0  0  0  0  0  0  0  0  0
  141.3360   79.6940  221.6290 C   0  0  0  0  0  0  0  0  0  0  0  0
  140.9120   78.5110  220.8430 C   0  0  1  0  0  0  0  0  0  0  0  0
  141.7380   78.3540  219.5960 C   0  0  0  0  0  0  0  0  0  0  0  0
  142.0580   79.3660  218.6950 C   0  0  0  0  0  0  0  0  0  0  0  0
  142.8130   78.8780  217.6840 N   0  0  0  0  0  0  0  0  0  0  0  0
  142.9720   77.5690  217.9370 C   0  0  0  0  0  0  0  0  0  0  0  0
  143.6800   76.6430  217.1720 C   0  0  0  0  0  0  0  0  0  0  0  0
  143.7230   75.3120  217.6240 C   0  0  0  0  0  0  0  0  0  0  0  0
  143.0650   74.9390  218.8170 C   0  0  0  0  0  0  0  0  0  0  0  0
  142.3580   75.8940  219.5690 C   0  0  0  0  0  0  0  0  0  0  0  0
  142.3320   77.2080  219.0960 C   0  0  0  0  0  0  0  0  0  0  0  0
  137.4740   76.3939  222.4773 H   0  0  0  0  0  0  0  0  0  0  0  0
  138.6757   76.7789  223.7796 H   0  0  0  0  0  0  0  0  0  0  0  0
  138.8151   78.9588  224.5037 H   0  0  0  0  0  0  0  0  0  0  0  0
  138.4209   81.3954  224.1414 H   0  0  0  0  0  0  0  0  0  0  0  0
  137.5848   82.2148  221.9374 H   0  0  0  0  0  0  0  0  0  0  0  0
  137.1468   80.5967  220.0862 H   0  0  0  0  0  0  0  0  0  0  0  0
  137.5396   78.1580  220.4381 H   0  0  0  0  0  0  0  0  0  0  0  0
  140.5407   77.6861  223.7627 H   0  0  0  0  0  0  0  0  0  0  0  0
  142.2714   77.3955  223.5484 H   0  0  0  0  0  0  0  0  0  0  0  0
  142.1912   79.9616  224.9118 H   0  0  0  0  0  0  0  0  0  0  0  0
  142.4124   82.3703  224.2195 H   0  0  0  0  0  0  0  0  0  0  0  0
  141.9127   83.0464  221.8589 H   0  0  0  0  0  0  0  0  0  0  0  0
  141.1972   81.3120  220.1812 H   0  0  0  0  0  0  0  0  0  0  0  0
  139.8665   78.6093  220.5154 H   0  0  0  0  0  0  0  0  0  0  0  0
  141.7414   80.4150  218.7916 H   0  0  0  0  0  0  0  0  0  0  0  0
  143.1910   79.4150  216.8720 H   0  0  0  0  0  0  0  0  0  0  0  0
  144.1888   76.9440  216.2443 H   0  0  0  0  0  0  0  0  0  0  0  0
  144.2730   74.5560  217.0444 H   0  0  0  0  0  0  0  0  0  0  0  0
  143.1059   73.8947  219.1600 H   0  0  0  0  0  0  0  0  0  0  0  0
  141.8421   75.6153  220.4997 H   0  0  0  0  0  0  0  0  0  0  0  0
  1  2  2  0
  2  3  2  0
  2  4  1  0
  4  5  1  0
  5  6  2  0
  6  7  1  0
  7  8  2  0
  8  9  1  0
  9 10  2  0
  2 11  1  0
 11 12  1  0
 12 13  1  0
 13 14  2  0
 14 15  1  0
 15 16  2  0
 16 17  1  0
 17 18  2  0
 18 19  1  0
 19 20  1  0
 20 21  2  0
 21 22  1  0
 22 23  1  0
 23 24  2  0
 24 25  1  0
 25 26  2  0
 26 27  1  0
 27 28  2  0
 10  5  1  0
 19 11  1  0
 28 20  1  0
 18 13  1  0
 28 23  1  0
  4 29  1  0
  4 30  1  0
  6 31  1  0
  7 32  1  0
  8 33  1  0
  9 34  1  0
 10 35  1  0
 12 36  1  0
 12 37  1  0
 14 38  1  0
 15 39  1  0
 16 40  1  0
 17 41  1  0
 19 42  1  6
 21 43  1  0
 22 44  1  0
 24 45  1  0
 25 46  1  0
 26 47  1  0
 27 48  1  0
M  END
>  <meeko>  (1) 
{"free_energy": -7.62, "intermolecular_energy": -8.82, "internal_energy": -2.37, "cluster_size": 17, "cluster_id": 2, "rank_in_cluster": 14}

$$$$

     RDKit          3D

 48 52  0  0  0  0  0  0  0  0999 V2000
  140.1330   74.9430  222.2940 O   0  0  0  0  0  0  0  0  0  0  0  0
  139.7390   76.2760  221.7220 S   0  0  0  0  0  0  0  0  0  0  0  0
  139.2570   76.0730  220.3120 O   0  0  0  0  0  0  0  0  0  0  0  0
  138.4140   76.9260  222.7340 C   0  0  0  0  0  0  0  0  0  0  0  0
  138.2010   78.3960  222.4970 C   0  0  0  0  0  0  0  0  0  0  0  0
  137.7690   78.8540  221.2400 C   0  0  0  0  0  0  0  0  0  0  0  0
  137.5990   80.2220  221.0110 C   0  0  0  0  0  0  0  0  0  0  0  0
  137.8550   81.1410  222.0320 C   0  0  0  0  0  0  0  0  0  0  0  0
  138.2800   80.6930  223.2850 C   0  0  0  0  0  0  0  0  0  0  0  0
  138.4530   79.3260  223.5200 C   0  0  0  0  0  0  0  0  0  0  0  0
  141.1250   77.3440  221.7450 N   0  0  0  0  0  0  0  0  0  0  0  0
  141.4000   77.8810  223.0990 C   0  0  0  0  0  0  0  0  0  0  0  0
  141.6030   79.3330  222.9150 C   0  0  0  0  0  0  0  0  0  0  0  0
  141.9900   80.2760  223.8700 C   0  0  0  0  0  0  0  0  0  0  0  0
  142.1090   81.6180  223.4740 C   0  0  0  0  0  0  0  0  0  0  0  0
  141.8310   81.9910  222.1440 C   0  0  0  0  0  0  0  0  0  0  0  0
  141.4390   81.0210  221.2080 C   0  0  0  0  0  0  0  0  0  0  0  0
  141.3460   79.6900  221.6260 C   0  0  0  0  0  0  0  0  0  0  0  0
  140.9220   78.5040  220.8440 C   0  0  1  0  0  0  0  0  0  0  0  0
  141.7500   78.3400  219.5990 C   0  0  0  0  0  0  0  0  0  0  0  0
  142.0840   79.3510  218.7010 C   0  0  0  0  0  0  0  0  0  0  0  0
  142.8360   78.8570  217.6920 N   0  0  0  0  0  0  0  0  0  0  0  0
  142.9800   77.5450  217.9420 C   0  0  0  0  0  0  0  0  0  0  0  0
  143.6790   76.6130  217.1770 C   0  0  0  0  0  0  0  0  0  0  0  0
  143.7060   75.2810  217.6260 C   0  0  0  0  0  0  0  0  0  0  0  0
  143.0410   74.9130  218.8160 C   0  0  0  0  0  0  0  0  0  0  0  0
  142.3430   75.8740  219.5680 C   0  0  0  0  0  0  0  0  0  0  0  0
  142.3320   77.1890  219.0980 C   0  0  0  0  0  0  0  0  0  0  0  0
  137.4852   76.3881  222.4933 H   0  0  0  0  0  0  0  0  0  0  0  0
  138.6892   76.7858  223.7897 H   0  0  0  0  0  0  0  0  0  0  0  0
  137.5642   78.1335  220.4345 H   0  0  0  0  0  0  0  0  0  0  0  0
  137.2630   80.5760  220.0252 H   0  0  0  0  0  0  0  0  0  0  0  0
  137.7218   82.2175  221.8490 H   0  0  0  0  0  0  0  0  0  0  0  0
  138.4789   81.4175  224.0884 H   0  0  0  0  0  0  0  0  0  0  0  0
  138.7873   78.9773  224.5083 H   0  0  0  0  0  0  0  0  0  0  0  0
  140.5465   77.6939  223.7672 H   0  0  0  0  0  0  0  0  0  0  0  0
  142.2775   77.4015  223.5574 H   0  0  0  0  0  0  0  0  0  0  0  0
  142.1966   79.9746  224.9075 H   0  0  0  0  0  0  0  0  0  0  0  0
  142.4200   82.3799  224.2039 H   0  0  0  0  0  0  0  0  0  0  0  0
  141.9213   83.0439  221.8386 H   0  0  0  0  0  0  0  0  0  0  0  0
  141.2102   81.3017  220.1693 H   0  0  0  0  0  0  0  0  0  0  0  0
  139.8772   78.6021  220.5140 H   0  0  0  0  0  0  0  0  0  0  0  0
  141.7788   80.4033  218.7990 H   0  0  0  0  0  0  0  0  0  0  0  0
  143.2220   79.3920  216.8820 H   0  0  0  0  0  0  0  0  0  0  0  0
  144.1933   76.9102  216.2512 H   0  0  0  0  0  0  0  0  0  0  0  0
  144.2490   74.5201  217.0462 H   0  0  0  0  0  0  0  0  0  0  0  0
  143.0693   73.8675  219.1568 H   0  0  0  0  0  0  0  0  0  0  0  0
  141.8221   75.5989  220.4970 H   0  0  0  0  0  0  0  0  0  0  0  0
  1  2  2  0
  2  3  2  0
  2  4  1  0
  4  5  1  0
  5  6  2  0
  6  7  1  0
  7  8  2  0
  8  9  1  0
  9 10  2  0
  2 11  1  0
 11 12  1  0
 12 13  1  0
 13 14  2  0
 14 15  1  0
 15 16  2  0
 16 17  1  0
 17 18  2  0
 18 19  1  0
 19 20  1  0
 20 21  2  0
 21 22  1  0
 22 23  1  0
 23 24  2  0
 24 25  1  0
 25 26  2  0
 26 27  1  0
 27 28  2  0
 10  5  1  0
 19 11  1  0
 28 20  1  0
 18 13  1  0
 28 23  1  0
  4 29  1  0
  4 30  1  0
  6 31  1  0
  7 32  1  0
  8 33  1  0
  9 34  1  0
 10 35  1  0
 12 36  1  0
 12 37  1  0
 14 38  1  0
 15 39  1  0
 16 40  1  0
 17 41  1  0
 19 42  1  6
 21 43  1  0
 22 44  1  0
 24 45  1  0
 25 46  1  0
 26 47  1  0
 27 48  1  0
M  END
>  <meeko>  (2) 
{"free_energy": -7.63, "intermolecular_energy": -8.83, "internal_energy": -2.38, "cluster_size": 17, "cluster_id": 2, "rank_in_cluster": 8}

$$$$

     RDKit          3D

 48 52  0  0  0  0  0  0  0  0999 V2000
  140.0930   74.9630  222.3120 O   0  0  0  0  0  0  0  0  0  0  0  0
  139.7100   76.2940  221.7250 S   0  0  0  0  0  0  0  0  0  0  0  0
  139.2310   76.0790  220.3150 O   0  0  0  0  0  0  0  0  0  0  0  0
  138.3870   76.9630  222.7260 C   0  0  0  0  0  0  0  0  0  0  0  0
  138.1950   78.4350  222.4860 C   0  0  0  0  0  0  0  0  0  0  0  0
  137.7800   78.8980  221.2250 C   0  0  0  0  0  0  0  0  0  0  0  0
  137.6300   80.2670  220.9930 C   0  0  0  0  0  0  0  0  0  0  0  0
  137.8900   81.1840  222.0140 C   0  0  0  0  0  0  0  0  0  0  0  0
  138.2990   80.7320  223.2720 C   0  0  0  0  0  0  0  0  0  0  0  0
  138.4510   79.3630  223.5090 C   0  0  0  0  0  0  0  0  0  0  0  0
  141.1040   77.3520  221.7420 N   0  0  0  0  0  0  0  0  0  0  0  0
  141.3930   77.8810  223.0960 C   0  0  0  0  0  0  0  0  0  0  0  0
  141.6040   79.3320  222.9170 C   0  0  0  0  0  0  0  0  0  0  0  0
  142.0050   80.2690  223.8720 C   0  0  0  0  0  0  0  0  0  0  0  0
  142.1290   81.6120  223.4810 C   0  0  0  0  0  0  0  0  0  0  0  0
  141.8440   81.9930  222.1550 C   0  0  0  0  0  0  0  0  0  0  0  0
  141.4380   81.0290  221.2180 C   0  0  0  0  0  0  0  0  0  0  0  0
  141.3390   79.6970  221.6310 C   0  0  0  0  0  0  0  0  0  0  0  0
  140.9020   78.5170  220.8470 C   0  0  1  0  0  0  0  0  0  0  0  0
  141.7190   78.3540  219.5950 C   0  0  0  0  0  0  0  0  0  0  0  0
  142.0240   79.3590  218.6820 C   0  0  0  0  0  0  0  0  0  0  0  0
  142.7730   78.8670  217.6700 N   0  0  0  0  0  0  0  0  0  0  0  0
  142.9450   77.5600  217.9350 C   0  0  0  0  0  0  0  0  0  0  0  0
  143.6530   76.6320  217.1730 C   0  0  0  0  0  0  0  0  0  0  0  0
  143.7090   75.3060  217.6370 C   0  0  0  0  0  0  0  0  0  0  0  0
  143.0640   74.9400  218.8390 C   0  0  0  0  0  0  0  0  0  0  0  0
  142.3560   75.8980  219.5880 C   0  0  0  0  0  0  0  0  0  0  0  0
  142.3160   77.2070  219.1020 C   0  0  0  0  0  0  0  0  0  0  0  0
  137.4529   76.4371  222.4792 H   0  0  0  0  0  0  0  0  0  0  0  0
  138.6530   76.8208  223.7838 H   0  0  0  0  0  0  0  0  0  0  0  0
  137.5727   78.1795  220.4183 H   0  0  0  0  0  0  0  0  0  0  0  0
  137.3064   80.6238  220.0041 H   0  0  0  0  0  0  0  0  0  0  0  0
  137.7729   82.2618  221.8282 H   0  0  0  0  0  0  0  0  0  0  0  0
  138.5014   81.4546  224.0763 H   0  0  0  0  0  0  0  0  0  0  0  0
  138.7723   79.0109  224.5004 H   0  0  0  0  0  0  0  0  0  0  0  0
  140.5435   77.6965  223.7700 H   0  0  0  0  0  0  0  0  0  0  0  0
  142.2709   77.3937  223.5453 H   0  0  0  0  0  0  0  0  0  0  0  0
  142.2187   79.9620  224.9064 H   0  0  0  0  0  0  0  0  0  0  0  0
  142.4496   82.3687  224.2122 H   0  0  0  0  0  0  0  0  0  0  0  0
  141.9396   83.0465  221.8533 H   0  0  0  0  0  0  0  0  0  0  0  0
  141.2031   81.3155  220.1823 H   0  0  0  0  0  0  0  0  0  0  0  0
  139.8555   78.6224  220.5250 H   0  0  0  0  0  0  0  0  0  0  0  0
  141.7009   80.4067  218.7713 H   0  0  0  0  0  0  0  0  0  0  0  0
  143.1420   79.3980  216.8490 H   0  0  0  0  0  0  0  0  0  0  0  0
  144.1520   76.9277  216.2384 H   0  0  0  0  0  0  0  0  0  0  0  0
  144.2591   74.5482  217.0598 H   0  0  0  0  0  0  0  0  0  0  0  0
  143.1154   73.8994  219.1919 H   0  0  0  0  0  0  0  0  0  0  0  0
  141.8504   75.6249  220.5259 H   0  0  0  0  0  0  0  0  0  0  0  0
  1  2  2  0
  2  3  2  0
  2  4  1  0
  4  5  1  0
  5  6  2  0
  6  7  1  0
  7  8  2  0
  8  9  1  0
  9 10  2  0
  2 11  1  0
 11 12  1  0
 12 13  1  0
 13 14  2  0
 14 15  1  0
 15 16  2  0
 16 17  1  0
 17 18  2  0
 18 19  1  0
 19 20  1  0
 20 21  2  0
 21 22  1  0
 22 23  1  0
 23 24  2  0
 24 25  1  0
 25 26  2  0
 26 27  1  0
 27 28  2  0
 10  5  1  0
 19 11  1  0
 28 20  1  0
 18 13  1  0
 28 23  1  0
  4 29  1  0
  4 30  1  0
  6 31  1  0
  7 32  1  0
  8 33  1  0
  9 34  1  0
 10 35  1  0
 12 36  1  0
 12 37  1  0
 14 38  1  0
 15 39  1  0
 16 40  1  0
 17 41  1  0
 19 42  1  6
 21 43  1  0
 22 44  1  0
 24 45  1  0
 25 46  1  0
 26 47  1  0
 27 48  1  0
M  END
>  <meeko>  (3) 
{"free_energy": -7.63, "intermolecular_energy": -8.83, "internal_energy": -2.37, "cluster_size": 17, "cluster_id": 2, "rank_in_cluster": 9}

$$$$

     RDKit          3D

 48 52  0  0  0  0  0  0  0  0999 V2000
  140.0830   74.9620  222.2890 O   0  0  0  0  0  0  0  0  0  0  0  0
  139.6990   76.2970  221.7140 S   0  0  0  0  0  0  0  0  0  0  0  0
  139.2210   76.0950  220.3020 O   0  0  0  0  0  0  0  0  0  0  0  0
  138.3740   76.9560  222.7210 C   0  0  0  0  0  0  0  0  0  0  0  0
  138.1730   78.4270  222.4830 C   0  0  0  0  0  0  0  0  0  0  0  0
  137.7540   78.8900  221.2240 C   0  0  0  0  0  0  0  0  0  0  0  0
  137.5940   80.2590  220.9960 C   0  0  0  0  0  0  0  0  0  0  0  0
  137.8490   81.1760  222.0190 C   0  0  0  0  0  0  0  0  0  0  0  0
  138.2620   80.7230  223.2750 C   0  0  0  0  0  0  0  0  0  0  0  0
  138.4230   79.3540  223.5090 C   0  0  0  0  0  0  0  0  0  0  0  0
  141.0920   77.3570  221.7410 N   0  0  0  0  0  0  0  0  0  0  0  0
  141.3640   77.8940  223.0950 C   0  0  0  0  0  0  0  0  0  0  0  0
  141.5760   79.3440  222.9110 C   0  0  0  0  0  0  0  0  0  0  0  0
  141.9650   80.2860  223.8650 C   0  0  0  0  0  0  0  0  0  0  0  0
  142.0930   81.6270  223.4680 C   0  0  0  0  0  0  0  0  0  0  0  0
  141.8230   82.0010  222.1380 C   0  0  0  0  0  0  0  0  0  0  0  0
  141.4280   81.0310  221.2010 C   0  0  0  0  0  0  0  0  0  0  0  0
  141.3260   79.7020  221.6200 C   0  0  0  0  0  0  0  0  0  0  0  0
  140.8990   78.5170  220.8380 C   0  0  1  0  0  0  0  0  0  0  0  0
  141.7300   78.3480  219.5960 C   0  0  0  0  0  0  0  0  0  0  0  0
  142.0780   79.3560  218.7020 C   0  0  0  0  0  0  0  0  0  0  0  0
  142.8290   78.8570  217.6950 N   0  0  0  0  0  0  0  0  0  0  0  0
  142.9590   77.5430  217.9430 C   0  0  0  0  0  0  0  0  0  0  0  0
  143.6520   76.6050  217.1790 C   0  0  0  0  0  0  0  0  0  0  0  0
  143.6630   75.2720  217.6250 C   0  0  0  0  0  0  0  0  0  0  0  0
  142.9890   74.9080  218.8110 C   0  0  0  0  0  0  0  0  0  0  0  0
  142.2970   75.8750  219.5630 C   0  0  0  0  0  0  0  0  0  0  0  0
  142.3020   77.1910  219.0950 C   0  0  0  0  0  0  0  0  0  0  0  0
  137.4424   76.4248  222.4763 H   0  0  0  0  0  0  0  0  0  0  0  0
  138.6433   76.8134  223.7779 H   0  0  0  0  0  0  0  0  0  0  0  0
  137.5514   78.1722  220.4155 H   0  0  0  0  0  0  0  0  0  0  0  0
  137.2664   80.6160  220.0085 H   0  0  0  0  0  0  0  0  0  0  0  0
  137.7248   82.2535  221.8359 H   0  0  0  0  0  0  0  0  0  0  0  0
  138.4607   81.4448  224.0809 H   0  0  0  0  0  0  0  0  0  0  0  0
  138.7464   79.0015  224.4995 H   0  0  0  0  0  0  0  0  0  0  0  0
  140.5065   77.7124  223.7596 H   0  0  0  0  0  0  0  0  0  0  0  0
  142.2369   77.4101  223.5574 H   0  0  0  0  0  0  0  0  0  0  0  0
  142.1666   79.9849  224.9036 H   0  0  0  0  0  0  0  0  0  0  0  0
  142.4053   82.3876  224.1987 H   0  0  0  0  0  0  0  0  0  0  0  0
  141.9213   83.0530  221.8320 H   0  0  0  0  0  0  0  0  0  0  0  0
  141.2042   81.3117  220.1612 H   0  0  0  0  0  0  0  0  0  0  0  0
  139.8559   78.6196  220.5042 H   0  0  0  0  0  0  0  0  0  0  0  0
  141.7832   80.4111  218.8009 H   0  0  0  0  0  0  0  0  0  0  0  0
  143.2250   79.3890  216.8870 H   0  0  0  0  0  0  0  0  0  0  0  0
  144.1737   76.8988  216.2562 H   0  0  0  0  0  0  0  0  0  0  0  0
  144.2006   74.5069  217.0458 H   0  0  0  0  0  0  0  0  0  0  0  0
  143.0050   73.8614  219.1493 H   0  0  0  0  0  0  0  0  0  0  0  0
  141.7693   75.6035  220.4892 H   0  0  0  0  0  0  0  0  0  0  0  0
  1  2  2  0
  2  3  2  0
  2  4  1  0
  4  5  1  0
  5  6  2  0
  6  7  1  0
  7  8  2  0
  8  9  1  0
  9 10  2  0
  2 11  1  0
 11 12  1  0
 12 13  1  0
 13 14  2  0
 14 15  1  0
 15 16  2  0
 16 17  1  0
 17 18  2  0
 18 19  1  0
 19 20  1  0
 20 21  2  0
 21 22  1  0
 22 23  1  0
 23 24  2  0
 24 25  1  0
 25 26  2  0
 26 27  1  0
 27 28  2  0
 10  5  1  0
 19 11  1  0
 28 20  1  0
 18 13  1  0
 28 23  1  0
  4 29  1  0
  4 30  1  0
  6 31  1  0
  7 32  1  0
  8 33  1  0
  9 34  1  0
 10 35  1  0
 12 36  1  0
 12 37  1  0
 14 38  1  0
 15 39  1  0
 16 40  1  0
 17 41  1  0
 19 42  1  6
 21 43  1  0
 22 44  1  0
 24 45  1  0
 25 46  1  0
 26 47  1  0
 27 48  1  0
M  END
>  <meeko>  (4) 
{"free_energy": -7.64, "intermolecular_energy": -8.83, "internal_energy": -2.38, "cluster_size": 17, "cluster_id": 2, "rank_in_cluster": 3}

$$$$

     RDKit          3D

 48 52  0  0  0  0  0  0  0  0999 V2000
  140.1570   74.9390  222.2750 O   0  0  0  0  0  0  0  0  0  0  0  0
  139.7570   76.2730  221.7070 S   0  0  0  0  0  0  0  0  0  0  0  0
  139.2750   76.0720  220.2960 O   0  0  0  0  0  0  0  0  0  0  0  0
  138.4300   76.9140  222.7220 C   0  0  0  0  0  0  0  0  0  0  0  0
  138.1950   78.3780  222.4730 C   0  0  0  0  0  0  0  0  0  0  0  0
  137.7550   78.8200  221.2140 C   0  0  0  0  0  0  0  0  0  0  0  0
  137.5640   80.1830  220.9740 C   0  0  0  0  0  0  0  0  0  0  0  0
  137.8080   81.1140  221.9860 C   0  0  0  0  0  0  0  0  0  0  0  0
  138.2420   80.6820  223.2430 C   0  0  0  0  0  0  0  0  0  0  0  0
  138.4350   79.3200  223.4880 C   0  0  0  0  0  0  0  0  0  0  0  0
  141.1390   77.3470  221.7340 N   0  0  0  0  0  0  0  0  0  0  0  0
  141.4040   77.8900  223.0870 C   0  0  0  0  0  0  0  0  0  0  0  0
  141.6020   79.3420  222.8980 C   0  0  0  0  0  0  0  0  0  0  0  0
  141.9800   80.2910  223.8510 C   0  0  0  0  0  0  0  0  0  0  0  0
  142.0950   81.6320  223.4500 C   0  0  0  0  0  0  0  0  0  0  0  0
  141.8230   81.9990  222.1180 C   0  0  0  0  0  0  0  0  0  0  0  0
  141.4400   81.0230  221.1830 C   0  0  0  0  0  0  0  0  0  0  0  0
  141.3500   79.6940  221.6060 C   0  0  0  0  0  0  0  0  0  0  0  0
  140.9360   78.5020  220.8270 C   0  0  1  0  0  0  0  0  0  0  0  0
  141.7710   78.3370  219.5870 C   0  0  0  0  0  0  0  0  0  0  0  0
  142.1280   79.3510  218.7020 C   0  0  0  0  0  0  0  0  0  0  0  0
  142.8800   78.8550  217.6930 N   0  0  0  0  0  0  0  0  0  0  0  0
  143.0020   77.5380  217.9320 C   0  0  0  0  0  0  0  0  0  0  0  0
  143.6920   76.6020  217.1640 C   0  0  0  0  0  0  0  0  0  0  0  0
  143.6940   75.2650  217.5990 C   0  0  0  0  0  0  0  0  0  0  0  0
  143.0130   74.8970  218.7810 C   0  0  0  0  0  0  0  0  0  0  0  0
  142.3240   75.8620  219.5370 C   0  0  0  0  0  0  0  0  0  0  0  0
  142.3390   77.1820  219.0790 C   0  0  0  0  0  0  0  0  0  0  0  0
  137.5071   76.3610  222.4927 H   0  0  0  0  0  0  0  0  0  0  0  0
  138.7143   76.7875  223.7771 H   0  0  0  0  0  0  0  0  0  0  0  0
  137.5602   78.0902  220.4143 H   0  0  0  0  0  0  0  0  0  0  0  0
  137.2207   80.5235  219.9860 H   0  0  0  0  0  0  0  0  0  0  0  0
  137.6588   82.1868  221.7942 H   0  0  0  0  0  0  0  0  0  0  0  0
  138.4318   81.4156  224.0403 H   0  0  0  0  0  0  0  0  0  0  0  0
  138.7758   78.9840  224.4784 H   0  0  0  0  0  0  0  0  0  0  0  0
  140.5475   77.7021  223.7512 H   0  0  0  0  0  0  0  0  0  0  0  0
  142.2807   77.4158  223.5525 H   0  0  0  0  0  0  0  0  0  0  0  0
  142.1827   79.9949  224.8908 H   0  0  0  0  0  0  0  0  0  0  0  0
  142.3985   82.3981  224.1787 H   0  0  0  0  0  0  0  0  0  0  0  0
  141.9105   83.0511  221.8093 H   0  0  0  0  0  0  0  0  0  0  0  0
  141.2161   81.2985  220.1419 H   0  0  0  0  0  0  0  0  0  0  0  0
  139.8925   78.5933  220.4911 H   0  0  0  0  0  0  0  0  0  0  0  0
  141.8391   80.4070  218.8085 H   0  0  0  0  0  0  0  0  0  0  0  0
  143.2820   79.3910  216.8920 H   0  0  0  0  0  0  0  0  0  0  0  0
  144.2189   76.9001  216.2456 H   0  0  0  0  0  0  0  0  0  0  0  0
  144.2289   74.5010  217.0157 H   0  0  0  0  0  0  0  0  0  0  0  0
  143.0218   73.8481  219.1123 H   0  0  0  0  0  0  0  0  0  0  0  0
  141.7907   75.5867  220.4588 H   0  0  0  0  0  0  0  0  0  0  0  0
  1  2  2  0
  2  3  2  0
  2  4  1  0
  4  5  1  0
  5  6  2  0
  6  7  1  0
  7  8  2  0
  8  9  1  0
  9 10  2  0
  2 11  1  0
 11 12  1  0
 12 13  1  0
 13 14  2  0
 14 15  1  0
 15 16  2  0
 16 17  1  0
 17 18  2  0
 18 19  1  0
 19 20  1  0
 20 21  2  0
 21 22  1  0
 22 23  1  0
 23 24  2  0
 24 25  1  0
 25 26  2  0
 26 27  1  0
 27 28  2  0
 10  5  1  0
 19 11  1  0
 28 20  1  0
 18 13  1  0
 28 23  1  0
  4 29  1  0
  4 30  1  0
  6 31  1  0
  7 32  1  0
  8 33  1  0
  9 34  1  0
 10 35  1  0
 12 36  1  0
 12 37  1  0
 14 38  1  0
 15 39  1  0
 16 40  1  0
 17 41  1  0
 19 42  1  6
 21 43  1  0
 22 44  1  0
 24 45  1  0
 25 46  1  0
 26 47  1  0
 27 48  1  0
M  END
>  <meeko>  (5) 
{"free_energy": -7.64, "intermolecular_energy": -8.83, "internal_energy": -2.38, "cluster_size": 17, "cluster_id": 2, "rank_in_cluster": 5}

$$$$

     RDKit          3D

 48 52  0  0  0  0  0  0  0  0999 V2000
  138.8640   76.0410  222.3020 O   0  0  0  0  0  0  0  0  0  0  0  0
  139.9310   76.9460  221.7520 S   0  0  0  0  0  0  0  0  0  0  0  0
  139.2810   78.2040  221.2430 O   0  0  0  0  0  0  0  0  0  0  0  0
  141.0510   77.3360  223.0920 C   0  0  0  0  0  0  0  0  0  0  0  0
  141.3200   78.8120  223.1830 C   0  0  0  0  0  0  0  0  0  0  0  0
  142.6350   79.2990  223.0880 C   0  0  0  0  0  0  0  0  0  0  0  0
  142.8870   80.6690  223.2010 C   0  0  0  0  0  0  0  0  0  0  0  0
  141.8330   81.5620  223.4070 C   0  0  0  0  0  0  0  0  0  0  0  0
  140.5220   81.0860  223.4980 C   0  0  0  0  0  0  0  0  0  0  0  0
  140.2640   79.7160  223.3860 C   0  0  0  0  0  0  0  0  0  0  0  0
  140.7700   76.1240  220.4540 N   0  0  0  0  0  0  0  0  0  0  0  0
  140.7180   74.6500  220.5960 C   0  0  0  0  0  0  0  0  0  0  0  0
  142.1020   74.1820  220.3780 C   0  0  0  0  0  0  0  0  0  0  0  0
  142.5660   72.8670  220.3050 C   0  0  0  0  0  0  0  0  0  0  0  0
  143.9390   72.6520  220.1040 C   0  0  0  0  0  0  0  0  0  0  0  0
  144.8180   73.7470  219.9920 C   0  0  0  0  0  0  0  0  0  0  0  0
  144.3230   75.0590  220.0750 C   0  0  0  0  0  0  0  0  0  0  0  0
  142.9500   75.2430  220.2580 C   0  0  0  0  0  0  0  0  0  0  0  0
  142.2000   76.5130  220.4110 C   0  0  1  0  0  0  0  0  0  0  0  0
  142.4470   77.4410  219.2550 C   0  0  0  0  0  0  0  0  0  0  0  0
  143.0000   77.0880  218.0270 C   0  0  0  0  0  0  0  0  0  0  0  0
  143.0830   78.1680  217.2170 N   0  0  0  0  0  0  0  0  0  0  0  0
  142.5890   79.2000  217.9210 C   0  0  0  0  0  0  0  0  0  0  0  0
  142.4670   80.5240  217.5020 C   0  0  0  0  0  0  0  0  0  0  0  0
  141.9160   81.4510  218.4040 C   0  0  0  0  0  0  0  0  0  0  0  0
  141.5030   81.0400  219.6900 C   0  0  0  0  0  0  0  0  0  0  0  0
  141.6380   79.6970  220.0870 C   0  0  0  0  0  0  0  0  0  0  0  0
  142.1900   78.7990  219.1700 C   0  0  0  0  0  0  0  0  0  0  0  0
  140.6056   76.9962  224.0387 H   0  0  0  0  0  0  0  0  0  0  0  0
  142.0061   76.8257  222.8988 H   0  0  0  0  0  0  0  0  0  0  0  0
  143.4682   78.5998  222.9242 H   0  0  0  0  0  0  0  0  0  0  0  0
  143.9181   81.0450  223.1275 H   0  0  0  0  0  0  0  0  0  0  0  0
  142.0346   82.6396  223.4976 H   0  0  0  0  0  0  0  0  0  0  0  0
  139.6920   81.7899  223.6579 H   0  0  0  0  0  0  0  0  0  0  0  0
  139.2309   79.3451  223.4571 H   0  0  0  0  0  0  0  0  0  0  0  0
  140.3729   74.3730  221.6031 H   0  0  0  0  0  0  0  0  0  0  0  0
  140.0169   74.1961  219.8802 H   0  0  0  0  0  0  0  0  0  0  0  0
  141.8720   72.0191  220.4027 H   0  0  0  0  0  0  0  0  0  0  0  0
  144.3291   71.6259  220.0338 H   0  0  0  0  0  0  0  0  0  0  0  0
  145.8936   73.5745  219.8393 H   0  0  0  0  0  0  0  0  0  0  0  0
  145.0008   75.9219  219.9977 H   0  0  0  0  0  0  0  0  0  0  0  0
  142.5161   77.0514  221.3167 H   0  0  0  0  0  0  0  0  0  0  0  0
  143.3240   76.0729  217.7538 H   0  0  0  0  0  0  0  0  0  0  0  0
  143.4580   78.1900  216.2420 H   0  0  0  0  0  0  0  0  0  0  0  0
  142.7915   80.8336  216.4976 H   0  0  0  0  0  0  0  0  0  0  0  0
  141.8059   82.5040  218.1057 H   0  0  0  0  0  0  0  0  0  0  0  0
  141.0727   81.7748  220.3863 H   0  0  0  0  0  0  0  0  0  0  0  0
  141.3195   79.3650  221.0862 H   0  0  0  0  0  0  0  0  0  0  0  0
  1  2  2  0
  2  3  2  0
  2  4  1  0
  4  5  1  0
  5  6  2  0
  6  7  1  0
  7  8  2  0
  8  9  1  0
  9 10  2  0
  2 11  1  0
 11 12  1  0
 12 13  1  0
 13 14  2  0
 14 15  1  0
 15 16  2  0
 16 17  1  0
 17 18  2  0
 18 19  1  0
 19 20  1  0
 20 21  2  0
 21 22  1  0
 22 23  1  0
 23 24  2  0
 24 25  1  0
 25 26  2  0
 26 27  1  0
 27 28  2  0
 10  5  1  0
 19 11  1  0
 28 20  1  0
 18 13  1  0
 28 23  1  0
  4 29  1  0
  4 30  1  0
  6 31  1  0
  7 32  1  0
  8 33  1  0
  9 34  1  0
 10 35  1  0
 12 36  1  0
 12 37  1  0
 14 38  1  0
 15 39  1  0
 16 40  1  0
 17 41  1  0
 19 42  1  1
 21 43  1  0
 22 44  1  0
 24 45  1  0
 25 46  1  0
 26 47  1  0
 27 48  1  0
M  END
>  <meeko>  (6) 
{"free_energy": -7.82, "intermolecular_energy": -9.01, "internal_energy": -2.08, "cluster_size": 17, "cluster_id": 2, "rank_in_cluster": 1}

$$$$

     RDKit          3D

 48 52  0  0  0  0  0  0  0  0999 V2000
  135.3130   68.5130  225.3490 O   0  0  0  0  0  0  0  0  0  0  0  0
  135.5920   69.3330  224.1200 S   0  0  0  0  0  0  0  0  0  0  0  0
  135.8680   68.4010  222.9720 O   0  0  0  0  0  0  0  0  0  0  0  0
  134.1310   70.3080  223.7790 C   0  0  0  0  0  0  0  0  0  0  0  0
  133.7820   71.2110  224.9300 C   0  0  0  0  0  0  0  0  0  0  0  0
  133.8720   72.6060  224.7880 C   0  0  0  0  0  0  0  0  0  0  0  0
  133.5750   73.4440  225.8660 C   0  0  0  0  0  0  0  0  0  0  0  0
  133.1860   72.8980  227.0920 C   0  0  0  0  0  0  0  0  0  0  0  0
  133.0910   71.5110  227.2400 C   0  0  0  0  0  0  0  0  0  0  0  0
  133.3870   70.6690  226.1650 C   0  0  0  0  0  0  0  0  0  0  0  0
  136.9760   70.3620  224.4170 N   0  0  0  0  0  0  0  0  0  0  0  0
  136.8860   71.6500  223.6900 C   0  0  0  0  0  0  0  0  0  0  0  0
  138.2050   71.8370  223.0510 C   0  0  0  0  0  0  0  0  0  0  0  0
  138.6670   72.9440  222.3360 C   0  0  0  0  0  0  0  0  0  0  0  0
  139.9630   72.8990  221.7990 C   0  0  0  0  0  0  0  0  0  0  0  0
  140.7650   71.7550  221.9760 C   0  0  0  0  0  0  0  0  0  0  0  0
  140.2710   70.6540  222.6960 C   0  0  0  0  0  0  0  0  0  0  0  0
  138.9840   70.7330  223.2340 C   0  0  0  0  0  0  0  0  0  0  0  0
  138.2340   69.7030  223.9920 C   0  0  1  0  0  0  0  0  0  0  0  0
  139.0040   69.2370  225.1970 C   0  0  0  0  0  0  0  0  0  0  0  0
  139.1300   67.9180  225.6260 C   0  0  0  0  0  0  0  0  0  0  0  0
  139.8880   67.8550  226.7440 N   0  0  0  0  0  0  0  0  0  0  0  0
  140.2420   69.1200  227.0260 C   0  0  0  0  0  0  0  0  0  0  0  0
  141.0290   69.5580  228.0910 C   0  0  0  0  0  0  0  0  0  0  0  0
  141.2810   70.9370  228.1990 C   0  0  0  0  0  0  0  0  0  0  0  0
  140.7480   71.8390  227.2510 C   0  0  0  0  0  0  0  0  0  0  0  0
  139.9580   71.3690  226.1870 C   0  0  0  0  0  0  0  0  0  0  0  0
  139.7230   69.9950  226.1050 C   0  0  0  0  0  0  0  0  0  0  0  0
  134.3140   70.9237  222.8860 H   0  0  0  0  0  0  0  0  0  0  0  0
  133.2893   69.6184  223.6175 H   0  0  0  0  0  0  0  0  0  0  0  0
  134.1774   73.0401  223.8245 H   0  0  0  0  0  0  0  0  0  0  0  0
  133.6475   74.5354  225.7493 H   0  0  0  0  0  0  0  0  0  0  0  0
  132.9547   73.5591  227.9402 H   0  0  0  0  0  0  0  0  0  0  0  0
  132.7826   71.0818  228.2047 H   0  0  0  0  0  0  0  0  0  0  0  0
  133.3106   69.5783  226.2857 H   0  0  0  0  0  0  0  0  0  0  0  0
  136.0930   71.6070  222.9289 H   0  0  0  0  0  0  0  0  0  0  0  0
  136.6384   72.4826  224.3649 H   0  0  0  0  0  0  0  0  0  0  0  0
  138.0304   73.8302  222.1970 H   0  0  0  0  0  0  0  0  0  0  0  0
  140.3537   73.7606  221.2377 H   0  0  0  0  0  0  0  0  0  0  0  0
  141.7788   71.7233  221.5504 H   0  0  0  0  0  0  0  0  0  0  0  0
  140.8835   69.7506  222.8329 H   0  0  0  0  0  0  0  0  0  0  0  0
  138.0523   68.8122  223.3728 H   0  0  0  0  0  0  0  0  0  0  0  0
  138.6766   67.0496  225.1257 H   0  0  0  0  0  0  0  0  0  0  0  0
  140.1440   66.9940  227.2780 H   0  0  0  0  0  0  0  0  0  0  0  0
  141.4395   68.8471  228.8232 H   0  0  0  0  0  0  0  0  0  0  0  0
  141.8974   71.3163  229.0273 H   0  0  0  0  0  0  0  0  0  0  0  0
  140.9524   72.9157  227.3459 H   0  0  0  0  0  0  0  0  0  0  0  0
  139.5383   72.0618  225.4427 H   0  0  0  0  0  0  0  0  0  0  0  0
  1  2  2  0
  2  3  2  0
  2  4  1  0
  4  5  1  0
  5  6  2  0
  6  7  1  0
  7  8  2  0
  8  9  1  0
  9 10  2  0
  2 11  1  0
 11 12  1  0
 12 13  1  0
 13 14  2  0
 14 15  1  0
 15 16  2  0
 16 17  1  0
 17 18  2  0
 18 19  1  0
 19 20  1  0
 20 21  2  0
 21 22  1  0
 22 23  1  0
 23 24  2  0
 24 25  1  0
 25 26  2  0
 26 27  1  0
 27 28  2  0
 10  5  1  0
 19 11  1  0
 28 20  1  0
 18 13  1  0
 28 23  1  0
  4 29  1  0
  4 30  1  0
  6 31  1  0
  7 32  1  0
  8 33  1  0
  9 34  1  0
 10 35  1  0
 12 36  1  0
 12 37  1  0
 14 38  1  0
 15 39  1  0
 16 40  1  0
 17 41  1  0
 19 42  1  6
 21 43  1  0
 22 44  1  0
 24 45  1  0
 25 46  1  0
 26 47  1  0
 27 48  1  0
M  END
>  <meeko>  (7) 
{"free_energy": -8.28, "intermolecular_energy": -9.47, "internal_energy": -1.76, "cluster_size": 3, "cluster_id": 1, "rank_in_cluster": 2}

$$$$

     RDKit          3D

 48 52  0  0  0  0  0  0  0  0999 V2000
  135.3410   68.5050  225.3230 O   0  0  0  0  0  0  0  0  0  0  0  0
  135.6080   69.3410  224.1020 S   0  0  0  0  0  0  0  0  0  0  0  0
  135.8780   68.4250  222.9400 O   0  0  0  0  0  0  0  0  0  0  0  0
  134.1420   70.3170  223.7850 C   0  0  0  0  0  0  0  0  0  0  0  0
  133.8270   71.2370  224.9320 C   0  0  0  0  0  0  0  0  0  0  0  0
  133.5190   70.7110  226.1980 C   0  0  0  0  0  0  0  0  0  0  0  0
  133.1980   71.5650  227.2560 C   0  0  0  0  0  0  0  0  0  0  0  0
  133.1830   72.9480  227.0610 C   0  0  0  0  0  0  0  0  0  0  0  0
  133.4920   73.4800  225.8060 C   0  0  0  0  0  0  0  0  0  0  0  0
  133.8140   72.6300  224.7440 C   0  0  0  0  0  0  0  0  0  0  0  0
  136.9920   70.3700  224.4020 N   0  0  0  0  0  0  0  0  0  0  0  0
  136.9020   71.6600  223.6770 C   0  0  0  0  0  0  0  0  0  0  0  0
  138.2210   71.8480  223.0390 C   0  0  0  0  0  0  0  0  0  0  0  0
  138.6840   72.9560  222.3260 C   0  0  0  0  0  0  0  0  0  0  0  0
  139.9800   72.9130  221.7890 C   0  0  0  0  0  0  0  0  0  0  0  0
  140.7810   71.7680  221.9650 C   0  0  0  0  0  0  0  0  0  0  0  0
  140.2870   70.6660  222.6820 C   0  0  0  0  0  0  0  0  0  0  0  0
  139.0000   70.7440  223.2200 C   0  0  0  0  0  0  0  0  0  0  0  0
  138.2510   69.7120  223.9760 C   0  0  1  0  0  0  0  0  0  0  0  0
  139.0200   69.2440  225.1800 C   0  0  0  0  0  0  0  0  0  0  0  0
  139.1530   67.9240  225.6020 C   0  0  0  0  0  0  0  0  0  0  0  0
  139.9090   67.8590  226.7220 N   0  0  0  0  0  0  0  0  0  0  0  0
  140.2540   69.1250  227.0120 C   0  0  0  0  0  0  0  0  0  0  0  0
  141.0350   69.5610  228.0810 C   0  0  0  0  0  0  0  0  0  0  0  0
  141.2780   70.9410  228.1980 C   0  0  0  0  0  0  0  0  0  0  0  0
  140.7420   71.8450  227.2540 C   0  0  0  0  0  0  0  0  0  0  0  0
  139.9580   71.3760  226.1850 C   0  0  0  0  0  0  0  0  0  0  0  0
  139.7320   70.0010  226.0950 C   0  0  0  0  0  0  0  0  0  0  0  0
  134.3040   70.9195  222.8790 H   0  0  0  0  0  0  0  0  0  0  0  0
  133.2938   69.6289  223.6547 H   0  0  0  0  0  0  0  0  0  0  0  0
  133.5307   69.6226  226.3567 H   0  0  0  0  0  0  0  0  0  0  0  0
  132.9566   71.1474  228.2446 H   0  0  0  0  0  0  0  0  0  0  0  0
  132.9280   73.6184  227.8950 H   0  0  0  0  0  0  0  0  0  0  0  0
  133.4818   74.5694  225.6537 H   0  0  0  0  0  0  0  0  0  0  0  0
  134.0580   73.0525  223.7581 H   0  0  0  0  0  0  0  0  0  0  0  0
  136.1092   71.6184  222.9156 H   0  0  0  0  0  0  0  0  0  0  0  0
  136.6540   72.4914  224.3533 H   0  0  0  0  0  0  0  0  0  0  0  0
  138.0473   73.8424  222.1884 H   0  0  0  0  0  0  0  0  0  0  0  0
  140.3710   73.7755  221.2294 H   0  0  0  0  0  0  0  0  0  0  0  0
  141.7952   71.7368  221.5402 H   0  0  0  0  0  0  0  0  0  0  0  0
  140.8994   69.7622  222.8169 H   0  0  0  0  0  0  0  0  0  0  0  0
  138.0707   68.8221  223.3550 H   0  0  0  0  0  0  0  0  0  0  0  0
  138.7061   67.0557  225.0958 H   0  0  0  0  0  0  0  0  0  0  0  0
  140.1680   66.9960  227.2510 H   0  0  0  0  0  0  0  0  0  0  0  0
  141.4481   68.8482  228.8099 H   0  0  0  0  0  0  0  0  0  0  0  0
  141.8897   71.3193  229.0303 H   0  0  0  0  0  0  0  0  0  0  0  0
  140.9391   72.9224  227.3558 H   0  0  0  0  0  0  0  0  0  0  0  0
  139.5362   72.0702  225.4433 H   0  0  0  0  0  0  0  0  0  0  0  0
  1  2  2  0
  2  3  2  0
  2  4  1  0
  4  5  1  0
  5  6  2  0
  6  7  1  0
  7  8  2  0
  8  9  1  0
  9 10  2  0
  2 11  1  0
 11 12  1  0
 12 13  1  0
 13 14  2  0
 14 15  1  0
 15 16  2  0
 16 17  1  0
 17 18  2  0
 18 19  1  0
 19 20  1  0
 20 21  2  0
 21 22  1  0
 22 23  1  0
 23 24  2  0
 24 25  1  0
 25 26  2  0
 26 27  1  0
 27 28  2  0
 10  5  1  0
 19 11  1  0
 28 20  1  0
 18 13  1  0
 28 23  1  0
  4 29  1  0
  4 30  1  0
  6 31  1  0
  7 32  1  0
  8 33  1  0
  9 34  1  0
 10 35  1  0
 12 36  1  0
 12 37  1  0
 14 38  1  0
 15 39  1  0
 16 40  1  0
 17 41  1  0
 19 42  1  6
 21 43  1  0
 22 44  1  0
 24 45  1  0
 25 46  1  0
 26 47  1  0
 27 48  1  0
M  END
>  <meeko>  (8) 
{"free_energy": -8.28, "intermolecular_energy": -9.47, "internal_energy": -1.77, "cluster_size": 3, "cluster_id": 1, "rank_in_cluster": 3}

$$$$

     RDKit          3D

 48 52  0  0  0  0  0  0  0  0999 V2000
  140.1440   74.9350  222.2670 O   0  0  0  0  0  0  0  0  0  0  0  0
  139.7490   76.2680  221.6930 S   0  0  0  0  0  0  0  0  0  0  0  0
  139.2720   76.0620  220.2820 O   0  0  0  0  0  0  0  0  0  0  0  0
  138.4200   76.9160  222.7010 C   0  0  0  0  0  0  0  0  0  0  0  0
  138.1980   78.3820  222.4540 C   0  0  0  0  0  0  0  0  0  0  0  0
  137.7620   78.8300  221.1960 C   0  0  0  0  0  0  0  0  0  0  0  0
  137.5830   80.1960  220.9580 C   0  0  0  0  0  0  0  0  0  0  0  0
  137.8350   81.1230  221.9720 C   0  0  0  0  0  0  0  0  0  0  0  0
  138.2650   80.6850  223.2280 C   0  0  0  0  0  0  0  0  0  0  0  0
  138.4450   79.3200  223.4710 C   0  0  0  0  0  0  0  0  0  0  0  0
  141.1330   77.3380  221.7200 N   0  0  0  0  0  0  0  0  0  0  0  0
  141.4030   77.8770  223.0740 C   0  0  0  0  0  0  0  0  0  0  0  0
  141.6030   79.3290  222.8900 C   0  0  0  0  0  0  0  0  0  0  0  0
  141.9850   80.2730  223.8450 C   0  0  0  0  0  0  0  0  0  0  0  0
  142.1030   81.6150  223.4480 C   0  0  0  0  0  0  0  0  0  0  0  0
  141.8290   81.9870  222.1170 C   0  0  0  0  0  0  0  0  0  0  0  0
  141.4410   81.0150  221.1810 C   0  0  0  0  0  0  0  0  0  0  0  0
  141.3490   79.6850  221.5990 C   0  0  0  0  0  0  0  0  0  0  0  0
  140.9310   78.4970  220.8170 C   0  0  1  0  0  0  0  0  0  0  0  0
  141.7630   78.3340  219.5750 C   0  0  0  0  0  0  0  0  0  0  0  0
  142.1130   79.3480  218.6870 C   0  0  0  0  0  0  0  0  0  0  0  0
  142.8640   78.8540  217.6770 N   0  0  0  0  0  0  0  0  0  0  0  0
  142.9910   77.5380  217.9170 C   0  0  0  0  0  0  0  0  0  0  0  0
  143.6840   76.6040  217.1480 C   0  0  0  0  0  0  0  0  0  0  0  0
  143.6920   75.2680  217.5850 C   0  0  0  0  0  0  0  0  0  0  0  0
  143.0170   74.8980  218.7680 C   0  0  0  0  0  0  0  0  0  0  0  0
  142.3260   75.8610  219.5260 C   0  0  0  0  0  0  0  0  0  0  0  0
  142.3340   77.1800  219.0670 C   0  0  0  0  0  0  0  0  0  0  0  0
  137.4946   76.3706  222.4642 H   0  0  0  0  0  0  0  0  0  0  0  0
  138.6960   76.7845  223.7577 H   0  0  0  0  0  0  0  0  0  0  0  0
  137.5607   78.1033  220.3951 H   0  0  0  0  0  0  0  0  0  0  0  0
  137.2431   80.5413  219.9705 H   0  0  0  0  0  0  0  0  0  0  0  0
  137.6952   82.1975  221.7823 H   0  0  0  0  0  0  0  0  0  0  0  0
  138.4620   81.4155  224.0264 H   0  0  0  0  0  0  0  0  0  0  0  0
  138.7811   78.9791  224.4614 H   0  0  0  0  0  0  0  0  0  0  0  0
  140.5481   77.6884  223.7401 H   0  0  0  0  0  0  0  0  0  0  0  0
  142.2806   77.4001  223.5348 H   0  0  0  0  0  0  0  0  0  0  0  0
  142.1887   79.9729  224.8835 H   0  0  0  0  0  0  0  0  0  0  0  0
  142.4103   82.3779  224.1784 H   0  0  0  0  0  0  0  0  0  0  0  0
  141.9191   83.0397  221.8109 H   0  0  0  0  0  0  0  0  0  0  0  0
  141.2144   81.2945  220.1415 H   0  0  0  0  0  0  0  0  0  0  0  0
  139.8871   78.5921  220.4834 H   0  0  0  0  0  0  0  0  0  0  0  0
  141.8196   80.4029  218.7925 H   0  0  0  0  0  0  0  0  0  0  0  0
  143.2620   79.3910  216.8740 H   0  0  0  0  0  0  0  0  0  0  0  0
  144.2080   76.9032  216.2283 H   0  0  0  0  0  0  0  0  0  0  0  0
  144.2281   74.5055  217.0009 H   0  0  0  0  0  0  0  0  0  0  0  0
  143.0313   73.8493  219.0997 H   0  0  0  0  0  0  0  0  0  0  0  0
  141.7969   75.5842  220.4498 H   0  0  0  0  0  0  0  0  0  0  0  0
  1  2  2  0
  2  3  2  0
  2  4  1  0
  4  5  1  0
  5  6  2  0
  6  7  1  0
  7  8  2  0
  8  9  1  0
  9 10  2  0
  2 11  1  0
 11 12  1  0
 12 13  1  0
 13 14  2  0
 14 15  1  0
 15 16  2  0
 16 17  1  0
 17 18  2  0
 18 19  1  0
 19 20  1  0
 20 21  2  0
 21 22  1  0
 22 23  1  0
 23 24  2  0
 24 25  1  0
 25 26  2  0
 26 27  1  0
 27 28  2  0
 10  5  1  0
 19 11  1  0
 28 20  1  0
 18 13  1  0
 28 23  1  0
  4 29  1  0
  4 30  1  0
  6 31  1  0
  7 32  1  0
  8 33  1  0
  9 34  1  0
 10 35  1  0
 12 36  1  0
 12 37  1  0
 14 38  1  0
 15 39  1  0
 16 40  1  0
 17 41  1  0
 19 42  1  6
 21 43  1  0
 22 44  1  0
 24 45  1  0
 25 46  1  0
 26 47  1  0
 27 48  1  0
M  END
>  <meeko>  (9) 
{"free_energy": -7.63, "intermolecular_energy": -8.83, "internal_energy": -2.37, "cluster_size": 17, "cluster_id": 2, "rank_in_cluster": 10}

$$$$

     RDKit          3D

 48 52  0  0  0  0  0  0  0  0999 V2000
  140.1460   74.9360  222.2730 O   0  0  0  0  0  0  0  0  0  0  0  0
  139.7510   76.2720  221.7050 S   0  0  0  0  0  0  0  0  0  0  0  0
  139.2720   76.0720  220.2930 O   0  0  0  0  0  0  0  0  0  0  0  0
  138.4240   76.9160  222.7170 C   0  0  0  0  0  0  0  0  0  0  0  0
  138.1940   78.3810  222.4680 C   0  0  0  0  0  0  0  0  0  0  0  0
  137.7540   78.8240  221.2090 C   0  0  0  0  0  0  0  0  0  0  0  0
  137.5670   80.1870  220.9680 C   0  0  0  0  0  0  0  0  0  0  0  0
  137.8160   81.1180  221.9800 C   0  0  0  0  0  0  0  0  0  0  0  0
  138.2500   80.6850  223.2360 C   0  0  0  0  0  0  0  0  0  0  0  0
  138.4380   79.3220  223.4820 C   0  0  0  0  0  0  0  0  0  0  0  0
  141.1360   77.3410  221.7350 N   0  0  0  0  0  0  0  0  0  0  0  0
  141.4010   77.8820  223.0890 C   0  0  0  0  0  0  0  0  0  0  0  0
  141.6040   79.3330  222.9030 C   0  0  0  0  0  0  0  0  0  0  0  0
  141.9830   80.2790  223.8570 C   0  0  0  0  0  0  0  0  0  0  0  0
  142.1030   81.6210  223.4590 C   0  0  0  0  0  0  0  0  0  0  0  0
  141.8330   81.9900  222.1270 C   0  0  0  0  0  0  0  0  0  0  0  0
  141.4480   81.0170  221.1900 C   0  0  0  0  0  0  0  0  0  0  0  0
  141.3540   79.6880  221.6100 C   0  0  0  0  0  0  0  0  0  0  0  0
  140.9370   78.4990  220.8290 C   0  0  1  0  0  0  0  0  0  0  0  0
  141.7730   78.3330  219.5900 C   0  0  0  0  0  0  0  0  0  0  0  0
  142.1360   79.3480  218.7080 C   0  0  0  0  0  0  0  0  0  0  0  0
  142.8870   78.8510  217.6990 N   0  0  0  0  0  0  0  0  0  0  0  0
  143.0020   77.5330  217.9350 C   0  0  0  0  0  0  0  0  0  0  0  0
  143.6890   76.5960  217.1640 C   0  0  0  0  0  0  0  0  0  0  0  0
  143.6850   75.2580  217.5960 C   0  0  0  0  0  0  0  0  0  0  0  0
  143.0010   74.8890  218.7760 C   0  0  0  0  0  0  0  0  0  0  0  0
  142.3150   75.8560  219.5340 C   0  0  0  0  0  0  0  0  0  0  0  0
  142.3360   77.1760  219.0800 C   0  0  0  0  0  0  0  0  0  0  0  0
  137.5001   76.3659  222.4853 H   0  0  0  0  0  0  0  0  0  0  0  0
  138.7054   76.7881  223.7727 H   0  0  0  0  0  0  0  0  0  0  0  0
  137.5560   78.0943  220.4100 H   0  0  0  0  0  0  0  0  0  0  0  0
  137.2233   80.5281  219.9803 H   0  0  0  0  0  0  0  0  0  0  0  0
  137.6704   82.1913  221.7881 H   0  0  0  0  0  0  0  0  0  0  0  0
  138.4440   81.4184  224.0325 H   0  0  0  0  0  0  0  0  0  0  0  0
  138.7780   78.9853  224.4724 H   0  0  0  0  0  0  0  0  0  0  0  0
  140.5430   77.6960  223.7517 H   0  0  0  0  0  0  0  0  0  0  0  0
  142.2758   77.4045  223.5546 H   0  0  0  0  0  0  0  0  0  0  0  0
  142.1831   79.9805  224.8966 H   0  0  0  0  0  0  0  0  0  0  0  0
  142.4084   82.3849  224.1891 H   0  0  0  0  0  0  0  0  0  0  0  0
  141.9238   83.0423  221.8198 H   0  0  0  0  0  0  0  0  0  0  0  0
  141.2256   81.2951  220.1492 H   0  0  0  0  0  0  0  0  0  0  0  0
  139.8941   78.5943  220.4923 H   0  0  0  0  0  0  0  0  0  0  0  0
  141.8519   80.4051  218.8168 H   0  0  0  0  0  0  0  0  0  0  0  0
  143.2920   79.3870  216.9000 H   0  0  0  0  0  0  0  0  0  0  0  0
  144.2175   76.8943  216.2466 H   0  0  0  0  0  0  0  0  0  0  0  0
  144.2178   74.4935  217.0115 H   0  0  0  0  0  0  0  0  0  0  0  0
  143.0048   73.8391  219.1042 H   0  0  0  0  0  0  0  0  0  0  0  0
  141.7795   75.5807  220.4546 H   0  0  0  0  0  0  0  0  0  0  0  0
  1  2  2  0
  2  3  2  0
  2  4  1  0
  4  5  1  0
  5  6  2  0
  6  7  1  0
  7  8  2  0
  8  9  1  0
  9 10  2  0
  2 11  1  0
 11 12  1  0
 12 13  1  0
 13 14  2  0
 14 15  1  0
 15 16  2  0
 16 17  1  0
 17 18  2  0
 18 19  1  0
 19 20  1  0
 20 21  2  0
 21 22  1  0
 22 23  1  0
 23 24  2  0
 24 25  1  0
 25 26  2  0
 26 27  1  0
 27 28  2  0
 10  5  1  0
 19 11  1  0
 28 20  1  0
 18 13  1  0
 28 23  1  0
  4 29  1  0
  4 30  1  0
  6 31  1  0
  7 32  1  0
  8 33  1  0
  9 34  1  0
 10 35  1  0
 12 36  1  0
 12 37  1  0
 14 38  1  0
 15 39  1  0
 16 40  1  0
 17 41  1  0
 19 42  1  6
 21 43  1  0
 22 44  1  0
 24 45  1  0
 25 46  1  0
 26 47  1  0
 27 48  1  0
M  END
>  <meeko>  (10) 
{"free_energy": -7.63, "intermolecular_energy": -8.83, "internal_energy": -2.38, "cluster_size": 17, "cluster_id": 2, "rank_in_cluster": 11}

$$$$

     RDKit          3D

 48 52  0  0  0  0  0  0  0  0999 V2000
  138.8560   76.0680  222.3020 O   0  0  0  0  0  0  0  0  0  0  0  0
  139.9200   76.9770  221.7540 S   0  0  0  0  0  0  0  0  0  0  0  0
  139.2680   78.2360  221.2520 O   0  0  0  0  0  0  0  0  0  0  0  0
  141.0430   77.3610  223.0930 C   0  0  0  0  0  0  0  0  0  0  0  0
  141.3180   78.8360  223.1850 C   0  0  0  0  0  0  0  0  0  0  0  0
  142.6330   79.3200  223.0790 C   0  0  0  0  0  0  0  0  0  0  0  0
  142.8910   80.6880  223.1930 C   0  0  0  0  0  0  0  0  0  0  0  0
  141.8420   81.5840  223.4110 C   0  0  0  0  0  0  0  0  0  0  0  0
  140.5300   81.1120  223.5130 C   0  0  0  0  0  0  0  0  0  0  0  0
  140.2670   79.7440  223.4000 C   0  0  0  0  0  0  0  0  0  0  0  0
  140.7570   76.1620  220.4510 N   0  0  0  0  0  0  0  0  0  0  0  0
  140.7030   74.6870  220.5820 C   0  0  0  0  0  0  0  0  0  0  0  0
  142.0870   74.2190  220.3610 C   0  0  0  0  0  0  0  0  0  0  0  0
  142.5490   72.9040  220.2790 C   0  0  0  0  0  0  0  0  0  0  0  0
  143.9220   72.6890  220.0770 C   0  0  0  0  0  0  0  0  0  0  0  0
  144.8020   73.7830  219.9700 C   0  0  0  0  0  0  0  0  0  0  0  0
  144.3090   75.0950  220.0630 C   0  0  0  0  0  0  0  0  0  0  0  0
  142.9360   75.2800  220.2470 C   0  0  0  0  0  0  0  0  0  0  0  0
  142.1880   76.5490  220.4090 C   0  0  1  0  0  0  0  0  0  0  0  0
  142.4360   77.4850  219.2580 C   0  0  0  0  0  0  0  0  0  0  0  0
  142.9950   77.1400  218.0310 C   0  0  0  0  0  0  0  0  0  0  0  0
  143.0770   78.2250  217.2270 N   0  0  0  0  0  0  0  0  0  0  0  0
  142.5760   79.2510  217.9350 C   0  0  0  0  0  0  0  0  0  0  0  0
  142.4500   80.5770  217.5230 C   0  0  0  0  0  0  0  0  0  0  0  0
  141.8920   81.4970  218.4270 C   0  0  0  0  0  0  0  0  0  0  0  0
  141.4760   81.0780  219.7100 C   0  0  0  0  0  0  0  0  0  0  0  0
  141.6150   79.7330  220.1000 C   0  0  0  0  0  0  0  0  0  0  0  0
  142.1730   78.8420  219.1810 C   0  0  0  0  0  0  0  0  0  0  0  0
  140.5973   77.0221  224.0398 H   0  0  0  0  0  0  0  0  0  0  0  0
  141.9958   76.8469  222.8984 H   0  0  0  0  0  0  0  0  0  0  0  0
  143.4625   78.6187  222.9055 H   0  0  0  0  0  0  0  0  0  0  0  0
  143.9227   81.0605  223.1109 H   0  0  0  0  0  0  0  0  0  0  0  0
  142.0480   82.6607  223.5024 H   0  0  0  0  0  0  0  0  0  0  0  0
  139.7037   81.8181  223.6824 H   0  0  0  0  0  0  0  0  0  0  0  0
  139.2333   79.3765  223.4796 H   0  0  0  0  0  0  0  0  0  0  0  0
  140.3572   74.4029  221.5868 H   0  0  0  0  0  0  0  0  0  0  0  0
  140.0015   74.2393  219.8626 H   0  0  0  0  0  0  0  0  0  0  0  0
  141.8539   72.0564  220.3705 H   0  0  0  0  0  0  0  0  0  0  0  0
  144.3112   71.6629  220.0021 H   0  0  0  0  0  0  0  0  0  0  0  0
  145.8770   73.6100  219.8134 H   0  0  0  0  0  0  0  0  0  0  0  0
  144.9883   75.9574  219.9926 H   0  0  0  0  0  0  0  0  0  0  0  0
  142.5053   77.0808  221.3181 H   0  0  0  0  0  0  0  0  0  0  0  0
  143.3239   76.1275  217.7539 H   0  0  0  0  0  0  0  0  0  0  0  0
  143.4550   78.2540  216.2540 H   0  0  0  0  0  0  0  0  0  0  0  0
  142.7772   80.8932  216.5215 H   0  0  0  0  0  0  0  0  0  0  0  0
  141.7784   82.5509  218.1332 H   0  0  0  0  0  0  0  0  0  0  0  0
  141.0406   81.8075  220.4088 H   0  0  0  0  0  0  0  0  0  0  0  0
  141.2945   79.3946  221.0964 H   0  0  0  0  0  0  0  0  0  0  0  0
  1  2  2  0
  2  3  2  0
  2  4  1  0
  4  5  1  0
  5  6  2  0
  6  7  1  0
  7  8  2  0
  8  9  1  0
  9 10  2  0
  2 11  1  0
 11 12  1  0
 12 13  1  0
 13 14  2  0
 14 15  1  0
 15 16  2  0
 16 17  1  0
 17 18  2  0
 18 19  1  0
 19 20  1  0
 20 21  2  0
 21 22  1  0
 22 23  1  0
 23 24  2  0
 24 25  1  0
 25 26  2  0
 26 27  1  0
 27 28  2  0
 10  5  1  0
 19 11  1  0
 28 20  1  0
 18 13  1  0
 28 23  1  0
  4 29  1  0
  4 30  1  0
  6 31  1  0
  7 32  1  0
  8 33  1  0
  9 34  1  0
 10 35  1  0
 12 36  1  0
 12 37  1  0
 14 38  1  0
 15 39  1  0
 16 40  1  0
 17 41  1  0
 19 42  1  1
 21 43  1  0
 22 44  1  0
 24 45  1  0
 25 46  1  0
 26 47  1  0
 27 48  1  0
M  END
>  <meeko>  (11) 
{"free_energy": -7.81, "intermolecular_energy": -9.01, "internal_energy": -2.09, "cluster_size": 17, "cluster_id": 2, "rank_in_cluster": 2}

$$$$

     RDKit          3D

 48 52  0  0  0  0  0  0  0  0999 V2000
  139.9450   74.7570  222.2300 O   0  0  0  0  0  0  0  0  0  0  0  0
  139.6630   76.1290  221.6840 S   0  0  0  0  0  0  0  0  0  0  0  0
  139.1930   75.9960  220.2620 O   0  0  0  0  0  0  0  0  0  0  0  0
  138.3740   76.8550  222.6900 C   0  0  0  0  0  0  0  0  0  0  0  0
  138.2650   78.3380  222.4720 C   0  0  0  0  0  0  0  0  0  0  0  0
  137.8760   78.8430  221.2200 C   0  0  0  0  0  0  0  0  0  0  0  0
  137.8030   80.2230  221.0090 C   0  0  0  0  0  0  0  0  0  0  0  0
  138.1140   81.1080  222.0440 C   0  0  0  0  0  0  0  0  0  0  0  0
  138.4980   80.6140  223.2940 C   0  0  0  0  0  0  0  0  0  0  0  0
  138.5730   79.2350  223.5100 C   0  0  0  0  0  0  0  0  0  0  0  0
  141.1260   77.0880  221.7560 N   0  0  0  0  0  0  0  0  0  0  0  0
  141.4360   77.5390  223.1330 C   0  0  0  0  0  0  0  0  0  0  0  0
  141.7480   78.9790  223.0170 C   0  0  0  0  0  0  0  0  0  0  0  0
  142.2020   79.8450  224.0130 C   0  0  0  0  0  0  0  0  0  0  0  0
  142.4230   81.1910  223.6800 C   0  0  0  0  0  0  0  0  0  0  0  0
  142.1780   81.6450  222.3690 C   0  0  0  0  0  0  0  0  0  0  0  0
  141.7170   80.7510  221.3890 C   0  0  0  0  0  0  0  0  0  0  0  0
  141.5230   79.4140  221.7450 C   0  0  0  0  0  0  0  0  0  0  0  0
  141.0140   78.3000  220.9090 C   0  0  1  0  0  0  0  0  0  0  0  0
  141.8310   78.1320  219.6580 C   0  0  0  0  0  0  0  0  0  0  0  0
  142.1860   79.1460  218.7720 C   0  0  0  0  0  0  0  0  0  0  0  0
  142.9200   78.6470  217.7520 N   0  0  0  0  0  0  0  0  0  0  0  0
  143.0310   77.3280  217.9840 C   0  0  0  0  0  0  0  0  0  0  0  0
  143.7020   76.3890  217.2020 C   0  0  0  0  0  0  0  0  0  0  0  0
  143.6960   75.0500  217.6320 C   0  0  0  0  0  0  0  0  0  0  0  0
  143.0270   74.6830  218.8200 C   0  0  0  0  0  0  0  0  0  0  0  0
  142.3580   75.6510  219.5900 C   0  0  0  0  0  0  0  0  0  0  0  0
  142.3800   76.9730  219.1380 C   0  0  0  0  0  0  0  0  0  0  0  0
  137.4134   76.3855  222.4314 H   0  0  0  0  0  0  0  0  0  0  0  0
  138.6265   76.6822  223.7466 H   0  0  0  0  0  0  0  0  0  0  0  0
  137.6280   78.1499  220.4027 H   0  0  0  0  0  0  0  0  0  0  0  0
  137.5000   80.6127  220.0260 H   0  0  0  0  0  0  0  0  0  0  0  0
  138.0567   82.1935  221.8754 H   0  0  0  0  0  0  0  0  0  0  0  0
  138.7415   81.3115  224.1090 H   0  0  0  0  0  0  0  0  0  0  0  0
  138.8740   78.8502  224.4955 H   0  0  0  0  0  0  0  0  0  0  0  0
  140.5687   77.3856  223.7920 H   0  0  0  0  0  0  0  0  0  0  0  0
  142.2736   76.9741  223.5682 H   0  0  0  0  0  0  0  0  0  0  0  0
  142.3825   79.4814  225.0353 H   0  0  0  0  0  0  0  0  0  0  0  0
  142.7883   81.8926  224.4444 H   0  0  0  0  0  0  0  0  0  0  0  0
  142.3480   82.7011  222.1127 H   0  0  0  0  0  0  0  0  0  0  0  0
  141.5133   81.0956  220.3644 H   0  0  0  0  0  0  0  0  0  0  0  0
  139.9807   78.4910  220.5837 H   0  0  0  0  0  0  0  0  0  0  0  0
  141.9083   80.2043  218.8860 H   0  0  0  0  0  0  0  0  0  0  0  0
  143.3170   79.1820  216.9480 H   0  0  0  0  0  0  0  0  0  0  0  0
  144.2197   76.6860  216.2780 H   0  0  0  0  0  0  0  0  0  0  0  0
  144.2160   74.2834  217.0388 H   0  0  0  0  0  0  0  0  0  0  0  0
  143.0291   73.6323  219.1456 H   0  0  0  0  0  0  0  0  0  0  0  0
  141.8345   75.3765  220.5177 H   0  0  0  0  0  0  0  0  0  0  0  0
  1  2  2  0
  2  3  2  0
  2  4  1  0
  4  5  1  0
  5  6  2  0
  6  7  1  0
  7  8  2  0
  8  9  1  0
  9 10  2  0
  2 11  1  0
 11 12  1  0
 12 13  1  0
 13 14  2  0
 14 15  1  0
 15 16  2  0
 16 17  1  0
 17 18  2  0
 18 19  1  0
 19 20  1  0
 20 21  2  0
 21 22  1  0
 22 23  1  0
 23 24  2  0
 24 25  1  0
 25 26  2  0
 26 27  1  0
 27 28  2  0
 10  5  1  0
 19 11  1  0
 28 20  1  0
 18 13  1  0
 28 23  1  0
  4 29  1  0
  4 30  1  0
  6 31  1  0
  7 32  1  0
  8 33  1  0
  9 34  1  0
 10 35  1  0
 12 36  1  0
 12 37  1  0
 14 38  1  0
 15 39  1  0
 16 40  1  0
 17 41  1  0
 19 42  1  6
 21 43  1  0
 22 44  1  0
 24 45  1  0
 25 46  1  0
 26 47  1  0
 27 48  1  0
M  END
>  <meeko>  (12) 
{"free_energy": -7.61, "intermolecular_energy": -8.81, "internal_energy": -2.39, "cluster_size": 17, "cluster_id": 2, "rank_in_cluster": 16}

$$$$

     RDKit          3D

 48 52  0  0  0  0  0  0  0  0999 V2000
  139.9290   74.7560  222.2220 O   0  0  0  0  0  0  0  0  0  0  0  0
  139.6500   76.1290  221.6780 S   0  0  0  0  0  0  0  0  0  0  0  0
  139.1780   75.9980  220.2560 O   0  0  0  0  0  0  0  0  0  0  0  0
  138.3620   76.8560  222.6860 C   0  0  0  0  0  0  0  0  0  0  0  0
  138.2600   78.3410  222.4750 C   0  0  0  0  0  0  0  0  0  0  0  0
  137.8760   78.8530  221.2240 C   0  0  0  0  0  0  0  0  0  0  0  0
  137.8100   80.2340  221.0200 C   0  0  0  0  0  0  0  0  0  0  0  0
  138.1220   81.1130  222.0600 C   0  0  0  0  0  0  0  0  0  0  0  0
  138.5010   80.6110  223.3080 C   0  0  0  0  0  0  0  0  0  0  0  0
  138.5690   79.2310  223.5180 C   0  0  0  0  0  0  0  0  0  0  0  0
  141.1140   77.0850  221.7510 N   0  0  0  0  0  0  0  0  0  0  0  0
  141.4260   77.5340  223.1280 C   0  0  0  0  0  0  0  0  0  0  0  0
  141.7410   78.9730  223.0140 C   0  0  0  0  0  0  0  0  0  0  0  0
  142.1970   79.8370  224.0110 C   0  0  0  0  0  0  0  0  0  0  0  0
  142.4190   81.1840  223.6800 C   0  0  0  0  0  0  0  0  0  0  0  0
  142.1750   81.6400  222.3700 C   0  0  0  0  0  0  0  0  0  0  0  0
  141.7110   80.7480  221.3890 C   0  0  0  0  0  0  0  0  0  0  0  0
  141.5150   79.4110  221.7430 C   0  0  0  0  0  0  0  0  0  0  0  0
  141.0030   78.2990  220.9060 C   0  0  1  0  0  0  0  0  0  0  0  0
  141.8190   78.1310  219.6540 C   0  0  0  0  0  0  0  0  0  0  0  0
  142.1700   79.1450  218.7660 C   0  0  0  0  0  0  0  0  0  0  0  0
  142.9040   78.6470  217.7460 N   0  0  0  0  0  0  0  0  0  0  0  0
  143.0200   77.3280  217.9790 C   0  0  0  0  0  0  0  0  0  0  0  0
  143.6930   76.3900  217.1980 C   0  0  0  0  0  0  0  0  0  0  0  0
  143.6920   75.0520  217.6300 C   0  0  0  0  0  0  0  0  0  0  0  0
  143.0260   74.6850  218.8200 C   0  0  0  0  0  0  0  0  0  0  0  0
  142.3540   75.6530  219.5890 C   0  0  0  0  0  0  0  0  0  0  0  0
  142.3710   76.9730  219.1350 C   0  0  0  0  0  0  0  0  0  0  0  0
  137.3998   76.3920  222.4235 H   0  0  0  0  0  0  0  0  0  0  0  0
  138.6120   76.6768  223.7421 H   0  0  0  0  0  0  0  0  0  0  0  0
  137.6267   78.1648  220.4029 H   0  0  0  0  0  0  0  0  0  0  0  0
  137.5116   80.6299  220.0380 H   0  0  0  0  0  0  0  0  0  0  0  0
  138.0694   82.1995  221.8967 H   0  0  0  0  0  0  0  0  0  0  0  0
  138.7463   81.3035  224.1267 H   0  0  0  0  0  0  0  0  0  0  0  0
  138.8653   78.8402  224.5026 H   0  0  0  0  0  0  0  0  0  0  0  0
  140.5589   77.3817  223.7874 H   0  0  0  0  0  0  0  0  0  0  0  0
  142.2629   76.9669  223.5616 H   0  0  0  0  0  0  0  0  0  0  0  0
  142.3784   79.4714  225.0325 H   0  0  0  0  0  0  0  0  0  0  0  0
  142.7843   81.8842  224.4457 H   0  0  0  0  0  0  0  0  0  0  0  0
  142.3480   82.6959  222.1147 H   0  0  0  0  0  0  0  0  0  0  0  0
  141.5066   81.0945  220.3652 H   0  0  0  0  0  0  0  0  0  0  0  0
  139.9697   78.4926  220.5823 H   0  0  0  0  0  0  0  0  0  0  0  0
  141.8893   80.2026  218.8789 H   0  0  0  0  0  0  0  0  0  0  0  0
  143.2980   79.1820  216.9400 H   0  0  0  0  0  0  0  0  0  0  0  0
  144.2086   76.6871  216.2729 H   0  0  0  0  0  0  0  0  0  0  0  0
  144.2134   74.2860  217.0372 H   0  0  0  0  0  0  0  0  0  0  0  0
  143.0326   73.6351  219.1481 H   0  0  0  0  0  0  0  0  0  0  0  0
  141.8323   75.3785  220.5177 H   0  0  0  0  0  0  0  0  0  0  0  0
  1  2  2  0
  2  3  2  0
  2  4  1  0
  4  5  1  0
  5  6  2  0
  6  7  1  0
  7  8  2  0
  8  9  1  0
  9 10  2  0
  2 11  1  0
 11 12  1  0
 12 13  1  0
 13 14  2  0
 14 15  1  0
 15 16  2  0
 16 17  1  0
 17 18  2  0
 18 19  1  0
 19 20  1  0
 20 21  2  0
 21 22  1  0
 22 23  1  0
 23 24  2  0
 24 25  1  0
 25 26  2  0
 26 27  1  0
 27 28  2  0
 10  5  1  0
 19 11  1  0
 28 20  1  0
 18 13  1  0
 28 23  1  0
  4 29  1  0
  4 30  1  0
  6 31  1  0
  7 32  1  0
  8 33  1  0
  9 34  1  0
 10 35  1  0
 12 36  1  0
 12 37  1  0
 14 38  1  0
 15 39  1  0
 16 40  1  0
 17 41  1  0
 19 42  1  6
 21 43  1  0
 22 44  1  0
 24 45  1  0
 25 46  1  0
 26 47  1  0
 27 48  1  0
M  END
>  <meeko>  (13) 
{"free_energy": -7.61, "intermolecular_energy": -8.8, "internal_energy": -2.38, "cluster_size": 17, "cluster_id": 2, "rank_in_cluster": 17}

$$$$

     RDKit          3D

 48 52  0  0  0  0  0  0  0  0999 V2000
  140.1250   74.9330  222.2970 O   0  0  0  0  0  0  0  0  0  0  0  0
  139.7330   76.2640  221.7170 S   0  0  0  0  0  0  0  0  0  0  0  0
  139.2540   76.0540  220.3070 O   0  0  0  0  0  0  0  0  0  0  0  0
  138.4060   76.9200  222.7230 C   0  0  0  0  0  0  0  0  0  0  0  0
  138.1890   78.3860  222.4710 C   0  0  0  0  0  0  0  0  0  0  0  0
  137.7570   78.8320  221.2100 C   0  0  0  0  0  0  0  0  0  0  0  0
  137.5820   80.1970  220.9680 C   0  0  0  0  0  0  0  0  0  0  0  0
  137.8350   81.1260  221.9800 C   0  0  0  0  0  0  0  0  0  0  0  0
  138.2610   80.6910  223.2380 C   0  0  0  0  0  0  0  0  0  0  0  0
  138.4370   79.3270  223.4850 C   0  0  0  0  0  0  0  0  0  0  0  0
  141.1200   77.3310  221.7380 N   0  0  0  0  0  0  0  0  0  0  0  0
  141.3960   77.8690  223.0910 C   0  0  0  0  0  0  0  0  0  0  0  0
  141.6000   79.3210  222.9060 C   0  0  0  0  0  0  0  0  0  0  0  0
  141.9880   80.2640  223.8590 C   0  0  0  0  0  0  0  0  0  0  0  0
  142.1070   81.6060  223.4620 C   0  0  0  0  0  0  0  0  0  0  0  0
  141.8290   81.9780  222.1320 C   0  0  0  0  0  0  0  0  0  0  0  0
  141.4350   81.0070  221.1970 C   0  0  0  0  0  0  0  0  0  0  0  0
  141.3420   79.6770  221.6160 C   0  0  0  0  0  0  0  0  0  0  0  0
  140.9170   78.4900  220.8360 C   0  0  1  0  0  0  0  0  0  0  0  0
  141.7440   78.3250  219.5910 C   0  0  0  0  0  0  0  0  0  0  0  0
  142.0770   79.3340  218.6910 C   0  0  0  0  0  0  0  0  0  0  0  0
  142.8280   78.8390  217.6820 N   0  0  0  0  0  0  0  0  0  0  0  0
  142.9720   77.5270  217.9330 C   0  0  0  0  0  0  0  0  0  0  0  0
  143.6700   76.5940  217.1690 C   0  0  0  0  0  0  0  0  0  0  0  0
  143.6960   75.2620  217.6180 C   0  0  0  0  0  0  0  0  0  0  0  0
  143.0320   74.8960  218.8090 C   0  0  0  0  0  0  0  0  0  0  0  0
  142.3350   75.8580  219.5610 C   0  0  0  0  0  0  0  0  0  0  0  0
  142.3250   77.1730  219.0900 C   0  0  0  0  0  0  0  0  0  0  0  0
  137.4787   76.3769  222.4880 H   0  0  0  0  0  0  0  0  0  0  0  0
  138.6816   76.7912  223.7801 H   0  0  0  0  0  0  0  0  0  0  0  0
  137.5559   78.1037  220.4106 H   0  0  0  0  0  0  0  0  0  0  0  0
  137.2445   80.5405  219.9790 H   0  0  0  0  0  0  0  0  0  0  0  0
  137.6989   82.2003  221.7867 H   0  0  0  0  0  0  0  0  0  0  0  0
  138.4580   81.4234  224.0348 H   0  0  0  0  0  0  0  0  0  0  0  0
  138.7709   78.9884  224.4769 H   0  0  0  0  0  0  0  0  0  0  0  0
  140.5427   77.6831  223.7598 H   0  0  0  0  0  0  0  0  0  0  0  0
  142.2735   77.3893  223.5491 H   0  0  0  0  0  0  0  0  0  0  0  0
  142.1957   79.9633  224.8965 H   0  0  0  0  0  0  0  0  0  0  0  0
  142.4180   82.3684  224.1914 H   0  0  0  0  0  0  0  0  0  0  0  0
  141.9207   83.0304  221.8254 H   0  0  0  0  0  0  0  0  0  0  0  0
  141.2048   81.2870  220.1584 H   0  0  0  0  0  0  0  0  0  0  0  0
  139.8719   78.5875  220.5069 H   0  0  0  0  0  0  0  0  0  0  0  0
  141.7717   80.3864  218.7876 H   0  0  0  0  0  0  0  0  0  0  0  0
  143.2150   79.3730  216.8710 H   0  0  0  0  0  0  0  0  0  0  0  0
  144.1848   76.8904  216.2432 H   0  0  0  0  0  0  0  0  0  0  0  0
  144.2371   74.5001  217.0377 H   0  0  0  0  0  0  0  0  0  0  0  0
  143.0602   73.8509  219.1510 H   0  0  0  0  0  0  0  0  0  0  0  0
  141.8143   75.5839  220.4904 H   0  0  0  0  0  0  0  0  0  0  0  0
  1  2  2  0
  2  3  2  0
  2  4  1  0
  4  5  1  0
  5  6  2  0
  6  7  1  0
  7  8  2  0
  8  9  1  0
  9 10  2  0
  2 11  1  0
 11 12  1  0
 12 13  1  0
 13 14  2  0
 14 15  1  0
 15 16  2  0
 16 17  1  0
 17 18  2  0
 18 19  1  0
 19 20  1  0
 20 21  2  0
 21 22  1  0
 22 23  1  0
 23 24  2  0
 24 25  1  0
 25 26  2  0
 26 27  1  0
 27 28  2  0
 10  5  1  0
 19 11  1  0
 28 20  1  0
 18 13  1  0
 28 23  1  0
  4 29  1  0
  4 30  1  0
  6 31  1  0
  7 32  1  0
  8 33  1  0
  9 34  1  0
 10 35  1  0
 12 36  1  0
 12 37  1  0
 14 38  1  0
 15 39  1  0
 16 40  1  0
 17 41  1  0
 19 42  1  6
 21 43  1  0
 22 44  1  0
 24 45  1  0
 25 46  1  0
 26 47  1  0
 27 48  1  0
M  END
>  <meeko>  (14) 
{"free_energy": -7.64, "intermolecular_energy": -8.83, "internal_energy": -2.38, "cluster_size": 17, "cluster_id": 2, "rank_in_cluster": 6}

$$$$

     RDKit          3D

 48 52  0  0  0  0  0  0  0  0999 V2000
  140.1410   74.9490  222.2920 O   0  0  0  0  0  0  0  0  0  0  0  0
  139.7480   76.2800  221.7130 S   0  0  0  0  0  0  0  0  0  0  0  0
  139.2750   76.0710  220.3010 O   0  0  0  0  0  0  0  0  0  0  0  0
  138.4170   76.9320  222.7150 C   0  0  0  0  0  0  0  0  0  0  0  0
  138.1970   78.3980  222.4640 C   0  0  0  0  0  0  0  0  0  0  0  0
  137.7660   78.8440  221.2030 C   0  0  0  0  0  0  0  0  0  0  0  0
  137.5900   80.2080  220.9610 C   0  0  0  0  0  0  0  0  0  0  0  0
  137.8380   81.1380  221.9740 C   0  0  0  0  0  0  0  0  0  0  0  0
  138.2620   80.7020  223.2330 C   0  0  0  0  0  0  0  0  0  0  0  0
  138.4410   79.3380  223.4800 C   0  0  0  0  0  0  0  0  0  0  0  0
  141.1330   77.3500  221.7410 N   0  0  0  0  0  0  0  0  0  0  0  0
  141.4010   77.8900  223.0950 C   0  0  0  0  0  0  0  0  0  0  0  0
  141.6020   79.3420  222.9090 C   0  0  0  0  0  0  0  0  0  0  0  0
  141.9840   80.2870  223.8640 C   0  0  0  0  0  0  0  0  0  0  0  0
  142.1020   81.6290  223.4660 C   0  0  0  0  0  0  0  0  0  0  0  0
  141.8300   81.9990  222.1350 C   0  0  0  0  0  0  0  0  0  0  0  0
  141.4440   81.0260  221.1980 C   0  0  0  0  0  0  0  0  0  0  0  0
  141.3510   79.6960  221.6180 C   0  0  0  0  0  0  0  0  0  0  0  0
  140.9330   78.5080  220.8360 C   0  0  1  0  0  0  0  0  0  0  0  0
  141.7670   78.3430  219.5960 C   0  0  0  0  0  0  0  0  0  0  0  0
  142.1110   79.3540  218.7030 C   0  0  0  0  0  0  0  0  0  0  0  0
  142.8650   78.8600  217.6960 N   0  0  0  0  0  0  0  0  0  0  0  0
  143.0010   77.5460  217.9440 C   0  0  0  0  0  0  0  0  0  0  0  0
  143.7000   76.6120  217.1800 C   0  0  0  0  0  0  0  0  0  0  0  0
  143.7170   75.2790  217.6240 C   0  0  0  0  0  0  0  0  0  0  0  0
  143.0430   74.9110  218.8100 C   0  0  0  0  0  0  0  0  0  0  0  0
  142.3460   75.8740  219.5610 C   0  0  0  0  0  0  0  0  0  0  0  0
  142.3450   77.1900  219.0940 C   0  0  0  0  0  0  0  0  0  0  0  0
  137.4917   76.3870  222.4766 H   0  0  0  0  0  0  0  0  0  0  0  0
  138.6899   76.8030  223.7728 H   0  0  0  0  0  0  0  0  0  0  0  0
  137.5664   78.1156  220.4032 H   0  0  0  0  0  0  0  0  0  0  0  0
  137.2554   80.5511  219.9709 H   0  0  0  0  0  0  0  0  0  0  0  0
  137.6998   82.2121  221.7811 H   0  0  0  0  0  0  0  0  0  0  0  0
  138.4551   81.4341  224.0309 H   0  0  0  0  0  0  0  0  0  0  0  0
  138.7737   78.9993  224.4722 H   0  0  0  0  0  0  0  0  0  0  0  0
  140.5449   77.7026  223.7599 H   0  0  0  0  0  0  0  0  0  0  0  0
  142.2773   77.4130  223.5582 H   0  0  0  0  0  0  0  0  0  0  0  0
  142.1875   79.9876  224.9027 H   0  0  0  0  0  0  0  0  0  0  0  0
  142.4077   82.3928  224.1961 H   0  0  0  0  0  0  0  0  0  0  0  0
  141.9199   83.0516  221.8283 H   0  0  0  0  0  0  0  0  0  0  0  0
  141.2201   81.3044  220.1576 H   0  0  0  0  0  0  0  0  0  0  0  0
  139.8899   78.6037  220.5001 H   0  0  0  0  0  0  0  0  0  0  0  0
  141.8111   80.4076  218.8030 H   0  0  0  0  0  0  0  0  0  0  0  0
  143.2600   79.3940  216.8900 H   0  0  0  0  0  0  0  0  0  0  0  0
  144.2218   76.9095  216.2585 H   0  0  0  0  0  0  0  0  0  0  0  0
  144.2586   74.5169  217.0444 H   0  0  0  0  0  0  0  0  0  0  0  0
  143.0637   73.8644  219.1480 H   0  0  0  0  0  0  0  0  0  0  0  0
  141.8186   75.5996  220.4865 H   0  0  0  0  0  0  0  0  0  0  0  0
  1  2  2  0
  2  3  2  0
  2  4  1  0
  4  5  1  0
  5  6  2  0
  6  7  1  0
  7  8  2  0
  8  9  1  0
  9 10  2  0
  2 11  1  0
 11 12  1  0
 12 13  1  0
 13 14  2  0
 14 15  1  0
 15 16  2  0
 16 17  1  0
 17 18  2  0
 18 19  1  0
 19 20  1  0
 20 21  2  0
 21 22  1  0
 22 23  1  0
 23 24  2  0
 24 25  1  0
 25 26  2  0
 26 27  1  0
 27 28  2  0
 10  5  1  0
 19 11  1  0
 28 20  1  0
 18 13  1  0
 28 23  1  0
  4 29  1  0
  4 30  1  0
  6 31  1  0
  7 32  1  0
  8 33  1  0
  9 34  1  0
 10 35  1  0
 12 36  1  0
 12 37  1  0
 14 38  1  0
 15 39  1  0
 16 40  1  0
 17 41  1  0
 19 42  1  6
 21 43  1  0
 22 44  1  0
 24 45  1  0
 25 46  1  0
 26 47  1  0
 27 48  1  0
M  END
>  <meeko>  (15) 
{"free_energy": -7.64, "intermolecular_energy": -8.83, "internal_energy": -2.38, "cluster_size": 17, "cluster_id": 2, "rank_in_cluster": 4}

$$$$

     RDKit          3D

 48 52  0  0  0  0  0  0  0  0999 V2000
  135.3350   68.5270  225.3420 O   0  0  0  0  0  0  0  0  0  0  0  0
  135.6170   69.3410  224.1100 S   0  0  0  0  0  0  0  0  0  0  0  0
  135.9010   68.4050  222.9670 O   0  0  0  0  0  0  0  0  0  0  0  0
  134.1550   70.3110  223.7580 C   0  0  0  0  0  0  0  0  0  0  0  0
  133.8060   71.2270  224.8980 C   0  0  0  0  0  0  0  0  0  0  0  0
  133.8350   72.6210  224.7200 C   0  0  0  0  0  0  0  0  0  0  0  0
  133.5390   73.4730  225.7880 C   0  0  0  0  0  0  0  0  0  0  0  0
  133.2100   72.9420  227.0380 C   0  0  0  0  0  0  0  0  0  0  0  0
  133.1750   71.5570  227.2210 C   0  0  0  0  0  0  0  0  0  0  0  0
  133.4710   70.7010  226.1570 C   0  0  0  0  0  0  0  0  0  0  0  0
  136.9970   70.3760  224.4090 N   0  0  0  0  0  0  0  0  0  0  0  0
  136.8990   71.6670  223.6880 C   0  0  0  0  0  0  0  0  0  0  0  0
  138.2150   71.8630  223.0470 C   0  0  0  0  0  0  0  0  0  0  0  0
  138.6700   72.9760  222.3360 C   0  0  0  0  0  0  0  0  0  0  0  0
  139.9650   72.9400  221.7940 C   0  0  0  0  0  0  0  0  0  0  0  0
  140.7720   71.7990  221.9640 C   0  0  0  0  0  0  0  0  0  0  0  0
  140.2860   70.6920  222.6790 C   0  0  0  0  0  0  0  0  0  0  0  0
  139.0000   70.7620  223.2220 C   0  0  0  0  0  0  0  0  0  0  0  0
  138.2570   69.7250  223.9770 C   0  0  1  0  0  0  0  0  0  0  0  0
  139.0330   69.2560  225.1770 C   0  0  0  0  0  0  0  0  0  0  0  0
  139.1690   67.9360  225.5970 C   0  0  0  0  0  0  0  0  0  0  0  0
  139.9300   67.8700  226.7130 N   0  0  0  0  0  0  0  0  0  0  0  0
  140.2750   69.1360  227.0020 C   0  0  0  0  0  0  0  0  0  0  0  0
  141.0610   69.5730  228.0680 C   0  0  0  0  0  0  0  0  0  0  0  0
  141.3030   70.9530  228.1850 C   0  0  0  0  0  0  0  0  0  0  0  0
  140.7620   71.8570  227.2450 C   0  0  0  0  0  0  0  0  0  0  0  0
  139.9730   71.3890  226.1790 C   0  0  0  0  0  0  0  0  0  0  0  0
  139.7480   70.0130  226.0890 C   0  0  0  0  0  0  0  0  0  0  0  0
  134.3373   70.9162  222.8577 H   0  0  0  0  0  0  0  0  0  0  0  0
  133.3137   69.6190  223.6050 H   0  0  0  0  0  0  0  0  0  0  0  0
  134.0915   73.0429  223.7370 H   0  0  0  0  0  0  0  0  0  0  0  0
  133.5651   74.5632  225.6442 H   0  0  0  0  0  0  0  0  0  0  0  0
  132.9787   73.6139  227.8776 H   0  0  0  0  0  0  0  0  0  0  0  0
  132.9139   71.1398  228.2047 H   0  0  0  0  0  0  0  0  0  0  0  0
  133.4416   69.6115  226.3056 H   0  0  0  0  0  0  0  0  0  0  0  0
  136.1043   71.6237  222.9286 H   0  0  0  0  0  0  0  0  0  0  0  0
  136.6490   72.4953  224.3672 H   0  0  0  0  0  0  0  0  0  0  0  0
  138.0289   73.8600  222.2037 H   0  0  0  0  0  0  0  0  0  0  0  0
  140.3499   73.8057  221.2351 H   0  0  0  0  0  0  0  0  0  0  0  0
  141.7851   71.7744  221.5361 H   0  0  0  0  0  0  0  0  0  0  0  0
  140.9032   69.7908  222.8086 H   0  0  0  0  0  0  0  0  0  0  0  0
  138.0772   68.8365  223.3539 H   0  0  0  0  0  0  0  0  0  0  0  0
  138.7203   67.0679  225.0919 H   0  0  0  0  0  0  0  0  0  0  0  0
  140.1920   67.0080  227.2410 H   0  0  0  0  0  0  0  0  0  0  0  0
  141.4785   68.8603  228.7944 H   0  0  0  0  0  0  0  0  0  0  0  0
  141.9182   71.3311  229.0148 H   0  0  0  0  0  0  0  0  0  0  0  0
  140.9589   72.9344  227.3471 H   0  0  0  0  0  0  0  0  0  0  0  0
  139.5469   72.0837  225.4401 H   0  0  0  0  0  0  0  0  0  0  0  0
  1  2  2  0
  2  3  2  0
  2  4  1  0
  4  5  1  0
  5  6  2  0
  6  7  1  0
  7  8  2  0
  8  9  1  0
  9 10  2  0
  2 11  1  0
 11 12  1  0
 12 13  1  0
 13 14  2  0
 14 15  1  0
 15 16  2  0
 16 17  1  0
 17 18  2  0
 18 19  1  0
 19 20  1  0
 20 21  2  0
 21 22  1  0
 22 23  1  0
 23 24  2  0
 24 25  1  0
 25 26  2  0
 26 27  1  0
 27 28  2  0
 10  5  1  0
 19 11  1  0
 28 20  1  0
 18 13  1  0
 28 23  1  0
  4 29  1  0
  4 30  1  0
  6 31  1  0
  7 32  1  0
  8 33  1  0
  9 34  1  0
 10 35  1  0
 12 36  1  0
 12 37  1  0
 14 38  1  0
 15 39  1  0
 16 40  1  0
 17 41  1  0
 19 42  1  6
 21 43  1  0
 22 44  1  0
 24 45  1  0
 25 46  1  0
 26 47  1  0
 27 48  1  0
M  END
>  <meeko>  (16) 
{"free_energy": -8.28, "intermolecular_energy": -9.48, "internal_energy": -1.77, "cluster_size": 3, "cluster_id": 1, "rank_in_cluster": 1}

$$$$

     RDKit          3D

 48 52  0  0  0  0  0  0  0  0999 V2000
  140.1400   74.9410  222.2780 O   0  0  0  0  0  0  0  0  0  0  0  0
  139.7460   76.2740  221.7030 S   0  0  0  0  0  0  0  0  0  0  0  0
  139.2710   76.0680  220.2910 O   0  0  0  0  0  0  0  0  0  0  0  0
  138.4150   76.9230  222.7080 C   0  0  0  0  0  0  0  0  0  0  0  0
  138.1960   78.3900  222.4630 C   0  0  0  0  0  0  0  0  0  0  0  0
  137.7690   78.8400  221.2020 C   0  0  0  0  0  0  0  0  0  0  0  0
  137.5930   80.2060  220.9650 C   0  0  0  0  0  0  0  0  0  0  0  0
  137.8380   81.1310  221.9830 C   0  0  0  0  0  0  0  0  0  0  0  0
  138.2580   80.6910  223.2410 C   0  0  0  0  0  0  0  0  0  0  0  0
  138.4360   79.3260  223.4830 C   0  0  0  0  0  0  0  0  0  0  0  0
  141.1310   77.3440  221.7320 N   0  0  0  0  0  0  0  0  0  0  0  0
  141.3980   77.8820  223.0870 C   0  0  0  0  0  0  0  0  0  0  0  0
  141.6000   79.3340  222.9030 C   0  0  0  0  0  0  0  0  0  0  0  0
  141.9810   80.2780  223.8590 C   0  0  0  0  0  0  0  0  0  0  0  0
  142.0990   81.6200  223.4630 C   0  0  0  0  0  0  0  0  0  0  0  0
  141.8270   81.9930  222.1320 C   0  0  0  0  0  0  0  0  0  0  0  0
  141.4400   81.0210  221.1950 C   0  0  0  0  0  0  0  0  0  0  0  0
  141.3480   79.6910  221.6120 C   0  0  0  0  0  0  0  0  0  0  0  0
  140.9290   78.5030  220.8290 C   0  0  1  0  0  0  0  0  0  0  0  0
  141.7630   78.3410  219.5880 C   0  0  0  0  0  0  0  0  0  0  0  0
  142.1080   79.3530  218.6970 C   0  0  0  0  0  0  0  0  0  0  0  0
  142.8620   78.8600  217.6890 N   0  0  0  0  0  0  0  0  0  0  0  0
  142.9960   77.5460  217.9340 C   0  0  0  0  0  0  0  0  0  0  0  0
  143.6930   76.6130  217.1670 C   0  0  0  0  0  0  0  0  0  0  0  0
  143.7090   75.2780  217.6090 C   0  0  0  0  0  0  0  0  0  0  0  0
  143.0350   74.9080  218.7930 C   0  0  0  0  0  0  0  0  0  0  0  0
  142.3390   75.8700  219.5470 C   0  0  0  0  0  0  0  0  0  0  0  0
  142.3400   77.1880  219.0840 C   0  0  0  0  0  0  0  0  0  0  0  0
  137.4894   76.3796  222.4674 H   0  0  0  0  0  0  0  0  0  0  0  0
  138.6878   76.7895  223.7652 H   0  0  0  0  0  0  0  0  0  0  0  0
  137.5726   78.1146  220.3988 H   0  0  0  0  0  0  0  0  0  0  0  0
  137.2611   80.5534  219.9755 H   0  0  0  0  0  0  0  0  0  0  0  0
  137.7002   82.2059  221.7942 H   0  0  0  0  0  0  0  0  0  0  0  0
  138.4488   81.4202  224.0422 H   0  0  0  0  0  0  0  0  0  0  0  0
  138.7650   78.9834  224.4752 H   0  0  0  0  0  0  0  0  0  0  0  0
  140.5412   77.6942  223.7508 H   0  0  0  0  0  0  0  0  0  0  0  0
  142.2735   77.4039  223.5505 H   0  0  0  0  0  0  0  0  0  0  0  0
  142.1838   79.9774  224.8975 H   0  0  0  0  0  0  0  0  0  0  0  0
  142.4048   82.3825  224.1944 H   0  0  0  0  0  0  0  0  0  0  0  0
  141.9177   83.0458  221.8265 H   0  0  0  0  0  0  0  0  0  0  0  0
  141.2143   81.3009  220.1555 H   0  0  0  0  0  0  0  0  0  0  0  0
  139.8853   78.5976  220.4948 H   0  0  0  0  0  0  0  0  0  0  0  0
  141.8090   80.4067  218.7988 H   0  0  0  0  0  0  0  0  0  0  0  0
  143.2570   79.3970  216.8840 H   0  0  0  0  0  0  0  0  0  0  0  0
  144.2138   76.9118  216.2454 H   0  0  0  0  0  0  0  0  0  0  0  0
  144.2504   74.5168  217.0281 H   0  0  0  0  0  0  0  0  0  0  0  0
  143.0543   73.8605  219.1281 H   0  0  0  0  0  0  0  0  0  0  0  0
  141.8109   75.5934  220.4715 H   0  0  0  0  0  0  0  0  0  0  0  0
  1  2  2  0
  2  3  2  0
  2  4  1  0
  4  5  1  0
  5  6  2  0
  6  7  1  0
  7  8  2  0
  8  9  1  0
  9 10  2  0
  2 11  1  0
 11 12  1  0
 12 13  1  0
 13 14  2  0
 14 15  1  0
 15 16  2  0
 16 17  1  0
 17 18  2  0
 18 19  1  0
 19 20  1  0
 20 21  2  0
 21 22  1  0
 22 23  1  0
 23 24  2  0
 24 25  1  0
 25 26  2  0
 26 27  1  0
 27 28  2  0
 10  5  1  0
 19 11  1  0
 28 20  1  0
 18 13  1  0
 28 23  1  0
  4 29  1  0
  4 30  1  0
  6 31  1  0
  7 32  1  0
  8 33  1  0
  9 34  1  0
 10 35  1  0
 12 36  1  0
 12 37  1  0
 14 38  1  0
 15 39  1  0
 16 40  1  0
 17 41  1  0
 19 42  1  6
 21 43  1  0
 22 44  1  0
 24 45  1  0
 25 46  1  0
 26 47  1  0
 27 48  1  0
M  END
>  <meeko>  (17) 
{"free_energy": -7.64, "intermolecular_energy": -8.83, "internal_energy": -2.38, "cluster_size": 17, "cluster_id": 2, "rank_in_cluster": 7}

$$$$

     RDKit          3D

 48 52  0  0  0  0  0  0  0  0999 V2000
  140.1250   74.9320  222.2470 O   0  0  0  0  0  0  0  0  0  0  0  0
  139.7300   76.2720  221.6920 S   0  0  0  0  0  0  0  0  0  0  0  0
  139.2420   76.0850  220.2810 O   0  0  0  0  0  0  0  0  0  0  0  0
  138.4100   76.9130  222.7160 C   0  0  0  0  0  0  0  0  0  0  0  0
  138.1950   78.3840  222.4930 C   0  0  0  0  0  0  0  0  0  0  0  0
  137.7530   78.8530  221.2440 C   0  0  0  0  0  0  0  0  0  0  0  0
  137.5800   80.2220  221.0280 C   0  0  0  0  0  0  0  0  0  0  0  0
  137.8440   81.1330  222.0540 C   0  0  0  0  0  0  0  0  0  0  0  0
  138.2800   80.6740  223.3000 C   0  0  0  0  0  0  0  0  0  0  0  0
  138.4550   79.3050  223.5210 C   0  0  0  0  0  0  0  0  0  0  0  0
  141.1180   77.3380  221.7220 N   0  0  0  0  0  0  0  0  0  0  0  0
  141.4030   77.8540  223.0810 C   0  0  0  0  0  0  0  0  0  0  0  0
  141.6070   79.3080  222.9180 C   0  0  0  0  0  0  0  0  0  0  0  0
  142.0010   80.2360  223.8840 C   0  0  0  0  0  0  0  0  0  0  0  0
  142.1190   81.5840  223.5080 C   0  0  0  0  0  0  0  0  0  0  0  0
  141.8330   81.9780  222.1860 C   0  0  0  0  0  0  0  0  0  0  0  0
  141.4330   81.0220  221.2380 C   0  0  0  0  0  0  0  0  0  0  0  0
  141.3410   79.6860  221.6360 C   0  0  0  0  0  0  0  0  0  0  0  0
  140.9110   78.5120  220.8390 C   0  0  1  0  0  0  0  0  0  0  0  0
  141.7300   78.3660  219.5870 C   0  0  0  0  0  0  0  0  0  0  0  0
  142.0460   79.3870  218.6940 C   0  0  0  0  0  0  0  0  0  0  0  0
  142.7940   78.9090  217.6740 N   0  0  0  0  0  0  0  0  0  0  0  0
  142.9540   77.5960  217.9130 C   0  0  0  0  0  0  0  0  0  0  0  0
  143.6560   76.6770  217.1350 C   0  0  0  0  0  0  0  0  0  0  0  0
  143.7000   75.3420  217.5730 C   0  0  0  0  0  0  0  0  0  0  0  0
  143.0480   74.9580  218.7650 C   0  0  0  0  0  0  0  0  0  0  0  0
  142.3460   75.9060  219.5310 C   0  0  0  0  0  0  0  0  0  0  0  0
  142.3190   77.2250  219.0710 C   0  0  0  0  0  0  0  0  0  0  0  0
  137.4802   76.3767  222.4754 H   0  0  0  0  0  0  0  0  0  0  0  0
  138.6910   76.7642  223.7691 H   0  0  0  0  0  0  0  0  0  0  0  0
  137.5426   78.1394  220.4338 H   0  0  0  0  0  0  0  0  0  0  0  0
  137.2352   80.5838  220.0481 H   0  0  0  0  0  0  0  0  0  0  0  0
  137.7087   82.2109  221.8811 H   0  0  0  0  0  0  0  0  0  0  0  0
  138.4858   81.3914  224.1081 H   0  0  0  0  0  0  0  0  0  0  0  0
  138.7975   78.9477  224.5034 H   0  0  0  0  0  0  0  0  0  0  0  0
  140.5538   77.6581  223.7522 H   0  0  0  0  0  0  0  0  0  0  0  0
  142.2830   77.3664  223.5257 H   0  0  0  0  0  0  0  0  0  0  0  0
  142.2140   79.9187  224.9155 H   0  0  0  0  0  0  0  0  0  0  0  0
  142.4356   82.3341  224.2477 H   0  0  0  0  0  0  0  0  0  0  0  0
  141.9230   83.0353  221.8960 H   0  0  0  0  0  0  0  0  0  0  0  0
  141.1974   81.3186  220.2053 H   0  0  0  0  0  0  0  0  0  0  0  0
  139.8643   78.6159  220.5169 H   0  0  0  0  0  0  0  0  0  0  0  0
  141.7312   80.4353  218.8032 H   0  0  0  0  0  0  0  0  0  0  0  0
  143.1690   79.4530  216.8660 H   0  0  0  0  0  0  0  0  0  0  0  0
  144.1598   76.9866  216.2074 H   0  0  0  0  0  0  0  0  0  0  0  0
  144.2462   74.5913  216.9830 H   0  0  0  0  0  0  0  0  0  0  0  0
  143.0894   73.9101  219.0969 H   0  0  0  0  0  0  0  0  0  0  0  0
  141.8350   75.6184  220.4617 H   0  0  0  0  0  0  0  0  0  0  0  0
  1  2  2  0
  2  3  2  0
  2  4  1  0
  4  5  1  0
  5  6  2  0
  6  7  1  0
  7  8  2  0
  8  9  1  0
  9 10  2  0
  2 11  1  0
 11 12  1  0
 12 13  1  0
 13 14  2  0
 14 15  1  0
 15 16  2  0
 16 17  1  0
 17 18  2  0
 18 19  1  0
 19 20  1  0
 20 21  2  0
 21 22  1  0
 22 23  1  0
 23 24  2  0
 24 25  1  0
 25 26  2  0
 26 27  1  0
 27 28  2  0
 10  5  1  0
 19 11  1  0
 28 20  1  0
 18 13  1  0
 28 23  1  0
  4 29  1  0
  4 30  1  0
  6 31  1  0
  7 32  1  0
  8 33  1  0
  9 34  1  0
 10 35  1  0
 12 36  1  0
 12 37  1  0
 14 38  1  0
 15 39  1  0
 16 40  1  0
 17 41  1  0
 19 42  1  6
 21 43  1  0
 22 44  1  0
 24 45  1  0
 25 46  1  0
 26 47  1  0
 27 48  1  0
M  END
>  <meeko>  (18) 
{"free_energy": -7.62, "intermolecular_energy": -8.82, "internal_energy": -2.38, "cluster_size": 17, "cluster_id": 2, "rank_in_cluster": 15}

$$$$

     RDKit          3D

 48 52  0  0  0  0  0  0  0  0999 V2000
  140.1250   74.9250  222.2640 O   0  0  0  0  0  0  0  0  0  0  0  0
  139.7290   76.2610  221.6980 S   0  0  0  0  0  0  0  0  0  0  0  0
  139.2450   76.0620  220.2880 O   0  0  0  0  0  0  0  0  0  0  0  0
  138.4070   76.9070  222.7150 C   0  0  0  0  0  0  0  0  0  0  0  0
  138.1910   78.3770  222.4810 C   0  0  0  0  0  0  0  0  0  0  0  0
  137.7530   78.8360  221.2270 C   0  0  0  0  0  0  0  0  0  0  0  0
  137.5800   80.2040  221.0000 C   0  0  0  0  0  0  0  0  0  0  0  0
  137.8390   81.1220  222.0210 C   0  0  0  0  0  0  0  0  0  0  0  0
  138.2710   80.6730  223.2720 C   0  0  0  0  0  0  0  0  0  0  0  0
  138.4460   79.3050  223.5030 C   0  0  0  0  0  0  0  0  0  0  0  0
  141.1160   77.3280  221.7220 N   0  0  0  0  0  0  0  0  0  0  0  0
  141.3980   77.8550  223.0790 C   0  0  0  0  0  0  0  0  0  0  0  0
  141.6000   79.3080  222.9050 C   0  0  0  0  0  0  0  0  0  0  0  0
  141.9920   80.2440  223.8650 C   0  0  0  0  0  0  0  0  0  0  0  0
  142.1080   81.5890  223.4790 C   0  0  0  0  0  0  0  0  0  0  0  0
  141.8240   81.9730  222.1540 C   0  0  0  0  0  0  0  0  0  0  0  0
  141.4270   81.0090  221.2120 C   0  0  0  0  0  0  0  0  0  0  0  0
  141.3360   79.6760  221.6200 C   0  0  0  0  0  0  0  0  0  0  0  0
  140.9080   78.4960  220.8310 C   0  0  1  0  0  0  0  0  0  0  0  0
  141.7300   78.3420  219.5810 C   0  0  0  0  0  0  0  0  0  0  0  0
  142.0390   79.3550  218.6770 C   0  0  0  0  0  0  0  0  0  0  0  0
  142.7920   78.8710  217.6640 N   0  0  0  0  0  0  0  0  0  0  0  0
  142.9610   77.5620  217.9180 C   0  0  0  0  0  0  0  0  0  0  0  0
  143.6710   76.6390  217.1500 C   0  0  0  0  0  0  0  0  0  0  0  0
  143.7240   75.3090  217.6030 C   0  0  0  0  0  0  0  0  0  0  0  0
  143.0740   74.9340  218.8000 C   0  0  0  0  0  0  0  0  0  0  0  0
  142.3650   75.8860  219.5540 C   0  0  0  0  0  0  0  0  0  0  0  0
  142.3280   77.1990  219.0790 C   0  0  0  0  0  0  0  0  0  0  0  0
  137.4782   76.3680  222.4765 H   0  0  0  0  0  0  0  0  0  0  0  0
  138.6859   76.7655  223.7696 H   0  0  0  0  0  0  0  0  0  0  0  0
  137.5457   78.1161  220.4215 H   0  0  0  0  0  0  0  0  0  0  0  0
  137.2394   80.5586  220.0160 H   0  0  0  0  0  0  0  0  0  0  0  0
  137.7029   82.1985  221.8401 H   0  0  0  0  0  0  0  0  0  0  0  0
  138.4735   81.3963  224.0756 H   0  0  0  0  0  0  0  0  0  0  0  0
  138.7847   78.9547  224.4892 H   0  0  0  0  0  0  0  0  0  0  0  0
  140.5479   77.6629  223.7502 H   0  0  0  0  0  0  0  0  0  0  0  0
  142.2778   77.3721  223.5292 H   0  0  0  0  0  0  0  0  0  0  0  0
  142.2048   79.9347  224.8989 H   0  0  0  0  0  0  0  0  0  0  0  0
  142.4217   82.3452  224.2137 H   0  0  0  0  0  0  0  0  0  0  0  0
  141.9131   83.0282  221.8565 H   0  0  0  0  0  0  0  0  0  0  0  0
  141.1931   81.2974  220.1766 H   0  0  0  0  0  0  0  0  0  0  0  0
  139.8615   78.5965  220.5074 H   0  0  0  0  0  0  0  0  0  0  0  0
  141.7158   80.4020  218.7736 H   0  0  0  0  0  0  0  0  0  0  0  0
  143.1640   79.4090  216.8490 H   0  0  0  0  0  0  0  0  0  0  0  0
  144.1735   76.9420  216.2196 H   0  0  0  0  0  0  0  0  0  0  0  0
  144.2753   74.5554  217.0215 H   0  0  0  0  0  0  0  0  0  0  0  0
  143.1228   73.8905  219.1445 H   0  0  0  0  0  0  0  0  0  0  0  0
  141.8559   75.6057  220.4879 H   0  0  0  0  0  0  0  0  0  0  0  0
  1  2  2  0
  2  3  2  0
  2  4  1  0
  4  5  1  0
  5  6  2  0
  6  7  1  0
  7  8  2  0
  8  9  1  0
  9 10  2  0
  2 11  1  0
 11 12  1  0
 12 13  1  0
 13 14  2  0
 14 15  1  0
 15 16  2  0
 16 17  1  0
 17 18  2  0
 18 19  1  0
 19 20  1  0
 20 21  2  0
 21 22  1  0
 22 23  1  0
 23 24  2  0
 24 25  1  0
 25 26  2  0
 26 27  1  0
 27 28  2  0
 10  5  1  0
 19 11  1  0
 28 20  1  0
 18 13  1  0
 28 23  1  0
  4 29  1  0
  4 30  1  0
  6 31  1  0
  7 32  1  0
  8 33  1  0
  9 34  1  0
 10 35  1  0
 12 36  1  0
 12 37  1  0
 14 38  1  0
 15 39  1  0
 16 40  1  0
 17 41  1  0
 19 42  1  6
 21 43  1  0
 22 44  1  0
 24 45  1  0
 25 46  1  0
 26 47  1  0
 27 48  1  0
M  END
>  <meeko>  (19) 
{"free_energy": -7.63, "intermolecular_energy": -8.82, "internal_energy": -2.38, "cluster_size": 17, "cluster_id": 2, "rank_in_cluster": 13}

$$$$

     RDKit          3D

 48 52  0  0  0  0  0  0  0  0999 V2000
  140.1170   74.9650  222.2850 O   0  0  0  0  0  0  0  0  0  0  0  0
  139.7280   76.2990  221.7110 S   0  0  0  0  0  0  0  0  0  0  0  0
  139.2500   76.0960  220.3000 O   0  0  0  0  0  0  0  0  0  0  0  0
  138.4020   76.9530  222.7190 C   0  0  0  0  0  0  0  0  0  0  0  0
  138.1990   78.4250  222.4860 C   0  0  0  0  0  0  0  0  0  0  0  0
  138.4410   79.3450  223.5200 C   0  0  0  0  0  0  0  0  0  0  0  0
  138.2250   80.7100  223.3130 C   0  0  0  0  0  0  0  0  0  0  0  0
  137.7680   81.1670  222.0740 C   0  0  0  0  0  0  0  0  0  0  0  0
  137.5280   80.2580  221.0390 C   0  0  0  0  0  0  0  0  0  0  0  0
  137.7430   78.8920  221.2420 C   0  0  0  0  0  0  0  0  0  0  0  0
  141.1180   77.3630  221.7380 N   0  0  0  0  0  0  0  0  0  0  0  0
  141.3900   77.9000  223.0930 C   0  0  0  0  0  0  0  0  0  0  0  0
  141.5970   79.3510  222.9090 C   0  0  0  0  0  0  0  0  0  0  0  0
  141.9840   80.2940  223.8640 C   0  0  0  0  0  0  0  0  0  0  0  0
  142.1070   81.6360  223.4680 C   0  0  0  0  0  0  0  0  0  0  0  0
  141.8350   82.0090  222.1370 C   0  0  0  0  0  0  0  0  0  0  0  0
  141.4420   81.0390  221.2000 C   0  0  0  0  0  0  0  0  0  0  0  0
  141.3450   79.7090  221.6180 C   0  0  0  0  0  0  0  0  0  0  0  0
  140.9200   78.5230  220.8360 C   0  0  1  0  0  0  0  0  0  0  0  0
  141.7520   78.3570  219.5940 C   0  0  0  0  0  0  0  0  0  0  0  0
  142.0910   79.3660  218.6960 C   0  0  0  0  0  0  0  0  0  0  0  0
  142.8440   78.8700  217.6890 N   0  0  0  0  0  0  0  0  0  0  0  0
  142.9840   77.5580  217.9410 C   0  0  0  0  0  0  0  0  0  0  0  0
  143.6830   76.6230  217.1780 C   0  0  0  0  0  0  0  0  0  0  0  0
  143.7050   75.2910  217.6270 C   0  0  0  0  0  0  0  0  0  0  0  0
  143.0350   74.9250  218.8150 C   0  0  0  0  0  0  0  0  0  0  0  0
  142.3370   75.8890  219.5650 C   0  0  0  0  0  0  0  0  0  0  0  0
  142.3320   77.2040  219.0940 C   0  0  0  0  0  0  0  0  0  0  0  0
  137.4712   76.4215  222.4719 H   0  0  0  0  0  0  0  0  0  0  0  0
  138.6711   76.8074  223.7756 H   0  0  0  0  0  0  0  0  0  0  0  0
  138.8019   78.9894  224.4964 H   0  0  0  0  0  0  0  0  0  0  0  0
  138.4150   81.4257  224.1264 H   0  0  0  0  0  0  0  0  0  0  0  0
  137.5971   82.2416  221.9130 H   0  0  0  0  0  0  0  0  0  0  0  0
  137.1695   80.6185  220.0636 H   0  0  0  0  0  0  0  0  0  0  0  0
  137.5545   78.1801  220.4249 H   0  0  0  0  0  0  0  0  0  0  0  0
  140.5339   77.7153  223.7586 H   0  0  0  0  0  0  0  0  0  0  0  0
  142.2648   77.4185  223.5544 H   0  0  0  0  0  0  0  0  0  0  0  0
  142.1877   79.9926  224.9021 H   0  0  0  0  0  0  0  0  0  0  0  0
  142.4164   82.3976  224.1989 H   0  0  0  0  0  0  0  0  0  0  0  0
  141.9305   83.0613  221.8310 H   0  0  0  0  0  0  0  0  0  0  0  0
  141.2157   81.3199  220.1608 H   0  0  0  0  0  0  0  0  0  0  0  0
  139.8762   78.6226  220.5036 H   0  0  0  0  0  0  0  0  0  0  0  0
  141.7884   80.4191  218.7927 H   0  0  0  0  0  0  0  0  0  0  0  0
  143.2350   79.4030  216.8800 H   0  0  0  0  0  0  0  0  0  0  0  0
  144.2010   76.9186  216.2537 H   0  0  0  0  0  0  0  0  0  0  0  0
  144.2478   74.5286  217.0490 H   0  0  0  0  0  0  0  0  0  0  0  0
  143.0591   73.8795  219.1561 H   0  0  0  0  0  0  0  0  0  0  0  0
  141.8121   75.6160  220.4924 H   0  0  0  0  0  0  0  0  0  0  0  0
  1  2  2  0
  2  3  2  0
  2  4  1  0
  4  5  1  0
  5  6  2  0
  6  7  1  0
  7  8  2  0
  8  9  1  0
  9 10  2  0
  2 11  1  0
 11 12  1  0
 12 13  1  0
 13 14  2  0
 14 15  1  0
 15 16  2  0
 16 17  1  0
 17 18  2  0
 18 19  1  0
 19 20  1  0
 20 21  2  0
 21 22  1  0
 22 23  1  0
 23 24  2  0
 24 25  1  0
 25 26  2  0
 26 27  1  0
 27 28  2  0
 10  5  1  0
 19 11  1  0
 28 20  1  0
 18 13  1  0
 28 23  1  0
  4 29  1  0
  4 30  1  0
  6 31  1  0
  7 32  1  0
  8 33  1  0
  9 34  1  0
 10 35  1  0
 12 36  1  0
 12 37  1  0
 14 38  1  0
 15 39  1  0
 16 40  1  0
 17 41  1  0
 19 42  1  6
 21 43  1  0
 22 44  1  0
 24 45  1  0
 25 46  1  0
 26 47  1  0
 27 48  1  0
M  END
>  <meeko>  (20) 
{"free_energy": -7.63, "intermolecular_energy": -8.82, "internal_energy": -2.36, "cluster_size": 17, "cluster_id": 2, "rank_in_cluster": 12}

$$$$
