
     RDKit          3D

 49 53  0  0  0  0  0  0  0  0999 V2000
  138.1400   77.3880  219.6210 O   0  0  0  0  0  0  0  0  0  0  0  0
  138.0940   78.8900  219.5830 S   0  0  0  0  0  0  0  0  0  0  0  0
  136.6690   79.3310  219.7740 O   0  0  0  0  0  0  0  0  0  0  0  0
  138.7140   79.4720  218.0110 C   0  0  0  0  0  0  0  0  0  0  0  0
  140.1690   79.8280  218.1130 C   0  0  0  0  0  0  0  0  0  0  0  0
  140.5550   81.1340  218.4600 C   0  0  0  0  0  0  0  0  0  0  0  0
  141.9100   81.4750  218.5190 C   0  0  0  0  0  0  0  0  0  0  0  0
  142.8860   80.5190  218.2260 C   0  0  0  0  0  0  0  0  0  0  0  0
  142.5090   79.2210  217.8680 C   0  0  0  0  0  0  0  0  0  0  0  0
  141.1560   78.8760  217.8060 C   0  0  0  0  0  0  0  0  0  0  0  0
  139.0850   79.5360  220.8560 N   0  0  0  0  0  0  0  0  0  0  0  0
  138.5220   80.5650  221.6860 C   0  0  0  0  0  0  0  0  0  0  0  0
  139.2400   81.1590  222.6340 C   0  0  0  0  0  0  0  0  0  0  0  0
  140.6400   80.7800  222.8690 C   0  0  0  0  0  0  0  0  0  0  0  0
  141.3910   81.4520  223.8440 C   0  0  0  0  0  0  0  0  0  0  0  0
  142.7280   81.1090  224.0640 C   0  0  0  0  0  0  0  0  0  0  0  0
  143.3230   80.0960  223.3090 C   0  0  0  0  0  0  0  0  0  0  0  0
  142.5810   79.4200  222.3370 C   0  0  0  0  0  0  0  0  0  0  0  0
  141.2320   79.7480  222.1140 C   0  0  0  0  0  0  0  0  0  0  0  0
  140.4400   78.9920  221.0660 C   0  0  1  0  0  0  0  0  0  0  0  0
  140.3600   77.5270  221.4220 C   0  0  0  0  0  0  0  0  0  0  0  0
  139.4790   76.9570  222.3360 C   0  0  0  0  0  0  0  0  0  0  0  0
  139.7090   75.6300  222.4560 N   0  0  0  0  0  0  0  0  0  0  0  0
  140.7300   75.3560  221.6280 C   0  0  0  0  0  0  0  0  0  0  0  0
  141.3400   74.1180  221.4250 C   0  0  0  0  0  0  0  0  0  0  0  0
  142.4140   74.0540  220.5210 C   0  0  0  0  0  0  0  0  0  0  0  0
  142.8530   75.2160  219.8470 C   0  0  0  0  0  0  0  0  0  0  0  0
  142.2210   76.4520  220.0730 C   0  0  0  0  0  0  0  0  0  0  0  0
  141.1550   76.4860  220.9760 C   0  0  0  0  0  0  0  0  0  0  0  0
  138.5880   78.6804  217.2577 H   0  0  0  0  0  0  0  0  0  0  0  0
  138.1499   80.3701  217.7191 H   0  0  0  0  0  0  0  0  0  0  0  0
  139.7889   81.8904  218.6859 H   0  0  0  0  0  0  0  0  0  0  0  0
  142.2078   82.4970  218.7964 H   0  0  0  0  0  0  0  0  0  0  0  0
  143.9515   80.7877  218.2770 H   0  0  0  0  0  0  0  0  0  0  0  0
  143.2784   78.4703  217.6348 H   0  0  0  0  0  0  0  0  0  0  0  0
  140.8629   77.8562  217.5160 H   0  0  0  0  0  0  0  0  0  0  0  0
  137.4754   80.8674  221.5338 H   0  0  0  0  0  0  0  0  0  0  0  0
  138.7798   81.9449  223.2509 H   0  0  0  0  0  0  0  0  0  0  0  0
  140.9260   82.2524  224.4382 H   0  0  0  0  0  0  0  0  0  0  0  0
  143.3118   81.6372  224.8322 H   0  0  0  0  0  0  0  0  0  0  0  0
  144.3766   79.8301  223.4797 H   0  0  0  0  0  0  0  0  0  0  0  0
  143.0555   78.6257  221.7421 H   0  0  0  0  0  0  0  0  0  0  0  0
  140.9827   79.1162  220.1173 H   0  0  0  0  0  0  0  0  0  0  0  0
  138.7026   77.5098  222.8852 H   0  0  0  0  0  0  0  0  0  0  0  0
  139.2030   74.9620  223.0780 H   0  0  0  0  0  0  0  0  0  0  0  0
  140.9912   73.2200  221.9559 H   0  0  0  0  0  0  0  0  0  0  0  0
  142.9164   73.0929  220.3367 H   0  0  0  0  0  0  0  0  0  0  0  0
  143.6943   75.1534  219.1411 H   0  0  0  0  0  0  0  0  0  0  0  0
  142.5553   77.3632  219.5553 H   0  0  0  0  0  0  0  0  0  0  0  0
  1  2  2  0
  2  3  2  0
  2  4  1  0
  4  5  1  0
  5  6  2  0
  6  7  1  0
  7  8  2  0
  8  9  1  0
  9 10  2  0
  2 11  1  0
 11 12  1  0
 12 13  2  0
 13 14  1  0
 14 15  2  0
 15 16  1  0
 16 17  2  0
 17 18  1  0
 18 19  2  0
 19 20  1  0
 20 21  1  0
 21 22  2  0
 22 23  1  0
 23 24  1  0
 24 25  2  0
 25 26  1  0
 26 27  2  0
 27 28  1  0
 28 29  2  0
 10  5  1  0
 20 11  1  0
 29 21  1  0
 19 14  1  0
 29 24  1  0
  4 30  1  0
  4 31  1  0
  6 32  1  0
  7 33  1  0
  8 34  1  0
  9 35  1  0
 10 36  1  0
 12 37  1  0
 13 38  1  0
 15 39  1  0
 16 40  1  0
 17 41  1  0
 18 42  1  0
 20 43  1  6
 22 44  1  0
 23 45  1  0
 25 46  1  0
 26 47  1  0
 27 48  1  0
 28 49  1  0
M  END
>  <meeko>  (1) 
{"free_energy": -6.74, "intermolecular_energy": -7.93, "internal_energy": -2.68, "cluster_size": 2, "cluster_id": 2, "rank_in_cluster": 1}

$$$$

     RDKit          3D

 49 53  0  0  0  0  0  0  0  0999 V2000
  140.4390   75.8730  219.1650 O   0  0  0  0  0  0  0  0  0  0  0  0
  141.2430   77.0080  218.5950 S   0  0  0  0  0  0  0  0  0  0  0  0
  140.5540   77.5100  217.3560 O   0  0  0  0  0  0  0  0  0  0  0  0
  142.8900   76.4400  218.1970 C   0  0  0  0  0  0  0  0  0  0  0  0
  143.2260   75.1990  218.9740 C   0  0  0  0  0  0  0  0  0  0  0  0
  142.6460   73.9680  218.6260 C   0  0  0  0  0  0  0  0  0  0  0  0
  142.9310   72.8200  219.3710 C   0  0  0  0  0  0  0  0  0  0  0  0
  143.7890   72.8950  220.4730 C   0  0  0  0  0  0  0  0  0  0  0  0
  144.3600   74.1190  220.8320 C   0  0  0  0  0  0  0  0  0  0  0  0
  144.0770   75.2690  220.0900 C   0  0  0  0  0  0  0  0  0  0  0  0
  141.3540   78.2880  219.7660 N   0  0  0  0  0  0  0  0  0  0  0  0
  141.1250   79.6310  219.3110 C   0  0  0  0  0  0  0  0  0  0  0  0
  141.2620   80.6710  220.1290 C   0  0  0  0  0  0  0  0  0  0  0  0
  141.6500   80.4810  221.5320 C   0  0  0  0  0  0  0  0  0  0  0  0
  141.8320   81.5950  222.3640 C   0  0  0  0  0  0  0  0  0  0  0  0
  142.2160   81.4240  223.6970 C   0  0  0  0  0  0  0  0  0  0  0  0
  142.4250   80.1410  224.2050 C   0  0  0  0  0  0  0  0  0  0  0  0
  142.2440   79.0240  223.3840 C   0  0  0  0  0  0  0  0  0  0  0  0
  141.8460   79.1820  222.0440 C   0  0  0  0  0  0  0  0  0  0  0  0
  141.6400   77.9580  221.1740 C   0  0  1  0  0  0  0  0  0  0  0  0
  140.5380   77.0940  221.7370 C   0  0  0  0  0  0  0  0  0  0  0  0
  140.6220   75.7280  221.9940 C   0  0  0  0  0  0  0  0  0  0  0  0
  139.4390   75.2550  222.4450 N   0  0  0  0  0  0  0  0  0  0  0  0
  138.6060   76.3070  222.4750 C   0  0  0  0  0  0  0  0  0  0  0  0
  137.2630   76.3070  222.8510 C   0  0  0  0  0  0  0  0  0  0  0  0
  136.5630   77.5240  222.7910 C   0  0  0  0  0  0  0  0  0  0  0  0
  137.2110   78.7020  222.3570 C   0  0  0  0  0  0  0  0  0  0  0  0
  138.5660   78.6720  221.9810 C   0  0  0  0  0  0  0  0  0  0  0  0
  139.2380   77.4500  222.0530 C   0  0  0  0  0  0  0  0  0  0  0  0
  142.9453   76.2184  217.1210 H   0  0  0  0  0  0  0  0  0  0  0  0
  143.6097   77.2287  218.4618 H   0  0  0  0  0  0  0  0  0  0  0  0
  141.9651   73.9071  217.7642 H   0  0  0  0  0  0  0  0  0  0  0  0
  142.4800   71.8568  219.0903 H   0  0  0  0  0  0  0  0  0  0  0  0
  144.0144   71.9906  221.0571 H   0  0  0  0  0  0  0  0  0  0  0  0
  145.0332   74.1774  221.7000 H   0  0  0  0  0  0  0  0  0  0  0  0
  144.5219   76.2321  220.3806 H   0  0  0  0  0  0  0  0  0  0  0  0
  140.8304   79.8029  218.2652 H   0  0  0  0  0  0  0  0  0  0  0  0
  141.0821   81.6874  219.7489 H   0  0  0  0  0  0  0  0  0  0  0  0
  141.6719   82.6078  221.9659 H   0  0  0  0  0  0  0  0  0  0  0  0
  142.3536   82.3013  224.3462 H   0  0  0  0  0  0  0  0  0  0  0  0
  142.7326   80.0085  225.2528 H   0  0  0  0  0  0  0  0  0  0  0  0
  142.4139   78.0152  223.7884 H   0  0  0  0  0  0  0  0  0  0  0  0
  142.5906   77.4046  221.1838 H   0  0  0  0  0  0  0  0  0  0  0  0
  141.5261   75.1183  221.8499 H   0  0  0  0  0  0  0  0  0  0  0  0
  139.2200   74.2670  222.7030 H   0  0  0  0  0  0  0  0  0  0  0  0
  136.7672   75.3833  223.1841 H   0  0  0  0  0  0  0  0  0  0  0  0
  135.5033   77.5597  223.0839 H   0  0  0  0  0  0  0  0  0  0  0  0
  136.6523   79.6486  222.3129 H   0  0  0  0  0  0  0  0  0  0  0  0
  139.0804   79.5829  221.6408 H   0  0  0  0  0  0  0  0  0  0  0  0
  1  2  2  0
  2  3  2  0
  2  4  1  0
  4  5  1  0
  5  6  2  0
  6  7  1  0
  7  8  2  0
  8  9  1  0
  9 10  2  0
  2 11  1  0
 11 12  1  0
 12 13  2  0
 13 14  1  0
 14 15  2  0
 15 16  1  0
 16 17  2  0
 17 18  1  0
 18 19  2  0
 19 20  1  0
 20 21  1  0
 21 22  2  0
 22 23  1  0
 23 24  1  0
 24 25  2  0
 25 26  1  0
 26 27  2  0
 27 28  1  0
 28 29  2  0
 10  5  1  0
 20 11  1  0
 29 21  1  0
 19 14  1  0
 29 24  1  0
  4 30  1  0
  4 31  1  0
  6 32  1  0
  7 33  1  0
  8 34  1  0
  9 35  1  0
 10 36  1  0
 12 37  1  0
 13 38  1  0
 15 39  1  0
 16 40  1  0
 17 41  1  0
 18 42  1  0
 20 43  1  6
 22 44  1  0
 23 45  1  0
 25 46  1  0
 26 47  1  0
 27 48  1  0
 28 49  1  0
M  END
>  <meeko>  (2) 
{"free_energy": -7.59, "intermolecular_energy": -8.78, "internal_energy": -2.17, "cluster_size": 18, "cluster_id": 1, "rank_in_cluster": 8}

$$$$

     RDKit          3D

 49 53  0  0  0  0  0  0  0  0999 V2000
  140.6660   75.7210  219.2040 O   0  0  0  0  0  0  0  0  0  0  0  0
  141.5070   76.8380  218.6520 S   0  0  0  0  0  0  0  0  0  0  0  0
  140.9040   77.2940  217.3510 O   0  0  0  0  0  0  0  0  0  0  0  0
  143.1780   76.2610  218.3880 C   0  0  0  0  0  0  0  0  0  0  0  0
  143.4370   75.0060  219.1720 C   0  0  0  0  0  0  0  0  0  0  0  0
  144.4490   74.9770  220.1460 C   0  0  0  0  0  0  0  0  0  0  0  0
  144.7130   73.7990  220.8510 C   0  0  0  0  0  0  0  0  0  0  0  0
  143.9770   72.6410  220.5820 C   0  0  0  0  0  0  0  0  0  0  0  0
  142.9770   72.6600  219.6050 C   0  0  0  0  0  0  0  0  0  0  0  0
  142.7090   73.8350  218.8980 C   0  0  0  0  0  0  0  0  0  0  0  0
  141.5360   78.1580  219.7820 N   0  0  0  0  0  0  0  0  0  0  0  0
  141.3210   79.4820  219.2680 C   0  0  0  0  0  0  0  0  0  0  0  0
  141.3990   80.5510  220.0560 C   0  0  0  0  0  0  0  0  0  0  0  0
  141.7060   80.4120  221.4860 C   0  0  0  0  0  0  0  0  0  0  0  0
  141.8280   81.5570  222.2880 C   0  0  0  0  0  0  0  0  0  0  0  0
  142.1350   81.4360  223.6460 C   0  0  0  0  0  0  0  0  0  0  0  0
  142.3260   80.1730  224.2090 C   0  0  0  0  0  0  0  0  0  0  0  0
  142.2040   79.0270  223.4180 C   0  0  0  0  0  0  0  0  0  0  0  0
  141.8850   79.1340  222.0530 C   0  0  0  0  0  0  0  0  0  0  0  0
  141.7420   77.8790  221.2150 C   0  0  1  0  0  0  0  0  0  0  0  0
  140.6170   77.0210  221.7420 C   0  0  0  0  0  0  0  0  0  0  0  0
  140.6800   75.6520  221.9830 C   0  0  0  0  0  0  0  0  0  0  0  0
  139.4810   75.1870  222.4020 N   0  0  0  0  0  0  0  0  0  0  0  0
  138.6600   76.2490  222.4260 C   0  0  0  0  0  0  0  0  0  0  0  0
  137.3090   76.2610  222.7730 C   0  0  0  0  0  0  0  0  0  0  0  0
  136.6250   77.4870  222.7120 C   0  0  0  0  0  0  0  0  0  0  0  0
  137.2970   78.6620  222.3090 C   0  0  0  0  0  0  0  0  0  0  0  0
  138.6590   78.6200  221.9620 C   0  0  0  0  0  0  0  0  0  0  0  0
  139.3150   77.3890  222.0330 C   0  0  0  0  0  0  0  0  0  0  0  0
  143.3237   76.0544  217.3174 H   0  0  0  0  0  0  0  0  0  0  0  0
  143.8782   77.0394  218.7255 H   0  0  0  0  0  0  0  0  0  0  0  0
  145.0355   75.8840  220.3545 H   0  0  0  0  0  0  0  0  0  0  0  0
  145.5009   73.7831  221.6185 H   0  0  0  0  0  0  0  0  0  0  0  0
  144.1847   71.7154  221.1388 H   0  0  0  0  0  0  0  0  0  0  0  0
  142.4000   71.7479  219.3925 H   0  0  0  0  0  0  0  0  0  0  0  0
  141.9264   73.8438  218.1250 H   0  0  0  0  0  0  0  0  0  0  0  0
  141.0872   79.6146  218.2014 H   0  0  0  0  0  0  0  0  0  0  0  0
  141.2315   81.5518  219.6314 H   0  0  0  0  0  0  0  0  0  0  0  0
  141.6814   82.5536  221.8461 H   0  0  0  0  0  0  0  0  0  0  0  0
  142.2261   82.3363  224.2714 H   0  0  0  0  0  0  0  0  0  0  0  0
  142.5729   80.0794  225.2768 H   0  0  0  0  0  0  0  0  0  0  0  0
  142.3586   78.0346  223.8666 H   0  0  0  0  0  0  0  0  0  0  0  0
  142.6957   77.3374  221.2995 H   0  0  0  0  0  0  0  0  0  0  0  0
  141.5801   75.0337  221.8510 H   0  0  0  0  0  0  0  0  0  0  0  0
  139.2440   74.1990  222.6420 H   0  0  0  0  0  0  0  0  0  0  0  0
  136.7952   75.3397  223.0846 H   0  0  0  0  0  0  0  0  0  0  0  0
  135.5591   77.5318  222.9799 H   0  0  0  0  0  0  0  0  0  0  0  0
  136.7514   79.6162  222.2663 H   0  0  0  0  0  0  0  0  0  0  0  0
  139.1914   79.5287  221.6444 H   0  0  0  0  0  0  0  0  0  0  0  0
  1  2  2  0
  2  3  2  0
  2  4  1  0
  4  5  1  0
  5  6  2  0
  6  7  1  0
  7  8  2  0
  8  9  1  0
  9 10  2  0
  2 11  1  0
 11 12  1  0
 12 13  2  0
 13 14  1  0
 14 15  2  0
 15 16  1  0
 16 17  2  0
 17 18  1  0
 18 19  2  0
 19 20  1  0
 20 21  1  0
 21 22  2  0
 22 23  1  0
 23 24  1  0
 24 25  2  0
 25 26  1  0
 26 27  2  0
 27 28  1  0
 28 29  2  0
 10  5  1  0
 20 11  1  0
 29 21  1  0
 19 14  1  0
 29 24  1  0
  4 30  1  0
  4 31  1  0
  6 32  1  0
  7 33  1  0
  8 34  1  0
  9 35  1  0
 10 36  1  0
 12 37  1  0
 13 38  1  0
 15 39  1  0
 16 40  1  0
 17 41  1  0
 18 42  1  0
 20 43  1  6
 22 44  1  0
 23 45  1  0
 25 46  1  0
 26 47  1  0
 27 48  1  0
 28 49  1  0
M  END
>  <meeko>  (3) 
{"free_energy": -7.76, "intermolecular_energy": -8.95, "internal_energy": -2.01, "cluster_size": 18, "cluster_id": 1, "rank_in_cluster": 3}

$$$$

     RDKit          3D

 49 53  0  0  0  0  0  0  0  0999 V2000
  139.6680   76.4530  219.0810 O   0  0  0  0  0  0  0  0  0  0  0  0
  140.5390   77.5610  218.5560 S   0  0  0  0  0  0  0  0  0  0  0  0
  139.8250   78.2330  217.4150 O   0  0  0  0  0  0  0  0  0  0  0  0
  142.0980   76.8890  217.9980 C   0  0  0  0  0  0  0  0  0  0  0  0
  142.5550   75.7820  218.9040 C   0  0  0  0  0  0  0  0  0  0  0  0
  143.7410   75.9200  219.6460 C   0  0  0  0  0  0  0  0  0  0  0  0
  144.1840   74.8750  220.4620 C   0  0  0  0  0  0  0  0  0  0  0  0
  143.4540   73.6850  220.5370 C   0  0  0  0  0  0  0  0  0  0  0  0
  142.2810   73.5370  219.7920 C   0  0  0  0  0  0  0  0  0  0  0  0
  141.8330   74.5790  218.9740 C   0  0  0  0  0  0  0  0  0  0  0  0
  140.8400   78.7130  219.8220 N   0  0  0  0  0  0  0  0  0  0  0  0
  140.5690   80.0960  219.5450 C   0  0  0  0  0  0  0  0  0  0  0  0
  140.8410   81.0460  220.4360 C   0  0  0  0  0  0  0  0  0  0  0  0
  141.4270   80.7110  221.7410 C   0  0  0  0  0  0  0  0  0  0  0  0
  141.7460   81.7330  222.6460 C   0  0  0  0  0  0  0  0  0  0  0  0
  142.3180   81.4250  223.8830 C   0  0  0  0  0  0  0  0  0  0  0  0
  142.5770   80.0960  224.2220 C   0  0  0  0  0  0  0  0  0  0  0  0
  142.2600   79.0710  223.3270 C   0  0  0  0  0  0  0  0  0  0  0  0
  141.6740   79.3660  222.0830 C   0  0  0  0  0  0  0  0  0  0  0  0
  141.3230   78.2390  221.1330 C   0  0  1  0  0  0  0  0  0  0  0  0
  140.3010   77.3220  221.7600 C   0  0  0  0  0  0  0  0  0  0  0  0
  140.4600   75.9590  221.9890 C   0  0  0  0  0  0  0  0  0  0  0  0
  139.3330   75.4300  222.5170 N   0  0  0  0  0  0  0  0  0  0  0  0
  138.4610   76.4460  222.6220 C   0  0  0  0  0  0  0  0  0  0  0  0
  137.1500   76.3850  223.0940 C   0  0  0  0  0  0  0  0  0  0  0  0
  136.3980   77.5720  223.1020 C   0  0  0  0  0  0  0  0  0  0  0  0
  136.9650   78.7810  222.6410 C   0  0  0  0  0  0  0  0  0  0  0  0
  138.2890   78.8130  222.1680 C   0  0  0  0  0  0  0  0  0  0  0  0
  139.0130   77.6190  222.1730 C   0  0  0  0  0  0  0  0  0  0  0  0
  141.9765   76.4940  216.9786 H   0  0  0  0  0  0  0  0  0  0  0  0
  142.8523   77.6896  218.0104 H   0  0  0  0  0  0  0  0  0  0  0  0
  144.3216   76.8522  219.5844 H   0  0  0  0  0  0  0  0  0  0  0  0
  145.1089   74.9892  221.0463 H   0  0  0  0  0  0  0  0  0  0  0  0
  143.8029   72.8653  221.1823 H   0  0  0  0  0  0  0  0  0  0  0  0
  141.7090   72.5991  219.8491 H   0  0  0  0  0  0  0  0  0  0  0  0
  140.9129   74.4563  218.3838 H   0  0  0  0  0  0  0  0  0  0  0  0
  140.1278   80.3754  218.5769 H   0  0  0  0  0  0  0  0  0  0  0  0
  140.6242   82.0965  220.1923 H   0  0  0  0  0  0  0  0  0  0  0  0
  141.5452   82.7816  222.3812 H   0  0  0  0  0  0  0  0  0  0  0  0
  142.5644   82.2306  224.5903 H   0  0  0  0  0  0  0  0  0  0  0  0
  143.0311   79.8554  225.1946 H   0  0  0  0  0  0  0  0  0  0  0  0
  142.4703   78.0257  223.5973 H   0  0  0  0  0  0  0  0  0  0  0  0
  142.2559   77.6866  220.9474 H   0  0  0  0  0  0  0  0  0  0  0  0
  141.3759   75.3902  221.7707 H   0  0  0  0  0  0  0  0  0  0  0  0
  139.1730   74.4310  222.7750 H   0  0  0  0  0  0  0  0  0  0  0  0
  136.7183   75.4375  223.4488 H   0  0  0  0  0  0  0  0  0  0  0  0
  135.3613   77.5597  223.4696 H   0  0  0  0  0  0  0  0  0  0  0  0
  136.3666   79.7039  222.6521 H   0  0  0  0  0  0  0  0  0  0  0  0
  138.7398   79.7487  221.8057 H   0  0  0  0  0  0  0  0  0  0  0  0
  1  2  2  0
  2  3  2  0
  2  4  1  0
  4  5  1  0
  5  6  2  0
  6  7  1  0
  7  8  2  0
  8  9  1  0
  9 10  2  0
  2 11  1  0
 11 12  1  0
 12 13  2  0
 13 14  1  0
 14 15  2  0
 15 16  1  0
 16 17  2  0
 17 18  1  0
 18 19  2  0
 19 20  1  0
 20 21  1  0
 21 22  2  0
 22 23  1  0
 23 24  1  0
 24 25  2  0
 25 26  1  0
 26 27  2  0
 27 28  1  0
 28 29  2  0
 10  5  1  0
 20 11  1  0
 29 21  1  0
 19 14  1  0
 29 24  1  0
  4 30  1  0
  4 31  1  0
  6 32  1  0
  7 33  1  0
  8 34  1  0
  9 35  1  0
 10 36  1  0
 12 37  1  0
 13 38  1  0
 15 39  1  0
 16 40  1  0
 17 41  1  0
 18 42  1  0
 20 43  1  6
 22 44  1  0
 23 45  1  0
 25 46  1  0
 26 47  1  0
 27 48  1  0
 28 49  1  0
M  END
>  <meeko>  (4) 
{"free_energy": -7.24, "intermolecular_energy": -8.43, "internal_energy": -2.41, "cluster_size": 18, "cluster_id": 1, "rank_in_cluster": 18}

$$$$

     RDKit          3D

 49 53  0  0  0  0  0  0  0  0999 V2000
  140.3130   75.9680  219.1250 O   0  0  0  0  0  0  0  0  0  0  0  0
  141.1830   77.0720  218.5930 S   0  0  0  0  0  0  0  0  0  0  0  0
  140.5640   77.6040  217.3290 O   0  0  0  0  0  0  0  0  0  0  0  0
  142.8210   76.4400  218.2580 C   0  0  0  0  0  0  0  0  0  0  0  0
  143.1050   75.2280  219.0980 C   0  0  0  0  0  0  0  0  0  0  0  0
  144.1020   75.2710  220.0870 C   0  0  0  0  0  0  0  0  0  0  0  0
  144.3900   74.1320  220.8450 C   0  0  0  0  0  0  0  0  0  0  0  0
  143.6930   72.9430  220.6160 C   0  0  0  0  0  0  0  0  0  0  0  0
  142.7080   72.8900  219.6250 C   0  0  0  0  0  0  0  0  0  0  0  0
  142.4160   74.0260  218.8640 C   0  0  0  0  0  0  0  0  0  0  0  0
  141.2970   78.3440  219.7720 N   0  0  0  0  0  0  0  0  0  0  0  0
  141.0570   79.6890  219.3300 C   0  0  0  0  0  0  0  0  0  0  0  0
  141.1950   80.7230  220.1550 C   0  0  0  0  0  0  0  0  0  0  0  0
  141.5970   80.5230  221.5540 C   0  0  0  0  0  0  0  0  0  0  0  0
  141.7800   81.6320  222.3940 C   0  0  0  0  0  0  0  0  0  0  0  0
  142.1760   81.4520  223.7210 C   0  0  0  0  0  0  0  0  0  0  0  0
  142.3960   80.1660  224.2170 C   0  0  0  0  0  0  0  0  0  0  0  0
  142.2140   79.0550  223.3890 C   0  0  0  0  0  0  0  0  0  0  0  0
  141.8040   79.2220  222.0540 C   0  0  0  0  0  0  0  0  0  0  0  0
  141.5970   78.0040  221.1760 C   0  0  1  0  0  0  0  0  0  0  0  0
  140.5050   77.1280  221.7410 C   0  0  0  0  0  0  0  0  0  0  0  0
  140.6040   75.7650  222.0000 C   0  0  0  0  0  0  0  0  0  0  0  0
  139.4270   75.2790  222.4530 N   0  0  0  0  0  0  0  0  0  0  0  0
  138.5820   76.3220  222.4820 C   0  0  0  0  0  0  0  0  0  0  0  0
  137.2390   76.3090  222.8590 C   0  0  0  0  0  0  0  0  0  0  0  0
  136.5260   77.5180  222.7970 C   0  0  0  0  0  0  0  0  0  0  0  0
  137.1620   78.7020  222.3610 C   0  0  0  0  0  0  0  0  0  0  0  0
  138.5160   78.6860  221.9840 C   0  0  0  0  0  0  0  0  0  0  0  0
  139.2010   77.4710  222.0570 C   0  0  0  0  0  0  0  0  0  0  0  0
  142.8921   76.1671  217.1948 H   0  0  0  0  0  0  0  0  0  0  0  0
  143.5574   77.2197  218.5022 H   0  0  0  0  0  0  0  0  0  0  0  0
  144.6576   76.2035  220.2655 H   0  0  0  0  0  0  0  0  0  0  0  0
  145.1666   74.1721  221.6230 H   0  0  0  0  0  0  0  0  0  0  0  0
  143.9191   72.0487  221.2152 H   0  0  0  0  0  0  0  0  0  0  0  0
  142.1617   71.9526  219.4437 H   0  0  0  0  0  0  0  0  0  0  0  0
  141.6453   73.9786  218.0805 H   0  0  0  0  0  0  0  0  0  0  0  0
  140.7529   79.8677  218.2881 H   0  0  0  0  0  0  0  0  0  0  0  0
  141.0057   81.7415  219.7850 H   0  0  0  0  0  0  0  0  0  0  0  0
  141.6109   82.6472  222.0057 H   0  0  0  0  0  0  0  0  0  0  0  0
  142.3147   82.3247  224.3761 H   0  0  0  0  0  0  0  0  0  0  0  0
  142.7131   80.0268  225.2611 H   0  0  0  0  0  0  0  0  0  0  0  0
  142.3925   78.0439  223.7837 H   0  0  0  0  0  0  0  0  0  0  0  0
  142.5509   77.4562  221.1737 H   0  0  0  0  0  0  0  0  0  0  0  0
  141.5148   75.1652  221.8560 H   0  0  0  0  0  0  0  0  0  0  0  0
  139.2180   74.2900  222.7130 H   0  0  0  0  0  0  0  0  0  0  0  0
  136.7532   75.3808  223.1945 H   0  0  0  0  0  0  0  0  0  0  0  0
  135.4660   77.5430  223.0897 H   0  0  0  0  0  0  0  0  0  0  0  0
  136.5936   79.6427  222.3163 H   0  0  0  0  0  0  0  0  0  0  0  0
  139.0204   79.6018  221.6421 H   0  0  0  0  0  0  0  0  0  0  0  0
  1  2  2  0
  2  3  2  0
  2  4  1  0
  4  5  1  0
  5  6  2  0
  6  7  1  0
  7  8  2  0
  8  9  1  0
  9 10  2  0
  2 11  1  0
 11 12  1  0
 12 13  2  0
 13 14  1  0
 14 15  2  0
 15 16  1  0
 16 17  2  0
 17 18  1  0
 18 19  2  0
 19 20  1  0
 20 21  1  0
 21 22  2  0
 22 23  1  0
 23 24  1  0
 24 25  2  0
 25 26  1  0
 26 27  2  0
 27 28  1  0
 28 29  2  0
 10  5  1  0
 20 11  1  0
 29 21  1  0
 19 14  1  0
 29 24  1  0
  4 30  1  0
  4 31  1  0
  6 32  1  0
  7 33  1  0
  8 34  1  0
  9 35  1  0
 10 36  1  0
 12 37  1  0
 13 38  1  0
 15 39  1  0
 16 40  1  0
 17 41  1  0
 18 42  1  0
 20 43  1  6
 22 44  1  0
 23 45  1  0
 25 46  1  0
 26 47  1  0
 27 48  1  0
 28 49  1  0
M  END
>  <meeko>  (5) 
{"free_energy": -7.58, "intermolecular_energy": -8.77, "internal_energy": -2.21, "cluster_size": 18, "cluster_id": 1, "rank_in_cluster": 12}

$$$$

     RDKit          3D

 49 53  0  0  0  0  0  0  0  0999 V2000
  140.7220   75.7170  219.2570 O   0  0  0  0  0  0  0  0  0  0  0  0
  141.5350   76.8420  218.6780 S   0  0  0  0  0  0  0  0  0  0  0  0
  140.9010   77.2750  217.3840 O   0  0  0  0  0  0  0  0  0  0  0  0
  143.2090   76.2900  218.3890 C   0  0  0  0  0  0  0  0  0  0  0  0
  143.4850   75.0170  219.1380 C   0  0  0  0  0  0  0  0  0  0  0  0
  144.4360   74.9980  220.1730 C   0  0  0  0  0  0  0  0  0  0  0  0
  144.7190   73.8050  220.8450 C   0  0  0  0  0  0  0  0  0  0  0  0
  144.0620   72.6240  220.4840 C   0  0  0  0  0  0  0  0  0  0  0  0
  143.1250   72.6340  219.4480 C   0  0  0  0  0  0  0  0  0  0  0  0
  142.8390   73.8240  218.7720 C   0  0  0  0  0  0  0  0  0  0  0  0
  141.5620   78.1750  219.7940 N   0  0  0  0  0  0  0  0  0  0  0  0
  141.3610   79.4940  219.2640 C   0  0  0  0  0  0  0  0  0  0  0  0
  141.4390   80.5710  220.0410 C   0  0  0  0  0  0  0  0  0  0  0  0
  141.7310   80.4460  221.4750 C   0  0  0  0  0  0  0  0  0  0  0  0
  141.8530   81.5980  222.2660 C   0  0  0  0  0  0  0  0  0  0  0  0
  142.1460   81.4900  223.6280 C   0  0  0  0  0  0  0  0  0  0  0  0
  142.3230   80.2320  224.2070 C   0  0  0  0  0  0  0  0  0  0  0  0
  142.2010   79.0780  223.4270 C   0  0  0  0  0  0  0  0  0  0  0  0
  141.8950   79.1730  222.0570 C   0  0  0  0  0  0  0  0  0  0  0  0
  141.7520   77.9100  221.2320 C   0  0  1  0  0  0  0  0  0  0  0  0
  140.6160   77.0650  221.7570 C   0  0  0  0  0  0  0  0  0  0  0  0
  140.6640   75.6970  222.0050 C   0  0  0  0  0  0  0  0  0  0  0  0
  139.4590   75.2460  222.4200 N   0  0  0  0  0  0  0  0  0  0  0  0
  138.6480   76.3150  222.4350 C   0  0  0  0  0  0  0  0  0  0  0  0
  137.2950   76.3420  222.7740 C   0  0  0  0  0  0  0  0  0  0  0  0
  136.6240   77.5740  222.7040 C   0  0  0  0  0  0  0  0  0  0  0  0
  137.3090   78.7410  222.2980 C   0  0  0  0  0  0  0  0  0  0  0  0
  138.6730   78.6840  221.9590 C   0  0  0  0  0  0  0  0  0  0  0  0
  139.3160   77.4470  222.0400 C   0  0  0  0  0  0  0  0  0  0  0  0
  143.3503   76.1135  217.3125 H   0  0  0  0  0  0  0  0  0  0  0  0
  143.9035   77.0662  218.7428 H   0  0  0  0  0  0  0  0  0  0  0  0
  144.9588   75.9239  220.4549 H   0  0  0  0  0  0  0  0  0  0  0  0
  145.4592   73.7951  221.6586 H   0  0  0  0  0  0  0  0  0  0  0  0
  144.2833   71.6871  221.0161 H   0  0  0  0  0  0  0  0  0  0  0  0
  142.6112   71.7039  219.1635 H   0  0  0  0  0  0  0  0  0  0  0  0
  142.1064   73.8263  217.9515 H   0  0  0  0  0  0  0  0  0  0  0  0
  141.1380   79.6166  218.1938 H   0  0  0  0  0  0  0  0  0  0  0  0
  141.2828   81.5682  219.6038 H   0  0  0  0  0  0  0  0  0  0  0  0
  141.7174   82.5908  221.8121 H   0  0  0  0  0  0  0  0  0  0  0  0
  142.2372   82.3966  224.2443 H   0  0  0  0  0  0  0  0  0  0  0  0
  142.5587   80.1486  225.2782 H   0  0  0  0  0  0  0  0  0  0  0  0
  142.3452   78.0895  223.8874 H   0  0  0  0  0  0  0  0  0  0  0  0
  142.7010   77.3629  221.3322 H   0  0  0  0  0  0  0  0  0  0  0  0
  141.5586   75.0691  221.8806 H   0  0  0  0  0  0  0  0  0  0  0  0
  139.2110   74.2610  222.6640 H   0  0  0  0  0  0  0  0  0  0  0  0
  136.7701   75.4272  223.0863 H   0  0  0  0  0  0  0  0  0  0  0  0
  135.5574   77.6306  222.9672 H   0  0  0  0  0  0  0  0  0  0  0  0
  136.7725   79.6999  222.2467 H   0  0  0  0  0  0  0  0  0  0  0  0
  139.2163   79.5857  221.6400 H   0  0  0  0  0  0  0  0  0  0  0  0
  1  2  2  0
  2  3  2  0
  2  4  1  0
  4  5  1  0
  5  6  2  0
  6  7  1  0
  7  8  2  0
  8  9  1  0
  9 10  2  0
  2 11  1  0
 11 12  1  0
 12 13  2  0
 13 14  1  0
 14 15  2  0
 15 16  1  0
 16 17  2  0
 17 18  1  0
 18 19  2  0
 19 20  1  0
 20 21  1  0
 21 22  2  0
 22 23  1  0
 23 24  1  0
 24 25  2  0
 25 26  1  0
 26 27  2  0
 27 28  1  0
 28 29  2  0
 10  5  1  0
 20 11  1  0
 29 21  1  0
 19 14  1  0
 29 24  1  0
  4 30  1  0
  4 31  1  0
  6 32  1  0
  7 33  1  0
  8 34  1  0
  9 35  1  0
 10 36  1  0
 12 37  1  0
 13 38  1  0
 15 39  1  0
 16 40  1  0
 17 41  1  0
 18 42  1  0
 20 43  1  6
 22 44  1  0
 23 45  1  0
 25 46  1  0
 26 47  1  0
 27 48  1  0
 28 49  1  0
M  END
>  <meeko>  (6) 
{"free_energy": -7.77, "intermolecular_energy": -8.96, "internal_energy": -1.98, "cluster_size": 18, "cluster_id": 1, "rank_in_cluster": 1}

$$$$

     RDKit          3D

 49 53  0  0  0  0  0  0  0  0999 V2000
  140.3970   75.8880  219.1540 O   0  0  0  0  0  0  0  0  0  0  0  0
  141.2310   77.0070  218.5970 S   0  0  0  0  0  0  0  0  0  0  0  0
  140.5760   77.5130  217.3400 O   0  0  0  0  0  0  0  0  0  0  0  0
  142.8770   76.4110  218.2360 C   0  0  0  0  0  0  0  0  0  0  0  0
  143.1870   75.1860  219.0480 C   0  0  0  0  0  0  0  0  0  0  0  0
  144.1250   75.2490  220.0920 C   0  0  0  0  0  0  0  0  0  0  0  0
  144.4400   74.1010  220.8250 C   0  0  0  0  0  0  0  0  0  0  0  0
  143.8300   72.8820  220.5150 C   0  0  0  0  0  0  0  0  0  0  0  0
  142.9050   72.8100  219.4690 C   0  0  0  0  0  0  0  0  0  0  0  0
  142.5870   73.9550  218.7340 C   0  0  0  0  0  0  0  0  0  0  0  0
  141.3370   78.2920  219.7630 N   0  0  0  0  0  0  0  0  0  0  0  0
  141.1130   79.6330  219.3020 C   0  0  0  0  0  0  0  0  0  0  0  0
  141.2470   80.6760  220.1170 C   0  0  0  0  0  0  0  0  0  0  0  0
  141.6270   80.4900  221.5240 C   0  0  0  0  0  0  0  0  0  0  0  0
  141.8060   81.6070  222.3530 C   0  0  0  0  0  0  0  0  0  0  0  0
  142.1830   81.4400  223.6880 C   0  0  0  0  0  0  0  0  0  0  0  0
  142.3870   80.1580  224.2020 C   0  0  0  0  0  0  0  0  0  0  0  0
  142.2080   79.0390  223.3840 C   0  0  0  0  0  0  0  0  0  0  0  0
  141.8180   79.1930  222.0410 C   0  0  0  0  0  0  0  0  0  0  0  0
  141.6150   77.9660  221.1740 C   0  0  1  0  0  0  0  0  0  0  0  0
  140.5080   77.1050  221.7340 C   0  0  0  0  0  0  0  0  0  0  0  0
  140.5920   75.7420  222.0040 C   0  0  0  0  0  0  0  0  0  0  0  0
  139.4050   75.2710  222.4480 N   0  0  0  0  0  0  0  0  0  0  0  0
  138.5700   76.3220  222.4600 C   0  0  0  0  0  0  0  0  0  0  0  0
  137.2240   76.3240  222.8230 C   0  0  0  0  0  0  0  0  0  0  0  0
  136.5230   77.5390  222.7440 C   0  0  0  0  0  0  0  0  0  0  0  0
  137.1740   78.7140  222.3060 C   0  0  0  0  0  0  0  0  0  0  0  0
  138.5320   78.6830  221.9440 C   0  0  0  0  0  0  0  0  0  0  0  0
  139.2050   77.4620  222.0340 C   0  0  0  0  0  0  0  0  0  0  0  0
  142.9447   76.1623  217.1666 H   0  0  0  0  0  0  0  0  0  0  0  0
  143.6023   77.1977  218.4910 H   0  0  0  0  0  0  0  0  0  0  0  0
  144.6132   76.2047  220.3334 H   0  0  0  0  0  0  0  0  0  0  0  0
  145.1689   74.1570  221.6469 H   0  0  0  0  0  0  0  0  0  0  0  0
  144.0776   71.9799  221.0937 H   0  0  0  0  0  0  0  0  0  0  0  0
  142.4267   71.8501  219.2242 H   0  0  0  0  0  0  0  0  0  0  0  0
  141.8646   73.8924  217.9068 H   0  0  0  0  0  0  0  0  0  0  0  0
  140.8248   79.8015  218.2539 H   0  0  0  0  0  0  0  0  0  0  0  0
  141.0709   81.6914  219.7322 H   0  0  0  0  0  0  0  0  0  0  0  0
  141.6490   82.6186  221.9506 H   0  0  0  0  0  0  0  0  0  0  0  0
  142.3192   82.3194  224.3347 H   0  0  0  0  0  0  0  0  0  0  0  0
  142.6889   80.0285  225.2518 H   0  0  0  0  0  0  0  0  0  0  0  0
  142.3731   78.0313  223.7929 H   0  0  0  0  0  0  0  0  0  0  0  0
  142.5647   77.4111  221.1910 H   0  0  0  0  0  0  0  0  0  0  0  0
  141.4985   75.1326  221.8741 H   0  0  0  0  0  0  0  0  0  0  0  0
  139.1840   74.2850  222.7130 H   0  0  0  0  0  0  0  0  0  0  0  0
  136.7263   75.4030  223.1607 H   0  0  0  0  0  0  0  0  0  0  0  0
  135.4601   77.5757  223.0251 H   0  0  0  0  0  0  0  0  0  0  0  0
  136.6145   79.6593  222.2479 H   0  0  0  0  0  0  0  0  0  0  0  0
  139.0485   79.5915  221.6007 H   0  0  0  0  0  0  0  0  0  0  0  0
  1  2  2  0
  2  3  2  0
  2  4  1  0
  4  5  1  0
  5  6  2  0
  6  7  1  0
  7  8  2  0
  8  9  1  0
  9 10  2  0
  2 11  1  0
 11 12  1  0
 12 13  2  0
 13 14  1  0
 14 15  2  0
 15 16  1  0
 16 17  2  0
 17 18  1  0
 18 19  2  0
 19 20  1  0
 20 21  1  0
 21 22  2  0
 22 23  1  0
 23 24  1  0
 24 25  2  0
 25 26  1  0
 26 27  2  0
 27 28  1  0
 28 29  2  0
 10  5  1  0
 20 11  1  0
 29 21  1  0
 19 14  1  0
 29 24  1  0
  4 30  1  0
  4 31  1  0
  6 32  1  0
  7 33  1  0
  8 34  1  0
  9 35  1  0
 10 36  1  0
 12 37  1  0
 13 38  1  0
 15 39  1  0
 16 40  1  0
 17 41  1  0
 18 42  1  0
 20 43  1  6
 22 44  1  0
 23 45  1  0
 25 46  1  0
 26 47  1  0
 27 48  1  0
 28 49  1  0
M  END
>  <meeko>  (7) 
{"free_energy": -7.62, "intermolecular_energy": -8.81, "internal_energy": -2.16, "cluster_size": 18, "cluster_id": 1, "rank_in_cluster": 5}

$$$$

     RDKit          3D

 49 53  0  0  0  0  0  0  0  0999 V2000
  138.2200   77.4250  219.5750 O   0  0  0  0  0  0  0  0  0  0  0  0
  138.1080   78.9240  219.5960 S   0  0  0  0  0  0  0  0  0  0  0  0
  136.6710   79.2940  219.8420 O   0  0  0  0  0  0  0  0  0  0  0  0
  138.6580   79.5920  218.0320 C   0  0  0  0  0  0  0  0  0  0  0  0
  140.1310   79.8850  218.0680 C   0  0  0  0  0  0  0  0  0  0  0  0
  141.0600   78.8750  217.7620 C   0  0  0  0  0  0  0  0  0  0  0  0
  142.4310   79.1380  217.8290 C   0  0  0  0  0  0  0  0  0  0  0  0
  142.8840   80.4050  218.2110 C   0  0  0  0  0  0  0  0  0  0  0  0
  141.9650   81.4090  218.5290 C   0  0  0  0  0  0  0  0  0  0  0  0
  140.5930   81.1510  218.4630 C   0  0  0  0  0  0  0  0  0  0  0  0
  139.1060   79.5640  220.8670 N   0  0  0  0  0  0  0  0  0  0  0  0
  138.5500   80.5940  221.6990 C   0  0  0  0  0  0  0  0  0  0  0  0
  139.2730   81.1840  222.6460 C   0  0  0  0  0  0  0  0  0  0  0  0
  140.6720   80.7990  222.8760 C   0  0  0  0  0  0  0  0  0  0  0  0
  141.4290   81.4670  223.8500 C   0  0  0  0  0  0  0  0  0  0  0  0
  142.7650   81.1170  224.0660 C   0  0  0  0  0  0  0  0  0  0  0  0
  143.3530   80.1030  223.3080 C   0  0  0  0  0  0  0  0  0  0  0  0
  142.6060   79.4310  222.3370 C   0  0  0  0  0  0  0  0  0  0  0  0
  141.2570   79.7650  222.1180 C   0  0  0  0  0  0  0  0  0  0  0  0
  140.4590   79.0130  221.0720 C   0  0  1  0  0  0  0  0  0  0  0  0
  140.3740   77.5490  221.4270 C   0  0  0  0  0  0  0  0  0  0  0  0
  139.4870   76.9800  222.3360 C   0  0  0  0  0  0  0  0  0  0  0  0
  139.7140   75.6530  222.4560 N   0  0  0  0  0  0  0  0  0  0  0  0
  140.7380   75.3760  221.6340 C   0  0  0  0  0  0  0  0  0  0  0  0
  141.3460   74.1370  221.4330 C   0  0  0  0  0  0  0  0  0  0  0  0
  142.4240   74.0710  220.5330 C   0  0  0  0  0  0  0  0  0  0  0  0
  142.8680   75.2320  219.8630 C   0  0  0  0  0  0  0  0  0  0  0  0
  142.2380   76.4700  220.0870 C   0  0  0  0  0  0  0  0  0  0  0  0
  141.1690   76.5060  220.9840 C   0  0  0  0  0  0  0  0  0  0  0  0
  138.4547   78.8609  217.2356 H   0  0  0  0  0  0  0  0  0  0  0  0
  138.1158   80.5291  217.8375 H   0  0  0  0  0  0  0  0  0  0  0  0
  140.7069   77.8752  217.4691 H   0  0  0  0  0  0  0  0  0  0  0  0
  143.1547   78.3476  217.5810 H   0  0  0  0  0  0  0  0  0  0  0  0
  143.9633   80.6113  218.2611 H   0  0  0  0  0  0  0  0  0  0  0  0
  142.3224   82.4043  218.8319 H   0  0  0  0  0  0  0  0  0  0  0  0
  139.8731   81.9417  218.7211 H   0  0  0  0  0  0  0  0  0  0  0  0
  137.5044   80.9012  221.5497 H   0  0  0  0  0  0  0  0  0  0  0  0
  138.8177   81.9708  223.2654 H   0  0  0  0  0  0  0  0  0  0  0  0
  140.9695   82.2693  224.4460 H   0  0  0  0  0  0  0  0  0  0  0  0
  143.3533   81.6409  224.8337 H   0  0  0  0  0  0  0  0  0  0  0  0
  144.4060   79.8325  223.4753 H   0  0  0  0  0  0  0  0  0  0  0  0
  143.0758   78.6356  221.7399 H   0  0  0  0  0  0  0  0  0  0  0  0
  140.9991   79.1345  220.1215 H   0  0  0  0  0  0  0  0  0  0  0  0
  138.7087   77.5338  222.8815 H   0  0  0  0  0  0  0  0  0  0  0  0
  139.2030   74.9850  223.0760 H   0  0  0  0  0  0  0  0  0  0  0  0
  140.9931   73.2395  221.9621 H   0  0  0  0  0  0  0  0  0  0  0  0
  142.9247   73.1089  220.3496 H   0  0  0  0  0  0  0  0  0  0  0  0
  143.7124   75.1681  219.1610 H   0  0  0  0  0  0  0  0  0  0  0  0
  142.5771   77.3807  219.5716 H   0  0  0  0  0  0  0  0  0  0  0  0
  1  2  2  0
  2  3  2  0
  2  4  1  0
  4  5  1  0
  5  6  2  0
  6  7  1  0
  7  8  2  0
  8  9  1  0
  9 10  2  0
  2 11  1  0
 11 12  1  0
 12 13  2  0
 13 14  1  0
 14 15  2  0
 15 16  1  0
 16 17  2  0
 17 18  1  0
 18 19  2  0
 19 20  1  0
 20 21  1  0
 21 22  2  0
 22 23  1  0
 23 24  1  0
 24 25  2  0
 25 26  1  0
 26 27  2  0
 27 28  1  0
 28 29  2  0
 10  5  1  0
 20 11  1  0
 29 21  1  0
 19 14  1  0
 29 24  1  0
  4 30  1  0
  4 31  1  0
  6 32  1  0
  7 33  1  0
  8 34  1  0
  9 35  1  0
 10 36  1  0
 12 37  1  0
 13 38  1  0
 15 39  1  0
 16 40  1  0
 17 41  1  0
 18 42  1  0
 20 43  1  6
 22 44  1  0
 23 45  1  0
 25 46  1  0
 26 47  1  0
 27 48  1  0
 28 49  1  0
M  END
>  <meeko>  (8) 
{"free_energy": -6.71, "intermolecular_energy": -7.9, "internal_energy": -2.72, "cluster_size": 2, "cluster_id": 2, "rank_in_cluster": 2}

$$$$

     RDKit          3D

 49 53  0  0  0  0  0  0  0  0999 V2000
  140.2910   75.9880  219.1250 O   0  0  0  0  0  0  0  0  0  0  0  0
  141.1710   77.0830  218.5900 S   0  0  0  0  0  0  0  0  0  0  0  0
  140.5550   77.6210  217.3280 O   0  0  0  0  0  0  0  0  0  0  0  0
  142.8020   76.4350  218.2520 C   0  0  0  0  0  0  0  0  0  0  0  0
  143.0840   75.2330  219.1070 C   0  0  0  0  0  0  0  0  0  0  0  0
  144.1110   75.2720  220.0650 C   0  0  0  0  0  0  0  0  0  0  0  0
  144.3970   74.1420  220.8360 C   0  0  0  0  0  0  0  0  0  0  0  0
  143.6660   72.9640  220.6520 C   0  0  0  0  0  0  0  0  0  0  0  0
  142.6510   72.9150  219.6920 C   0  0  0  0  0  0  0  0  0  0  0  0
  142.3620   74.0420  218.9180 C   0  0  0  0  0  0  0  0  0  0  0  0
  141.3000   78.3540  219.7690 N   0  0  0  0  0  0  0  0  0  0  0  0
  141.0690   79.7010  219.3270 C   0  0  0  0  0  0  0  0  0  0  0  0
  141.2190   80.7350  220.1510 C   0  0  0  0  0  0  0  0  0  0  0  0
  141.6260   80.5320  221.5480 C   0  0  0  0  0  0  0  0  0  0  0  0
  141.8210   81.6400  222.3870 C   0  0  0  0  0  0  0  0  0  0  0  0
  142.2220   81.4570  223.7130 C   0  0  0  0  0  0  0  0  0  0  0  0
  142.4340   80.1690  224.2080 C   0  0  0  0  0  0  0  0  0  0  0  0
  142.2390   79.0600  223.3810 C   0  0  0  0  0  0  0  0  0  0  0  0
  141.8250   79.2290  222.0480 C   0  0  0  0  0  0  0  0  0  0  0  0
  141.6040   78.0120  221.1710 C   0  0  1  0  0  0  0  0  0  0  0  0
  140.5070   77.1460  221.7410 C   0  0  0  0  0  0  0  0  0  0  0  0
  140.5980   75.7830  222.0070 C   0  0  0  0  0  0  0  0  0  0  0  0
  139.4190   75.3070  222.4640 N   0  0  0  0  0  0  0  0  0  0  0  0
  138.5800   76.3550  222.4880 C   0  0  0  0  0  0  0  0  0  0  0  0
  137.2380   76.3510  222.8670 C   0  0  0  0  0  0  0  0  0  0  0  0
  136.5320   77.5650  222.7990 C   0  0  0  0  0  0  0  0  0  0  0  0
  137.1740   78.7430  222.3570 C   0  0  0  0  0  0  0  0  0  0  0  0
  138.5280   78.7170  221.9790 C   0  0  0  0  0  0  0  0  0  0  0  0
  139.2060   77.4980  222.0570 C   0  0  0  0  0  0  0  0  0  0  0  0
  142.8634   76.1466  217.1923 H   0  0  0  0  0  0  0  0  0  0  0  0
  143.5455   77.2130  218.4798 H   0  0  0  0  0  0  0  0  0  0  0  0
  144.6919   76.1950  220.2087 H   0  0  0  0  0  0  0  0  0  0  0  0
  145.1983   74.1792  221.5887 H   0  0  0  0  0  0  0  0  0  0  0  0
  143.8896   72.0766  221.2623 H   0  0  0  0  0  0  0  0  0  0  0  0
  142.0785   71.9872  219.5455 H   0  0  0  0  0  0  0  0  0  0  0  0
  141.5673   73.9969  218.1588 H   0  0  0  0  0  0  0  0  0  0  0  0
  140.7619   79.8814  218.2863 H   0  0  0  0  0  0  0  0  0  0  0  0
  141.0359   81.7548  219.7815 H   0  0  0  0  0  0  0  0  0  0  0  0
  141.6575   82.6563  221.9993 H   0  0  0  0  0  0  0  0  0  0  0  0
  142.3708   82.3286  224.3674 H   0  0  0  0  0  0  0  0  0  0  0  0
  142.7550   80.0271  225.2505 H   0  0  0  0  0  0  0  0  0  0  0  0
  142.4105   78.0476  223.7755 H   0  0  0  0  0  0  0  0  0  0  0  0
  142.5533   77.4563  221.1645 H   0  0  0  0  0  0  0  0  0  0  0  0
  141.5048   75.1768  221.8648 H   0  0  0  0  0  0  0  0  0  0  0  0
  139.2040   74.3200  222.7290 H   0  0  0  0  0  0  0  0  0  0  0  0
  136.7474   75.4275  223.2083 H   0  0  0  0  0  0  0  0  0  0  0  0
  135.4723   77.5976  223.0921 H   0  0  0  0  0  0  0  0  0  0  0  0
  136.6110   79.6868  222.3082 H   0  0  0  0  0  0  0  0  0  0  0  0
  139.0376   79.6282  221.6326 H   0  0  0  0  0  0  0  0  0  0  0  0
  1  2  2  0
  2  3  2  0
  2  4  1  0
  4  5  1  0
  5  6  2  0
  6  7  1  0
  7  8  2  0
  8  9  1  0
  9 10  2  0
  2 11  1  0
 11 12  1  0
 12 13  2  0
 13 14  1  0
 14 15  2  0
 15 16  1  0
 16 17  2  0
 17 18  1  0
 18 19  2  0
 19 20  1  0
 20 21  1  0
 21 22  2  0
 22 23  1  0
 23 24  1  0
 24 25  2  0
 25 26  1  0
 26 27  2  0
 27 28  1  0
 28 29  2  0
 10  5  1  0
 20 11  1  0
 29 21  1  0
 19 14  1  0
 29 24  1  0
  4 30  1  0
  4 31  1  0
  6 32  1  0
  7 33  1  0
  8 34  1  0
  9 35  1  0
 10 36  1  0
 12 37  1  0
 13 38  1  0
 15 39  1  0
 16 40  1  0
 17 41  1  0
 18 42  1  0
 20 43  1  6
 22 44  1  0
 23 45  1  0
 25 46  1  0
 26 47  1  0
 27 48  1  0
 28 49  1  0
M  END
>  <meeko>  (9) 
{"free_energy": -7.57, "intermolecular_energy": -8.77, "internal_energy": -2.21, "cluster_size": 18, "cluster_id": 1, "rank_in_cluster": 15}

$$$$

     RDKit          3D

 49 53  0  0  0  0  0  0  0  0999 V2000
  140.3680   75.9640  219.1260 O   0  0  0  0  0  0  0  0  0  0  0  0
  141.2110   77.0840  218.5830 S   0  0  0  0  0  0  0  0  0  0  0  0
  140.5610   77.6110  217.3330 O   0  0  0  0  0  0  0  0  0  0  0  0
  142.8520   76.4800  218.2160 C   0  0  0  0  0  0  0  0  0  0  0  0
  143.1520   75.2410  219.0100 C   0  0  0  0  0  0  0  0  0  0  0  0
  142.4560   74.0480  218.7490 C   0  0  0  0  0  0  0  0  0  0  0  0
  142.7100   72.9050  219.5120 C   0  0  0  0  0  0  0  0  0  0  0  0
  143.6520   72.9450  220.5440 C   0  0  0  0  0  0  0  0  0  0  0  0
  144.3390   74.1320  220.8170 C   0  0  0  0  0  0  0  0  0  0  0  0
  144.0880   75.2780  220.0580 C   0  0  0  0  0  0  0  0  0  0  0  0
  141.3250   78.3520  219.7660 N   0  0  0  0  0  0  0  0  0  0  0  0
  141.0930   79.7000  219.3260 C   0  0  0  0  0  0  0  0  0  0  0  0
  141.2320   80.7310  220.1530 C   0  0  0  0  0  0  0  0  0  0  0  0
  141.6270   80.5270  221.5530 C   0  0  0  0  0  0  0  0  0  0  0  0
  141.8110   81.6330  222.3960 C   0  0  0  0  0  0  0  0  0  0  0  0
  142.2010   81.4490  223.7250 C   0  0  0  0  0  0  0  0  0  0  0  0
  142.4130   80.1610  224.2190 C   0  0  0  0  0  0  0  0  0  0  0  0
  142.2290   79.0530  223.3880 C   0  0  0  0  0  0  0  0  0  0  0  0
  141.8260   79.2240  222.0510 C   0  0  0  0  0  0  0  0  0  0  0  0
  141.6170   78.0080  221.1700 C   0  0  1  0  0  0  0  0  0  0  0  0
  140.5180   77.1370  221.7280 C   0  0  0  0  0  0  0  0  0  0  0  0
  140.6100   75.7720  221.9850 C   0  0  0  0  0  0  0  0  0  0  0  0
  139.4290   75.2910  222.4320 N   0  0  0  0  0  0  0  0  0  0  0  0
  138.5890   76.3380  222.4590 C   0  0  0  0  0  0  0  0  0  0  0  0
  137.2440   76.3300  222.8300 C   0  0  0  0  0  0  0  0  0  0  0  0
  136.5370   77.5420  222.7670 C   0  0  0  0  0  0  0  0  0  0  0  0
  137.1800   78.7240  222.3360 C   0  0  0  0  0  0  0  0  0  0  0  0
  138.5360   78.7030  221.9650 C   0  0  0  0  0  0  0  0  0  0  0  0
  139.2150   77.4850  222.0390 C   0  0  0  0  0  0  0  0  0  0  0  0
  142.9192   76.2464  217.1432 H   0  0  0  0  0  0  0  0  0  0  0  0
  143.5829   77.2572  218.4841 H   0  0  0  0  0  0  0  0  0  0  0  0
  141.7093   74.0139  217.9419 H   0  0  0  0  0  0  0  0  0  0  0  0
  142.1675   71.9719  219.3000 H   0  0  0  0  0  0  0  0  0  0  0  0
  143.8527   72.0432  221.1411 H   0  0  0  0  0  0  0  0  0  0  0  0
  145.0784   74.1636  221.6308 H   0  0  0  0  0  0  0  0  0  0  0  0
  144.6245   76.2120  220.2813 H   0  0  0  0  0  0  0  0  0  0  0  0
  140.7942   79.8824  218.2832 H   0  0  0  0  0  0  0  0  0  0  0  0
  141.0487   81.7510  219.7841 H   0  0  0  0  0  0  0  0  0  0  0  0
  141.6475   82.6496  222.0090 H   0  0  0  0  0  0  0  0  0  0  0  0
  142.3410   82.3198  224.3824 H   0  0  0  0  0  0  0  0  0  0  0  0
  142.7253   80.0180  225.2640 H   0  0  0  0  0  0  0  0  0  0  0  0
  142.4004   78.0403  223.7817 H   0  0  0  0  0  0  0  0  0  0  0  0
  142.5680   77.4552  221.1715 H   0  0  0  0  0  0  0  0  0  0  0  0
  141.5186   75.1683  221.8437 H   0  0  0  0  0  0  0  0  0  0  0  0
  139.2140   74.3020  222.6900 H   0  0  0  0  0  0  0  0  0  0  0  0
  136.7526   75.4034  223.1615 H   0  0  0  0  0  0  0  0  0  0  0  0
  135.4758   77.5712  223.0551 H   0  0  0  0  0  0  0  0  0  0  0  0
  136.6158   79.6672  222.2904 H   0  0  0  0  0  0  0  0  0  0  0  0
  139.0460   79.6172  221.6271 H   0  0  0  0  0  0  0  0  0  0  0  0
  1  2  2  0
  2  3  2  0
  2  4  1  0
  4  5  1  0
  5  6  2  0
  6  7  1  0
  7  8  2  0
  8  9  1  0
  9 10  2  0
  2 11  1  0
 11 12  1  0
 12 13  2  0
 13 14  1  0
 14 15  2  0
 15 16  1  0
 16 17  2  0
 17 18  1  0
 18 19  2  0
 19 20  1  0
 20 21  1  0
 21 22  2  0
 22 23  1  0
 23 24  1  0
 24 25  2  0
 25 26  1  0
 26 27  2  0
 27 28  1  0
 28 29  2  0
 10  5  1  0
 20 11  1  0
 29 21  1  0
 19 14  1  0
 29 24  1  0
  4 30  1  0
  4 31  1  0
  6 32  1  0
  7 33  1  0
  8 34  1  0
  9 35  1  0
 10 36  1  0
 12 37  1  0
 13 38  1  0
 15 39  1  0
 16 40  1  0
 17 41  1  0
 18 42  1  0
 20 43  1  6
 22 44  1  0
 23 45  1  0
 25 46  1  0
 26 47  1  0
 27 48  1  0
 28 49  1  0
M  END
>  <meeko>  (10) 
{"free_energy": -7.57, "intermolecular_energy": -8.76, "internal_energy": -2.19, "cluster_size": 18, "cluster_id": 1, "rank_in_cluster": 16}

$$$$

     RDKit          3D

 49 53  0  0  0  0  0  0  0  0999 V2000
  140.4610   75.8720  219.1810 O   0  0  0  0  0  0  0  0  0  0  0  0
  141.2630   77.0080  218.6090 S   0  0  0  0  0  0  0  0  0  0  0  0
  140.5740   77.5050  217.3680 O   0  0  0  0  0  0  0  0  0  0  0  0
  142.9120   76.4440  218.2140 C   0  0  0  0  0  0  0  0  0  0  0  0
  143.2490   75.2040  218.9910 C   0  0  0  0  0  0  0  0  0  0  0  0
  142.6540   73.9750  218.6560 C   0  0  0  0  0  0  0  0  0  0  0  0
  142.9410   72.8280  219.4020 C   0  0  0  0  0  0  0  0  0  0  0  0
  143.8160   72.9000  220.4900 C   0  0  0  0  0  0  0  0  0  0  0  0
  144.4020   74.1210  220.8370 C   0  0  0  0  0  0  0  0  0  0  0  0
  144.1180   75.2710  220.0940 C   0  0  0  0  0  0  0  0  0  0  0  0
  141.3680   78.2910  219.7770 N   0  0  0  0  0  0  0  0  0  0  0  0
  141.1450   79.6330  219.3180 C   0  0  0  0  0  0  0  0  0  0  0  0
  141.2780   80.6750  220.1340 C   0  0  0  0  0  0  0  0  0  0  0  0
  141.6570   80.4870  221.5410 C   0  0  0  0  0  0  0  0  0  0  0  0
  141.8360   81.6030  222.3710 C   0  0  0  0  0  0  0  0  0  0  0  0
  142.2110   81.4350  223.7060 C   0  0  0  0  0  0  0  0  0  0  0  0
  142.4150   80.1520  224.2190 C   0  0  0  0  0  0  0  0  0  0  0  0
  142.2370   79.0340  223.4000 C   0  0  0  0  0  0  0  0  0  0  0  0
  141.8480   79.1890  222.0570 C   0  0  0  0  0  0  0  0  0  0  0  0
  141.6450   77.9640  221.1890 C   0  0  1  0  0  0  0  0  0  0  0  0
  140.5380   77.1020  221.7460 C   0  0  0  0  0  0  0  0  0  0  0  0
  140.6170   75.7370  222.0040 C   0  0  0  0  0  0  0  0  0  0  0  0
  139.4310   75.2670  222.4500 N   0  0  0  0  0  0  0  0  0  0  0  0
  138.6000   76.3210  222.4750 C   0  0  0  0  0  0  0  0  0  0  0  0
  137.2560   76.3250  222.8460 C   0  0  0  0  0  0  0  0  0  0  0  0
  136.5590   77.5440  222.7810 C   0  0  0  0  0  0  0  0  0  0  0  0
  137.2130   78.7200  222.3510 C   0  0  0  0  0  0  0  0  0  0  0  0
  138.5690   78.6860  221.9810 C   0  0  0  0  0  0  0  0  0  0  0  0
  139.2370   77.4620  222.0560 C   0  0  0  0  0  0  0  0  0  0  0  0
  142.9700   76.2229  217.1380 H   0  0  0  0  0  0  0  0  0  0  0  0
  143.6294   77.2342  218.4803 H   0  0  0  0  0  0  0  0  0  0  0  0
  141.9605   73.9157  217.8042 H   0  0  0  0  0  0  0  0  0  0  0  0
  142.4777   71.8674  219.1325 H   0  0  0  0  0  0  0  0  0  0  0  0
  144.0435   71.9956  221.0733 H   0  0  0  0  0  0  0  0  0  0  0  0
  145.0873   74.1771  221.6956 H   0  0  0  0  0  0  0  0  0  0  0  0
  144.5761   76.2313  220.3735 H   0  0  0  0  0  0  0  0  0  0  0  0
  140.8582   79.8030  218.2697 H   0  0  0  0  0  0  0  0  0  0  0  0
  141.1019   81.6908  219.7504 H   0  0  0  0  0  0  0  0  0  0  0  0
  141.6804   82.6150  221.9690 H   0  0  0  0  0  0  0  0  0  0  0  0
  142.3458   82.3138  224.3538 H   0  0  0  0  0  0  0  0  0  0  0  0
  142.7161   80.0216  225.2689 H   0  0  0  0  0  0  0  0  0  0  0  0
  142.4021   78.0259  223.8081 H   0  0  0  0  0  0  0  0  0  0  0  0
  142.5950   77.4098  221.2071 H   0  0  0  0  0  0  0  0  0  0  0  0
  141.5202   75.1249  221.8642 H   0  0  0  0  0  0  0  0  0  0  0  0
  139.2070   74.2800  222.7070 H   0  0  0  0  0  0  0  0  0  0  0  0
  136.7567   75.4032  223.1791 H   0  0  0  0  0  0  0  0  0  0  0  0
  135.4975   77.5824  223.0668 H   0  0  0  0  0  0  0  0  0  0  0  0
  136.6577   79.6685  222.3053 H   0  0  0  0  0  0  0  0  0  0  0  0
  139.0876   79.5953  221.6430 H   0  0  0  0  0  0  0  0  0  0  0  0
  1  2  2  0
  2  3  2  0
  2  4  1  0
  4  5  1  0
  5  6  2  0
  6  7  1  0
  7  8  2  0
  8  9  1  0
  9 10  2  0
  2 11  1  0
 11 12  1  0
 12 13  2  0
 13 14  1  0
 14 15  2  0
 15 16  1  0
 16 17  2  0
 17 18  1  0
 18 19  2  0
 19 20  1  0
 20 21  1  0
 21 22  2  0
 22 23  1  0
 23 24  1  0
 24 25  2  0
 25 26  1  0
 26 27  2  0
 27 28  1  0
 28 29  2  0
 10  5  1  0
 20 11  1  0
 29 21  1  0
 19 14  1  0
 29 24  1  0
  4 30  1  0
  4 31  1  0
  6 32  1  0
  7 33  1  0
  8 34  1  0
  9 35  1  0
 10 36  1  0
 12 37  1  0
 13 38  1  0
 15 39  1  0
 16 40  1  0
 17 41  1  0
 18 42  1  0
 20 43  1  6
 22 44  1  0
 23 45  1  0
 25 46  1  0
 26 47  1  0
 27 48  1  0
 28 49  1  0
M  END
>  <meeko>  (11) 
{"free_energy": -7.62, "intermolecular_energy": -8.81, "internal_energy": -2.16, "cluster_size": 18, "cluster_id": 1, "rank_in_cluster": 6}

$$$$

     RDKit          3D

 49 53  0  0  0  0  0  0  0  0999 V2000
  140.3150   75.9800  219.1150 O   0  0  0  0  0  0  0  0  0  0  0  0
  141.1910   77.0830  218.5880 S   0  0  0  0  0  0  0  0  0  0  0  0
  140.5750   77.6230  217.3270 O   0  0  0  0  0  0  0  0  0  0  0  0
  142.8260   76.4450  218.2510 C   0  0  0  0  0  0  0  0  0  0  0  0
  143.1080   75.2330  219.0930 C   0  0  0  0  0  0  0  0  0  0  0  0
  144.1190   75.2700  220.0680 C   0  0  0  0  0  0  0  0  0  0  0  0
  144.4050   74.1310  220.8260 C   0  0  0  0  0  0  0  0  0  0  0  0
  143.6910   72.9480  220.6120 C   0  0  0  0  0  0  0  0  0  0  0  0
  142.6920   72.9020  219.6350 C   0  0  0  0  0  0  0  0  0  0  0  0
  142.4030   74.0380  218.8740 C   0  0  0  0  0  0  0  0  0  0  0  0
  141.3100   78.3480  219.7730 N   0  0  0  0  0  0  0  0  0  0  0  0
  141.0730   79.6960  219.3380 C   0  0  0  0  0  0  0  0  0  0  0  0
  141.2150   80.7260  220.1670 C   0  0  0  0  0  0  0  0  0  0  0  0
  141.6190   80.5190  221.5650 C   0  0  0  0  0  0  0  0  0  0  0  0
  141.8070   81.6240  222.4090 C   0  0  0  0  0  0  0  0  0  0  0  0
  142.2050   81.4370  223.7350 C   0  0  0  0  0  0  0  0  0  0  0  0
  142.4230   80.1480  224.2240 C   0  0  0  0  0  0  0  0  0  0  0  0
  142.2360   79.0410  223.3910 C   0  0  0  0  0  0  0  0  0  0  0  0
  141.8240   79.2150  222.0580 C   0  0  0  0  0  0  0  0  0  0  0  0
  141.6120   78.0010  221.1750 C   0  0  1  0  0  0  0  0  0  0  0  0
  140.5190   77.1260  221.7380 C   0  0  0  0  0  0  0  0  0  0  0  0
  140.6130   75.7600  221.9860 C   0  0  0  0  0  0  0  0  0  0  0  0
  139.4350   75.2760  222.4410 N   0  0  0  0  0  0  0  0  0  0  0  0
  138.5960   76.3230  222.4810 C   0  0  0  0  0  0  0  0  0  0  0  0
  137.2550   76.3130  222.8650 C   0  0  0  0  0  0  0  0  0  0  0  0
  136.5470   77.5260  222.8160 C   0  0  0  0  0  0  0  0  0  0  0  0
  137.1850   78.7100  222.3860 C   0  0  0  0  0  0  0  0  0  0  0  0
  138.5380   78.6910  222.0030 C   0  0  0  0  0  0  0  0  0  0  0  0
  139.2180   77.4730  222.0630 C   0  0  0  0  0  0  0  0  0  0  0  0
  142.8941   76.1699  217.1881 H   0  0  0  0  0  0  0  0  0  0  0  0
  143.5654   77.2228  218.4925 H   0  0  0  0  0  0  0  0  0  0  0  0
  144.6866   76.1973  220.2351 H   0  0  0  0  0  0  0  0  0  0  0  0
  145.1933   74.1654  221.5924 H   0  0  0  0  0  0  0  0  0  0  0  0
  143.9152   72.0538  221.2121 H   0  0  0  0  0  0  0  0  0  0  0  0
  142.1326   71.9702  219.4650 H   0  0  0  0  0  0  0  0  0  0  0  0
  141.6212   73.9962  218.1013 H   0  0  0  0  0  0  0  0  0  0  0  0
  140.7677   79.8803  218.2974 H   0  0  0  0  0  0  0  0  0  0  0  0
  141.0276   81.7465  219.8017 H   0  0  0  0  0  0  0  0  0  0  0  0
  141.6404   82.6413  222.0252 H   0  0  0  0  0  0  0  0  0  0  0  0
  142.3467   82.3062  224.3941 H   0  0  0  0  0  0  0  0  0  0  0  0
  142.7425   80.0030  225.2665 H   0  0  0  0  0  0  0  0  0  0  0  0
  142.4122   78.0276  223.7808 H   0  0  0  0  0  0  0  0  0  0  0  0
  142.5644   77.4506  221.1685 H   0  0  0  0  0  0  0  0  0  0  0  0
  141.5202   75.1571  221.8331 H   0  0  0  0  0  0  0  0  0  0  0  0
  139.2230   74.2860  222.6940 H   0  0  0  0  0  0  0  0  0  0  0  0
  136.7668   75.3845  223.1959 H   0  0  0  0  0  0  0  0  0  0  0  0
  135.4887   77.5533  223.1146 H   0  0  0  0  0  0  0  0  0  0  0  0
  136.6201   79.6532  222.3504 H   0  0  0  0  0  0  0  0  0  0  0  0
  139.0449   79.6074  221.6665 H   0  0  0  0  0  0  0  0  0  0  0  0
  1  2  2  0
  2  3  2  0
  2  4  1  0
  4  5  1  0
  5  6  2  0
  6  7  1  0
  7  8  2  0
  8  9  1  0
  9 10  2  0
  2 11  1  0
 11 12  1  0
 12 13  2  0
 13 14  1  0
 14 15  2  0
 15 16  1  0
 16 17  2  0
 17 18  1  0
 18 19  2  0
 19 20  1  0
 20 21  1  0
 21 22  2  0
 22 23  1  0
 23 24  1  0
 24 25  2  0
 25 26  1  0
 26 27  2  0
 27 28  1  0
 28 29  2  0
 10  5  1  0
 20 11  1  0
 29 21  1  0
 19 14  1  0
 29 24  1  0
  4 30  1  0
  4 31  1  0
  6 32  1  0
  7 33  1  0
  8 34  1  0
  9 35  1  0
 10 36  1  0
 12 37  1  0
 13 38  1  0
 15 39  1  0
 16 40  1  0
 17 41  1  0
 18 42  1  0
 20 43  1  6
 22 44  1  0
 23 45  1  0
 25 46  1  0
 26 47  1  0
 27 48  1  0
 28 49  1  0
M  END
>  <meeko>  (12) 
{"free_energy": -7.58, "intermolecular_energy": -8.77, "internal_energy": -2.2, "cluster_size": 18, "cluster_id": 1, "rank_in_cluster": 14}

$$$$

     RDKit          3D

 49 53  0  0  0  0  0  0  0  0999 V2000
  140.3340   75.9620  219.1330 O   0  0  0  0  0  0  0  0  0  0  0  0
  141.2050   77.0640  218.5960 S   0  0  0  0  0  0  0  0  0  0  0  0
  140.5840   77.5930  217.3320 O   0  0  0  0  0  0  0  0  0  0  0  0
  142.8410   76.4290  218.2600 C   0  0  0  0  0  0  0  0  0  0  0  0
  143.1240   75.2170  219.1000 C   0  0  0  0  0  0  0  0  0  0  0  0
  144.1170   75.2620  220.0940 C   0  0  0  0  0  0  0  0  0  0  0  0
  144.4040   74.1230  220.8510 C   0  0  0  0  0  0  0  0  0  0  0  0
  143.7110   72.9310  220.6180 C   0  0  0  0  0  0  0  0  0  0  0  0
  142.7310   72.8770  219.6220 C   0  0  0  0  0  0  0  0  0  0  0  0
  142.4400   74.0130  218.8620 C   0  0  0  0  0  0  0  0  0  0  0  0
  141.3220   78.3390  219.7710 N   0  0  0  0  0  0  0  0  0  0  0  0
  141.0880   79.6830  219.3250 C   0  0  0  0  0  0  0  0  0  0  0  0
  141.2290   80.7200  220.1460 C   0  0  0  0  0  0  0  0  0  0  0  0
  141.6290   80.5230  221.5460 C   0  0  0  0  0  0  0  0  0  0  0  0
  141.8150   81.6340  222.3820 C   0  0  0  0  0  0  0  0  0  0  0  0
  142.2100   81.4580  223.7100 C   0  0  0  0  0  0  0  0  0  0  0  0
  142.4260   80.1720  224.2110 C   0  0  0  0  0  0  0  0  0  0  0  0
  142.2400   79.0590  223.3860 C   0  0  0  0  0  0  0  0  0  0  0  0
  141.8310   79.2230  222.0500 C   0  0  0  0  0  0  0  0  0  0  0  0
  141.6200   78.0020  221.1760 C   0  0  1  0  0  0  0  0  0  0  0  0
  140.5240   77.1330  221.7440 C   0  0  0  0  0  0  0  0  0  0  0  0
  140.6180   75.7700  222.0080 C   0  0  0  0  0  0  0  0  0  0  0  0
  139.4390   75.2900  222.4610 N   0  0  0  0  0  0  0  0  0  0  0  0
  138.5980   76.3370  222.4850 C   0  0  0  0  0  0  0  0  0  0  0  0
  137.2550   76.3300  222.8620 C   0  0  0  0  0  0  0  0  0  0  0  0
  136.5460   77.5410  222.7950 C   0  0  0  0  0  0  0  0  0  0  0  0
  137.1860   78.7210  222.3550 C   0  0  0  0  0  0  0  0  0  0  0  0
  138.5410   78.6990  221.9790 C   0  0  0  0  0  0  0  0  0  0  0  0
  139.2220   77.4820  222.0570 C   0  0  0  0  0  0  0  0  0  0  0  0
  142.9106   76.1555  217.1968 H   0  0  0  0  0  0  0  0  0  0  0  0
  143.5789   77.2076  218.5035 H   0  0  0  0  0  0  0  0  0  0  0  0
  144.6692   76.1957  220.2763 H   0  0  0  0  0  0  0  0  0  0  0  0
  145.1772   74.1642  221.6323 H   0  0  0  0  0  0  0  0  0  0  0  0
  143.9365   72.0368  221.2176 H   0  0  0  0  0  0  0  0  0  0  0  0
  142.1881   71.9385  219.4364 H   0  0  0  0  0  0  0  0  0  0  0  0
  141.6730   73.9645  218.0750 H   0  0  0  0  0  0  0  0  0  0  0  0
  140.7856   79.8592  218.2821 H   0  0  0  0  0  0  0  0  0  0  0  0
  141.0438   81.7378  219.7721 H   0  0  0  0  0  0  0  0  0  0  0  0
  141.6490   82.6483  221.9899 H   0  0  0  0  0  0  0  0  0  0  0  0
  142.3511   82.3327  224.3619 H   0  0  0  0  0  0  0  0  0  0  0  0
  142.7427   80.0351  225.2555 H   0  0  0  0  0  0  0  0  0  0  0  0
  142.4146   78.0485  223.7840 H   0  0  0  0  0  0  0  0  0  0  0  0
  142.5713   77.4497  221.1757 H   0  0  0  0  0  0  0  0  0  0  0  0
  141.5268   75.1665  221.8673 H   0  0  0  0  0  0  0  0  0  0  0  0
  139.2260   74.3030  222.7250 H   0  0  0  0  0  0  0  0  0  0  0  0
  136.7662   75.4048  223.2013 H   0  0  0  0  0  0  0  0  0  0  0  0
  135.4859   77.5705  223.0870 H   0  0  0  0  0  0  0  0  0  0  0  0
  136.6207   79.6634  222.3061 H   0  0  0  0  0  0  0  0  0  0  0  0
  139.0487   79.6119  221.6342 H   0  0  0  0  0  0  0  0  0  0  0  0
  1  2  2  0
  2  3  2  0
  2  4  1  0
  4  5  1  0
  5  6  2  0
  6  7  1  0
  7  8  2  0
  8  9  1  0
  9 10  2  0
  2 11  1  0
 11 12  1  0
 12 13  2  0
 13 14  1  0
 14 15  2  0
 15 16  1  0
 16 17  2  0
 17 18  1  0
 18 19  2  0
 19 20  1  0
 20 21  1  0
 21 22  2  0
 22 23  1  0
 23 24  1  0
 24 25  2  0
 25 26  1  0
 26 27  2  0
 27 28  1  0
 28 29  2  0
 10  5  1  0
 20 11  1  0
 29 21  1  0
 19 14  1  0
 29 24  1  0
  4 30  1  0
  4 31  1  0
  6 32  1  0
  7 33  1  0
  8 34  1  0
  9 35  1  0
 10 36  1  0
 12 37  1  0
 13 38  1  0
 15 39  1  0
 16 40  1  0
 17 41  1  0
 18 42  1  0
 20 43  1  6
 22 44  1  0
 23 45  1  0
 25 46  1  0
 26 47  1  0
 27 48  1  0
 28 49  1  0
M  END
>  <meeko>  (13) 
{"free_energy": -7.58, "intermolecular_energy": -8.77, "internal_energy": -2.2, "cluster_size": 18, "cluster_id": 1, "rank_in_cluster": 13}

$$$$

     RDKit          3D

 49 53  0  0  0  0  0  0  0  0999 V2000
  140.6540   75.7540  219.2140 O   0  0  0  0  0  0  0  0  0  0  0  0
  141.4970   76.8670  218.6570 S   0  0  0  0  0  0  0  0  0  0  0  0
  140.8910   77.3230  217.3570 O   0  0  0  0  0  0  0  0  0  0  0  0
  143.1640   76.2850  218.3890 C   0  0  0  0  0  0  0  0  0  0  0  0
  143.4210   75.0300  219.1740 C   0  0  0  0  0  0  0  0  0  0  0  0
  144.4370   74.9980  220.1450 C   0  0  0  0  0  0  0  0  0  0  0  0
  144.6990   73.8200  220.8500 C   0  0  0  0  0  0  0  0  0  0  0  0
  143.9570   72.6650  220.5860 C   0  0  0  0  0  0  0  0  0  0  0  0
  142.9540   72.6860  219.6130 C   0  0  0  0  0  0  0  0  0  0  0  0
  142.6880   73.8620  218.9050 C   0  0  0  0  0  0  0  0  0  0  0  0
  141.5330   78.1900  219.7840 N   0  0  0  0  0  0  0  0  0  0  0  0
  141.3260   79.5140  219.2680 C   0  0  0  0  0  0  0  0  0  0  0  0
  141.4100   80.5840  220.0540 C   0  0  0  0  0  0  0  0  0  0  0  0
  141.7160   80.4470  221.4840 C   0  0  0  0  0  0  0  0  0  0  0  0
  141.8450   81.5920  222.2840 C   0  0  0  0  0  0  0  0  0  0  0  0
  142.1510   81.4720  223.6420 C   0  0  0  0  0  0  0  0  0  0  0  0
  142.3340   80.2090  224.2080 C   0  0  0  0  0  0  0  0  0  0  0  0
  142.2060   79.0620  223.4190 C   0  0  0  0  0  0  0  0  0  0  0  0
  141.8870   79.1690  222.0540 C   0  0  0  0  0  0  0  0  0  0  0  0
  141.7370   77.9130  221.2180 C   0  0  1  0  0  0  0  0  0  0  0  0
  140.6080   77.0620  221.7470 C   0  0  0  0  0  0  0  0  0  0  0  0
  140.6620   75.6930  221.9910 C   0  0  0  0  0  0  0  0  0  0  0  0
  139.4610   75.2360  222.4100 N   0  0  0  0  0  0  0  0  0  0  0  0
  138.6460   76.3030  222.4330 C   0  0  0  0  0  0  0  0  0  0  0  0
  137.2950   76.3230  222.7790 C   0  0  0  0  0  0  0  0  0  0  0  0
  136.6180   77.5530  222.7160 C   0  0  0  0  0  0  0  0  0  0  0  0
  137.2970   78.7240  222.3100 C   0  0  0  0  0  0  0  0  0  0  0  0
  138.6590   78.6730  221.9640 C   0  0  0  0  0  0  0  0  0  0  0  0
  139.3070   77.4390  222.0380 C   0  0  0  0  0  0  0  0  0  0  0  0
  143.3060   76.0766  217.3183 H   0  0  0  0  0  0  0  0  0  0  0  0
  143.8677   77.0616  218.7233 H   0  0  0  0  0  0  0  0  0  0  0  0
  145.0276   75.9029  220.3506 H   0  0  0  0  0  0  0  0  0  0  0  0
  145.4903   73.8016  221.6138 H   0  0  0  0  0  0  0  0  0  0  0  0
  144.1626   71.7397  221.1441 H   0  0  0  0  0  0  0  0  0  0  0  0
  142.3728   71.7758  219.4038 H   0  0  0  0  0  0  0  0  0  0  0  0
  141.9025   73.8727  218.1351 H   0  0  0  0  0  0  0  0  0  0  0  0
  141.0932   79.6462  218.2011 H   0  0  0  0  0  0  0  0  0  0  0  0
  141.2481   81.5848  219.6272 H   0  0  0  0  0  0  0  0  0  0  0  0
  141.7046   82.5887  221.8403 H   0  0  0  0  0  0  0  0  0  0  0  0
  142.2478   82.3731  224.2654 H   0  0  0  0  0  0  0  0  0  0  0  0
  142.5793   80.1162  225.2763 H   0  0  0  0  0  0  0  0  0  0  0  0
  142.3558   78.0695  223.8691 H   0  0  0  0  0  0  0  0  0  0  0  0
  142.6879   77.3666  221.3033 H   0  0  0  0  0  0  0  0  0  0  0  0
  141.5584   75.0689  221.8608 H   0  0  0  0  0  0  0  0  0  0  0  0
  139.2180   74.2500  222.6530 H   0  0  0  0  0  0  0  0  0  0  0  0
  136.7757   75.4050  223.0914 H   0  0  0  0  0  0  0  0  0  0  0  0
  135.5525   77.6046  222.9845 H   0  0  0  0  0  0  0  0  0  0  0  0
  136.7568   79.6811  222.2644 H   0  0  0  0  0  0  0  0  0  0  0  0
  139.1971   79.5777  221.6449 H   0  0  0  0  0  0  0  0  0  0  0  0
  1  2  2  0
  2  3  2  0
  2  4  1  0
  4  5  1  0
  5  6  2  0
  6  7  1  0
  7  8  2  0
  8  9  1  0
  9 10  2  0
  2 11  1  0
 11 12  1  0
 12 13  2  0
 13 14  1  0
 14 15  2  0
 15 16  1  0
 16 17  2  0
 17 18  1  0
 18 19  2  0
 19 20  1  0
 20 21  1  0
 21 22  2  0
 22 23  1  0
 23 24  1  0
 24 25  2  0
 25 26  1  0
 26 27  2  0
 27 28  1  0
 28 29  2  0
 10  5  1  0
 20 11  1  0
 29 21  1  0
 19 14  1  0
 29 24  1  0
  4 30  1  0
  4 31  1  0
  6 32  1  0
  7 33  1  0
  8 34  1  0
  9 35  1  0
 10 36  1  0
 12 37  1  0
 13 38  1  0
 15 39  1  0
 16 40  1  0
 17 41  1  0
 18 42  1  0
 20 43  1  6
 22 44  1  0
 23 45  1  0
 25 46  1  0
 26 47  1  0
 27 48  1  0
 28 49  1  0
M  END
>  <meeko>  (14) 
{"free_energy": -7.76, "intermolecular_energy": -8.96, "internal_energy": -2.01, "cluster_size": 18, "cluster_id": 1, "rank_in_cluster": 2}

$$$$

     RDKit          3D

 49 53  0  0  0  0  0  0  0  0999 V2000
  140.3720   75.9210  219.1480 O   0  0  0  0  0  0  0  0  0  0  0  0
  141.2510   77.0170  218.6120 S   0  0  0  0  0  0  0  0  0  0  0  0
  140.6430   77.5390  217.3390 O   0  0  0  0  0  0  0  0  0  0  0  0
  142.8880   76.3750  218.2940 C   0  0  0  0  0  0  0  0  0  0  0  0
  143.1570   75.1630  219.1390 C   0  0  0  0  0  0  0  0  0  0  0  0
  144.1990   75.1750  220.0820 C   0  0  0  0  0  0  0  0  0  0  0  0
  144.4720   74.0350  220.8440 C   0  0  0  0  0  0  0  0  0  0  0  0
  143.7140   72.8740  220.6640 C   0  0  0  0  0  0  0  0  0  0  0  0
  142.6840   72.8510  219.7190 C   0  0  0  0  0  0  0  0  0  0  0  0
  142.4080   73.9890  218.9550 C   0  0  0  0  0  0  0  0  0  0  0  0
  141.3620   78.2990  219.7800 N   0  0  0  0  0  0  0  0  0  0  0  0
  141.1350   79.6410  219.3230 C   0  0  0  0  0  0  0  0  0  0  0  0
  141.2720   80.6820  220.1390 C   0  0  0  0  0  0  0  0  0  0  0  0
  141.6590   80.4940  221.5430 C   0  0  0  0  0  0  0  0  0  0  0  0
  141.8420   81.6100  222.3740 C   0  0  0  0  0  0  0  0  0  0  0  0
  142.2250   81.4400  223.7070 C   0  0  0  0  0  0  0  0  0  0  0  0
  142.4320   80.1580  224.2170 C   0  0  0  0  0  0  0  0  0  0  0  0
  142.2510   79.0400  223.3980 C   0  0  0  0  0  0  0  0  0  0  0  0
  141.8540   79.1960  222.0580 C   0  0  0  0  0  0  0  0  0  0  0  0
  141.6470   77.9710  221.1890 C   0  0  1  0  0  0  0  0  0  0  0  0
  140.5440   77.1080  221.7530 C   0  0  0  0  0  0  0  0  0  0  0  0
  140.6260   75.7420  222.0090 C   0  0  0  0  0  0  0  0  0  0  0  0
  139.4430   75.2710  222.4620 N   0  0  0  0  0  0  0  0  0  0  0  0
  138.6110   76.3240  222.4920 C   0  0  0  0  0  0  0  0  0  0  0  0
  137.2690   76.3270  222.8700 C   0  0  0  0  0  0  0  0  0  0  0  0
  136.5710   77.5450  222.8110 C   0  0  0  0  0  0  0  0  0  0  0  0
  137.2210   78.7220  222.3780 C   0  0  0  0  0  0  0  0  0  0  0  0
  138.5750   78.6900  222.0000 C   0  0  0  0  0  0  0  0  0  0  0  0
  139.2450   77.4660  222.0700 C   0  0  0  0  0  0  0  0  0  0  0  0
  142.9677   76.0996  217.2320 H   0  0  0  0  0  0  0  0  0  0  0  0
  143.6266   77.1510  218.5439 H   0  0  0  0  0  0  0  0  0  0  0  0
  144.8019   76.0845  220.2211 H   0  0  0  0  0  0  0  0  0  0  0  0
  145.2840   74.0515  221.5859 H   0  0  0  0  0  0  0  0  0  0  0  0
  143.9281   71.9786  221.2660 H   0  0  0  0  0  0  0  0  0  0  0  0
  142.0899   71.9363  219.5763 H   0  0  0  0  0  0  0  0  0  0  0  0
  141.6016   73.9649  218.2073 H   0  0  0  0  0  0  0  0  0  0  0  0
  140.8418   79.8115  218.2766 H   0  0  0  0  0  0  0  0  0  0  0  0
  141.0930   81.6979  219.7570 H   0  0  0  0  0  0  0  0  0  0  0  0
  141.6833   82.6225  221.9744 H   0  0  0  0  0  0  0  0  0  0  0  0
  142.3635   82.3180  224.3550 H   0  0  0  0  0  0  0  0  0  0  0  0
  142.7382   80.0269  225.2654 H   0  0  0  0  0  0  0  0  0  0  0  0
  142.4202   78.0318  223.8041 H   0  0  0  0  0  0  0  0  0  0  0  0
  142.5973   77.4172  221.1997 H   0  0  0  0  0  0  0  0  0  0  0  0
  141.5287   75.1307  221.8628 H   0  0  0  0  0  0  0  0  0  0  0  0
  139.2220   74.2830  222.7200 H   0  0  0  0  0  0  0  0  0  0  0  0
  136.7720   75.4043  223.2041 H   0  0  0  0  0  0  0  0  0  0  0  0
  135.5114   77.5822  223.1039 H   0  0  0  0  0  0  0  0  0  0  0  0
  136.6643   79.6698  222.3363 H   0  0  0  0  0  0  0  0  0  0  0  0
  139.0906   79.6002  221.6598 H   0  0  0  0  0  0  0  0  0  0  0  0
  1  2  2  0
  2  3  2  0
  2  4  1  0
  4  5  1  0
  5  6  2  0
  6  7  1  0
  7  8  2  0
  8  9  1  0
  9 10  2  0
  2 11  1  0
 11 12  1  0
 12 13  2  0
 13 14  1  0
 14 15  2  0
 15 16  1  0
 16 17  2  0
 17 18  1  0
 18 19  2  0
 19 20  1  0
 20 21  1  0
 21 22  2  0
 22 23  1  0
 23 24  1  0
 24 25  2  0
 25 26  1  0
 26 27  2  0
 27 28  1  0
 28 29  2  0
 10  5  1  0
 20 11  1  0
 29 21  1  0
 19 14  1  0
 29 24  1  0
  4 30  1  0
  4 31  1  0
  6 32  1  0
  7 33  1  0
  8 34  1  0
  9 35  1  0
 10 36  1  0
 12 37  1  0
 13 38  1  0
 15 39  1  0
 16 40  1  0
 17 41  1  0
 18 42  1  0
 20 43  1  6
 22 44  1  0
 23 45  1  0
 25 46  1  0
 26 47  1  0
 27 48  1  0
 28 49  1  0
M  END
>  <meeko>  (15) 
{"free_energy": -7.61, "intermolecular_energy": -8.81, "internal_energy": -2.16, "cluster_size": 18, "cluster_id": 1, "rank_in_cluster": 7}

$$$$

     RDKit          3D

 49 53  0  0  0  0  0  0  0  0999 V2000
  140.0750   76.0680  219.1380 O   0  0  0  0  0  0  0  0  0  0  0  0
  140.8860   77.1980  218.5680 S   0  0  0  0  0  0  0  0  0  0  0  0
  140.1500   77.7680  217.3860 O   0  0  0  0  0  0  0  0  0  0  0  0
  142.4900   76.5940  218.0610 C   0  0  0  0  0  0  0  0  0  0  0  0
  142.9210   75.4430  218.9250 C   0  0  0  0  0  0  0  0  0  0  0  0
  144.0550   75.5620  219.7460 C   0  0  0  0  0  0  0  0  0  0  0  0
  144.4770   74.4790  220.5230 C   0  0  0  0  0  0  0  0  0  0  0  0
  143.7760   73.2700  220.4810 C   0  0  0  0  0  0  0  0  0  0  0  0
  142.6540   73.1410  219.6570 C   0  0  0  0  0  0  0  0  0  0  0  0
  142.2290   74.2210  218.8770 C   0  0  0  0  0  0  0  0  0  0  0  0
  141.1010   78.4290  219.7760 N   0  0  0  0  0  0  0  0  0  0  0  0
  140.8720   79.7930  219.3900 C   0  0  0  0  0  0  0  0  0  0  0  0
  141.0840   80.7970  220.2360 C   0  0  0  0  0  0  0  0  0  0  0  0
  141.5600   80.5430  221.6020 C   0  0  0  0  0  0  0  0  0  0  0  0
  141.8200   81.6200  222.4620 C   0  0  0  0  0  0  0  0  0  0  0  0
  142.2870   81.3900  223.7590 C   0  0  0  0  0  0  0  0  0  0  0  0
  142.5010   80.0830  224.2020 C   0  0  0  0  0  0  0  0  0  0  0  0
  142.2430   79.0040  223.3530 C   0  0  0  0  0  0  0  0  0  0  0  0
  141.7610   79.2220  222.0500 C   0  0  0  0  0  0  0  0  0  0  0  0
  141.4720   78.0380  221.1490 C   0  0  1  0  0  0  0  0  0  0  0  0
  140.3910   77.1720  221.7500 C   0  0  0  0  0  0  0  0  0  0  0  0
  140.4720   75.8010  221.9700 C   0  0  0  0  0  0  0  0  0  0  0  0
  139.3100   75.3290  222.4740 N   0  0  0  0  0  0  0  0  0  0  0  0
  138.4920   76.3900  222.5730 C   0  0  0  0  0  0  0  0  0  0  0  0
  137.1710   76.3960  223.0220 C   0  0  0  0  0  0  0  0  0  0  0  0
  136.4840   77.6220  223.0270 C   0  0  0  0  0  0  0  0  0  0  0  0
  137.1230   78.8020  222.5870 C   0  0  0  0  0  0  0  0  0  0  0  0
  138.4550   78.7660  222.1370 C   0  0  0  0  0  0  0  0  0  0  0  0
  139.1140   77.5350  222.1440 C   0  0  0  0  0  0  0  0  0  0  0  0
  142.4357   76.2595  217.0145 H   0  0  0  0  0  0  0  0  0  0  0  0
  143.2231   77.4076  218.1639 H   0  0  0  0  0  0  0  0  0  0  0  0
  144.6123   76.5098  219.7775 H   0  0  0  0  0  0  0  0  0  0  0  0
  145.3621   74.5783  221.1685 H   0  0  0  0  0  0  0  0  0  0  0  0
  144.1073   72.4204  221.0962 H   0  0  0  0  0  0  0  0  0  0  0  0
  142.1047   72.1886  219.6222 H   0  0  0  0  0  0  0  0  0  0  0  0
  141.3504   74.1136  218.2239 H   0  0  0  0  0  0  0  0  0  0  0  0
  140.5137   80.0120  218.3733 H   0  0  0  0  0  0  0  0  0  0  0  0
  140.9005   81.8309  219.9084 H   0  0  0  0  0  0  0  0  0  0  0  0
  141.6556   82.6505  222.1140 H   0  0  0  0  0  0  0  0  0  0  0  0
  142.4859   82.2381  224.4307 H   0  0  0  0  0  0  0  0  0  0  0  0
  142.8734   79.9028  225.2212 H   0  0  0  0  0  0  0  0  0  0  0  0
  142.4180   77.9770  223.7061 H   0  0  0  0  0  0  0  0  0  0  0  0
  142.4095   77.4675  221.0746 H   0  0  0  0  0  0  0  0  0  0  0  0
  141.3597   75.1855  221.7624 H   0  0  0  0  0  0  0  0  0  0  0  0
  139.0920   74.3380  222.7200 H   0  0  0  0  0  0  0  0  0  0  0  0
  136.6828   75.4705  223.3613 H   0  0  0  0  0  0  0  0  0  0  0  0
  135.4416   77.6627  223.3759 H   0  0  0  0  0  0  0  0  0  0  0  0
  136.5752   79.7558  222.5963 H   0  0  0  0  0  0  0  0  0  0  0  0
  138.9617   79.6788  221.7904 H   0  0  0  0  0  0  0  0  0  0  0  0
  1  2  2  0
  2  3  2  0
  2  4  1  0
  4  5  1  0
  5  6  2  0
  6  7  1  0
  7  8  2  0
  8  9  1  0
  9 10  2  0
  2 11  1  0
 11 12  1  0
 12 13  2  0
 13 14  1  0
 14 15  2  0
 15 16  1  0
 16 17  2  0
 17 18  1  0
 18 19  2  0
 19 20  1  0
 20 21  1  0
 21 22  2  0
 22 23  1  0
 23 24  1  0
 24 25  2  0
 25 26  1  0
 26 27  2  0
 27 28  1  0
 28 29  2  0
 10  5  1  0
 20 11  1  0
 29 21  1  0
 19 14  1  0
 29 24  1  0
  4 30  1  0
  4 31  1  0
  6 32  1  0
  7 33  1  0
  8 34  1  0
  9 35  1  0
 10 36  1  0
 12 37  1  0
 13 38  1  0
 15 39  1  0
 16 40  1  0
 17 41  1  0
 18 42  1  0
 20 43  1  6
 22 44  1  0
 23 45  1  0
 25 46  1  0
 26 47  1  0
 27 48  1  0
 28 49  1  0
M  END
>  <meeko>  (16) 
{"free_energy": -7.49, "intermolecular_energy": -8.69, "internal_energy": -2.21, "cluster_size": 18, "cluster_id": 1, "rank_in_cluster": 17}

$$$$

     RDKit          3D

 49 53  0  0  0  0  0  0  0  0999 V2000
  140.8000   75.7120  219.2470 O   0  0  0  0  0  0  0  0  0  0  0  0
  141.2420   76.9740  218.5600 S   0  0  0  0  0  0  0  0  0  0  0  0
  140.2300   77.3260  217.5050 O   0  0  0  0  0  0  0  0  0  0  0  0
  142.8470   76.7250  217.8160 C   0  0  0  0  0  0  0  0  0  0  0  0
  143.5660   75.5810  218.4720 C   0  0  0  0  0  0  0  0  0  0  0  0
  144.0110   74.4910  217.7030 C   0  0  0  0  0  0  0  0  0  0  0  0
  144.6470   73.4100  218.3190 C   0  0  0  0  0  0  0  0  0  0  0  0
  144.8370   73.4040  219.7050 C   0  0  0  0  0  0  0  0  0  0  0  0
  144.3850   74.4790  220.4770 C   0  0  0  0  0  0  0  0  0  0  0  0
  143.7470   75.5620  219.8650 C   0  0  0  0  0  0  0  0  0  0  0  0
  141.3510   78.2620  219.7220 N   0  0  0  0  0  0  0  0  0  0  0  0
  141.1320   79.6030  219.2570 C   0  0  0  0  0  0  0  0  0  0  0  0
  141.2690   80.6480  220.0680 C   0  0  0  0  0  0  0  0  0  0  0  0
  141.6460   80.4650  221.4760 C   0  0  0  0  0  0  0  0  0  0  0  0
  141.8280   81.5840  222.3020 C   0  0  0  0  0  0  0  0  0  0  0  0
  142.2020   81.4210  223.6380 C   0  0  0  0  0  0  0  0  0  0  0  0
  142.4010   80.1400  224.1570 C   0  0  0  0  0  0  0  0  0  0  0  0
  142.2190   79.0190  223.3420 C   0  0  0  0  0  0  0  0  0  0  0  0
  141.8320   79.1690  221.9980 C   0  0  0  0  0  0  0  0  0  0  0  0
  141.6250   77.9400  221.1350 C   0  0  1  0  0  0  0  0  0  0  0  0
  140.5150   77.0850  221.6960 C   0  0  0  0  0  0  0  0  0  0  0  0
  140.5930   75.7230  221.9680 C   0  0  0  0  0  0  0  0  0  0  0  0
  139.4040   75.2570  222.4130 N   0  0  0  0  0  0  0  0  0  0  0  0
  138.5730   76.3120  222.4230 C   0  0  0  0  0  0  0  0  0  0  0  0
  137.2270   76.3210  222.7860 C   0  0  0  0  0  0  0  0  0  0  0  0
  136.5310   77.5390  222.7050 C   0  0  0  0  0  0  0  0  0  0  0  0
  137.1880   78.7100  222.2660 C   0  0  0  0  0  0  0  0  0  0  0  0
  138.5460   78.6720  221.9030 C   0  0  0  0  0  0  0  0  0  0  0  0
  139.2130   77.4490  221.9950 C   0  0  0  0  0  0  0  0  0  0  0  0
  142.7184   76.5044  216.7460 H   0  0  0  0  0  0  0  0  0  0  0  0
  143.4435   77.6396  217.9488 H   0  0  0  0  0  0  0  0  0  0  0  0
  143.8580   74.4893  216.6137 H   0  0  0  0  0  0  0  0  0  0  0  0
  144.9989   72.5621  217.7130 H   0  0  0  0  0  0  0  0  0  0  0  0
  145.3418   72.5540  220.1874 H   0  0  0  0  0  0  0  0  0  0  0  0
  144.5317   74.4724  221.5672 H   0  0  0  0  0  0  0  0  0  0  0  0
  143.3855   76.4021  220.4762 H   0  0  0  0  0  0  0  0  0  0  0  0
  140.8450   79.7692  218.2082 H   0  0  0  0  0  0  0  0  0  0  0  0
  141.0978   81.6627  219.6794 H   0  0  0  0  0  0  0  0  0  0  0  0
  141.6755   82.5948  221.8957 H   0  0  0  0  0  0  0  0  0  0  0  0
  142.3398   82.3023  224.2816 H   0  0  0  0  0  0  0  0  0  0  0  0
  142.7011   80.0130  225.2076 H   0  0  0  0  0  0  0  0  0  0  0  0
  142.3796   78.0121  223.7547 H   0  0  0  0  0  0  0  0  0  0  0  0
  142.5725   77.3815  221.1556 H   0  0  0  0  0  0  0  0  0  0  0  0
  141.4970   75.1097  221.8390 H   0  0  0  0  0  0  0  0  0  0  0  0
  139.1790   74.2730  222.6790 H   0  0  0  0  0  0  0  0  0  0  0  0
  136.7252   75.4028  223.1254 H   0  0  0  0  0  0  0  0  0  0  0  0
  135.4681   77.5809  222.9851 H   0  0  0  0  0  0  0  0  0  0  0  0
  136.6334   79.6582  222.2077 H   0  0  0  0  0  0  0  0  0  0  0  0
  139.0664   79.5774  221.5574 H   0  0  0  0  0  0  0  0  0  0  0  0
  1  2  2  0
  2  3  2  0
  2  4  1  0
  4  5  1  0
  5  6  2  0
  6  7  1  0
  7  8  2  0
  8  9  1  0
  9 10  2  0
  2 11  1  0
 11 12  1  0
 12 13  2  0
 13 14  1  0
 14 15  2  0
 15 16  1  0
 16 17  2  0
 17 18  1  0
 18 19  2  0
 19 20  1  0
 20 21  1  0
 21 22  2  0
 22 23  1  0
 23 24  1  0
 24 25  2  0
 25 26  1  0
 26 27  2  0
 27 28  1  0
 28 29  2  0
 10  5  1  0
 20 11  1  0
 29 21  1  0
 19 14  1  0
 29 24  1  0
  4 30  1  0
  4 31  1  0
  6 32  1  0
  7 33  1  0
  8 34  1  0
  9 35  1  0
 10 36  1  0
 12 37  1  0
 13 38  1  0
 15 39  1  0
 16 40  1  0
 17 41  1  0
 18 42  1  0
 20 43  1  6
 22 44  1  0
 23 45  1  0
 25 46  1  0
 26 47  1  0
 27 48  1  0
 28 49  1  0
M  END
>  <meeko>  (17) 
{"free_energy": -7.74, "intermolecular_energy": -8.93, "internal_energy": -1.99, "cluster_size": 18, "cluster_id": 1, "rank_in_cluster": 4}

$$$$

     RDKit          3D

 49 53  0  0  0  0  0  0  0  0999 V2000
  140.3450   75.9310  219.1320 O   0  0  0  0  0  0  0  0  0  0  0  0
  141.1960   77.0450  218.5890 S   0  0  0  0  0  0  0  0  0  0  0  0
  140.5530   77.5730  217.3350 O   0  0  0  0  0  0  0  0  0  0  0  0
  142.8350   76.4310  218.2290 C   0  0  0  0  0  0  0  0  0  0  0  0
  143.1380   75.2120  219.0530 C   0  0  0  0  0  0  0  0  0  0  0  0
  144.0760   75.2810  220.0970 C   0  0  0  0  0  0  0  0  0  0  0  0
  144.3850   74.1380  220.8410 C   0  0  0  0  0  0  0  0  0  0  0  0
  143.7670   72.9200  220.5440 C   0  0  0  0  0  0  0  0  0  0  0  0
  142.8430   72.8420  219.4980 C   0  0  0  0  0  0  0  0  0  0  0  0
  142.5310   73.9810  218.7510 C   0  0  0  0  0  0  0  0  0  0  0  0
  141.3140   78.3160  219.7690 N   0  0  0  0  0  0  0  0  0  0  0  0
  141.0800   79.6620  219.3270 C   0  0  0  0  0  0  0  0  0  0  0  0
  141.2220   80.6950  220.1530 C   0  0  0  0  0  0  0  0  0  0  0  0
  141.6220   80.4940  221.5510 C   0  0  0  0  0  0  0  0  0  0  0  0
  141.8090   81.6010  222.3910 C   0  0  0  0  0  0  0  0  0  0  0  0
  142.2040   81.4200  223.7190 C   0  0  0  0  0  0  0  0  0  0  0  0
  142.4190   80.1320  224.2150 C   0  0  0  0  0  0  0  0  0  0  0  0
  142.2320   79.0230  223.3860 C   0  0  0  0  0  0  0  0  0  0  0  0
  141.8240   79.1910  222.0510 C   0  0  0  0  0  0  0  0  0  0  0  0
  141.6120   77.9740  221.1720 C   0  0  1  0  0  0  0  0  0  0  0  0
  140.5160   77.1030  221.7370 C   0  0  0  0  0  0  0  0  0  0  0  0
  140.6070   75.7380  221.9910 C   0  0  0  0  0  0  0  0  0  0  0  0
  139.4280   75.2580  222.4450 N   0  0  0  0  0  0  0  0  0  0  0  0
  138.5900   76.3060  222.4780 C   0  0  0  0  0  0  0  0  0  0  0  0
  137.2480   76.2990  222.8590 C   0  0  0  0  0  0  0  0  0  0  0  0
  136.5420   77.5120  222.8020 C   0  0  0  0  0  0  0  0  0  0  0  0
  137.1830   78.6940  222.3690 C   0  0  0  0  0  0  0  0  0  0  0  0
  138.5370   78.6710  221.9890 C   0  0  0  0  0  0  0  0  0  0  0  0
  139.2150   77.4520  222.0570 C   0  0  0  0  0  0  0  0  0  0  0  0
  142.8967   76.1702  217.1621 H   0  0  0  0  0  0  0  0  0  0  0  0
  143.5677   77.2142  218.4733 H   0  0  0  0  0  0  0  0  0  0  0  0
  144.5685   76.2367  220.3296 H   0  0  0  0  0  0  0  0  0  0  0  0
  145.1155   74.1975  221.6612 H   0  0  0  0  0  0  0  0  0  0  0  0
  144.0077   72.0229  221.1333 H   0  0  0  0  0  0  0  0  0  0  0  0
  142.3605   71.8820  219.2624 H   0  0  0  0  0  0  0  0  0  0  0  0
  141.8084   73.9139  217.9244 H   0  0  0  0  0  0  0  0  0  0  0  0
  140.7774   79.8425  218.2849 H   0  0  0  0  0  0  0  0  0  0  0  0
  141.0371   81.7143  219.7832 H   0  0  0  0  0  0  0  0  0  0  0  0
  141.6440   82.6168  222.0027 H   0  0  0  0  0  0  0  0  0  0  0  0
  142.3457   82.2922  224.3742 H   0  0  0  0  0  0  0  0  0  0  0  0
  142.7358   79.9908  225.2589 H   0  0  0  0  0  0  0  0  0  0  0  0
  142.4052   78.0110  223.7807 H   0  0  0  0  0  0  0  0  0  0  0  0
  142.5633   77.4217  221.1690 H   0  0  0  0  0  0  0  0  0  0  0  0
  141.5136   75.1329  221.8427 H   0  0  0  0  0  0  0  0  0  0  0  0
  139.2140   74.2690  222.7020 H   0  0  0  0  0  0  0  0  0  0  0  0
  136.7581   75.3727  223.1935 H   0  0  0  0  0  0  0  0  0  0  0  0
  135.4826   77.5417  223.0966 H   0  0  0  0  0  0  0  0  0  0  0  0
  136.6198   79.6380  222.3288 H   0  0  0  0  0  0  0  0  0  0  0  0
  139.0461   79.5848  221.6488 H   0  0  0  0  0  0  0  0  0  0  0  0
  1  2  2  0
  2  3  2  0
  2  4  1  0
  4  5  1  0
  5  6  2  0
  6  7  1  0
  7  8  2  0
  8  9  1  0
  9 10  2  0
  2 11  1  0
 11 12  1  0
 12 13  2  0
 13 14  1  0
 14 15  2  0
 15 16  1  0
 16 17  2  0
 17 18  1  0
 18 19  2  0
 19 20  1  0
 20 21  1  0
 21 22  2  0
 22 23  1  0
 23 24  1  0
 24 25  2  0
 25 26  1  0
 26 27  2  0
 27 28  1  0
 28 29  2  0
 10  5  1  0
 20 11  1  0
 29 21  1  0
 19 14  1  0
 29 24  1  0
  4 30  1  0
  4 31  1  0
  6 32  1  0
  7 33  1  0
  8 34  1  0
  9 35  1  0
 10 36  1  0
 12 37  1  0
 13 38  1  0
 15 39  1  0
 16 40  1  0
 17 41  1  0
 18 42  1  0
 20 43  1  6
 22 44  1  0
 23 45  1  0
 25 46  1  0
 26 47  1  0
 27 48  1  0
 28 49  1  0
M  END
>  <meeko>  (18) 
{"free_energy": -7.59, "intermolecular_energy": -8.78, "internal_energy": -2.2, "cluster_size": 18, "cluster_id": 1, "rank_in_cluster": 9}

$$$$

     RDKit          3D

 49 53  0  0  0  0  0  0  0  0999 V2000
  140.3660   75.9400  219.1580 O   0  0  0  0  0  0  0  0  0  0  0  0
  141.2030   77.0590  218.6020 S   0  0  0  0  0  0  0  0  0  0  0  0
  140.5460   77.5740  217.3510 O   0  0  0  0  0  0  0  0  0  0  0  0
  142.8450   76.4570  218.2320 C   0  0  0  0  0  0  0  0  0  0  0  0
  143.1510   75.2240  219.0320 C   0  0  0  0  0  0  0  0  0  0  0  0
  142.4570   74.0270  218.7830 C   0  0  0  0  0  0  0  0  0  0  0  0
  142.7180   72.8900  219.5520 C   0  0  0  0  0  0  0  0  0  0  0  0
  143.6650   72.9390  220.5790 C   0  0  0  0  0  0  0  0  0  0  0  0
  144.3500   74.1300  220.8410 C   0  0  0  0  0  0  0  0  0  0  0  0
  144.0920   75.2700  220.0750 C   0  0  0  0  0  0  0  0  0  0  0  0
  141.3200   78.3370  219.7740 N   0  0  0  0  0  0  0  0  0  0  0  0
  141.1010   79.6820  219.3210 C   0  0  0  0  0  0  0  0  0  0  0  0
  141.2420   80.7200  220.1400 C   0  0  0  0  0  0  0  0  0  0  0  0
  141.6270   80.5250  221.5450 C   0  0  0  0  0  0  0  0  0  0  0  0
  141.8150   81.6370  222.3780 C   0  0  0  0  0  0  0  0  0  0  0  0
  142.1960   81.4610  223.7110 C   0  0  0  0  0  0  0  0  0  0  0  0
  142.3950   80.1760  224.2180 C   0  0  0  0  0  0  0  0  0  0  0  0
  142.2080   79.0620  223.3950 C   0  0  0  0  0  0  0  0  0  0  0  0
  141.8140   79.2240  222.0550 C   0  0  0  0  0  0  0  0  0  0  0  0
  141.6010   78.0030  221.1830 C   0  0  1  0  0  0  0  0  0  0  0  0
  140.4930   77.1440  221.7430 C   0  0  0  0  0  0  0  0  0  0  0  0
  140.5710   75.7800  222.0060 C   0  0  0  0  0  0  0  0  0  0  0  0
  139.3840   75.3120  222.4520 N   0  0  0  0  0  0  0  0  0  0  0  0
  138.5540   76.3670  222.4710 C   0  0  0  0  0  0  0  0  0  0  0  0
  137.2080   76.3740  222.8390 C   0  0  0  0  0  0  0  0  0  0  0  0
  136.5130   77.5930  222.7680 C   0  0  0  0  0  0  0  0  0  0  0  0
  137.1680   78.7660  222.3340 C   0  0  0  0  0  0  0  0  0  0  0  0
  138.5250   78.7300  221.9660 C   0  0  0  0  0  0  0  0  0  0  0  0
  139.1920   77.5060  222.0480 C   0  0  0  0  0  0  0  0  0  0  0  0
  142.9087   76.2171  217.1604 H   0  0  0  0  0  0  0  0  0  0  0  0
  143.5749   77.2377  218.4924 H   0  0  0  0  0  0  0  0  0  0  0  0
  141.7061   73.9854  217.9802 H   0  0  0  0  0  0  0  0  0  0  0  0
  142.1770   71.9541  219.3487 H   0  0  0  0  0  0  0  0  0  0  0  0
  143.8713   72.0416  221.1807 H   0  0  0  0  0  0  0  0  0  0  0  0
  145.0929   74.1694  221.6512 H   0  0  0  0  0  0  0  0  0  0  0  0
  144.6273   76.2068  220.2891 H   0  0  0  0  0  0  0  0  0  0  0  0
  140.8105   79.8572  218.2746 H   0  0  0  0  0  0  0  0  0  0  0  0
  141.0682   81.7379  219.7611 H   0  0  0  0  0  0  0  0  0  0  0  0
  141.6621   82.6514  221.9810 H   0  0  0  0  0  0  0  0  0  0  0  0
  142.3392   82.3364  224.3615 H   0  0  0  0  0  0  0  0  0  0  0  0
  142.6993   80.0399  225.2663 H   0  0  0  0  0  0  0  0  0  0  0  0
  142.3701   78.0515  223.7983 H   0  0  0  0  0  0  0  0  0  0  0  0
  142.5480   77.4435  221.1937 H   0  0  0  0  0  0  0  0  0  0  0  0
  141.4741   75.1670  221.8698 H   0  0  0  0  0  0  0  0  0  0  0  0
  139.1590   74.3270  222.7130 H   0  0  0  0  0  0  0  0  0  0  0  0
  136.7068   75.4540  223.1742 H   0  0  0  0  0  0  0  0  0  0  0  0
  135.4512   77.6338  223.0525 H   0  0  0  0  0  0  0  0  0  0  0  0
  136.6132   79.7145  222.2833 H   0  0  0  0  0  0  0  0  0  0  0  0
  139.0445   79.6374  221.6244 H   0  0  0  0  0  0  0  0  0  0  0  0
  1  2  2  0
  2  3  2  0
  2  4  1  0
  4  5  1  0
  5  6  2  0
  6  7  1  0
  7  8  2  0
  8  9  1  0
  9 10  2  0
  2 11  1  0
 11 12  1  0
 12 13  2  0
 13 14  1  0
 14 15  2  0
 15 16  1  0
 16 17  2  0
 17 18  1  0
 18 19  2  0
 19 20  1  0
 20 21  1  0
 21 22  2  0
 22 23  1  0
 23 24  1  0
 24 25  2  0
 25 26  1  0
 26 27  2  0
 27 28  1  0
 28 29  2  0
 10  5  1  0
 20 11  1  0
 29 21  1  0
 19 14  1  0
 29 24  1  0
  4 30  1  0
  4 31  1  0
  6 32  1  0
  7 33  1  0
  8 34  1  0
  9 35  1  0
 10 36  1  0
 12 37  1  0
 13 38  1  0
 15 39  1  0
 16 40  1  0
 17 41  1  0
 18 42  1  0
 20 43  1  6
 22 44  1  0
 23 45  1  0
 25 46  1  0
 26 47  1  0
 27 48  1  0
 28 49  1  0
M  END
>  <meeko>  (19) 
{"free_energy": -7.59, "intermolecular_energy": -8.78, "internal_energy": -2.17, "cluster_size": 18, "cluster_id": 1, "rank_in_cluster": 10}

$$$$

     RDKit          3D

 49 53  0  0  0  0  0  0  0  0999 V2000
  140.3340   75.9250  219.1230 O   0  0  0  0  0  0  0  0  0  0  0  0
  141.1930   77.0320  218.5790 S   0  0  0  0  0  0  0  0  0  0  0  0
  140.5610   77.5540  217.3180 O   0  0  0  0  0  0  0  0  0  0  0  0
  142.8320   76.4090  218.2350 C   0  0  0  0  0  0  0  0  0  0  0  0
  143.1250   75.1950  219.0690 C   0  0  0  0  0  0  0  0  0  0  0  0
  144.0910   75.2520  220.0870 C   0  0  0  0  0  0  0  0  0  0  0  0
  144.3890   74.1120  220.8390 C   0  0  0  0  0  0  0  0  0  0  0  0
  143.7320   72.9070  220.5750 C   0  0  0  0  0  0  0  0  0  0  0  0
  142.7790   72.8390  219.5550 C   0  0  0  0  0  0  0  0  0  0  0  0
  142.4780   73.9770  218.8000 C   0  0  0  0  0  0  0  0  0  0  0  0
  141.3070   78.3090  219.7530 N   0  0  0  0  0  0  0  0  0  0  0  0
  141.0730   79.6530  219.3030 C   0  0  0  0  0  0  0  0  0  0  0  0
  141.2120   80.6910  220.1230 C   0  0  0  0  0  0  0  0  0  0  0  0
  141.6090   80.4970  221.5240 C   0  0  0  0  0  0  0  0  0  0  0  0
  141.7930   81.6100  222.3580 C   0  0  0  0  0  0  0  0  0  0  0  0
  142.1850   81.4360  223.6880 C   0  0  0  0  0  0  0  0  0  0  0  0
  142.3990   80.1520  224.1910 C   0  0  0  0  0  0  0  0  0  0  0  0
  142.2160   79.0370  223.3680 C   0  0  0  0  0  0  0  0  0  0  0  0
  141.8100   79.1980  222.0310 C   0  0  0  0  0  0  0  0  0  0  0  0
  141.6010   77.9760  221.1590 C   0  0  1  0  0  0  0  0  0  0  0  0
  140.5050   77.1070  221.7250 C   0  0  0  0  0  0  0  0  0  0  0  0
  140.6000   75.7460  221.9960 C   0  0  0  0  0  0  0  0  0  0  0  0
  139.4190   75.2660  222.4470 N   0  0  0  0  0  0  0  0  0  0  0  0
  138.5760   76.3110  222.4620 C   0  0  0  0  0  0  0  0  0  0  0  0
  137.2320   76.3030  222.8320 C   0  0  0  0  0  0  0  0  0  0  0  0
  136.5210   77.5130  222.7560 C   0  0  0  0  0  0  0  0  0  0  0  0
  137.1610   78.6920  222.3140 C   0  0  0  0  0  0  0  0  0  0  0  0
  138.5180   78.6710  221.9440 C   0  0  0  0  0  0  0  0  0  0  0  0
  139.2000   77.4550  222.0310 C   0  0  0  0  0  0  0  0  0  0  0  0
  142.9001   76.1406  217.1704 H   0  0  0  0  0  0  0  0  0  0  0  0
  143.5658   77.1911  218.4794 H   0  0  0  0  0  0  0  0  0  0  0  0
  144.6149   76.1970  220.2932 H   0  0  0  0  0  0  0  0  0  0  0  0
  145.1416   74.1633  221.6396 H   0  0  0  0  0  0  0  0  0  0  0  0
  143.9651   72.0118  221.1702 H   0  0  0  0  0  0  0  0  0  0  0  0
  142.2651   71.8892  219.3458 H   0  0  0  0  0  0  0  0  0  0  0  0
  141.7326   73.9185  217.9932 H   0  0  0  0  0  0  0  0  0  0  0  0
  140.7728   79.8272  218.2592 H   0  0  0  0  0  0  0  0  0  0  0  0
  141.0273   81.7081  219.7471 H   0  0  0  0  0  0  0  0  0  0  0  0
  141.6281   82.6235  221.9635 H   0  0  0  0  0  0  0  0  0  0  0  0
  142.3250   82.3117  224.3388 H   0  0  0  0  0  0  0  0  0  0  0  0
  142.7122   80.0171  225.2368 H   0  0  0  0  0  0  0  0  0  0  0  0
  142.3906   78.0275  223.7685 H   0  0  0  0  0  0  0  0  0  0  0  0
  142.5530   77.4248  221.1628 H   0  0  0  0  0  0  0  0  0  0  0  0
  141.5103   75.1433  221.8619 H   0  0  0  0  0  0  0  0  0  0  0  0
  139.2070   74.2790  222.7140 H   0  0  0  0  0  0  0  0  0  0  0  0
  136.7431   75.3784  223.1728 H   0  0  0  0  0  0  0  0  0  0  0  0
  135.4594   77.5420  223.0426 H   0  0  0  0  0  0  0  0  0  0  0  0
  136.5943   79.6332  222.2587 H   0  0  0  0  0  0  0  0  0  0  0  0
  139.0259   79.5830  221.5972 H   0  0  0  0  0  0  0  0  0  0  0  0
  1  2  2  0
  2  3  2  0
  2  4  1  0
  4  5  1  0
  5  6  2  0
  6  7  1  0
  7  8  2  0
  8  9  1  0
  9 10  2  0
  2 11  1  0
 11 12  1  0
 12 13  2  0
 13 14  1  0
 14 15  2  0
 15 16  1  0
 16 17  2  0
 17 18  1  0
 18 19  2  0
 19 20  1  0
 20 21  1  0
 21 22  2  0
 22 23  1  0
 23 24  1  0
 24 25  2  0
 25 26  1  0
 26 27  2  0
 27 28  1  0
 28 29  2  0
 10  5  1  0
 20 11  1  0
 29 21  1  0
 19 14  1  0
 29 24  1  0
  4 30  1  0
  4 31  1  0
  6 32  1  0
  7 33  1  0
  8 34  1  0
  9 35  1  0
 10 36  1  0
 12 37  1  0
 13 38  1  0
 15 39  1  0
 16 40  1  0
 17 41  1  0
 18 42  1  0
 20 43  1  6
 22 44  1  0
 23 45  1  0
 25 46  1  0
 26 47  1  0
 27 48  1  0
 28 49  1  0
M  END
>  <meeko>  (20) 
{"free_energy": -7.58, "intermolecular_energy": -8.78, "internal_energy": -2.2, "cluster_size": 18, "cluster_id": 1, "rank_in_cluster": 11}

$$$$
