
     RDKit          3D

 49 53  0  0  0  0  0  0  0  0999 V2000
  143.6930   80.3320  223.4220 O   0  0  0  0  0  0  0  0  0  0  0  0
  142.2650   79.9310  223.1770 S   0  0  0  0  0  0  0  0  0  0  0  0
  141.9640   78.7070  223.9960 O   0  0  0  0  0  0  0  0  0  0  0  0
  141.1760   81.2680  223.6440 C   0  0  0  0  0  0  0  0  0  0  0  0
  139.7550   80.9440  223.2840 C   0  0  0  0  0  0  0  0  0  0  0  0
  139.0610   81.7360  222.3540 C   0  0  0  0  0  0  0  0  0  0  0  0
  137.7510   81.4110  221.9900 C   0  0  0  0  0  0  0  0  0  0  0  0
  137.1270   80.2910  222.5460 C   0  0  0  0  0  0  0  0  0  0  0  0
  137.8140   79.4930  223.4660 C   0  0  0  0  0  0  0  0  0  0  0  0
  139.1250   79.8140  223.8310 C   0  0  0  0  0  0  0  0  0  0  0  0
  142.0450   79.5760  221.4900 N   0  0  0  0  0  0  0  0  0  0  0  0
  141.6510   80.6490  220.6180 C   0  0  0  0  0  0  0  0  0  0  0  0
  141.5760   80.4690  219.3010 C   0  0  0  0  0  0  0  0  0  0  0  0
  141.9090   79.1660  218.7040 C   0  0  0  0  0  0  0  0  0  0  0  0
  141.9710   79.0260  217.3100 C   0  0  0  0  0  0  0  0  0  0  0  0
  142.3070   77.7950  216.7420 C   0  0  0  0  0  0  0  0  0  0  0  0
  142.5830   76.6970  217.5610 C   0  0  0  0  0  0  0  0  0  0  0  0
  142.5190   76.8270  218.9510 C   0  0  0  0  0  0  0  0  0  0  0  0
  142.1850   78.0620  219.5340 C   0  0  0  0  0  0  0  0  0  0  0  0
  142.0510   78.1740  221.0370 C   0  0  2  0  0  0  0  0  0  0  0  0
  140.7840   77.4960  221.4890 C   0  0  0  0  0  0  0  0  0  0  0  0
  140.6870   76.4410  222.3970 C   0  0  0  0  0  0  0  0  0  0  0  0
  139.4110   76.0080  222.4860 N   0  0  0  0  0  0  0  0  0  0  0  0
  138.6990   76.7700  221.6370 C   0  0  0  0  0  0  0  0  0  0  0  0
  137.3360   76.6730  221.3580 C   0  0  0  0  0  0  0  0  0  0  0  0
  136.7950   77.5550  220.4070 C   0  0  0  0  0  0  0  0  0  0  0  0
  137.6190   78.5030  219.7610 C   0  0  0  0  0  0  0  0  0  0  0  0
  138.9900   78.5770  220.0600 C   0  0  0  0  0  0  0  0  0  0  0  0
  139.5010   77.6890  221.0080 C   0  0  0  0  0  0  0  0  0  0  0  0
  141.2460   81.4284  224.7300 H   0  0  0  0  0  0  0  0  0  0  0  0
  141.4796   82.1770  223.1041 H   0  0  0  0  0  0  0  0  0  0  0  0
  139.5505   82.6156  221.9104 H   0  0  0  0  0  0  0  0  0  0  0  0
  137.2107   82.0376  221.2651 H   0  0  0  0  0  0  0  0  0  0  0  0
  136.0956   80.0372  222.2600 H   0  0  0  0  0  0  0  0  0  0  0  0
  137.3224   78.6114  223.9032 H   0  0  0  0  0  0  0  0  0  0  0  0
  139.6650   79.1793  224.5491 H   0  0  0  0  0  0  0  0  0  0  0  0
  141.4080   81.6331  221.0452 H   0  0  0  0  0  0  0  0  0  0  0  0
  141.2625   81.3013  218.6537 H   0  0  0  0  0  0  0  0  0  0  0  0
  141.7544   79.8881  216.6620 H   0  0  0  0  0  0  0  0  0  0  0  0
  142.3545   77.6897  215.6481 H   0  0  0  0  0  0  0  0  0  0  0  0
  142.8508   75.7295  217.1113 H   0  0  0  0  0  0  0  0  0  0  0  0
  142.7310   75.9587  219.5922 H   0  0  0  0  0  0  0  0  0  0  0  0
  142.9263   77.6795  221.4834 H   0  0  0  0  0  0  0  0  0  0  0  0
  141.5322   76.0206  222.9617 H   0  0  0  0  0  0  0  0  0  0  0  0
  139.0570   75.2240  223.0770 H   0  0  0  0  0  0  0  0  0  0  0  0
  136.7043   75.9296  221.8663 H   0  0  0  0  0  0  0  0  0  0  0  0
  135.7232   77.5068  220.1642 H   0  0  0  0  0  0  0  0  0  0  0  0
  137.1843   79.1883  219.0185 H   0  0  0  0  0  0  0  0  0  0  0  0
  139.6402   79.3117  219.5626 H   0  0  0  0  0  0  0  0  0  0  0  0
  1  2  2  0
  2  3  2  0
  2  4  1  0
  4  5  1  0
  5  6  2  0
  6  7  1  0
  7  8  2  0
  8  9  1  0
  9 10  2  0
  2 11  1  0
 11 12  1  0
 12 13  2  0
 13 14  1  0
 14 15  2  0
 15 16  1  0
 16 17  2  0
 17 18  1  0
 18 19  2  0
 19 20  1  0
 20 21  1  0
 21 22  2  0
 22 23  1  0
 23 24  1  0
 24 25  2  0
 25 26  1  0
 26 27  2  0
 27 28  1  0
 28 29  2  0
 10  5  1  0
 20 11  1  0
 29 21  1  0
 19 14  1  0
 29 24  1  0
  4 30  1  0
  4 31  1  0
  6 32  1  0
  7 33  1  0
  8 34  1  0
  9 35  1  0
 10 36  1  0
 12 37  1  0
 13 38  1  0
 15 39  1  0
 16 40  1  0
 17 41  1  0
 18 42  1  0
 20 43  1  1
 22 44  1  0
 23 45  1  0
 25 46  1  0
 26 47  1  0
 27 48  1  0
 28 49  1  0
M  END
>  <meeko>  (1) 
{"free_energy": -6.6, "intermolecular_energy": -7.79, "internal_energy": -3.09, "cluster_size": 16, "cluster_id": 4, "rank_in_cluster": 7}

$$$$

     RDKit          3D

 49 53  0  0  0  0  0  0  0  0999 V2000
  143.6870   80.3600  223.4040 O   0  0  0  0  0  0  0  0  0  0  0  0
  142.2610   79.9520  223.1620 S   0  0  0  0  0  0  0  0  0  0  0  0
  141.9570   78.7450  224.0060 O   0  0  0  0  0  0  0  0  0  0  0  0
  141.1690   81.2980  223.5990 C   0  0  0  0  0  0  0  0  0  0  0  0
  139.7480   80.9630  223.2450 C   0  0  0  0  0  0  0  0  0  0  0  0
  139.1260   79.8340  223.8020 C   0  0  0  0  0  0  0  0  0  0  0  0
  137.7910   79.5440  223.5030 C   0  0  0  0  0  0  0  0  0  0  0  0
  137.0680   80.3830  222.6510 C   0  0  0  0  0  0  0  0  0  0  0  0
  137.6770   81.5140  222.0990 C   0  0  0  0  0  0  0  0  0  0  0  0
  139.0110   81.8080  222.3980 C   0  0  0  0  0  0  0  0  0  0  0  0
  142.0460   79.5630  221.4820 N   0  0  0  0  0  0  0  0  0  0  0  0
  141.6590   80.6180  220.5870 C   0  0  0  0  0  0  0  0  0  0  0  0
  141.5900   80.4110  219.2730 C   0  0  0  0  0  0  0  0  0  0  0  0
  141.9220   79.0950  218.7050 C   0  0  0  0  0  0  0  0  0  0  0  0
  141.9890   78.9250  217.3150 C   0  0  0  0  0  0  0  0  0  0  0  0
  142.3240   77.6820  216.7740 C   0  0  0  0  0  0  0  0  0  0  0  0
  142.5940   76.6010  217.6170 C   0  0  0  0  0  0  0  0  0  0  0  0
  142.5240   76.7600  219.0030 C   0  0  0  0  0  0  0  0  0  0  0  0
  142.1910   78.0080  219.5590 C   0  0  0  0  0  0  0  0  0  0  0  0
  142.0510   78.1520  221.0590 C   0  0  2  0  0  0  0  0  0  0  0  0
  140.7800   77.4860  221.5200 C   0  0  0  0  0  0  0  0  0  0  0  0
  140.6800   76.4260  222.4190 C   0  0  0  0  0  0  0  0  0  0  0  0
  139.3980   76.0090  222.5190 N   0  0  0  0  0  0  0  0  0  0  0  0
  138.6870   76.7860  221.6850 C   0  0  0  0  0  0  0  0  0  0  0  0
  137.3200   76.7090  221.4210 C   0  0  0  0  0  0  0  0  0  0  0  0
  136.7810   77.6070  220.4830 C   0  0  0  0  0  0  0  0  0  0  0  0
  137.6090   78.5490  219.8360 C   0  0  0  0  0  0  0  0  0  0  0  0
  138.9850   78.6030  220.1200 C   0  0  0  0  0  0  0  0  0  0  0  0
  139.4940   77.7000  221.0550 C   0  0  0  0  0  0  0  0  0  0  0  0
  141.2380   81.4825  224.6812 H   0  0  0  0  0  0  0  0  0  0  0  0
  141.4714   82.1956  223.0396 H   0  0  0  0  0  0  0  0  0  0  0  0
  139.6915   79.1745  224.4767 H   0  0  0  0  0  0  0  0  0  0  0  0
  137.3102   78.6556  223.9384 H   0  0  0  0  0  0  0  0  0  0  0  0
  136.0186   80.1534  222.4143 H   0  0  0  0  0  0  0  0  0  0  0  0
  137.1061   82.1734  221.4287 H   0  0  0  0  0  0  0  0  0  0  0  0
  139.4848   82.7032  221.9690 H   0  0  0  0  0  0  0  0  0  0  0  0
  141.4161   81.6112  220.9927 H   0  0  0  0  0  0  0  0  0  0  0  0
  141.2823   81.2307  218.6071 H   0  0  0  0  0  0  0  0  0  0  0  0
  141.7769   79.7738  216.6482 H   0  0  0  0  0  0  0  0  0  0  0  0
  142.3754   77.5537  215.6827 H   0  0  0  0  0  0  0  0  0  0  0  0
  142.8619   75.6238  217.1888 H   0  0  0  0  0  0  0  0  0  0  0  0
  142.7304   75.9045  219.6630 H   0  0  0  0  0  0  0  0  0  0  0  0
  142.9233   77.6652  221.5195 H   0  0  0  0  0  0  0  0  0  0  0  0
  141.5260   75.9896  222.9702 H   0  0  0  0  0  0  0  0  0  0  0  0
  139.0410   75.2240  223.1080 H   0  0  0  0  0  0  0  0  0  0  0  0
  136.6840   75.9698  221.9300 H   0  0  0  0  0  0  0  0  0  0  0  0
  135.7061   77.5751  220.2518 H   0  0  0  0  0  0  0  0  0  0  0  0
  137.1747   79.2461  219.1042 H   0  0  0  0  0  0  0  0  0  0  0  0
  139.6393   79.3333  219.6215 H   0  0  0  0  0  0  0  0  0  0  0  0
  1  2  2  0
  2  3  2  0
  2  4  1  0
  4  5  1  0
  5  6  2  0
  6  7  1  0
  7  8  2  0
  8  9  1  0
  9 10  2  0
  2 11  1  0
 11 12  1  0
 12 13  2  0
 13 14  1  0
 14 15  2  0
 15 16  1  0
 16 17  2  0
 17 18  1  0
 18 19  2  0
 19 20  1  0
 20 21  1  0
 21 22  2  0
 22 23  1  0
 23 24  1  0
 24 25  2  0
 25 26  1  0
 26 27  2  0
 27 28  1  0
 28 29  2  0
 10  5  1  0
 20 11  1  0
 29 21  1  0
 19 14  1  0
 29 24  1  0
  4 30  1  0
  4 31  1  0
  6 32  1  0
  7 33  1  0
  8 34  1  0
  9 35  1  0
 10 36  1  0
 12 37  1  0
 13 38  1  0
 15 39  1  0
 16 40  1  0
 17 41  1  0
 18 42  1  0
 20 43  1  1
 22 44  1  0
 23 45  1  0
 25 46  1  0
 26 47  1  0
 27 48  1  0
 28 49  1  0
M  END
>  <meeko>  (2) 
{"free_energy": -6.58, "intermolecular_energy": -7.77, "internal_energy": -3.09, "cluster_size": 16, "cluster_id": 4, "rank_in_cluster": 15}

$$$$

     RDKit          3D

 49 53  0  0  0  0  0  0  0  0999 V2000
  143.7100   80.3350  223.4330 O   0  0  0  0  0  0  0  0  0  0  0  0
  142.2860   79.9230  223.1880 S   0  0  0  0  0  0  0  0  0  0  0  0
  141.9880   78.7070  224.0200 O   0  0  0  0  0  0  0  0  0  0  0  0
  141.1880   81.2600  223.6380 C   0  0  0  0  0  0  0  0  0  0  0  0
  139.7740   80.9380  223.2480 C   0  0  0  0  0  0  0  0  0  0  0  0
  139.1060   79.8510  223.8350 C   0  0  0  0  0  0  0  0  0  0  0  0
  137.7770   79.5750  223.5000 C   0  0  0  0  0  0  0  0  0  0  0  0
  137.1050   80.3870  222.5810 C   0  0  0  0  0  0  0  0  0  0  0  0
  137.7600   81.4750  221.9990 C   0  0  0  0  0  0  0  0  0  0  0  0
  139.0880   81.7550  222.3330 C   0  0  0  0  0  0  0  0  0  0  0  0
  142.0720   79.5490  221.5050 N   0  0  0  0  0  0  0  0  0  0  0  0
  141.7030   80.6170  220.6160 C   0  0  0  0  0  0  0  0  0  0  0  0
  141.6360   80.4200  219.3000 C   0  0  0  0  0  0  0  0  0  0  0  0
  141.9500   79.1040  218.7230 C   0  0  0  0  0  0  0  0  0  0  0  0
  142.0200   78.9430  217.3320 C   0  0  0  0  0  0  0  0  0  0  0  0
  142.3400   77.6990  216.7830 C   0  0  0  0  0  0  0  0  0  0  0  0
  142.5900   76.6080  217.6200 C   0  0  0  0  0  0  0  0  0  0  0  0
  142.5180   76.7580  219.0070 C   0  0  0  0  0  0  0  0  0  0  0  0
  142.2010   78.0060  219.5700 C   0  0  0  0  0  0  0  0  0  0  0  0
  142.0570   78.1420  221.0710 C   0  0  2  0  0  0  0  0  0  0  0  0
  140.7750   77.4910  221.5220 C   0  0  0  0  0  0  0  0  0  0  0  0
  140.6550   76.4410  222.4310 C   0  0  0  0  0  0  0  0  0  0  0  0
  139.3690   76.0350  222.5190 N   0  0  0  0  0  0  0  0  0  0  0  0
  138.6750   76.8100  221.6680 C   0  0  0  0  0  0  0  0  0  0  0  0
  137.3110   76.7420  221.3870 C   0  0  0  0  0  0  0  0  0  0  0  0
  136.7910   77.6340  220.4330 C   0  0  0  0  0  0  0  0  0  0  0  0
  137.6350   78.5620  219.7870 C   0  0  0  0  0  0  0  0  0  0  0  0
  139.0070   78.6080  220.0880 C   0  0  0  0  0  0  0  0  0  0  0  0
  139.4980   77.7110  221.0390 C   0  0  0  0  0  0  0  0  0  0  0  0
  141.2361   81.4165  224.7257 H   0  0  0  0  0  0  0  0  0  0  0  0
  141.5030   82.1708  223.1077 H   0  0  0  0  0  0  0  0  0  0  0  0
  139.6310   79.2137  224.5618 H   0  0  0  0  0  0  0  0  0  0  0  0
  137.2601   78.7194  223.9592 H   0  0  0  0  0  0  0  0  0  0  0  0
  136.0599   80.1689  222.3162 H   0  0  0  0  0  0  0  0  0  0  0  0
  137.2296   82.1126  221.2764 H   0  0  0  0  0  0  0  0  0  0  0  0
  139.5977   82.6173  221.8784 H   0  0  0  0  0  0  0  0  0  0  0  0
  141.4728   81.6106  221.0281 H   0  0  0  0  0  0  0  0  0  0  0  0
  141.3432   81.2491  218.6390 H   0  0  0  0  0  0  0  0  0  0  0  0
  141.8222   79.7994  216.6706 H   0  0  0  0  0  0  0  0  0  0  0  0
  142.3953   77.5780  215.6911 H   0  0  0  0  0  0  0  0  0  0  0  0
  142.8438   75.6297  217.1859 H   0  0  0  0  0  0  0  0  0  0  0  0
  142.7104   75.8952  219.6616 H   0  0  0  0  0  0  0  0  0  0  0  0
  142.9206   77.6396  221.5313 H   0  0  0  0  0  0  0  0  0  0  0  0
  141.4904   76.0039  222.9976 H   0  0  0  0  0  0  0  0  0  0  0  0
  138.9980   75.2590  223.1120 H   0  0  0  0  0  0  0  0  0  0  0  0
  136.6624   76.0135  221.8956 H   0  0  0  0  0  0  0  0  0  0  0  0
  135.7188   77.6083  220.1885 H   0  0  0  0  0  0  0  0  0  0  0  0
  137.2160   79.2546  219.0422 H   0  0  0  0  0  0  0  0  0  0  0  0
  139.6732   79.3280  219.5901 H   0  0  0  0  0  0  0  0  0  0  0  0
  1  2  2  0
  2  3  2  0
  2  4  1  0
  4  5  1  0
  5  6  2  0
  6  7  1  0
  7  8  2  0
  8  9  1  0
  9 10  2  0
  2 11  1  0
 11 12  1  0
 12 13  2  0
 13 14  1  0
 14 15  2  0
 15 16  1  0
 16 17  2  0
 17 18  1  0
 18 19  2  0
 19 20  1  0
 20 21  1  0
 21 22  2  0
 22 23  1  0
 23 24  1  0
 24 25  2  0
 25 26  1  0
 26 27  2  0
 27 28  1  0
 28 29  2  0
 10  5  1  0
 20 11  1  0
 29 21  1  0
 19 14  1  0
 29 24  1  0
  4 30  1  0
  4 31  1  0
  6 32  1  0
  7 33  1  0
  8 34  1  0
  9 35  1  0
 10 36  1  0
 12 37  1  0
 13 38  1  0
 15 39  1  0
 16 40  1  0
 17 41  1  0
 18 42  1  0
 20 43  1  1
 22 44  1  0
 23 45  1  0
 25 46  1  0
 26 47  1  0
 27 48  1  0
 28 49  1  0
M  END
>  <meeko>  (3) 
{"free_energy": -6.59, "intermolecular_energy": -7.79, "internal_energy": -3.1, "cluster_size": 16, "cluster_id": 4, "rank_in_cluster": 9}

$$$$

     RDKit          3D

 49 53  0  0  0  0  0  0  0  0999 V2000
  143.9420   80.2770  223.1310 O   0  0  0  0  0  0  0  0  0  0  0  0
  142.4890   79.9340  222.9570 S   0  0  0  0  0  0  0  0  0  0  0  0
  142.1620   78.7660  223.8450 O   0  0  0  0  0  0  0  0  0  0  0  0
  141.4830   81.3440  223.3990 C   0  0  0  0  0  0  0  0  0  0  0  0
  140.0290   81.0520  223.1610 C   0  0  0  0  0  0  0  0  0  0  0  0
  139.3940   80.0040  223.8480 C   0  0  0  0  0  0  0  0  0  0  0  0
  138.0320   79.7570  223.6550 C   0  0  0  0  0  0  0  0  0  0  0  0
  137.2930   80.5590  222.7800 C   0  0  0  0  0  0  0  0  0  0  0  0
  137.9150   81.6100  222.1000 C   0  0  0  0  0  0  0  0  0  0  0  0
  139.2770   81.8600  222.2920 C   0  0  0  0  0  0  0  0  0  0  0  0
  142.1870   79.5130  221.2990 N   0  0  0  0  0  0  0  0  0  0  0  0
  141.7850   80.5580  220.3970 C   0  0  0  0  0  0  0  0  0  0  0  0
  141.6490   80.3230  219.0930 C   0  0  0  0  0  0  0  0  0  0  0  0
  141.9220   78.9870  218.5420 C   0  0  0  0  0  0  0  0  0  0  0  0
  141.9200   78.7840  217.1540 C   0  0  0  0  0  0  0  0  0  0  0  0
  142.1980   77.5200  216.6280 C   0  0  0  0  0  0  0  0  0  0  0  0
  142.4790   76.4510  217.4840 C   0  0  0  0  0  0  0  0  0  0  0  0
  142.4780   76.6440  218.8670 C   0  0  0  0  0  0  0  0  0  0  0  0
  142.2030   77.9120  219.4080 C   0  0  0  0  0  0  0  0  0  0  0  0
  142.1360   78.0930  220.9090 C   0  0  2  0  0  0  0  0  0  0  0  0
  140.8720   77.4720  221.4440 C   0  0  0  0  0  0  0  0  0  0  0  0
  140.7870   76.3950  222.3250 C   0  0  0  0  0  0  0  0  0  0  0  0
  139.4980   76.0310  222.5050 N   0  0  0  0  0  0  0  0  0  0  0  0
  138.7670   76.8580  221.7400 C   0  0  0  0  0  0  0  0  0  0  0  0
  137.3830   76.8470  221.5700 C   0  0  0  0  0  0  0  0  0  0  0  0
  136.8200   77.7890  220.6920 C   0  0  0  0  0  0  0  0  0  0  0  0
  137.6430   78.7100  220.0090 C   0  0  0  0  0  0  0  0  0  0  0  0
  139.0360   78.6990  220.1970 C   0  0  0  0  0  0  0  0  0  0  0  0
  139.5680   77.7520  221.0740 C   0  0  0  0  0  0  0  0  0  0  0  0
  141.6353   81.5773  224.4631 H   0  0  0  0  0  0  0  0  0  0  0  0
  141.7793   82.2003  222.7753 H   0  0  0  0  0  0  0  0  0  0  0  0
  139.9715   79.3748  224.5412 H   0  0  0  0  0  0  0  0  0  0  0  0
  137.5414   78.9315  224.1915 H   0  0  0  0  0  0  0  0  0  0  0  0
  136.2216   80.3628  222.6266 H   0  0  0  0  0  0  0  0  0  0  0  0
  137.3321   82.2411  221.4130 H   0  0  0  0  0  0  0  0  0  0  0  0
  139.7616   82.6924  221.7607 H   0  0  0  0  0  0  0  0  0  0  0  0
  141.5869   81.5663  220.7896 H   0  0  0  0  0  0  0  0  0  0  0  0
  141.3299   81.1348  218.4228 H   0  0  0  0  0  0  0  0  0  0  0  0
  141.6988   79.6228  216.4776 H   0  0  0  0  0  0  0  0  0  0  0  0
  142.1958   77.3657  215.5389 H   0  0  0  0  0  0  0  0  0  0  0  0
  142.7010   75.4573  217.0678 H   0  0  0  0  0  0  0  0  0  0  0  0
  142.6937   75.7988  219.5371 H   0  0  0  0  0  0  0  0  0  0  0  0
  143.0160   77.5930  221.3397 H   0  0  0  0  0  0  0  0  0  0  0  0
  141.6486   75.9093  222.8064 H   0  0  0  0  0  0  0  0  0  0  0  0
  139.1480   75.2480  223.1010 H   0  0  0  0  0  0  0  0  0  0  0  0
  136.7515   76.1235  222.1064 H   0  0  0  0  0  0  0  0  0  0  0  0
  135.7313   77.8086  220.5362 H   0  0  0  0  0  0  0  0  0  0  0  0
  137.1907   79.4423  219.3241 H   0  0  0  0  0  0  0  0  0  0  0  0
  139.6858   79.4133  219.6702 H   0  0  0  0  0  0  0  0  0  0  0  0
  1  2  2  0
  2  3  2  0
  2  4  1  0
  4  5  1  0
  5  6  2  0
  6  7  1  0
  7  8  2  0
  8  9  1  0
  9 10  2  0
  2 11  1  0
 11 12  1  0
 12 13  2  0
 13 14  1  0
 14 15  2  0
 15 16  1  0
 16 17  2  0
 17 18  1  0
 18 19  2  0
 19 20  1  0
 20 21  1  0
 21 22  2  0
 22 23  1  0
 23 24  1  0
 24 25  2  0
 25 26  1  0
 26 27  2  0
 27 28  1  0
 28 29  2  0
 10  5  1  0
 20 11  1  0
 29 21  1  0
 19 14  1  0
 29 24  1  0
  4 30  1  0
  4 31  1  0
  6 32  1  0
  7 33  1  0
  8 34  1  0
  9 35  1  0
 10 36  1  0
 12 37  1  0
 13 38  1  0
 15 39  1  0
 16 40  1  0
 17 41  1  0
 18 42  1  0
 20 43  1  1
 22 44  1  0
 23 45  1  0
 25 46  1  0
 26 47  1  0
 27 48  1  0
 28 49  1  0
M  END
>  <meeko>  (4) 
{"free_energy": -6.6, "intermolecular_energy": -7.79, "internal_energy": -3.09, "cluster_size": 16, "cluster_id": 4, "rank_in_cluster": 8}

$$$$

     RDKit          3D

 49 53  0  0  0  0  0  0  0  0999 V2000
  143.6890   80.3990  223.4550 O   0  0  0  0  0  0  0  0  0  0  0  0
  142.2750   79.9510  223.2170 S   0  0  0  0  0  0  0  0  0  0  0  0
  142.0240   78.7060  224.0220 O   0  0  0  0  0  0  0  0  0  0  0  0
  141.1440   81.2420  223.7130 C   0  0  0  0  0  0  0  0  0  0  0  0
  139.7430   80.9130  223.2840 C   0  0  0  0  0  0  0  0  0  0  0  0
  139.0750   79.8060  223.8340 C   0  0  0  0  0  0  0  0  0  0  0  0
  137.7570   79.5220  223.4640 C   0  0  0  0  0  0  0  0  0  0  0  0
  137.0950   80.3440  222.5470 C   0  0  0  0  0  0  0  0  0  0  0  0
  137.7500   81.4520  222.0020 C   0  0  0  0  0  0  0  0  0  0  0  0
  139.0670   81.7400  222.3710 C   0  0  0  0  0  0  0  0  0  0  0  0
  142.0510   79.6110  221.5270 N   0  0  0  0  0  0  0  0  0  0  0  0
  141.6520   80.6910  220.6670 C   0  0  0  0  0  0  0  0  0  0  0  0
  141.5750   80.5230  219.3480 C   0  0  0  0  0  0  0  0  0  0  0  0
  141.9100   79.2270  218.7380 C   0  0  0  0  0  0  0  0  0  0  0  0
  141.9680   79.1000  217.3430 C   0  0  0  0  0  0  0  0  0  0  0  0
  142.3070   77.8750  216.7620 C   0  0  0  0  0  0  0  0  0  0  0  0
  142.5880   76.7710  217.5710 C   0  0  0  0  0  0  0  0  0  0  0  0
  142.5270   76.8880  218.9620 C   0  0  0  0  0  0  0  0  0  0  0  0
  142.1920   78.1160  219.5570 C   0  0  0  0  0  0  0  0  0  0  0  0
  142.0610   78.2140  221.0620 C   0  0  2  0  0  0  0  0  0  0  0  0
  140.7970   77.5270  221.5110 C   0  0  0  0  0  0  0  0  0  0  0  0
  140.7050   76.4690  222.4140 C   0  0  0  0  0  0  0  0  0  0  0  0
  139.4310   76.0290  222.5010 N   0  0  0  0  0  0  0  0  0  0  0  0
  138.7160   76.7900  221.6540 C   0  0  0  0  0  0  0  0  0  0  0  0
  137.3530   76.6860  221.3740 C   0  0  0  0  0  0  0  0  0  0  0  0
  136.8090   77.5700  220.4260 C   0  0  0  0  0  0  0  0  0  0  0  0
  137.6280   78.5240  219.7840 C   0  0  0  0  0  0  0  0  0  0  0  0
  138.9980   78.6040  220.0840 C   0  0  0  0  0  0  0  0  0  0  0  0
  139.5130   77.7150  221.0290 C   0  0  0  0  0  0  0  0  0  0  0  0
  141.1716   81.3455  224.8078 H   0  0  0  0  0  0  0  0  0  0  0  0
  141.4492   82.1836  223.2332 H   0  0  0  0  0  0  0  0  0  0  0  0
  139.5914   79.1598  224.5591 H   0  0  0  0  0  0  0  0  0  0  0  0
  137.2406   78.6514  223.8946 H   0  0  0  0  0  0  0  0  0  0  0  0
  136.0588   80.1188  222.2545 H   0  0  0  0  0  0  0  0  0  0  0  0
  137.2280   82.0986  221.2813 H   0  0  0  0  0  0  0  0  0  0  0  0
  139.5761   82.6172  221.9452 H   0  0  0  0  0  0  0  0  0  0  0  0
  141.4067   81.6701  221.1042 H   0  0  0  0  0  0  0  0  0  0  0  0
  141.2582   81.3606  218.7093 H   0  0  0  0  0  0  0  0  0  0  0  0
  141.7460   79.9672  216.7038 H   0  0  0  0  0  0  0  0  0  0  0  0
  142.3527   77.7799  215.6671 H   0  0  0  0  0  0  0  0  0  0  0  0
  142.8576   75.8083  217.1121 H   0  0  0  0  0  0  0  0  0  0  0  0
  142.7423   76.0142  219.5946 H   0  0  0  0  0  0  0  0  0  0  0  0
  142.9390   77.7186  221.5021 H   0  0  0  0  0  0  0  0  0  0  0  0
  141.5521   76.0507  222.9773 H   0  0  0  0  0  0  0  0  0  0  0  0
  139.0810   75.2400  223.0890 H   0  0  0  0  0  0  0  0  0  0  0  0
  136.7249   75.9370  221.8784 H   0  0  0  0  0  0  0  0  0  0  0  0
  135.7375   77.5180  220.1827 H   0  0  0  0  0  0  0  0  0  0  0  0
  137.1902   79.2096  219.0435 H   0  0  0  0  0  0  0  0  0  0  0  0
  139.6447   79.3440  219.5898 H   0  0  0  0  0  0  0  0  0  0  0  0
  1  2  2  0
  2  3  2  0
  2  4  1  0
  4  5  1  0
  5  6  2  0
  6  7  1  0
  7  8  2  0
  8  9  1  0
  9 10  2  0
  2 11  1  0
 11 12  1  0
 12 13  2  0
 13 14  1  0
 14 15  2  0
 15 16  1  0
 16 17  2  0
 17 18  1  0
 18 19  2  0
 19 20  1  0
 20 21  1  0
 21 22  2  0
 22 23  1  0
 23 24  1  0
 24 25  2  0
 25 26  1  0
 26 27  2  0
 27 28  1  0
 28 29  2  0
 10  5  1  0
 20 11  1  0
 29 21  1  0
 19 14  1  0
 29 24  1  0
  4 30  1  0
  4 31  1  0
  6 32  1  0
  7 33  1  0
  8 34  1  0
  9 35  1  0
 10 36  1  0
 12 37  1  0
 13 38  1  0
 15 39  1  0
 16 40  1  0
 17 41  1  0
 18 42  1  0
 20 43  1  1
 22 44  1  0
 23 45  1  0
 25 46  1  0
 26 47  1  0
 27 48  1  0
 28 49  1  0
M  END
>  <meeko>  (5) 
{"free_energy": -6.61, "intermolecular_energy": -7.81, "internal_energy": -3.09, "cluster_size": 16, "cluster_id": 4, "rank_in_cluster": 2}

$$$$

     RDKit          3D

 49 53  0  0  0  0  0  0  0  0999 V2000
  143.6860   80.4120  223.4550 O   0  0  0  0  0  0  0  0  0  0  0  0
  142.2700   79.9650  223.2210 S   0  0  0  0  0  0  0  0  0  0  0  0
  142.0210   78.7210  224.0270 O   0  0  0  0  0  0  0  0  0  0  0  0
  141.1420   81.2580  223.7210 C   0  0  0  0  0  0  0  0  0  0  0  0
  139.7390   80.9290  223.2960 C   0  0  0  0  0  0  0  0  0  0  0  0
  139.0660   79.8330  223.8620 C   0  0  0  0  0  0  0  0  0  0  0  0
  137.7470   79.5510  223.4950 C   0  0  0  0  0  0  0  0  0  0  0  0
  137.0890   80.3630  222.5670 C   0  0  0  0  0  0  0  0  0  0  0  0
  137.7490   81.4600  222.0060 C   0  0  0  0  0  0  0  0  0  0  0  0
  139.0680   81.7470  222.3720 C   0  0  0  0  0  0  0  0  0  0  0  0
  142.0410   79.6260  221.5320 N   0  0  0  0  0  0  0  0  0  0  0  0
  141.6390   80.7060  220.6740 C   0  0  0  0  0  0  0  0  0  0  0  0
  141.5580   80.5390  219.3550 C   0  0  0  0  0  0  0  0  0  0  0  0
  141.8910   79.2430  218.7430 C   0  0  0  0  0  0  0  0  0  0  0  0
  141.9450   79.1160  217.3480 C   0  0  0  0  0  0  0  0  0  0  0  0
  142.2820   77.8910  216.7660 C   0  0  0  0  0  0  0  0  0  0  0  0
  142.5660   76.7860  217.5730 C   0  0  0  0  0  0  0  0  0  0  0  0
  142.5090   76.9030  218.9640 C   0  0  0  0  0  0  0  0  0  0  0  0
  142.1750   78.1310  219.5610 C   0  0  0  0  0  0  0  0  0  0  0  0
  142.0490   78.2290  221.0660 C   0  0  2  0  0  0  0  0  0  0  0  0
  140.7870   77.5420  221.5190 C   0  0  0  0  0  0  0  0  0  0  0  0
  140.6980   76.4800  222.4180 C   0  0  0  0  0  0  0  0  0  0  0  0
  139.4230   76.0410  222.5100 N   0  0  0  0  0  0  0  0  0  0  0  0
  138.7050   76.8070  221.6700 C   0  0  0  0  0  0  0  0  0  0  0  0
  137.3410   76.7080  221.3980 C   0  0  0  0  0  0  0  0  0  0  0  0
  136.7920   77.5970  220.4560 C   0  0  0  0  0  0  0  0  0  0  0  0
  137.6090   78.5520  219.8140 C   0  0  0  0  0  0  0  0  0  0  0  0
  138.9820   78.6290  220.1070 C   0  0  0  0  0  0  0  0  0  0  0  0
  139.5010   77.7350  221.0460 C   0  0  0  0  0  0  0  0  0  0  0  0
  141.1733   81.3617  224.8156 H   0  0  0  0  0  0  0  0  0  0  0  0
  141.4465   82.1996  223.2408 H   0  0  0  0  0  0  0  0  0  0  0  0
  139.5789   79.1947  224.5965 H   0  0  0  0  0  0  0  0  0  0  0  0
  137.2262   78.6889  223.9371 H   0  0  0  0  0  0  0  0  0  0  0  0
  136.0516   80.1387  222.2781 H   0  0  0  0  0  0  0  0  0  0  0  0
  137.2303   82.0984  221.2757 H   0  0  0  0  0  0  0  0  0  0  0  0
  139.5815   82.6160  221.9349 H   0  0  0  0  0  0  0  0  0  0  0  0
  141.3946   81.6847  221.1126 H   0  0  0  0  0  0  0  0  0  0  0  0
  141.2394   81.3771  218.7178 H   0  0  0  0  0  0  0  0  0  0  0  0
  141.7214   79.9833  216.7095 H   0  0  0  0  0  0  0  0  0  0  0  0
  142.3238   77.7964  215.6709 H   0  0  0  0  0  0  0  0  0  0  0  0
  142.8345   75.8237  217.1128 H   0  0  0  0  0  0  0  0  0  0  0  0
  142.7267   76.0292  219.5957 H   0  0  0  0  0  0  0  0  0  0  0  0
  142.9287   77.7337  221.5028 H   0  0  0  0  0  0  0  0  0  0  0  0
  141.5475   76.0580  222.9750 H   0  0  0  0  0  0  0  0  0  0  0  0
  139.0750   75.2510  223.0960 H   0  0  0  0  0  0  0  0  0  0  0  0
  136.7143   75.9587  221.9038 H   0  0  0  0  0  0  0  0  0  0  0  0
  135.7191   77.5474  220.2183 H   0  0  0  0  0  0  0  0  0  0  0  0
  137.1683   79.2414  219.0788 H   0  0  0  0  0  0  0  0  0  0  0  0
  139.6270   79.3700  219.6122 H   0  0  0  0  0  0  0  0  0  0  0  0
  1  2  2  0
  2  3  2  0
  2  4  1  0
  4  5  1  0
  5  6  2  0
  6  7  1  0
  7  8  2  0
  8  9  1  0
  9 10  2  0
  2 11  1  0
 11 12  1  0
 12 13  2  0
 13 14  1  0
 14 15  2  0
 15 16  1  0
 16 17  2  0
 17 18  1  0
 18 19  2  0
 19 20  1  0
 20 21  1  0
 21 22  2  0
 22 23  1  0
 23 24  1  0
 24 25  2  0
 25 26  1  0
 26 27  2  0
 27 28  1  0
 28 29  2  0
 10  5  1  0
 20 11  1  0
 29 21  1  0
 19 14  1  0
 29 24  1  0
  4 30  1  0
  4 31  1  0
  6 32  1  0
  7 33  1  0
  8 34  1  0
  9 35  1  0
 10 36  1  0
 12 37  1  0
 13 38  1  0
 15 39  1  0
 16 40  1  0
 17 41  1  0
 18 42  1  0
 20 43  1  1
 22 44  1  0
 23 45  1  0
 25 46  1  0
 26 47  1  0
 27 48  1  0
 28 49  1  0
M  END
>  <meeko>  (6) 
{"free_energy": -6.61, "intermolecular_energy": -7.8, "internal_energy": -3.09, "cluster_size": 16, "cluster_id": 4, "rank_in_cluster": 4}

$$$$

     RDKit          3D

 49 53  0  0  0  0  0  0  0  0999 V2000
  143.6970   80.3980  223.4490 O   0  0  0  0  0  0  0  0  0  0  0  0
  142.2800   79.9570  223.2110 S   0  0  0  0  0  0  0  0  0  0  0  0
  142.0200   78.7190  224.0230 O   0  0  0  0  0  0  0  0  0  0  0  0
  141.1570   81.2590  223.6980 C   0  0  0  0  0  0  0  0  0  0  0  0
  139.7510   80.9260  223.2880 C   0  0  0  0  0  0  0  0  0  0  0  0
  139.0840   79.8320  223.8660 C   0  0  0  0  0  0  0  0  0  0  0  0
  137.7620   79.5460  223.5120 C   0  0  0  0  0  0  0  0  0  0  0  0
  137.0950   80.3520  222.5840 C   0  0  0  0  0  0  0  0  0  0  0  0
  137.7490   81.4470  222.0110 C   0  0  0  0  0  0  0  0  0  0  0  0
  139.0710   81.7370  222.3640 C   0  0  0  0  0  0  0  0  0  0  0  0
  142.0570   79.6090  221.5240 N   0  0  0  0  0  0  0  0  0  0  0  0
  141.6640   80.6860  220.6570 C   0  0  0  0  0  0  0  0  0  0  0  0
  141.5880   80.5120  219.3390 C   0  0  0  0  0  0  0  0  0  0  0  0
  141.9180   79.2110  218.7360 C   0  0  0  0  0  0  0  0  0  0  0  0
  141.9770   79.0760  217.3420 C   0  0  0  0  0  0  0  0  0  0  0  0
  142.3110   77.8470  216.7680 C   0  0  0  0  0  0  0  0  0  0  0  0
  142.5850   76.7450  217.5830 C   0  0  0  0  0  0  0  0  0  0  0  0
  142.5220   76.8700  218.9730 C   0  0  0  0  0  0  0  0  0  0  0  0
  142.1920   78.1030  219.5610 C   0  0  0  0  0  0  0  0  0  0  0  0
  142.0600   78.2100  221.0650 C   0  0  2  0  0  0  0  0  0  0  0  0
  140.7920   77.5320  221.5160 C   0  0  0  0  0  0  0  0  0  0  0  0
  140.6950   76.4700  222.4140 C   0  0  0  0  0  0  0  0  0  0  0  0
  139.4160   76.0410  222.5040 N   0  0  0  0  0  0  0  0  0  0  0  0
  138.7050   76.8130  221.6650 C   0  0  0  0  0  0  0  0  0  0  0  0
  137.3400   76.7230  221.3910 C   0  0  0  0  0  0  0  0  0  0  0  0
  136.7990   77.6170  220.4490 C   0  0  0  0  0  0  0  0  0  0  0  0
  137.6240   78.5670  219.8090 C   0  0  0  0  0  0  0  0  0  0  0  0
  138.9970   78.6330  220.1030 C   0  0  0  0  0  0  0  0  0  0  0  0
  139.5080   77.7340  221.0420 C   0  0  0  0  0  0  0  0  0  0  0  0
  141.1958   81.3798  224.7907 H   0  0  0  0  0  0  0  0  0  0  0  0
  141.4595   82.1924  223.2007 H   0  0  0  0  0  0  0  0  0  0  0  0
  139.6041   79.1985  224.5996 H   0  0  0  0  0  0  0  0  0  0  0  0
  137.2460   78.6861  223.9639 H   0  0  0  0  0  0  0  0  0  0  0  0
  136.0556   80.1245  222.3048 H   0  0  0  0  0  0  0  0  0  0  0  0
  137.2233   82.0810  221.2819 H   0  0  0  0  0  0  0  0  0  0  0  0
  139.5802   82.6033  221.9165 H   0  0  0  0  0  0  0  0  0  0  0  0
  141.4224   81.6685  221.0887 H   0  0  0  0  0  0  0  0  0  0  0  0
  141.2759   81.3479  218.6956 H   0  0  0  0  0  0  0  0  0  0  0  0
  141.7596   79.9408  216.6979 H   0  0  0  0  0  0  0  0  0  0  0  0
  142.3584   77.7464  215.6736 H   0  0  0  0  0  0  0  0  0  0  0  0
  142.8505   75.7786  217.1296 H   0  0  0  0  0  0  0  0  0  0  0  0
  142.7318   75.9986  219.6107 H   0  0  0  0  0  0  0  0  0  0  0  0
  142.9355   77.7127  221.5080 H   0  0  0  0  0  0  0  0  0  0  0  0
  141.5408   76.0411  222.9714 H   0  0  0  0  0  0  0  0  0  0  0  0
  139.0620   75.2520  223.0900 H   0  0  0  0  0  0  0  0  0  0  0  0
  136.7075   75.9774  221.8950 H   0  0  0  0  0  0  0  0  0  0  0  0
  135.7262   77.5754  220.2096 H   0  0  0  0  0  0  0  0  0  0  0  0
  137.1891   79.2609  219.0746 H   0  0  0  0  0  0  0  0  0  0  0  0
  139.6483   79.3692  219.6093 H   0  0  0  0  0  0  0  0  0  0  0  0
  1  2  2  0
  2  3  2  0
  2  4  1  0
  4  5  1  0
  5  6  2  0
  6  7  1  0
  7  8  2  0
  8  9  1  0
  9 10  2  0
  2 11  1  0
 11 12  1  0
 12 13  2  0
 13 14  1  0
 14 15  2  0
 15 16  1  0
 16 17  2  0
 17 18  1  0
 18 19  2  0
 19 20  1  0
 20 21  1  0
 21 22  2  0
 22 23  1  0
 23 24  1  0
 24 25  2  0
 25 26  1  0
 26 27  2  0
 27 28  1  0
 28 29  2  0
 10  5  1  0
 20 11  1  0
 29 21  1  0
 19 14  1  0
 29 24  1  0
  4 30  1  0
  4 31  1  0
  6 32  1  0
  7 33  1  0
  8 34  1  0
  9 35  1  0
 10 36  1  0
 12 37  1  0
 13 38  1  0
 15 39  1  0
 16 40  1  0
 17 41  1  0
 18 42  1  0
 20 43  1  1
 22 44  1  0
 23 45  1  0
 25 46  1  0
 26 47  1  0
 27 48  1  0
 28 49  1  0
M  END
>  <meeko>  (7) 
{"free_energy": -6.61, "intermolecular_energy": -7.8, "internal_energy": -3.1, "cluster_size": 16, "cluster_id": 4, "rank_in_cluster": 6}

$$$$

     RDKit          3D

 49 53  0  0  0  0  0  0  0  0999 V2000
  138.0090   75.5910  222.5550 O   0  0  0  0  0  0  0  0  0  0  0  0
  139.3140   75.8800  221.8690 S   0  0  0  0  0  0  0  0  0  0  0  0
  140.3290   74.8680  222.3230 O   0  0  0  0  0  0  0  0  0  0  0  0
  139.0970   75.7790  220.0980 C   0  0  0  0  0  0  0  0  0  0  0  0
  138.4180   77.0140  219.5760 C   0  0  0  0  0  0  0  0  0  0  0  0
  137.1690   77.4040  220.0860 C   0  0  0  0  0  0  0  0  0  0  0  0
  136.5550   78.5740  219.6280 C   0  0  0  0  0  0  0  0  0  0  0  0
  137.1880   79.3650  218.6650 C   0  0  0  0  0  0  0  0  0  0  0  0
  138.4360   78.9880  218.1600 C   0  0  0  0  0  0  0  0  0  0  0  0
  139.0530   77.8200  218.6160 C   0  0  0  0  0  0  0  0  0  0  0  0
  139.8490   77.4790  222.2900 N   0  0  0  0  0  0  0  0  0  0  0  0
  138.8530   78.4920  222.5010 C   0  0  0  0  0  0  0  0  0  0  0  0
  139.1900   79.7050  222.9370 C   0  0  0  0  0  0  0  0  0  0  0  0
  140.5960   80.0310  223.2250 C   0  0  0  0  0  0  0  0  0  0  0  0
  140.9250   81.2570  223.8210 C   0  0  0  0  0  0  0  0  0  0  0  0
  142.2570   81.5600  224.1140 C   0  0  0  0  0  0  0  0  0  0  0  0
  143.2670   80.6420  223.8140 C   0  0  0  0  0  0  0  0  0  0  0  0
  142.9480   79.4210  223.2160 C   0  0  0  0  0  0  0  0  0  0  0  0
  141.6110   79.1030  222.9200 C   0  0  0  0  0  0  0  0  0  0  0  0
  141.2830   77.8080  222.2090 C   0  0  2  0  0  0  0  0  0  0  0  0
  141.6950   77.9000  220.7630 C   0  0  0  0  0  0  0  0  0  0  0  0
  142.2320   76.8730  219.9880 C   0  0  0  0  0  0  0  0  0  0  0  0
  142.5870   77.3350  218.7690 N   0  0  0  0  0  0  0  0  0  0  0  0
  142.2900   78.6460  218.7670 C   0  0  0  0  0  0  0  0  0  0  0  0
  142.5100   79.5580  217.7350 C   0  0  0  0  0  0  0  0  0  0  0  0
  142.1490   80.8990  217.9550 C   0  0  0  0  0  0  0  0  0  0  0  0
  141.5860   81.2950  219.1870 C   0  0  0  0  0  0  0  0  0  0  0  0
  141.3780   80.3540  220.2110 C   0  0  0  0  0  0  0  0  0  0  0  0
  141.7450   79.0300  219.9660 C   0  0  0  0  0  0  0  0  0  0  0  0
  140.0818   75.6781  219.6185 H   0  0  0  0  0  0  0  0  0  0  0  0
  138.4695   74.9055  219.8673 H   0  0  0  0  0  0  0  0  0  0  0  0
  136.6717   76.7868  220.8487 H   0  0  0  0  0  0  0  0  0  0  0  0
  135.5736   78.8719  220.0257 H   0  0  0  0  0  0  0  0  0  0  0  0
  136.7040   80.2846  218.3043 H   0  0  0  0  0  0  0  0  0  0  0  0
  138.9331   79.6118  217.4025 H   0  0  0  0  0  0  0  0  0  0  0  0
  140.0386   77.5307  218.2223 H   0  0  0  0  0  0  0  0  0  0  0  0
  137.7961   78.2629  222.2996 H   0  0  0  0  0  0  0  0  0  0  0  0
  138.4116   80.4685  223.0828 H   0  0  0  0  0  0  0  0  0  0  0  0
  140.1324   81.9819  224.0584 H   0  0  0  0  0  0  0  0  0  0  0  0
  142.5111   82.5227  224.5816 H   0  0  0  0  0  0  0  0  0  0  0  0
  144.3146   80.8814  224.0492 H   0  0  0  0  0  0  0  0  0  0  0  0
  143.7470   78.7043  222.9753 H   0  0  0  0  0  0  0  0  0  0  0  0
  141.8419   77.0054  222.7125 H   0  0  0  0  0  0  0  0  0  0  0  0
  142.3502   75.8317  220.3224 H   0  0  0  0  0  0  0  0  0  0  0  0
  143.0270   76.7860  217.9960 H   0  0  0  0  0  0  0  0  0  0  0  0
  142.9517   79.2385  216.7796 H   0  0  0  0  0  0  0  0  0  0  0  0
  142.3065   81.6444  217.1615 H   0  0  0  0  0  0  0  0  0  0  0  0
  141.3079   82.3471  219.3474 H   0  0  0  0  0  0  0  0  0  0  0  0
  140.9398   80.6521  221.1749 H   0  0  0  0  0  0  0  0  0  0  0  0
  1  2  2  0
  2  3  2  0
  2  4  1  0
  4  5  1  0
  5  6  2  0
  6  7  1  0
  7  8  2  0
  8  9  1  0
  9 10  2  0
  2 11  1  0
 11 12  1  0
 12 13  2  0
 13 14  1  0
 14 15  2  0
 15 16  1  0
 16 17  2  0
 17 18  1  0
 18 19  2  0
 19 20  1  0
 20 21  1  0
 21 22  2  0
 22 23  1  0
 23 24  1  0
 24 25  2  0
 25 26  1  0
 26 27  2  0
 27 28  1  0
 28 29  2  0
 10  5  1  0
 20 11  1  0
 29 21  1  0
 19 14  1  0
 29 24  1  0
  4 30  1  0
  4 31  1  0
  6 32  1  0
  7 33  1  0
  8 34  1  0
  9 35  1  0
 10 36  1  0
 12 37  1  0
 13 38  1  0
 15 39  1  0
 16 40  1  0
 17 41  1  0
 18 42  1  0
 20 43  1  1
 22 44  1  0
 23 45  1  0
 25 46  1  0
 26 47  1  0
 27 48  1  0
 28 49  1  0
M  END
>  <meeko>  (8) 
{"free_energy": -6.79, "intermolecular_energy": -7.98, "internal_energy": -2.77, "cluster_size": 2, "cluster_id": 3, "rank_in_cluster": 2}

$$$$

     RDKit          3D

 49 53  0  0  0  0  0  0  0  0999 V2000
  143.6920   80.3070  223.4130 O   0  0  0  0  0  0  0  0  0  0  0  0
  142.2620   79.9210  223.1600 S   0  0  0  0  0  0  0  0  0  0  0  0
  141.9400   78.7050  223.9840 O   0  0  0  0  0  0  0  0  0  0  0  0
  141.1860   81.2740  223.6120 C   0  0  0  0  0  0  0  0  0  0  0  0
  139.7590   80.9520  223.2710 C   0  0  0  0  0  0  0  0  0  0  0  0
  139.0540   81.7460  222.3510 C   0  0  0  0  0  0  0  0  0  0  0  0
  137.7390   81.4240  222.0040 C   0  0  0  0  0  0  0  0  0  0  0  0
  137.1210   80.3030  222.5670 C   0  0  0  0  0  0  0  0  0  0  0  0
  137.8190   79.5030  223.4760 C   0  0  0  0  0  0  0  0  0  0  0  0
  139.1350   79.8220  223.8240 C   0  0  0  0  0  0  0  0  0  0  0  0
  142.0490   79.5590  221.4740 N   0  0  0  0  0  0  0  0  0  0  0  0
  141.6660   80.6300  220.5950 C   0  0  0  0  0  0  0  0  0  0  0  0
  141.5980   80.4440  219.2780 C   0  0  0  0  0  0  0  0  0  0  0  0
  141.9280   79.1370  218.6890 C   0  0  0  0  0  0  0  0  0  0  0  0
  141.9970   78.9900  217.2960 C   0  0  0  0  0  0  0  0  0  0  0  0
  142.3310   77.7540  216.7360 C   0  0  0  0  0  0  0  0  0  0  0  0
  142.5960   76.6590  217.5620 C   0  0  0  0  0  0  0  0  0  0  0  0
  142.5250   76.7960  218.9500 C   0  0  0  0  0  0  0  0  0  0  0  0
  142.1940   78.0350  219.5250 C   0  0  0  0  0  0  0  0  0  0  0  0
  142.0520   78.1550  221.0280 C   0  0  2  0  0  0  0  0  0  0  0  0
  140.7790   77.4850  221.4760 C   0  0  0  0  0  0  0  0  0  0  0  0
  140.6730   76.4240  222.3740 C   0  0  0  0  0  0  0  0  0  0  0  0
  139.3920   76.0020  222.4610 N   0  0  0  0  0  0  0  0  0  0  0  0
  138.6870   76.7780  221.6200 C   0  0  0  0  0  0  0  0  0  0  0  0
  137.3230   76.6960  221.3420 C   0  0  0  0  0  0  0  0  0  0  0  0
  136.7890   77.5920  220.3990 C   0  0  0  0  0  0  0  0  0  0  0  0
  137.6210   78.5370  219.7600 C   0  0  0  0  0  0  0  0  0  0  0  0
  138.9940   78.5960  220.0580 C   0  0  0  0  0  0  0  0  0  0  0  0
  139.4970   77.6950  220.9980 C   0  0  0  0  0  0  0  0  0  0  0  0
  141.2672   81.4543  224.6941 H   0  0  0  0  0  0  0  0  0  0  0  0
  141.4903   82.1709  223.0526 H   0  0  0  0  0  0  0  0  0  0  0  0
  139.5392   82.6251  221.9018 H   0  0  0  0  0  0  0  0  0  0  0  0
  137.1898   82.0527  221.2876 H   0  0  0  0  0  0  0  0  0  0  0  0
  136.0856   80.0508  222.2945 H   0  0  0  0  0  0  0  0  0  0  0  0
  137.3323   78.6212  223.9182 H   0  0  0  0  0  0  0  0  0  0  0  0
  139.6837   79.1854  224.5337 H   0  0  0  0  0  0  0  0  0  0  0  0
  141.4256   81.6173  221.0162 H   0  0  0  0  0  0  0  0  0  0  0  0
  141.2925   81.2748  218.6250 H   0  0  0  0  0  0  0  0  0  0  0  0
  141.7877   79.8498  216.6426 H   0  0  0  0  0  0  0  0  0  0  0  0
  142.3853   77.6431  215.6429 H   0  0  0  0  0  0  0  0  0  0  0  0
  142.8609   75.6878  217.1186 H   0  0  0  0  0  0  0  0  0  0  0  0
  142.7292   75.9298  219.5965 H   0  0  0  0  0  0  0  0  0  0  0  0
  142.9227   77.6589  221.4816 H   0  0  0  0  0  0  0  0  0  0  0  0
  141.5148   75.9906  222.9339 H   0  0  0  0  0  0  0  0  0  0  0  0
  139.0320   75.2160  223.0460 H   0  0  0  0  0  0  0  0  0  0  0  0
  136.6850   75.9540  221.8444 H   0  0  0  0  0  0  0  0  0  0  0  0
  135.7164   77.5565  220.1576 H   0  0  0  0  0  0  0  0  0  0  0  0
  137.1919   79.2323  219.0235 H   0  0  0  0  0  0  0  0  0  0  0  0
  139.6506   79.3287  219.5661 H   0  0  0  0  0  0  0  0  0  0  0  0
  1  2  2  0
  2  3  2  0
  2  4  1  0
  4  5  1  0
  5  6  2  0
  6  7  1  0
  7  8  2  0
  8  9  1  0
  9 10  2  0
  2 11  1  0
 11 12  1  0
 12 13  2  0
 13 14  1  0
 14 15  2  0
 15 16  1  0
 16 17  2  0
 17 18  1  0
 18 19  2  0
 19 20  1  0
 20 21  1  0
 21 22  2  0
 22 23  1  0
 23 24  1  0
 24 25  2  0
 25 26  1  0
 26 27  2  0
 27 28  1  0
 28 29  2  0
 10  5  1  0
 20 11  1  0
 29 21  1  0
 19 14  1  0
 29 24  1  0
  4 30  1  0
  4 31  1  0
  6 32  1  0
  7 33  1  0
  8 34  1  0
  9 35  1  0
 10 36  1  0
 12 37  1  0
 13 38  1  0
 15 39  1  0
 16 40  1  0
 17 41  1  0
 18 42  1  0
 20 43  1  1
 22 44  1  0
 23 45  1  0
 25 46  1  0
 26 47  1  0
 27 48  1  0
 28 49  1  0
M  END
>  <meeko>  (9) 
{"free_energy": -6.58, "intermolecular_energy": -7.78, "internal_energy": -3.09, "cluster_size": 16, "cluster_id": 4, "rank_in_cluster": 13}

$$$$

     RDKit          3D

 49 53  0  0  0  0  0  0  0  0999 V2000
  143.6780   80.4320  223.4700 O   0  0  0  0  0  0  0  0  0  0  0  0
  142.2660   79.9750  223.2350 S   0  0  0  0  0  0  0  0  0  0  0  0
  142.0270   78.7250  224.0360 O   0  0  0  0  0  0  0  0  0  0  0  0
  141.1280   81.2560  223.7420 C   0  0  0  0  0  0  0  0  0  0  0  0
  139.7290   80.9230  223.3080 C   0  0  0  0  0  0  0  0  0  0  0  0
  139.0590   79.8200  223.8630 C   0  0  0  0  0  0  0  0  0  0  0  0
  137.7430   79.5330  223.4880 C   0  0  0  0  0  0  0  0  0  0  0  0
  137.0850   80.3490  222.5620 C   0  0  0  0  0  0  0  0  0  0  0  0
  137.7420   81.4540  222.0130 C   0  0  0  0  0  0  0  0  0  0  0  0
  139.0580   81.7440  222.3870 C   0  0  0  0  0  0  0  0  0  0  0  0
  142.0380   79.6420  221.5450 N   0  0  0  0  0  0  0  0  0  0  0  0
  141.6320   80.7230  220.6910 C   0  0  0  0  0  0  0  0  0  0  0  0
  141.5520   80.5610  219.3720 C   0  0  0  0  0  0  0  0  0  0  0  0
  141.8900   79.2690  218.7550 C   0  0  0  0  0  0  0  0  0  0  0  0
  141.9450   79.1480  217.3590 C   0  0  0  0  0  0  0  0  0  0  0  0
  142.2870   77.9270  216.7720 C   0  0  0  0  0  0  0  0  0  0  0  0
  142.5750   76.8210  217.5750 C   0  0  0  0  0  0  0  0  0  0  0  0
  142.5180   76.9310  218.9660 C   0  0  0  0  0  0  0  0  0  0  0  0
  142.1790   78.1550  219.5680 C   0  0  0  0  0  0  0  0  0  0  0  0
  142.0520   78.2460  221.0740 C   0  0  2  0  0  0  0  0  0  0  0  0
  140.7920   77.5530  221.5230 C   0  0  0  0  0  0  0  0  0  0  0  0
  140.7080   76.4890  222.4200 C   0  0  0  0  0  0  0  0  0  0  0  0
  139.4350   76.0440  222.5100 N   0  0  0  0  0  0  0  0  0  0  0  0
  138.7140   76.8080  221.6710 C   0  0  0  0  0  0  0  0  0  0  0  0
  137.3510   76.7020  221.3960 C   0  0  0  0  0  0  0  0  0  0  0  0
  136.8000   77.5890  220.4550 C   0  0  0  0  0  0  0  0  0  0  0  0
  137.6130   78.5500  219.8160 C   0  0  0  0  0  0  0  0  0  0  0  0
  138.9850   78.6330  220.1110 C   0  0  0  0  0  0  0  0  0  0  0  0
  139.5060   77.7400  221.0480 C   0  0  0  0  0  0  0  0  0  0  0  0
  141.1539   81.3495  224.8377 H   0  0  0  0  0  0  0  0  0  0  0  0
  141.4289   82.2038  223.2718 H   0  0  0  0  0  0  0  0  0  0  0  0
  139.5719   79.1795  224.5956 H   0  0  0  0  0  0  0  0  0  0  0  0
  137.2248   78.6649  223.9215 H   0  0  0  0  0  0  0  0  0  0  0  0
  136.0504   80.1212  222.2657 H   0  0  0  0  0  0  0  0  0  0  0  0
  137.2233   82.0962  221.2860 H   0  0  0  0  0  0  0  0  0  0  0  0
  139.5695   82.6184  221.9582 H   0  0  0  0  0  0  0  0  0  0  0  0
  141.3835   81.6991  221.1332 H   0  0  0  0  0  0  0  0  0  0  0  0
  141.2304   81.4005  218.7380 H   0  0  0  0  0  0  0  0  0  0  0  0
  141.7182   80.0171  216.7240 H   0  0  0  0  0  0  0  0  0  0  0  0
  142.3295   77.8367  215.6765 H   0  0  0  0  0  0  0  0  0  0  0  0
  142.8472   75.8616  217.1109 H   0  0  0  0  0  0  0  0  0  0  0  0
  142.7396   76.0553  219.5937 H   0  0  0  0  0  0  0  0  0  0  0  0
  142.9329   77.7520  221.5098 H   0  0  0  0  0  0  0  0  0  0  0  0
  141.5591   76.0701  222.9768 H   0  0  0  0  0  0  0  0  0  0  0  0
  139.0900   75.2500  223.0940 H   0  0  0  0  0  0  0  0  0  0  0  0
  136.7272   75.9486  221.8992 H   0  0  0  0  0  0  0  0  0  0  0  0
  135.7279   77.5339  220.2149 H   0  0  0  0  0  0  0  0  0  0  0  0
  137.1697   79.2389  219.0819 H   0  0  0  0  0  0  0  0  0  0  0  0
  139.6273   79.3782  219.6188 H   0  0  0  0  0  0  0  0  0  0  0  0
  1  2  2  0
  2  3  2  0
  2  4  1  0
  4  5  1  0
  5  6  2  0
  6  7  1  0
  7  8  2  0
  8  9  1  0
  9 10  2  0
  2 11  1  0
 11 12  1  0
 12 13  2  0
 13 14  1  0
 14 15  2  0
 15 16  1  0
 16 17  2  0
 17 18  1  0
 18 19  2  0
 19 20  1  0
 20 21  1  0
 21 22  2  0
 22 23  1  0
 23 24  1  0
 24 25  2  0
 25 26  1  0
 26 27  2  0
 27 28  1  0
 28 29  2  0
 10  5  1  0
 20 11  1  0
 29 21  1  0
 19 14  1  0
 29 24  1  0
  4 30  1  0
  4 31  1  0
  6 32  1  0
  7 33  1  0
  8 34  1  0
  9 35  1  0
 10 36  1  0
 12 37  1  0
 13 38  1  0
 15 39  1  0
 16 40  1  0
 17 41  1  0
 18 42  1  0
 20 43  1  1
 22 44  1  0
 23 45  1  0
 25 46  1  0
 26 47  1  0
 27 48  1  0
 28 49  1  0
M  END
>  <meeko>  (10) 
{"free_energy": -6.62, "intermolecular_energy": -7.81, "internal_energy": -3.09, "cluster_size": 16, "cluster_id": 4, "rank_in_cluster": 1}

$$$$

     RDKit          3D

 49 53  0  0  0  0  0  0  0  0999 V2000
  143.9210   80.2270  223.1800 O   0  0  0  0  0  0  0  0  0  0  0  0
  142.4640   79.9160  222.9820 S   0  0  0  0  0  0  0  0  0  0  0  0
  142.0920   78.7690  223.8800 O   0  0  0  0  0  0  0  0  0  0  0  0
  141.4820   81.3540  223.3850 C   0  0  0  0  0  0  0  0  0  0  0  0
  140.0210   81.0700  223.1910 C   0  0  0  0  0  0  0  0  0  0  0  0
  139.2720   81.8080  222.2590 C   0  0  0  0  0  0  0  0  0  0  0  0
  137.9210   81.5170  222.0510 C   0  0  0  0  0  0  0  0  0  0  0  0
  137.3100   80.4830  222.7660 C   0  0  0  0  0  0  0  0  0  0  0  0
  138.0500   79.7380  223.6890 C   0  0  0  0  0  0  0  0  0  0  0  0
  139.4020   80.0250  223.8980 C   0  0  0  0  0  0  0  0  0  0  0  0
  142.1840   79.4780  221.3240 N   0  0  0  0  0  0  0  0  0  0  0  0
  141.7950   80.5140  220.4070 C   0  0  0  0  0  0  0  0  0  0  0  0
  141.6770   80.2660  219.1040 C   0  0  0  0  0  0  0  0  0  0  0  0
  141.9550   78.9240  218.5700 C   0  0  0  0  0  0  0  0  0  0  0  0
  141.9720   78.7070  217.1840 C   0  0  0  0  0  0  0  0  0  0  0  0
  142.2570   77.4370  216.6750 C   0  0  0  0  0  0  0  0  0  0  0  0
  142.5260   76.3770  217.5450 C   0  0  0  0  0  0  0  0  0  0  0  0
  142.5060   76.5840  218.9270 C   0  0  0  0  0  0  0  0  0  0  0  0
  142.2240   77.8580  219.4500 C   0  0  0  0  0  0  0  0  0  0  0  0
  142.1370   78.0540  220.9490 C   0  0  2  0  0  0  0  0  0  0  0  0
  140.8650   77.4390  221.4720 C   0  0  0  0  0  0  0  0  0  0  0  0
  140.7680   76.3740  222.3670 C   0  0  0  0  0  0  0  0  0  0  0  0
  139.4770   76.0110  222.5330 N   0  0  0  0  0  0  0  0  0  0  0  0
  138.7570   76.8280  221.7440 C   0  0  0  0  0  0  0  0  0  0  0  0
  137.3750   76.8130  221.5540 C   0  0  0  0  0  0  0  0  0  0  0  0
  136.8250   77.7430  220.6550 C   0  0  0  0  0  0  0  0  0  0  0  0
  137.6580   78.6550  219.9710 C   0  0  0  0  0  0  0  0  0  0  0  0
  139.0480   78.6470  220.1810 C   0  0  0  0  0  0  0  0  0  0  0  0
  139.5670   77.7130  221.0790 C   0  0  0  0  0  0  0  0  0  0  0  0
  141.6599   81.6301  224.4348 H   0  0  0  0  0  0  0  0  0  0  0  0
  141.7734   82.1793  222.7187 H   0  0  0  0  0  0  0  0  0  0  0  0
  139.7512   82.6186  221.6904 H   0  0  0  0  0  0  0  0  0  0  0  0
  137.3382   82.1020  221.3242 H   0  0  0  0  0  0  0  0  0  0  0  0
  136.2463   80.2553  222.6024 H   0  0  0  0  0  0  0  0  0  0  0  0
  137.5677   78.9250  224.2514 H   0  0  0  0  0  0  0  0  0  0  0  0
  139.9834   79.4309  224.6183 H   0  0  0  0  0  0  0  0  0  0  0  0
  141.5919   81.5261  220.7869 H   0  0  0  0  0  0  0  0  0  0  0  0
  141.3690   81.0716  218.4212 H   0  0  0  0  0  0  0  0  0  0  0  0
  141.7604   79.5388  216.4960 H   0  0  0  0  0  0  0  0  0  0  0  0
  142.2696   77.2715  215.5876 H   0  0  0  0  0  0  0  0  0  0  0  0
  142.7536   75.3792  217.1419 H   0  0  0  0  0  0  0  0  0  0  0  0
  142.7119   75.7458  219.6089 H   0  0  0  0  0  0  0  0  0  0  0  0
  143.0101   77.5580  221.3980 H   0  0  0  0  0  0  0  0  0  0  0  0
  141.6229   75.8962  222.8679 H   0  0  0  0  0  0  0  0  0  0  0  0
  139.1180   75.2360  223.1330 H   0  0  0  0  0  0  0  0  0  0  0  0
  136.7361   76.0962  222.0907 H   0  0  0  0  0  0  0  0  0  0  0  0
  135.7386   77.7604  220.4832 H   0  0  0  0  0  0  0  0  0  0  0  0
  137.2161   79.3771  219.2686 H   0  0  0  0  0  0  0  0  0  0  0  0
  139.7056   79.3543  219.6544 H   0  0  0  0  0  0  0  0  0  0  0  0
  1  2  2  0
  2  3  2  0
  2  4  1  0
  4  5  1  0
  5  6  2  0
  6  7  1  0
  7  8  2  0
  8  9  1  0
  9 10  2  0
  2 11  1  0
 11 12  1  0
 12 13  2  0
 13 14  1  0
 14 15  2  0
 15 16  1  0
 16 17  2  0
 17 18  1  0
 18 19  2  0
 19 20  1  0
 20 21  1  0
 21 22  2  0
 22 23  1  0
 23 24  1  0
 24 25  2  0
 25 26  1  0
 26 27  2  0
 27 28  1  0
 28 29  2  0
 10  5  1  0
 20 11  1  0
 29 21  1  0
 19 14  1  0
 29 24  1  0
  4 30  1  0
  4 31  1  0
  6 32  1  0
  7 33  1  0
  8 34  1  0
  9 35  1  0
 10 36  1  0
 12 37  1  0
 13 38  1  0
 15 39  1  0
 16 40  1  0
 17 41  1  0
 18 42  1  0
 20 43  1  1
 22 44  1  0
 23 45  1  0
 25 46  1  0
 26 47  1  0
 27 48  1  0
 28 49  1  0
M  END
>  <meeko>  (11) 
{"free_energy": -6.54, "intermolecular_energy": -7.73, "internal_energy": -3.09, "cluster_size": 16, "cluster_id": 4, "rank_in_cluster": 16}

$$$$

     RDKit          3D

 49 53  0  0  0  0  0  0  0  0999 V2000
  135.8590   69.8980  225.9220 O   0  0  0  0  0  0  0  0  0  0  0  0
  135.5420   69.6130  224.4810 S   0  0  0  0  0  0  0  0  0  0  0  0
  135.0460   68.1970  224.3700 O   0  0  0  0  0  0  0  0  0  0  0  0
  134.2890   70.7500  223.9050 C   0  0  0  0  0  0  0  0  0  0  0  0
  134.6340   72.1590  224.2940 C   0  0  0  0  0  0  0  0  0  0  0  0
  135.5160   72.9160  223.5040 C   0  0  0  0  0  0  0  0  0  0  0  0
  135.8070   74.2400  223.8450 C   0  0  0  0  0  0  0  0  0  0  0  0
  135.2140   74.8190  224.9710 C   0  0  0  0  0  0  0  0  0  0  0  0
  134.3290   74.0750  225.7560 C   0  0  0  0  0  0  0  0  0  0  0  0
  134.0350   72.7510  225.4180 C   0  0  0  0  0  0  0  0  0  0  0  0
  136.9770   69.8080  223.5220 N   0  0  0  0  0  0  0  0  0  0  0  0
  137.0950   69.0380  222.3140 C   0  0  0  0  0  0  0  0  0  0  0  0
  138.1140   69.2250  221.4780 C   0  0  0  0  0  0  0  0  0  0  0  0
  139.1410   70.2390  221.7660 C   0  0  0  0  0  0  0  0  0  0  0  0
  140.1270   70.5320  220.8140 C   0  0  0  0  0  0  0  0  0  0  0  0
  141.0900   71.5100  221.0770 C   0  0  0  0  0  0  0  0  0  0  0  0
  141.0750   72.1980  222.2930 C   0  0  0  0  0  0  0  0  0  0  0  0
  140.0990   71.9080  223.2500 C   0  0  0  0  0  0  0  0  0  0  0  0
  139.1230   70.9300  222.9940 C   0  0  0  0  0  0  0  0  0  0  0  0
  138.1120   70.5750  224.0640 C   0  0  2  0  0  0  0  0  0  0  0  0
  138.7810   69.7770  225.1530 C   0  0  0  0  0  0  0  0  0  0  0  0
  138.5480   68.4370  225.4610 C   0  0  0  0  0  0  0  0  0  0  0  0
  139.2390   68.0770  226.5640 N   0  0  0  0  0  0  0  0  0  0  0  0
  139.8990   69.1770  226.9660 C   0  0  0  0  0  0  0  0  0  0  0  0
  140.7210   69.3050  228.0850 C   0  0  0  0  0  0  0  0  0  0  0  0
  141.2940   70.5630  228.3400 C   0  0  0  0  0  0  0  0  0  0  0  0
  141.0340   71.6540  227.4820 C   0  0  0  0  0  0  0  0  0  0  0  0
  140.2010   71.4970  226.3610 C   0  0  0  0  0  0  0  0  0  0  0  0
  139.6450   70.2370  226.1320 C   0  0  0  0  0  0  0  0  0  0  0  0
  134.2179   70.6847  222.8092 H   0  0  0  0  0  0  0  0  0  0  0  0
  133.3272   70.4805  224.3657 H   0  0  0  0  0  0  0  0  0  0  0  0
  135.9791   72.4649  222.6140 H   0  0  0  0  0  0  0  0  0  0  0  0
  136.5029   74.8266  223.2272 H   0  0  0  0  0  0  0  0  0  0  0  0
  135.4442   75.8607  225.2391 H   0  0  0  0  0  0  0  0  0  0  0  0
  133.8630   74.5321  226.6414 H   0  0  0  0  0  0  0  0  0  0  0  0
  133.3323   72.1709  226.0342 H   0  0  0  0  0  0  0  0  0  0  0  0
  136.3315   68.2825  222.0766 H   0  0  0  0  0  0  0  0  0  0  0  0
  138.1890   68.6167  220.5646 H   0  0  0  0  0  0  0  0  0  0  0  0
  140.1429   69.9904  219.8567 H   0  0  0  0  0  0  0  0  0  0  0  0
  141.8606   71.7384  220.3259 H   0  0  0  0  0  0  0  0  0  0  0  0
  141.8325   72.9690  222.4972 H   0  0  0  0  0  0  0  0  0  0  0  0
  140.0947   72.4479  224.2084 H   0  0  0  0  0  0  0  0  0  0  0  0
  137.7176   71.5179  224.4706 H   0  0  0  0  0  0  0  0  0  0  0  0
  137.8926   67.7666  224.8856 H   0  0  0  0  0  0  0  0  0  0  0  0
  139.2380   67.1390  227.0230 H   0  0  0  0  0  0  0  0  0  0  0  0
  140.9150   68.4485  228.7474 H   0  0  0  0  0  0  0  0  0  0  0  0
  141.9490   70.6984  229.2133 H   0  0  0  0  0  0  0  0  0  0  0  0
  141.4868   72.6341  227.6926 H   0  0  0  0  0  0  0  0  0  0  0  0
  139.9937   72.3401  225.6855 H   0  0  0  0  0  0  0  0  0  0  0  0
  1  2  2  0
  2  3  2  0
  2  4  1  0
  4  5  1  0
  5  6  2  0
  6  7  1  0
  7  8  2  0
  8  9  1  0
  9 10  2  0
  2 11  1  0
 11 12  1  0
 12 13  2  0
 13 14  1  0
 14 15  2  0
 15 16  1  0
 16 17  2  0
 17 18  1  0
 18 19  2  0
 19 20  1  0
 20 21  1  0
 21 22  2  0
 22 23  1  0
 23 24  1  0
 24 25  2  0
 25 26  1  0
 26 27  2  0
 27 28  1  0
 28 29  2  0
 10  5  1  0
 20 11  1  0
 29 21  1  0
 19 14  1  0
 29 24  1  0
  4 30  1  0
  4 31  1  0
  6 32  1  0
  7 33  1  0
  8 34  1  0
  9 35  1  0
 10 36  1  0
 12 37  1  0
 13 38  1  0
 15 39  1  0
 16 40  1  0
 17 41  1  0
 18 42  1  0
 20 43  1  1
 22 44  1  0
 23 45  1  0
 25 46  1  0
 26 47  1  0
 27 48  1  0
 28 49  1  0
M  END
>  <meeko>  (12) 
{"free_energy": -7.71, "intermolecular_energy": -8.91, "internal_energy": -2.02, "cluster_size": 1, "cluster_id": 2, "rank_in_cluster": 1}

$$$$

     RDKit          3D

 49 53  0  0  0  0  0  0  0  0999 V2000
  143.6770   80.3650  223.4590 O   0  0  0  0  0  0  0  0  0  0  0  0
  142.2590   79.9350  223.2110 S   0  0  0  0  0  0  0  0  0  0  0  0
  141.9830   78.7000  224.0240 O   0  0  0  0  0  0  0  0  0  0  0  0
  141.1410   81.2460  223.6860 C   0  0  0  0  0  0  0  0  0  0  0  0
  139.7380   80.9270  223.2560 C   0  0  0  0  0  0  0  0  0  0  0  0
  139.0540   79.8370  223.8200 C   0  0  0  0  0  0  0  0  0  0  0  0
  137.7350   79.5640  223.4480 C   0  0  0  0  0  0  0  0  0  0  0  0
  137.0870   80.3810  222.5170 C   0  0  0  0  0  0  0  0  0  0  0  0
  137.7570   81.4730  221.9580 C   0  0  0  0  0  0  0  0  0  0  0  0
  139.0760   81.7500  222.3290 C   0  0  0  0  0  0  0  0  0  0  0  0
  142.0460   79.5850  221.5220 N   0  0  0  0  0  0  0  0  0  0  0  0
  141.6720   80.6640  220.6490 C   0  0  0  0  0  0  0  0  0  0  0  0
  141.6060   80.4860  219.3310 C   0  0  0  0  0  0  0  0  0  0  0  0
  141.9260   79.1800  218.7350 C   0  0  0  0  0  0  0  0  0  0  0  0
  141.9970   79.0410  217.3420 C   0  0  0  0  0  0  0  0  0  0  0  0
  142.3220   77.8060  216.7740 C   0  0  0  0  0  0  0  0  0  0  0  0
  142.5770   76.7040  217.5940 C   0  0  0  0  0  0  0  0  0  0  0  0
  142.5040   76.8330  218.9830 C   0  0  0  0  0  0  0  0  0  0  0  0
  142.1820   78.0710  219.5650 C   0  0  0  0  0  0  0  0  0  0  0  0
  142.0380   78.1840  221.0680 C   0  0  2  0  0  0  0  0  0  0  0  0
  140.7590   77.5210  221.5100 C   0  0  0  0  0  0  0  0  0  0  0  0
  140.6420   76.4720  222.4210 C   0  0  0  0  0  0  0  0  0  0  0  0
  139.3590   76.0530  222.4990 N   0  0  0  0  0  0  0  0  0  0  0  0
  138.6650   76.8180  221.6380 C   0  0  0  0  0  0  0  0  0  0  0  0
  137.3040   76.7340  221.3460 C   0  0  0  0  0  0  0  0  0  0  0  0
  136.7830   77.6170  220.3840 C   0  0  0  0  0  0  0  0  0  0  0  0
  137.6230   78.5530  219.7430 C   0  0  0  0  0  0  0  0  0  0  0  0
  138.9920   78.6140  220.0560 C   0  0  0  0  0  0  0  0  0  0  0  0
  139.4840   77.7250  221.0140 C   0  0  0  0  0  0  0  0  0  0  0  0
  141.1659   81.3637  224.7794 H   0  0  0  0  0  0  0  0  0  0  0  0
  141.4588   82.1778  223.1952 H   0  0  0  0  0  0  0  0  0  0  0  0
  139.5589   79.1958  224.5575 H   0  0  0  0  0  0  0  0  0  0  0  0
  137.2063   78.7056  223.8880 H   0  0  0  0  0  0  0  0  0  0  0  0
  136.0491   80.1644  222.2241 H   0  0  0  0  0  0  0  0  0  0  0  0
  137.2459   82.1150  221.2255 H   0  0  0  0  0  0  0  0  0  0  0  0
  139.5976   82.6152  221.8938 H   0  0  0  0  0  0  0  0  0  0  0  0
  141.4371   81.6503  221.0756 H   0  0  0  0  0  0  0  0  0  0  0  0
  141.3095   81.3233  218.6821 H   0  0  0  0  0  0  0  0  0  0  0  0
  141.7963   79.9067  216.6937 H   0  0  0  0  0  0  0  0  0  0  0  0
  142.3771   77.7016  215.6804 H   0  0  0  0  0  0  0  0  0  0  0  0
  142.8356   75.7335  217.1453 H   0  0  0  0  0  0  0  0  0  0  0  0
  142.6995   75.9611  219.6245 H   0  0  0  0  0  0  0  0  0  0  0  0
  142.9039   77.6786  221.5206 H   0  0  0  0  0  0  0  0  0  0  0  0
  141.4769   76.0450  222.9959 H   0  0  0  0  0  0  0  0  0  0  0  0
  138.9910   75.2750  223.0900 H   0  0  0  0  0  0  0  0  0  0  0  0
  136.6589   76.0006  221.8520 H   0  0  0  0  0  0  0  0  0  0  0  0
  135.7136   77.5782  220.1291 H   0  0  0  0  0  0  0  0  0  0  0  0
  137.2032   79.2396  218.9931 H   0  0  0  0  0  0  0  0  0  0  0  0
  139.6551   79.3393  219.5618 H   0  0  0  0  0  0  0  0  0  0  0  0
  1  2  2  0
  2  3  2  0
  2  4  1  0
  4  5  1  0
  5  6  2  0
  6  7  1  0
  7  8  2  0
  8  9  1  0
  9 10  2  0
  2 11  1  0
 11 12  1  0
 12 13  2  0
 13 14  1  0
 14 15  2  0
 15 16  1  0
 16 17  2  0
 17 18  1  0
 18 19  2  0
 19 20  1  0
 20 21  1  0
 21 22  2  0
 22 23  1  0
 23 24  1  0
 24 25  2  0
 25 26  1  0
 26 27  2  0
 27 28  1  0
 28 29  2  0
 10  5  1  0
 20 11  1  0
 29 21  1  0
 19 14  1  0
 29 24  1  0
  4 30  1  0
  4 31  1  0
  6 32  1  0
  7 33  1  0
  8 34  1  0
  9 35  1  0
 10 36  1  0
 12 37  1  0
 13 38  1  0
 15 39  1  0
 16 40  1  0
 17 41  1  0
 18 42  1  0
 20 43  1  1
 22 44  1  0
 23 45  1  0
 25 46  1  0
 26 47  1  0
 27 48  1  0
 28 49  1  0
M  END
>  <meeko>  (13) 
{"free_energy": -6.59, "intermolecular_energy": -7.78, "internal_energy": -3.1, "cluster_size": 16, "cluster_id": 4, "rank_in_cluster": 12}

$$$$

     RDKit          3D

 49 53  0  0  0  0  0  0  0  0999 V2000
  140.5270   76.2350  218.9960 O   0  0  0  0  0  0  0  0  0  0  0  0
  139.7900   76.2220  220.3060 S   0  0  0  0  0  0  0  0  0  0  0  0
  138.3140   76.1780  220.0260 O   0  0  0  0  0  0  0  0  0  0  0  0
  140.2790   74.7900  221.2560 C   0  0  0  0  0  0  0  0  0  0  0  0
  141.6510   74.3310  220.8540 C   0  0  0  0  0  0  0  0  0  0  0  0
  141.9550   72.9600  220.8080 C   0  0  0  0  0  0  0  0  0  0  0  0
  143.2200   72.5310  220.3960 C   0  0  0  0  0  0  0  0  0  0  0  0
  144.1880   73.4680  220.0220 C   0  0  0  0  0  0  0  0  0  0  0  0
  143.8910   74.8330  220.0570 C   0  0  0  0  0  0  0  0  0  0  0  0
  142.6260   75.2650  220.4670 C   0  0  0  0  0  0  0  0  0  0  0  0
  140.1750   77.6620  221.2000 N   0  0  0  0  0  0  0  0  0  0  0  0
  139.0880   78.4620  221.6950 C   0  0  0  0  0  0  0  0  0  0  0  0
  139.3140   79.5110  222.4830 C   0  0  0  0  0  0  0  0  0  0  0  0
  140.6850   79.8700  222.8770 C   0  0  0  0  0  0  0  0  0  0  0  0
  140.9040   80.8830  223.8220 C   0  0  0  0  0  0  0  0  0  0  0  0
  142.2050   81.2100  224.2130 C   0  0  0  0  0  0  0  0  0  0  0  0
  143.2940   80.5290  223.6630 C   0  0  0  0  0  0  0  0  0  0  0  0
  143.0850   79.5220  222.7180 C   0  0  0  0  0  0  0  0  0  0  0  0
  141.7800   79.1810  222.3200 C   0  0  0  0  0  0  0  0  0  0  0  0
  141.5680   78.1370  221.2440 C   0  0  2  0  0  0  0  0  0  0  0  0
  141.9470   78.7030  219.9000 C   0  0  0  0  0  0  0  0  0  0  0  0
  142.6210   78.0340  218.8800 C   0  0  0  0  0  0  0  0  0  0  0  0
  142.8920   78.8760  217.8580 N   0  0  0  0  0  0  0  0  0  0  0  0
  142.4050   80.0740  218.2250 C   0  0  0  0  0  0  0  0  0  0  0  0
  142.4780   81.2690  217.5080 C   0  0  0  0  0  0  0  0  0  0  0  0
  141.9260   82.4220  218.0950 C   0  0  0  0  0  0  0  0  0  0  0  0
  141.3240   82.3570  219.3700 C   0  0  0  0  0  0  0  0  0  0  0  0
  141.2670   81.1400  220.0710 C   0  0  0  0  0  0  0  0  0  0  0  0
  141.8220   80.0110  219.4660 C   0  0  0  0  0  0  0  0  0  0  0  0
  140.2837   75.0499  222.3248 H   0  0  0  0  0  0  0  0  0  0  0  0
  139.5633   73.9768  221.0647 H   0  0  0  0  0  0  0  0  0  0  0  0
  141.1938   72.2206  221.0976 H   0  0  0  0  0  0  0  0  0  0  0  0
  143.4538   71.4566  220.3660 H   0  0  0  0  0  0  0  0  0  0  0  0
  145.1842   73.1304  219.7000 H   0  0  0  0  0  0  0  0  0  0  0  0
  144.6535   75.5687  219.7616 H   0  0  0  0  0  0  0  0  0  0  0  0
  142.3936   76.3400  220.4865 H   0  0  0  0  0  0  0  0  0  0  0  0
  138.0550   78.2038  221.4188 H   0  0  0  0  0  0  0  0  0  0  0  0
  138.4678   80.1148  222.8427 H   0  0  0  0  0  0  0  0  0  0  0  0
  140.0490   81.4216  224.2566 H   0  0  0  0  0  0  0  0  0  0  0  0
  142.3721   82.0048  224.9549 H   0  0  0  0  0  0  0  0  0  0  0  0
  144.3171   80.7862  223.9746 H   0  0  0  0  0  0  0  0  0  0  0  0
  143.9456   78.9929  222.2828 H   0  0  0  0  0  0  0  0  0  0  0  0
  142.2097   77.2777  221.4885 H   0  0  0  0  0  0  0  0  0  0  0  0
  142.8944   76.9688  218.9034 H   0  0  0  0  0  0  0  0  0  0  0  0
  143.3980   78.6450  216.9750 H   0  0  0  0  0  0  0  0  0  0  0  0
  142.9518   81.3080  216.5160 H   0  0  0  0  0  0  0  0  0  0  0  0
  141.9637   83.3806  217.5568 H   0  0  0  0  0  0  0  0  0  0  0  0
  140.8962   83.2657  219.8185 H   0  0  0  0  0  0  0  0  0  0  0  0
  140.7998   81.0792  221.0650 H   0  0  0  0  0  0  0  0  0  0  0  0
  1  2  2  0
  2  3  2  0
  2  4  1  0
  4  5  1  0
  5  6  2  0
  6  7  1  0
  7  8  2  0
  8  9  1  0
  9 10  2  0
  2 11  1  0
 11 12  1  0
 12 13  2  0
 13 14  1  0
 14 15  2  0
 15 16  1  0
 16 17  2  0
 17 18  1  0
 18 19  2  0
 19 20  1  0
 20 21  1  0
 21 22  2  0
 22 23  1  0
 23 24  1  0
 24 25  2  0
 25 26  1  0
 26 27  2  0
 27 28  1  0
 28 29  2  0
 10  5  1  0
 20 11  1  0
 29 21  1  0
 19 14  1  0
 29 24  1  0
  4 30  1  0
  4 31  1  0
  6 32  1  0
  7 33  1  0
  8 34  1  0
  9 35  1  0
 10 36  1  0
 12 37  1  0
 13 38  1  0
 15 39  1  0
 16 40  1  0
 17 41  1  0
 18 42  1  0
 20 43  1  1
 22 44  1  0
 23 45  1  0
 25 46  1  0
 26 47  1  0
 27 48  1  0
 28 49  1  0
M  END
>  <meeko>  (14) 
{"free_energy": -7.83, "intermolecular_energy": -9.02, "internal_energy": -1.8, "cluster_size": 1, "cluster_id": 1, "rank_in_cluster": 1}

$$$$

     RDKit          3D

 49 53  0  0  0  0  0  0  0  0999 V2000
  143.6920   80.4440  223.4640 O   0  0  0  0  0  0  0  0  0  0  0  0
  142.2820   79.9800  223.2300 S   0  0  0  0  0  0  0  0  0  0  0  0
  142.0490   78.7300  224.0320 O   0  0  0  0  0  0  0  0  0  0  0  0
  141.1390   81.2570  223.7370 C   0  0  0  0  0  0  0  0  0  0  0  0
  139.7400   80.9140  223.3110 C   0  0  0  0  0  0  0  0  0  0  0  0
  139.0800   79.8070  223.8710 C   0  0  0  0  0  0  0  0  0  0  0  0
  137.7640   79.5110  223.5030 C   0  0  0  0  0  0  0  0  0  0  0  0
  137.0960   80.3220  222.5810 C   0  0  0  0  0  0  0  0  0  0  0  0
  137.7430   81.4300  222.0260 C   0  0  0  0  0  0  0  0  0  0  0  0
  139.0580   81.7300  222.3930 C   0  0  0  0  0  0  0  0  0  0  0  0
  142.0540   79.6450  221.5410 N   0  0  0  0  0  0  0  0  0  0  0  0
  141.6460   80.7260  220.6850 C   0  0  0  0  0  0  0  0  0  0  0  0
  141.5660   80.5630  219.3660 C   0  0  0  0  0  0  0  0  0  0  0  0
  141.9060   79.2710  218.7500 C   0  0  0  0  0  0  0  0  0  0  0  0
  141.9610   79.1490  217.3550 C   0  0  0  0  0  0  0  0  0  0  0  0
  142.3040   77.9280  216.7690 C   0  0  0  0  0  0  0  0  0  0  0  0
  142.5940   76.8220  217.5720 C   0  0  0  0  0  0  0  0  0  0  0  0
  142.5370   76.9340  218.9640 C   0  0  0  0  0  0  0  0  0  0  0  0
  142.1970   78.1580  219.5640 C   0  0  0  0  0  0  0  0  0  0  0  0
  142.0700   78.2500  221.0700 C   0  0  2  0  0  0  0  0  0  0  0  0
  140.8110   77.5550  221.5200 C   0  0  0  0  0  0  0  0  0  0  0  0
  140.7280   76.4930  222.4210 C   0  0  0  0  0  0  0  0  0  0  0  0
  139.4560   76.0460  222.5100 N   0  0  0  0  0  0  0  0  0  0  0  0
  138.7350   76.8060  221.6680 C   0  0  0  0  0  0  0  0  0  0  0  0
  137.3720   76.6960  221.3920 C   0  0  0  0  0  0  0  0  0  0  0  0
  136.8190   77.5800  220.4480 C   0  0  0  0  0  0  0  0  0  0  0  0
  137.6310   78.5400  219.8070 C   0  0  0  0  0  0  0  0  0  0  0  0
  139.0030   78.6270  220.1030 C   0  0  0  0  0  0  0  0  0  0  0  0
  139.5250   77.7380  221.0440 C   0  0  0  0  0  0  0  0  0  0  0  0
  141.1695   81.3554  224.8322 H   0  0  0  0  0  0  0  0  0  0  0  0
  141.4322   82.2045  223.2614 H   0  0  0  0  0  0  0  0  0  0  0  0
  139.6008   79.1708  224.6018 H   0  0  0  0  0  0  0  0  0  0  0  0
  137.2540   78.6395  223.9393 H   0  0  0  0  0  0  0  0  0  0  0  0
  136.0607   80.0882  222.2920 H   0  0  0  0  0  0  0  0  0  0  0  0
  137.2166   82.0666  221.2996 H   0  0  0  0  0  0  0  0  0  0  0  0
  139.5606   82.6082  221.9615 H   0  0  0  0  0  0  0  0  0  0  0  0
  141.3963   81.7021  221.1265 H   0  0  0  0  0  0  0  0  0  0  0  0
  141.2429   81.4015  218.7315 H   0  0  0  0  0  0  0  0  0  0  0  0
  141.7334   80.0174  216.7193 H   0  0  0  0  0  0  0  0  0  0  0  0
  142.3458   77.8372  215.6735 H   0  0  0  0  0  0  0  0  0  0  0  0
  142.8673   75.8626  217.1084 H   0  0  0  0  0  0  0  0  0  0  0  0
  142.7595   76.0594  219.5929 H   0  0  0  0  0  0  0  0  0  0  0  0
  142.9522   77.7578  221.5052 H   0  0  0  0  0  0  0  0  0  0  0  0
  141.5791   76.0777  222.9807 H   0  0  0  0  0  0  0  0  0  0  0  0
  139.1120   75.2540  223.0970 H   0  0  0  0  0  0  0  0  0  0  0  0
  136.7497   75.9421  221.8964 H   0  0  0  0  0  0  0  0  0  0  0  0
  135.7471   77.5227  220.2079 H   0  0  0  0  0  0  0  0  0  0  0  0
  137.1872   79.2256  219.0701 H   0  0  0  0  0  0  0  0  0  0  0  0
  139.6442   79.3717  219.6088 H   0  0  0  0  0  0  0  0  0  0  0  0
  1  2  2  0
  2  3  2  0
  2  4  1  0
  4  5  1  0
  5  6  2  0
  6  7  1  0
  7  8  2  0
  8  9  1  0
  9 10  2  0
  2 11  1  0
 11 12  1  0
 12 13  2  0
 13 14  1  0
 14 15  2  0
 15 16  1  0
 16 17  2  0
 17 18  1  0
 18 19  2  0
 19 20  1  0
 20 21  1  0
 21 22  2  0
 22 23  1  0
 23 24  1  0
 24 25  2  0
 25 26  1  0
 26 27  2  0
 27 28  1  0
 28 29  2  0
 10  5  1  0
 20 11  1  0
 29 21  1  0
 19 14  1  0
 29 24  1  0
  4 30  1  0
  4 31  1  0
  6 32  1  0
  7 33  1  0
  8 34  1  0
  9 35  1  0
 10 36  1  0
 12 37  1  0
 13 38  1  0
 15 39  1  0
 16 40  1  0
 17 41  1  0
 18 42  1  0
 20 43  1  1
 22 44  1  0
 23 45  1  0
 25 46  1  0
 26 47  1  0
 27 48  1  0
 28 49  1  0
M  END
>  <meeko>  (15) 
{"free_energy": -6.61, "intermolecular_energy": -7.81, "internal_energy": -3.09, "cluster_size": 16, "cluster_id": 4, "rank_in_cluster": 3}

$$$$

     RDKit          3D

 49 53  0  0  0  0  0  0  0  0999 V2000
  143.6800   80.3060  223.4640 O   0  0  0  0  0  0  0  0  0  0  0  0
  142.2540   79.9120  223.2030 S   0  0  0  0  0  0  0  0  0  0  0  0
  141.9280   78.7060  224.0400 O   0  0  0  0  0  0  0  0  0  0  0  0
  141.1690   81.2670  223.6280 C   0  0  0  0  0  0  0  0  0  0  0  0
  139.7500   80.9480  223.2520 C   0  0  0  0  0  0  0  0  0  0  0  0
  139.0820   79.8700  223.8550 C   0  0  0  0  0  0  0  0  0  0  0  0
  137.7500   79.5970  223.5330 C   0  0  0  0  0  0  0  0  0  0  0  0
  137.0730   80.4020  222.6120 C   0  0  0  0  0  0  0  0  0  0  0  0
  137.7290   81.4820  222.0140 C   0  0  0  0  0  0  0  0  0  0  0  0
  139.0610   81.7590  222.3350 C   0  0  0  0  0  0  0  0  0  0  0  0
  142.0570   79.5280  221.5190 N   0  0  0  0  0  0  0  0  0  0  0  0
  141.7100   80.5930  220.6190 C   0  0  0  0  0  0  0  0  0  0  0  0
  141.6570   80.3880  219.3040 C   0  0  0  0  0  0  0  0  0  0  0  0
  141.9670   79.0650  218.7400 C   0  0  0  0  0  0  0  0  0  0  0  0
  142.0530   78.8940  217.3510 C   0  0  0  0  0  0  0  0  0  0  0  0
  142.3680   77.6430  216.8150 C   0  0  0  0  0  0  0  0  0  0  0  0
  142.5980   76.5550  217.6620 C   0  0  0  0  0  0  0  0  0  0  0  0
  142.5090   76.7160  219.0470 C   0  0  0  0  0  0  0  0  0  0  0  0
  142.1970   77.9710  219.5970 C   0  0  0  0  0  0  0  0  0  0  0  0
  142.0360   78.1180  221.0960 C   0  0  2  0  0  0  0  0  0  0  0  0
  140.7420   77.4820  221.5350 C   0  0  0  0  0  0  0  0  0  0  0  0
  140.6020   76.4270  222.4360 C   0  0  0  0  0  0  0  0  0  0  0  0
  139.3110   76.0390  222.5140 N   0  0  0  0  0  0  0  0  0  0  0  0
  138.6320   76.8290  221.6640 C   0  0  0  0  0  0  0  0  0  0  0  0
  137.2690   76.7810  221.3750 C   0  0  0  0  0  0  0  0  0  0  0  0
  136.7660   77.6880  220.4250 C   0  0  0  0  0  0  0  0  0  0  0  0
  137.6270   78.6090  219.7900 C   0  0  0  0  0  0  0  0  0  0  0  0
  138.9980   78.6330  220.0990 C   0  0  0  0  0  0  0  0  0  0  0  0
  139.4710   77.7230  221.0460 C   0  0  0  0  0  0  0  0  0  0  0  0
  141.2237   81.4473  224.7117 H   0  0  0  0  0  0  0  0  0  0  0  0
  141.4886   82.1630  223.0758 H   0  0  0  0  0  0  0  0  0  0  0  0
  139.6097   79.2376  224.5841 H   0  0  0  0  0  0  0  0  0  0  0  0
  137.2336   78.7479  224.0046 H   0  0  0  0  0  0  0  0  0  0  0  0
  136.0248   80.1857  222.3580 H   0  0  0  0  0  0  0  0  0  0  0  0
  137.1959   82.1151  221.2894 H   0  0  0  0  0  0  0  0  0  0  0  0
  139.5711   82.6145  221.8682 H   0  0  0  0  0  0  0  0  0  0  0  0
  141.4850   81.5916  221.0217 H   0  0  0  0  0  0  0  0  0  0  0  0
  141.3791   81.2149  218.6340 H   0  0  0  0  0  0  0  0  0  0  0  0
  141.8719   79.7476  216.6812 H   0  0  0  0  0  0  0  0  0  0  0  0
  142.4351   77.5139  215.7247 H   0  0  0  0  0  0  0  0  0  0  0  0
  142.8492   75.5716  217.2379 H   0  0  0  0  0  0  0  0  0  0  0  0
  142.6840   75.8561  219.7102 H   0  0  0  0  0  0  0  0  0  0  0  0
  142.8888   77.6110  221.5710 H   0  0  0  0  0  0  0  0  0  0  0  0
  141.4280   75.9740  223.0040 H   0  0  0  0  0  0  0  0  0  0  0  0
  138.9250   75.2640  223.0990 H   0  0  0  0  0  0  0  0  0  0  0  0
  136.6081   76.0569  221.8740 H   0  0  0  0  0  0  0  0  0  0  0  0
  135.6948   77.6797  220.1752 H   0  0  0  0  0  0  0  0  0  0  0  0
  137.2221   79.3129  219.0480 H   0  0  0  0  0  0  0  0  0  0  0  0
  139.6771   79.3467  219.6098 H   0  0  0  0  0  0  0  0  0  0  0  0
  1  2  2  0
  2  3  2  0
  2  4  1  0
  4  5  1  0
  5  6  2  0
  6  7  1  0
  7  8  2  0
  8  9  1  0
  9 10  2  0
  2 11  1  0
 11 12  1  0
 12 13  2  0
 13 14  1  0
 14 15  2  0
 15 16  1  0
 16 17  2  0
 17 18  1  0
 18 19  2  0
 19 20  1  0
 20 21  1  0
 21 22  2  0
 22 23  1  0
 23 24  1  0
 24 25  2  0
 25 26  1  0
 26 27  2  0
 27 28  1  0
 28 29  2  0
 10  5  1  0
 20 11  1  0
 29 21  1  0
 19 14  1  0
 29 24  1  0
  4 30  1  0
  4 31  1  0
  6 32  1  0
  7 33  1  0
  8 34  1  0
  9 35  1  0
 10 36  1  0
 12 37  1  0
 13 38  1  0
 15 39  1  0
 16 40  1  0
 17 41  1  0
 18 42  1  0
 20 43  1  1
 22 44  1  0
 23 45  1  0
 25 46  1  0
 26 47  1  0
 27 48  1  0
 28 49  1  0
M  END
>  <meeko>  (16) 
{"free_energy": -6.59, "intermolecular_energy": -7.78, "internal_energy": -3.11, "cluster_size": 16, "cluster_id": 4, "rank_in_cluster": 10}

$$$$

     RDKit          3D

 49 53  0  0  0  0  0  0  0  0999 V2000
  143.6690   80.3360  223.4460 O   0  0  0  0  0  0  0  0  0  0  0  0
  142.2480   79.9180  223.1890 S   0  0  0  0  0  0  0  0  0  0  0  0
  141.9460   78.7030  224.0210 O   0  0  0  0  0  0  0  0  0  0  0  0
  141.1410   81.2520  223.6250 C   0  0  0  0  0  0  0  0  0  0  0  0
  139.7320   80.9240  223.2230 C   0  0  0  0  0  0  0  0  0  0  0  0
  139.0580   79.8460  223.8200 C   0  0  0  0  0  0  0  0  0  0  0  0
  137.7330   79.5640  223.4740 C   0  0  0  0  0  0  0  0  0  0  0  0
  137.0710   80.3600  222.5350 C   0  0  0  0  0  0  0  0  0  0  0  0
  137.7320   81.4400  221.9430 C   0  0  0  0  0  0  0  0  0  0  0  0
  139.0560   81.7250  222.2870 C   0  0  0  0  0  0  0  0  0  0  0  0
  142.0520   79.5390  221.5040 N   0  0  0  0  0  0  0  0  0  0  0  0
  141.6970   80.6040  220.6070 C   0  0  0  0  0  0  0  0  0  0  0  0
  141.6440   80.4040  219.2920 C   0  0  0  0  0  0  0  0  0  0  0  0
  141.9610   79.0850  218.7230 C   0  0  0  0  0  0  0  0  0  0  0  0
  142.0460   78.9190  217.3340 C   0  0  0  0  0  0  0  0  0  0  0  0
  142.3680   77.6710  216.7930 C   0  0  0  0  0  0  0  0  0  0  0  0
  142.6060   76.5830  217.6360 C   0  0  0  0  0  0  0  0  0  0  0  0
  142.5180   76.7380  219.0210 C   0  0  0  0  0  0  0  0  0  0  0  0
  142.1990   77.9890  219.5770 C   0  0  0  0  0  0  0  0  0  0  0  0
  142.0380   78.1300  221.0760 C   0  0  2  0  0  0  0  0  0  0  0  0
  140.7490   77.4850  221.5140 C   0  0  0  0  0  0  0  0  0  0  0  0
  140.6150   76.4390  222.4260 C   0  0  0  0  0  0  0  0  0  0  0  0
  139.3270   76.0370  222.5010 N   0  0  0  0  0  0  0  0  0  0  0  0
  138.6460   76.8100  221.6380 C   0  0  0  0  0  0  0  0  0  0  0  0
  137.2850   76.7440  221.3420 C   0  0  0  0  0  0  0  0  0  0  0  0
  136.7780   77.6340  220.3780 C   0  0  0  0  0  0  0  0  0  0  0  0
  137.6330   78.5570  219.7380 C   0  0  0  0  0  0  0  0  0  0  0  0
  139.0010   78.6010  220.0550 C   0  0  0  0  0  0  0  0  0  0  0  0
  139.4780   77.7060  221.0150 C   0  0  0  0  0  0  0  0  0  0  0  0
  141.1785   81.4117  224.7127 H   0  0  0  0  0  0  0  0  0  0  0  0
  141.4576   82.1624  223.0950 H   0  0  0  0  0  0  0  0  0  0  0  0
  139.5748   79.2209  224.5630 H   0  0  0  0  0  0  0  0  0  0  0  0
  137.2114   78.7155  223.9409 H   0  0  0  0  0  0  0  0  0  0  0  0
  136.0292   80.1364  222.2617 H   0  0  0  0  0  0  0  0  0  0  0  0
  137.2092   82.0664  221.2053 H   0  0  0  0  0  0  0  0  0  0  0  0
  139.5709   82.5794  221.8235 H   0  0  0  0  0  0  0  0  0  0  0  0
  141.4655   81.5997  221.0132 H   0  0  0  0  0  0  0  0  0  0  0  0
  141.3608   81.2319  218.6253 H   0  0  0  0  0  0  0  0  0  0  0  0
  141.8587   79.7737  216.6673 H   0  0  0  0  0  0  0  0  0  0  0  0
  142.4340   77.5456  215.7022 H   0  0  0  0  0  0  0  0  0  0  0  0
  142.8631   75.6027  217.2083 H   0  0  0  0  0  0  0  0  0  0  0  0
  142.6993   75.8765  219.6805 H   0  0  0  0  0  0  0  0  0  0  0  0
  142.8939   77.6261  221.5487 H   0  0  0  0  0  0  0  0  0  0  0  0
  141.4425   76.0018  223.0040 H   0  0  0  0  0  0  0  0  0  0  0  0
  138.9470   75.2650  223.0920 H   0  0  0  0  0  0  0  0  0  0  0  0
  136.6289   76.0192  221.8462 H   0  0  0  0  0  0  0  0  0  0  0  0
  135.7086   77.6106  220.1213 H   0  0  0  0  0  0  0  0  0  0  0  0
  137.2249   79.2473  218.9851 H   0  0  0  0  0  0  0  0  0  0  0  0
  139.6749   79.3176  219.5627 H   0  0  0  0  0  0  0  0  0  0  0  0
  1  2  2  0
  2  3  2  0
  2  4  1  0
  4  5  1  0
  5  6  2  0
  6  7  1  0
  7  8  2  0
  8  9  1  0
  9 10  2  0
  2 11  1  0
 11 12  1  0
 12 13  2  0
 13 14  1  0
 14 15  2  0
 15 16  1  0
 16 17  2  0
 17 18  1  0
 18 19  2  0
 19 20  1  0
 20 21  1  0
 21 22  2  0
 22 23  1  0
 23 24  1  0
 24 25  2  0
 25 26  1  0
 26 27  2  0
 27 28  1  0
 28 29  2  0
 10  5  1  0
 20 11  1  0
 29 21  1  0
 19 14  1  0
 29 24  1  0
  4 30  1  0
  4 31  1  0
  6 32  1  0
  7 33  1  0
  8 34  1  0
  9 35  1  0
 10 36  1  0
 12 37  1  0
 13 38  1  0
 15 39  1  0
 16 40  1  0
 17 41  1  0
 18 42  1  0
 20 43  1  1
 22 44  1  0
 23 45  1  0
 25 46  1  0
 26 47  1  0
 27 48  1  0
 28 49  1  0
M  END
>  <meeko>  (17) 
{"free_energy": -6.59, "intermolecular_energy": -7.78, "internal_energy": -3.11, "cluster_size": 16, "cluster_id": 4, "rank_in_cluster": 11}

$$$$

     RDKit          3D

 49 53  0  0  0  0  0  0  0  0999 V2000
  143.6990   80.3630  223.4280 O   0  0  0  0  0  0  0  0  0  0  0  0
  142.2730   79.9560  223.1850 S   0  0  0  0  0  0  0  0  0  0  0  0
  141.9740   78.7350  224.0100 O   0  0  0  0  0  0  0  0  0  0  0  0
  141.1800   81.2930  223.6460 C   0  0  0  0  0  0  0  0  0  0  0  0
  139.7630   80.9750  223.2620 C   0  0  0  0  0  0  0  0  0  0  0  0
  139.0970   79.8860  223.8470 C   0  0  0  0  0  0  0  0  0  0  0  0
  137.7660   79.6140  223.5170 C   0  0  0  0  0  0  0  0  0  0  0  0
  137.0900   80.4310  222.6070 C   0  0  0  0  0  0  0  0  0  0  0  0
  137.7430   81.5230  222.0270 C   0  0  0  0  0  0  0  0  0  0  0  0
  139.0730   81.7990  222.3560 C   0  0  0  0  0  0  0  0  0  0  0  0
  142.0530   79.5930  221.5000 N   0  0  0  0  0  0  0  0  0  0  0  0
  141.6740   80.6650  220.6200 C   0  0  0  0  0  0  0  0  0  0  0  0
  141.6010   80.4780  219.3040 C   0  0  0  0  0  0  0  0  0  0  0  0
  141.9220   79.1680  218.7160 C   0  0  0  0  0  0  0  0  0  0  0  0
  141.9870   79.0190  217.3230 C   0  0  0  0  0  0  0  0  0  0  0  0
  142.3120   77.7800  216.7630 C   0  0  0  0  0  0  0  0  0  0  0  0
  142.5730   76.6850  217.5900 C   0  0  0  0  0  0  0  0  0  0  0  0
  142.5060   76.8240  218.9790 C   0  0  0  0  0  0  0  0  0  0  0  0
  142.1840   78.0660  219.5530 C   0  0  0  0  0  0  0  0  0  0  0  0
  142.0470   78.1890  221.0560 C   0  0  2  0  0  0  0  0  0  0  0  0
  140.7710   77.5270  221.5080 C   0  0  0  0  0  0  0  0  0  0  0  0
  140.6630   76.4590  222.3980 C   0  0  0  0  0  0  0  0  0  0  0  0
  139.3790   76.0480  222.4920 N   0  0  0  0  0  0  0  0  0  0  0  0
  138.6740   76.8370  221.6630 C   0  0  0  0  0  0  0  0  0  0  0  0
  137.3070   76.7710  221.3950 C   0  0  0  0  0  0  0  0  0  0  0  0
  136.7740   77.6800  220.4640 C   0  0  0  0  0  0  0  0  0  0  0  0
  137.6100   78.6230  219.8270 C   0  0  0  0  0  0  0  0  0  0  0  0
  138.9850   78.6660  220.1140 C   0  0  0  0  0  0  0  0  0  0  0  0
  139.4880   77.7520  221.0420 C   0  0  0  0  0  0  0  0  0  0  0  0
  141.2340   81.4451  224.7341 H   0  0  0  0  0  0  0  0  0  0  0  0
  141.4939   82.2054  223.1177 H   0  0  0  0  0  0  0  0  0  0  0  0
  139.6247   79.2443  224.5679 H   0  0  0  0  0  0  0  0  0  0  0  0
  137.2506   78.7564  223.9740 H   0  0  0  0  0  0  0  0  0  0  0  0
  136.0433   80.2149  222.3467 H   0  0  0  0  0  0  0  0  0  0  0  0
  137.2094   82.1654  221.3111 H   0  0  0  0  0  0  0  0  0  0  0  0
  139.5814   82.6637  221.9046 H   0  0  0  0  0  0  0  0  0  0  0  0
  141.4409   81.6544  221.0404 H   0  0  0  0  0  0  0  0  0  0  0  0
  141.2982   81.3097  218.6508 H   0  0  0  0  0  0  0  0  0  0  0  0
  141.7817   79.8795  216.6692 H   0  0  0  0  0  0  0  0  0  0  0  0
  142.3622   77.6673  215.6699 H   0  0  0  0  0  0  0  0  0  0  0  0
  142.8317   75.7118  217.1473 H   0  0  0  0  0  0  0  0  0  0  0  0
  142.7062   75.9573  219.6262 H   0  0  0  0  0  0  0  0  0  0  0  0
  142.9162   77.6888  221.5079 H   0  0  0  0  0  0  0  0  0  0  0  0
  141.5055   76.0132  222.9470 H   0  0  0  0  0  0  0  0  0  0  0  0
  139.0160   75.2600  223.0730 H   0  0  0  0  0  0  0  0  0  0  0  0
  136.6658   76.0310  221.8963 H   0  0  0  0  0  0  0  0  0  0  0  0
  135.6993   77.6564  220.2305 H   0  0  0  0  0  0  0  0  0  0  0  0
  137.1817   79.3293  219.1006 H   0  0  0  0  0  0  0  0  0  0  0  0
  139.6444   79.3968  219.6229 H   0  0  0  0  0  0  0  0  0  0  0  0
  1  2  2  0
  2  3  2  0
  2  4  1  0
  4  5  1  0
  5  6  2  0
  6  7  1  0
  7  8  2  0
  8  9  1  0
  9 10  2  0
  2 11  1  0
 11 12  1  0
 12 13  2  0
 13 14  1  0
 14 15  2  0
 15 16  1  0
 16 17  2  0
 17 18  1  0
 18 19  2  0
 19 20  1  0
 20 21  1  0
 21 22  2  0
 22 23  1  0
 23 24  1  0
 24 25  2  0
 25 26  1  0
 26 27  2  0
 27 28  1  0
 28 29  2  0
 10  5  1  0
 20 11  1  0
 29 21  1  0
 19 14  1  0
 29 24  1  0
  4 30  1  0
  4 31  1  0
  6 32  1  0
  7 33  1  0
  8 34  1  0
  9 35  1  0
 10 36  1  0
 12 37  1  0
 13 38  1  0
 15 39  1  0
 16 40  1  0
 17 41  1  0
 18 42  1  0
 20 43  1  1
 22 44  1  0
 23 45  1  0
 25 46  1  0
 26 47  1  0
 27 48  1  0
 28 49  1  0
M  END
>  <meeko>  (18) 
{"free_energy": -6.58, "intermolecular_energy": -7.78, "internal_energy": -3.1, "cluster_size": 16, "cluster_id": 4, "rank_in_cluster": 14}

$$$$

     RDKit          3D

 49 53  0  0  0  0  0  0  0  0999 V2000
  143.6700   80.3950  223.4580 O   0  0  0  0  0  0  0  0  0  0  0  0
  142.2540   79.9540  223.2170 S   0  0  0  0  0  0  0  0  0  0  0  0
  141.9920   78.7160  224.0290 O   0  0  0  0  0  0  0  0  0  0  0  0
  141.1290   81.2560  223.7010 C   0  0  0  0  0  0  0  0  0  0  0  0
  139.7260   80.9280  223.2770 C   0  0  0  0  0  0  0  0  0  0  0  0
  139.0530   79.8320  223.8420 C   0  0  0  0  0  0  0  0  0  0  0  0
  137.7330   79.5500  223.4760 C   0  0  0  0  0  0  0  0  0  0  0  0
  137.0750   80.3640  222.5490 C   0  0  0  0  0  0  0  0  0  0  0  0
  137.7350   81.4620  221.9890 C   0  0  0  0  0  0  0  0  0  0  0  0
  139.0540   81.7470  222.3540 C   0  0  0  0  0  0  0  0  0  0  0  0
  142.0350   79.6060  221.5290 N   0  0  0  0  0  0  0  0  0  0  0  0
  141.6430   80.6830  220.6610 C   0  0  0  0  0  0  0  0  0  0  0  0
  141.5710   80.5090  219.3430 C   0  0  0  0  0  0  0  0  0  0  0  0
  141.9030   79.2080  218.7410 C   0  0  0  0  0  0  0  0  0  0  0  0
  141.9660   79.0730  217.3470 C   0  0  0  0  0  0  0  0  0  0  0  0
  142.3010   77.8430  216.7740 C   0  0  0  0  0  0  0  0  0  0  0  0
  142.5750   76.7420  217.5890 C   0  0  0  0  0  0  0  0  0  0  0  0
  142.5090   76.8670  218.9790 C   0  0  0  0  0  0  0  0  0  0  0  0
  142.1760   78.1000  219.5670 C   0  0  0  0  0  0  0  0  0  0  0  0
  142.0400   78.2060  221.0710 C   0  0  2  0  0  0  0  0  0  0  0  0
  140.7710   77.5280  221.5180 C   0  0  0  0  0  0  0  0  0  0  0  0
  140.6720   76.4710  222.4230 C   0  0  0  0  0  0  0  0  0  0  0  0
  139.3950   76.0390  222.5080 N   0  0  0  0  0  0  0  0  0  0  0  0
  138.6860   76.8030  221.6590 C   0  0  0  0  0  0  0  0  0  0  0  0
  137.3230   76.7070  221.3770 C   0  0  0  0  0  0  0  0  0  0  0  0
  136.7850   77.5920  220.4270 C   0  0  0  0  0  0  0  0  0  0  0  0
  137.6110   78.5400  219.7850 C   0  0  0  0  0  0  0  0  0  0  0  0
  138.9820   78.6130  220.0870 C   0  0  0  0  0  0  0  0  0  0  0  0
  139.4900   77.7230  221.0350 C   0  0  0  0  0  0  0  0  0  0  0  0
  141.1585   81.3711  224.7946 H   0  0  0  0  0  0  0  0  0  0  0  0
  141.4377   82.1913  223.2112 H   0  0  0  0  0  0  0  0  0  0  0  0
  139.5664   79.1929  224.5754 H   0  0  0  0  0  0  0  0  0  0  0  0
  137.2123   78.6875  223.9176 H   0  0  0  0  0  0  0  0  0  0  0  0
  136.0374   80.1404  222.2601 H   0  0  0  0  0  0  0  0  0  0  0  0
  137.2159   82.1022  221.2605 H   0  0  0  0  0  0  0  0  0  0  0  0
  139.5678   82.6159  221.9169 H   0  0  0  0  0  0  0  0  0  0  0  0
  141.3990   81.6651  221.0921 H   0  0  0  0  0  0  0  0  0  0  0  0
  141.2607   81.3448  218.6987 H   0  0  0  0  0  0  0  0  0  0  0  0
  141.7511   79.9379  216.7022 H   0  0  0  0  0  0  0  0  0  0  0  0
  142.3490   77.7418  215.6797 H   0  0  0  0  0  0  0  0  0  0  0  0
  142.8429   75.7760  217.1361 H   0  0  0  0  0  0  0  0  0  0  0  0
  142.7188   75.9958  219.6170 H   0  0  0  0  0  0  0  0  0  0  0  0
  142.9138   77.7085  221.5171 H   0  0  0  0  0  0  0  0  0  0  0  0
  141.5158   76.0485  222.9883 H   0  0  0  0  0  0  0  0  0  0  0  0
  139.0400   75.2530  223.0970 H   0  0  0  0  0  0  0  0  0  0  0  0
  136.6898   75.9626  221.8820 H   0  0  0  0  0  0  0  0  0  0  0  0
  135.7136   77.5458  220.1821 H   0  0  0  0  0  0  0  0  0  0  0  0
  137.1784   79.2269  219.0427 H   0  0  0  0  0  0  0  0  0  0  0  0
  139.6338   79.3480  219.5921 H   0  0  0  0  0  0  0  0  0  0  0  0
  1  2  2  0
  2  3  2  0
  2  4  1  0
  4  5  1  0
  5  6  2  0
  6  7  1  0
  7  8  2  0
  8  9  1  0
  9 10  2  0
  2 11  1  0
 11 12  1  0
 12 13  2  0
 13 14  1  0
 14 15  2  0
 15 16  1  0
 16 17  2  0
 17 18  1  0
 18 19  2  0
 19 20  1  0
 20 21  1  0
 21 22  2  0
 22 23  1  0
 23 24  1  0
 24 25  2  0
 25 26  1  0
 26 27  2  0
 27 28  1  0
 28 29  2  0
 10  5  1  0
 20 11  1  0
 29 21  1  0
 19 14  1  0
 29 24  1  0
  4 30  1  0
  4 31  1  0
  6 32  1  0
  7 33  1  0
  8 34  1  0
  9 35  1  0
 10 36  1  0
 12 37  1  0
 13 38  1  0
 15 39  1  0
 16 40  1  0
 17 41  1  0
 18 42  1  0
 20 43  1  1
 22 44  1  0
 23 45  1  0
 25 46  1  0
 26 47  1  0
 27 48  1  0
 28 49  1  0
M  END
>  <meeko>  (19) 
{"free_energy": -6.61, "intermolecular_energy": -7.8, "internal_energy": -3.09, "cluster_size": 16, "cluster_id": 4, "rank_in_cluster": 5}

$$$$

     RDKit          3D

 49 53  0  0  0  0  0  0  0  0999 V2000
  138.0050   75.5710  222.6070 O   0  0  0  0  0  0  0  0  0  0  0  0
  139.2990   75.8610  221.9000 S   0  0  0  0  0  0  0  0  0  0  0  0
  140.3240   74.8540  222.3430 O   0  0  0  0  0  0  0  0  0  0  0  0
  139.0560   75.7530  220.1330 C   0  0  0  0  0  0  0  0  0  0  0  0
  138.3790   76.9910  219.6150 C   0  0  0  0  0  0  0  0  0  0  0  0
  137.1200   77.3700  220.1100 C   0  0  0  0  0  0  0  0  0  0  0  0
  136.5090   78.5420  219.6570 C   0  0  0  0  0  0  0  0  0  0  0  0
  137.1520   79.3460  218.7110 C   0  0  0  0  0  0  0  0  0  0  0  0
  138.4080   78.9800  218.2200 C   0  0  0  0  0  0  0  0  0  0  0  0
  139.0240   77.8090  218.6730 C   0  0  0  0  0  0  0  0  0  0  0  0
  139.8360   77.4630  222.3080 N   0  0  0  0  0  0  0  0  0  0  0  0
  138.8400   78.4790  222.5090 C   0  0  0  0  0  0  0  0  0  0  0  0
  139.1780   79.6950  222.9340 C   0  0  0  0  0  0  0  0  0  0  0  0
  140.5840   80.0230  223.2210 C   0  0  0  0  0  0  0  0  0  0  0  0
  140.9140   81.2530  223.8060 C   0  0  0  0  0  0  0  0  0  0  0  0
  142.2470   81.5570  224.0980 C   0  0  0  0  0  0  0  0  0  0  0  0
  143.2560   80.6360  223.8070 C   0  0  0  0  0  0  0  0  0  0  0  0
  142.9350   79.4090  223.2190 C   0  0  0  0  0  0  0  0  0  0  0  0
  141.5980   79.0910  222.9250 C   0  0  0  0  0  0  0  0  0  0  0  0
  141.2690   77.7890  222.2250 C   0  0  2  0  0  0  0  0  0  0  0  0
  141.6830   77.8680  220.7780 C   0  0  0  0  0  0  0  0  0  0  0  0
  142.2170   76.8330  220.0120 C   0  0  0  0  0  0  0  0  0  0  0  0
  142.5750   77.2840  218.7900 N   0  0  0  0  0  0  0  0  0  0  0  0
  142.2830   78.5960  218.7770 C   0  0  0  0  0  0  0  0  0  0  0  0
  142.5060   79.4990  217.7380 C   0  0  0  0  0  0  0  0  0  0  0  0
  142.1500   80.8430  217.9470 C   0  0  0  0  0  0  0  0  0  0  0  0
  141.5870   81.2510  219.1750 C   0  0  0  0  0  0  0  0  0  0  0  0
  141.3750   80.3190  220.2070 C   0  0  0  0  0  0  0  0  0  0  0  0
  141.7380   78.9920  219.9730 C   0  0  0  0  0  0  0  0  0  0  0  0
  140.0330   75.6422  219.6399 H   0  0  0  0  0  0  0  0  0  0  0  0
  138.4188   74.8832  219.9154 H   0  0  0  0  0  0  0  0  0  0  0  0
  136.6133   76.7416  220.8572 H   0  0  0  0  0  0  0  0  0  0  0  0
  135.5215   78.8323  220.0449 H   0  0  0  0  0  0  0  0  0  0  0  0
  136.6689   80.2671  218.3531 H   0  0  0  0  0  0  0  0  0  0  0  0
  138.9129   79.6138  217.4761 H   0  0  0  0  0  0  0  0  0  0  0  0
  140.0163   77.5279  218.2905 H   0  0  0  0  0  0  0  0  0  0  0  0
  137.7831   78.2491  222.3089 H   0  0  0  0  0  0  0  0  0  0  0  0
  138.4002   80.4605  223.0717 H   0  0  0  0  0  0  0  0  0  0  0  0
  140.1222   81.9811  224.0360 H   0  0  0  0  0  0  0  0  0  0  0  0
  142.5017   82.5233  224.5578 H   0  0  0  0  0  0  0  0  0  0  0  0
  144.3037   80.8763  224.0406 H   0  0  0  0  0  0  0  0  0  0  0  0
  143.7329   78.6888  222.9852 H   0  0  0  0  0  0  0  0  0  0  0  0
  141.8262   76.9899  222.7358 H   0  0  0  0  0  0  0  0  0  0  0  0
  142.3310   75.7940  220.3548 H   0  0  0  0  0  0  0  0  0  0  0  0
  143.0130   76.7280  218.0220 H   0  0  0  0  0  0  0  0  0  0  0  0
  142.9464   79.1702  216.7852 H   0  0  0  0  0  0  0  0  0  0  0  0
  142.3114   81.5815  217.1479 H   0  0  0  0  0  0  0  0  0  0  0  0
  141.3120   82.3053  219.3262 H   0  0  0  0  0  0  0  0  0  0  0  0
  140.9369   80.6264  221.1680 H   0  0  0  0  0  0  0  0  0  0  0  0
  1  2  2  0
  2  3  2  0
  2  4  1  0
  4  5  1  0
  5  6  2  0
  6  7  1  0
  7  8  2  0
  8  9  1  0
  9 10  2  0
  2 11  1  0
 11 12  1  0
 12 13  2  0
 13 14  1  0
 14 15  2  0
 15 16  1  0
 16 17  2  0
 17 18  1  0
 18 19  2  0
 19 20  1  0
 20 21  1  0
 21 22  2  0
 22 23  1  0
 23 24  1  0
 24 25  2  0
 25 26  1  0
 26 27  2  0
 27 28  1  0
 28 29  2  0
 10  5  1  0
 20 11  1  0
 29 21  1  0
 19 14  1  0
 29 24  1  0
  4 30  1  0
  4 31  1  0
  6 32  1  0
  7 33  1  0
  8 34  1  0
  9 35  1  0
 10 36  1  0
 12 37  1  0
 13 38  1  0
 15 39  1  0
 16 40  1  0
 17 41  1  0
 18 42  1  0
 20 43  1  1
 22 44  1  0
 23 45  1  0
 25 46  1  0
 26 47  1  0
 27 48  1  0
 28 49  1  0
M  END
>  <meeko>  (20) 
{"free_energy": -6.79, "intermolecular_energy": -7.98, "internal_energy": -2.77, "cluster_size": 2, "cluster_id": 3, "rank_in_cluster": 1}

$$$$
