
     RDKit          3D

 48 51  0  0  0  0  0  0  0  0999 V2000
  141.3270   72.1860  221.6080 O   0  0  0  0  0  0  0  0  0  0  0  0
  140.4350   72.4630  222.4550 C   0  0  0  0  0  0  0  0  0  0  0  0
  139.5800   73.6050  222.3200 N   0  0  0  0  0  0  0  0  0  0  0  0
  139.7910   74.4380  221.1490 C   0  0  0  0  0  0  0  0  0  0  0  0
  140.4310   75.7050  221.5110 C   0  0  0  0  0  0  0  0  0  0  0  0
  140.3910   76.1260  222.7170 O   0  0  0  0  0  0  0  0  0  0  0  0
  141.1260   76.5510  220.5970 N   0  0  0  0  0  0  0  0  0  0  0  0
  141.3130   77.9780  220.8930 C   0  0  0  0  0  0  0  0  0  0  0  0
  141.8130   78.5310  219.5720 C   0  0  0  0  0  0  0  0  0  0  0  0
  142.4880   77.3640  218.9340 C   0  0  0  0  0  0  0  0  0  0  0  0
  141.6840   76.1640  219.3760 C   0  0  1  0  0  0  0  0  0  0  0  0
  142.6080   75.0270  219.3690 C   0  0  0  0  0  0  0  0  0  0  0  0
  143.8100   75.1540  220.0750 C   0  0  0  0  0  0  0  0  0  0  0  0
  144.7330   74.1150  220.1100 C   0  0  0  0  0  0  0  0  0  0  0  0
  144.4560   72.9430  219.4370 C   0  0  0  0  0  0  0  0  0  0  0  0
  145.5640   71.5770  219.4260 Cl  0  0  0  0  0  0  0  0  0  0  0  0
  143.2740   72.7970  218.7330 C   0  0  0  0  0  0  0  0  0  0  0  0
  142.3510   73.8300  218.6950 C   0  0  0  0  0  0  0  0  0  0  0  0
  140.2450   71.6060  223.6240 C   0  0  0  0  0  0  0  0  0  0  0  0
  139.5870   70.4000  223.4960 C   0  0  0  0  0  0  0  0  0  0  0  0
  139.3710   69.5410  224.5570 C   0  0  0  0  0  0  0  0  0  0  0  0
  139.8440   69.9270  225.7900 C   0  0  0  0  0  0  0  0  0  0  0  0
  139.6330   69.0720  226.8570 C   0  0  0  0  0  0  0  0  0  0  0  0
  140.1030   69.4380  228.1230 C   0  0  0  0  0  0  0  0  0  0  0  0
  140.7740   70.6540  228.2830 C   0  0  0  0  0  0  0  0  0  0  0  0
  140.9580   71.4720  227.1800 C   0  0  0  0  0  0  0  0  0  0  0  0
  140.5060   71.1350  225.9210 C   0  0  0  0  0  0  0  0  0  0  0  0
  140.7010   71.9590  224.8560 N   0  0  0  0  0  0  0  0  0  0  0  0
  138.8540   73.7980  223.0440 H   0  0  0  0  0  0  0  0  0  0  0  0
  140.4351   73.9007  220.4373 H   0  0  0  0  0  0  0  0  0  0  0  0
  138.8130   74.6577  220.6959 H   0  0  0  0  0  0  0  0  0  0  0  0
  140.3636   78.4498  221.1864 H   0  0  0  0  0  0  0  0  0  0  0  0
  142.0006   78.1630  221.7314 H   0  0  0  0  0  0  0  0  0  0  0  0
  140.9758   78.8865  218.9534 H   0  0  0  0  0  0  0  0  0  0  0  0
  142.4823   79.3950  219.6971 H   0  0  0  0  0  0  0  0  0  0  0  0
  142.4722   77.4587  217.8382 H   0  0  0  0  0  0  0  0  0  0  0  0
  143.5456   77.2855  219.2260 H   0  0  0  0  0  0  0  0  0  0  0  0
  140.8452   75.8395  218.7426 H   0  0  0  0  0  0  0  0  0  0  0  0
  144.0275   76.0901  220.6102 H   0  0  0  0  0  0  0  0  0  0  0  0
  145.6742   74.2262  220.6684 H   0  0  0  0  0  0  0  0  0  0  0  0
  143.0659   71.8569  218.2011 H   0  0  0  0  0  0  0  0  0  0  0  0
  141.4135   73.7075  218.1328 H   0  0  0  0  0  0  0  0  0  0  0  0
  139.2167   70.1083  222.5021 H   0  0  0  0  0  0  0  0  0  0  0  0
  138.8418   68.5863  224.4210 H   0  0  0  0  0  0  0  0  0  0  0  0
  139.1036   68.1187  226.7122 H   0  0  0  0  0  0  0  0  0  0  0  0
  139.9458   68.7741  228.9858 H   0  0  0  0  0  0  0  0  0  0  0  0
  141.1507   70.9572  229.2710 H   0  0  0  0  0  0  0  0  0  0  0  0
  141.4854   72.4280  227.3135 H   0  0  0  0  0  0  0  0  0  0  0  0
  1  2  2  0
  2  3  1  0
  3  4  1  0
  4  5  1  0
  5  6  2  0
  5  7  1  0
  7  8  1  0
  8  9  1  0
  9 10  1  0
 10 11  1  0
 11 12  1  0
 12 13  2  0
 13 14  1  0
 14 15  2  0
 15 16  1  0
 15 17  1  0
 17 18  2  0
  2 19  1  0
 19 20  2  0
 20 21  1  0
 21 22  2  0
 22 23  1  0
 23 24  2  0
 24 25  1  0
 25 26  2  0
 26 27  1  0
 27 28  2  0
 11  7  1  0
 18 12  1  0
 28 19  1  0
 27 22  1  0
  3 29  1  0
  4 30  1  0
  4 31  1  0
  8 32  1  0
  8 33  1  0
  9 34  1  0
  9 35  1  0
 10 36  1  0
 10 37  1  0
 11 38  1  6
 13 39  1  0
 14 40  1  0
 17 41  1  0
 18 42  1  0
 20 43  1  0
 21 44  1  0
 23 45  1  0
 24 46  1  0
 25 47  1  0
 26 48  1  0
M  END
>  <meeko>  (1) 
{"free_energy": -8.36, "intermolecular_energy": -9.85, "internal_energy": -1.72, "cluster_size": 9, "cluster_id": 2, "rank_in_cluster": 3}

$$$$

     RDKit          3D

 48 51  0  0  0  0  0  0  0  0999 V2000
  138.7410   75.2560  221.9440 O   0  0  0  0  0  0  0  0  0  0  0  0
  139.9130   75.7020  222.0740 C   0  0  0  0  0  0  0  0  0  0  0  0
  141.0700   74.8760  221.8870 N   0  0  0  0  0  0  0  0  0  0  0  0
  140.8260   73.4880  221.5380 C   0  0  0  0  0  0  0  0  0  0  0  0
  141.7080   73.0540  220.4530 C   0  0  0  0  0  0  0  0  0  0  0  0
  141.2270   72.4520  219.4330 O   0  0  0  0  0  0  0  0  0  0  0  0
  143.1200   73.2500  220.4300 N   0  0  0  0  0  0  0  0  0  0  0  0
  144.0340   72.1020  220.3370 C   0  0  0  0  0  0  0  0  0  0  0  0
  145.3850   72.7240  220.6370 C   0  0  0  0  0  0  0  0  0  0  0  0
  145.2270   74.1410  220.1970 C   0  0  0  0  0  0  0  0  0  0  0  0
  143.7840   74.4780  220.4910 C   0  0  1  0  0  0  0  0  0  0  0  0
  143.4020   75.5180  219.5320 C   0  0  0  0  0  0  0  0  0  0  0  0
  142.7100   76.6340  220.0160 C   0  0  0  0  0  0  0  0  0  0  0  0
  142.3170   77.6580  219.1630 C   0  0  0  0  0  0  0  0  0  0  0  0
  142.6160   77.5690  217.8190 C   0  0  0  0  0  0  0  0  0  0  0  0
  142.1590   78.8170  216.6650 Cl  0  0  0  0  0  0  0  0  0  0  0  0
  143.3000   76.4740  217.3200 C   0  0  0  0  0  0  0  0  0  0  0  0
  143.6930   75.4510  218.1670 C   0  0  0  0  0  0  0  0  0  0  0  0
  140.1280   77.1040  222.4260 C   0  0  0  0  0  0  0  0  0  0  0  0
  139.0480   77.9420  222.6130 C   0  0  0  0  0  0  0  0  0  0  0  0
  139.1760   79.2770  222.9460 C   0  0  0  0  0  0  0  0  0  0  0  0
  140.4520   79.7720  223.0950 C   0  0  0  0  0  0  0  0  0  0  0  0
  140.5900   81.1080  223.4300 C   0  0  0  0  0  0  0  0  0  0  0  0
  141.8740   81.6390  223.5890 C   0  0  0  0  0  0  0  0  0  0  0  0
  142.9870   80.8130  223.4070 C   0  0  0  0  0  0  0  0  0  0  0  0
  142.7920   79.4820  223.0720 C   0  0  0  0  0  0  0  0  0  0  0  0
  141.5370   78.9330  222.9110 C   0  0  0  0  0  0  0  0  0  0  0  0
  141.3760   77.6220  222.5810 N   0  0  0  0  0  0  0  0  0  0  0  0
  142.0230   75.2850  222.0050 H   0  0  0  0  0  0  0  0  0  0  0  0
  141.0069   72.8583  222.4216 H   0  0  0  0  0  0  0  0  0  0  0  0
  139.7835   73.3908  221.2006 H   0  0  0  0  0  0  0  0  0  0  0  0
  143.7790   71.3311  221.0791 H   0  0  0  0  0  0  0  0  0  0  0  0
  143.9955   71.5920  219.3631 H   0  0  0  0  0  0  0  0  0  0  0  0
  145.6118   72.6699  221.7120 H   0  0  0  0  0  0  0  0  0  0  0  0
  146.2137   72.2095  220.1286 H   0  0  0  0  0  0  0  0  0  0  0  0
  145.9018   74.8000  220.7630 H   0  0  0  0  0  0  0  0  0  0  0  0
  145.4766   74.2760  219.1342 H   0  0  0  0  0  0  0  0  0  0  0  0
  143.5426   74.9096  221.4736 H   0  0  0  0  0  0  0  0  0  0  0  0
  142.4736   76.7016  221.0882 H   0  0  0  0  0  0  0  0  0  0  0  0
  141.7733   78.5302  219.5550 H   0  0  0  0  0  0  0  0  0  0  0  0
  143.5324   76.4160  216.2464 H   0  0  0  0  0  0  0  0  0  0  0  0
  144.2358   74.5833  217.7639 H   0  0  0  0  0  0  0  0  0  0  0  0
  138.0364   77.5275  222.4912 H   0  0  0  0  0  0  0  0  0  0  0  0
  138.2936   79.9186  223.0864 H   0  0  0  0  0  0  0  0  0  0  0  0
  139.7025   81.7429  223.5691 H   0  0  0  0  0  0  0  0  0  0  0  0
  142.0070   82.6980  223.8551 H   0  0  0  0  0  0  0  0  0  0  0  0
  144.0042   81.2139  223.5280 H   0  0  0  0  0  0  0  0  0  0  0  0
  143.6726   78.8385  222.9290 H   0  0  0  0  0  0  0  0  0  0  0  0
  1  2  2  0
  2  3  1  0
  3  4  1  0
  4  5  1  0
  5  6  2  0
  5  7  1  0
  7  8  1  0
  8  9  1  0
  9 10  1  0
 10 11  1  0
 11 12  1  0
 12 13  2  0
 13 14  1  0
 14 15  2  0
 15 16  1  0
 15 17  1  0
 17 18  2  0
  2 19  1  0
 19 20  2  0
 20 21  1  0
 21 22  2  0
 22 23  1  0
 23 24  2  0
 24 25  1  0
 25 26  2  0
 26 27  1  0
 27 28  2  0
 11  7  1  0
 18 12  1  0
 28 19  1  0
 27 22  1  0
  3 29  1  0
  4 30  1  0
  4 31  1  0
  8 32  1  0
  8 33  1  0
  9 34  1  0
  9 35  1  0
 10 36  1  0
 10 37  1  0
 11 38  1  1
 13 39  1  0
 14 40  1  0
 17 41  1  0
 18 42  1  0
 20 43  1  0
 21 44  1  0
 23 45  1  0
 24 46  1  0
 25 47  1  0
 26 48  1  0
M  END
>  <meeko>  (2) 
{"free_energy": -7.57, "intermolecular_energy": -9.06, "internal_energy": -2.31, "cluster_size": 2, "cluster_id": 4, "rank_in_cluster": 1}

$$$$

     RDKit          3D

 48 51  0  0  0  0  0  0  0  0999 V2000
  138.5330   70.8120  221.7180 O   0  0  0  0  0  0  0  0  0  0  0  0
  139.1020   71.3290  222.7170 C   0  0  0  0  0  0  0  0  0  0  0  0
  139.4950   72.7070  222.7460 N   0  0  0  0  0  0  0  0  0  0  0  0
  139.2030   73.4890  221.5570 C   0  0  0  0  0  0  0  0  0  0  0  0
  139.4490   74.9140  221.7890 C   0  0  0  0  0  0  0  0  0  0  0  0
  140.5430   75.3010  222.3230 O   0  0  0  0  0  0  0  0  0  0  0  0
  138.5350   75.9570  221.4570 N   0  0  0  0  0  0  0  0  0  0  0  0
  137.0920   75.7860  221.6790 C   0  0  0  0  0  0  0  0  0  0  0  0
  136.4960   76.9670  220.9370 C   0  0  0  0  0  0  0  0  0  0  0  0
  137.5800   77.9920  220.9780 C   0  0  0  0  0  0  0  0  0  0  0  0
  138.8640   77.1990  220.9100 C   0  0  1  0  0  0  0  0  0  0  0  0
  139.8800   78.0060  221.5910 C   0  0  0  0  0  0  0  0  0  0  0  0
  139.5490   78.5670  222.8310 C   0  0  0  0  0  0  0  0  0  0  0  0
  140.4640   79.3440  223.5310 C   0  0  0  0  0  0  0  0  0  0  0  0
  141.7150   79.5630  222.9930 C   0  0  0  0  0  0  0  0  0  0  0  0
  142.9360   80.5330  223.8090 Cl  0  0  0  0  0  0  0  0  0  0  0  0
  142.0620   79.0190  221.7700 C   0  0  0  0  0  0  0  0  0  0  0  0
  141.1530   78.2430  221.0670 C   0  0  0  0  0  0  0  0  0  0  0  0
  139.3830   70.5170  223.9000 C   0  0  0  0  0  0  0  0  0  0  0  0
  139.0520   69.1780  223.9130 C   0  0  0  0  0  0  0  0  0  0  0  0
  139.2870   68.3520  224.9950 C   0  0  0  0  0  0  0  0  0  0  0  0
  139.8820   68.9130  226.1020 C   0  0  0  0  0  0  0  0  0  0  0  0
  140.1220   68.0930  227.1900 C   0  0  0  0  0  0  0  0  0  0  0  0
  140.7260   68.6360  228.3300 C   0  0  0  0  0  0  0  0  0  0  0  0
  141.0730   69.9900  228.3450 C   0  0  0  0  0  0  0  0  0  0  0  0
  140.8100   70.7660  227.2280 C   0  0  0  0  0  0  0  0  0  0  0  0
  140.2160   70.2560  226.0920 C   0  0  0  0  0  0  0  0  0  0  0  0
  139.9700   71.0430  225.0090 N   0  0  0  0  0  0  0  0  0  0  0  0
  139.9640   73.0960  223.5940 H   0  0  0  0  0  0  0  0  0  0  0  0
  139.8447   73.1432  220.7332 H   0  0  0  0  0  0  0  0  0  0  0  0
  138.1412   73.3548  221.3029 H   0  0  0  0  0  0  0  0  0  0  0  0
  136.7365   74.8336  221.2588 H   0  0  0  0  0  0  0  0  0  0  0  0
  136.8155   75.7556  222.7433 H   0  0  0  0  0  0  0  0  0  0  0  0
  136.2513   76.6958  219.8994 H   0  0  0  0  0  0  0  0  0  0  0  0
  135.5557   77.3218  221.3842 H   0  0  0  0  0  0  0  0  0  0  0  0
  137.5003   78.6748  220.1192 H   0  0  0  0  0  0  0  0  0  0  0  0
  137.5258   78.6176  221.8811 H   0  0  0  0  0  0  0  0  0  0  0  0
  139.2952   76.9943  219.9190 H   0  0  0  0  0  0  0  0  0  0  0  0
  138.5503   78.3900  223.2568 H   0  0  0  0  0  0  0  0  0  0  0  0
  140.1935   79.7799  224.5041 H   0  0  0  0  0  0  0  0  0  0  0  0
  143.0632   79.2026  221.3531 H   0  0  0  0  0  0  0  0  0  0  0  0
  141.4350   77.8131  220.0945 H   0  0  0  0  0  0  0  0  0  0  0  0
  138.5781   68.7472  223.0187 H   0  0  0  0  0  0  0  0  0  0  0  0
  139.0095   67.2878  224.9727 H   0  0  0  0  0  0  0  0  0  0  0  0
  139.8422   67.0296  227.1597 H   0  0  0  0  0  0  0  0  0  0  0  0
  140.9259   68.0025  229.2068 H   0  0  0  0  0  0  0  0  0  0  0  0
  141.5487   70.4335  229.2322 H   0  0  0  0  0  0  0  0  0  0  0  0
  141.0856   71.8307  227.2475 H   0  0  0  0  0  0  0  0  0  0  0  0
  1  2  2  0
  2  3  1  0
  3  4  1  0
  4  5  1  0
  5  6  2  0
  5  7  1  0
  7  8  1  0
  8  9  1  0
  9 10  1  0
 10 11  1  0
 11 12  1  0
 12 13  2  0
 13 14  1  0
 14 15  2  0
 15 16  1  0
 15 17  1  0
 17 18  2  0
  2 19  1  0
 19 20  2  0
 20 21  1  0
 21 22  2  0
 22 23  1  0
 23 24  2  0
 24 25  1  0
 25 26  2  0
 26 27  1  0
 27 28  2  0
 11  7  1  0
 18 12  1  0
 28 19  1  0
 27 22  1  0
  3 29  1  0
  4 30  1  0
  4 31  1  0
  8 32  1  0
  8 33  1  0
  9 34  1  0
  9 35  1  0
 10 36  1  0
 10 37  1  0
 11 38  1  6
 13 39  1  0
 14 40  1  0
 17 41  1  0
 18 42  1  0
 20 43  1  0
 21 44  1  0
 23 45  1  0
 24 46  1  0
 25 47  1  0
 26 48  1  0
M  END
>  <meeko>  (3) 
{"free_energy": -8.48, "intermolecular_energy": -9.97, "internal_energy": -1.64, "cluster_size": 7, "cluster_id": 1, "rank_in_cluster": 7}

$$$$

     RDKit          3D

 48 51  0  0  0  0  0  0  0  0999 V2000
  141.0760   72.4420  222.2400 O   0  0  0  0  0  0  0  0  0  0  0  0
  140.0040   72.1940  222.8540 C   0  0  0  0  0  0  0  0  0  0  0  0
  138.7760   72.8710  222.5540 N   0  0  0  0  0  0  0  0  0  0  0  0
  138.8270   73.8660  221.4980 C   0  0  0  0  0  0  0  0  0  0  0  0
  139.1750   75.1850  222.0310 C   0  0  0  0  0  0  0  0  0  0  0  0
  140.3860   75.4580  222.3360 O   0  0  0  0  0  0  0  0  0  0  0  0
  138.2420   76.2410  222.2530 N   0  0  0  0  0  0  0  0  0  0  0  0
  136.9800   75.9870  222.9630 C   0  0  0  0  0  0  0  0  0  0  0  0
  136.1950   77.2610  222.7160 C   0  0  0  0  0  0  0  0  0  0  0  0
  137.2530   78.2970  222.5300 C   0  0  0  0  0  0  0  0  0  0  0  0
  138.3900   77.5700  221.8500 C   0  0  1  0  0  0  0  0  0  0  0  0
  139.6150   78.2760  222.2340 C   0  0  0  0  0  0  0  0  0  0  0  0
  139.6040   79.0060  223.4290 C   0  0  0  0  0  0  0  0  0  0  0  0
  140.7310   79.7000  223.8530 C   0  0  0  0  0  0  0  0  0  0  0  0
  141.8750   79.6660  223.0830 C   0  0  0  0  0  0  0  0  0  0  0  0
  143.3470   80.5140  223.5410 Cl  0  0  0  0  0  0  0  0  0  0  0  0
  141.9060   78.9510  221.8980 C   0  0  0  0  0  0  0  0  0  0  0  0
  140.7860   78.2580  221.4710 C   0  0  0  0  0  0  0  0  0  0  0  0
  139.9820   71.1860  223.9130 C   0  0  0  0  0  0  0  0  0  0  0  0
  139.3920   69.9600  223.6870 C   0  0  0  0  0  0  0  0  0  0  0  0
  139.3350   68.9620  224.6410 C   0  0  0  0  0  0  0  0  0  0  0  0
  139.9010   69.2250  225.8670 C   0  0  0  0  0  0  0  0  0  0  0  0
  139.8490   68.2310  226.8280 C   0  0  0  0  0  0  0  0  0  0  0  0
  140.4170   68.4700  228.0840 C   0  0  0  0  0  0  0  0  0  0  0  0
  141.0230   69.7030  228.3410 C   0  0  0  0  0  0  0  0  0  0  0  0
  141.0470   70.6630  227.3430 C   0  0  0  0  0  0  0  0  0  0  0  0
  140.4950   70.4540  226.0960 C   0  0  0  0  0  0  0  0  0  0  0  0
  140.5340   71.4170  225.1350 N   0  0  0  0  0  0  0  0  0  0  0  0
  137.9100   72.6360  223.0870 H   0  0  0  0  0  0  0  0  0  0  0  0
  139.5843   73.5663  220.7586 H   0  0  0  0  0  0  0  0  0  0  0  0
  137.8333   73.9298  221.0305 H   0  0  0  0  0  0  0  0  0  0  0  0
  136.4590   75.1130  222.5452 H   0  0  0  0  0  0  0  0  0  0  0  0
  137.1182   75.7599  224.0304 H   0  0  0  0  0  0  0  0  0  0  0  0
  135.5724   77.1696  221.8138 H   0  0  0  0  0  0  0  0  0  0  0  0
  135.5023   77.5011  223.5361 H   0  0  0  0  0  0  0  0  0  0  0  0
  136.8845   79.1179  221.8973 H   0  0  0  0  0  0  0  0  0  0  0  0
  137.5616   78.7511  223.4832 H   0  0  0  0  0  0  0  0  0  0  0  0
  138.4144   77.5575  220.7503 H   0  0  0  0  0  0  0  0  0  0  0  0
  138.6902   79.0305  224.0409 H   0  0  0  0  0  0  0  0  0  0  0  0
  140.7109   80.2707  224.7932 H   0  0  0  0  0  0  0  0  0  0  0  0
  142.8245   78.9333  221.2930 H   0  0  0  0  0  0  0  0  0  0  0  0
  140.8178   77.6916  220.5285 H   0  0  0  0  0  0  0  0  0  0  0  0
  138.9455   69.7675  222.7003 H   0  0  0  0  0  0  0  0  0  0  0  0
  138.8558   67.9950  224.4285 H   0  0  0  0  0  0  0  0  0  0  0  0
  139.3679   67.2666  226.6077 H   0  0  0  0  0  0  0  0  0  0  0  0
  140.3869   67.6939  228.8629 H   0  0  0  0  0  0  0  0  0  0  0  0
  141.4748   69.9082  229.3227 H   0  0  0  0  0  0  0  0  0  0  0  0
  141.5254   71.6310  227.5530 H   0  0  0  0  0  0  0  0  0  0  0  0
  1  2  2  0
  2  3  1  0
  3  4  1  0
  4  5  1  0
  5  6  2  0
  5  7  1  0
  7  8  1  0
  8  9  1  0
  9 10  1  0
 10 11  1  0
 11 12  1  0
 12 13  2  0
 13 14  1  0
 14 15  2  0
 15 16  1  0
 15 17  1  0
 17 18  2  0
  2 19  1  0
 19 20  2  0
 20 21  1  0
 21 22  2  0
 22 23  1  0
 23 24  2  0
 24 25  1  0
 25 26  2  0
 26 27  1  0
 27 28  2  0
 11  7  1  0
 18 12  1  0
 28 19  1  0
 27 22  1  0
  3 29  1  0
  4 30  1  0
  4 31  1  0
  8 32  1  0
  8 33  1  0
  9 34  1  0
  9 35  1  0
 10 36  1  0
 10 37  1  0
 11 38  1  6
 13 39  1  0
 14 40  1  0
 17 41  1  0
 18 42  1  0
 20 43  1  0
 21 44  1  0
 23 45  1  0
 24 46  1  0
 25 47  1  0
 26 48  1  0
M  END
>  <meeko>  (4) 
{"free_energy": -9.19, "intermolecular_energy": -10.69, "internal_energy": -1.2, "cluster_size": 7, "cluster_id": 1, "rank_in_cluster": 1}

$$$$

     RDKit          3D

 48 51  0  0  0  0  0  0  0  0999 V2000
  140.1900   77.5480  219.0280 O   0  0  0  0  0  0  0  0  0  0  0  0
  141.4210   77.4680  219.2890 C   0  0  0  0  0  0  0  0  0  0  0  0
  142.2600   78.6270  219.3790 N   0  0  0  0  0  0  0  0  0  0  0  0
  141.6190   79.9110  219.1540 C   0  0  0  0  0  0  0  0  0  0  0  0
  141.0890   80.4630  220.4020 C   0  0  0  0  0  0  0  0  0  0  0  0
  140.0870   81.2550  220.3820 O   0  0  0  0  0  0  0  0  0  0  0  0
  141.6160   80.1850  221.6980 N   0  0  0  0  0  0  0  0  0  0  0  0
  142.1690   81.2640  222.5280 C   0  0  0  0  0  0  0  0  0  0  0  0
  142.8610   80.5070  223.6460 C   0  0  0  0  0  0  0  0  0  0  0  0
  142.0950   79.2300  223.7330 C   0  0  0  0  0  0  0  0  0  0  0  0
  141.6770   78.9320  222.3120 C   0  0  1  0  0  0  0  0  0  0  0  0
  140.4430   78.1470  222.4040 C   0  0  0  0  0  0  0  0  0  0  0  0
  140.5430   76.7540  222.2990 C   0  0  0  0  0  0  0  0  0  0  0  0
  139.4130   75.9480  222.3770 C   0  0  0  0  0  0  0  0  0  0  0  0
  138.1780   76.5340  222.5610 C   0  0  0  0  0  0  0  0  0  0  0  0
  136.6950   75.5930  222.6710 Cl  0  0  0  0  0  0  0  0  0  0  0  0
  138.0570   77.9080  222.6670 C   0  0  0  0  0  0  0  0  0  0  0  0
  139.1800   78.7160  222.5900 C   0  0  0  0  0  0  0  0  0  0  0  0
  142.0400   76.1630  219.5110 C   0  0  0  0  0  0  0  0  0  0  0  0
  141.3030   75.0100  219.3290 C   0  0  0  0  0  0  0  0  0  0  0  0
  141.8220   73.7440  219.5210 C   0  0  0  0  0  0  0  0  0  0  0  0
  143.1380   73.6520  219.9120 C   0  0  0  0  0  0  0  0  0  0  0  0
  143.6660   72.3880  220.1060 C   0  0  0  0  0  0  0  0  0  0  0  0
  145.0020   72.2630  220.5040 C   0  0  0  0  0  0  0  0  0  0  0  0
  145.7730   73.4140  220.6950 C   0  0  0  0  0  0  0  0  0  0  0  0
  145.1940   74.6550  220.4870 C   0  0  0  0  0  0  0  0  0  0  0  0
  143.8800   74.8060  220.0940 C   0  0  0  0  0  0  0  0  0  0  0  0
  143.3380   76.0390  219.8980 N   0  0  0  0  0  0  0  0  0  0  0  0
  143.2750   78.5180  219.5980 H   0  0  0  0  0  0  0  0  0  0  0  0
  142.3565   80.6120  218.7360 H   0  0  0  0  0  0  0  0  0  0  0  0
  140.7829   79.7655  218.4542 H   0  0  0  0  0  0  0  0  0  0  0  0
  142.8864   81.8736  221.9590 H   0  0  0  0  0  0  0  0  0  0  0  0
  141.4069   81.9711  222.8875 H   0  0  0  0  0  0  0  0  0  0  0  0
  143.9153   80.3162  223.3969 H   0  0  0  0  0  0  0  0  0  0  0  0
  142.8727   81.0634  224.5949 H   0  0  0  0  0  0  0  0  0  0  0  0
  142.7305   78.4232  224.1271 H   0  0  0  0  0  0  0  0  0  0  0  0
  141.2326   79.3090  224.4112 H   0  0  0  0  0  0  0  0  0  0  0  0
  142.3467   78.3177  221.6922 H   0  0  0  0  0  0  0  0  0  0  0  0
  141.5300   76.2909  222.1527 H   0  0  0  0  0  0  0  0  0  0  0  0
  139.5028   74.8549  222.2929 H   0  0  0  0  0  0  0  0  0  0  0  0
  137.0653   78.3609  222.8130 H   0  0  0  0  0  0  0  0  0  0  0  0
  139.0773   79.8079  222.6754 H   0  0  0  0  0  0  0  0  0  0  0  0
  140.2526   75.1036  219.0162 H   0  0  0  0  0  0  0  0  0  0  0  0
  141.2072   72.8449  219.3673 H   0  0  0  0  0  0  0  0  0  0  0  0
  143.0446   71.4939  219.9497 H   0  0  0  0  0  0  0  0  0  0  0  0
  145.4419   71.2677  220.6652 H   0  0  0  0  0  0  0  0  0  0  0  0
  146.8251   73.3349  221.0062 H   0  0  0  0  0  0  0  0  0  0  0  0
  145.8060   75.5559  220.6412 H   0  0  0  0  0  0  0  0  0  0  0  0
  1  2  2  0
  2  3  1  0
  3  4  1  0
  4  5  1  0
  5  6  2  0
  5  7  1  0
  7  8  1  0
  8  9  1  0
  9 10  1  0
 10 11  1  0
 11 12  1  0
 12 13  2  0
 13 14  1  0
 14 15  2  0
 15 16  1  0
 15 17  1  0
 17 18  2  0
  2 19  1  0
 19 20  2  0
 20 21  1  0
 21 22  2  0
 22 23  1  0
 23 24  2  0
 24 25  1  0
 25 26  2  0
 26 27  1  0
 27 28  2  0
 11  7  1  0
 18 12  1  0
 28 19  1  0
 27 22  1  0
  3 29  1  0
  4 30  1  0
  4 31  1  0
  8 32  1  0
  8 33  1  0
  9 34  1  0
  9 35  1  0
 10 36  1  0
 10 37  1  0
 11 38  1  6
 13 39  1  0
 14 40  1  0
 17 41  1  0
 18 42  1  0
 20 43  1  0
 21 44  1  0
 23 45  1  0
 24 46  1  0
 25 47  1  0
 26 48  1  0
M  END
>  <meeko>  (5) 
{"free_energy": -7.1, "intermolecular_energy": -8.6, "internal_energy": -2.56, "cluster_size": 1, "cluster_id": 5, "rank_in_cluster": 1}

$$$$

     RDKit          3D

 48 51  0  0  0  0  0  0  0  0999 V2000
  138.4540   70.6060  221.7030 O   0  0  0  0  0  0  0  0  0  0  0  0
  138.9680   71.2010  222.6890 C   0  0  0  0  0  0  0  0  0  0  0  0
  139.2550   72.6060  222.6690 N   0  0  0  0  0  0  0  0  0  0  0  0
  138.9230   73.3170  221.4470 C   0  0  0  0  0  0  0  0  0  0  0  0
  139.8440   74.4330  221.2190 C   0  0  0  0  0  0  0  0  0  0  0  0
  140.3030   75.1020  222.2060 O   0  0  0  0  0  0  0  0  0  0  0  0
  140.2950   74.8600  219.9350 N   0  0  0  0  0  0  0  0  0  0  0  0
  139.7090   76.0450  219.2930 C   0  0  0  0  0  0  0  0  0  0  0  0
  140.2470   75.9590  217.8770 C   0  0  0  0  0  0  0  0  0  0  0  0
  141.5340   75.2200  218.0330 C   0  0  0  0  0  0  0  0  0  0  0  0
  141.2880   74.2510  219.1650 C   0  0  1  0  0  0  0  0  0  0  0  0
  142.5920   74.0070  219.7860 C   0  0  0  0  0  0  0  0  0  0  0  0
  143.4820   75.0840  219.8850 C   0  0  0  0  0  0  0  0  0  0  0  0
  144.7360   74.9240  220.4630 C   0  0  0  0  0  0  0  0  0  0  0  0
  145.1060   73.6840  220.9430 C   0  0  0  0  0  0  0  0  0  0  0  0
  146.6720   73.3890  221.6880 Cl  0  0  0  0  0  0  0  0  0  0  0  0
  144.2420   72.6070  220.8530 C   0  0  0  0  0  0  0  0  0  0  0  0
  142.9900   72.7610  220.2790 C   0  0  0  0  0  0  0  0  0  0  0  0
  139.2910   70.4590  223.9060 C   0  0  0  0  0  0  0  0  0  0  0  0
  138.9920   69.1150  223.9940 C   0  0  0  0  0  0  0  0  0  0  0  0
  139.2690   68.3520  225.1120 C   0  0  0  0  0  0  0  0  0  0  0  0
  139.8720   68.9830  226.1760 C   0  0  0  0  0  0  0  0  0  0  0  0
  140.1530   68.2250  227.3000 C   0  0  0  0  0  0  0  0  0  0  0  0
  140.7670   68.8400  228.3970 C   0  0  0  0  0  0  0  0  0  0  0  0
  141.0830   70.2010  228.3350 C   0  0  0  0  0  0  0  0  0  0  0  0
  140.7790   70.9120  227.1850 C   0  0  0  0  0  0  0  0  0  0  0  0
  140.1750   70.3300  226.0900 C   0  0  0  0  0  0  0  0  0  0  0  0
  139.8880   71.0550  224.9730 N   0  0  0  0  0  0  0  0  0  0  0  0
  139.6800   73.0600  223.5060 H   0  0  0  0  0  0  0  0  0  0  0  0
  138.9855   72.6205  220.5979 H   0  0  0  0  0  0  0  0  0  0  0  0
  137.9038   73.7194  221.5430 H   0  0  0  0  0  0  0  0  0  0  0  0
  138.6100   75.9987  219.3031 H   0  0  0  0  0  0  0  0  0  0  0  0
  139.9647   76.9870  219.8002 H   0  0  0  0  0  0  0  0  0  0  0  0
  139.5533   75.4061  217.2265 H   0  0  0  0  0  0  0  0  0  0  0  0
  140.3757   76.9460  217.4088 H   0  0  0  0  0  0  0  0  0  0  0  0
  141.7852   74.6798  217.1083 H   0  0  0  0  0  0  0  0  0  0  0  0
  142.3777   75.8948  218.2401 H   0  0  0  0  0  0  0  0  0  0  0  0
  140.9115   73.2478  218.9163 H   0  0  0  0  0  0  0  0  0  0  0  0
  143.1844   76.0705  219.4999 H   0  0  0  0  0  0  0  0  0  0  0  0
  145.4265   75.7771  220.5371 H   0  0  0  0  0  0  0  0  0  0  0  0
  144.5503   71.6241  221.2388 H   0  0  0  0  0  0  0  0  0  0  0  0
  142.3079   71.9007  220.2112 H   0  0  0  0  0  0  0  0  0  0  0  0
  138.5103   68.6279  223.1334 H   0  0  0  0  0  0  0  0  0  0  0  0
  139.0174   67.2818  225.1502 H   0  0  0  0  0  0  0  0  0  0  0  0
  139.8975   67.1555  227.3303 H   0  0  0  0  0  0  0  0  0  0  0  0
  140.9992   68.2576  229.3008 H   0  0  0  0  0  0  0  0  0  0  0  0
  141.5663   70.7004  229.1876 H   0  0  0  0  0  0  0  0  0  0  0  0
  141.0292   71.9824  227.1438 H   0  0  0  0  0  0  0  0  0  0  0  0
  1  2  2  0
  2  3  1  0
  3  4  1  0
  4  5  1  0
  5  6  2  0
  5  7  1  0
  7  8  1  0
  8  9  1  0
  9 10  1  0
 10 11  1  0
 11 12  1  0
 12 13  2  0
 13 14  1  0
 14 15  2  0
 15 16  1  0
 15 17  1  0
 17 18  2  0
  2 19  1  0
 19 20  2  0
 20 21  1  0
 21 22  2  0
 22 23  1  0
 23 24  2  0
 24 25  1  0
 25 26  2  0
 26 27  1  0
 27 28  2  0
 11  7  1  0
 18 12  1  0
 28 19  1  0
 27 22  1  0
  3 29  1  0
  4 30  1  0
  4 31  1  0
  8 32  1  0
  8 33  1  0
  9 34  1  0
  9 35  1  0
 10 36  1  0
 10 37  1  0
 11 38  1  6
 13 39  1  0
 14 40  1  0
 17 41  1  0
 18 42  1  0
 20 43  1  0
 21 44  1  0
 23 45  1  0
 24 46  1  0
 25 47  1  0
 26 48  1  0
M  END
>  <meeko>  (6) 
{"free_energy": -8.16, "intermolecular_energy": -9.65, "internal_energy": -1.89, "cluster_size": 9, "cluster_id": 2, "rank_in_cluster": 9}

$$$$

     RDKit          3D

 48 51  0  0  0  0  0  0  0  0999 V2000
  141.0020   71.6200  221.3830 O   0  0  0  0  0  0  0  0  0  0  0  0
  140.4440   72.1660  222.3740 C   0  0  0  0  0  0  0  0  0  0  0  0
  139.9780   73.5210  222.3370 N   0  0  0  0  0  0  0  0  0  0  0  0
  140.1800   74.2430  221.0940 C   0  0  0  0  0  0  0  0  0  0  0  0
  140.3650   75.6750  221.3380 C   0  0  0  0  0  0  0  0  0  0  0  0
  139.8450   76.2260  222.3670 O   0  0  0  0  0  0  0  0  0  0  0  0
  141.1070   76.5510  220.4920 N   0  0  0  0  0  0  0  0  0  0  0  0
  141.2310   77.9790  220.8180 C   0  0  0  0  0  0  0  0  0  0  0  0
  141.8190   78.5630  219.5470 C   0  0  0  0  0  0  0  0  0  0  0  0
  142.5740   77.4220  218.9510 C   0  0  0  0  0  0  0  0  0  0  0  0
  141.7710   76.1950  219.3150 C   0  0  1  0  0  0  0  0  0  0  0  0
  142.7240   75.0830  219.3690 C   0  0  0  0  0  0  0  0  0  0  0  0
  142.4160   73.9220  218.6490 C   0  0  0  0  0  0  0  0  0  0  0  0
  143.2750   72.8290  218.6550 C   0  0  0  0  0  0  0  0  0  0  0  0
  144.4460   72.8940  219.3820 C   0  0  0  0  0  0  0  0  0  0  0  0
  145.5910   71.5590  219.4480 Cl  0  0  0  0  0  0  0  0  0  0  0  0
  144.7670   74.0320  220.1000 C   0  0  0  0  0  0  0  0  0  0  0  0
  143.9150   75.1240  220.0970 C   0  0  0  0  0  0  0  0  0  0  0  0
  140.2540   71.4150  223.6130 C   0  0  0  0  0  0  0  0  0  0  0  0
  139.6160   70.1920  223.5880 C   0  0  0  0  0  0  0  0  0  0  0  0
  139.4020   69.4280  224.7200 C   0  0  0  0  0  0  0  0  0  0  0  0
  139.8560   69.9310  225.9170 C   0  0  0  0  0  0  0  0  0  0  0  0
  139.6460   69.1720  227.0560 C   0  0  0  0  0  0  0  0  0  0  0  0
  140.0970   69.6580  228.2880 C   0  0  0  0  0  0  0  0  0  0  0  0
  140.7470   70.8940  228.3440 C   0  0  0  0  0  0  0  0  0  0  0  0
  140.9310   71.6130  227.1740 C   0  0  0  0  0  0  0  0  0  0  0  0
  140.4970   71.1570  225.9460 C   0  0  0  0  0  0  0  0  0  0  0  0
  140.6920   71.8850  224.8130 N   0  0  0  0  0  0  0  0  0  0  0  0
  139.5220   73.9360  223.1800 H   0  0  0  0  0  0  0  0  0  0  0  0
  141.0736   73.8465  220.5897 H   0  0  0  0  0  0  0  0  0  0  0  0
  139.2881   74.1091  220.4643 H   0  0  0  0  0  0  0  0  0  0  0  0
  140.2488   78.4216  221.0402 H   0  0  0  0  0  0  0  0  0  0  0  0
  141.8448   78.1707  221.7104 H   0  0  0  0  0  0  0  0  0  0  0  0
  141.0241   78.9050  218.8679 H   0  0  0  0  0  0  0  0  0  0  0  0
  142.4526   79.4423  219.7348 H   0  0  0  0  0  0  0  0  0  0  0  0
  142.6416   77.5307  217.8585 H   0  0  0  0  0  0  0  0  0  0  0  0
  143.6072   77.3677  219.3246 H   0  0  0  0  0  0  0  0  0  0  0  0
  140.9943   75.8564  218.6135 H   0  0  0  0  0  0  0  0  0  0  0  0
  141.4815   73.8743  218.0707 H   0  0  0  0  0  0  0  0  0  0  0  0
  143.0238   71.9217  218.0861 H   0  0  0  0  0  0  0  0  0  0  0  0
  145.7033   74.0698  220.6761 H   0  0  0  0  0  0  0  0  0  0  0  0
  144.1772   76.0259  220.6696 H   0  0  0  0  0  0  0  0  0  0  0  0
  139.2606   69.8064  222.6210 H   0  0  0  0  0  0  0  0  0  0  0  0
  138.8890   68.4564  224.6657 H   0  0  0  0  0  0  0  0  0  0  0  0
  139.1322   68.2014  226.9931 H   0  0  0  0  0  0  0  0  0  0  0  0
  139.9412   69.0717  229.2056 H   0  0  0  0  0  0  0  0  0  0  0  0
  141.1078   71.2908  229.3044 H   0  0  0  0  0  0  0  0  0  0  0  0
  141.4430   72.5852  227.2260 H   0  0  0  0  0  0  0  0  0  0  0  0
  1  2  2  0
  2  3  1  0
  3  4  1  0
  4  5  1  0
  5  6  2  0
  5  7  1  0
  7  8  1  0
  8  9  1  0
  9 10  1  0
 10 11  1  0
 11 12  1  0
 12 13  2  0
 13 14  1  0
 14 15  2  0
 15 16  1  0
 15 17  1  0
 17 18  2  0
  2 19  1  0
 19 20  2  0
 20 21  1  0
 21 22  2  0
 22 23  1  0
 23 24  2  0
 24 25  1  0
 25 26  2  0
 26 27  1  0
 27 28  2  0
 11  7  1  0
 18 12  1  0
 28 19  1  0
 27 22  1  0
  3 29  1  0
  4 30  1  0
  4 31  1  0
  8 32  1  0
  8 33  1  0
  9 34  1  0
  9 35  1  0
 10 36  1  0
 10 37  1  0
 11 38  1  6
 13 39  1  0
 14 40  1  0
 17 41  1  0
 18 42  1  0
 20 43  1  0
 21 44  1  0
 23 45  1  0
 24 46  1  0
 25 47  1  0
 26 48  1  0
M  END
>  <meeko>  (7) 
{"free_energy": -8.32, "intermolecular_energy": -9.81, "internal_energy": -1.84, "cluster_size": 9, "cluster_id": 2, "rank_in_cluster": 5}

$$$$

     RDKit          3D

 48 51  0  0  0  0  0  0  0  0999 V2000
  139.4510   70.6330  221.2760 O   0  0  0  0  0  0  0  0  0  0  0  0
  139.1820   71.3450  222.2820 C   0  0  0  0  0  0  0  0  0  0  0  0
  138.5290   72.6160  222.1670 N   0  0  0  0  0  0  0  0  0  0  0  0
  138.1880   73.0500  220.8240 C   0  0  0  0  0  0  0  0  0  0  0  0
  139.1900   73.9790  220.2990 C   0  0  0  0  0  0  0  0  0  0  0  0
  139.6780   73.8090  219.1310 O   0  0  0  0  0  0  0  0  0  0  0  0
  139.6940   75.1100  221.0080 N   0  0  0  0  0  0  0  0  0  0  0  0
  138.9820   75.6370  222.1800 C   0  0  0  0  0  0  0  0  0  0  0  0
  139.6750   76.9640  222.4250 C   0  0  0  0  0  0  0  0  0  0  0  0
  141.0480   76.7500  221.8800 C   0  0  0  0  0  0  0  0  0  0  0  0
  140.8560   75.8240  220.7020 C   0  0  1  0  0  0  0  0  0  0  0  0
  142.1080   75.0770  220.5600 C   0  0  0  0  0  0  0  0  0  0  0  0
  142.1160   73.7310  220.9470 C   0  0  0  0  0  0  0  0  0  0  0  0
  143.2700   72.9630  220.8400 C   0  0  0  0  0  0  0  0  0  0  0  0
  144.4220   73.5400  220.3450 C   0  0  0  0  0  0  0  0  0  0  0  0
  145.9270   72.6450  220.1740 Cl  0  0  0  0  0  0  0  0  0  0  0  0
  144.4350   74.8690  219.9580 C   0  0  0  0  0  0  0  0  0  0  0  0
  143.2870   75.6380  220.0630 C   0  0  0  0  0  0  0  0  0  0  0  0
  139.5380   70.8820  223.6220 C   0  0  0  0  0  0  0  0  0  0  0  0
  139.2850   69.5760  223.9910 C   0  0  0  0  0  0  0  0  0  0  0  0
  139.5940   69.0710  225.2400 C   0  0  0  0  0  0  0  0  0  0  0  0
  140.1810   69.9290  226.1420 C   0  0  0  0  0  0  0  0  0  0  0  0
  140.4940   69.4310  227.3950 C   0  0  0  0  0  0  0  0  0  0  0  0
  141.0910   70.2790  228.3330 C   0  0  0  0  0  0  0  0  0  0  0  0
  141.3590   71.6070  227.9870 C   0  0  0  0  0  0  0  0  0  0  0  0
  141.0250   72.0540  226.7190 C   0  0  0  0  0  0  0  0  0  0  0  0
  140.4360   71.2380  225.7750 C   0  0  0  0  0  0  0  0  0  0  0  0
  140.1190   71.7050  224.5360 N   0  0  0  0  0  0  0  0  0  0  0  0
  138.3240   73.1730  223.0250 H   0  0  0  0  0  0  0  0  0  0  0  0
  138.1337   72.1706  220.1654 H   0  0  0  0  0  0  0  0  0  0  0  0
  137.2178   73.5671  220.8602 H   0  0  0  0  0  0  0  0  0  0  0  0
  137.9135   75.7821  221.9624 H   0  0  0  0  0  0  0  0  0  0  0  0
  139.0130   74.9624  223.0483 H   0  0  0  0  0  0  0  0  0  0  0  0
  139.1634   77.7785  221.8913 H   0  0  0  0  0  0  0  0  0  0  0  0
  139.6772   77.2551  223.4858 H   0  0  0  0  0  0  0  0  0  0  0  0
  141.4889   77.7040  221.5551 H   0  0  0  0  0  0  0  0  0  0  0  0
  141.7320   76.3291  222.6317 H   0  0  0  0  0  0  0  0  0  0  0  0
  140.6907   76.2721  219.7111 H   0  0  0  0  0  0  0  0  0  0  0  0
  141.1960   73.2749  221.3413 H   0  0  0  0  0  0  0  0  0  0  0  0
  143.2650   71.9066  221.1466 H   0  0  0  0  0  0  0  0  0  0  0  0
  145.3601   75.3164  219.5656 H   0  0  0  0  0  0  0  0  0  0  0  0
  143.3041   76.6936  219.7540 H   0  0  0  0  0  0  0  0  0  0  0  0
  138.8153   68.9055  223.2563 H   0  0  0  0  0  0  0  0  0  0  0  0
  139.3792   68.0247  225.5027 H   0  0  0  0  0  0  0  0  0  0  0  0
  140.2762   68.3832  227.6492 H   0  0  0  0  0  0  0  0  0  0  0  0
  141.3477   69.9044  229.3349 H   0  0  0  0  0  0  0  0  0  0  0  0
  141.8288   72.2878  228.7121 H   0  0  0  0  0  0  0  0  0  0  0  0
  141.2376   73.1003  226.4544 H   0  0  0  0  0  0  0  0  0  0  0  0
  1  2  2  0
  2  3  1  0
  3  4  1  0
  4  5  1  0
  5  6  2  0
  5  7  1  0
  7  8  1  0
  8  9  1  0
  9 10  1  0
 10 11  1  0
 11 12  1  0
 12 13  2  0
 13 14  1  0
 14 15  2  0
 15 16  1  0
 15 17  1  0
 17 18  2  0
  2 19  1  0
 19 20  2  0
 20 21  1  0
 21 22  2  0
 22 23  1  0
 23 24  2  0
 24 25  1  0
 25 26  2  0
 26 27  1  0
 27 28  2  0
 11  7  1  0
 18 12  1  0
 28 19  1  0
 27 22  1  0
  3 29  1  0
  4 30  1  0
  4 31  1  0
  8 32  1  0
  8 33  1  0
  9 34  1  0
  9 35  1  0
 10 36  1  0
 10 37  1  0
 11 38  1  6
 13 39  1  0
 14 40  1  0
 17 41  1  0
 18 42  1  0
 20 43  1  0
 21 44  1  0
 23 45  1  0
 24 46  1  0
 25 47  1  0
 26 48  1  0
M  END
>  <meeko>  (8) 
{"free_energy": -8.18, "intermolecular_energy": -9.68, "internal_energy": -1.64, "cluster_size": 9, "cluster_id": 2, "rank_in_cluster": 8}

$$$$

     RDKit          3D

 48 51  0  0  0  0  0  0  0  0999 V2000
  138.9450   70.7340  221.5640 O   0  0  0  0  0  0  0  0  0  0  0  0
  139.3120   71.2670  222.6460 C   0  0  0  0  0  0  0  0  0  0  0  0
  139.5620   72.6750  222.7580 N   0  0  0  0  0  0  0  0  0  0  0  0
  139.3720   73.4640  221.5550 C   0  0  0  0  0  0  0  0  0  0  0  0
  139.5380   74.8930  221.8290 C   0  0  0  0  0  0  0  0  0  0  0  0
  140.7020   75.3790  222.0370 O   0  0  0  0  0  0  0  0  0  0  0  0
  138.4690   75.8360  221.8890 N   0  0  0  0  0  0  0  0  0  0  0  0
  137.1420   75.4310  222.3740 C   0  0  0  0  0  0  0  0  0  0  0  0
  136.2720   76.6160  221.9980 C   0  0  0  0  0  0  0  0  0  0  0  0
  137.2240   77.7650  221.9940 C   0  0  0  0  0  0  0  0  0  0  0  0
  138.5330   77.1800  221.5170 C   0  0  1  0  0  0  0  0  0  0  0  0
  139.5900   78.0090  222.1040 C   0  0  0  0  0  0  0  0  0  0  0  0
  140.7840   78.1540  221.3870 C   0  0  0  0  0  0  0  0  0  0  0  0
  141.8280   78.9250  221.8830 C   0  0  0  0  0  0  0  0  0  0  0  0
  141.6800   79.5560  223.1010 C   0  0  0  0  0  0  0  0  0  0  0  0
  142.9480   80.5520  223.8070 Cl  0  0  0  0  0  0  0  0  0  0  0  0
  140.5090   79.4270  223.8260 C   0  0  0  0  0  0  0  0  0  0  0  0
  139.4650   78.6590  223.3350 C   0  0  0  0  0  0  0  0  0  0  0  0
  139.4960   70.4470  223.8420 C   0  0  0  0  0  0  0  0  0  0  0  0
  139.0670   69.1360  223.8520 C   0  0  0  0  0  0  0  0  0  0  0  0
  139.2080   68.3030  224.9460 C   0  0  0  0  0  0  0  0  0  0  0  0
  139.8080   68.8280  226.0670 C   0  0  0  0  0  0  0  0  0  0  0  0
  139.9540   68.0010  227.1670 C   0  0  0  0  0  0  0  0  0  0  0  0
  140.5610   68.5070  228.3220 C   0  0  0  0  0  0  0  0  0  0  0  0
  141.0060   69.8320  228.3400 C   0  0  0  0  0  0  0  0  0  0  0  0
  140.8350   70.6160  227.2110 C   0  0  0  0  0  0  0  0  0  0  0  0
  140.2410   70.1420  226.0600 C   0  0  0  0  0  0  0  0  0  0  0  0
  140.0860   70.9370  224.9660 N   0  0  0  0  0  0  0  0  0  0  0  0
  139.8650   73.0760  223.6730 H   0  0  0  0  0  0  0  0  0  0  0  0
  140.1117   73.1544  220.8020 H   0  0  0  0  0  0  0  0  0  0  0  0
  138.3497   73.2960  221.1853 H   0  0  0  0  0  0  0  0  0  0  0  0
  136.7999   74.5133  221.8731 H   0  0  0  0  0  0  0  0  0  0  0  0
  137.1227   75.1997  223.4492 H   0  0  0  0  0  0  0  0  0  0  0  0
  135.8240   76.4741  221.0034 H   0  0  0  0  0  0  0  0  0  0  0  0
  135.4289   76.7627  222.6891 H   0  0  0  0  0  0  0  0  0  0  0  0
  136.8784   78.5522  221.3078 H   0  0  0  0  0  0  0  0  0  0  0  0
  137.3149   78.2324  222.9856 H   0  0  0  0  0  0  0  0  0  0  0  0
  138.7430   77.1911  220.4373 H   0  0  0  0  0  0  0  0  0  0  0  0
  140.8972   77.6497  220.4160 H   0  0  0  0  0  0  0  0  0  0  0  0
  142.7617   79.0311  221.3112 H   0  0  0  0  0  0  0  0  0  0  0  0
  140.4061   79.9358  224.7958 H   0  0  0  0  0  0  0  0  0  0  0  0
  138.5358   78.5608  223.9155 H   0  0  0  0  0  0  0  0  0  0  0  0
  138.5898   68.7342  222.9460 H   0  0  0  0  0  0  0  0  0  0  0  0
  138.8545   67.2617  224.9212 H   0  0  0  0  0  0  0  0  0  0  0  0
  139.5980   66.9607  227.1340 H   0  0  0  0  0  0  0  0  0  0  0  0
  140.6869   67.8675  229.2081 H   0  0  0  0  0  0  0  0  0  0  0  0
  141.4856   70.2466  229.2389 H   0  0  0  0  0  0  0  0  0  0  0  0
  141.1869   71.6580  227.2332 H   0  0  0  0  0  0  0  0  0  0  0  0
  1  2  2  0
  2  3  1  0
  3  4  1  0
  4  5  1  0
  5  6  2  0
  5  7  1  0
  7  8  1  0
  8  9  1  0
  9 10  1  0
 10 11  1  0
 11 12  1  0
 12 13  2  0
 13 14  1  0
 14 15  2  0
 15 16  1  0
 15 17  1  0
 17 18  2  0
  2 19  1  0
 19 20  2  0
 20 21  1  0
 21 22  2  0
 22 23  1  0
 23 24  2  0
 24 25  1  0
 25 26  2  0
 26 27  1  0
 27 28  2  0
 11  7  1  0
 18 12  1  0
 28 19  1  0
 27 22  1  0
  3 29  1  0
  4 30  1  0
  4 31  1  0
  8 32  1  0
  8 33  1  0
  9 34  1  0
  9 35  1  0
 10 36  1  0
 10 37  1  0
 11 38  1  6
 13 39  1  0
 14 40  1  0
 17 41  1  0
 18 42  1  0
 20 43  1  0
 21 44  1  0
 23 45  1  0
 24 46  1  0
 25 47  1  0
 26 48  1  0
M  END
>  <meeko>  (9) 
{"free_energy": -8.81, "intermolecular_energy": -10.3, "internal_energy": -1.43, "cluster_size": 7, "cluster_id": 1, "rank_in_cluster": 4}

$$$$

     RDKit          3D

 48 51  0  0  0  0  0  0  0  0999 V2000
  141.0770   72.7000  222.3750 O   0  0  0  0  0  0  0  0  0  0  0  0
  139.9960   72.3180  222.8990 C   0  0  0  0  0  0  0  0  0  0  0  0
  138.7260   72.8600  222.5130 N   0  0  0  0  0  0  0  0  0  0  0  0
  138.7440   73.8810  221.4800 C   0  0  0  0  0  0  0  0  0  0  0  0
  139.1010   75.1880  222.0350 C   0  0  0  0  0  0  0  0  0  0  0  0
  140.3150   75.4530  222.3310 O   0  0  0  0  0  0  0  0  0  0  0  0
  138.1720   76.2400  222.2880 N   0  0  0  0  0  0  0  0  0  0  0  0
  136.9240   75.9770  223.0170 C   0  0  0  0  0  0  0  0  0  0  0  0
  136.1340   77.2550  222.8020 C   0  0  0  0  0  0  0  0  0  0  0  0
  137.1890   78.2930  222.6110 C   0  0  0  0  0  0  0  0  0  0  0  0
  138.3130   77.5750  221.9010 C   0  0  1  0  0  0  0  0  0  0  0  0
  139.5450   78.2760  222.2720 C   0  0  0  0  0  0  0  0  0  0  0  0
  139.5370   79.0380  223.4470 C   0  0  0  0  0  0  0  0  0  0  0  0
  140.6710   79.7290  223.8590 C   0  0  0  0  0  0  0  0  0  0  0  0
  141.8180   79.6600  223.0950 C   0  0  0  0  0  0  0  0  0  0  0  0
  143.2980   80.5010  223.5390 Cl  0  0  0  0  0  0  0  0  0  0  0  0
  141.8460   78.9130  221.9310 C   0  0  0  0  0  0  0  0  0  0  0  0
  140.7190   78.2220  221.5160 C   0  0  0  0  0  0  0  0  0  0  0  0
  140.0090   71.2890  223.9370 C   0  0  0  0  0  0  0  0  0  0  0  0
  139.4670   70.0450  223.6820 C   0  0  0  0  0  0  0  0  0  0  0  0
  139.4440   69.0260  224.6150 C   0  0  0  0  0  0  0  0  0  0  0  0
  139.9930   69.2860  225.8490 C   0  0  0  0  0  0  0  0  0  0  0  0
  139.9750   68.2710  226.7900 C   0  0  0  0  0  0  0  0  0  0  0  0
  140.5270   68.5060  228.0540 C   0  0  0  0  0  0  0  0  0  0  0  0
  141.0830   69.7560  228.3400 C   0  0  0  0  0  0  0  0  0  0  0  0
  141.0750   70.7370  227.3620 C   0  0  0  0  0  0  0  0  0  0  0  0
  140.5380   70.5320  226.1070 C   0  0  0  0  0  0  0  0  0  0  0  0
  140.5440   71.5150  225.1660 N   0  0  0  0  0  0  0  0  0  0  0  0
  137.8540   72.5160  222.9720 H   0  0  0  0  0  0  0  0  0  0  0  0
  139.4820   73.6029  220.7132 H   0  0  0  0  0  0  0  0  0  0  0  0
  137.7376   73.9513  221.0415 H   0  0  0  0  0  0  0  0  0  0  0  0
  136.3951   75.1087  222.5970 H   0  0  0  0  0  0  0  0  0  0  0  0
  137.0820   75.7358  224.0785 H   0  0  0  0  0  0  0  0  0  0  0  0
  135.4949   77.1761  221.9102 H   0  0  0  0  0  0  0  0  0  0  0  0
  135.4563   77.4837  223.6377 H   0  0  0  0  0  0  0  0  0  0  0  0
  136.8096   79.1225  221.9962 H   0  0  0  0  0  0  0  0  0  0  0  0
  137.5149   78.7341  223.5645 H   0  0  0  0  0  0  0  0  0  0  0  0
  138.3174   77.5771  220.8010 H   0  0  0  0  0  0  0  0  0  0  0  0
  138.6203   79.0906  224.0527 H   0  0  0  0  0  0  0  0  0  0  0  0
  140.6540   80.3242  224.7839 H   0  0  0  0  0  0  0  0  0  0  0  0
  142.7675   78.8674  221.3320 H   0  0  0  0  0  0  0  0  0  0  0  0
  140.7485   77.6297  220.5896 H   0  0  0  0  0  0  0  0  0  0  0  0
  139.0329   69.8561  222.6891 H   0  0  0  0  0  0  0  0  0  0  0  0
  139.0040   68.0456  224.3801 H   0  0  0  0  0  0  0  0  0  0  0  0
  139.5329   67.2934  226.5474 H   0  0  0  0  0  0  0  0  0  0  0  0
  140.5234   67.7133  228.8166 H   0  0  0  0  0  0  0  0  0  0  0  0
  141.5211   69.9581  229.3285 H   0  0  0  0  0  0  0  0  0  0  0  0
  141.5140   71.7184  227.5947 H   0  0  0  0  0  0  0  0  0  0  0  0
  1  2  2  0
  2  3  1  0
  3  4  1  0
  4  5  1  0
  5  6  2  0
  5  7  1  0
  7  8  1  0
  8  9  1  0
  9 10  1  0
 10 11  1  0
 11 12  1  0
 12 13  2  0
 13 14  1  0
 14 15  2  0
 15 16  1  0
 15 17  1  0
 17 18  2  0
  2 19  1  0
 19 20  2  0
 20 21  1  0
 21 22  2  0
 22 23  1  0
 23 24  2  0
 24 25  1  0
 25 26  2  0
 26 27  1  0
 27 28  2  0
 11  7  1  0
 18 12  1  0
 28 19  1  0
 27 22  1  0
  3 29  1  0
  4 30  1  0
  4 31  1  0
  8 32  1  0
  8 33  1  0
  9 34  1  0
  9 35  1  0
 10 36  1  0
 10 37  1  0
 11 38  1  6
 13 39  1  0
 14 40  1  0
 17 41  1  0
 18 42  1  0
 20 43  1  0
 21 44  1  0
 23 45  1  0
 24 46  1  0
 25 47  1  0
 26 48  1  0
M  END
>  <meeko>  (10) 
{"free_energy": -9.18, "intermolecular_energy": -10.67, "internal_energy": -1.2, "cluster_size": 7, "cluster_id": 1, "rank_in_cluster": 2}

$$$$

     RDKit          3D

 48 51  0  0  0  0  0  0  0  0999 V2000
  140.6120   71.0320  221.3870 O   0  0  0  0  0  0  0  0  0  0  0  0
  140.2730   71.5910  222.4650 C   0  0  0  0  0  0  0  0  0  0  0  0
  140.0180   73.0000  222.5490 N   0  0  0  0  0  0  0  0  0  0  0  0
  140.1700   73.7600  221.3210 C   0  0  0  0  0  0  0  0  0  0  0  0
  140.2000   75.1990  221.5910 C   0  0  0  0  0  0  0  0  0  0  0  0
  139.6150   75.6730  222.6230 O   0  0  0  0  0  0  0  0  0  0  0  0
  140.8510   76.1640  220.7660 N   0  0  0  0  0  0  0  0  0  0  0  0
  140.9490   75.9620  219.3130 C   0  0  0  0  0  0  0  0  0  0  0  0
  141.9390   77.0320  218.8930 C   0  0  0  0  0  0  0  0  0  0  0  0
  141.7680   78.0960  219.9250 C   0  0  0  0  0  0  0  0  0  0  0  0
  141.4470   77.3500  221.1990 C   0  0  1  0  0  0  0  0  0  0  0  0
  140.6490   78.2660  222.0180 C   0  0  0  0  0  0  0  0  0  0  0  0
  139.3010   78.4430  221.6800 C   0  0  0  0  0  0  0  0  0  0  0  0
  138.4860   79.2960  222.4140 C   0  0  0  0  0  0  0  0  0  0  0  0
  139.0160   79.9770  223.4900 C   0  0  0  0  0  0  0  0  0  0  0  0
  138.0590   81.0770  224.4750 Cl  0  0  0  0  0  0  0  0  0  0  0  0
  140.3450   79.8160  223.8410 C   0  0  0  0  0  0  0  0  0  0  0  0
  141.1620   78.9670  223.1130 C   0  0  0  0  0  0  0  0  0  0  0  0
  140.1280   70.8010  223.6860 C   0  0  0  0  0  0  0  0  0  0  0  0
  139.4160   69.6190  223.6620 C   0  0  0  0  0  0  0  0  0  0  0  0
  139.2380   68.8220  224.7770 C   0  0  0  0  0  0  0  0  0  0  0  0
  139.8080   69.2470  225.9560 C   0  0  0  0  0  0  0  0  0  0  0  0
  139.6350   68.4540  227.0770 C   0  0  0  0  0  0  0  0  0  0  0  0
  140.2020   68.8600  228.2900 C   0  0  0  0  0  0  0  0  0  0  0  0
  140.9300   70.0530  228.3430 C   0  0  0  0  0  0  0  0  0  0  0  0
  141.0720   70.8080  227.1910 C   0  0  0  0  0  0  0  0  0  0  0  0
  140.5230   70.4310  225.9820 C   0  0  0  0  0  0  0  0  0  0  0  0
  140.6790   71.1940  224.8660 N   0  0  0  0  0  0  0  0  0  0  0  0
  139.7400   73.4230  223.4610 H   0  0  0  0  0  0  0  0  0  0  0  0
  141.1103   73.4668  220.8313 H   0  0  0  0  0  0  0  0  0  0  0  0
  139.3106   73.5451  220.6689 H   0  0  0  0  0  0  0  0  0  0  0  0
  141.3279   74.9566  219.0771 H   0  0  0  0  0  0  0  0  0  0  0  0
  139.9809   76.0362  218.7959 H   0  0  0  0  0  0  0  0  0  0  0  0
  142.9668   76.6401  218.9001 H   0  0  0  0  0  0  0  0  0  0  0  0
  141.7637   77.3975  217.8704 H   0  0  0  0  0  0  0  0  0  0  0  0
  142.6948   78.6774  220.0394 H   0  0  0  0  0  0  0  0  0  0  0  0
  140.9798   78.8140  219.6544 H   0  0  0  0  0  0  0  0  0  0  0  0
  142.2811   77.0539  221.8521 H   0  0  0  0  0  0  0  0  0  0  0  0
  138.8817   77.8987  220.8210 H   0  0  0  0  0  0  0  0  0  0  0  0
  137.4288   79.4269  222.1398 H   0  0  0  0  0  0  0  0  0  0  0  0
  140.7543   80.3648  224.7020 H   0  0  0  0  0  0  0  0  0  0  0  0
  142.2175   78.8441  223.3974 H   0  0  0  0  0  0  0  0  0  0  0  0
  138.9690   69.2959  222.7103 H   0  0  0  0  0  0  0  0  0  0  0  0
  138.6637   67.8853  224.7245 H   0  0  0  0  0  0  0  0  0  0  0  0
  139.0601   67.5182  227.0152 H   0  0  0  0  0  0  0  0  0  0  0  0
  140.0763   68.2462  229.1941 H   0  0  0  0  0  0  0  0  0  0  0  0
  141.3839   70.3872  229.2876 H   0  0  0  0  0  0  0  0  0  0  0  0
  141.6452   71.7455  227.2413 H   0  0  0  0  0  0  0  0  0  0  0  0
  1  2  2  0
  2  3  1  0
  3  4  1  0
  4  5  1  0
  5  6  2  0
  5  7  1  0
  7  8  1  0
  8  9  1  0
  9 10  1  0
 10 11  1  0
 11 12  1  0
 12 13  2  0
 13 14  1  0
 14 15  2  0
 15 16  1  0
 15 17  1  0
 17 18  2  0
  2 19  1  0
 19 20  2  0
 20 21  1  0
 21 22  2  0
 22 23  1  0
 23 24  2  0
 24 25  1  0
 25 26  2  0
 26 27  1  0
 27 28  2  0
 11  7  1  0
 18 12  1  0
 28 19  1  0
 27 22  1  0
  3 29  1  0
  4 30  1  0
  4 31  1  0
  8 32  1  0
  8 33  1  0
  9 34  1  0
  9 35  1  0
 10 36  1  0
 10 37  1  0
 11 38  1  1
 13 39  1  0
 14 40  1  0
 17 41  1  0
 18 42  1  0
 20 43  1  0
 21 44  1  0
 23 45  1  0
 24 46  1  0
 25 47  1  0
 26 48  1  0
M  END
>  <meeko>  (11) 
{"free_energy": -8.52, "intermolecular_energy": -10.01, "internal_energy": -1.57, "cluster_size": 7, "cluster_id": 1, "rank_in_cluster": 6}

$$$$

     RDKit          3D

 48 51  0  0  0  0  0  0  0  0999 V2000
  141.0890   71.7350  221.4050 O   0  0  0  0  0  0  0  0  0  0  0  0
  140.4500   72.2240  222.3760 C   0  0  0  0  0  0  0  0  0  0  0  0
  139.8920   73.5450  222.3370 N   0  0  0  0  0  0  0  0  0  0  0  0
  140.1000   74.3000  221.1140 C   0  0  0  0  0  0  0  0  0  0  0  0
  140.4260   75.6970  221.4060 C   0  0  0  0  0  0  0  0  0  0  0  0
  140.0660   76.2270  222.5110 O   0  0  0  0  0  0  0  0  0  0  0  0
  141.1430   76.5610  220.5260 N   0  0  0  0  0  0  0  0  0  0  0  0
  141.2770   77.9930  220.8290 C   0  0  0  0  0  0  0  0  0  0  0  0
  141.8270   78.5600  219.5330 C   0  0  0  0  0  0  0  0  0  0  0  0
  142.5620   77.4110  218.9300 C   0  0  0  0  0  0  0  0  0  0  0  0
  141.7700   76.1900  219.3340 C   0  0  1  0  0  0  0  0  0  0  0  0
  142.7230   75.0770  219.3730 C   0  0  0  0  0  0  0  0  0  0  0  0
  142.4150   73.9250  218.6400 C   0  0  0  0  0  0  0  0  0  0  0  0
  143.2730   72.8320  218.6320 C   0  0  0  0  0  0  0  0  0  0  0  0
  144.4450   72.8880  219.3580 C   0  0  0  0  0  0  0  0  0  0  0  0
  145.5900   71.5530  219.4060 Cl  0  0  0  0  0  0  0  0  0  0  0  0
  144.7680   74.0170  220.0890 C   0  0  0  0  0  0  0  0  0  0  0  0
  143.9150   75.1100  220.1010 C   0  0  0  0  0  0  0  0  0  0  0  0
  140.2560   71.4410  223.5950 C   0  0  0  0  0  0  0  0  0  0  0  0
  139.6290   70.2130  223.5330 C   0  0  0  0  0  0  0  0  0  0  0  0
  139.4120   69.4190  224.6440 C   0  0  0  0  0  0  0  0  0  0  0  0
  139.8510   69.8960  225.8580 C   0  0  0  0  0  0  0  0  0  0  0  0
  139.6380   69.1070  226.9750 C   0  0  0  0  0  0  0  0  0  0  0  0
  140.0740   69.5660  228.2230 C   0  0  0  0  0  0  0  0  0  0  0  0
  140.7130   70.8060  228.3150 C   0  0  0  0  0  0  0  0  0  0  0  0
  140.9000   71.5550  227.1650 C   0  0  0  0  0  0  0  0  0  0  0  0
  140.4810   71.1270  225.9220 C   0  0  0  0  0  0  0  0  0  0  0  0
  140.6790   71.8850  224.8090 N   0  0  0  0  0  0  0  0  0  0  0  0
  139.3700   73.9120  223.1620 H   0  0  0  0  0  0  0  0  0  0  0  0
  140.9289   73.8481  220.5494 H   0  0  0  0  0  0  0  0  0  0  0  0
  139.1714   74.2737  220.5250 H   0  0  0  0  0  0  0  0  0  0  0  0
  140.3020   78.4391  221.0746 H   0  0  0  0  0  0  0  0  0  0  0  0
  141.9173   78.1961  221.7000 H   0  0  0  0  0  0  0  0  0  0  0  0
  141.0123   78.8943  218.8738 H   0  0  0  0  0  0  0  0  0  0  0  0
  142.4668   79.4409  219.6900 H   0  0  0  0  0  0  0  0  0  0  0  0
  142.5965   77.5053  217.8346 H   0  0  0  0  0  0  0  0  0  0  0  0
  143.6059   77.3604  219.2731 H   0  0  0  0  0  0  0  0  0  0  0  0
  140.9720   75.8440  218.6606 H   0  0  0  0  0  0  0  0  0  0  0  0
  141.4801   73.8843  218.0618 H   0  0  0  0  0  0  0  0  0  0  0  0
  143.0205   71.9315  218.0529 H   0  0  0  0  0  0  0  0  0  0  0  0
  145.7057   74.0478  220.6633 H   0  0  0  0  0  0  0  0  0  0  0  0
  144.1772   76.0047  220.6847 H   0  0  0  0  0  0  0  0  0  0  0  0
  139.2857   69.8488  222.5535 H   0  0  0  0  0  0  0  0  0  0  0  0
  138.9084   68.4446  224.5608 H   0  0  0  0  0  0  0  0  0  0  0  0
  139.1336   68.1338  226.8832 H   0  0  0  0  0  0  0  0  0  0  0  0
  139.9152   68.9560  229.1245 H   0  0  0  0  0  0  0  0  0  0  0  0
  141.0627   71.1819  229.2879 H   0  0  0  0  0  0  0  0  0  0  0  0
  141.4027   72.5301  227.2459 H   0  0  0  0  0  0  0  0  0  0  0  0
  1  2  2  0
  2  3  1  0
  3  4  1  0
  4  5  1  0
  5  6  2  0
  5  7  1  0
  7  8  1  0
  8  9  1  0
  9 10  1  0
 10 11  1  0
 11 12  1  0
 12 13  2  0
 13 14  1  0
 14 15  2  0
 15 16  1  0
 15 17  1  0
 17 18  2  0
  2 19  1  0
 19 20  2  0
 20 21  1  0
 21 22  2  0
 22 23  1  0
 23 24  2  0
 24 25  1  0
 25 26  2  0
 26 27  1  0
 27 28  2  0
 11  7  1  0
 18 12  1  0
 28 19  1  0
 27 22  1  0
  3 29  1  0
  4 30  1  0
  4 31  1  0
  8 32  1  0
  8 33  1  0
  9 34  1  0
  9 35  1  0
 10 36  1  0
 10 37  1  0
 11 38  1  6
 13 39  1  0
 14 40  1  0
 17 41  1  0
 18 42  1  0
 20 43  1  0
 21 44  1  0
 23 45  1  0
 24 46  1  0
 25 47  1  0
 26 48  1  0
M  END
>  <meeko>  (12) 
{"free_energy": -8.35, "intermolecular_energy": -9.84, "internal_energy": -1.82, "cluster_size": 9, "cluster_id": 2, "rank_in_cluster": 4}

$$$$

     RDKit          3D

 48 51  0  0  0  0  0  0  0  0999 V2000
  138.8540   70.7240  221.6380 O   0  0  0  0  0  0  0  0  0  0  0  0
  139.2800   71.2500  222.7020 C   0  0  0  0  0  0  0  0  0  0  0  0
  139.5770   72.6490  222.7980 N   0  0  0  0  0  0  0  0  0  0  0  0
  139.3620   73.4410  221.6000 C   0  0  0  0  0  0  0  0  0  0  0  0
  139.5690   74.8660  221.8650 C   0  0  0  0  0  0  0  0  0  0  0  0
  140.7490   75.3260  222.0360 O   0  0  0  0  0  0  0  0  0  0  0  0
  138.5230   75.8320  221.9550 N   0  0  0  0  0  0  0  0  0  0  0  0
  137.2100   75.4650  222.5050 C   0  0  0  0  0  0  0  0  0  0  0  0
  136.3500   76.6620  222.1460 C   0  0  0  0  0  0  0  0  0  0  0  0
  137.3250   77.7890  222.0800 C   0  0  0  0  0  0  0  0  0  0  0  0
  138.5990   77.1690  221.5570 C   0  0  1  0  0  0  0  0  0  0  0  0
  139.6970   77.9850  222.0820 C   0  0  0  0  0  0  0  0  0  0  0  0
  139.4900   78.6640  223.2890 C   0  0  0  0  0  0  0  0  0  0  0  0
  140.4880   79.4560  223.8440 C   0  0  0  0  0  0  0  0  0  0  0  0
  141.6990   79.5720  223.1930 C   0  0  0  0  0  0  0  0  0  0  0  0
  143.0180   80.5510  223.8220 Cl  0  0  0  0  0  0  0  0  0  0  0  0
  141.9240   78.9090  222.0000 C   0  0  0  0  0  0  0  0  0  0  0  0
  140.9320   78.1180  221.4420 C   0  0  0  0  0  0  0  0  0  0  0  0
  139.4870   70.4270  223.8920 C   0  0  0  0  0  0  0  0  0  0  0  0
  139.0650   69.1140  223.9060 C   0  0  0  0  0  0  0  0  0  0  0  0
  139.2270   68.2790  224.9960 C   0  0  0  0  0  0  0  0  0  0  0  0
  139.8430   68.8050  226.1080 C   0  0  0  0  0  0  0  0  0  0  0  0
  140.0100   67.9760  227.2040 C   0  0  0  0  0  0  0  0  0  0  0  0
  140.6330   68.4820  228.3500 C   0  0  0  0  0  0  0  0  0  0  0  0
  141.0720   69.8100  228.3650 C   0  0  0  0  0  0  0  0  0  0  0  0
  140.8780   70.5960  227.2400 C   0  0  0  0  0  0  0  0  0  0  0  0
  140.2680   70.1210  226.0980 C   0  0  0  0  0  0  0  0  0  0  0  0
  140.0920   70.9180  225.0080 N   0  0  0  0  0  0  0  0  0  0  0  0
  139.9280   73.0440  223.6980 H   0  0  0  0  0  0  0  0  0  0  0  0
  140.0677   73.1142  220.8220 H   0  0  0  0  0  0  0  0  0  0  0  0
  138.3239   73.2952  221.2669 H   0  0  0  0  0  0  0  0  0  0  0  0
  136.8266   74.5466  222.0364 H   0  0  0  0  0  0  0  0  0  0  0  0
  137.2332   75.2529  223.5841 H   0  0  0  0  0  0  0  0  0  0  0  0
  135.8559   76.5131  221.1746 H   0  0  0  0  0  0  0  0  0  0  0  0
  135.5412   76.8391  222.8702 H   0  0  0  0  0  0  0  0  0  0  0  0
  136.9661   78.5719  221.3958 H   0  0  0  0  0  0  0  0  0  0  0  0
  137.4694   78.2701  223.0586 H   0  0  0  0  0  0  0  0  0  0  0  0
  138.7624   77.1576  220.4693 H   0  0  0  0  0  0  0  0  0  0  0  0
  138.5234   78.5691  223.8054 H   0  0  0  0  0  0  0  0  0  0  0  0
  140.3143   79.9850  224.7926 H   0  0  0  0  0  0  0  0  0  0  0  0
  142.8944   79.0100  221.4919 H   0  0  0  0  0  0  0  0  0  0  0  0
  141.1174   77.5936  220.4930 H   0  0  0  0  0  0  0  0  0  0  0  0
  138.5759   68.7117  223.0066 H   0  0  0  0  0  0  0  0  0  0  0  0
  138.8775   67.2362  224.9749 H   0  0  0  0  0  0  0  0  0  0  0  0
  139.6579   66.9343  227.1743 H   0  0  0  0  0  0  0  0  0  0  0  0
  140.7764   67.8407  229.2321 H   0  0  0  0  0  0  0  0  0  0  0  0
  141.5643   70.2247  229.2570 H   0  0  0  0  0  0  0  0  0  0  0  0
  141.2243   71.6399  227.2588 H   0  0  0  0  0  0  0  0  0  0  0  0
  1  2  2  0
  2  3  1  0
  3  4  1  0
  4  5  1  0
  5  6  2  0
  5  7  1  0
  7  8  1  0
  8  9  1  0
  9 10  1  0
 10 11  1  0
 11 12  1  0
 12 13  2  0
 13 14  1  0
 14 15  2  0
 15 16  1  0
 15 17  1  0
 17 18  2  0
  2 19  1  0
 19 20  2  0
 20 21  1  0
 21 22  2  0
 22 23  1  0
 23 24  2  0
 24 25  1  0
 25 26  2  0
 26 27  1  0
 27 28  2  0
 11  7  1  0
 18 12  1  0
 28 19  1  0
 27 22  1  0
  3 29  1  0
  4 30  1  0
  4 31  1  0
  8 32  1  0
  8 33  1  0
  9 34  1  0
  9 35  1  0
 10 36  1  0
 10 37  1  0
 11 38  1  6
 13 39  1  0
 14 40  1  0
 17 41  1  0
 18 42  1  0
 20 43  1  0
 21 44  1  0
 23 45  1  0
 24 46  1  0
 25 47  1  0
 26 48  1  0
M  END
>  <meeko>  (13) 
{"free_energy": -8.84, "intermolecular_energy": -10.33, "internal_energy": -1.45, "cluster_size": 7, "cluster_id": 1, "rank_in_cluster": 3}

$$$$

     RDKit          3D

 48 51  0  0  0  0  0  0  0  0999 V2000
  140.9090   71.6610  221.3000 O   0  0  0  0  0  0  0  0  0  0  0  0
  140.3730   72.1810  222.3160 C   0  0  0  0  0  0  0  0  0  0  0  0
  139.9250   73.5430  222.3320 N   0  0  0  0  0  0  0  0  0  0  0  0
  140.1200   74.3030  221.1110 C   0  0  0  0  0  0  0  0  0  0  0  0
  140.6990   75.6180  221.3940 C   0  0  0  0  0  0  0  0  0  0  0  0
  140.5810   76.1380  222.5550 O   0  0  0  0  0  0  0  0  0  0  0  0
  141.4160   76.4070  220.4460 N   0  0  0  0  0  0  0  0  0  0  0  0
  141.6310   77.8420  220.6790 C   0  0  0  0  0  0  0  0  0  0  0  0
  142.1490   78.3250  219.3370 C   0  0  0  0  0  0  0  0  0  0  0  0
  142.8010   77.1170  218.7550 C   0  0  0  0  0  0  0  0  0  0  0  0
  141.9700   75.9550  219.2470 C   0  0  1  0  0  0  0  0  0  0  0  0
  142.8700   74.7990  219.2940 C   0  0  0  0  0  0  0  0  0  0  0  0
  142.5830   73.7100  218.4630 C   0  0  0  0  0  0  0  0  0  0  0  0
  143.3940   72.5810  218.4570 C   0  0  0  0  0  0  0  0  0  0  0  0
  144.4970   72.5380  219.2850 C   0  0  0  0  0  0  0  0  0  0  0  0
  145.5790   71.1510  219.3430 Cl  0  0  0  0  0  0  0  0  0  0  0  0
  144.7980   73.6040  220.1140 C   0  0  0  0  0  0  0  0  0  0  0  0
  143.9930   74.7310  220.1240 C   0  0  0  0  0  0  0  0  0  0  0  0
  140.1900   71.3910  223.5320 C   0  0  0  0  0  0  0  0  0  0  0  0
  139.5590   70.1650  223.4710 C   0  0  0  0  0  0  0  0  0  0  0  0
  139.3520   69.3660  224.5790 C   0  0  0  0  0  0  0  0  0  0  0  0
  139.8050   69.8350  225.7910 C   0  0  0  0  0  0  0  0  0  0  0  0
  139.6010   69.0400  226.9060 C   0  0  0  0  0  0  0  0  0  0  0  0
  140.0510   69.4910  228.1520 C   0  0  0  0  0  0  0  0  0  0  0  0
  140.6950   70.7290  228.2440 C   0  0  0  0  0  0  0  0  0  0  0  0
  140.8720   71.4840  227.0960 C   0  0  0  0  0  0  0  0  0  0  0  0
  140.4390   71.0630  225.8560 C   0  0  0  0  0  0  0  0  0  0  0  0
  140.6270   71.8270  224.7450 N   0  0  0  0  0  0  0  0  0  0  0  0
  139.4860   73.9340  223.1940 H   0  0  0  0  0  0  0  0  0  0  0  0
  140.7983   73.7474  220.4467 H   0  0  0  0  0  0  0  0  0  0  0  0
  139.1412   74.4488  220.6307 H   0  0  0  0  0  0  0  0  0  0  0  0
  140.6901   78.3457  220.9454 H   0  0  0  0  0  0  0  0  0  0  0  0
  142.3181   78.0504  221.5123 H   0  0  0  0  0  0  0  0  0  0  0  0
  141.3225   78.6707  218.6987 H   0  0  0  0  0  0  0  0  0  0  0  0
  142.8364   79.1790  219.4274 H   0  0  0  0  0  0  0  0  0  0  0  0
  142.7909   77.1628  217.6560 H   0  0  0  0  0  0  0  0  0  0  0  0
  143.8558   77.0294  219.0547 H   0  0  0  0  0  0  0  0  0  0  0  0
  141.1264   75.6205  218.6253 H   0  0  0  0  0  0  0  0  0  0  0  0
  141.7025   73.7481  217.8048 H   0  0  0  0  0  0  0  0  0  0  0  0
  143.1590   71.7311  217.7993 H   0  0  0  0  0  0  0  0  0  0  0  0
  145.6809   73.5562  220.7683 H   0  0  0  0  0  0  0  0  0  0  0  0
  144.2377   75.5744  220.7864 H   0  0  0  0  0  0  0  0  0  0  0  0
  139.2039   69.8069  222.4934 H   0  0  0  0  0  0  0  0  0  0  0  0
  138.8451   68.3933  224.4957 H   0  0  0  0  0  0  0  0  0  0  0  0
  139.0930   68.0687  226.8139 H   0  0  0  0  0  0  0  0  0  0  0  0
  139.8994   68.8767  229.0518 H   0  0  0  0  0  0  0  0  0  0  0  0
  141.0563   71.0984  229.2151 H   0  0  0  0  0  0  0  0  0  0  0  0
  141.3777   72.4575  227.1766 H   0  0  0  0  0  0  0  0  0  0  0  0
  1  2  2  0
  2  3  1  0
  3  4  1  0
  4  5  1  0
  5  6  2  0
  5  7  1  0
  7  8  1  0
  8  9  1  0
  9 10  1  0
 10 11  1  0
 11 12  1  0
 12 13  2  0
 13 14  1  0
 14 15  2  0
 15 16  1  0
 15 17  1  0
 17 18  2  0
  2 19  1  0
 19 20  2  0
 20 21  1  0
 21 22  2  0
 22 23  1  0
 23 24  2  0
 24 25  1  0
 25 26  2  0
 26 27  1  0
 27 28  2  0
 11  7  1  0
 18 12  1  0
 28 19  1  0
 27 22  1  0
  3 29  1  0
  4 30  1  0
  4 31  1  0
  8 32  1  0
  8 33  1  0
  9 34  1  0
  9 35  1  0
 10 36  1  0
 10 37  1  0
 11 38  1  6
 13 39  1  0
 14 40  1  0
 17 41  1  0
 18 42  1  0
 20 43  1  0
 21 44  1  0
 23 45  1  0
 24 46  1  0
 25 47  1  0
 26 48  1  0
M  END
>  <meeko>  (14) 
{"free_energy": -8.23, "intermolecular_energy": -9.72, "internal_energy": -1.84, "cluster_size": 9, "cluster_id": 2, "rank_in_cluster": 7}

$$$$

     RDKit          3D

 48 51  0  0  0  0  0  0  0  0999 V2000
  140.9950   71.6180  221.3680 O   0  0  0  0  0  0  0  0  0  0  0  0
  140.4400   72.1580  222.3630 C   0  0  0  0  0  0  0  0  0  0  0  0
  139.9720   73.5130  222.3360 N   0  0  0  0  0  0  0  0  0  0  0  0
  140.1690   74.2420  221.0950 C   0  0  0  0  0  0  0  0  0  0  0  0
  140.3640   75.6710  221.3470 C   0  0  0  0  0  0  0  0  0  0  0  0
  139.8380   76.2220  222.3730 O   0  0  0  0  0  0  0  0  0  0  0  0
  141.1230   76.5440  220.5130 N   0  0  0  0  0  0  0  0  0  0  0  0
  141.2910   77.9600  220.8680 C   0  0  0  0  0  0  0  0  0  0  0  0
  141.8830   78.5540  219.6040 C   0  0  0  0  0  0  0  0  0  0  0  0
  142.5990   77.4060  218.9760 C   0  0  0  0  0  0  0  0  0  0  0  0
  141.7650   76.1950  219.3220 C   0  0  1  0  0  0  0  0  0  0  0  0
  142.6850   75.0550  219.3410 C   0  0  0  0  0  0  0  0  0  0  0  0
  143.8600   75.1740  220.0940 C   0  0  0  0  0  0  0  0  0  0  0  0
  144.7780   74.1320  220.1570 C   0  0  0  0  0  0  0  0  0  0  0  0
  144.5230   72.9660  219.4650 C   0  0  0  0  0  0  0  0  0  0  0  0
  145.6280   71.5960  219.4870 Cl  0  0  0  0  0  0  0  0  0  0  0  0
  143.3690   72.8280  218.7150 C   0  0  0  0  0  0  0  0  0  0  0  0
  142.4510   73.8640  218.6500 C   0  0  0  0  0  0  0  0  0  0  0  0
  140.2560   71.4000  223.5990 C   0  0  0  0  0  0  0  0  0  0  0  0
  139.6520   70.1600  223.5650 C   0  0  0  0  0  0  0  0  0  0  0  0
  139.4440   69.3890  224.6930 C   0  0  0  0  0  0  0  0  0  0  0  0
  139.8690   69.9030  225.8970 C   0  0  0  0  0  0  0  0  0  0  0  0
  139.6660   69.1370  227.0320 C   0  0  0  0  0  0  0  0  0  0  0  0
  140.0880   69.6330  228.2700 C   0  0  0  0  0  0  0  0  0  0  0  0
  140.7040   70.8860  228.3350 C   0  0  0  0  0  0  0  0  0  0  0  0
  140.8830   71.6110  227.1680 C   0  0  0  0  0  0  0  0  0  0  0  0
  140.4770   71.1450  225.9350 C   0  0  0  0  0  0  0  0  0  0  0  0
  140.6650   71.8810  224.8050 N   0  0  0  0  0  0  0  0  0  0  0  0
  139.5190   73.9220  223.1820 H   0  0  0  0  0  0  0  0  0  0  0  0
  141.0565   73.8436  220.5816 H   0  0  0  0  0  0  0  0  0  0  0  0
  139.2719   74.1171  220.4708 H   0  0  0  0  0  0  0  0  0  0  0  0
  140.3241   78.4255  221.1097 H   0  0  0  0  0  0  0  0  0  0  0  0
  141.9186   78.1149  221.7580 H   0  0  0  0  0  0  0  0  0  0  0  0
  141.0916   78.9330  218.9407 H   0  0  0  0  0  0  0  0  0  0  0  0
  142.5435   79.4106  219.8041 H   0  0  0  0  0  0  0  0  0  0  0  0
  142.6589   77.5365  217.8854 H   0  0  0  0  0  0  0  0  0  0  0  0
  143.6339   77.3144  219.3373 H   0  0  0  0  0  0  0  0  0  0  0  0
  140.9719   75.8942  218.6217 H   0  0  0  0  0  0  0  0  0  0  0  0
  144.0593   76.1058  220.6436 H   0  0  0  0  0  0  0  0  0  0  0  0
  145.6974   74.2360  220.7519 H   0  0  0  0  0  0  0  0  0  0  0  0
  143.1793   71.8926  218.1682 H   0  0  0  0  0  0  0  0  0  0  0  0
  141.5349   73.7480  218.0522 H   0  0  0  0  0  0  0  0  0  0  0  0
  139.3199   69.7660  222.5931 H   0  0  0  0  0  0  0  0  0  0  0  0
  138.9583   68.4040  224.6310 H   0  0  0  0  0  0  0  0  0  0  0  0
  139.1800   68.1527  226.9614 H   0  0  0  0  0  0  0  0  0  0  0  0
  139.9363   69.0417  229.1851 H   0  0  0  0  0  0  0  0  0  0  0  0
  141.0422   71.2912  229.3001 H   0  0  0  0  0  0  0  0  0  0  0  0
  141.3678   72.5966  227.2271 H   0  0  0  0  0  0  0  0  0  0  0  0
  1  2  2  0
  2  3  1  0
  3  4  1  0
  4  5  1  0
  5  6  2  0
  5  7  1  0
  7  8  1  0
  8  9  1  0
  9 10  1  0
 10 11  1  0
 11 12  1  0
 12 13  2  0
 13 14  1  0
 14 15  2  0
 15 16  1  0
 15 17  1  0
 17 18  2  0
  2 19  1  0
 19 20  2  0
 20 21  1  0
 21 22  2  0
 22 23  1  0
 23 24  2  0
 24 25  1  0
 25 26  2  0
 26 27  1  0
 27 28  2  0
 11  7  1  0
 18 12  1  0
 28 19  1  0
 27 22  1  0
  3 29  1  0
  4 30  1  0
  4 31  1  0
  8 32  1  0
  8 33  1  0
  9 34  1  0
  9 35  1  0
 10 36  1  0
 10 37  1  0
 11 38  1  6
 13 39  1  0
 14 40  1  0
 17 41  1  0
 18 42  1  0
 20 43  1  0
 21 44  1  0
 23 45  1  0
 24 46  1  0
 25 47  1  0
 26 48  1  0
M  END
>  <meeko>  (15) 
{"free_energy": -8.29, "intermolecular_energy": -9.78, "internal_energy": -1.84, "cluster_size": 9, "cluster_id": 2, "rank_in_cluster": 6}

$$$$

     RDKit          3D

 48 51  0  0  0  0  0  0  0  0999 V2000
  138.3530   70.8350  221.7970 O   0  0  0  0  0  0  0  0  0  0  0  0
  139.0000   71.3130  222.7680 C   0  0  0  0  0  0  0  0  0  0  0  0
  139.4640   72.6690  222.7860 N   0  0  0  0  0  0  0  0  0  0  0  0
  139.1510   73.4760  221.6190 C   0  0  0  0  0  0  0  0  0  0  0  0
  139.3920   74.8960  221.8800 C   0  0  0  0  0  0  0  0  0  0  0  0
  140.5260   75.2880  222.3200 O   0  0  0  0  0  0  0  0  0  0  0  0
  138.4310   75.9310  221.6770 N   0  0  0  0  0  0  0  0  0  0  0  0
  137.0170   75.7150  222.0150 C   0  0  0  0  0  0  0  0  0  0  0  0
  136.3350   76.9140  221.3830 C   0  0  0  0  0  0  0  0  0  0  0  0
  137.3970   77.9620  221.3780 C   0  0  0  0  0  0  0  0  0  0  0  0
  138.6860   77.2040  221.1620 C   0  0  1  0  0  0  0  0  0  0  0  0
  139.7410   78.0050  221.7890 C   0  0  0  0  0  0  0  0  0  0  0  0
  139.4540   78.6260  223.0100 C   0  0  0  0  0  0  0  0  0  0  0  0
  140.4070   79.4010  223.6600 C   0  0  0  0  0  0  0  0  0  0  0  0
  141.6540   79.5560  223.0900 C   0  0  0  0  0  0  0  0  0  0  0  0
  142.9220   80.5180  223.8410 Cl  0  0  0  0  0  0  0  0  0  0  0  0
  141.9580   78.9510  221.8830 C   0  0  0  0  0  0  0  0  0  0  0  0
  141.0110   78.1780  221.2320 C   0  0  0  0  0  0  0  0  0  0  0  0
  139.3010   70.4770  223.9290 C   0  0  0  0  0  0  0  0  0  0  0  0
  138.9710   69.1370  223.9190 C   0  0  0  0  0  0  0  0  0  0  0  0
  139.2250   68.2890  224.9800 C   0  0  0  0  0  0  0  0  0  0  0  0
  139.8370   68.8280  226.0880 C   0  0  0  0  0  0  0  0  0  0  0  0
  140.0960   67.9840  227.1550 C   0  0  0  0  0  0  0  0  0  0  0  0
  140.7170   68.5040  228.2960 C   0  0  0  0  0  0  0  0  0  0  0  0
  141.0640   69.8580  228.3340 C   0  0  0  0  0  0  0  0  0  0  0  0
  140.7810   70.6570  227.2380 C   0  0  0  0  0  0  0  0  0  0  0  0
  140.1700   70.1710  226.1010 C   0  0  0  0  0  0  0  0  0  0  0  0
  139.9050   70.9800  225.0390 N   0  0  0  0  0  0  0  0  0  0  0  0
  139.9960   73.0250  223.6100 H   0  0  0  0  0  0  0  0  0  0  0  0
  139.7831   73.1529  220.7788 H   0  0  0  0  0  0  0  0  0  0  0  0
  138.0866   73.3412  221.3764 H   0  0  0  0  0  0  0  0  0  0  0  0
  136.6453   74.7741  221.5830 H   0  0  0  0  0  0  0  0  0  0  0  0
  136.8352   75.6298  223.0965 H   0  0  0  0  0  0  0  0  0  0  0  0
  136.0062   76.6837  220.3589 H   0  0  0  0  0  0  0  0  0  0  0  0
  135.4306   77.2257  221.9261 H   0  0  0  0  0  0  0  0  0  0  0  0
  137.2286   78.6805  220.5623 H   0  0  0  0  0  0  0  0  0  0  0  0
  137.4094   78.5451  222.3107 H   0  0  0  0  0  0  0  0  0  0  0  0
  139.0332   77.0536  220.1291 H   0  0  0  0  0  0  0  0  0  0  0  0
  138.4592   78.4987  223.4619 H   0  0  0  0  0  0  0  0  0  0  0  0
  140.1698   79.8856  224.6186 H   0  0  0  0  0  0  0  0  0  0  0  0
  142.9555   79.0846  221.4390 H   0  0  0  0  0  0  0  0  0  0  0  0
  141.2593   77.6987  220.2735 H   0  0  0  0  0  0  0  0  0  0  0  0
  138.4826   68.7244  223.0239 H   0  0  0  0  0  0  0  0  0  0  0  0
  138.9488   67.2250  224.9403 H   0  0  0  0  0  0  0  0  0  0  0  0
  139.8177   66.9209  227.1063 H   0  0  0  0  0  0  0  0  0  0  0  0
  140.9305   67.8527  229.1564 H   0  0  0  0  0  0  0  0  0  0  0  0
  141.5549   70.2830  229.2219 H   0  0  0  0  0  0  0  0  0  0  0  0
  141.0546   71.7217  227.2762 H   0  0  0  0  0  0  0  0  0  0  0  0
  1  2  2  0
  2  3  1  0
  3  4  1  0
  4  5  1  0
  5  6  2  0
  5  7  1  0
  7  8  1  0
  8  9  1  0
  9 10  1  0
 10 11  1  0
 11 12  1  0
 12 13  2  0
 13 14  1  0
 14 15  2  0
 15 16  1  0
 15 17  1  0
 17 18  2  0
  2 19  1  0
 19 20  2  0
 20 21  1  0
 21 22  2  0
 22 23  1  0
 23 24  2  0
 24 25  1  0
 25 26  2  0
 26 27  1  0
 27 28  2  0
 11  7  1  0
 18 12  1  0
 28 19  1  0
 27 22  1  0
  3 29  1  0
  4 30  1  0
  4 31  1  0
  8 32  1  0
  8 33  1  0
  9 34  1  0
  9 35  1  0
 10 36  1  0
 10 37  1  0
 11 38  1  6
 13 39  1  0
 14 40  1  0
 17 41  1  0
 18 42  1  0
 20 43  1  0
 21 44  1  0
 23 45  1  0
 24 46  1  0
 25 47  1  0
 26 48  1  0
M  END
>  <meeko>  (16) 
{"free_energy": -8.58, "intermolecular_energy": -10.07, "internal_energy": -1.6, "cluster_size": 7, "cluster_id": 1, "rank_in_cluster": 5}

$$$$

     RDKit          3D

 48 51  0  0  0  0  0  0  0  0999 V2000
  141.3370   72.0730  221.5980 O   0  0  0  0  0  0  0  0  0  0  0  0
  140.4650   72.3760  222.4570 C   0  0  0  0  0  0  0  0  0  0  0  0
  139.6410   73.5440  222.3320 N   0  0  0  0  0  0  0  0  0  0  0  0
  139.8620   74.3690  221.1570 C   0  0  0  0  0  0  0  0  0  0  0  0
  140.4310   75.6670  221.5240 C   0  0  0  0  0  0  0  0  0  0  0  0
  140.3090   76.1120  222.7150 O   0  0  0  0  0  0  0  0  0  0  0  0
  141.1430   76.5200  220.6290 N   0  0  0  0  0  0  0  0  0  0  0  0
  141.2800   77.9550  220.9140 C   0  0  0  0  0  0  0  0  0  0  0  0
  141.8210   78.5060  219.6080 C   0  0  0  0  0  0  0  0  0  0  0  0
  142.5520   77.3500  219.0140 C   0  0  0  0  0  0  0  0  0  0  0  0
  141.7620   76.1340  219.4380 C   0  0  1  0  0  0  0  0  0  0  0  0
  142.7140   75.0220  219.4830 C   0  0  0  0  0  0  0  0  0  0  0  0
  143.9400   75.2350  220.1260 C   0  0  0  0  0  0  0  0  0  0  0  0
  144.8900   74.2240  220.2070 C   0  0  0  0  0  0  0  0  0  0  0  0
  144.6180   72.9940  219.6430 C   0  0  0  0  0  0  0  0  0  0  0  0
  145.7610   71.6570  219.6960 Cl  0  0  0  0  0  0  0  0  0  0  0  0
  143.4130   72.7640  219.0030 C   0  0  0  0  0  0  0  0  0  0  0  0
  142.4620   73.7680  218.9200 C   0  0  0  0  0  0  0  0  0  0  0  0
  140.2650   71.5270  223.6300 C   0  0  0  0  0  0  0  0  0  0  0  0
  139.6150   70.3160  223.5020 C   0  0  0  0  0  0  0  0  0  0  0  0
  139.3910   69.4630  224.5660 C   0  0  0  0  0  0  0  0  0  0  0  0
  139.8470   69.8600  225.8020 C   0  0  0  0  0  0  0  0  0  0  0  0
  139.6270   69.0120  226.8730 C   0  0  0  0  0  0  0  0  0  0  0  0
  140.0790   69.3890  228.1420 C   0  0  0  0  0  0  0  0  0  0  0  0
  140.7410   70.6100  228.3010 C   0  0  0  0  0  0  0  0  0  0  0  0
  140.9340   71.4210  227.1950 C   0  0  0  0  0  0  0  0  0  0  0  0
  140.5000   71.0730  225.9330 C   0  0  0  0  0  0  0  0  0  0  0  0
  140.7040   71.8920  224.8650 N   0  0  0  0  0  0  0  0  0  0  0  0
  138.9310   73.7580  223.0650 H   0  0  0  0  0  0  0  0  0  0  0  0
  140.5567   73.8508  220.4796 H   0  0  0  0  0  0  0  0  0  0  0  0
  138.8943   74.5389  220.6623 H   0  0  0  0  0  0  0  0  0  0  0  0
  140.3070   78.4047  221.1611 H   0  0  0  0  0  0  0  0  0  0  0  0
  141.9266   78.1680  221.7780 H   0  0  0  0  0  0  0  0  0  0  0  0
  141.0018   78.8322  218.9503 H   0  0  0  0  0  0  0  0  0  0  0  0
  142.4617   79.3888  219.7500 H   0  0  0  0  0  0  0  0  0  0  0  0
  142.5794   77.4311  217.9173 H   0  0  0  0  0  0  0  0  0  0  0  0
  143.5982   77.3033  219.3506 H   0  0  0  0  0  0  0  0  0  0  0  0
  140.9591   75.7798  218.7747 H   0  0  0  0  0  0  0  0  0  0  0  0
  144.1540   76.2169  220.5734 H   0  0  0  0  0  0  0  0  0  0  0  0
  145.8490   74.4022  220.7154 H   0  0  0  0  0  0  0  0  0  0  0  0
  143.2091   71.7790  218.5579 H   0  0  0  0  0  0  0  0  0  0  0  0
  141.5063   73.5777  218.4097 H   0  0  0  0  0  0  0  0  0  0  0  0
  139.2584   70.0156  222.5057 H   0  0  0  0  0  0  0  0  0  0  0  0
  138.8688   68.5045  224.4301 H   0  0  0  0  0  0  0  0  0  0  0  0
  139.1041   68.0550  226.7286 H   0  0  0  0  0  0  0  0  0  0  0  0
  139.9149   68.7302  229.0075 H   0  0  0  0  0  0  0  0  0  0  0  0
  141.1038   70.9225  229.2913 H   0  0  0  0  0  0  0  0  0  0  0  0
  141.4542   72.3810  227.3285 H   0  0  0  0  0  0  0  0  0  0  0  0
  1  2  2  0
  2  3  1  0
  3  4  1  0
  4  5  1  0
  5  6  2  0
  5  7  1  0
  7  8  1  0
  8  9  1  0
  9 10  1  0
 10 11  1  0
 11 12  1  0
 12 13  2  0
 13 14  1  0
 14 15  2  0
 15 16  1  0
 15 17  1  0
 17 18  2  0
  2 19  1  0
 19 20  2  0
 20 21  1  0
 21 22  2  0
 22 23  1  0
 23 24  2  0
 24 25  1  0
 25 26  2  0
 26 27  1  0
 27 28  2  0
 11  7  1  0
 18 12  1  0
 28 19  1  0
 27 22  1  0
  3 29  1  0
  4 30  1  0
  4 31  1  0
  8 32  1  0
  8 33  1  0
  9 34  1  0
  9 35  1  0
 10 36  1  0
 10 37  1  0
 11 38  1  6
 13 39  1  0
 14 40  1  0
 17 41  1  0
 18 42  1  0
 20 43  1  0
 21 44  1  0
 23 45  1  0
 24 46  1  0
 25 47  1  0
 26 48  1  0
M  END
>  <meeko>  (17) 
{"free_energy": -8.43, "intermolecular_energy": -9.92, "internal_energy": -1.72, "cluster_size": 9, "cluster_id": 2, "rank_in_cluster": 2}

$$$$

     RDKit          3D

 48 51  0  0  0  0  0  0  0  0999 V2000
  141.4070   72.1170  221.6870 O   0  0  0  0  0  0  0  0  0  0  0  0
  140.4870   72.3960  222.5020 C   0  0  0  0  0  0  0  0  0  0  0  0
  139.6320   73.5340  222.3310 N   0  0  0  0  0  0  0  0  0  0  0  0
  139.8790   74.3590  221.1620 C   0  0  0  0  0  0  0  0  0  0  0  0
  140.3380   75.6960  221.5460 C   0  0  0  0  0  0  0  0  0  0  0  0
  140.0900   76.1520  222.7130 O   0  0  0  0  0  0  0  0  0  0  0  0
  141.0710   76.5750  220.6950 N   0  0  0  0  0  0  0  0  0  0  0  0
  141.1960   78.0020  221.0240 C   0  0  0  0  0  0  0  0  0  0  0  0
  141.7700   78.5910  219.7490 C   0  0  0  0  0  0  0  0  0  0  0  0
  142.5210   77.4530  219.1420 C   0  0  0  0  0  0  0  0  0  0  0  0
  141.7230   76.2240  219.5100 C   0  0  1  0  0  0  0  0  0  0  0  0
  142.6770   75.1130  219.5510 C   0  0  0  0  0  0  0  0  0  0  0  0
  142.2750   73.8840  219.0140 C   0  0  0  0  0  0  0  0  0  0  0  0
  143.1290   72.7880  219.0190 C   0  0  0  0  0  0  0  0  0  0  0  0
  144.3910   72.9170  219.5620 C   0  0  0  0  0  0  0  0  0  0  0  0
  145.5380   71.5840  219.6110 Cl  0  0  0  0  0  0  0  0  0  0  0  0
  144.8080   74.1230  220.0980 C   0  0  0  0  0  0  0  0  0  0  0  0
  143.9600   75.2190  220.0950 C   0  0  0  0  0  0  0  0  0  0  0  0
  140.2620   71.5470  223.6710 C   0  0  0  0  0  0  0  0  0  0  0  0
  139.5700   70.3610  223.5390 C   0  0  0  0  0  0  0  0  0  0  0  0
  139.3200   69.5100  224.5990 C   0  0  0  0  0  0  0  0  0  0  0  0
  139.7940   69.8840  225.8350 C   0  0  0  0  0  0  0  0  0  0  0  0
  139.5480   69.0380  226.9030 C   0  0  0  0  0  0  0  0  0  0  0  0
  140.0180   69.3920  228.1720 C   0  0  0  0  0  0  0  0  0  0  0  0
  140.7220   70.5890  228.3360 C   0  0  0  0  0  0  0  0  0  0  0  0
  140.9400   71.3990  227.2330 C   0  0  0  0  0  0  0  0  0  0  0  0
  140.4890   71.0730  225.9710 C   0  0  0  0  0  0  0  0  0  0  0  0
  140.7170   71.8900  224.9060 N   0  0  0  0  0  0  0  0  0  0  0  0
  138.8820   73.7300  223.0290 H   0  0  0  0  0  0  0  0  0  0  0  0
  140.6497   73.8796  220.5406 H   0  0  0  0  0  0  0  0  0  0  0  0
  138.9378   74.4608  220.6018 H   0  0  0  0  0  0  0  0  0  0  0  0
  140.2154   78.4423  221.2576 H   0  0  0  0  0  0  0  0  0  0  0  0
  141.8187   78.1919  221.9107 H   0  0  0  0  0  0  0  0  0  0  0  0
  140.9677   78.9336  219.0790 H   0  0  0  0  0  0  0  0  0  0  0  0
  142.4039   79.4710  219.9330 H   0  0  0  0  0  0  0  0  0  0  0  0
  142.5779   77.5652  218.0492 H   0  0  0  0  0  0  0  0  0  0  0  0
  143.5579   77.3990  219.5052 H   0  0  0  0  0  0  0  0  0  0  0  0
  140.9397   75.8874  218.8149 H   0  0  0  0  0  0  0  0  0  0  0  0
  141.2683   73.7847  218.5819 H   0  0  0  0  0  0  0  0  0  0  0  0
  142.8024   71.8272  218.5944 H   0  0  0  0  0  0  0  0  0  0  0  0
  145.8165   74.2118  220.5281 H   0  0  0  0  0  0  0  0  0  0  0  0
  144.2976   76.1749  220.5219 H   0  0  0  0  0  0  0  0  0  0  0  0
  139.1994   70.0790  222.5424 H   0  0  0  0  0  0  0  0  0  0  0  0
  138.7641   68.5710  224.4598 H   0  0  0  0  0  0  0  0  0  0  0  0
  138.9910   68.1010  226.7557 H   0  0  0  0  0  0  0  0  0  0  0  0
  139.8352   68.7339  229.0342 H   0  0  0  0  0  0  0  0  0  0  0  0
  141.0976   70.8836  229.3270 H   0  0  0  0  0  0  0  0  0  0  0  0
  141.4946   72.3391  227.3693 H   0  0  0  0  0  0  0  0  0  0  0  0
  1  2  2  0
  2  3  1  0
  3  4  1  0
  4  5  1  0
  5  6  2  0
  5  7  1  0
  7  8  1  0
  8  9  1  0
  9 10  1  0
 10 11  1  0
 11 12  1  0
 12 13  2  0
 13 14  1  0
 14 15  2  0
 15 16  1  0
 15 17  1  0
 17 18  2  0
  2 19  1  0
 19 20  2  0
 20 21  1  0
 21 22  2  0
 22 23  1  0
 23 24  2  0
 24 25  1  0
 25 26  2  0
 26 27  1  0
 27 28  2  0
 11  7  1  0
 18 12  1  0
 28 19  1  0
 27 22  1  0
  3 29  1  0
  4 30  1  0
  4 31  1  0
  8 32  1  0
  8 33  1  0
  9 34  1  0
  9 35  1  0
 10 36  1  0
 10 37  1  0
 11 38  1  6
 13 39  1  0
 14 40  1  0
 17 41  1  0
 18 42  1  0
 20 43  1  0
 21 44  1  0
 23 45  1  0
 24 46  1  0
 25 47  1  0
 26 48  1  0
M  END
>  <meeko>  (18) 
{"free_energy": -8.46, "intermolecular_energy": -9.95, "internal_energy": -1.7, "cluster_size": 9, "cluster_id": 2, "rank_in_cluster": 1}

$$$$

     RDKit          3D

 48 51  0  0  0  0  0  0  0  0999 V2000
  138.7440   75.3240  221.8320 O   0  0  0  0  0  0  0  0  0  0  0  0
  139.9270   75.7220  222.0110 C   0  0  0  0  0  0  0  0  0  0  0  0
  141.0590   74.8610  221.8280 N   0  0  0  0  0  0  0  0  0  0  0  0
  140.7760   73.4960  221.4240 C   0  0  0  0  0  0  0  0  0  0  0  0
  141.7410   73.0300  220.4260 C   0  0  0  0  0  0  0  0  0  0  0  0
  141.3500   72.3460  219.4200 O   0  0  0  0  0  0  0  0  0  0  0  0
  143.1440   73.2810  220.4790 N   0  0  0  0  0  0  0  0  0  0  0  0
  144.1040   72.1670  220.4830 C   0  0  0  0  0  0  0  0  0  0  0  0
  145.4100   72.8520  220.8380 C   0  0  0  0  0  0  0  0  0  0  0  0
  145.2260   74.2450  220.3360 C   0  0  0  0  0  0  0  0  0  0  0  0
  143.7560   74.5350  220.5320 C   0  0  1  0  0  0  0  0  0  0  0  0
  143.3950   75.5240  219.5130 C   0  0  0  0  0  0  0  0  0  0  0  0
  142.7220   76.6790  219.9300 C   0  0  0  0  0  0  0  0  0  0  0  0
  142.3490   77.6590  219.0170 C   0  0  0  0  0  0  0  0  0  0  0  0
  142.6470   77.4860  217.6810 C   0  0  0  0  0  0  0  0  0  0  0  0
  142.2130   78.6720  216.4570 Cl  0  0  0  0  0  0  0  0  0  0  0  0
  143.3100   76.3510  217.2490 C   0  0  0  0  0  0  0  0  0  0  0  0
  143.6850   75.3720  218.1540 C   0  0  0  0  0  0  0  0  0  0  0  0
  140.1810   77.1020  222.4180 C   0  0  0  0  0  0  0  0  0  0  0  0
  139.1250   77.9540  222.6680 C   0  0  0  0  0  0  0  0  0  0  0  0
  139.2910   79.2700  223.0560 C   0  0  0  0  0  0  0  0  0  0  0  0
  140.5800   79.7310  223.1940 C   0  0  0  0  0  0  0  0  0  0  0  0
  140.7560   81.0470  223.5830 C   0  0  0  0  0  0  0  0  0  0  0  0
  142.0560   81.5440  223.7320 C   0  0  0  0  0  0  0  0  0  0  0  0
  143.1450   80.7030  223.4860 C   0  0  0  0  0  0  0  0  0  0  0  0
  142.9120   79.3930  223.0990 C   0  0  0  0  0  0  0  0  0  0  0  0
  141.6420   78.8780  222.9460 C   0  0  0  0  0  0  0  0  0  0  0  0
  141.4440   77.5870  222.5640 N   0  0  0  0  0  0  0  0  0  0  0  0
  142.0220   75.2300  221.9870 H   0  0  0  0  0  0  0  0  0  0  0  0
  140.8283   72.8420  222.3069 H   0  0  0  0  0  0  0  0  0  0  0  0
  139.7707   73.4651  220.9785 H   0  0  0  0  0  0  0  0  0  0  0  0
  143.8337   71.4134  221.2374 H   0  0  0  0  0  0  0  0  0  0  0  0
  144.1431   71.6216  219.5285 H   0  0  0  0  0  0  0  0  0  0  0  0
  145.5735   72.8453  221.9258 H   0  0  0  0  0  0  0  0  0  0  0  0
  146.2865   72.3528  220.3992 H   0  0  0  0  0  0  0  0  0  0  0  0
  145.8406   74.9499  220.9151 H   0  0  0  0  0  0  0  0  0  0  0  0
  145.5338   74.3517  219.2853 H   0  0  0  0  0  0  0  0  0  0  0  0
  143.4391   74.9914  221.4813 H   0  0  0  0  0  0  0  0  0  0  0  0
  142.4849   76.8130  220.9958 H   0  0  0  0  0  0  0  0  0  0  0  0
  141.8218   78.5628  219.3563 H   0  0  0  0  0  0  0  0  0  0  0  0
  143.5405   76.2255  216.1808 H   0  0  0  0  0  0  0  0  0  0  0  0
  144.2122   74.4728  217.8026 H   0  0  0  0  0  0  0  0  0  0  0  0
  138.1017   77.5672  222.5530 H   0  0  0  0  0  0  0  0  0  0  0  0
  138.4267   79.9231  223.2470 H   0  0  0  0  0  0  0  0  0  0  0  0
  139.8865   81.6936  223.7725 H   0  0  0  0  0  0  0  0  0  0  0  0
  142.2192   82.5873  224.0400 H   0  0  0  0  0  0  0  0  0  0  0  0
  144.1737   81.0762  223.5981 H   0  0  0  0  0  0  0  0  0  0  0  0
  143.7744   78.7379  222.9062 H   0  0  0  0  0  0  0  0  0  0  0  0
  1  2  2  0
  2  3  1  0
  3  4  1  0
  4  5  1  0
  5  6  2  0
  5  7  1  0
  7  8  1  0
  8  9  1  0
  9 10  1  0
 10 11  1  0
 11 12  1  0
 12 13  2  0
 13 14  1  0
 14 15  2  0
 15 16  1  0
 15 17  1  0
 17 18  2  0
  2 19  1  0
 19 20  2  0
 20 21  1  0
 21 22  2  0
 22 23  1  0
 23 24  2  0
 24 25  1  0
 25 26  2  0
 26 27  1  0
 27 28  2  0
 11  7  1  0
 18 12  1  0
 28 19  1  0
 27 22  1  0
  3 29  1  0
  4 30  1  0
  4 31  1  0
  8 32  1  0
  8 33  1  0
  9 34  1  0
  9 35  1  0
 10 36  1  0
 10 37  1  0
 11 38  1  1
 13 39  1  0
 14 40  1  0
 17 41  1  0
 18 42  1  0
 20 43  1  0
 21 44  1  0
 23 45  1  0
 24 46  1  0
 25 47  1  0
 26 48  1  0
M  END
>  <meeko>  (19) 
{"free_energy": -7.55, "intermolecular_energy": -9.05, "internal_energy": -2.29, "cluster_size": 2, "cluster_id": 4, "rank_in_cluster": 2}

$$$$

     RDKit          3D

 48 51  0  0  0  0  0  0  0  0999 V2000
  140.0650   73.4330  222.3790 O   0  0  0  0  0  0  0  0  0  0  0  0
  140.3640   72.2080  222.3810 C   0  0  0  0  0  0  0  0  0  0  0  0
  140.8220   71.5310  221.2030 N   0  0  0  0  0  0  0  0  0  0  0  0
  140.9270   72.3300  219.9950 C   0  0  0  0  0  0  0  0  0  0  0  0
  142.2400   72.1690  219.3680 C   0  0  0  0  0  0  0  0  0  0  0  0
  142.3530   71.5460  218.2580 O   0  0  0  0  0  0  0  0  0  0  0  0
  143.4620   72.6680  219.9090 N   0  0  0  0  0  0  0  0  0  0  0  0
  144.7390   72.0040  219.6080 C   0  0  0  0  0  0  0  0  0  0  0  0
  145.6940   72.6560  220.5900 C   0  0  0  0  0  0  0  0  0  0  0  0
  145.0940   74.0010  220.8270 C   0  0  0  0  0  0  0  0  0  0  0  0
  143.6020   73.7780  220.7440 C   0  0  1  0  0  0  0  0  0  0  0  0
  143.0220   75.0500  220.3060 C   0  0  0  0  0  0  0  0  0  0  0  0
  141.8160   75.4570  220.8910 C   0  0  0  0  0  0  0  0  0  0  0  0
  141.2090   76.6520  220.5220 C   0  0  0  0  0  0  0  0  0  0  0  0
  141.8070   77.4450  219.5650 C   0  0  0  0  0  0  0  0  0  0  0  0
  141.1120   78.9730  219.0370 Cl  0  0  0  0  0  0  0  0  0  0  0  0
  142.9980   77.0620  218.9750 C   0  0  0  0  0  0  0  0  0  0  0  0
  143.6070   75.8720  219.3390 C   0  0  0  0  0  0  0  0  0  0  0  0
  140.2490   71.4280  223.6120 C   0  0  0  0  0  0  0  0  0  0  0  0
  139.6600   70.1800  223.5850 C   0  0  0  0  0  0  0  0  0  0  0  0
  139.5170   69.3890  224.7090 C   0  0  0  0  0  0  0  0  0  0  0  0
  139.9930   69.8890  225.9000 C   0  0  0  0  0  0  0  0  0  0  0  0
  139.8540   69.1020  227.0300 C   0  0  0  0  0  0  0  0  0  0  0  0
  140.3280   69.5850  228.2550 C   0  0  0  0  0  0  0  0  0  0  0  0
  140.9300   70.8450  228.3120 C   0  0  0  0  0  0  0  0  0  0  0  0
  141.0430   71.5910  227.1490 C   0  0  0  0  0  0  0  0  0  0  0  0
  140.5840   71.1390  225.9290 C   0  0  0  0  0  0  0  0  0  0  0  0
  140.7090   71.8950  224.8040 N   0  0  0  0  0  0  0  0  0  0  0  0
  141.0600   70.5150  221.2480 H   0  0  0  0  0  0  0  0  0  0  0  0
  140.1488   72.0121  219.2855 H   0  0  0  0  0  0  0  0  0  0  0  0
  140.7963   73.3885  220.2643 H   0  0  0  0  0  0  0  0  0  0  0  0
  144.6724   70.9196  219.7801 H   0  0  0  0  0  0  0  0  0  0  0  0
  145.0506   72.1127  218.5587 H   0  0  0  0  0  0  0  0  0  0  0  0
  145.7480   72.0802  221.5257 H   0  0  0  0  0  0  0  0  0  0  0  0
  146.7249   72.7101  220.2100 H   0  0  0  0  0  0  0  0  0  0  0  0
  145.3744   74.3808  221.8206 H   0  0  0  0  0  0  0  0  0  0  0  0
  145.4437   74.7461  220.0973 H   0  0  0  0  0  0  0  0  0  0  0  0
  143.0614   73.5351  221.6707 H   0  0  0  0  0  0  0  0  0  0  0  0
  141.3422   74.8216  221.6537 H   0  0  0  0  0  0  0  0  0  0  0  0
  140.2621   76.9617  220.9882 H   0  0  0  0  0  0  0  0  0  0  0  0
  143.4636   77.7050  218.2136 H   0  0  0  0  0  0  0  0  0  0  0  0
  144.5538   75.5733  218.8654 H   0  0  0  0  0  0  0  0  0  0  0  0
  139.2869   69.7971  222.6236 H   0  0  0  0  0  0  0  0  0  0  0  0
  139.0414   68.3986  224.6542 H   0  0  0  0  0  0  0  0  0  0  0  0
  139.3783   68.1122  226.9662 H   0  0  0  0  0  0  0  0  0  0  0  0
  140.2275   68.9773  229.1664 H   0  0  0  0  0  0  0  0  0  0  0  0
  141.3089   71.2393  229.2664 H   0  0  0  0  0  0  0  0  0  0  0  0
  141.5172   72.5822  227.2010 H   0  0  0  0  0  0  0  0  0  0  0  0
  1  2  2  0
  2  3  1  0
  3  4  1  0
  4  5  1  0
  5  6  2  0
  5  7  1  0
  7  8  1  0
  8  9  1  0
  9 10  1  0
 10 11  1  0
 11 12  1  0
 12 13  2  0
 13 14  1  0
 14 15  2  0
 15 16  1  0
 15 17  1  0
 17 18  2  0
  2 19  1  0
 19 20  2  0
 20 21  1  0
 21 22  2  0
 22 23  1  0
 23 24  2  0
 24 25  1  0
 25 26  2  0
 26 27  1  0
 27 28  2  0
 11  7  1  0
 18 12  1  0
 28 19  1  0
 27 22  1  0
  3 29  1  0
  4 30  1  0
  4 31  1  0
  8 32  1  0
  8 33  1  0
  9 34  1  0
  9 35  1  0
 10 36  1  0
 10 37  1  0
 11 38  1  1
 13 39  1  0
 14 40  1  0
 17 41  1  0
 18 42  1  0
 20 43  1  0
 21 44  1  0
 23 45  1  0
 24 46  1  0
 25 47  1  0
 26 48  1  0
M  END
>  <meeko>  (20) 
{"free_energy": -8.24, "intermolecular_energy": -9.73, "internal_energy": -1.56, "cluster_size": 1, "cluster_id": 3, "rank_in_cluster": 1}

$$$$
