
     RDKit          3D

 55 58  0  0  0  0  0  0  0  0999 V2000
  141.2270   72.1530  221.3670 O   0  0  0  0  0  0  0  0  0  0  0  0
  140.4740   72.4920  222.3410 C   0  0  0  0  0  0  0  0  0  0  0  0
  139.8550   73.7520  222.3370 N   0  0  0  0  0  0  0  0  0  0  0  0
  140.0150   74.7080  221.2840 C   0  0  0  0  0  0  0  0  0  0  0  0
  139.5800   76.0490  221.7430 C   0  0  0  0  0  0  0  0  0  0  0  0
  138.8120   76.0760  222.7510 O   0  0  0  0  0  0  0  0  0  0  0  0
  140.0110   77.2350  221.0770 N   0  0  0  0  0  0  0  0  0  0  0  0
  139.2390   77.7130  219.9450 C   0  0  0  0  0  0  0  0  0  0  0  0
  140.2750   77.9540  218.8380 C   0  0  0  0  0  0  0  0  0  0  0  0
  140.9530   79.2330  219.3450 C   0  0  0  0  0  0  0  0  0  0  0  0
  141.8270   78.8040  220.5010 C   0  0  0  0  0  0  0  0  0  0  0  0
  141.1830   77.9370  221.5170 C   0  0  1  0  0  0  0  0  0  0  0  0
  140.9210   78.5580  222.8670 C   0  0  0  0  0  0  0  0  0  0  0  0
  142.1640   79.0120  223.5660 C   0  0  0  0  0  0  0  0  0  0  0  0
  142.2450   80.5020  223.7880 C   0  0  0  0  0  0  0  0  0  0  0  0
  141.6170   81.2550  222.8440 O   0  0  0  0  0  0  0  0  0  0  0  0
  140.2970   81.0010  222.6150 C   0  0  0  0  0  0  0  0  0  0  0  0
  139.8600   79.6060  222.8970 C   0  0  0  0  0  0  0  0  0  0  0  0
  140.2550   71.5630  223.4700 C   0  0  0  0  0  0  0  0  0  0  0  0
  139.6000   70.3640  223.2460 C   0  0  0  0  0  0  0  0  0  0  0  0
  139.4120   69.5130  224.3330 C   0  0  0  0  0  0  0  0  0  0  0  0
  139.8550   69.8460  225.5780 C   0  0  0  0  0  0  0  0  0  0  0  0
  139.7040   69.0540  226.7000 C   0  0  0  0  0  0  0  0  0  0  0  0
  140.1790   69.4490  227.9500 C   0  0  0  0  0  0  0  0  0  0  0  0
  140.8180   70.6470  228.1010 C   0  0  0  0  0  0  0  0  0  0  0  0
  140.9760   71.4530  226.9800 C   0  0  0  0  0  0  0  0  0  0  0  0
  140.5000   71.0580  225.7290 C   0  0  0  0  0  0  0  0  0  0  0  0
  140.6950   71.8980  224.6960 N   0  0  0  0  0  0  0  0  0  0  0  0
  139.2400   73.9810  223.1710 H   0  0  0  0  0  0  0  0  0  0  0  0
  141.0738   74.7503  220.9887 H   0  0  0  0  0  0  0  0  0  0  0  0
  139.3988   74.4040  220.4250 H   0  0  0  0  0  0  0  0  0  0  0  0
  138.5041   76.9574  219.6303 H   0  0  0  0  0  0  0  0  0  0  0  0
  138.6688   78.6224  220.1854 H   0  0  0  0  0  0  0  0  0  0  0  0
  140.9888   77.1203  218.7644 H   0  0  0  0  0  0  0  0  0  0  0  0
  139.8480   78.0371  217.8277 H   0  0  0  0  0  0  0  0  0  0  0  0
  141.5641   79.6840  218.5493 H   0  0  0  0  0  0  0  0  0  0  0  0
  140.2149   79.9881  219.6534 H   0  0  0  0  0  0  0  0  0  0  0  0
  142.6867   78.2563  220.0876 H   0  0  0  0  0  0  0  0  0  0  0  0
  142.0951   79.7307  221.0295 H   0  0  0  0  0  0  0  0  0  0  0  0
  141.9889   77.2017  221.6577 H   0  0  0  0  0  0  0  0  0  0  0  0
  140.5069   77.7175  223.4433 H   0  0  0  0  0  0  0  0  0  0  0  0
  142.2084   78.5151  224.5464 H   0  0  0  0  0  0  0  0  0  0  0  0
  143.0073   78.7457  222.9118 H   0  0  0  0  0  0  0  0  0  0  0  0
  141.7903   80.7277  224.7638 H   0  0  0  0  0  0  0  0  0  0  0  0
  143.3117   80.7653  223.7347 H   0  0  0  0  0  0  0  0  0  0  0  0
  139.7056   81.6774  223.2496 H   0  0  0  0  0  0  0  0  0  0  0  0
  140.1392   81.1576  221.5377 H   0  0  0  0  0  0  0  0  0  0  0  0
  139.4063   79.5939  223.8990 H   0  0  0  0  0  0  0  0  0  0  0  0
  139.1703   79.3460  222.0805 H   0  0  0  0  0  0  0  0  0  0  0  0
  139.2399   70.0922  222.2428 H   0  0  0  0  0  0  0  0  0  0  0  0
  138.8958   68.5533  224.1833 H   0  0  0  0  0  0  0  0  0  0  0  0
  139.1944   68.0839  226.6044 H   0  0  0  0  0  0  0  0  0  0  0  0
  140.0383   68.7915  228.8205 H   0  0  0  0  0  0  0  0  0  0  0  0
  141.1972   70.9651  229.0834 H   0  0  0  0  0  0  0  0  0  0  0  0
  141.4867   72.4221  227.0808 H   0  0  0  0  0  0  0  0  0  0  0  0
  1  2  2  0
  2  3  1  0
  3  4  1  0
  4  5  1  0
  5  6  2  0
  5  7  1  0
  7  8  1  0
  8  9  1  0
  9 10  1  0
 10 11  1  0
 11 12  1  0
 12 13  1  0
 13 14  1  0
 14 15  1  0
 15 16  1  0
 16 17  1  0
 17 18  1  0
  2 19  1  0
 19 20  2  0
 20 21  1  0
 21 22  2  0
 22 23  1  0
 23 24  2  0
 24 25  1  0
 25 26  2  0
 26 27  1  0
 27 28  2  0
 12  7  1  0
 18 13  1  0
 28 19  1  0
 27 22  1  0
  3 29  1  0
  4 30  1  0
  4 31  1  0
  8 32  1  0
  8 33  1  0
  9 34  1  0
  9 35  1  0
 10 36  1  0
 10 37  1  0
 11 38  1  0
 11 39  1  0
 12 40  1  1
 13 41  1  0
 14 42  1  0
 14 43  1  0
 15 44  1  0
 15 45  1  0
 17 46  1  0
 17 47  1  0
 18 48  1  0
 18 49  1  0
 20 50  1  0
 21 51  1  0
 23 52  1  0
 24 53  1  0
 25 54  1  0
 26 55  1  0
M  END
>  <meeko>  (1) 
{"free_energy": -8.45, "intermolecular_energy": -9.94, "internal_energy": -1.98, "cluster_size": 9, "cluster_id": 2, "rank_in_cluster": 6}

$$$$

     RDKit          3D

 55 58  0  0  0  0  0  0  0  0999 V2000
  141.4590   72.3770  221.5540 O   0  0  0  0  0  0  0  0  0  0  0  0
  140.5480   72.6120  222.4170 C   0  0  0  0  0  0  0  0  0  0  0  0
  139.8080   73.8020  222.3410 N   0  0  0  0  0  0  0  0  0  0  0  0
  140.0110   74.7970  221.3330 C   0  0  0  0  0  0  0  0  0  0  0  0
  139.5040   76.1090  221.8020 C   0  0  0  0  0  0  0  0  0  0  0  0
  138.6590   76.0790  222.7460 O   0  0  0  0  0  0  0  0  0  0  0  0
  139.9510   77.3290  221.2130 N   0  0  0  0  0  0  0  0  0  0  0  0
  139.1380   77.9370  220.1770 C   0  0  0  0  0  0  0  0  0  0  0  0
  140.1170   78.2300  219.0310 C   0  0  0  0  0  0  0  0  0  0  0  0
  140.8850   79.4290  219.6010 C   0  0  0  0  0  0  0  0  0  0  0  0
  141.8030   78.8630  220.6590 C   0  0  0  0  0  0  0  0  0  0  0  0
  141.1790   77.9390  221.6360 C   0  0  1  0  0  0  0  0  0  0  0  0
  141.0270   78.4500  223.0490 C   0  0  0  0  0  0  0  0  0  0  0  0
  142.2110   79.2300  223.5310 C   0  0  0  0  0  0  0  0  0  0  0  0
  141.9210   80.6800  223.8270 C   0  0  0  0  0  0  0  0  0  0  0  0
  140.9370   81.2340  223.0660 O   0  0  0  0  0  0  0  0  0  0  0  0
  139.7200   80.6200  223.0720 C   0  0  0  0  0  0  0  0  0  0  0  0
  139.7470   79.1560  223.3420 C   0  0  0  0  0  0  0  0  0  0  0  0
  140.2730   71.6360  223.4930 C   0  0  0  0  0  0  0  0  0  0  0  0
  139.5920   70.4680  223.1920 C   0  0  0  0  0  0  0  0  0  0  0  0
  139.3520   69.5720  224.2310 C   0  0  0  0  0  0  0  0  0  0  0  0
  139.7690   69.8300  225.5020 C   0  0  0  0  0  0  0  0  0  0  0  0
  139.5660   68.9900  226.5800 C   0  0  0  0  0  0  0  0  0  0  0  0
  140.0170   69.3090  227.8590 C   0  0  0  0  0  0  0  0  0  0  0  0
  140.6840   70.4800  228.0850 C   0  0  0  0  0  0  0  0  0  0  0  0
  140.8950   71.3350  227.0100 C   0  0  0  0  0  0  0  0  0  0  0  0
  140.4420   71.0150  225.7300 C   0  0  0  0  0  0  0  0  0  0  0  0
  140.6880   71.8980  224.7440 N   0  0  0  0  0  0  0  0  0  0  0  0
  139.0630   73.9460  223.0840 H   0  0  0  0  0  0  0  0  0  0  0  0
  141.0859   74.8794  221.1145 H   0  0  0  0  0  0  0  0  0  0  0  0
  139.4654   74.5046  220.4237 H   0  0  0  0  0  0  0  0  0  0  0  0
  138.3503   77.2441  219.8461 H   0  0  0  0  0  0  0  0  0  0  0  0
  138.6277   78.8455  220.5295 H   0  0  0  0  0  0  0  0  0  0  0  0
  140.7841   77.3762  218.8414 H   0  0  0  0  0  0  0  0  0  0  0  0
  139.6351   78.4201  218.0606 H   0  0  0  0  0  0  0  0  0  0  0  0
  141.4696   79.9210  218.8097 H   0  0  0  0  0  0  0  0  0  0  0  0
  140.2039   80.1856  220.0179 H   0  0  0  0  0  0  0  0  0  0  0  0
  142.6094   78.3170  220.1474 H   0  0  0  0  0  0  0  0  0  0  0  0
  142.1459   79.7274  221.2465 H   0  0  0  0  0  0  0  0  0  0  0  0
  141.9559   77.1607  221.6624 H   0  0  0  0  0  0  0  0  0  0  0  0
  140.9807   77.5226  223.6388 H   0  0  0  0  0  0  0  0  0  0  0  0
  142.5823   78.7580  224.4526 H   0  0  0  0  0  0  0  0  0  0  0  0
  142.9496   79.2168  222.7159 H   0  0  0  0  0  0  0  0  0  0  0  0
  141.6229   80.7604  224.8828 H   0  0  0  0  0  0  0  0  0  0  0  0
  142.8420   81.2335  223.5918 H   0  0  0  0  0  0  0  0  0  0  0  0
  139.1025   81.0972  223.8473 H   0  0  0  0  0  0  0  0  0  0  0  0
  139.3168   80.7342  222.0550 H   0  0  0  0  0  0  0  0  0  0  0  0
  139.5201   79.0084  224.4082 H   0  0  0  0  0  0  0  0  0  0  0  0
  139.0087   78.7189  222.6536 H   0  0  0  0  0  0  0  0  0  0  0  0
  139.2524   70.2554  222.1676 H   0  0  0  0  0  0  0  0  0  0  0  0
  138.8141   68.6358  224.0208 H   0  0  0  0  0  0  0  0  0  0  0  0
  139.0323   68.0409  226.4238 H   0  0  0  0  0  0  0  0  0  0  0  0
  139.8350   68.6140  228.6920 H   0  0  0  0  0  0  0  0  0  0  0  0
  141.0445   70.7391  229.0915 H   0  0  0  0  0  0  0  0  0  0  0  0
  141.4297   72.2826  227.1715 H   0  0  0  0  0  0  0  0  0  0  0  0
  1  2  2  0
  2  3  1  0
  3  4  1  0
  4  5  1  0
  5  6  2  0
  5  7  1  0
  7  8  1  0
  8  9  1  0
  9 10  1  0
 10 11  1  0
 11 12  1  0
 12 13  1  0
 13 14  1  0
 14 15  1  0
 15 16  1  0
 16 17  1  0
 17 18  1  0
  2 19  1  0
 19 20  2  0
 20 21  1  0
 21 22  2  0
 22 23  1  0
 23 24  2  0
 24 25  1  0
 25 26  2  0
 26 27  1  0
 27 28  2  0
 12  7  1  0
 18 13  1  0
 28 19  1  0
 27 22  1  0
  3 29  1  0
  4 30  1  0
  4 31  1  0
  8 32  1  0
  8 33  1  0
  9 34  1  0
  9 35  1  0
 10 36  1  0
 10 37  1  0
 11 38  1  0
 11 39  1  0
 12 40  1  1
 13 41  1  0
 14 42  1  0
 14 43  1  0
 15 44  1  0
 15 45  1  0
 17 46  1  0
 17 47  1  0
 18 48  1  0
 18 49  1  0
 20 50  1  0
 21 51  1  0
 23 52  1  0
 24 53  1  0
 25 54  1  0
 26 55  1  0
M  END
>  <meeko>  (2) 
{"free_energy": -8.48, "intermolecular_energy": -9.97, "internal_energy": -1.99, "cluster_size": 9, "cluster_id": 2, "rank_in_cluster": 4}

$$$$

     RDKit          3D

 55 58  0  0  0  0  0  0  0  0999 V2000
  141.3090   72.1600  221.4390 O   0  0  0  0  0  0  0  0  0  0  0  0
  140.5010   72.4790  222.3740 C   0  0  0  0  0  0  0  0  0  0  0  0
  139.8570   73.7260  222.3420 N   0  0  0  0  0  0  0  0  0  0  0  0
  140.0510   74.6900  221.3030 C   0  0  0  0  0  0  0  0  0  0  0  0
  139.4910   76.0000  221.7130 C   0  0  0  0  0  0  0  0  0  0  0  0
  138.5970   75.9730  222.6100 O   0  0  0  0  0  0  0  0  0  0  0  0
  139.9440   77.2160  221.1200 N   0  0  0  0  0  0  0  0  0  0  0  0
  139.1480   77.8110  220.0630 C   0  0  0  0  0  0  0  0  0  0  0  0
  140.1470   78.0970  218.9320 C   0  0  0  0  0  0  0  0  0  0  0  0
  140.9000   79.3050  219.5050 C   0  0  0  0  0  0  0  0  0  0  0  0
  141.8010   78.7530  220.5850 C   0  0  0  0  0  0  0  0  0  0  0  0
  141.1630   77.8350  221.5590 C   0  0  1  0  0  0  0  0  0  0  0  0
  140.9830   78.3590  222.9630 C   0  0  0  0  0  0  0  0  0  0  0  0
  142.2000   79.0440  223.5040 C   0  0  0  0  0  0  0  0  0  0  0  0
  142.0120   80.5130  223.7890 C   0  0  0  0  0  0  0  0  0  0  0  0
  141.1140   81.1420  222.9820 O   0  0  0  0  0  0  0  0  0  0  0  0
  139.8530   80.6270  222.9270 C   0  0  0  0  0  0  0  0  0  0  0  0
  139.7500   79.1660  223.1950 C   0  0  0  0  0  0  0  0  0  0  0  0
  140.2430   71.5400  223.4870 C   0  0  0  0  0  0  0  0  0  0  0  0
  139.5710   70.3560  223.2350 C   0  0  0  0  0  0  0  0  0  0  0  0
  139.3470   69.4960  224.3070 C   0  0  0  0  0  0  0  0  0  0  0  0
  139.7710   69.8050  225.5640 C   0  0  0  0  0  0  0  0  0  0  0  0
  139.5850   69.0020  226.6730 C   0  0  0  0  0  0  0  0  0  0  0  0
  140.0430   69.3720  227.9370 C   0  0  0  0  0  0  0  0  0  0  0  0
  140.7000   70.5570  228.1150 C   0  0  0  0  0  0  0  0  0  0  0  0
  140.8940   71.3730  227.0080 C   0  0  0  0  0  0  0  0  0  0  0  0
  140.4350   71.0030  225.7430 C   0  0  0  0  0  0  0  0  0  0  0  0
  140.6660   71.8510  224.7250 N   0  0  0  0  0  0  0  0  0  0  0  0
  139.1950   73.9390  223.1450 H   0  0  0  0  0  0  0  0  0  0  0  0
  141.1274   74.8002  221.1052 H   0  0  0  0  0  0  0  0  0  0  0  0
  139.5367   74.3473  220.3930 H   0  0  0  0  0  0  0  0  0  0  0  0
  138.3692   77.1119  219.7243 H   0  0  0  0  0  0  0  0  0  0  0  0
  138.6281   78.7209  220.3973 H   0  0  0  0  0  0  0  0  0  0  0  0
  140.8208   77.2441  218.7629 H   0  0  0  0  0  0  0  0  0  0  0  0
  139.6824   78.2759  217.9511 H   0  0  0  0  0  0  0  0  0  0  0  0
  141.4969   79.7921  218.7199 H   0  0  0  0  0  0  0  0  0  0  0  0
  140.2083   80.0624  219.9024 H   0  0  0  0  0  0  0  0  0  0  0  0
  142.6191   78.2061  220.0935 H   0  0  0  0  0  0  0  0  0  0  0  0
  142.1292   79.6244  221.1707 H   0  0  0  0  0  0  0  0  0  0  0  0
  141.9420   77.0598  221.6060 H   0  0  0  0  0  0  0  0  0  0  0  0
  140.8342   77.4389  223.5472 H   0  0  0  0  0  0  0  0  0  0  0  0
  142.4874   78.5455  224.4415 H   0  0  0  0  0  0  0  0  0  0  0  0
  142.9738   78.9713  222.7256 H   0  0  0  0  0  0  0  0  0  0  0  0
  141.6696   80.6184  224.8290 H   0  0  0  0  0  0  0  0  0  0  0  0
  142.9846   80.9912  223.6009 H   0  0  0  0  0  0  0  0  0  0  0  0
  139.2382   81.1533  223.6720 H   0  0  0  0  0  0  0  0  0  0  0  0
  139.5105   80.7712  221.8917 H   0  0  0  0  0  0  0  0  0  0  0  0
  139.4606   79.0389  224.2486 H   0  0  0  0  0  0  0  0  0  0  0  0
  139.0136   78.7880  222.4706 H   0  0  0  0  0  0  0  0  0  0  0  0
  139.2256   70.1031  222.2217 H   0  0  0  0  0  0  0  0  0  0  0  0
  138.8168   68.5477  224.1352 H   0  0  0  0  0  0  0  0  0  0  0  0
  139.0601   68.0425  226.5553 H   0  0  0  0  0  0  0  0  0  0  0  0
  139.8744   68.7060  228.7961 H   0  0  0  0  0  0  0  0  0  0  0  0
  141.0654   70.8565  229.1084 H   0  0  0  0  0  0  0  0  0  0  0  0
  141.4205   72.3310  227.1308 H   0  0  0  0  0  0  0  0  0  0  0  0
  1  2  2  0
  2  3  1  0
  3  4  1  0
  4  5  1  0
  5  6  2  0
  5  7  1  0
  7  8  1  0
  8  9  1  0
  9 10  1  0
 10 11  1  0
 11 12  1  0
 12 13  1  0
 13 14  1  0
 14 15  1  0
 15 16  1  0
 16 17  1  0
 17 18  1  0
  2 19  1  0
 19 20  2  0
 20 21  1  0
 21 22  2  0
 22 23  1  0
 23 24  2  0
 24 25  1  0
 25 26  2  0
 26 27  1  0
 27 28  2  0
 12  7  1  0
 18 13  1  0
 28 19  1  0
 27 22  1  0
  3 29  1  0
  4 30  1  0
  4 31  1  0
  8 32  1  0
  8 33  1  0
  9 34  1  0
  9 35  1  0
 10 36  1  0
 10 37  1  0
 11 38  1  0
 11 39  1  0
 12 40  1  1
 13 41  1  0
 14 42  1  0
 14 43  1  0
 15 44  1  0
 15 45  1  0
 17 46  1  0
 17 47  1  0
 18 48  1  0
 18 49  1  0
 20 50  1  0
 21 51  1  0
 23 52  1  0
 24 53  1  0
 25 54  1  0
 26 55  1  0
M  END
>  <meeko>  (3) 
{"free_energy": -8.41, "intermolecular_energy": -9.9, "internal_energy": -2.0, "cluster_size": 9, "cluster_id": 2, "rank_in_cluster": 9}

$$$$

     RDKit          3D

 55 58  0  0  0  0  0  0  0  0999 V2000
  140.8150   71.3560  221.2630 O   0  0  0  0  0  0  0  0  0  0  0  0
  140.3450   71.9500  222.2910 C   0  0  0  0  0  0  0  0  0  0  0  0
  139.9670   73.2990  222.2030 N   0  0  0  0  0  0  0  0  0  0  0  0
  140.0760   74.0740  221.0050 C   0  0  0  0  0  0  0  0  0  0  0  0
  141.1390   75.0970  221.1560 C   0  0  0  0  0  0  0  0  0  0  0  0
  141.1100   75.7850  222.2190 O   0  0  0  0  0  0  0  0  0  0  0  0
  142.1330   75.2850  220.1490 N   0  0  0  0  0  0  0  0  0  0  0  0
  142.5800   76.6340  219.8590 C   0  0  0  0  0  0  0  0  0  0  0  0
  142.4890   76.7570  218.3310 C   0  0  0  0  0  0  0  0  0  0  0  0
  143.6890   75.9070  217.8960 C   0  0  0  0  0  0  0  0  0  0  0  0
  143.2760   74.4700  218.1180 C   0  0  0  0  0  0  0  0  0  0  0  0
  142.6760   74.1620  219.4390 C   0  0  1  0  0  0  0  0  0  0  0  0
  143.5090   73.3260  220.3800 C   0  0  0  0  0  0  0  0  0  0  0  0
  143.7340   71.9270  219.8950 C   0  0  0  0  0  0  0  0  0  0  0  0
  145.1770   71.5950  219.6030 C   0  0  0  0  0  0  0  0  0  0  0  0
  145.9330   72.6470  219.1860 O   0  0  0  0  0  0  0  0  0  0  0  0
  145.9780   73.7450  219.9930 C   0  0  0  0  0  0  0  0  0  0  0  0
  144.7770   73.9560  220.8480 C   0  0  0  0  0  0  0  0  0  0  0  0
  140.1990   71.2220  223.5690 C   0  0  0  0  0  0  0  0  0  0  0  0
  139.5650   69.9910  223.5810 C   0  0  0  0  0  0  0  0  0  0  0  0
  139.4460   69.3330  224.8030 C   0  0  0  0  0  0  0  0  0  0  0  0
  139.9340   69.8790  225.9520 C   0  0  0  0  0  0  0  0  0  0  0  0
  139.8530   69.2860  227.1970 C   0  0  0  0  0  0  0  0  0  0  0  0
  140.3720   69.8940  228.3390 C   0  0  0  0  0  0  0  0  0  0  0  0
  140.9860   71.1120  228.2560 C   0  0  0  0  0  0  0  0  0  0  0  0
  141.0750   71.7190  227.0090 C   0  0  0  0  0  0  0  0  0  0  0  0
  140.5540   71.1100  225.8670 C   0  0  0  0  0  0  0  0  0  0  0  0
  140.6830   71.7660  224.6990 N   0  0  0  0  0  0  0  0  0  0  0  0
  139.5820   73.7430  223.0880 H   0  0  0  0  0  0  0  0  0  0  0  0
  140.3260   73.4107  220.1639 H   0  0  0  0  0  0  0  0  0  0  0  0
  139.1167   74.5767  220.8123 H   0  0  0  0  0  0  0  0  0  0  0  0
  141.9264   77.3721  220.3468 H   0  0  0  0  0  0  0  0  0  0  0  0
  143.5977   76.8234  220.2311 H   0  0  0  0  0  0  0  0  0  0  0  0
  141.5431   76.3460  217.9484 H   0  0  0  0  0  0  0  0  0  0  0  0
  142.5076   77.7916  217.9578 H   0  0  0  0  0  0  0  0  0  0  0  0
  143.9168   76.0806  216.8340 H   0  0  0  0  0  0  0  0  0  0  0  0
  144.5943   76.1615  218.4667 H   0  0  0  0  0  0  0  0  0  0  0  0
  142.5389   74.2084  217.3445 H   0  0  0  0  0  0  0  0  0  0  0  0
  144.2057   73.8839  218.0709 H   0  0  0  0  0  0  0  0  0  0  0  0
  141.8383   73.5299  219.1094 H   0  0  0  0  0  0  0  0  0  0  0  0
  142.8741   73.2662  221.2763 H   0  0  0  0  0  0  0  0  0  0  0  0
  143.3700   71.2323  220.6664 H   0  0  0  0  0  0  0  0  0  0  0  0
  143.1904   71.8325  218.9434 H   0  0  0  0  0  0  0  0  0  0  0  0
  145.6281   71.1929  220.5221 H   0  0  0  0  0  0  0  0  0  0  0  0
  145.1662   70.8739  218.7724 H   0  0  0  0  0  0  0  0  0  0  0  0
  146.8521   73.6458  220.6534 H   0  0  0  0  0  0  0  0  0  0  0  0
  146.0296   74.6144  219.3211 H   0  0  0  0  0  0  0  0  0  0  0  0
  145.0022   73.5526  221.8463 H   0  0  0  0  0  0  0  0  0  0  0  0
  144.5897   75.0397  220.8252 H   0  0  0  0  0  0  0  0  0  0  0  0
  139.1684   69.5473  222.6559 H   0  0  0  0  0  0  0  0  0  0  0  0
  138.9480   68.3529  224.8411 H   0  0  0  0  0  0  0  0  0  0  0  0
  139.3644   68.3049  227.2900 H   0  0  0  0  0  0  0  0  0  0  0  0
  140.2868   69.3902  229.3131 H   0  0  0  0  0  0  0  0  0  0  0  0
  141.3986   71.5988  229.1520 H   0  0  0  0  0  0  0  0  0  0  0  0
  141.5661   72.6993  226.9206 H   0  0  0  0  0  0  0  0  0  0  0  0
  1  2  2  0
  2  3  1  0
  3  4  1  0
  4  5  1  0
  5  6  2  0
  5  7  1  0
  7  8  1  0
  8  9  1  0
  9 10  1  0
 10 11  1  0
 11 12  1  0
 12 13  1  0
 13 14  1  0
 14 15  1  0
 15 16  1  0
 16 17  1  0
 17 18  1  0
  2 19  1  0
 19 20  2  0
 20 21  1  0
 21 22  2  0
 22 23  1  0
 23 24  2  0
 24 25  1  0
 25 26  2  0
 26 27  1  0
 27 28  2  0
 12  7  1  0
 18 13  1  0
 28 19  1  0
 27 22  1  0
  3 29  1  0
  4 30  1  0
  4 31  1  0
  8 32  1  0
  8 33  1  0
  9 34  1  0
  9 35  1  0
 10 36  1  0
 10 37  1  0
 11 38  1  0
 11 39  1  0
 12 40  1  6
 13 41  1  0
 14 42  1  0
 14 43  1  0
 15 44  1  0
 15 45  1  0
 17 46  1  0
 17 47  1  0
 18 48  1  0
 18 49  1  0
 20 50  1  0
 21 51  1  0
 23 52  1  0
 24 53  1  0
 25 54  1  0
 26 55  1  0
M  END
>  <meeko>  (4) 
{"free_energy": -8.91, "intermolecular_energy": -10.4, "internal_energy": -1.94, "cluster_size": 11, "cluster_id": 1, "rank_in_cluster": 1}

$$$$

     RDKit          3D

 55 58  0  0  0  0  0  0  0  0999 V2000
  139.3410   70.9000  221.2870 O   0  0  0  0  0  0  0  0  0  0  0  0
  139.5380   71.5560  222.3650 C   0  0  0  0  0  0  0  0  0  0  0  0
  139.5890   72.9580  222.3280 N   0  0  0  0  0  0  0  0  0  0  0  0
  139.4300   73.7230  221.1290 C   0  0  0  0  0  0  0  0  0  0  0  0
  140.6120   73.5440  220.2510 C   0  0  0  0  0  0  0  0  0  0  0  0
  140.6540   72.4700  219.5790 O   0  0  0  0  0  0  0  0  0  0  0  0
  141.6360   74.5340  220.1770 N   0  0  0  0  0  0  0  0  0  0  0  0
  141.3800   75.8400  220.7520 C   0  0  0  0  0  0  0  0  0  0  0  0
  141.7730   76.8370  219.6520 C   0  0  0  0  0  0  0  0  0  0  0  0
  143.3030   76.7430  219.7050 C   0  0  0  0  0  0  0  0  0  0  0  0
  143.6550   75.4190  219.0670 C   0  0  0  0  0  0  0  0  0  0  0  0
  142.8920   74.2420  219.5460 C   0  0  1  0  0  0  0  0  0  0  0  0
  143.6520   73.2370  220.3790 C   0  0  0  0  0  0  0  0  0  0  0  0
  143.7160   71.8760  219.7590 C   0  0  0  0  0  0  0  0  0  0  0  0
  145.1070   71.4240  219.3900 C   0  0  0  0  0  0  0  0  0  0  0  0
  145.9620   72.4270  219.0480 O   0  0  0  0  0  0  0  0  0  0  0  0
  146.1420   73.4320  219.9510 C   0  0  0  0  0  0  0  0  0  0  0  0
  144.9910   73.6840  220.8610 C   0  0  0  0  0  0  0  0  0  0  0  0
  139.7120   70.8420  223.6480 C   0  0  0  0  0  0  0  0  0  0  0  0
  139.3590   69.5050  223.7350 C   0  0  0  0  0  0  0  0  0  0  0  0
  139.5370   68.8650  224.9590 C   0  0  0  0  0  0  0  0  0  0  0  0
  140.0400   69.5270  226.0390 C   0  0  0  0  0  0  0  0  0  0  0  0
  140.2440   68.9590  227.2810 C   0  0  0  0  0  0  0  0  0  0  0  0
  140.7620   69.6880  228.3500 C   0  0  0  0  0  0  0  0  0  0  0  0
  141.0890   71.0060  228.1940 C   0  0  0  0  0  0  0  0  0  0  0  0
  140.8900   71.5900  226.9500 C   0  0  0  0  0  0  0  0  0  0  0  0
  140.3700   70.8600  225.8800 C   0  0  0  0  0  0  0  0  0  0  0  0
  140.2090   71.5010  224.7090 N   0  0  0  0  0  0  0  0  0  0  0  0
  139.7540   73.4520  223.2530 H   0  0  0  0  0  0  0  0  0  0  0  0
  138.5278   73.3848  220.5983 H   0  0  0  0  0  0  0  0  0  0  0  0
  139.3329   74.7871  221.3905 H   0  0  0  0  0  0  0  0  0  0  0  0
  140.3163   75.9478  221.0106 H   0  0  0  0  0  0  0  0  0  0  0  0
  141.9458   76.0027  221.6812 H   0  0  0  0  0  0  0  0  0  0  0  0
  141.3831   76.5299  218.6703 H   0  0  0  0  0  0  0  0  0  0  0  0
  141.3757   77.8524  219.7973 H   0  0  0  0  0  0  0  0  0  0  0  0
  143.7577   77.5722  219.1431 H   0  0  0  0  0  0  0  0  0  0  0  0
  143.6777   76.8081  220.7372 H   0  0  0  0  0  0  0  0  0  0  0  0
  143.4852   75.5118  217.9842 H   0  0  0  0  0  0  0  0  0  0  0  0
  144.7018   75.2259  219.3444 H   0  0  0  0  0  0  0  0  0  0  0  0
  142.6848   73.7610  218.5787 H   0  0  0  0  0  0  0  0  0  0  0  0
  143.0347   73.1582  221.2861 H   0  0  0  0  0  0  0  0  0  0  0  0
  143.2974   71.1523  220.4739 H   0  0  0  0  0  0  0  0  0  0  0  0
  143.1447   71.9314  218.8206 H   0  0  0  0  0  0  0  0  0  0  0  0
  145.5332   70.8903  220.2522 H   0  0  0  0  0  0  0  0  0  0  0  0
  144.9998   70.7909  218.4969 H   0  0  0  0  0  0  0  0  0  0  0  0
  147.0157   73.1801  220.5700 H   0  0  0  0  0  0  0  0  0  0  0  0
  146.2700   74.3515  219.3609 H   0  0  0  0  0  0  0  0  0  0  0  0
  145.1950   73.1657  221.8095 H   0  0  0  0  0  0  0  0  0  0  0  0
  144.9200   74.7785  220.9449 H   0  0  0  0  0  0  0  0  0  0  0  0
  138.9517   68.9670  222.8663 H   0  0  0  0  0  0  0  0  0  0  0  0
  139.2661   67.8033  225.0562 H   0  0  0  0  0  0  0  0  0  0  0  0
  139.9901   67.8993  227.4312 H   0  0  0  0  0  0  0  0  0  0  0  0
  140.9085   69.1999  229.3248 H   0  0  0  0  0  0  0  0  0  0  0  0
  141.4991   71.5888  229.0320 H   0  0  0  0  0  0  0  0  0  0  0  0
  141.1474   72.6496  226.8048 H   0  0  0  0  0  0  0  0  0  0  0  0
  1  2  2  0
  2  3  1  0
  3  4  1  0
  4  5  1  0
  5  6  2  0
  5  7  1  0
  7  8  1  0
  8  9  1  0
  9 10  1  0
 10 11  1  0
 11 12  1  0
 12 13  1  0
 13 14  1  0
 14 15  1  0
 15 16  1  0
 16 17  1  0
 17 18  1  0
  2 19  1  0
 19 20  2  0
 20 21  1  0
 21 22  2  0
 22 23  1  0
 23 24  2  0
 24 25  1  0
 25 26  2  0
 26 27  1  0
 27 28  2  0
 12  7  1  0
 18 13  1  0
 28 19  1  0
 27 22  1  0
  3 29  1  0
  4 30  1  0
  4 31  1  0
  8 32  1  0
  8 33  1  0
  9 34  1  0
  9 35  1  0
 10 36  1  0
 10 37  1  0
 11 38  1  0
 11 39  1  0
 12 40  1  6
 13 41  1  0
 14 42  1  0
 14 43  1  0
 15 44  1  0
 15 45  1  0
 17 46  1  0
 17 47  1  0
 18 48  1  0
 18 49  1  0
 20 50  1  0
 21 51  1  0
 23 52  1  0
 24 53  1  0
 25 54  1  0
 26 55  1  0
M  END
>  <meeko>  (5) 
{"free_energy": -8.51, "intermolecular_energy": -10.0, "internal_energy": -1.7, "cluster_size": 11, "cluster_id": 1, "rank_in_cluster": 11}

$$$$

     RDKit          3D

 55 58  0  0  0  0  0  0  0  0999 V2000
  140.2800   71.3980  221.2350 O   0  0  0  0  0  0  0  0  0  0  0  0
  140.0390   71.9900  222.3400 C   0  0  0  0  0  0  0  0  0  0  0  0
  139.7730   73.3690  222.3480 N   0  0  0  0  0  0  0  0  0  0  0  0
  139.7530   74.1770  221.1670 C   0  0  0  0  0  0  0  0  0  0  0  0
  139.9390   75.6040  221.5240 C   0  0  0  0  0  0  0  0  0  0  0  0
  139.6480   75.9280  222.7140 O   0  0  0  0  0  0  0  0  0  0  0  0
  140.4180   76.5490  220.5690 N   0  0  0  0  0  0  0  0  0  0  0  0
  139.8750   76.5120  219.2240 C   0  0  0  0  0  0  0  0  0  0  0  0
  141.1040   76.5150  218.3040 C   0  0  0  0  0  0  0  0  0  0  0  0
  141.5670   77.9710  218.4380 C   0  0  0  0  0  0  0  0  0  0  0  0
  142.2000   78.0770  219.8060 C   0  0  0  0  0  0  0  0  0  0  0  0
  141.4160   77.5140  220.9320 C   0  0  1  0  0  0  0  0  0  0  0  0
  140.8280   78.5050  221.9070 C   0  0  0  0  0  0  0  0  0  0  0  0
  141.4270   78.4210  223.2770 C   0  0  0  0  0  0  0  0  0  0  0  0
  142.1760   79.6580  223.7060 C   0  0  0  0  0  0  0  0  0  0  0  0
  142.7590   80.3540  222.6910 O   0  0  0  0  0  0  0  0  0  0  0  0
  141.9550   80.7620  221.6680 C   0  0  0  0  0  0  0  0  0  0  0  0
  140.7550   79.9150  221.4250 C   0  0  0  0  0  0  0  0  0  0  0  0
  140.0390   71.2280  223.6070 C   0  0  0  0  0  0  0  0  0  0  0  0
  139.5640   69.9280  223.6180 C   0  0  0  0  0  0  0  0  0  0  0  0
  139.5810   69.2410  224.8290 C   0  0  0  0  0  0  0  0  0  0  0  0
  140.0450   69.8240  225.9690 C   0  0  0  0  0  0  0  0  0  0  0  0
  140.0920   69.2060  227.2040 C   0  0  0  0  0  0  0  0  0  0  0  0
  140.5790   69.8550  228.3360 C   0  0  0  0  0  0  0  0  0  0  0  0
  141.0330   71.1410  228.2550 C   0  0  0  0  0  0  0  0  0  0  0  0
  140.9930   71.7750  227.0190 C   0  0  0  0  0  0  0  0  0  0  0  0
  140.5040   71.1250  225.8850 C   0  0  0  0  0  0  0  0  0  0  0  0
  140.5000   71.8110  224.7280 N   0  0  0  0  0  0  0  0  0  0  0  0
  139.5780   73.8090  223.2940 H   0  0  0  0  0  0  0  0  0  0  0  0
  140.5652   73.8608  220.4959 H   0  0  0  0  0  0  0  0  0  0  0  0
  138.7828   74.0550  220.6631 H   0  0  0  0  0  0  0  0  0  0  0  0
  139.2793   75.5999  219.0717 H   0  0  0  0  0  0  0  0  0  0  0  0
  139.2046   77.3608  219.0236 H   0  0  0  0  0  0  0  0  0  0  0  0
  141.8737   75.8124  218.6560 H   0  0  0  0  0  0  0  0  0  0  0  0
  140.8977   76.1983  217.2710 H   0  0  0  0  0  0  0  0  0  0  0  0
  142.3019   78.2129  217.6560 H   0  0  0  0  0  0  0  0  0  0  0  0
  140.7292   78.6746  218.3238 H   0  0  0  0  0  0  0  0  0  0  0  0
  143.1651   77.5503  219.7717 H   0  0  0  0  0  0  0  0  0  0  0  0
  142.2814   79.1545  220.0117 H   0  0  0  0  0  0  0  0  0  0  0  0
  142.2225   76.9870  221.4629 H   0  0  0  0  0  0  0  0  0  0  0  0
  139.7810   78.1763  221.9836 H   0  0  0  0  0  0  0  0  0  0  0  0
  140.6149   78.2433  223.9973 H   0  0  0  0  0  0  0  0  0  0  0  0
  142.1617   77.6028  223.2490 H   0  0  0  0  0  0  0  0  0  0  0  0
  141.4677   80.3269  224.2168 H   0  0  0  0  0  0  0  0  0  0  0  0
  142.9945   79.3144  224.3556 H   0  0  0  0  0  0  0  0  0  0  0  0
  141.6109   81.7824  221.8925 H   0  0  0  0  0  0  0  0  0  0  0  0
  142.5655   80.6934  220.7555 H   0  0  0  0  0  0  0  0  0  0  0  0
  139.9002   80.3951  221.9239 H   0  0  0  0  0  0  0  0  0  0  0  0
  140.6643   79.8448  220.3310 H   0  0  0  0  0  0  0  0  0  0  0  0
  139.1857   69.4534  222.7006 H   0  0  0  0  0  0  0  0  0  0  0  0
  139.2118   68.2054  224.8657 H   0  0  0  0  0  0  0  0  0  0  0  0
  139.7339   68.1700  227.2959 H   0  0  0  0  0  0  0  0  0  0  0  0
  140.5982   69.3286  229.3017 H   0  0  0  0  0  0  0  0  0  0  0  0
  141.4198   71.6605  229.1441 H   0  0  0  0  0  0  0  0  0  0  0  0
  141.3542   72.8104  226.9327 H   0  0  0  0  0  0  0  0  0  0  0  0
  1  2  2  0
  2  3  1  0
  3  4  1  0
  4  5  1  0
  5  6  2  0
  5  7  1  0
  7  8  1  0
  8  9  1  0
  9 10  1  0
 10 11  1  0
 11 12  1  0
 12 13  1  0
 13 14  1  0
 14 15  1  0
 15 16  1  0
 16 17  1  0
 17 18  1  0
  2 19  1  0
 19 20  2  0
 20 21  1  0
 21 22  2  0
 22 23  1  0
 23 24  2  0
 24 25  1  0
 25 26  2  0
 26 27  1  0
 27 28  2  0
 12  7  1  0
 18 13  1  0
 28 19  1  0
 27 22  1  0
  3 29  1  0
  4 30  1  0
  4 31  1  0
  8 32  1  0
  8 33  1  0
  9 34  1  0
  9 35  1  0
 10 36  1  0
 10 37  1  0
 11 38  1  0
 11 39  1  0
 12 40  1  1
 13 41  1  0
 14 42  1  0
 14 43  1  0
 15 44  1  0
 15 45  1  0
 17 46  1  0
 17 47  1  0
 18 48  1  0
 18 49  1  0
 20 50  1  0
 21 51  1  0
 23 52  1  0
 24 53  1  0
 25 54  1  0
 26 55  1  0
M  END
>  <meeko>  (6) 
{"free_energy": -8.44, "intermolecular_energy": -9.93, "internal_energy": -1.98, "cluster_size": 9, "cluster_id": 2, "rank_in_cluster": 7}

$$$$

     RDKit          3D

 55 58  0  0  0  0  0  0  0  0999 V2000
  140.7810   71.3830  221.2590 O   0  0  0  0  0  0  0  0  0  0  0  0
  140.3440   71.9840  222.2970 C   0  0  0  0  0  0  0  0  0  0  0  0
  139.9750   73.3360  222.2160 N   0  0  0  0  0  0  0  0  0  0  0  0
  140.0590   74.1060  221.0130 C   0  0  0  0  0  0  0  0  0  0  0  0
  141.1400   75.1140  221.1280 C   0  0  0  0  0  0  0  0  0  0  0  0
  141.1280   75.8350  222.1710 O   0  0  0  0  0  0  0  0  0  0  0  0
  142.1330   75.2540  220.1120 N   0  0  0  0  0  0  0  0  0  0  0  0
  142.6180   76.5840  219.7960 C   0  0  0  0  0  0  0  0  0  0  0  0
  142.5210   76.6840  218.2670 C   0  0  0  0  0  0  0  0  0  0  0  0
  143.6910   75.7900  217.8390 C   0  0  0  0  0  0  0  0  0  0  0  0
  143.2360   74.3710  218.0890 C   0  0  0  0  0  0  0  0  0  0  0  0
  142.6370   74.1030  219.4180 C   0  0  1  0  0  0  0  0  0  0  0  0
  143.4500   73.2580  220.3690 C   0  0  0  0  0  0  0  0  0  0  0  0
  143.7080   71.8730  219.8630 C   0  0  0  0  0  0  0  0  0  0  0  0
  145.1630   71.5650  219.6100 C   0  0  0  0  0  0  0  0  0  0  0  0
  145.9190   72.6340  219.2390 O   0  0  0  0  0  0  0  0  0  0  0  0
  145.9240   73.7160  220.0690 C   0  0  0  0  0  0  0  0  0  0  0  0
  144.6940   73.8950  220.8890 C   0  0  0  0  0  0  0  0  0  0  0  0
  140.2270   71.2600  223.5810 C   0  0  0  0  0  0  0  0  0  0  0  0
  139.6320   70.0100  223.6040 C   0  0  0  0  0  0  0  0  0  0  0  0
  139.5390   69.3570  224.8310 C   0  0  0  0  0  0  0  0  0  0  0  0
  140.0140   69.9260  225.9740 C   0  0  0  0  0  0  0  0  0  0  0  0
  139.9570   69.3400  227.2240 C   0  0  0  0  0  0  0  0  0  0  0  0
  140.4610   69.9720  228.3590 C   0  0  0  0  0  0  0  0  0  0  0  0
  141.0360   71.2080  228.2650 C   0  0  0  0  0  0  0  0  0  0  0  0
  141.1010   71.8090  227.0140 C   0  0  0  0  0  0  0  0  0  0  0  0
  140.5950   71.1760  225.8780 C   0  0  0  0  0  0  0  0  0  0  0  0
  140.6980   71.8280  224.7050 N   0  0  0  0  0  0  0  0  0  0  0  0
  139.6180   73.7850  223.1090 H   0  0  0  0  0  0  0  0  0  0  0  0
  140.2740   73.4368  220.1669 H   0  0  0  0  0  0  0  0  0  0  0  0
  139.1016   74.6219  220.8481 H   0  0  0  0  0  0  0  0  0  0  0  0
  141.9898   77.3495  220.2750 H   0  0  0  0  0  0  0  0  0  0  0  0
  143.6433   76.7490  220.1586 H   0  0  0  0  0  0  0  0  0  0  0  0
  141.5603   76.2962  217.8972 H   0  0  0  0  0  0  0  0  0  0  0  0
  142.5694   77.7112  217.8763 H   0  0  0  0  0  0  0  0  0  0  0  0
  143.9163   75.9380  216.7725 H   0  0  0  0  0  0  0  0  0  0  0  0
  144.6078   76.0264  218.3990 H   0  0  0  0  0  0  0  0  0  0  0  0
  142.4856   74.1192  217.3252 H   0  0  0  0  0  0  0  0  0  0  0  0
  144.1474   73.7566  218.0463 H   0  0  0  0  0  0  0  0  0  0  0  0
  141.7795   73.4898  219.1038 H   0  0  0  0  0  0  0  0  0  0  0  0
  142.7888   73.1709  221.2437 H   0  0  0  0  0  0  0  0  0  0  0  0
  143.3291   71.1580  220.6081 H   0  0  0  0  0  0  0  0  0  0  0  0
  143.1957   71.7917  218.8930 H   0  0  0  0  0  0  0  0  0  0  0  0
  145.5899   71.1490  220.5345 H   0  0  0  0  0  0  0  0  0  0  0  0
  145.1869   70.8620  218.7643 H   0  0  0  0  0  0  0  0  0  0  0  0
  146.7778   73.6141  220.7550 H   0  0  0  0  0  0  0  0  0  0  0  0
  145.9857   74.5994  219.4165 H   0  0  0  0  0  0  0  0  0  0  0  0
  144.8929   73.4752  221.8861 H   0  0  0  0  0  0  0  0  0  0  0  0
  144.4930   74.9765  220.8808 H   0  0  0  0  0  0  0  0  0  0  0  0
  139.2455   69.5478  222.6837 H   0  0  0  0  0  0  0  0  0  0  0  0
  139.0726   68.3619  224.8779 H   0  0  0  0  0  0  0  0  0  0  0  0
  139.5000   68.3446  227.3262 H   0  0  0  0  0  0  0  0  0  0  0  0
  140.3956   69.4727  229.3370 H   0  0  0  0  0  0  0  0  0  0  0  0
  141.4367   71.7137  229.1559 H   0  0  0  0  0  0  0  0  0  0  0  0
  141.5605   72.8037  226.9171 H   0  0  0  0  0  0  0  0  0  0  0  0
  1  2  2  0
  2  3  1  0
  3  4  1  0
  4  5  1  0
  5  6  2  0
  5  7  1  0
  7  8  1  0
  8  9  1  0
  9 10  1  0
 10 11  1  0
 11 12  1  0
 12 13  1  0
 13 14  1  0
 14 15  1  0
 15 16  1  0
 16 17  1  0
 17 18  1  0
  2 19  1  0
 19 20  2  0
 20 21  1  0
 21 22  2  0
 22 23  1  0
 23 24  2  0
 24 25  1  0
 25 26  2  0
 26 27  1  0
 27 28  2  0
 12  7  1  0
 18 13  1  0
 28 19  1  0
 27 22  1  0
  3 29  1  0
  4 30  1  0
  4 31  1  0
  8 32  1  0
  8 33  1  0
  9 34  1  0
  9 35  1  0
 10 36  1  0
 10 37  1  0
 11 38  1  0
 11 39  1  0
 12 40  1  6
 13 41  1  0
 14 42  1  0
 14 43  1  0
 15 44  1  0
 15 45  1  0
 17 46  1  0
 17 47  1  0
 18 48  1  0
 18 49  1  0
 20 50  1  0
 21 51  1  0
 23 52  1  0
 24 53  1  0
 25 54  1  0
 26 55  1  0
M  END
>  <meeko>  (7) 
{"free_energy": -8.85, "intermolecular_energy": -10.34, "internal_energy": -1.97, "cluster_size": 11, "cluster_id": 1, "rank_in_cluster": 8}

$$$$

     RDKit          3D

 55 58  0  0  0  0  0  0  0  0999 V2000
  140.5750   71.4820  221.2820 O   0  0  0  0  0  0  0  0  0  0  0  0
  140.2050   72.0560  222.3600 C   0  0  0  0  0  0  0  0  0  0  0  0
  139.8640   73.4170  222.3430 N   0  0  0  0  0  0  0  0  0  0  0  0
  139.9050   74.2280  221.1640 C   0  0  0  0  0  0  0  0  0  0  0  0
  139.9480   75.6630  221.5350 C   0  0  0  0  0  0  0  0  0  0  0  0
  139.5700   75.9520  222.7090 O   0  0  0  0  0  0  0  0  0  0  0  0
  140.3940   76.6530  220.6090 N   0  0  0  0  0  0  0  0  0  0  0  0
  139.8260   76.6590  219.2740 C   0  0  0  0  0  0  0  0  0  0  0  0
  141.0370   76.7180  218.3320 C   0  0  0  0  0  0  0  0  0  0  0  0
  141.4800   78.1750  218.5150 C   0  0  0  0  0  0  0  0  0  0  0  0
  142.1380   78.2370  219.8730 C   0  0  0  0  0  0  0  0  0  0  0  0
  141.3850   77.6180  220.9910 C   0  0  1  0  0  0  0  0  0  0  0  0
  140.8010   78.5600  222.0150 C   0  0  0  0  0  0  0  0  0  0  0  0
  141.4580   78.4620  223.3580 C   0  0  0  0  0  0  0  0  0  0  0  0
  142.1780   79.7140  223.7910 C   0  0  0  0  0  0  0  0  0  0  0  0
  142.6940   80.4580  222.7750 O   0  0  0  0  0  0  0  0  0  0  0  0
  141.8360   80.8630  221.7960 C   0  0  0  0  0  0  0  0  0  0  0  0
  140.6590   79.9790  221.5760 C   0  0  0  0  0  0  0  0  0  0  0  0
  140.1340   71.2900  223.6230 C   0  0  0  0  0  0  0  0  0  0  0  0
  139.5870   70.0180  223.6170 C   0  0  0  0  0  0  0  0  0  0  0  0
  139.5380   69.3270  224.8250 C   0  0  0  0  0  0  0  0  0  0  0  0
  140.0090   69.8790  225.9780 C   0  0  0  0  0  0  0  0  0  0  0  0
  139.9940   69.2540  227.2100 C   0  0  0  0  0  0  0  0  0  0  0  0
  140.4920   69.8710  228.3560 C   0  0  0  0  0  0  0  0  0  0  0  0
  141.0190   71.1300  228.2910 C   0  0  0  0  0  0  0  0  0  0  0  0
  141.0410   71.7700  227.0580 C   0  0  0  0  0  0  0  0  0  0  0  0
  140.5420   71.1520  225.9110 C   0  0  0  0  0  0  0  0  0  0  0  0
  140.6020   71.8420  224.7570 N   0  0  0  0  0  0  0  0  0  0  0  0
  139.5620   73.8430  223.2680 H   0  0  0  0  0  0  0  0  0  0  0  0
  140.8024   73.9760  220.5799 H   0  0  0  0  0  0  0  0  0  0  0  0
  139.0029   74.0377  220.5641 H   0  0  0  0  0  0  0  0  0  0  0  0
  139.2421   75.7437  219.0974 H   0  0  0  0  0  0  0  0  0  0  0  0
  139.1385   77.5036  219.1194 H   0  0  0  0  0  0  0  0  0  0  0  0
  141.8241   76.0146  218.6415 H   0  0  0  0  0  0  0  0  0  0  0  0
  140.8157   76.4388  217.2913 H   0  0  0  0  0  0  0  0  0  0  0  0
  142.1953   78.4595  217.7293 H   0  0  0  0  0  0  0  0  0  0  0  0
  140.6293   78.8689  218.4450 H   0  0  0  0  0  0  0  0  0  0  0  0
  143.1099   77.7272  219.7993 H   0  0  0  0  0  0  0  0  0  0  0  0
  142.2074   79.3068  220.1195 H   0  0  0  0  0  0  0  0  0  0  0  0
  142.2099   77.0837  221.4850 H   0  0  0  0  0  0  0  0  0  0  0  0
  139.7703   78.1912  222.1229 H   0  0  0  0  0  0  0  0  0  0  0  0
  140.6828   78.2350  224.1047 H   0  0  0  0  0  0  0  0  0  0  0  0
  142.2201   77.6728  223.2783 H   0  0  0  0  0  0  0  0  0  0  0  0
  141.4669   80.3421  224.3476 H   0  0  0  0  0  0  0  0  0  0  0  0
  143.0341   79.3837  224.3976 H   0  0  0  0  0  0  0  0  0  0  0  0
  141.4645   81.8635  222.0623 H   0  0  0  0  0  0  0  0  0  0  0  0
  142.4118   80.8416  220.8590 H   0  0  0  0  0  0  0  0  0  0  0  0
  139.8080   80.4138  222.1207 H   0  0  0  0  0  0  0  0  0  0  0  0
  140.5282   79.9345  220.4847 H   0  0  0  0  0  0  0  0  0  0  0  0
  139.2040   69.5684  222.6890 H   0  0  0  0  0  0  0  0  0  0  0  0
  139.1099   68.3140  224.8488 H   0  0  0  0  0  0  0  0  0  0  0  0
  139.5766   68.2393  227.2887 H   0  0  0  0  0  0  0  0  0  0  0  0
  140.4606   69.3409  229.3194 H   0  0  0  0  0  0  0  0  0  0  0  0
  141.4152   71.6236  229.1907 H   0  0  0  0  0  0  0  0  0  0  0  0
  141.4603   72.7843  226.9847 H   0  0  0  0  0  0  0  0  0  0  0  0
  1  2  2  0
  2  3  1  0
  3  4  1  0
  4  5  1  0
  5  6  2  0
  5  7  1  0
  7  8  1  0
  8  9  1  0
  9 10  1  0
 10 11  1  0
 11 12  1  0
 12 13  1  0
 13 14  1  0
 14 15  1  0
 15 16  1  0
 16 17  1  0
 17 18  1  0
  2 19  1  0
 19 20  2  0
 20 21  1  0
 21 22  2  0
 22 23  1  0
 23 24  2  0
 24 25  1  0
 25 26  2  0
 26 27  1  0
 27 28  2  0
 12  7  1  0
 18 13  1  0
 28 19  1  0
 27 22  1  0
  3 29  1  0
  4 30  1  0
  4 31  1  0
  8 32  1  0
  8 33  1  0
  9 34  1  0
  9 35  1  0
 10 36  1  0
 10 37  1  0
 11 38  1  0
 11 39  1  0
 12 40  1  1
 13 41  1  0
 14 42  1  0
 14 43  1  0
 15 44  1  0
 15 45  1  0
 17 46  1  0
 17 47  1  0
 18 48  1  0
 18 49  1  0
 20 50  1  0
 21 51  1  0
 23 52  1  0
 24 53  1  0
 25 54  1  0
 26 55  1  0
M  END
>  <meeko>  (8) 
{"free_energy": -8.48, "intermolecular_energy": -9.97, "internal_energy": -1.96, "cluster_size": 9, "cluster_id": 2, "rank_in_cluster": 3}

$$$$

     RDKit          3D

 55 58  0  0  0  0  0  0  0  0999 V2000
  141.2860   71.7920  221.4730 O   0  0  0  0  0  0  0  0  0  0  0  0
  140.5510   72.2490  222.4120 C   0  0  0  0  0  0  0  0  0  0  0  0
  139.9900   73.5310  222.2960 N   0  0  0  0  0  0  0  0  0  0  0  0
  140.1920   74.3830  221.1640 C   0  0  0  0  0  0  0  0  0  0  0  0
  139.9890   75.8000  221.5510 C   0  0  0  0  0  0  0  0  0  0  0  0
  139.5450   76.0050  222.7200 O   0  0  0  0  0  0  0  0  0  0  0  0
  140.2820   76.8630  220.6460 N   0  0  0  0  0  0  0  0  0  0  0  0
  139.5770   76.9080  219.3790 C   0  0  0  0  0  0  0  0  0  0  0  0
  140.6780   77.0900  218.3240 C   0  0  0  0  0  0  0  0  0  0  0  0
  141.0590   78.5590  218.5480 C   0  0  0  0  0  0  0  0  0  0  0  0
  141.8520   78.5860  219.8340 C   0  0  0  0  0  0  0  0  0  0  0  0
  141.2540   77.8640  220.9830 C   0  0  1  0  0  0  0  0  0  0  0  0
  140.7300   78.7130  222.1170 C   0  0  0  0  0  0  0  0  0  0  0  0
  141.5260   78.5780  223.3780 C   0  0  0  0  0  0  0  0  0  0  0  0
  142.2210   79.8450  223.8130 C   0  0  0  0  0  0  0  0  0  0  0  0
  142.5900   80.6720  222.7970 O   0  0  0  0  0  0  0  0  0  0  0  0
  141.6160   81.0800  221.9350 C   0  0  0  0  0  0  0  0  0  0  0  0
  140.4690   80.1420  221.7810 C   0  0  0  0  0  0  0  0  0  0  0  0
  140.2920   71.4330  223.6170 C   0  0  0  0  0  0  0  0  0  0  0  0
  139.6050   70.2370  223.4920 C   0  0  0  0  0  0  0  0  0  0  0  0
  139.3800   69.4940  224.6490 C   0  0  0  0  0  0  0  0  0  0  0  0
  139.8160   69.9260  225.8650 C   0  0  0  0  0  0  0  0  0  0  0  0
  139.6300   69.2440  227.0520 C   0  0  0  0  0  0  0  0  0  0  0  0
  140.1000   69.7380  228.2680 C   0  0  0  0  0  0  0  0  0  0  0  0
  140.7710   70.9270  228.3190 C   0  0  0  0  0  0  0  0  0  0  0  0
  140.9660   71.6230  227.1330 C   0  0  0  0  0  0  0  0  0  0  0  0
  140.4940   71.1290  225.9160 C   0  0  0  0  0  0  0  0  0  0  0  0
  140.7260   71.8660  224.8140 N   0  0  0  0  0  0  0  0  0  0  0  0
  139.3870   73.8600  223.1060 H   0  0  0  0  0  0  0  0  0  0  0  0
  141.2174   74.2517  220.7880 H   0  0  0  0  0  0  0  0  0  0  0  0
  139.4689   74.1167  220.3790 H   0  0  0  0  0  0  0  0  0  0  0  0
  139.0274   75.9707  219.2078 H   0  0  0  0  0  0  0  0  0  0  0  0
  138.8327   77.7173  219.3464 H   0  0  0  0  0  0  0  0  0  0  0  0
  141.5298   76.4191  218.5093 H   0  0  0  0  0  0  0  0  0  0  0  0
  140.3642   76.8548  217.2963 H   0  0  0  0  0  0  0  0  0  0  0  0
  141.6717   78.9278  217.7121 H   0  0  0  0  0  0  0  0  0  0  0  0
  140.1698   79.2039  218.6065 H   0  0  0  0  0  0  0  0  0  0  0  0
  142.8365   78.1391  219.6315 H   0  0  0  0  0  0  0  0  0  0  0  0
  141.8903   79.6430  220.1360 H   0  0  0  0  0  0  0  0  0  0  0  0
  142.1538   77.3544  221.3581 H   0  0  0  0  0  0  0  0  0  0  0  0
  139.7364   78.2806  222.3062 H   0  0  0  0  0  0  0  0  0  0  0  0
  140.8451   78.2648  224.1832 H   0  0  0  0  0  0  0  0  0  0  0  0
  142.3157   77.8399  223.1742 H   0  0  0  0  0  0  0  0  0  0  0  0
  141.5391   80.3993  224.4747 H   0  0  0  0  0  0  0  0  0  0  0  0
  143.1508   79.5325  224.3107 H   0  0  0  0  0  0  0  0  0  0  0  0
  141.2227   82.0414  222.2969 H   0  0  0  0  0  0  0  0  0  0  0  0
  142.0923   81.1434  220.9455 H   0  0  0  0  0  0  0  0  0  0  0  0
  139.6574   80.4962  222.4336 H   0  0  0  0  0  0  0  0  0  0  0  0
  140.2278   80.1499  220.7078 H   0  0  0  0  0  0  0  0  0  0  0  0
  139.2490   69.8855  222.5124 H   0  0  0  0  0  0  0  0  0  0  0  0
  138.8391   68.5388  224.5790 H   0  0  0  0  0  0  0  0  0  0  0  0
  139.0953   68.2828  227.0372 H   0  0  0  0  0  0  0  0  0  0  0  0
  139.9295   69.1667  229.1924 H   0  0  0  0  0  0  0  0  0  0  0  0
  141.1469   71.3226  229.2741 H   0  0  0  0  0  0  0  0  0  0  0  0
  141.5032   72.5827  227.1533 H   0  0  0  0  0  0  0  0  0  0  0  0
  1  2  2  0
  2  3  1  0
  3  4  1  0
  4  5  1  0
  5  6  2  0
  5  7  1  0
  7  8  1  0
  8  9  1  0
  9 10  1  0
 10 11  1  0
 11 12  1  0
 12 13  1  0
 13 14  1  0
 14 15  1  0
 15 16  1  0
 16 17  1  0
 17 18  1  0
  2 19  1  0
 19 20  2  0
 20 21  1  0
 21 22  2  0
 22 23  1  0
 23 24  2  0
 24 25  1  0
 25 26  2  0
 26 27  1  0
 27 28  2  0
 12  7  1  0
 18 13  1  0
 28 19  1  0
 27 22  1  0
  3 29  1  0
  4 30  1  0
  4 31  1  0
  8 32  1  0
  8 33  1  0
  9 34  1  0
  9 35  1  0
 10 36  1  0
 10 37  1  0
 11 38  1  0
 11 39  1  0
 12 40  1  1
 13 41  1  0
 14 42  1  0
 14 43  1  0
 15 44  1  0
 15 45  1  0
 17 46  1  0
 17 47  1  0
 18 48  1  0
 18 49  1  0
 20 50  1  0
 21 51  1  0
 23 52  1  0
 24 53  1  0
 25 54  1  0
 26 55  1  0
M  END
>  <meeko>  (9) 
{"free_energy": -8.5, "intermolecular_energy": -9.99, "internal_energy": -1.87, "cluster_size": 9, "cluster_id": 2, "rank_in_cluster": 2}

$$$$

     RDKit          3D

 55 58  0  0  0  0  0  0  0  0999 V2000
  140.7810   71.3730  221.2750 O   0  0  0  0  0  0  0  0  0  0  0  0
  140.3230   71.9680  222.3080 C   0  0  0  0  0  0  0  0  0  0  0  0
  139.9580   73.3210  222.2270 N   0  0  0  0  0  0  0  0  0  0  0  0
  140.0670   74.0990  221.0300 C   0  0  0  0  0  0  0  0  0  0  0  0
  141.1570   75.0940  221.1680 C   0  0  0  0  0  0  0  0  0  0  0  0
  141.1610   75.7800  222.2330 O   0  0  0  0  0  0  0  0  0  0  0  0
  142.1410   75.2600  220.1480 N   0  0  0  0  0  0  0  0  0  0  0  0
  142.5910   76.6010  219.8300 C   0  0  0  0  0  0  0  0  0  0  0  0
  142.4840   76.7000  218.3010 C   0  0  0  0  0  0  0  0  0  0  0  0
  143.6750   75.8360  217.8680 C   0  0  0  0  0  0  0  0  0  0  0  0
  143.2570   74.4050  218.1180 C   0  0  0  0  0  0  0  0  0  0  0  0
  142.6710   74.1220  219.4510 C   0  0  1  0  0  0  0  0  0  0  0  0
  143.5100   73.2980  220.3970 C   0  0  0  0  0  0  0  0  0  0  0  0
  143.7360   71.8950  219.9250 C   0  0  0  0  0  0  0  0  0  0  0  0
  145.1780   71.5630  219.6290 C   0  0  0  0  0  0  0  0  0  0  0  0
  145.9300   72.6130  219.1990 O   0  0  0  0  0  0  0  0  0  0  0  0
  145.9760   73.7190  219.9940 C   0  0  0  0  0  0  0  0  0  0  0  0
  144.7780   73.9360  220.8530 C   0  0  0  0  0  0  0  0  0  0  0  0
  140.1780   71.2370  223.5850 C   0  0  0  0  0  0  0  0  0  0  0  0
  139.5680   69.9940  223.5900 C   0  0  0  0  0  0  0  0  0  0  0  0
  139.4500   69.3340  224.8110 C   0  0  0  0  0  0  0  0  0  0  0  0
  139.9150   69.8900  225.9650 C   0  0  0  0  0  0  0  0  0  0  0  0
  139.8330   69.2950  227.2100 C   0  0  0  0  0  0  0  0  0  0  0  0
  140.3280   69.9140  228.3570 C   0  0  0  0  0  0  0  0  0  0  0  0
  140.9190   71.1430  228.2790 C   0  0  0  0  0  0  0  0  0  0  0  0
  141.0090   71.7520  227.0340 C   0  0  0  0  0  0  0  0  0  0  0  0
  140.5120   71.1330  225.8860 C   0  0  0  0  0  0  0  0  0  0  0  0
  140.6400   71.7910  224.7190 N   0  0  0  0  0  0  0  0  0  0  0  0
  139.5830   73.7660  223.1150 H   0  0  0  0  0  0  0  0  0  0  0  0
  140.2867   73.4336  220.1821 H   0  0  0  0  0  0  0  0  0  0  0  0
  139.1176   74.6263  220.8550 H   0  0  0  0  0  0  0  0  0  0  0  0
  141.9465   77.3504  220.3127 H   0  0  0  0  0  0  0  0  0  0  0  0
  143.6139   76.7908  220.1873 H   0  0  0  0  0  0  0  0  0  0  0  0
  141.5319   76.2881  217.9351 H   0  0  0  0  0  0  0  0  0  0  0  0
  142.5038   77.7282  217.9106 H   0  0  0  0  0  0  0  0  0  0  0  0
  143.8928   75.9907  216.8009 H   0  0  0  0  0  0  0  0  0  0  0  0
  144.5873   76.0949  218.4253 H   0  0  0  0  0  0  0  0  0  0  0  0
  142.5094   74.1350  217.3576 H   0  0  0  0  0  0  0  0  0  0  0  0
  144.1828   73.8129  218.0693 H   0  0  0  0  0  0  0  0  0  0  0  0
  141.8273   73.4878  219.1413 H   0  0  0  0  0  0  0  0  0  0  0  0
  142.8797   73.2457  221.2970 H   0  0  0  0  0  0  0  0  0  0  0  0
  143.3775   71.2073  220.7051 H   0  0  0  0  0  0  0  0  0  0  0  0
  143.1880   71.7899  218.9770 H   0  0  0  0  0  0  0  0  0  0  0  0
  145.6343   71.1699  220.5495 H   0  0  0  0  0  0  0  0  0  0  0  0
  145.1646   70.8344  218.8050 H   0  0  0  0  0  0  0  0  0  0  0  0
  146.8535   73.6289  220.6511 H   0  0  0  0  0  0  0  0  0  0  0  0
  146.0222   74.5815  219.3129 H   0  0  0  0  0  0  0  0  0  0  0  0
  145.0088   73.5434  221.8543 H   0  0  0  0  0  0  0  0  0  0  0  0
  144.5879   75.0190  220.8205 H   0  0  0  0  0  0  0  0  0  0  0  0
  139.1893   69.5429  222.6610 H   0  0  0  0  0  0  0  0  0  0  0  0
  138.9718   68.3439  224.8444 H   0  0  0  0  0  0  0  0  0  0  0  0
  139.3635   68.3042  227.2984 H   0  0  0  0  0  0  0  0  0  0  0  0
  140.2421   69.4096  229.3307 H   0  0  0  0  0  0  0  0  0  0  0  0
  141.3134   71.6376  229.1789 H   0  0  0  0  0  0  0  0  0  0  0  0
  141.4814   72.7419  226.9511 H   0  0  0  0  0  0  0  0  0  0  0  0
  1  2  2  0
  2  3  1  0
  3  4  1  0
  4  5  1  0
  5  6  2  0
  5  7  1  0
  7  8  1  0
  8  9  1  0
  9 10  1  0
 10 11  1  0
 11 12  1  0
 12 13  1  0
 13 14  1  0
 14 15  1  0
 15 16  1  0
 16 17  1  0
 17 18  1  0
  2 19  1  0
 19 20  2  0
 20 21  1  0
 21 22  2  0
 22 23  1  0
 23 24  2  0
 24 25  1  0
 25 26  2  0
 26 27  1  0
 27 28  2  0
 12  7  1  0
 18 13  1  0
 28 19  1  0
 27 22  1  0
  3 29  1  0
  4 30  1  0
  4 31  1  0
  8 32  1  0
  8 33  1  0
  9 34  1  0
  9 35  1  0
 10 36  1  0
 10 37  1  0
 11 38  1  0
 11 39  1  0
 12 40  1  6
 13 41  1  0
 14 42  1  0
 14 43  1  0
 15 44  1  0
 15 45  1  0
 17 46  1  0
 17 47  1  0
 18 48  1  0
 18 49  1  0
 20 50  1  0
 21 51  1  0
 23 52  1  0
 24 53  1  0
 25 54  1  0
 26 55  1  0
M  END
>  <meeko>  (10) 
{"free_energy": -8.88, "intermolecular_energy": -10.37, "internal_energy": -1.94, "cluster_size": 11, "cluster_id": 1, "rank_in_cluster": 5}

$$$$

     RDKit          3D

 55 58  0  0  0  0  0  0  0  0999 V2000
  140.7950   71.3660  221.2410 O   0  0  0  0  0  0  0  0  0  0  0  0
  140.3430   71.9690  222.2720 C   0  0  0  0  0  0  0  0  0  0  0  0
  139.9690   73.3190  222.1810 N   0  0  0  0  0  0  0  0  0  0  0  0
  140.0630   74.0860  220.9760 C   0  0  0  0  0  0  0  0  0  0  0  0
  141.1370   75.1000  221.1010 C   0  0  0  0  0  0  0  0  0  0  0  0
  141.1180   75.8130  222.1490 O   0  0  0  0  0  0  0  0  0  0  0  0
  142.1300   75.2550  220.0880 N   0  0  0  0  0  0  0  0  0  0  0  0
  142.5930   76.5930  219.7710 C   0  0  0  0  0  0  0  0  0  0  0  0
  142.4990   76.6870  218.2410 C   0  0  0  0  0  0  0  0  0  0  0  0
  143.6860   75.8130  217.8190 C   0  0  0  0  0  0  0  0  0  0  0  0
  143.2550   74.3870  218.0710 C   0  0  0  0  0  0  0  0  0  0  0  0
  142.6560   74.1120  219.3990 C   0  0  1  0  0  0  0  0  0  0  0  0
  143.4810   73.2840  220.3540 C   0  0  0  0  0  0  0  0  0  0  0  0
  143.7350   71.8900  219.8690 C   0  0  0  0  0  0  0  0  0  0  0  0
  145.1870   71.5780  219.6050 C   0  0  0  0  0  0  0  0  0  0  0  0
  145.9370   72.6420  219.2070 O   0  0  0  0  0  0  0  0  0  0  0  0
  145.9510   73.7380  220.0180 C   0  0  0  0  0  0  0  0  0  0  0  0
  144.7310   73.9290  220.8500 C   0  0  0  0  0  0  0  0  0  0  0  0
  140.2130   71.2500  223.5570 C   0  0  0  0  0  0  0  0  0  0  0  0
  139.6180   70.0000  223.5790 C   0  0  0  0  0  0  0  0  0  0  0  0
  139.5140   69.3510  224.8070 C   0  0  0  0  0  0  0  0  0  0  0  0
  139.9790   69.9240  225.9530 C   0  0  0  0  0  0  0  0  0  0  0  0
  139.9100   69.3420  227.2040 C   0  0  0  0  0  0  0  0  0  0  0  0
  140.4050   69.9780  228.3410 C   0  0  0  0  0  0  0  0  0  0  0  0
  140.9810   71.2130  228.2480 C   0  0  0  0  0  0  0  0  0  0  0  0
  141.0570   71.8100  226.9960 C   0  0  0  0  0  0  0  0  0  0  0  0
  140.5610   71.1730  225.8570 C   0  0  0  0  0  0  0  0  0  0  0  0
  140.6750   71.8210  224.6830 N   0  0  0  0  0  0  0  0  0  0  0  0
  139.5990   73.7700  223.0680 H   0  0  0  0  0  0  0  0  0  0  0  0
  140.2918   73.4154  220.1346 H   0  0  0  0  0  0  0  0  0  0  0  0
  139.1048   74.5960  220.7978 H   0  0  0  0  0  0  0  0  0  0  0  0
  141.9500   77.3485  220.2461 H   0  0  0  0  0  0  0  0  0  0  0  0
  143.6139   76.7773  220.1369 H   0  0  0  0  0  0  0  0  0  0  0  0
  141.5466   76.2811  217.8694 H   0  0  0  0  0  0  0  0  0  0  0  0
  142.5303   77.7138  217.8476 H   0  0  0  0  0  0  0  0  0  0  0  0
  143.9122   75.9624  216.7529 H   0  0  0  0  0  0  0  0  0  0  0  0
  144.5967   76.0668  218.3813 H   0  0  0  0  0  0  0  0  0  0  0  0
  142.5118   74.1202  217.3052 H   0  0  0  0  0  0  0  0  0  0  0  0
  144.1771   73.7884  218.0329 H   0  0  0  0  0  0  0  0  0  0  0  0
  141.8099   73.4836  219.0842 H   0  0  0  0  0  0  0  0  0  0  0  0
  142.8286   73.2129  221.2368 H   0  0  0  0  0  0  0  0  0  0  0  0
  143.3650   71.1878  220.6306 H   0  0  0  0  0  0  0  0  0  0  0  0
  143.2123   71.7920  218.9061 H   0  0  0  0  0  0  0  0  0  0  0  0
  145.6249   71.1783  220.5315 H   0  0  0  0  0  0  0  0  0  0  0  0
  145.2025   70.8597  218.7720 H   0  0  0  0  0  0  0  0  0  0  0  0
  146.8135   73.6490  220.6949 H   0  0  0  0  0  0  0  0  0  0  0  0
  146.0035   74.6103  219.3500 H   0  0  0  0  0  0  0  0  0  0  0  0
  144.9419   73.5240  221.8508 H   0  0  0  0  0  0  0  0  0  0  0  0
  144.5296   75.0102  220.8285 H   0  0  0  0  0  0  0  0  0  0  0  0
  139.2398   69.5347  222.6568 H   0  0  0  0  0  0  0  0  0  0  0  0
  139.0472   68.3560  224.8529 H   0  0  0  0  0  0  0  0  0  0  0  0
  139.4510   68.3475  227.3056 H   0  0  0  0  0  0  0  0  0  0  0  0
  140.3313   69.4820  229.3201 H   0  0  0  0  0  0  0  0  0  0  0  0
  141.3742   71.7213  229.1407 H   0  0  0  0  0  0  0  0  0  0  0  0
  141.5172   72.8045  226.9001 H   0  0  0  0  0  0  0  0  0  0  0  0
  1  2  2  0
  2  3  1  0
  3  4  1  0
  4  5  1  0
  5  6  2  0
  5  7  1  0
  7  8  1  0
  8  9  1  0
  9 10  1  0
 10 11  1  0
 11 12  1  0
 12 13  1  0
 13 14  1  0
 14 15  1  0
 15 16  1  0
 16 17  1  0
 17 18  1  0
  2 19  1  0
 19 20  2  0
 20 21  1  0
 21 22  2  0
 22 23  1  0
 23 24  2  0
 24 25  1  0
 25 26  2  0
 26 27  1  0
 27 28  2  0
 12  7  1  0
 18 13  1  0
 28 19  1  0
 27 22  1  0
  3 29  1  0
  4 30  1  0
  4 31  1  0
  8 32  1  0
  8 33  1  0
  9 34  1  0
  9 35  1  0
 10 36  1  0
 10 37  1  0
 11 38  1  0
 11 39  1  0
 12 40  1  6
 13 41  1  0
 14 42  1  0
 14 43  1  0
 15 44  1  0
 15 45  1  0
 17 46  1  0
 17 47  1  0
 18 48  1  0
 18 49  1  0
 20 50  1  0
 21 51  1  0
 23 52  1  0
 24 53  1  0
 25 54  1  0
 26 55  1  0
M  END
>  <meeko>  (11) 
{"free_energy": -8.88, "intermolecular_energy": -10.38, "internal_energy": -1.96, "cluster_size": 11, "cluster_id": 1, "rank_in_cluster": 4}

$$$$

     RDKit          3D

 55 58  0  0  0  0  0  0  0  0999 V2000
  140.6500   71.2150  221.2320 O   0  0  0  0  0  0  0  0  0  0  0  0
  140.2510   71.8300  222.2780 C   0  0  0  0  0  0  0  0  0  0  0  0
  139.9590   73.2010  222.2100 N   0  0  0  0  0  0  0  0  0  0  0  0
  140.0800   73.9770  221.0130 C   0  0  0  0  0  0  0  0  0  0  0  0
  141.0820   75.0530  221.2040 C   0  0  0  0  0  0  0  0  0  0  0  0
  140.9820   75.7320  222.2690 O   0  0  0  0  0  0  0  0  0  0  0  0
  142.0980   75.2980  220.2320 N   0  0  0  0  0  0  0  0  0  0  0  0
  142.5200   76.6670  220.0010 C   0  0  0  0  0  0  0  0  0  0  0  0
  142.4670   76.8410  218.4760 C   0  0  0  0  0  0  0  0  0  0  0  0
  143.6980   76.0340  218.0460 C   0  0  0  0  0  0  0  0  0  0  0  0
  143.3140   74.5820  218.2070 C   0  0  0  0  0  0  0  0  0  0  0  0
  142.6870   74.2130  219.5000 C   0  0  1  0  0  0  0  0  0  0  0  0
  143.5140   73.3650  220.4350 C   0  0  0  0  0  0  0  0  0  0  0  0
  143.4980   71.9080  220.0880 C   0  0  0  0  0  0  0  0  0  0  0  0
  144.8400   71.3500  219.6820 C   0  0  0  0  0  0  0  0  0  0  0  0
  145.6680   72.2410  219.0720 O   0  0  0  0  0  0  0  0  0  0  0  0
  145.9510   73.3950  219.7400 C   0  0  0  0  0  0  0  0  0  0  0  0
  144.9000   73.8540  220.6900 C   0  0  0  0  0  0  0  0  0  0  0  0
  140.0990   71.1020  223.5560 C   0  0  0  0  0  0  0  0  0  0  0  0
  139.5570   69.8280  223.5510 C   0  0  0  0  0  0  0  0  0  0  0  0
  139.4290   69.1730  224.7740 C   0  0  0  0  0  0  0  0  0  0  0  0
  139.8210   69.7620  225.9390 C   0  0  0  0  0  0  0  0  0  0  0  0
  139.7240   69.1740  227.1850 C   0  0  0  0  0  0  0  0  0  0  0  0
  140.1430   69.8270  228.3430 C   0  0  0  0  0  0  0  0  0  0  0  0
  140.6690   71.0860  228.2750 C   0  0  0  0  0  0  0  0  0  0  0  0
  140.7720   71.6890  227.0270 C   0  0  0  0  0  0  0  0  0  0  0  0
  140.3520   71.0350  225.8690 C   0  0  0  0  0  0  0  0  0  0  0  0
  140.4880   71.6900  224.7010 N   0  0  0  0  0  0  0  0  0  0  0  0
  139.6310   73.6610  223.1090 H   0  0  0  0  0  0  0  0  0  0  0  0
  140.3993   73.3246  220.1869 H   0  0  0  0  0  0  0  0  0  0  0  0
  139.1056   74.4295  220.7766 H   0  0  0  0  0  0  0  0  0  0  0  0
  141.8359   77.3722  220.4956 H   0  0  0  0  0  0  0  0  0  0  0  0
  143.5224   76.8670  220.4075 H   0  0  0  0  0  0  0  0  0  0  0  0
  141.5417   76.4221  218.0536 H   0  0  0  0  0  0  0  0  0  0  0  0
  142.4710   77.8880  218.1388 H   0  0  0  0  0  0  0  0  0  0  0  0
  143.9504   76.2496  216.9973 H   0  0  0  0  0  0  0  0  0  0  0  0
  144.5810   76.2890  218.6504 H   0  0  0  0  0  0  0  0  0  0  0  0
  142.6039   74.3311  217.4053 H   0  0  0  0  0  0  0  0  0  0  0  0
  144.2585   74.0198  218.1651 H   0  0  0  0  0  0  0  0  0  0  0  0
  141.8753   73.5716  219.1261 H   0  0  0  0  0  0  0  0  0  0  0  0
  142.9910   73.4822  221.3956 H   0  0  0  0  0  0  0  0  0  0  0  0
  143.1443   71.3488  220.9667 H   0  0  0  0  0  0  0  0  0  0  0  0
  142.8358   71.7997  219.2163 H   0  0  0  0  0  0  0  0  0  0  0  0
  145.3439   70.9785  220.5865 H   0  0  0  0  0  0  0  0  0  0  0  0
  144.6364   70.5609  218.9432 H   0  0  0  0  0  0  0  0  0  0  0  0
  146.8793   73.2393  220.3093 H   0  0  0  0  0  0  0  0  0  0  0  0
  146.0311   74.1791  218.9727 H   0  0  0  0  0  0  0  0  0  0  0  0
  145.1917   73.5219  221.6973 H   0  0  0  0  0  0  0  0  0  0  0  0
  144.8514   74.9459  220.5656 H   0  0  0  0  0  0  0  0  0  0  0  0
  139.2383   69.3492  222.6133 H   0  0  0  0  0  0  0  0  0  0  0  0
  139.0027   68.1593  224.7999 H   0  0  0  0  0  0  0  0  0  0  0  0
  139.3038   68.1607  227.2659 H   0  0  0  0  0  0  0  0  0  0  0  0
  140.0496   69.3255  229.3176 H   0  0  0  0  0  0  0  0  0  0  0  0
  141.0022   71.6086  229.1838 H   0  0  0  0  0  0  0  0  0  0  0  0
  141.1932   72.7023  226.9511 H   0  0  0  0  0  0  0  0  0  0  0  0
  1  2  2  0
  2  3  1  0
  3  4  1  0
  4  5  1  0
  5  6  2  0
  5  7  1  0
  7  8  1  0
  8  9  1  0
  9 10  1  0
 10 11  1  0
 11 12  1  0
 12 13  1  0
 13 14  1  0
 14 15  1  0
 15 16  1  0
 16 17  1  0
 17 18  1  0
  2 19  1  0
 19 20  2  0
 20 21  1  0
 21 22  2  0
 22 23  1  0
 23 24  2  0
 24 25  1  0
 25 26  2  0
 26 27  1  0
 27 28  2  0
 12  7  1  0
 18 13  1  0
 28 19  1  0
 27 22  1  0
  3 29  1  0
  4 30  1  0
  4 31  1  0
  8 32  1  0
  8 33  1  0
  9 34  1  0
  9 35  1  0
 10 36  1  0
 10 37  1  0
 11 38  1  0
 11 39  1  0
 12 40  1  6
 13 41  1  0
 14 42  1  0
 14 43  1  0
 15 44  1  0
 15 45  1  0
 17 46  1  0
 17 47  1  0
 18 48  1  0
 18 49  1  0
 20 50  1  0
 21 51  1  0
 23 52  1  0
 24 53  1  0
 25 54  1  0
 26 55  1  0
M  END
>  <meeko>  (12) 
{"free_energy": -8.79, "intermolecular_energy": -10.28, "internal_energy": -1.96, "cluster_size": 11, "cluster_id": 1, "rank_in_cluster": 9}

$$$$

     RDKit          3D

 55 58  0  0  0  0  0  0  0  0999 V2000
  141.4900   72.4160  221.5110 O   0  0  0  0  0  0  0  0  0  0  0  0
  140.5900   72.6490  222.3860 C   0  0  0  0  0  0  0  0  0  0  0  0
  139.8720   73.8550  222.3420 N   0  0  0  0  0  0  0  0  0  0  0  0
  140.0880   74.8670  221.3540 C   0  0  0  0  0  0  0  0  0  0  0  0
  139.6790   76.1900  221.8840 C   0  0  0  0  0  0  0  0  0  0  0  0
  138.9880   76.1810  222.9460 O   0  0  0  0  0  0  0  0  0  0  0  0
  140.0510   77.3990  221.2230 N   0  0  0  0  0  0  0  0  0  0  0  0
  139.1290   77.9760  220.2630 C   0  0  0  0  0  0  0  0  0  0  0  0
  139.9810   78.2480  219.0150 C   0  0  0  0  0  0  0  0  0  0  0  0
  140.7930   79.4660  219.4740 C   0  0  0  0  0  0  0  0  0  0  0  0
  141.8210   78.9330  220.4430 C   0  0  0  0  0  0  0  0  0  0  0  0
  141.3110   78.0270  221.5010 C   0  0  1  0  0  0  0  0  0  0  0  0
  141.3020   78.5710  222.9090 C   0  0  0  0  0  0  0  0  0  0  0  0
  142.5110   79.3900  223.2400 C   0  0  0  0  0  0  0  0  0  0  0  0
  142.2190   80.8410  223.5320 C   0  0  0  0  0  0  0  0  0  0  0  0
  141.1440   81.3520  222.8720 O   0  0  0  0  0  0  0  0  0  0  0  0
  139.9510   80.7120  223.0260 C   0  0  0  0  0  0  0  0  0  0  0  0
  140.0440   79.2560  223.3250 C   0  0  0  0  0  0  0  0  0  0  0  0
  140.3040   71.6550  223.4420 C   0  0  0  0  0  0  0  0  0  0  0  0
  139.6190   70.4960  223.1160 C   0  0  0  0  0  0  0  0  0  0  0  0
  139.3690   69.5820  224.1370 C   0  0  0  0  0  0  0  0  0  0  0  0
  139.7790   69.8160  225.4150 C   0  0  0  0  0  0  0  0  0  0  0  0
  139.5660   68.9560  226.4760 C   0  0  0  0  0  0  0  0  0  0  0  0
  140.0110   69.2510  227.7640 C   0  0  0  0  0  0  0  0  0  0  0  0
  140.6810   70.4140  228.0150 C   0  0  0  0  0  0  0  0  0  0  0  0
  140.9030   71.2870  226.9570 C   0  0  0  0  0  0  0  0  0  0  0  0
  140.4560   70.9930  225.6680 C   0  0  0  0  0  0  0  0  0  0  0  0
  140.7130   71.8920  224.7010 N   0  0  0  0  0  0  0  0  0  0  0  0
  139.1360   73.9960  223.0930 H   0  0  0  0  0  0  0  0  0  0  0  0
  141.1552   74.8951  221.0888 H   0  0  0  0  0  0  0  0  0  0  0  0
  139.4875   74.6344  220.4622 H   0  0  0  0  0  0  0  0  0  0  0  0
  138.3179   77.2697  220.0320 H   0  0  0  0  0  0  0  0  0  0  0  0
  138.6493   78.8891  220.6452 H   0  0  0  0  0  0  0  0  0  0  0  0
  140.6328   77.3944  218.7771 H   0  0  0  0  0  0  0  0  0  0  0  0
  139.3992   78.4113  218.0958 H   0  0  0  0  0  0  0  0  0  0  0  0
  141.2874   79.9428  218.6148 H   0  0  0  0  0  0  0  0  0  0  0  0
  140.1517   80.2274  219.9420 H   0  0  0  0  0  0  0  0  0  0  0  0
  142.5756   78.3815  219.8630 H   0  0  0  0  0  0  0  0  0  0  0  0
  142.2139   79.8139  220.9718 H   0  0  0  0  0  0  0  0  0  0  0  0
  142.0932   77.2545  221.4637 H   0  0  0  0  0  0  0  0  0  0  0  0
  141.3444   77.6579  223.5209 H   0  0  0  0  0  0  0  0  0  0  0  0
  142.9923   78.9507  224.1262 H   0  0  0  0  0  0  0  0  0  0  0  0
  143.1561   79.3723  222.3492 H   0  0  0  0  0  0  0  0  0  0  0  0
  142.0371   80.9426  224.6121 H   0  0  0  0  0  0  0  0  0  0  0  0
  143.0943   81.4087  223.1833 H   0  0  0  0  0  0  0  0  0  0  0  0
  139.4105   81.1950  223.8534 H   0  0  0  0  0  0  0  0  0  0  0  0
  139.4359   80.7914  222.0573 H   0  0  0  0  0  0  0  0  0  0  0  0
  139.9390   79.1307  224.4128 H   0  0  0  0  0  0  0  0  0  0  0  0
  139.2460   78.7851  222.7322 H   0  0  0  0  0  0  0  0  0  0  0  0
  139.2839   70.3040  222.0860 H   0  0  0  0  0  0  0  0  0  0  0  0
  138.8292   68.6517  223.9066 H   0  0  0  0  0  0  0  0  0  0  0  0
  139.0300   68.0118  226.2991 H   0  0  0  0  0  0  0  0  0  0  0  0
  139.8211   68.5421  228.5834 H   0  0  0  0  0  0  0  0  0  0  0  0
  141.0357   70.6536  229.0283 H   0  0  0  0  0  0  0  0  0  0  0  0
  141.4418   72.2286  227.1390 H   0  0  0  0  0  0  0  0  0  0  0  0
  1  2  2  0
  2  3  1  0
  3  4  1  0
  4  5  1  0
  5  6  2  0
  5  7  1  0
  7  8  1  0
  8  9  1  0
  9 10  1  0
 10 11  1  0
 11 12  1  0
 12 13  1  0
 13 14  1  0
 14 15  1  0
 15 16  1  0
 16 17  1  0
 17 18  1  0
  2 19  1  0
 19 20  2  0
 20 21  1  0
 21 22  2  0
 22 23  1  0
 23 24  2  0
 24 25  1  0
 25 26  2  0
 26 27  1  0
 27 28  2  0
 12  7  1  0
 18 13  1  0
 28 19  1  0
 27 22  1  0
  3 29  1  0
  4 30  1  0
  4 31  1  0
  8 32  1  0
  8 33  1  0
  9 34  1  0
  9 35  1  0
 10 36  1  0
 10 37  1  0
 11 38  1  0
 11 39  1  0
 12 40  1  1
 13 41  1  0
 14 42  1  0
 14 43  1  0
 15 44  1  0
 15 45  1  0
 17 46  1  0
 17 47  1  0
 18 48  1  0
 18 49  1  0
 20 50  1  0
 21 51  1  0
 23 52  1  0
 24 53  1  0
 25 54  1  0
 26 55  1  0
M  END
>  <meeko>  (13) 
{"free_energy": -8.45, "intermolecular_energy": -9.94, "internal_energy": -1.99, "cluster_size": 9, "cluster_id": 2, "rank_in_cluster": 5}

$$$$

     RDKit          3D

 55 58  0  0  0  0  0  0  0  0999 V2000
  140.8600   71.4050  221.2610 O   0  0  0  0  0  0  0  0  0  0  0  0
  140.3720   71.9900  222.2850 C   0  0  0  0  0  0  0  0  0  0  0  0
  139.9690   73.3320  222.1950 N   0  0  0  0  0  0  0  0  0  0  0  0
  140.0710   74.1080  220.9970 C   0  0  0  0  0  0  0  0  0  0  0  0
  141.1720   75.0940  221.1230 C   0  0  0  0  0  0  0  0  0  0  0  0
  141.1870   75.7870  222.1840 O   0  0  0  0  0  0  0  0  0  0  0  0
  142.1520   75.2430  220.0970 N   0  0  0  0  0  0  0  0  0  0  0  0
  142.6150   76.5780  219.7690 C   0  0  0  0  0  0  0  0  0  0  0  0
  142.5020   76.6680  218.2400 C   0  0  0  0  0  0  0  0  0  0  0  0
  143.6810   75.7880  217.8060 C   0  0  0  0  0  0  0  0  0  0  0  0
  143.2490   74.3640  218.0680 C   0  0  0  0  0  0  0  0  0  0  0  0
  142.6660   74.0950  219.4040 C   0  0  1  0  0  0  0  0  0  0  0  0
  143.5010   73.2680  220.3510 C   0  0  0  0  0  0  0  0  0  0  0  0
  143.7610   71.8780  219.8580 C   0  0  0  0  0  0  0  0  0  0  0  0
  145.2140   71.5770  219.5850 C   0  0  0  0  0  0  0  0  0  0  0  0
  145.9560   72.6470  219.1890 O   0  0  0  0  0  0  0  0  0  0  0  0
  145.9670   73.7390  220.0060 C   0  0  0  0  0  0  0  0  0  0  0  0
  144.7490   73.9190  220.8440 C   0  0  0  0  0  0  0  0  0  0  0  0
  140.2310   71.2590  223.5630 C   0  0  0  0  0  0  0  0  0  0  0  0
  139.6180   70.0170  223.5700 C   0  0  0  0  0  0  0  0  0  0  0  0
  139.5040   69.3570  224.7920 C   0  0  0  0  0  0  0  0  0  0  0  0
  139.9760   69.9110  225.9440 C   0  0  0  0  0  0  0  0  0  0  0  0
  139.8970   69.3170  227.1890 C   0  0  0  0  0  0  0  0  0  0  0  0
  140.4000   69.9340  228.3330 C   0  0  0  0  0  0  0  0  0  0  0  0
  140.9930   71.1610  228.2540 C   0  0  0  0  0  0  0  0  0  0  0  0
  141.0790   71.7700  227.0080 C   0  0  0  0  0  0  0  0  0  0  0  0
  140.5750   71.1530  225.8620 C   0  0  0  0  0  0  0  0  0  0  0  0
  140.7000   71.8120  224.6950 N   0  0  0  0  0  0  0  0  0  0  0  0
  139.5690   73.7680  223.0770 H   0  0  0  0  0  0  0  0  0  0  0  0
  140.2754   73.4404  220.1470 H   0  0  0  0  0  0  0  0  0  0  0  0
  139.1243   74.6433  220.8320 H   0  0  0  0  0  0  0  0  0  0  0  0
  141.9806   77.3372  220.2498 H   0  0  0  0  0  0  0  0  0  0  0  0
  143.6413   76.7596  220.1208 H   0  0  0  0  0  0  0  0  0  0  0  0
  141.5435   76.2645  217.8815 H   0  0  0  0  0  0  0  0  0  0  0  0
  142.5319   77.6935  217.8431 H   0  0  0  0  0  0  0  0  0  0  0  0
  143.8943   75.9332  216.7367 H   0  0  0  0  0  0  0  0  0  0  0  0
  144.5993   76.0406  218.3563 H   0  0  0  0  0  0  0  0  0  0  0  0
  142.4954   74.0969  217.3125 H   0  0  0  0  0  0  0  0  0  0  0  0
  144.1688   73.7626  218.0203 H   0  0  0  0  0  0  0  0  0  0  0  0
  141.8139   73.4683  219.1019 H   0  0  0  0  0  0  0  0  0  0  0  0
  142.8540   73.1884  221.2370 H   0  0  0  0  0  0  0  0  0  0  0  0
  143.3995   71.1698  220.6181 H   0  0  0  0  0  0  0  0  0  0  0  0
  143.2336   71.7809  218.8975 H   0  0  0  0  0  0  0  0  0  0  0  0
  145.6589   71.1751  220.5073 H   0  0  0  0  0  0  0  0  0  0  0  0
  145.2294   70.8638  218.7477 H   0  0  0  0  0  0  0  0  0  0  0  0
  146.8326   73.6512  220.6790 H   0  0  0  0  0  0  0  0  0  0  0  0
  146.0119   74.6151  219.3423 H   0  0  0  0  0  0  0  0  0  0  0  0
  144.9668   73.5116  221.8423 H   0  0  0  0  0  0  0  0  0  0  0  0
  144.5406   74.9990  220.8273 H   0  0  0  0  0  0  0  0  0  0  0  0
  139.2342   69.5669  222.6426 H   0  0  0  0  0  0  0  0  0  0  0  0
  139.0230   68.3684  224.8274 H   0  0  0  0  0  0  0  0  0  0  0  0
  139.4233   68.3284  227.2799 H   0  0  0  0  0  0  0  0  0  0  0  0
  140.3185   69.4286  229.3066 H   0  0  0  0  0  0  0  0  0  0  0  0
  141.3920   71.6544  229.1525 H   0  0  0  0  0  0  0  0  0  0  0  0
  141.5540   72.7585  226.9231 H   0  0  0  0  0  0  0  0  0  0  0  0
  1  2  2  0
  2  3  1  0
  3  4  1  0
  4  5  1  0
  5  6  2  0
  5  7  1  0
  7  8  1  0
  8  9  1  0
  9 10  1  0
 10 11  1  0
 11 12  1  0
 12 13  1  0
 13 14  1  0
 14 15  1  0
 15 16  1  0
 16 17  1  0
 17 18  1  0
  2 19  1  0
 19 20  2  0
 20 21  1  0
 21 22  2  0
 22 23  1  0
 23 24  2  0
 24 25  1  0
 25 26  2  0
 26 27  1  0
 27 28  2  0
 12  7  1  0
 18 13  1  0
 28 19  1  0
 27 22  1  0
  3 29  1  0
  4 30  1  0
  4 31  1  0
  8 32  1  0
  8 33  1  0
  9 34  1  0
  9 35  1  0
 10 36  1  0
 10 37  1  0
 11 38  1  0
 11 39  1  0
 12 40  1  6
 13 41  1  0
 14 42  1  0
 14 43  1  0
 15 44  1  0
 15 45  1  0
 17 46  1  0
 17 47  1  0
 18 48  1  0
 18 49  1  0
 20 50  1  0
 21 51  1  0
 23 52  1  0
 24 53  1  0
 25 54  1  0
 26 55  1  0
M  END
>  <meeko>  (14) 
{"free_energy": -8.89, "intermolecular_energy": -10.39, "internal_energy": -1.94, "cluster_size": 11, "cluster_id": 1, "rank_in_cluster": 3}

$$$$

     RDKit          3D

 55 58  0  0  0  0  0  0  0  0999 V2000
  140.9600   71.4510  221.3030 O   0  0  0  0  0  0  0  0  0  0  0  0
  140.3940   72.0170  222.2980 C   0  0  0  0  0  0  0  0  0  0  0  0
  139.9310   73.3360  222.1790 N   0  0  0  0  0  0  0  0  0  0  0  0
  140.0540   74.1120  220.9820 C   0  0  0  0  0  0  0  0  0  0  0  0
  141.1580   75.0930  221.1240 C   0  0  0  0  0  0  0  0  0  0  0  0
  141.1710   75.7730  222.1920 O   0  0  0  0  0  0  0  0  0  0  0  0
  142.1420   75.2500  220.1030 N   0  0  0  0  0  0  0  0  0  0  0  0
  142.6150   76.5870  219.7970 C   0  0  0  0  0  0  0  0  0  0  0  0
  142.5070   76.7010  218.2690 C   0  0  0  0  0  0  0  0  0  0  0  0
  143.6830   75.8200  217.8260 C   0  0  0  0  0  0  0  0  0  0  0  0
  143.2410   74.3950  218.0650 C   0  0  0  0  0  0  0  0  0  0  0  0
  142.6520   74.1100  219.3950 C   0  0  1  0  0  0  0  0  0  0  0  0
  143.4780   73.2630  220.3330 C   0  0  0  0  0  0  0  0  0  0  0  0
  143.7500   71.8870  219.8090 C   0  0  0  0  0  0  0  0  0  0  0  0
  145.2080   71.5980  219.5480 C   0  0  0  0  0  0  0  0  0  0  0  0
  145.9500   72.6810  219.1880 O   0  0  0  0  0  0  0  0  0  0  0  0
  145.9460   73.7530  220.0300 C   0  0  0  0  0  0  0  0  0  0  0  0
  144.7170   73.9080  220.8570 C   0  0  0  0  0  0  0  0  0  0  0  0
  140.2260   71.2850  223.5720 C   0  0  0  0  0  0  0  0  0  0  0  0
  139.5830   70.0590  223.5720 C   0  0  0  0  0  0  0  0  0  0  0  0
  139.4440   69.3980  224.7900 C   0  0  0  0  0  0  0  0  0  0  0  0
  139.9200   69.9370  225.9470 C   0  0  0  0  0  0  0  0  0  0  0  0
  139.8180   69.3410  227.1890 C   0  0  0  0  0  0  0  0  0  0  0  0
  140.3260   69.9420  228.3400 C   0  0  0  0  0  0  0  0  0  0  0  0
  140.9500   71.1550  228.2680 C   0  0  0  0  0  0  0  0  0  0  0  0
  141.0600   71.7660  227.0250 C   0  0  0  0  0  0  0  0  0  0  0  0
  140.5500   71.1640  225.8740 C   0  0  0  0  0  0  0  0  0  0  0  0
  140.6990   71.8230  224.7100 N   0  0  0  0  0  0  0  0  0  0  0  0
  139.4670   73.7560  223.0370 H   0  0  0  0  0  0  0  0  0  0  0  0
  140.2675   73.4435  220.1349 H   0  0  0  0  0  0  0  0  0  0  0  0
  139.1123   74.6517  220.8034 H   0  0  0  0  0  0  0  0  0  0  0  0
  141.9842   77.3430  220.2876 H   0  0  0  0  0  0  0  0  0  0  0  0
  143.6414   76.7564  220.1546 H   0  0  0  0  0  0  0  0  0  0  0  0
  141.5474   76.3086  217.9014 H   0  0  0  0  0  0  0  0  0  0  0  0
  142.5438   77.7320  217.8874 H   0  0  0  0  0  0  0  0  0  0  0  0
  143.9013   75.9799  216.7598 H   0  0  0  0  0  0  0  0  0  0  0  0
  144.6008   76.0587  218.3834 H   0  0  0  0  0  0  0  0  0  0  0  0
  142.4882   74.1442  217.3032 H   0  0  0  0  0  0  0  0  0  0  0  0
  144.1569   73.7882  218.0110 H   0  0  0  0  0  0  0  0  0  0  0  0
  141.7974   73.4931  219.0801 H   0  0  0  0  0  0  0  0  0  0  0  0
  142.8209   73.1580  221.2089 H   0  0  0  0  0  0  0  0  0  0  0  0
  143.3812   71.1587  220.5462 H   0  0  0  0  0  0  0  0  0  0  0  0
  143.2359   71.8122  218.8394 H   0  0  0  0  0  0  0  0  0  0  0  0
  145.6426   71.1755  220.4660 H   0  0  0  0  0  0  0  0  0  0  0  0
  145.2378   70.9051  218.6942 H   0  0  0  0  0  0  0  0  0  0  0  0
  146.8038   73.6532  220.7114 H   0  0  0  0  0  0  0  0  0  0  0  0
  145.9949   74.6446  219.3876 H   0  0  0  0  0  0  0  0  0  0  0  0
  144.9243   73.4782  221.8481 H   0  0  0  0  0  0  0  0  0  0  0  0
  144.5038   74.9871  220.8634 H   0  0  0  0  0  0  0  0  0  0  0  0
  139.1946   69.6213  222.6406 H   0  0  0  0  0  0  0  0  0  0  0  0
  138.9396   68.4209  224.8183 H   0  0  0  0  0  0  0  0  0  0  0  0
  139.3212   68.3631  227.2724 H   0  0  0  0  0  0  0  0  0  0  0  0
  140.2237   69.4365  229.3116 H   0  0  0  0  0  0  0  0  0  0  0  0
  141.3549   71.6357  229.1708 H   0  0  0  0  0  0  0  0  0  0  0  0
  141.5588   72.7433  226.9467 H   0  0  0  0  0  0  0  0  0  0  0  0
  1  2  2  0
  2  3  1  0
  3  4  1  0
  4  5  1  0
  5  6  2  0
  5  7  1  0
  7  8  1  0
  8  9  1  0
  9 10  1  0
 10 11  1  0
 11 12  1  0
 12 13  1  0
 13 14  1  0
 14 15  1  0
 15 16  1  0
 16 17  1  0
 17 18  1  0
  2 19  1  0
 19 20  2  0
 20 21  1  0
 21 22  2  0
 22 23  1  0
 23 24  2  0
 24 25  1  0
 25 26  2  0
 26 27  1  0
 27 28  2  0
 12  7  1  0
 18 13  1  0
 28 19  1  0
 27 22  1  0
  3 29  1  0
  4 30  1  0
  4 31  1  0
  8 32  1  0
  8 33  1  0
  9 34  1  0
  9 35  1  0
 10 36  1  0
 10 37  1  0
 11 38  1  0
 11 39  1  0
 12 40  1  6
 13 41  1  0
 14 42  1  0
 14 43  1  0
 15 44  1  0
 15 45  1  0
 17 46  1  0
 17 47  1  0
 18 48  1  0
 18 49  1  0
 20 50  1  0
 21 51  1  0
 23 52  1  0
 24 53  1  0
 25 54  1  0
 26 55  1  0
M  END
>  <meeko>  (15) 
{"free_energy": -8.9, "intermolecular_energy": -10.39, "internal_energy": -1.91, "cluster_size": 11, "cluster_id": 1, "rank_in_cluster": 2}

$$$$

     RDKit          3D

 55 58  0  0  0  0  0  0  0  0999 V2000
  140.4990   70.9180  221.2620 O   0  0  0  0  0  0  0  0  0  0  0  0
  140.1590   71.5740  222.3020 C   0  0  0  0  0  0  0  0  0  0  0  0
  139.9430   72.9590  222.2130 N   0  0  0  0  0  0  0  0  0  0  0  0
  140.0840   73.7040  221.0000 C   0  0  0  0  0  0  0  0  0  0  0  0
  140.9730   74.8700  221.2190 C   0  0  0  0  0  0  0  0  0  0  0  0
  140.7730   75.5380  222.2760 O   0  0  0  0  0  0  0  0  0  0  0  0
  141.9940   75.2080  220.2800 N   0  0  0  0  0  0  0  0  0  0  0  0
  142.3340   76.6070  220.1020 C   0  0  0  0  0  0  0  0  0  0  0  0
  142.3060   76.8270  218.5820 C   0  0  0  0  0  0  0  0  0  0  0  0
  143.5940   76.1110  218.1580 C   0  0  0  0  0  0  0  0  0  0  0  0
  143.2980   74.6340  218.2650 C   0  0  0  0  0  0  0  0  0  0  0  0
  142.6660   74.1860  219.5290 C   0  0  1  0  0  0  0  0  0  0  0  0
  143.5220   73.3600  220.4580 C   0  0  0  0  0  0  0  0  0  0  0  0
  143.5020   71.8970  220.1440 C   0  0  0  0  0  0  0  0  0  0  0  0
  144.8340   71.3340  219.7120 C   0  0  0  0  0  0  0  0  0  0  0  0
  145.6410   72.2140  219.0580 O   0  0  0  0  0  0  0  0  0  0  0  0
  145.9380   73.3840  219.6940 C   0  0  0  0  0  0  0  0  0  0  0  0
  144.9130   73.8590  220.6630 C   0  0  0  0  0  0  0  0  0  0  0  0
  139.9910   70.8810  223.5970 C   0  0  0  0  0  0  0  0  0  0  0  0
  139.3820   69.6370  223.6280 C   0  0  0  0  0  0  0  0  0  0  0  0
  139.2430   69.0130  224.8650 C   0  0  0  0  0  0  0  0  0  0  0  0
  139.6860   69.6030  226.0110 C   0  0  0  0  0  0  0  0  0  0  0  0
  139.5820   69.0450  227.2700 C   0  0  0  0  0  0  0  0  0  0  0  0
  140.0550   69.6970  228.4070 C   0  0  0  0  0  0  0  0  0  0  0  0
  140.6470   70.9240  228.3050 C   0  0  0  0  0  0  0  0  0  0  0  0
  140.7580   71.4970  227.0440 C   0  0  0  0  0  0  0  0  0  0  0  0
  140.2830   70.8440  225.9060 C   0  0  0  0  0  0  0  0  0  0  0  0
  140.4320   71.4680  224.7230 N   0  0  0  0  0  0  0  0  0  0  0  0
  139.6610   73.4540  223.1090 H   0  0  0  0  0  0  0  0  0  0  0  0
  140.5176   73.0565  220.2236 H   0  0  0  0  0  0  0  0  0  0  0  0
  139.0941   74.0610  220.6795 H   0  0  0  0  0  0  0  0  0  0  0  0
  141.5953   77.2518  220.6006 H   0  0  0  0  0  0  0  0  0  0  0  0
  143.3120   76.8557  220.5397 H   0  0  0  0  0  0  0  0  0  0  0  0
  141.4184   76.3666  218.1236 H   0  0  0  0  0  0  0  0  0  0  0  0
  142.2534   77.8828  218.2779 H   0  0  0  0  0  0  0  0  0  0  0  0
  143.8561   76.3751  217.1229 H   0  0  0  0  0  0  0  0  0  0  0  0
  144.4454   76.4002  218.7917 H   0  0  0  0  0  0  0  0  0  0  0  0
  142.6238   74.3655  217.4384 H   0  0  0  0  0  0  0  0  0  0  0  0
  144.2766   74.1329  218.2298 H   0  0  0  0  0  0  0  0  0  0  0  0
  141.9046   73.5091  219.1142 H   0  0  0  0  0  0  0  0  0  0  0  0
  143.0250   73.4955  221.4299 H   0  0  0  0  0  0  0  0  0  0  0  0
  143.1756   71.3562  221.0446 H   0  0  0  0  0  0  0  0  0  0  0  0
  142.8158   71.7676  219.2940 H   0  0  0  0  0  0  0  0  0  0  0  0
  145.3652   70.9847  220.6097 H   0  0  0  0  0  0  0  0  0  0  0  0
  144.6121   70.5276  218.9975 H   0  0  0  0  0  0  0  0  0  0  0  0
  146.8826   73.2438  220.2399 H   0  0  0  0  0  0  0  0  0  0  0  0
  145.9929   74.1519  218.9083 H   0  0  0  0  0  0  0  0  0  0  0  0
  145.2345   73.5493  221.6683 H   0  0  0  0  0  0  0  0  0  0  0  0
  144.8564   74.9478  220.5169 H   0  0  0  0  0  0  0  0  0  0  0  0
  139.0203   69.1582  222.7061 H   0  0  0  0  0  0  0  0  0  0  0  0
  138.7657   68.0234  224.9184 H   0  0  0  0  0  0  0  0  0  0  0  0
  139.1118   68.0565  227.3784 H   0  0  0  0  0  0  0  0  0  0  0  0
  139.9510   69.2207  229.3931 H   0  0  0  0  0  0  0  0  0  0  0  0
  141.0256   71.4443  229.1971 H   0  0  0  0  0  0  0  0  0  0  0  0
  141.2298   72.4853  226.9408 H   0  0  0  0  0  0  0  0  0  0  0  0
  1  2  2  0
  2  3  1  0
  3  4  1  0
  4  5  1  0
  5  6  2  0
  5  7  1  0
  7  8  1  0
  8  9  1  0
  9 10  1  0
 10 11  1  0
 11 12  1  0
 12 13  1  0
 13 14  1  0
 14 15  1  0
 15 16  1  0
 16 17  1  0
 17 18  1  0
  2 19  1  0
 19 20  2  0
 20 21  1  0
 21 22  2  0
 22 23  1  0
 23 24  2  0
 24 25  1  0
 25 26  2  0
 26 27  1  0
 27 28  2  0
 12  7  1  0
 18 13  1  0
 28 19  1  0
 27 22  1  0
  3 29  1  0
  4 30  1  0
  4 31  1  0
  8 32  1  0
  8 33  1  0
  9 34  1  0
  9 35  1  0
 10 36  1  0
 10 37  1  0
 11 38  1  0
 11 39  1  0
 12 40  1  6
 13 41  1  0
 14 42  1  0
 14 43  1  0
 15 44  1  0
 15 45  1  0
 17 46  1  0
 17 47  1  0
 18 48  1  0
 18 49  1  0
 20 50  1  0
 21 51  1  0
 23 52  1  0
 24 53  1  0
 25 54  1  0
 26 55  1  0
M  END
>  <meeko>  (16) 
{"free_energy": -8.72, "intermolecular_energy": -10.21, "internal_energy": -1.98, "cluster_size": 11, "cluster_id": 1, "rank_in_cluster": 10}

$$$$

     RDKit          3D

 55 58  0  0  0  0  0  0  0  0999 V2000
  140.8690   71.4130  221.2940 O   0  0  0  0  0  0  0  0  0  0  0  0
  140.3680   71.9930  222.3150 C   0  0  0  0  0  0  0  0  0  0  0  0
  139.9510   73.3300  222.2220 N   0  0  0  0  0  0  0  0  0  0  0  0
  140.0520   74.1080  221.0250 C   0  0  0  0  0  0  0  0  0  0  0  0
  141.1740   75.0700  221.1360 C   0  0  0  0  0  0  0  0  0  0  0  0
  141.2090   75.7730  222.1900 O   0  0  0  0  0  0  0  0  0  0  0  0
  142.1540   75.1880  220.1050 N   0  0  0  0  0  0  0  0  0  0  0  0
  142.6600   76.5070  219.7780 C   0  0  0  0  0  0  0  0  0  0  0  0
  142.5410   76.6050  218.2500 C   0  0  0  0  0  0  0  0  0  0  0  0
  143.6880   75.6870  217.8080 C   0  0  0  0  0  0  0  0  0  0  0  0
  143.2090   74.2780  218.0680 C   0  0  0  0  0  0  0  0  0  0  0  0
  142.6250   74.0260  219.4080 C   0  0  1  0  0  0  0  0  0  0  0  0
  143.4360   73.1680  220.3480 C   0  0  0  0  0  0  0  0  0  0  0  0
  143.7160   71.7980  219.8140 C   0  0  0  0  0  0  0  0  0  0  0  0
  145.1770   71.5110  219.5720 C   0  0  0  0  0  0  0  0  0  0  0  0
  145.9250   72.5970  219.2350 O   0  0  0  0  0  0  0  0  0  0  0  0
  145.9080   73.6600  220.0890 C   0  0  0  0  0  0  0  0  0  0  0  0
  144.6670   73.8060  220.8980 C   0  0  0  0  0  0  0  0  0  0  0  0
  140.2280   71.2600  223.5920 C   0  0  0  0  0  0  0  0  0  0  0  0
  139.6220   70.0150  223.5970 C   0  0  0  0  0  0  0  0  0  0  0  0
  139.5080   69.3540  224.8180 C   0  0  0  0  0  0  0  0  0  0  0  0
  139.9740   69.9110  225.9720 C   0  0  0  0  0  0  0  0  0  0  0  0
  139.8950   69.3150  227.2160 C   0  0  0  0  0  0  0  0  0  0  0  0
  140.3910   69.9340  228.3620 C   0  0  0  0  0  0  0  0  0  0  0  0
  140.9780   71.1650  228.2850 C   0  0  0  0  0  0  0  0  0  0  0  0
  141.0640   71.7750  227.0390 C   0  0  0  0  0  0  0  0  0  0  0  0
  140.5670   71.1560  225.8920 C   0  0  0  0  0  0  0  0  0  0  0  0
  140.6910   71.8150  224.7260 N   0  0  0  0  0  0  0  0  0  0  0  0
  139.5410   73.7620  223.1010 H   0  0  0  0  0  0  0  0  0  0  0  0
  140.2296   73.4389  220.1701 H   0  0  0  0  0  0  0  0  0  0  0  0
  139.1145   74.6639  220.8767 H   0  0  0  0  0  0  0  0  0  0  0  0
  142.0546   77.2859  220.2646 H   0  0  0  0  0  0  0  0  0  0  0  0
  143.6939   76.6527  220.1242 H   0  0  0  0  0  0  0  0  0  0  0  0
  141.5676   76.2345  217.8960 H   0  0  0  0  0  0  0  0  0  0  0  0
  142.6023   77.6298  217.8550 H   0  0  0  0  0  0  0  0  0  0  0  0
  143.9013   75.8280  216.7381 H   0  0  0  0  0  0  0  0  0  0  0  0
  144.6169   75.9068  218.3546 H   0  0  0  0  0  0  0  0  0  0  0  0
  142.4420   74.0393  217.3165 H   0  0  0  0  0  0  0  0  0  0  0  0
  144.1068   73.6448  218.0122 H   0  0  0  0  0  0  0  0  0  0  0  0
  141.7504   73.4291  219.1101 H   0  0  0  0  0  0  0  0  0  0  0  0
  142.7645   73.0535  221.2117 H   0  0  0  0  0  0  0  0  0  0  0  0
  143.3360   71.0621  220.5379 H   0  0  0  0  0  0  0  0  0  0  0  0
  143.2169   71.7339  218.8359 H   0  0  0  0  0  0  0  0  0  0  0  0
  145.5974   71.0783  220.4918 H   0  0  0  0  0  0  0  0  0  0  0  0
  145.2193   70.8274  218.7112 H   0  0  0  0  0  0  0  0  0  0  0  0
  146.7551   73.5524  220.7825 H   0  0  0  0  0  0  0  0  0  0  0  0
  145.9670   74.5587  219.4574 H   0  0  0  0  0  0  0  0  0  0  0  0
  144.8589   73.3647  221.8872 H   0  0  0  0  0  0  0  0  0  0  0  0
  144.4542   74.8851  220.9131 H   0  0  0  0  0  0  0  0  0  0  0  0
  139.2434   69.5632  222.6683 H   0  0  0  0  0  0  0  0  0  0  0  0
  139.0324   68.3627  224.8518 H   0  0  0  0  0  0  0  0  0  0  0  0
  139.4272   68.3234  227.3045 H   0  0  0  0  0  0  0  0  0  0  0  0
  140.3092   69.4278  229.3352 H   0  0  0  0  0  0  0  0  0  0  0  0
  141.3720   71.6602  229.1848 H   0  0  0  0  0  0  0  0  0  0  0  0
  141.5336   72.7662  226.9557 H   0  0  0  0  0  0  0  0  0  0  0  0
  1  2  2  0
  2  3  1  0
  3  4  1  0
  4  5  1  0
  5  6  2  0
  5  7  1  0
  7  8  1  0
  8  9  1  0
  9 10  1  0
 10 11  1  0
 11 12  1  0
 12 13  1  0
 13 14  1  0
 14 15  1  0
 15 16  1  0
 16 17  1  0
 17 18  1  0
  2 19  1  0
 19 20  2  0
 20 21  1  0
 21 22  2  0
 22 23  1  0
 23 24  2  0
 24 25  1  0
 25 26  2  0
 26 27  1  0
 27 28  2  0
 12  7  1  0
 18 13  1  0
 28 19  1  0
 27 22  1  0
  3 29  1  0
  4 30  1  0
  4 31  1  0
  8 32  1  0
  8 33  1  0
  9 34  1  0
  9 35  1  0
 10 36  1  0
 10 37  1  0
 11 38  1  0
 11 39  1  0
 12 40  1  6
 13 41  1  0
 14 42  1  0
 14 43  1  0
 15 44  1  0
 15 45  1  0
 17 46  1  0
 17 47  1  0
 18 48  1  0
 18 49  1  0
 20 50  1  0
 21 51  1  0
 23 52  1  0
 24 53  1  0
 25 54  1  0
 26 55  1  0
M  END
>  <meeko>  (17) 
{"free_energy": -8.86, "intermolecular_energy": -10.35, "internal_energy": -1.95, "cluster_size": 11, "cluster_id": 1, "rank_in_cluster": 7}

$$$$

     RDKit          3D

 55 58  0  0  0  0  0  0  0  0999 V2000
  141.3240   72.3100  221.5100 O   0  0  0  0  0  0  0  0  0  0  0  0
  140.4390   72.5480  222.3990 C   0  0  0  0  0  0  0  0  0  0  0  0
  139.6770   73.7250  222.3250 N   0  0  0  0  0  0  0  0  0  0  0  0
  139.8310   74.7020  221.2910 C   0  0  0  0  0  0  0  0  0  0  0  0
  139.4240   76.0390  221.7890 C   0  0  0  0  0  0  0  0  0  0  0  0
  138.6210   76.0520  222.7690 O   0  0  0  0  0  0  0  0  0  0  0  0
  139.9170   77.2350  221.1870 N   0  0  0  0  0  0  0  0  0  0  0  0
  139.1430   77.8440  220.1220 C   0  0  0  0  0  0  0  0  0  0  0  0
  140.1540   78.0880  218.9920 C   0  0  0  0  0  0  0  0  0  0  0  0
  140.9420   79.2770  219.5560 C   0  0  0  0  0  0  0  0  0  0  0  0
  141.8220   78.7070  220.6440 C   0  0  0  0  0  0  0  0  0  0  0  0
  141.1530   77.8180  221.6250 C   0  0  1  0  0  0  0  0  0  0  0  0
  140.9850   78.3600  223.0240 C   0  0  0  0  0  0  0  0  0  0  0  0
  142.2150   79.0300  223.5550 C   0  0  0  0  0  0  0  0  0  0  0  0
  142.0530   80.5050  223.8240 C   0  0  0  0  0  0  0  0  0  0  0  0
  141.1640   81.1410  223.0130 O   0  0  0  0  0  0  0  0  0  0  0  0
  139.8940   80.6470  222.9650 C   0  0  0  0  0  0  0  0  0  0  0  0
  139.7670   79.1910  223.2490 C   0  0  0  0  0  0  0  0  0  0  0  0
  140.2160   71.5900  223.5020 C   0  0  0  0  0  0  0  0  0  0  0  0
  139.5500   70.4030  223.2460 C   0  0  0  0  0  0  0  0  0  0  0  0
  139.3590   69.5230  224.3100 C   0  0  0  0  0  0  0  0  0  0  0  0
  139.8080   69.8170  225.5620 C   0  0  0  0  0  0  0  0  0  0  0  0
  139.6550   68.9960  226.6620 C   0  0  0  0  0  0  0  0  0  0  0  0
  140.1370   69.3520  227.9210 C   0  0  0  0  0  0  0  0  0  0  0  0
  140.7860   70.5400  228.1030 C   0  0  0  0  0  0  0  0  0  0  0  0
  140.9470   71.3760  227.0050 C   0  0  0  0  0  0  0  0  0  0  0  0
  140.4630   71.0200  225.7450 C   0  0  0  0  0  0  0  0  0  0  0  0
  140.6620   71.8860  224.7350 N   0  0  0  0  0  0  0  0  0  0  0  0
  138.9560   73.8730  223.0900 H   0  0  0  0  0  0  0  0  0  0  0  0
  140.8845   74.7360  220.9764 H   0  0  0  0  0  0  0  0  0  0  0  0
  139.1945   74.4264  220.4372 H   0  0  0  0  0  0  0  0  0  0  0  0
  138.3440   77.1661  219.7873 H   0  0  0  0  0  0  0  0  0  0  0  0
  138.6502   78.7726  220.4458 H   0  0  0  0  0  0  0  0  0  0  0  0
  140.8015   77.2130  218.8333 H   0  0  0  0  0  0  0  0  0  0  0  0
  139.6984   78.2718  218.0078 H   0  0  0  0  0  0  0  0  0  0  0  0
  141.5562   79.7380  218.7684 H   0  0  0  0  0  0  0  0  0  0  0  0
  140.2731   80.0593  219.9439 H   0  0  0  0  0  0  0  0  0  0  0  0
  142.6240   78.1303  220.1600 H   0  0  0  0  0  0  0  0  0  0  0  0
  142.1752   79.5732  221.2227 H   0  0  0  0  0  0  0  0  0  0  0  0
  141.9073   77.0195  221.6827 H   0  0  0  0  0  0  0  0  0  0  0  0
  140.8215   77.4491  223.6186 H   0  0  0  0  0  0  0  0  0  0  0  0
  142.4959   78.5370  224.4974 H   0  0  0  0  0  0  0  0  0  0  0  0
  142.9857   78.9354  222.7758 H   0  0  0  0  0  0  0  0  0  0  0  0
  141.7155   80.6277  224.8637 H   0  0  0  0  0  0  0  0  0  0  0  0
  143.0331   80.9640  223.6275 H   0  0  0  0  0  0  0  0  0  0  0  0
  139.2892   81.1917  223.7050 H   0  0  0  0  0  0  0  0  0  0  0  0
  139.5523   80.7859  221.9287 H   0  0  0  0  0  0  0  0  0  0  0  0
  139.4774   79.0805  224.3044 H   0  0  0  0  0  0  0  0  0  0  0  0
  139.0233   78.8180  222.5294 H   0  0  0  0  0  0  0  0  0  0  0  0
  139.1840   70.1627  222.2369 H   0  0  0  0  0  0  0  0  0  0  0  0
  138.8350   68.5718  224.1351 H   0  0  0  0  0  0  0  0  0  0  0  0
  139.1376   68.0328  226.5413 H   0  0  0  0  0  0  0  0  0  0  0  0
  139.9936   68.6716  228.7733 H   0  0  0  0  0  0  0  0  0  0  0  0
  141.1710   70.8272  229.0926 H   0  0  0  0  0  0  0  0  0  0  0  0
  141.4662   72.3375  227.1311 H   0  0  0  0  0  0  0  0  0  0  0  0
  1  2  2  0
  2  3  1  0
  3  4  1  0
  4  5  1  0
  5  6  2  0
  5  7  1  0
  7  8  1  0
  8  9  1  0
  9 10  1  0
 10 11  1  0
 11 12  1  0
 12 13  1  0
 13 14  1  0
 14 15  1  0
 15 16  1  0
 16 17  1  0
 17 18  1  0
  2 19  1  0
 19 20  2  0
 20 21  1  0
 21 22  2  0
 22 23  1  0
 23 24  2  0
 24 25  1  0
 25 26  2  0
 26 27  1  0
 27 28  2  0
 12  7  1  0
 18 13  1  0
 28 19  1  0
 27 22  1  0
  3 29  1  0
  4 30  1  0
  4 31  1  0
  8 32  1  0
  8 33  1  0
  9 34  1  0
  9 35  1  0
 10 36  1  0
 10 37  1  0
 11 38  1  0
 11 39  1  0
 12 40  1  1
 13 41  1  0
 14 42  1  0
 14 43  1  0
 15 44  1  0
 15 45  1  0
 17 46  1  0
 17 47  1  0
 18 48  1  0
 18 49  1  0
 20 50  1  0
 21 51  1  0
 23 52  1  0
 24 53  1  0
 25 54  1  0
 26 55  1  0
M  END
>  <meeko>  (18) 
{"free_energy": -8.5, "intermolecular_energy": -9.99, "internal_energy": -1.96, "cluster_size": 9, "cluster_id": 2, "rank_in_cluster": 1}

$$$$

     RDKit          3D

 55 58  0  0  0  0  0  0  0  0999 V2000
  141.4010   72.3500  221.4110 O   0  0  0  0  0  0  0  0  0  0  0  0
  140.5690   72.6290  222.3380 C   0  0  0  0  0  0  0  0  0  0  0  0
  139.9170   73.8720  222.3370 N   0  0  0  0  0  0  0  0  0  0  0  0
  140.1280   74.8750  221.3380 C   0  0  0  0  0  0  0  0  0  0  0  0
  139.6470   76.1900  221.8270 C   0  0  0  0  0  0  0  0  0  0  0  0
  138.8860   76.1680  222.8400 O   0  0  0  0  0  0  0  0  0  0  0  0
  140.0280   77.4040  221.1810 N   0  0  0  0  0  0  0  0  0  0  0  0
  139.0900   78.0260  220.2670 C   0  0  0  0  0  0  0  0  0  0  0  0
  139.9060   78.3060  218.9970 C   0  0  0  0  0  0  0  0  0  0  0  0
  140.7640   79.4920  219.4560 C   0  0  0  0  0  0  0  0  0  0  0  0
  141.8110   78.9100  220.3770 C   0  0  0  0  0  0  0  0  0  0  0  0
  141.3130   77.9930  221.4310 C   0  0  1  0  0  0  0  0  0  0  0  0
  141.3650   78.5040  222.8510 C   0  0  0  0  0  0  0  0  0  0  0  0
  142.5410   79.3900  223.1220 C   0  0  0  0  0  0  0  0  0  0  0  0
  142.1810   80.8120  223.4720 C   0  0  0  0  0  0  0  0  0  0  0  0
  141.0350   81.2700  222.8970 O   0  0  0  0  0  0  0  0  0  0  0  0
  139.8960   80.5520  223.1130 C   0  0  0  0  0  0  0  0  0  0  0  0
  140.0990   79.0990  223.3660 C   0  0  0  0  0  0  0  0  0  0  0  0
  140.2920   71.6480  223.4090 C   0  0  0  0  0  0  0  0  0  0  0  0
  139.6290   70.4730  223.0990 C   0  0  0  0  0  0  0  0  0  0  0  0
  139.3860   69.5720  224.1330 C   0  0  0  0  0  0  0  0  0  0  0  0
  139.7840   69.8340  225.4090 C   0  0  0  0  0  0  0  0  0  0  0  0
  139.5780   68.9900  226.4830 C   0  0  0  0  0  0  0  0  0  0  0  0
  140.0100   69.3130  227.7690 C   0  0  0  0  0  0  0  0  0  0  0  0
  140.6590   70.4910  228.0050 C   0  0  0  0  0  0  0  0  0  0  0  0
  140.8730   71.3500  226.9330 C   0  0  0  0  0  0  0  0  0  0  0  0
  140.4410   71.0260  225.6470 C   0  0  0  0  0  0  0  0  0  0  0  0
  140.6890   71.9130  224.6660 N   0  0  0  0  0  0  0  0  0  0  0  0
  139.2350   74.0510  223.1310 H   0  0  0  0  0  0  0  0  0  0  0  0
  141.2022   74.9420  221.1108 H   0  0  0  0  0  0  0  0  0  0  0  0
  139.5699   74.6022  220.4302 H   0  0  0  0  0  0  0  0  0  0  0  0
  138.2536   77.3459  220.0480 H   0  0  0  0  0  0  0  0  0  0  0  0
  138.6473   78.9416  220.6861 H   0  0  0  0  0  0  0  0  0  0  0  0
  140.5272   77.4423  218.7173 H   0  0  0  0  0  0  0  0  0  0  0  0
  139.2981   78.5055  218.1022 H   0  0  0  0  0  0  0  0  0  0  0  0
  141.2411   79.9770  218.5916 H   0  0  0  0  0  0  0  0  0  0  0  0
  140.1586   80.2575  219.9634 H   0  0  0  0  0  0  0  0  0  0  0  0
  142.5306   78.3531  219.7590 H   0  0  0  0  0  0  0  0  0  0  0  0
  142.2454   79.7677  220.9114 H   0  0  0  0  0  0  0  0  0  0  0  0
  142.0731   77.2019  221.3505 H   0  0  0  0  0  0  0  0  0  0  0  0
  141.5037   77.5825  223.4354 H   0  0  0  0  0  0  0  0  0  0  0  0
  143.1082   78.9619  223.9616 H   0  0  0  0  0  0  0  0  0  0  0  0
  143.1232   79.4335  222.1897 H   0  0  0  0  0  0  0  0  0  0  0  0
  142.0652   80.8766  224.5640 H   0  0  0  0  0  0  0  0  0  0  0  0
  142.9949   81.4416  223.0832 H   0  0  0  0  0  0  0  0  0  0  0  0
  139.3843   80.9810  223.9871 H   0  0  0  0  0  0  0  0  0  0  0  0
  139.3120   80.6205  222.1834 H   0  0  0  0  0  0  0  0  0  0  0  0
  140.0752   78.9429  224.4546 H   0  0  0  0  0  0  0  0  0  0  0  0
  139.2938   78.5924  222.8137 H   0  0  0  0  0  0  0  0  0  0  0  0
  139.3048   70.2580  222.0701 H   0  0  0  0  0  0  0  0  0  0  0  0
  138.8621   68.6298  223.9147 H   0  0  0  0  0  0  0  0  0  0  0  0
  139.0578   68.0348  226.3190 H   0  0  0  0  0  0  0  0  0  0  0  0
  139.8267   68.6143  228.5986 H   0  0  0  0  0  0  0  0  0  0  0  0
  141.0033   70.7533  229.0163 H   0  0  0  0  0  0  0  0  0  0  0  0
  141.3934   72.3042  227.1024 H   0  0  0  0  0  0  0  0  0  0  0  0
  1  2  2  0
  2  3  1  0
  3  4  1  0
  4  5  1  0
  5  6  2  0
  5  7  1  0
  7  8  1  0
  8  9  1  0
  9 10  1  0
 10 11  1  0
 11 12  1  0
 12 13  1  0
 13 14  1  0
 14 15  1  0
 15 16  1  0
 16 17  1  0
 17 18  1  0
  2 19  1  0
 19 20  2  0
 20 21  1  0
 21 22  2  0
 22 23  1  0
 23 24  2  0
 24 25  1  0
 25 26  2  0
 26 27  1  0
 27 28  2  0
 12  7  1  0
 18 13  1  0
 28 19  1  0
 27 22  1  0
  3 29  1  0
  4 30  1  0
  4 31  1  0
  8 32  1  0
  8 33  1  0
  9 34  1  0
  9 35  1  0
 10 36  1  0
 10 37  1  0
 11 38  1  0
 11 39  1  0
 12 40  1  1
 13 41  1  0
 14 42  1  0
 14 43  1  0
 15 44  1  0
 15 45  1  0
 17 46  1  0
 17 47  1  0
 18 48  1  0
 18 49  1  0
 20 50  1  0
 21 51  1  0
 23 52  1  0
 24 53  1  0
 25 54  1  0
 26 55  1  0
M  END
>  <meeko>  (19) 
{"free_energy": -8.42, "intermolecular_energy": -9.91, "internal_energy": -2.02, "cluster_size": 9, "cluster_id": 2, "rank_in_cluster": 8}

$$$$

     RDKit          3D

 55 58  0  0  0  0  0  0  0  0999 V2000
  140.9170   71.3450  221.2890 O   0  0  0  0  0  0  0  0  0  0  0  0
  140.3900   71.9300  222.2940 C   0  0  0  0  0  0  0  0  0  0  0  0
  139.9640   73.2620  222.1810 N   0  0  0  0  0  0  0  0  0  0  0  0
  140.0840   74.0310  220.9800 C   0  0  0  0  0  0  0  0  0  0  0  0
  141.1630   75.0380  221.1260 C   0  0  0  0  0  0  0  0  0  0  0  0
  141.1530   75.7210  222.1930 O   0  0  0  0  0  0  0  0  0  0  0  0
  142.1490   75.2170  220.1110 N   0  0  0  0  0  0  0  0  0  0  0  0
  142.6210   76.5610  219.8330 C   0  0  0  0  0  0  0  0  0  0  0  0
  142.5170   76.7050  218.3070 C   0  0  0  0  0  0  0  0  0  0  0  0
  143.6940   75.8350  217.8490 C   0  0  0  0  0  0  0  0  0  0  0  0
  143.2530   74.4050  218.0580 C   0  0  0  0  0  0  0  0  0  0  0  0
  142.6610   74.0920  219.3810 C   0  0  1  0  0  0  0  0  0  0  0  0
  143.4860   73.2270  220.3030 C   0  0  0  0  0  0  0  0  0  0  0  0
  143.7510   71.8590  219.7560 C   0  0  0  0  0  0  0  0  0  0  0  0
  145.2070   71.5680  219.4870 C   0  0  0  0  0  0  0  0  0  0  0  0
  145.9520   72.6530  219.1410 O   0  0  0  0  0  0  0  0  0  0  0  0
  145.9550   73.7110  220.0010 C   0  0  0  0  0  0  0  0  0  0  0  0
  144.7290   73.8580  220.8330 C   0  0  0  0  0  0  0  0  0  0  0  0
  140.2280   71.2070  223.5740 C   0  0  0  0  0  0  0  0  0  0  0  0
  139.5760   69.9860  223.5870 C   0  0  0  0  0  0  0  0  0  0  0  0
  139.4430   69.3330  224.8100 C   0  0  0  0  0  0  0  0  0  0  0  0
  139.9350   69.8750  225.9600 C   0  0  0  0  0  0  0  0  0  0  0  0
  139.8410   69.2860  227.2060 C   0  0  0  0  0  0  0  0  0  0  0  0
  140.3650   69.8900  228.3480 C   0  0  0  0  0  0  0  0  0  0  0  0
  140.9980   71.0970  228.2640 C   0  0  0  0  0  0  0  0  0  0  0  0
  141.1000   71.7000  227.0160 C   0  0  0  0  0  0  0  0  0  0  0  0
  140.5740   71.0960  225.8730 C   0  0  0  0  0  0  0  0  0  0  0  0
  140.7170   71.7470  224.7040 N   0  0  0  0  0  0  0  0  0  0  0  0
  139.5330   73.6980  223.0480 H   0  0  0  0  0  0  0  0  0  0  0  0
  140.3228   73.3608  220.1411 H   0  0  0  0  0  0  0  0  0  0  0  0
  139.1325   74.5479  220.7866 H   0  0  0  0  0  0  0  0  0  0  0  0
  141.9877   77.3061  220.3367 H   0  0  0  0  0  0  0  0  0  0  0  0
  143.6461   76.7249  220.1969 H   0  0  0  0  0  0  0  0  0  0  0  0
  141.5586   76.3191  217.9294 H   0  0  0  0  0  0  0  0  0  0  0  0
  142.5540   77.7436  217.9464 H   0  0  0  0  0  0  0  0  0  0  0  0
  143.9144   76.0168  216.7867 H   0  0  0  0  0  0  0  0  0  0  0  0
  144.6104   76.0632  218.4131 H   0  0  0  0  0  0  0  0  0  0  0  0
  142.5022   74.1690  217.2895 H   0  0  0  0  0  0  0  0  0  0  0  0
  144.1698   73.8005  217.9939 H   0  0  0  0  0  0  0  0  0  0  0  0
  141.8076   73.4809  219.0520 H   0  0  0  0  0  0  0  0  0  0  0  0
  142.8311   73.1109  221.1791 H   0  0  0  0  0  0  0  0  0  0  0  0
  143.3807   71.1202  220.4820 H   0  0  0  0  0  0  0  0  0  0  0  0
  143.2346   71.8025  218.7864 H   0  0  0  0  0  0  0  0  0  0  0  0
  145.6423   71.1304  220.3975 H   0  0  0  0  0  0  0  0  0  0  0  0
  145.2320   70.8874  218.6232 H   0  0  0  0  0  0  0  0  0  0  0  0
  146.8138   73.5957  220.6787 H   0  0  0  0  0  0  0  0  0  0  0  0
  146.0068   74.6130  219.3735 H   0  0  0  0  0  0  0  0  0  0  0  0
  144.9371   73.4119  221.8167 H   0  0  0  0  0  0  0  0  0  0  0  0
  144.5205   74.9378  220.8562 H   0  0  0  0  0  0  0  0  0  0  0  0
  139.1760   69.5458  222.6617 H   0  0  0  0  0  0  0  0  0  0  0  0
  138.9306   68.3604  224.8487 H   0  0  0  0  0  0  0  0  0  0  0  0
  139.3381   68.3122  227.2998 H   0  0  0  0  0  0  0  0  0  0  0  0
  140.2679   69.3908  229.3234 H   0  0  0  0  0  0  0  0  0  0  0  0
  141.4160   71.5791  229.1600 H   0  0  0  0  0  0  0  0  0  0  0  0
  141.6055   72.6729  226.9273 H   0  0  0  0  0  0  0  0  0  0  0  0
  1  2  2  0
  2  3  1  0
  3  4  1  0
  4  5  1  0
  5  6  2  0
  5  7  1  0
  7  8  1  0
  8  9  1  0
  9 10  1  0
 10 11  1  0
 11 12  1  0
 12 13  1  0
 13 14  1  0
 14 15  1  0
 15 16  1  0
 16 17  1  0
 17 18  1  0
  2 19  1  0
 19 20  2  0
 20 21  1  0
 21 22  2  0
 22 23  1  0
 23 24  2  0
 24 25  1  0
 25 26  2  0
 26 27  1  0
 27 28  2  0
 12  7  1  0
 18 13  1  0
 28 19  1  0
 27 22  1  0
  3 29  1  0
  4 30  1  0
  4 31  1  0
  8 32  1  0
  8 33  1  0
  9 34  1  0
  9 35  1  0
 10 36  1  0
 10 37  1  0
 11 38  1  0
 11 39  1  0
 12 40  1  6
 13 41  1  0
 14 42  1  0
 14 43  1  0
 15 44  1  0
 15 45  1  0
 17 46  1  0
 17 47  1  0
 18 48  1  0
 18 49  1  0
 20 50  1  0
 21 51  1  0
 23 52  1  0
 24 53  1  0
 25 54  1  0
 26 55  1  0
M  END
>  <meeko>  (20) 
{"free_energy": -8.88, "intermolecular_energy": -10.37, "internal_energy": -1.92, "cluster_size": 11, "cluster_id": 1, "rank_in_cluster": 6}

$$$$
