
     RDKit          3D

 46 49  0  0  0  0  0  0  0  0999 V2000
  136.8090   71.0260  221.5900 O   0  0  0  0  0  0  0  0  0  0  0  0
  137.5710   71.6170  222.4180 C   0  0  0  0  0  0  0  0  0  0  0  0
  137.8460   73.0270  222.3040 N   0  0  0  0  0  0  0  0  0  0  0  0
  137.2770   73.8220  221.2780 C   0  0  0  0  0  0  0  0  0  0  0  0
  137.5370   75.2520  221.2490 C   0  0  0  0  0  0  0  0  0  0  0  0
  136.4770   75.9820  221.0440 O   0  0  0  0  0  0  0  0  0  0  0  0
  138.7670   75.9380  221.4070 N   0  0  0  0  0  0  0  0  0  0  0  0
  139.1720   76.9570  222.3560 C   0  0  0  0  0  0  0  0  0  0  0  0
  140.7040   76.7990  222.3850 C   0  0  0  0  0  0  0  0  0  0  0  0
  140.9270   76.7160  220.8650 C   0  0  0  0  0  0  0  0  0  0  0  0
  139.9090   75.6580  220.5230 C   0  0  1  0  0  0  0  0  0  0  0  0
  140.5440   74.3480  220.8500 C   0  0  0  0  0  0  0  0  0  0  0  0
  141.2840   73.6920  219.9380 N   0  0  0  0  0  0  0  0  0  0  0  0
  141.8810   72.5150  220.1650 C   0  0  0  0  0  0  0  0  0  0  0  0
  141.7410   71.9180  221.4140 C   0  0  0  0  0  0  0  0  0  0  0  0
  140.9800   72.6080  222.3320 C   0  0  0  0  0  0  0  0  0  0  0  0
  140.3990   73.7870  222.0600 N   0  0  0  0  0  0  0  0  0  0  0  0
  138.1990   70.8690  223.5280 C   0  0  0  0  0  0  0  0  0  0  0  0
  137.8890   69.5330  223.6690 C   0  0  0  0  0  0  0  0  0  0  0  0
  138.4300   68.7800  224.6680 C   0  0  0  0  0  0  0  0  0  0  0  0
  139.3030   69.3820  225.5450 C   0  0  0  0  0  0  0  0  0  0  0  0
  139.8350   68.5940  226.5470 C   0  0  0  0  0  0  0  0  0  0  0  0
  140.7150   69.1610  227.4480 C   0  0  0  0  0  0  0  0  0  0  0  0
  141.3940   68.1640  228.7230 Cl  0  0  0  0  0  0  0  0  0  0  0  0
  141.0150   70.4880  227.2980 C   0  0  0  0  0  0  0  0  0  0  0  0
  140.4750   71.2800  226.2840 C   0  0  0  0  0  0  0  0  0  0  0  0
  139.5890   70.7060  225.3780 C   0  0  0  0  0  0  0  0  0  0  0  0
  139.0440   71.4260  224.3880 N   0  0  0  0  0  0  0  0  0  0  0  0
  138.4970   73.4400  223.0290 H   0  0  0  0  0  0  0  0  0  0  0  0
  137.6347   73.4129  220.3216 H   0  0  0  0  0  0  0  0  0  0  0  0
  136.1966   73.7613  221.4754 H   0  0  0  0  0  0  0  0  0  0  0  0
  138.8827   77.9600  222.0093 H   0  0  0  0  0  0  0  0  0  0  0  0
  138.7019   76.8462  223.3443 H   0  0  0  0  0  0  0  0  0  0  0  0
  141.2060   77.6682  222.8349 H   0  0  0  0  0  0  0  0  0  0  0  0
  141.0963   75.9621  222.9814 H   0  0  0  0  0  0  0  0  0  0  0  0
  140.7097   77.6716  220.3654 H   0  0  0  0  0  0  0  0  0  0  0  0
  141.9581   76.4922  220.5541 H   0  0  0  0  0  0  0  0  0  0  0  0
  139.5833   75.6438  219.4724 H   0  0  0  0  0  0  0  0  0  0  0  0
  142.4729   72.0277  219.3762 H   0  0  0  0  0  0  0  0  0  0  0  0
  142.2101   70.9525  221.6542 H   0  0  0  0  0  0  0  0  0  0  0  0
  140.8423   72.1731  223.3330 H   0  0  0  0  0  0  0  0  0  0  0  0
  137.1902   69.0648  222.9602 H   0  0  0  0  0  0  0  0  0  0  0  0
  138.1745   67.7150  224.7709 H   0  0  0  0  0  0  0  0  0  0  0  0
  139.5621   67.5313  226.6261 H   0  0  0  0  0  0  0  0  0  0  0  0
  141.7141   70.9515  228.0097 H   0  0  0  0  0  0  0  0  0  0  0  0
  140.7460   72.3430  226.2022 H   0  0  0  0  0  0  0  0  0  0  0  0
  1  2  2  0
  2  3  1  0
  3  4  1  0
  4  5  1  0
  5  6  2  0
  5  7  1  0
  7  8  1  0
  8  9  1  0
  9 10  1  0
 10 11  1  0
 11 12  1  0
 12 13  2  0
 13 14  1  0
 14 15  2  0
 15 16  1  0
 16 17  2  0
  2 18  1  0
 18 19  2  0
 19 20  1  0
 20 21  2  0
 21 22  1  0
 22 23  2  0
 23 24  1  0
 23 25  1  0
 25 26  2  0
 26 27  1  0
 27 28  2  0
 11  7  1  0
 17 12  1  0
 28 18  1  0
 27 21  1  0
  3 29  1  0
  4 30  1  0
  4 31  1  0
  8 32  1  0
  8 33  1  0
  9 34  1  0
  9 35  1  0
 10 36  1  0
 10 37  1  0
 11 38  1  6
 14 39  1  0
 15 40  1  0
 16 41  1  0
 19 42  1  0
 20 43  1  0
 22 44  1  0
 25 45  1  0
 26 46  1  0
M  END
>  <meeko>  (1) 
{"free_energy": -6.89, "intermolecular_energy": -8.38, "internal_energy": -2.7, "cluster_size": 13, "cluster_id": 4, "rank_in_cluster": 7}

$$$$

     RDKit          3D

 46 49  0  0  0  0  0  0  0  0999 V2000
  140.0130   72.3450  220.7240 O   0  0  0  0  0  0  0  0  0  0  0  0
  139.8810   72.7920  221.9060 C   0  0  0  0  0  0  0  0  0  0  0  0
  139.6420   74.1910  222.1530 N   0  0  0  0  0  0  0  0  0  0  0  0
  139.5340   75.1310  221.0970 C   0  0  0  0  0  0  0  0  0  0  0  0
  139.4400   76.5490  221.4040 C   0  0  0  0  0  0  0  0  0  0  0  0
  138.9940   76.8060  222.6010 O   0  0  0  0  0  0  0  0  0  0  0  0
  139.7590   77.6610  220.5860 N   0  0  0  0  0  0  0  0  0  0  0  0
  138.9160   78.5200  219.7770 C   0  0  0  0  0  0  0  0  0  0  0  0
  139.7440   79.8150  219.6860 C   0  0  0  0  0  0  0  0  0  0  0  0
  141.1000   79.1640  219.3580 C   0  0  0  0  0  0  0  0  0  0  0  0
  141.1470   78.1280  220.4520 C   0  0  1  0  0  0  0  0  0  0  0  0
  141.6050   78.8410  221.6800 C   0  0  0  0  0  0  0  0  0  0  0  0
  141.4380   78.2960  222.8990 N   0  0  0  0  0  0  0  0  0  0  0  0
  141.8250   78.8800  224.0390 C   0  0  0  0  0  0  0  0  0  0  0  0
  142.4390   80.1260  223.9840 C   0  0  0  0  0  0  0  0  0  0  0  0
  142.6010   80.6650  222.7260 C   0  0  0  0  0  0  0  0  0  0  0  0
  142.1960   80.0430  221.6080 N   0  0  0  0  0  0  0  0  0  0  0  0
  139.9660   71.8820  223.0680 C   0  0  0  0  0  0  0  0  0  0  0  0
  139.5250   70.5840  222.9130 C   0  0  0  0  0  0  0  0  0  0  0  0
  139.5740   69.6890  223.9390 C   0  0  0  0  0  0  0  0  0  0  0  0
  140.0780   70.1060  225.1500 C   0  0  0  0  0  0  0  0  0  0  0  0
  140.1150   69.1770  226.1710 C   0  0  0  0  0  0  0  0  0  0  0  0
  140.6140   69.5560  227.4030 C   0  0  0  0  0  0  0  0  0  0  0  0
  140.6640   68.3790  228.7050 Cl  0  0  0  0  0  0  0  0  0  0  0  0
  141.0500   70.8460  227.5450 C   0  0  0  0  0  0  0  0  0  0  0  0
  141.0100   71.7800  226.5100 C   0  0  0  0  0  0  0  0  0  0  0  0
  140.5070   71.3960  225.2720 C   0  0  0  0  0  0  0  0  0  0  0  0
  140.4480   72.2580  224.2480 N   0  0  0  0  0  0  0  0  0  0  0  0
  139.5520   74.4830  223.1650 H   0  0  0  0  0  0  0  0  0  0  0  0
  140.4218   75.0001  220.4609 H   0  0  0  0  0  0  0  0  0  0  0  0
  138.5574   74.9003  220.6465 H   0  0  0  0  0  0  0  0  0  0  0  0
  138.7471   78.0859  218.7805 H   0  0  0  0  0  0  0  0  0  0  0  0
  137.9121   78.6717  220.2003 H   0  0  0  0  0  0  0  0  0  0  0  0
  139.3938   80.4804  218.8831 H   0  0  0  0  0  0  0  0  0  0  0  0
  139.7194   80.4724  220.5676 H   0  0  0  0  0  0  0  0  0  0  0  0
  141.1045   78.7058  218.3580 H   0  0  0  0  0  0  0  0  0  0  0  0
  141.9564   79.8537  219.3279 H   0  0  0  0  0  0  0  0  0  0  0  0
  141.8178   77.2770  220.2628 H   0  0  0  0  0  0  0  0  0  0  0  0
  141.6597   78.3815  225.0055 H   0  0  0  0  0  0  0  0  0  0  0  0
  142.7755   80.6504  224.8905 H   0  0  0  0  0  0  0  0  0  0  0  0
  143.0839   81.6491  222.6342 H   0  0  0  0  0  0  0  0  0  0  0  0
  139.1249   70.2646  221.9394 H   0  0  0  0  0  0  0  0  0  0  0  0
  139.2189   68.6568  223.8027 H   0  0  0  0  0  0  0  0  0  0  0  0
  139.7530   68.1514  226.0064 H   0  0  0  0  0  0  0  0  0  0  0  0
  141.4503   71.1603  228.5202 H   0  0  0  0  0  0  0  0  0  0  0  0
  141.3714   72.8064  226.6709 H   0  0  0  0  0  0  0  0  0  0  0  0
  1  2  2  0
  2  3  1  0
  3  4  1  0
  4  5  1  0
  5  6  2  0
  5  7  1  0
  7  8  1  0
  8  9  1  0
  9 10  1  0
 10 11  1  0
 11 12  1  0
 12 13  2  0
 13 14  1  0
 14 15  2  0
 15 16  1  0
 16 17  2  0
  2 18  1  0
 18 19  2  0
 19 20  1  0
 20 21  2  0
 21 22  1  0
 22 23  2  0
 23 24  1  0
 23 25  1  0
 25 26  2  0
 26 27  1  0
 27 28  2  0
 11  7  1  0
 17 12  1  0
 28 18  1  0
 27 21  1  0
  3 29  1  0
  4 30  1  0
  4 31  1  0
  8 32  1  0
  8 33  1  0
  9 34  1  0
  9 35  1  0
 10 36  1  0
 10 37  1  0
 11 38  1  6
 14 39  1  0
 15 40  1  0
 16 41  1  0
 19 42  1  0
 20 43  1  0
 22 44  1  0
 25 45  1  0
 26 46  1  0
M  END
>  <meeko>  (2) 
{"free_energy": -7.97, "intermolecular_energy": -9.46, "internal_energy": -1.69, "cluster_size": 3, "cluster_id": 1, "rank_in_cluster": 2}

$$$$

     RDKit          3D

 46 49  0  0  0  0  0  0  0  0999 V2000
  140.4870   70.9180  221.2790 O   0  0  0  0  0  0  0  0  0  0  0  0
  139.9140   71.7960  221.9980 C   0  0  0  0  0  0  0  0  0  0  0  0
  138.9130   71.4290  222.9670 N   0  0  0  0  0  0  0  0  0  0  0  0
  138.5280   70.0800  223.1740 C   0  0  0  0  0  0  0  0  0  0  0  0
  138.1710   69.6310  224.5100 C   0  0  0  0  0  0  0  0  0  0  0  0
  137.0050   70.0460  224.9180 O   0  0  0  0  0  0  0  0  0  0  0  0
  138.9120   68.8230  225.4070 N   0  0  0  0  0  0  0  0  0  0  0  0
  139.6380   67.5860  225.1940 C   0  0  0  0  0  0  0  0  0  0  0  0
  140.6680   67.5990  226.3390 C   0  0  0  0  0  0  0  0  0  0  0  0
  139.7060   68.0020  227.4710 C   0  0  0  0  0  0  0  0  0  0  0  0
  139.0480   69.1930  226.8240 C   0  0  1  0  0  0  0  0  0  0  0  0
  139.9910   70.3360  227.0010 C   0  0  0  0  0  0  0  0  0  0  0  0
  140.6380   70.8690  225.9490 N   0  0  0  0  0  0  0  0  0  0  0  0
  141.4950   71.8930  226.0380 C   0  0  0  0  0  0  0  0  0  0  0  0
  141.7470   72.4560  227.2840 C   0  0  0  0  0  0  0  0  0  0  0  0
  141.0740   71.8950  228.3480 C   0  0  0  0  0  0  0  0  0  0  0  0
  140.2230   70.8670  228.2120 N   0  0  0  0  0  0  0  0  0  0  0  0
  140.2620   73.2260  221.8590 C   0  0  0  0  0  0  0  0  0  0  0  0
  141.4430   73.5490  221.2260 C   0  0  0  0  0  0  0  0  0  0  0  0
  141.8280   74.8460  221.0610 C   0  0  0  0  0  0  0  0  0  0  0  0
  141.0090   75.8410  221.5420 C   0  0  0  0  0  0  0  0  0  0  0  0
  141.4250   77.1450  221.3590 C   0  0  0  0  0  0  0  0  0  0  0  0
  140.6300   78.1740  221.8280 C   0  0  0  0  0  0  0  0  0  0  0  0
  141.1550   79.8330  221.5990 Cl  0  0  0  0  0  0  0  0  0  0  0  0
  139.4600   77.8400  222.4540 C   0  0  0  0  0  0  0  0  0  0  0  0
  139.0430   76.5210  222.6350 C   0  0  0  0  0  0  0  0  0  0  0  0
  139.8450   75.4880  222.1620 C   0  0  0  0  0  0  0  0  0  0  0  0
  139.4880   74.2060  222.3140 N   0  0  0  0  0  0  0  0  0  0  0  0
  138.4780   72.2190  223.5190 H   0  0  0  0  0  0  0  0  0  0  0  0
  137.6549   69.8949  222.5310 H   0  0  0  0  0  0  0  0  0  0  0  0
  139.4441   69.5142  222.9492 H   0  0  0  0  0  0  0  0  0  0  0  0
  138.9701   66.7154  225.2707 H   0  0  0  0  0  0  0  0  0  0  0  0
  140.0945   67.5132  224.1959 H   0  0  0  0  0  0  0  0  0  0  0  0
  141.1205   66.6104  226.5063 H   0  0  0  0  0  0  0  0  0  0  0  0
  141.5483   68.2428  226.1953 H   0  0  0  0  0  0  0  0  0  0  0  0
  138.9818   67.2055  227.6974 H   0  0  0  0  0  0  0  0  0  0  0  0
  140.1822   68.1999  228.4426 H   0  0  0  0  0  0  0  0  0  0  0  0
  138.0685   69.4701  227.2408 H   0  0  0  0  0  0  0  0  0  0  0  0
  141.9929   72.2836  225.1383 H   0  0  0  0  0  0  0  0  0  0  0  0
  142.4420   73.2988  227.4130 H   0  0  0  0  0  0  0  0  0  0  0  0
  141.2422   72.3086  229.3533 H   0  0  0  0  0  0  0  0  0  0  0  0
  142.0882   72.7432  220.8461 H   0  0  0  0  0  0  0  0  0  0  0  0
  142.7729   75.0917  220.5543 H   0  0  0  0  0  0  0  0  0  0  0  0
  142.3746   77.3616  220.8478 H   0  0  0  0  0  0  0  0  0  0  0  0
  138.8182   78.6493  222.8322 H   0  0  0  0  0  0  0  0  0  0  0  0
  138.0933   76.3012  223.1446 H   0  0  0  0  0  0  0  0  0  0  0  0
  1  2  2  0
  2  3  1  0
  3  4  1  0
  4  5  1  0
  5  6  2  0
  5  7  1  0
  7  8  1  0
  8  9  1  0
  9 10  1  0
 10 11  1  0
 11 12  1  0
 12 13  2  0
 13 14  1  0
 14 15  2  0
 15 16  1  0
 16 17  2  0
  2 18  1  0
 18 19  2  0
 19 20  1  0
 20 21  2  0
 21 22  1  0
 22 23  2  0
 23 24  1  0
 23 25  1  0
 25 26  2  0
 26 27  1  0
 27 28  2  0
 11  7  1  0
 17 12  1  0
 28 18  1  0
 27 21  1  0
  3 29  1  0
  4 30  1  0
  4 31  1  0
  8 32  1  0
  8 33  1  0
  9 34  1  0
  9 35  1  0
 10 36  1  0
 10 37  1  0
 11 38  1  1
 14 39  1  0
 15 40  1  0
 16 41  1  0
 19 42  1  0
 20 43  1  0
 22 44  1  0
 25 45  1  0
 26 46  1  0
M  END
>  <meeko>  (3) 
{"free_energy": -8.12, "intermolecular_energy": -9.61, "internal_energy": -1.85, "cluster_size": 3, "cluster_id": 2, "rank_in_cluster": 2}

$$$$

     RDKit          3D

 46 49  0  0  0  0  0  0  0  0999 V2000
  136.1110   71.4470  221.7380 O   0  0  0  0  0  0  0  0  0  0  0  0
  137.0600   71.9410  222.4240 C   0  0  0  0  0  0  0  0  0  0  0  0
  137.5440   73.2750  222.1760 N   0  0  0  0  0  0  0  0  0  0  0  0
  136.9840   74.1020  221.1700 C   0  0  0  0  0  0  0  0  0  0  0  0
  137.7850   75.1620  220.5810 C   0  0  0  0  0  0  0  0  0  0  0  0
  137.4220   75.4980  219.3750 O   0  0  0  0  0  0  0  0  0  0  0  0
  138.8870   75.8600  221.1360 N   0  0  0  0  0  0  0  0  0  0  0  0
  138.9650   76.7810  222.2530 C   0  0  0  0  0  0  0  0  0  0  0  0
  140.4380   76.6610  222.6850 C   0  0  0  0  0  0  0  0  0  0  0  0
  141.0670   76.7490  221.2830 C   0  0  0  0  0  0  0  0  0  0  0  0
  140.2380   75.7070  220.5760 C   0  0  1  0  0  0  0  0  0  0  0  0
  140.8330   74.3870  220.9360 C   0  0  0  0  0  0  0  0  0  0  0  0
  140.3560   73.6730  221.9710 N   0  0  0  0  0  0  0  0  0  0  0  0
  140.8420   72.4840  222.3470 C   0  0  0  0  0  0  0  0  0  0  0  0
  141.9040   71.9340  221.6380 C   0  0  0  0  0  0  0  0  0  0  0  0
  142.3770   72.6820  220.5810 C   0  0  0  0  0  0  0  0  0  0  0  0
  141.8580   73.8720  220.2400 N   0  0  0  0  0  0  0  0  0  0  0  0
  137.6970   71.1550  223.5020 C   0  0  0  0  0  0  0  0  0  0  0  0
  137.0850   69.9870  223.9040 C   0  0  0  0  0  0  0  0  0  0  0  0
  137.6140   69.2110  224.8910 C   0  0  0  0  0  0  0  0  0  0  0  0
  138.7850   69.6170  225.4900 C   0  0  0  0  0  0  0  0  0  0  0  0
  139.2970   68.8100  226.4860 C   0  0  0  0  0  0  0  0  0  0  0  0
  140.4710   69.1840  227.1120 C   0  0  0  0  0  0  0  0  0  0  0  0
  141.1270   68.1620  228.3810 Cl  0  0  0  0  0  0  0  0  0  0  0  0
  141.0700   70.3450  226.7050 C   0  0  0  0  0  0  0  0  0  0  0  0
  140.5480   71.1560  225.6970 C   0  0  0  0  0  0  0  0  0  0  0  0
  139.3660   70.7780  225.0690 C   0  0  0  0  0  0  0  0  0  0  0  0
  138.8260   71.5250  224.0960 N   0  0  0  0  0  0  0  0  0  0  0  0
  138.3420   73.6090  222.7850 H   0  0  0  0  0  0  0  0  0  0  0  0
  136.6765   73.4398  220.3472 H   0  0  0  0  0  0  0  0  0  0  0  0
  136.1882   74.6463  221.6995 H   0  0  0  0  0  0  0  0  0  0  0  0
  138.7257   77.8076  221.9387 H   0  0  0  0  0  0  0  0  0  0  0  0
  138.2526   76.5522  223.0593 H   0  0  0  0  0  0  0  0  0  0  0  0
  140.7518   77.4893  223.3373 H   0  0  0  0  0  0  0  0  0  0  0  0
  140.7001   75.7751  223.2820 H   0  0  0  0  0  0  0  0  0  0  0  0
  140.9400   77.7467  220.8376 H   0  0  0  0  0  0  0  0  0  0  0  0
  142.1546   76.5883  221.2455 H   0  0  0  0  0  0  0  0  0  0  0  0
  140.2080   75.7969  219.4801 H   0  0  0  0  0  0  0  0  0  0  0  0
  140.4074   71.9496  223.2047 H   0  0  0  0  0  0  0  0  0  0  0  0
  142.3407   70.9602  221.9045 H   0  0  0  0  0  0  0  0  0  0  0  0
  143.2168   72.2862  219.9910 H   0  0  0  0  0  0  0  0  0  0  0  0
  136.1492   69.6748  223.4173 H   0  0  0  0  0  0  0  0  0  0  0  0
  137.1164   68.2807  225.2023 H   0  0  0  0  0  0  0  0  0  0  0  0
  138.7790   67.8842  226.7767 H   0  0  0  0  0  0  0  0  0  0  0  0
  142.0056   70.6528  227.1948 H   0  0  0  0  0  0  0  0  0  0  0  0
  141.0642   72.0818  225.4029 H   0  0  0  0  0  0  0  0  0  0  0  0
  1  2  2  0
  2  3  1  0
  3  4  1  0
  4  5  1  0
  5  6  2  0
  5  7  1  0
  7  8  1  0
  8  9  1  0
  9 10  1  0
 10 11  1  0
 11 12  1  0
 12 13  2  0
 13 14  1  0
 14 15  2  0
 15 16  1  0
 16 17  2  0
  2 18  1  0
 18 19  2  0
 19 20  1  0
 20 21  2  0
 21 22  1  0
 22 23  2  0
 23 24  1  0
 23 25  1  0
 25 26  2  0
 26 27  1  0
 27 28  2  0
 11  7  1  0
 17 12  1  0
 28 18  1  0
 27 21  1  0
  3 29  1  0
  4 30  1  0
  4 31  1  0
  8 32  1  0
  8 33  1  0
  9 34  1  0
  9 35  1  0
 10 36  1  0
 10 37  1  0
 11 38  1  6
 14 39  1  0
 15 40  1  0
 16 41  1  0
 19 42  1  0
 20 43  1  0
 22 44  1  0
 25 45  1  0
 26 46  1  0
M  END
>  <meeko>  (4) 
{"free_energy": -6.49, "intermolecular_energy": -7.98, "internal_energy": -2.72, "cluster_size": 13, "cluster_id": 4, "rank_in_cluster": 12}

$$$$

     RDKit          3D

 46 49  0  0  0  0  0  0  0  0999 V2000
  136.7480   71.0920  221.5780 O   0  0  0  0  0  0  0  0  0  0  0  0
  137.5290   71.6730  222.3950 C   0  0  0  0  0  0  0  0  0  0  0  0
  137.8440   73.0720  222.2600 N   0  0  0  0  0  0  0  0  0  0  0  0
  137.2950   73.8680  221.2220 C   0  0  0  0  0  0  0  0  0  0  0  0
  137.5850   75.2920  221.1780 C   0  0  0  0  0  0  0  0  0  0  0  0
  136.5480   76.0390  220.9240 O   0  0  0  0  0  0  0  0  0  0  0  0
  138.8220   75.9560  221.3670 N   0  0  0  0  0  0  0  0  0  0  0  0
  139.2320   76.9430  222.3460 C   0  0  0  0  0  0  0  0  0  0  0  0
  140.7610   76.7630  222.3870 C   0  0  0  0  0  0  0  0  0  0  0  0
  140.9990   76.7170  220.8670 C   0  0  0  0  0  0  0  0  0  0  0  0
  139.9700   75.6830  220.4870 C   0  0  1  0  0  0  0  0  0  0  0  0
  140.5830   74.3570  220.7850 C   0  0  0  0  0  0  0  0  0  0  0  0
  140.4280   73.7770  221.9890 N   0  0  0  0  0  0  0  0  0  0  0  0
  140.9500   72.5910  222.3220 C   0  0  0  0  0  0  0  0  0  0  0  0
  141.7020   71.8970  221.3800 C   0  0  0  0  0  0  0  0  0  0  0  0
  141.8480   72.5080  220.1530 C   0  0  0  0  0  0  0  0  0  0  0  0
  141.3060   73.7000  219.8640 N   0  0  0  0  0  0  0  0  0  0  0  0
  138.1380   70.9250  223.5150 C   0  0  0  0  0  0  0  0  0  0  0  0
  137.7330   69.6230  223.7250 C   0  0  0  0  0  0  0  0  0  0  0  0
  138.2510   68.8720  224.7370 C   0  0  0  0  0  0  0  0  0  0  0  0
  139.1980   69.4400  225.5580 C   0  0  0  0  0  0  0  0  0  0  0  0
  139.7040   68.6550  226.5750 C   0  0  0  0  0  0  0  0  0  0  0  0
  140.6570   69.1890  227.4220 C   0  0  0  0  0  0  0  0  0  0  0  0
  141.3040   68.1950  228.7160 Cl  0  0  0  0  0  0  0  0  0  0  0  0
  141.0510   70.4810  227.2040 C   0  0  0  0  0  0  0  0  0  0  0  0
  140.5360   71.2700  226.1750 C   0  0  0  0  0  0  0  0  0  0  0  0
  139.5780   70.7300  225.3250 C   0  0  0  0  0  0  0  0  0  0  0  0
  139.0530   71.4490  224.3230 N   0  0  0  0  0  0  0  0  0  0  0  0
  138.5080   73.4780  222.9760 H   0  0  0  0  0  0  0  0  0  0  0  0
  137.6476   73.4408  220.2716 H   0  0  0  0  0  0  0  0  0  0  0  0
  136.2128   73.8322  221.4160 H   0  0  0  0  0  0  0  0  0  0  0  0
  138.9606   77.9589  222.0230 H   0  0  0  0  0  0  0  0  0  0  0  0
  138.7503   76.8123  223.3262 H   0  0  0  0  0  0  0  0  0  0  0  0
  141.2700   77.6130  222.8650 H   0  0  0  0  0  0  0  0  0  0  0  0
  141.1355   75.9054  222.9652 H   0  0  0  0  0  0  0  0  0  0  0  0
  140.8003   77.6884  220.3907 H   0  0  0  0  0  0  0  0  0  0  0  0
  142.0301   76.4870  220.5606 H   0  0  0  0  0  0  0  0  0  0  0  0
  139.6549   75.7011  219.4332 H   0  0  0  0  0  0  0  0  0  0  0  0
  140.7869   72.1711  223.3256 H   0  0  0  0  0  0  0  0  0  0  0  0
  142.1535   70.9186  221.6010 H   0  0  0  0  0  0  0  0  0  0  0  0
  142.4350   71.9952  219.3768 H   0  0  0  0  0  0  0  0  0  0  0  0
  136.9753   69.1815  223.0609 H   0  0  0  0  0  0  0  0  0  0  0  0
  137.9196   67.8349  224.8942 H   0  0  0  0  0  0  0  0  0  0  0  0
  139.3542   67.6208  226.7091 H   0  0  0  0  0  0  0  0  0  0  0  0
  141.8089   70.9179  227.8709 H   0  0  0  0  0  0  0  0  0  0  0  0
  140.8832   72.3048  226.0384 H   0  0  0  0  0  0  0  0  0  0  0  0
  1  2  2  0
  2  3  1  0
  3  4  1  0
  4  5  1  0
  5  6  2  0
  5  7  1  0
  7  8  1  0
  8  9  1  0
  9 10  1  0
 10 11  1  0
 11 12  1  0
 12 13  2  0
 13 14  1  0
 14 15  2  0
 15 16  1  0
 16 17  2  0
  2 18  1  0
 18 19  2  0
 19 20  1  0
 20 21  2  0
 21 22  1  0
 22 23  2  0
 23 24  1  0
 23 25  1  0
 25 26  2  0
 26 27  1  0
 27 28  2  0
 11  7  1  0
 17 12  1  0
 28 18  1  0
 27 21  1  0
  3 29  1  0
  4 30  1  0
  4 31  1  0
  8 32  1  0
  8 33  1  0
  9 34  1  0
  9 35  1  0
 10 36  1  0
 10 37  1  0
 11 38  1  6
 14 39  1  0
 15 40  1  0
 16 41  1  0
 19 42  1  0
 20 43  1  0
 22 44  1  0
 25 45  1  0
 26 46  1  0
M  END
>  <meeko>  (5) 
{"free_energy": -6.88, "intermolecular_energy": -8.37, "internal_energy": -2.68, "cluster_size": 13, "cluster_id": 4, "rank_in_cluster": 8}

$$$$

     RDKit          3D

 46 49  0  0  0  0  0  0  0  0999 V2000
  139.9200   72.2730  220.6980 O   0  0  0  0  0  0  0  0  0  0  0  0
  139.8240   72.7350  221.8780 C   0  0  0  0  0  0  0  0  0  0  0  0
  139.6110   74.1410  222.1140 N   0  0  0  0  0  0  0  0  0  0  0  0
  139.4870   75.0690  221.0500 C   0  0  0  0  0  0  0  0  0  0  0  0
  139.6870   76.4860  221.3060 C   0  0  0  0  0  0  0  0  0  0  0  0
  139.3460   76.8640  222.5060 O   0  0  0  0  0  0  0  0  0  0  0  0
  140.1890   77.4870  220.4380 N   0  0  0  0  0  0  0  0  0  0  0  0
  139.5440   78.2380  219.3790 C   0  0  0  0  0  0  0  0  0  0  0  0
  140.4060   79.5110  219.2950 C   0  0  0  0  0  0  0  0  0  0  0  0
  141.7830   78.8240  219.3260 C   0  0  0  0  0  0  0  0  0  0  0  0
  141.5880   77.9330  220.5260 C   0  0  1  0  0  0  0  0  0  0  0  0
  141.8120   78.7940  221.7240 C   0  0  0  0  0  0  0  0  0  0  0  0
  141.6150   78.3160  222.9660 N   0  0  0  0  0  0  0  0  0  0  0  0
  141.7980   79.0330  224.0810 C   0  0  0  0  0  0  0  0  0  0  0  0
  142.2170   80.3540  223.9730 C   0  0  0  0  0  0  0  0  0  0  0  0
  142.4140   80.8230  222.6920 C   0  0  0  0  0  0  0  0  0  0  0  0
  142.2180   80.0670  221.6000 N   0  0  0  0  0  0  0  0  0  0  0  0
  139.9280   71.8380  223.0480 C   0  0  0  0  0  0  0  0  0  0  0  0
  139.4960   70.5360  222.9100 C   0  0  0  0  0  0  0  0  0  0  0  0
  139.5620   69.6520  223.9450 C   0  0  0  0  0  0  0  0  0  0  0  0
  140.0740   70.0850  225.1470 C   0  0  0  0  0  0  0  0  0  0  0  0
  140.1280   69.1670  226.1770 C   0  0  0  0  0  0  0  0  0  0  0  0
  140.6360   69.5620  227.4000 C   0  0  0  0  0  0  0  0  0  0  0  0
  140.7070   68.3990  228.7130 Cl  0  0  0  0  0  0  0  0  0  0  0  0
  141.0620   70.8570  227.5250 C   0  0  0  0  0  0  0  0  0  0  0  0
  141.0050   71.7800  226.4810 C   0  0  0  0  0  0  0  0  0  0  0  0
  140.4940   71.3790  225.2520 C   0  0  0  0  0  0  0  0  0  0  0  0
  140.4180   72.2300  224.2190 N   0  0  0  0  0  0  0  0  0  0  0  0
  139.5500   74.4460  223.1250 H   0  0  0  0  0  0  0  0  0  0  0  0
  140.2199   74.7763  220.2838 H   0  0  0  0  0  0  0  0  0  0  0  0
  138.4238   75.0048  220.7754 H   0  0  0  0  0  0  0  0  0  0  0  0
  139.5634   77.6823  218.4299 H   0  0  0  0  0  0  0  0  0  0  0  0
  138.4808   78.4423  219.5733 H   0  0  0  0  0  0  0  0  0  0  0  0
  140.2378   80.0698  218.3626 H   0  0  0  0  0  0  0  0  0  0  0  0
  140.2246   80.2743  220.0661 H   0  0  0  0  0  0  0  0  0  0  0  0
  141.9733   78.2442  218.4108 H   0  0  0  0  0  0  0  0  0  0  0  0
  142.6452   79.5047  219.3828 H   0  0  0  0  0  0  0  0  0  0  0  0
  142.2618   77.0652  220.5793 H   0  0  0  0  0  0  0  0  0  0  0  0
  141.6194   78.5834  225.0689 H   0  0  0  0  0  0  0  0  0  0  0  0
  142.3815   80.9873  224.8572 H   0  0  0  0  0  0  0  0  0  0  0  0
  142.7466   81.8630  222.5584 H   0  0  0  0  0  0  0  0  0  0  0  0
  139.0893   70.2036  221.9435 H   0  0  0  0  0  0  0  0  0  0  0  0
  139.2139   68.6157  223.8226 H   0  0  0  0  0  0  0  0  0  0  0  0
  139.7721   68.1371  226.0264 H   0  0  0  0  0  0  0  0  0  0  0  0
  141.4679   71.1847  228.4934 H   0  0  0  0  0  0  0  0  0  0  0  0
  141.3595   72.8109  226.6281 H   0  0  0  0  0  0  0  0  0  0  0  0
  1  2  2  0
  2  3  1  0
  3  4  1  0
  4  5  1  0
  5  6  2  0
  5  7  1  0
  7  8  1  0
  8  9  1  0
  9 10  1  0
 10 11  1  0
 11 12  1  0
 12 13  2  0
 13 14  1  0
 14 15  2  0
 15 16  1  0
 16 17  2  0
  2 18  1  0
 18 19  2  0
 19 20  1  0
 20 21  2  0
 21 22  1  0
 22 23  2  0
 23 24  1  0
 23 25  1  0
 25 26  2  0
 26 27  1  0
 27 28  2  0
 11  7  1  0
 17 12  1  0
 28 18  1  0
 27 21  1  0
  3 29  1  0
  4 30  1  0
  4 31  1  0
  8 32  1  0
  8 33  1  0
  9 34  1  0
  9 35  1  0
 10 36  1  0
 10 37  1  0
 11 38  1  6
 14 39  1  0
 15 40  1  0
 16 41  1  0
 19 42  1  0
 20 43  1  0
 22 44  1  0
 25 45  1  0
 26 46  1  0
M  END
>  <meeko>  (6) 
{"free_energy": -8.15, "intermolecular_energy": -9.64, "internal_energy": -1.59, "cluster_size": 3, "cluster_id": 1, "rank_in_cluster": 1}

$$$$

     RDKit          3D

 46 49  0  0  0  0  0  0  0  0999 V2000
  140.3660   70.8580  221.3070 O   0  0  0  0  0  0  0  0  0  0  0  0
  139.8000   71.7560  222.0070 C   0  0  0  0  0  0  0  0  0  0  0  0
  138.7720   71.4230  222.9590 N   0  0  0  0  0  0  0  0  0  0  0  0
  138.3500   70.0860  223.1710 C   0  0  0  0  0  0  0  0  0  0  0  0
  138.0570   69.6300  224.5200 C   0  0  0  0  0  0  0  0  0  0  0  0
  136.9080   70.0360  224.9820 O   0  0  0  0  0  0  0  0  0  0  0  0
  138.8440   68.8230  225.3790 N   0  0  0  0  0  0  0  0  0  0  0  0
  139.5700   67.5940  225.1280 C   0  0  0  0  0  0  0  0  0  0  0  0
  140.6490   67.6100  226.2260 C   0  0  0  0  0  0  0  0  0  0  0  0
  139.7340   67.9970  227.4010 C   0  0  0  0  0  0  0  0  0  0  0  0
  139.0380   69.1870  226.7910 C   0  0  1  0  0  0  0  0  0  0  0  0
  139.9780   70.3370  226.9340 C   0  0  0  0  0  0  0  0  0  0  0  0
  140.2560   70.8570  228.1430 N   0  0  0  0  0  0  0  0  0  0  0  0
  141.0890   71.8860  228.3420 C   0  0  0  0  0  0  0  0  0  0  0  0
  141.7160   72.4670  227.2450 C   0  0  0  0  0  0  0  0  0  0  0  0
  141.4190   71.9180  226.0170 C   0  0  0  0  0  0  0  0  0  0  0  0
  140.5760   70.8850  225.8650 N   0  0  0  0  0  0  0  0  0  0  0  0
  140.1850   73.1760  221.8610 C   0  0  0  0  0  0  0  0  0  0  0  0
  141.3650   73.4670  221.2090 C   0  0  0  0  0  0  0  0  0  0  0  0
  141.7830   74.7520  221.0370 C   0  0  0  0  0  0  0  0  0  0  0  0
  141.0000   75.7700  221.5310 C   0  0  0  0  0  0  0  0  0  0  0  0
  141.4490   77.0620  221.3410 C   0  0  0  0  0  0  0  0  0  0  0  0
  140.6910   78.1120  221.8230 C   0  0  0  0  0  0  0  0  0  0  0  0
  141.2580   79.7560  221.5840 Cl  0  0  0  0  0  0  0  0  0  0  0  0
  139.5220   77.8110  222.4680 C   0  0  0  0  0  0  0  0  0  0  0  0
  139.0720   76.5040  222.6560 C   0  0  0  0  0  0  0  0  0  0  0  0
  139.8380   75.4490  222.1710 C   0  0  0  0  0  0  0  0  0  0  0  0
  139.4470   74.1770  222.3290 N   0  0  0  0  0  0  0  0  0  0  0  0
  138.3460   72.2290  223.4950 H   0  0  0  0  0  0  0  0  0  0  0  0
  137.4337   69.9428  222.5795 H   0  0  0  0  0  0  0  0  0  0  0  0
  139.2292   69.4906  222.8839 H   0  0  0  0  0  0  0  0  0  0  0  0
  138.9134   66.7173  225.2295 H   0  0  0  0  0  0  0  0  0  0  0  0
  139.9828   67.5302  224.1104 H   0  0  0  0  0  0  0  0  0  0  0  0
  141.1176   66.6248  226.3670 H   0  0  0  0  0  0  0  0  0  0  0  0
  141.5163   68.2628  226.0479 H   0  0  0  0  0  0  0  0  0  0  0  0
  139.0272   67.1927  227.6532 H   0  0  0  0  0  0  0  0  0  0  0  0
  140.2503   68.1928  228.3524 H   0  0  0  0  0  0  0  0  0  0  0  0
  138.0755   69.4539  227.2517 H   0  0  0  0  0  0  0  0  0  0  0  0
  141.2746   72.2660  229.3574 H   0  0  0  0  0  0  0  0  0  0  0  0
  142.4084   73.3151  227.3516 H   0  0  0  0  0  0  0  0  0  0  0  0
  141.8938   72.3452  225.1214 H   0  0  0  0  0  0  0  0  0  0  0  0
  141.9819   72.6437  220.8195 H   0  0  0  0  0  0  0  0  0  0  0  0
  142.7259   74.9711  220.5146 H   0  0  0  0  0  0  0  0  0  0  0  0
  142.3956   77.2524  220.8140 H   0  0  0  0  0  0  0  0  0  0  0  0
  138.9090   78.6378  222.8561 H   0  0  0  0  0  0  0  0  0  0  0  0
  138.1247   76.3104  223.1805 H   0  0  0  0  0  0  0  0  0  0  0  0
  1  2  2  0
  2  3  1  0
  3  4  1  0
  4  5  1  0
  5  6  2  0
  5  7  1  0
  7  8  1  0
  8  9  1  0
  9 10  1  0
 10 11  1  0
 11 12  1  0
 12 13  2  0
 13 14  1  0
 14 15  2  0
 15 16  1  0
 16 17  2  0
  2 18  1  0
 18 19  2  0
 19 20  1  0
 20 21  2  0
 21 22  1  0
 22 23  2  0
 23 24  1  0
 23 25  1  0
 25 26  2  0
 26 27  1  0
 27 28  2  0
 11  7  1  0
 17 12  1  0
 28 18  1  0
 27 21  1  0
  3 29  1  0
  4 30  1  0
  4 31  1  0
  8 32  1  0
  8 33  1  0
  9 34  1  0
  9 35  1  0
 10 36  1  0
 10 37  1  0
 11 38  1  1
 14 39  1  0
 15 40  1  0
 16 41  1  0
 19 42  1  0
 20 43  1  0
 22 44  1  0
 25 45  1  0
 26 46  1  0
M  END
>  <meeko>  (7) 
{"free_energy": -8.13, "intermolecular_energy": -9.62, "internal_energy": -1.87, "cluster_size": 3, "cluster_id": 2, "rank_in_cluster": 1}

$$$$

     RDKit          3D

 46 49  0  0  0  0  0  0  0  0999 V2000
  136.8490   71.0240  221.5520 O   0  0  0  0  0  0  0  0  0  0  0  0
  137.6050   71.6140  222.3870 C   0  0  0  0  0  0  0  0  0  0  0  0
  137.8860   73.0220  222.2720 N   0  0  0  0  0  0  0  0  0  0  0  0
  137.3310   73.8170  221.2380 C   0  0  0  0  0  0  0  0  0  0  0  0
  137.5650   75.2510  221.2290 C   0  0  0  0  0  0  0  0  0  0  0  0
  136.4920   75.9650  221.0380 O   0  0  0  0  0  0  0  0  0  0  0  0
  138.7830   75.9570  221.3920 N   0  0  0  0  0  0  0  0  0  0  0  0
  139.1750   76.9660  222.3570 C   0  0  0  0  0  0  0  0  0  0  0  0
  140.7090   76.8360  222.3750 C   0  0  0  0  0  0  0  0  0  0  0  0
  140.9250   76.7830  220.8520 C   0  0  0  0  0  0  0  0  0  0  0  0
  139.9250   75.7130  220.4980 C   0  0  1  0  0  0  0  0  0  0  0  0
  140.5860   74.4100  220.7990 C   0  0  0  0  0  0  0  0  0  0  0  0
  140.4120   73.8040  221.9870 N   0  0  0  0  0  0  0  0  0  0  0  0
  140.9740   72.6360  222.3210 C   0  0  0  0  0  0  0  0  0  0  0  0
  141.7910   71.9920  221.3980 C   0  0  0  0  0  0  0  0  0  0  0  0
  141.9540   72.6290  220.1870 C   0  0  0  0  0  0  0  0  0  0  0  0
  141.3700   73.8020  219.8960 N   0  0  0  0  0  0  0  0  0  0  0  0
  138.2180   70.8660  223.5050 C   0  0  0  0  0  0  0  0  0  0  0  0
  137.8650   69.5440  223.6750 C   0  0  0  0  0  0  0  0  0  0  0  0
  138.3910   68.7930  224.6830 C   0  0  0  0  0  0  0  0  0  0  0  0
  139.2910   69.3820  225.5410 C   0  0  0  0  0  0  0  0  0  0  0  0
  139.8070   68.5960  226.5520 C   0  0  0  0  0  0  0  0  0  0  0  0
  140.7140   69.1510  227.4350 C   0  0  0  0  0  0  0  0  0  0  0  0
  141.3720   68.1560  228.7230 Cl  0  0  0  0  0  0  0  0  0  0  0  0
  141.0570   70.4640  227.2560 C   0  0  0  0  0  0  0  0  0  0  0  0
  140.5340   71.2530  226.2320 C   0  0  0  0  0  0  0  0  0  0  0  0
  139.6200   70.6920  225.3450 C   0  0  0  0  0  0  0  0  0  0  0  0
  139.0900   71.4110  224.3470 N   0  0  0  0  0  0  0  0  0  0  0  0
  138.5310   73.4350  223.0020 H   0  0  0  0  0  0  0  0  0  0  0  0
  137.7224   73.4238  220.2881 H   0  0  0  0  0  0  0  0  0  0  0  0
  136.2469   73.7351  221.4054 H   0  0  0  0  0  0  0  0  0  0  0  0
  138.8654   77.9696  222.0300 H   0  0  0  0  0  0  0  0  0  0  0  0
  138.7128   76.8286  223.3457 H   0  0  0  0  0  0  0  0  0  0  0  0
  141.1975   77.7066  222.8370 H   0  0  0  0  0  0  0  0  0  0  0  0
  141.1200   75.9965  222.9549 H   0  0  0  0  0  0  0  0  0  0  0  0
  140.6875   77.7428  220.3699 H   0  0  0  0  0  0  0  0  0  0  0  0
  141.9583   76.5836  220.5316 H   0  0  0  0  0  0  0  0  0  0  0  0
  139.5934   75.7104  219.4492 H   0  0  0  0  0  0  0  0  0  0  0  0
  140.7923   72.1921  223.3109 H   0  0  0  0  0  0  0  0  0  0  0  0
  142.2781   71.0313  221.6213 H   0  0  0  0  0  0  0  0  0  0  0  0
  142.5907   72.1554  219.4253 H   0  0  0  0  0  0  0  0  0  0  0  0
  137.1436   69.0860  222.9823 H   0  0  0  0  0  0  0  0  0  0  0  0
  138.1024   67.7389  224.8080 H   0  0  0  0  0  0  0  0  0  0  0  0
  139.5010   67.5443  226.6532 H   0  0  0  0  0  0  0  0  0  0  0  0
  141.7782   70.9175  227.9518 H   0  0  0  0  0  0  0  0  0  0  0  0
  140.8397   72.3044  226.1268 H   0  0  0  0  0  0  0  0  0  0  0  0
  1  2  2  0
  2  3  1  0
  3  4  1  0
  4  5  1  0
  5  6  2  0
  5  7  1  0
  7  8  1  0
  8  9  1  0
  9 10  1  0
 10 11  1  0
 11 12  1  0
 12 13  2  0
 13 14  1  0
 14 15  2  0
 15 16  1  0
 16 17  2  0
  2 18  1  0
 18 19  2  0
 19 20  1  0
 20 21  2  0
 21 22  1  0
 22 23  2  0
 23 24  1  0
 23 25  1  0
 25 26  2  0
 26 27  1  0
 27 28  2  0
 11  7  1  0
 17 12  1  0
 28 18  1  0
 27 21  1  0
  3 29  1  0
  4 30  1  0
  4 31  1  0
  8 32  1  0
  8 33  1  0
  9 34  1  0
  9 35  1  0
 10 36  1  0
 10 37  1  0
 11 38  1  6
 14 39  1  0
 15 40  1  0
 16 41  1  0
 19 42  1  0
 20 43  1  0
 22 44  1  0
 25 45  1  0
 26 46  1  0
M  END
>  <meeko>  (8) 
{"free_energy": -6.91, "intermolecular_energy": -8.4, "internal_energy": -2.66, "cluster_size": 13, "cluster_id": 4, "rank_in_cluster": 4}

$$$$

     RDKit          3D

 46 49  0  0  0  0  0  0  0  0999 V2000
  136.7680   71.0300  221.3950 O   0  0  0  0  0  0  0  0  0  0  0  0
  137.5270   71.6560  222.2000 C   0  0  0  0  0  0  0  0  0  0  0  0
  137.8150   73.0560  222.0190 N   0  0  0  0  0  0  0  0  0  0  0  0
  137.2620   73.8030  220.9480 C   0  0  0  0  0  0  0  0  0  0  0  0
  137.7700   75.1340  220.6620 C   0  0  0  0  0  0  0  0  0  0  0  0
  137.0680   75.7960  219.7850 O   0  0  0  0  0  0  0  0  0  0  0  0
  138.9060   75.7900  221.1990 N   0  0  0  0  0  0  0  0  0  0  0  0
  139.0460   76.6600  222.3500 C   0  0  0  0  0  0  0  0  0  0  0  0
  140.5330   76.4990  222.7140 C   0  0  0  0  0  0  0  0  0  0  0  0
  141.1060   76.6370  221.2920 C   0  0  0  0  0  0  0  0  0  0  0  0
  140.2300   75.6400  220.5770 C   0  0  1  0  0  0  0  0  0  0  0  0
  140.8160   74.2960  220.8550 C   0  0  0  0  0  0  0  0  0  0  0  0
  141.6780   73.7250  219.9950 N   0  0  0  0  0  0  0  0  0  0  0  0
  142.2400   72.5250  220.1840 C   0  0  0  0  0  0  0  0  0  0  0  0
  141.9270   71.8080  221.3330 C   0  0  0  0  0  0  0  0  0  0  0  0
  141.0420   72.4110  222.2010 C   0  0  0  0  0  0  0  0  0  0  0  0
  140.5030   73.6180  221.9700 N   0  0  0  0  0  0  0  0  0  0  0  0
  138.1380   70.9610  223.3530 C   0  0  0  0  0  0  0  0  0  0  0  0
  137.7000   69.6880  223.6520 C   0  0  0  0  0  0  0  0  0  0  0  0
  138.2170   68.9860  224.6990 C   0  0  0  0  0  0  0  0  0  0  0  0
  139.1980   69.5750  225.4640 C   0  0  0  0  0  0  0  0  0  0  0  0
  139.7040   68.8390  226.5170 C   0  0  0  0  0  0  0  0  0  0  0  0
  140.6900   69.3950  227.3100 C   0  0  0  0  0  0  0  0  0  0  0  0
  141.3360   68.4640  228.6500 Cl  0  0  0  0  0  0  0  0  0  0  0  0
  141.1170   70.6580  227.0030 C   0  0  0  0  0  0  0  0  0  0  0  0
  140.6040   71.3970  225.9370 C   0  0  0  0  0  0  0  0  0  0  0  0
  139.6110   70.8350  225.1410 C   0  0  0  0  0  0  0  0  0  0  0  0
  139.0860   71.5060  224.1070 N   0  0  0  0  0  0  0  0  0  0  0  0
  138.4620   73.5010  222.7270 H   0  0  0  0  0  0  0  0  0  0  0  0
  137.4026   73.2048  220.0356 H   0  0  0  0  0  0  0  0  0  0  0  0
  136.2269   73.9875  221.2714 H   0  0  0  0  0  0  0  0  0  0  0  0
  138.8115   77.7029  222.0903 H   0  0  0  0  0  0  0  0  0  0  0  0
  138.3638   76.4071  223.1750 H   0  0  0  0  0  0  0  0  0  0  0  0
  140.8875   77.2937  223.3869 H   0  0  0  0  0  0  0  0  0  0  0  0
  140.8039   75.5842  223.2614 H   0  0  0  0  0  0  0  0  0  0  0  0
  140.9790   77.6549  220.8948 H   0  0  0  0  0  0  0  0  0  0  0  0
  142.1881   76.4605  221.2025 H   0  0  0  0  0  0  0  0  0  0  0  0
  140.1562   75.7779  219.4882 H   0  0  0  0  0  0  0  0  0  0  0  0
  142.9389   72.1125  219.4414 H   0  0  0  0  0  0  0  0  0  0  0  0
  142.3600   70.8177  221.5375 H   0  0  0  0  0  0  0  0  0  0  0  0
  140.7655   71.8794  223.1235 H   0  0  0  0  0  0  0  0  0  0  0  0
  136.9160   69.2293  223.0316 H   0  0  0  0  0  0  0  0  0  0  0  0
  137.8585   67.9715  224.9278 H   0  0  0  0  0  0  0  0  0  0  0  0
  139.3281   67.8257  226.7216 H   0  0  0  0  0  0  0  0  0  0  0  0
  141.9017   71.1120  227.6261 H   0  0  0  0  0  0  0  0  0  0  0  0
  140.9793   72.4098  225.7287 H   0  0  0  0  0  0  0  0  0  0  0  0
  1  2  2  0
  2  3  1  0
  3  4  1  0
  4  5  1  0
  5  6  2  0
  5  7  1  0
  7  8  1  0
  8  9  1  0
  9 10  1  0
 10 11  1  0
 11 12  1  0
 12 13  2  0
 13 14  1  0
 14 15  2  0
 15 16  1  0
 16 17  2  0
  2 18  1  0
 18 19  2  0
 19 20  1  0
 20 21  2  0
 21 22  1  0
 22 23  2  0
 23 24  1  0
 23 25  1  0
 25 26  2  0
 26 27  1  0
 27 28  2  0
 11  7  1  0
 17 12  1  0
 28 18  1  0
 27 21  1  0
  3 29  1  0
  4 30  1  0
  4 31  1  0
  8 32  1  0
  8 33  1  0
  9 34  1  0
  9 35  1  0
 10 36  1  0
 10 37  1  0
 11 38  1  6
 14 39  1  0
 15 40  1  0
 16 41  1  0
 19 42  1  0
 20 43  1  0
 22 44  1  0
 25 45  1  0
 26 46  1  0
M  END
>  <meeko>  (9) 
{"free_energy": -6.49, "intermolecular_energy": -7.98, "internal_energy": -2.74, "cluster_size": 13, "cluster_id": 4, "rank_in_cluster": 13}

$$$$

     RDKit          3D

 46 49  0  0  0  0  0  0  0  0999 V2000
  132.8090   69.7490  226.4820 O   0  0  0  0  0  0  0  0  0  0  0  0
  133.5450   70.7690  226.3040 C   0  0  0  0  0  0  0  0  0  0  0  0
  134.8730   70.6450  225.7590 N   0  0  0  0  0  0  0  0  0  0  0  0
  135.4170   69.3900  225.3860 C   0  0  0  0  0  0  0  0  0  0  0  0
  136.0590   69.2410  224.0900 C   0  0  0  0  0  0  0  0  0  0  0  0
  135.3780   68.5300  223.2370 O   0  0  0  0  0  0  0  0  0  0  0  0
  137.3030   69.7550  223.6480 N   0  0  0  0  0  0  0  0  0  0  0  0
  137.6800   71.0830  223.2030 C   0  0  0  0  0  0  0  0  0  0  0  0
  139.1960   71.1110  223.4750 C   0  0  0  0  0  0  0  0  0  0  0  0
  139.5330   69.7330  222.8770 C   0  0  0  0  0  0  0  0  0  0  0  0
  138.4960   68.8970  223.5830 C   0  0  1  0  0  0  0  0  0  0  0  0
  139.0420   68.6190  224.9440 C   0  0  0  0  0  0  0  0  0  0  0  0
  139.0260   69.5630  225.9020 N   0  0  0  0  0  0  0  0  0  0  0  0
  139.4980   69.3810  227.1410 C   0  0  0  0  0  0  0  0  0  0  0  0
  140.0430   68.1470  227.4800 C   0  0  0  0  0  0  0  0  0  0  0  0
  140.0490   67.1950  226.4840 C   0  0  0  0  0  0  0  0  0  0  0  0
  139.5640   67.4230  225.2540 N   0  0  0  0  0  0  0  0  0  0  0  0
  133.0560   72.1200  226.6530 C   0  0  0  0  0  0  0  0  0  0  0  0
  131.8190   72.2290  227.2530 C   0  0  0  0  0  0  0  0  0  0  0  0
  131.3040   73.4400  227.6030 C   0  0  0  0  0  0  0  0  0  0  0  0
  132.0470   74.5700  227.3460 C   0  0  0  0  0  0  0  0  0  0  0  0
  131.4990   75.7830  227.7130 C   0  0  0  0  0  0  0  0  0  0  0  0
  132.2140   76.9410  227.4720 C   0  0  0  0  0  0  0  0  0  0  0  0
  131.5220   78.4860  227.9350 Cl  0  0  0  0  0  0  0  0  0  0  0  0
  133.4410   76.8200  226.8770 C   0  0  0  0  0  0  0  0  0  0  0  0
  133.9900   75.5910  226.5090 C   0  0  0  0  0  0  0  0  0  0  0  0
  133.2680   74.4280  226.7530 C   0  0  0  0  0  0  0  0  0  0  0  0
  133.7530   73.2250  226.4160 N   0  0  0  0  0  0  0  0  0  0  0  0
  135.4240   71.5410  225.6510 H   0  0  0  0  0  0  0  0  0  0  0  0
  136.1680   69.1290  226.1462 H   0  0  0  0  0  0  0  0  0  0  0  0
  134.5333   68.7392  225.3111 H   0  0  0  0  0  0  0  0  0  0  0  0
  137.4661   71.2187  222.1326 H   0  0  0  0  0  0  0  0  0  0  0  0
  137.1293   71.8877  223.7121 H   0  0  0  0  0  0  0  0  0  0  0  0
  139.7013   71.9322  222.9455 H   0  0  0  0  0  0  0  0  0  0  0  0
  139.5011   71.2773  224.5187 H   0  0  0  0  0  0  0  0  0  0  0  0
  139.4006   69.7157  221.7851 H   0  0  0  0  0  0  0  0  0  0  0  0
  140.5736   69.4040  223.0146 H   0  0  0  0  0  0  0  0  0  0  0  0
  138.2526   67.9424  223.0937 H   0  0  0  0  0  0  0  0  0  0  0  0
  139.4556   70.1948  227.8799 H   0  0  0  0  0  0  0  0  0  0  0  0
  140.4452   67.9433  228.4834 H   0  0  0  0  0  0  0  0  0  0  0  0
  140.4703   66.2037  226.7072 H   0  0  0  0  0  0  0  0  0  0  0  0
  131.2358   71.3180  227.4532 H   0  0  0  0  0  0  0  0  0  0  0  0
  130.3159   73.5137  228.0806 H   0  0  0  0  0  0  0  0  0  0  0  0
  130.5087   75.8271  228.1898 H   0  0  0  0  0  0  0  0  0  0  0  0
  134.0209   77.7337  226.6799 H   0  0  0  0  0  0  0  0  0  0  0  0
  134.9803   75.5429  226.0325 H   0  0  0  0  0  0  0  0  0  0  0  0
  1  2  2  0
  2  3  1  0
  3  4  1  0
  4  5  1  0
  5  6  2  0
  5  7  1  0
  7  8  1  0
  8  9  1  0
  9 10  1  0
 10 11  1  0
 11 12  1  0
 12 13  2  0
 13 14  1  0
 14 15  2  0
 15 16  1  0
 16 17  2  0
  2 18  1  0
 18 19  2  0
 19 20  1  0
 20 21  2  0
 21 22  1  0
 22 23  2  0
 23 24  1  0
 23 25  1  0
 25 26  2  0
 26 27  1  0
 27 28  2  0
 11  7  1  0
 17 12  1  0
 28 18  1  0
 27 21  1  0
  3 29  1  0
  4 30  1  0
  4 31  1  0
  8 32  1  0
  8 33  1  0
  9 34  1  0
  9 35  1  0
 10 36  1  0
 10 37  1  0
 11 38  1  6
 14 39  1  0
 15 40  1  0
 16 41  1  0
 19 42  1  0
 20 43  1  0
 22 44  1  0
 25 45  1  0
 26 46  1  0
M  END
>  <meeko>  (10) 
{"free_energy": -7.81, "intermolecular_energy": -9.3, "internal_energy": -1.52, "cluster_size": 1, "cluster_id": 3, "rank_in_cluster": 1}

$$$$

     RDKit          3D

 46 49  0  0  0  0  0  0  0  0999 V2000
  136.8360   71.0690  221.5580 O   0  0  0  0  0  0  0  0  0  0  0  0
  137.5900   71.6570  222.3960 C   0  0  0  0  0  0  0  0  0  0  0  0
  137.8690   73.0660  222.2890 N   0  0  0  0  0  0  0  0  0  0  0  0
  137.3120   73.8650  221.2580 C   0  0  0  0  0  0  0  0  0  0  0  0
  137.5990   75.2890  221.2190 C   0  0  0  0  0  0  0  0  0  0  0  0
  136.5570   76.0360  220.9840 O   0  0  0  0  0  0  0  0  0  0  0  0
  138.8370   75.9550  221.3940 N   0  0  0  0  0  0  0  0  0  0  0  0
  139.2490   76.9610  222.3540 C   0  0  0  0  0  0  0  0  0  0  0  0
  140.7770   76.7790  222.3980 C   0  0  0  0  0  0  0  0  0  0  0  0
  141.0150   76.7020  220.8800 C   0  0  0  0  0  0  0  0  0  0  0  0
  139.9840   75.6630  220.5210 C   0  0  1  0  0  0  0  0  0  0  0  0
  140.5960   74.3410  220.8460 C   0  0  0  0  0  0  0  0  0  0  0  0
  141.3330   73.6780  219.9370 N   0  0  0  0  0  0  0  0  0  0  0  0
  141.9090   72.4900  220.1630 C   0  0  0  0  0  0  0  0  0  0  0  0
  141.7490   71.8890  221.4070 C   0  0  0  0  0  0  0  0  0  0  0  0
  140.9910   72.5860  222.3230 C   0  0  0  0  0  0  0  0  0  0  0  0
  140.4310   73.7760  222.0520 N   0  0  0  0  0  0  0  0  0  0  0  0
  138.2040   70.9050  223.5100 C   0  0  0  0  0  0  0  0  0  0  0  0
  137.8730   69.5740  223.6590 C   0  0  0  0  0  0  0  0  0  0  0  0
  138.4010   68.8180  224.6620 C   0  0  0  0  0  0  0  0  0  0  0  0
  139.2810   69.4110  225.5380 C   0  0  0  0  0  0  0  0  0  0  0  0
  139.7990   68.6200  226.5440 C   0  0  0  0  0  0  0  0  0  0  0  0
  140.6870   69.1780  227.4440 C   0  0  0  0  0  0  0  0  0  0  0  0
  141.3490   68.1770  228.7250 Cl  0  0  0  0  0  0  0  0  0  0  0  0
  141.0090   70.4990  227.2870 C   0  0  0  0  0  0  0  0  0  0  0  0
  140.4830   71.2940  226.2680 C   0  0  0  0  0  0  0  0  0  0  0  0
  139.5890   70.7300  225.3640 C   0  0  0  0  0  0  0  0  0  0  0  0
  139.0570   71.4530  224.3690 N   0  0  0  0  0  0  0  0  0  0  0  0
  138.5130   73.4770  223.0210 H   0  0  0  0  0  0  0  0  0  0  0  0
  137.6596   73.4428  220.3036 H   0  0  0  0  0  0  0  0  0  0  0  0
  136.2310   73.8259  221.4579 H   0  0  0  0  0  0  0  0  0  0  0  0
  138.9793   77.9708  222.0112 H   0  0  0  0  0  0  0  0  0  0  0  0
  138.7672   76.8506  223.3367 H   0  0  0  0  0  0  0  0  0  0  0  0
  141.2877   77.6374  222.8587 H   0  0  0  0  0  0  0  0  0  0  0  0
  141.1498   75.9323  222.9931 H   0  0  0  0  0  0  0  0  0  0  0  0
  140.8185   77.6640  220.3842 H   0  0  0  0  0  0  0  0  0  0  0  0
  142.0457   76.4637  220.5784 H   0  0  0  0  0  0  0  0  0  0  0  0
  139.6685   75.6608  219.4672 H   0  0  0  0  0  0  0  0  0  0  0  0
  142.4996   71.9972  219.3766 H   0  0  0  0  0  0  0  0  0  0  0  0
  142.2008   70.9149  221.6457 H   0  0  0  0  0  0  0  0  0  0  0  0
  140.8379   72.1480  223.3204 H   0  0  0  0  0  0  0  0  0  0  0  0
  137.1672   69.1129  222.9524 H   0  0  0  0  0  0  0  0  0  0  0  0
  138.1299   67.7573  224.7691 H   0  0  0  0  0  0  0  0  0  0  0  0
  139.5094   67.5621  226.6279 H   0  0  0  0  0  0  0  0  0  0  0  0
  141.7149   70.9549  227.9968 H   0  0  0  0  0  0  0  0  0  0  0  0
  140.7713   72.3520  226.1809 H   0  0  0  0  0  0  0  0  0  0  0  0
  1  2  2  0
  2  3  1  0
  3  4  1  0
  4  5  1  0
  5  6  2  0
  5  7  1  0
  7  8  1  0
  8  9  1  0
  9 10  1  0
 10 11  1  0
 11 12  1  0
 12 13  2  0
 13 14  1  0
 14 15  2  0
 15 16  1  0
 16 17  2  0
  2 18  1  0
 18 19  2  0
 19 20  1  0
 20 21  2  0
 21 22  1  0
 22 23  2  0
 23 24  1  0
 23 25  1  0
 25 26  2  0
 26 27  1  0
 27 28  2  0
 11  7  1  0
 17 12  1  0
 28 18  1  0
 27 21  1  0
  3 29  1  0
  4 30  1  0
  4 31  1  0
  8 32  1  0
  8 33  1  0
  9 34  1  0
  9 35  1  0
 10 36  1  0
 10 37  1  0
 11 38  1  6
 14 39  1  0
 15 40  1  0
 16 41  1  0
 19 42  1  0
 20 43  1  0
 22 44  1  0
 25 45  1  0
 26 46  1  0
M  END
>  <meeko>  (11) 
{"free_energy": -6.89, "intermolecular_energy": -8.38, "internal_energy": -2.7, "cluster_size": 13, "cluster_id": 4, "rank_in_cluster": 6}

$$$$

     RDKit          3D

 46 49  0  0  0  0  0  0  0  0999 V2000
  136.8790   71.0260  221.5250 O   0  0  0  0  0  0  0  0  0  0  0  0
  137.6380   71.6190  222.3550 C   0  0  0  0  0  0  0  0  0  0  0  0
  137.9170   73.0270  222.2360 N   0  0  0  0  0  0  0  0  0  0  0  0
  137.3560   73.8190  221.2030 C   0  0  0  0  0  0  0  0  0  0  0  0
  137.6320   75.2460  221.1600 C   0  0  0  0  0  0  0  0  0  0  0  0
  136.5900   75.9820  220.8940 O   0  0  0  0  0  0  0  0  0  0  0  0
  138.8600   75.9230  221.3620 N   0  0  0  0  0  0  0  0  0  0  0  0
  139.2470   76.9180  222.3430 C   0  0  0  0  0  0  0  0  0  0  0  0
  140.7770   76.7530  222.4040 C   0  0  0  0  0  0  0  0  0  0  0  0
  141.0350   76.7030  220.8870 C   0  0  0  0  0  0  0  0  0  0  0  0
  140.0210   75.6580  220.4990 C   0  0  1  0  0  0  0  0  0  0  0  0
  140.6440   74.3390  220.8100 C   0  0  0  0  0  0  0  0  0  0  0  0
  141.3920   73.6930  219.8970 N   0  0  0  0  0  0  0  0  0  0  0  0
  141.9780   72.5090  220.1110 C   0  0  0  0  0  0  0  0  0  0  0  0
  141.8190   71.8910  221.3470 C   0  0  0  0  0  0  0  0  0  0  0  0
  141.0500   72.5700  222.2680 C   0  0  0  0  0  0  0  0  0  0  0  0
  140.4800   73.7570  222.0080 N   0  0  0  0  0  0  0  0  0  0  0  0
  138.2580   70.8740  223.4710 C   0  0  0  0  0  0  0  0  0  0  0  0
  137.9780   69.5290  223.5910 C   0  0  0  0  0  0  0  0  0  0  0  0
  138.5140   68.7790  224.5950 C   0  0  0  0  0  0  0  0  0  0  0  0
  139.3500   69.3930  225.5000 C   0  0  0  0  0  0  0  0  0  0  0  0
  139.8770   68.6070  226.5050 C   0  0  0  0  0  0  0  0  0  0  0  0
  140.7210   69.1860  227.4340 C   0  0  0  0  0  0  0  0  0  0  0  0
  141.3940   68.1920  228.7150 Cl  0  0  0  0  0  0  0  0  0  0  0  0
  140.9910   70.5220  227.3050 C   0  0  0  0  0  0  0  0  0  0  0  0
  140.4560   71.3110  226.2870 C   0  0  0  0  0  0  0  0  0  0  0  0
  139.6070   70.7250  225.3530 C   0  0  0  0  0  0  0  0  0  0  0  0
  139.0670   71.4420  224.3580 N   0  0  0  0  0  0  0  0  0  0  0  0
  138.5650   73.4420  222.9620 H   0  0  0  0  0  0  0  0  0  0  0  0
  137.7081   73.3969  220.2502 H   0  0  0  0  0  0  0  0  0  0  0  0
  136.2752   73.7726  221.4023 H   0  0  0  0  0  0  0  0  0  0  0  0
  138.9697   77.9299  222.0128 H   0  0  0  0  0  0  0  0  0  0  0  0
  138.7538   76.7864  223.3174 H   0  0  0  0  0  0  0  0  0  0  0  0
  141.2716   77.6098  222.8848 H   0  0  0  0  0  0  0  0  0  0  0  0
  141.1523   75.9014  222.9905 H   0  0  0  0  0  0  0  0  0  0  0  0
  140.8332   77.6704  220.4039 H   0  0  0  0  0  0  0  0  0  0  0  0
  142.0721   76.4817  220.5946 H   0  0  0  0  0  0  0  0  0  0  0  0
  139.7185   75.6687  219.4415 H   0  0  0  0  0  0  0  0  0  0  0  0
  142.5765   72.0316  219.3211 H   0  0  0  0  0  0  0  0  0  0  0  0
  142.2794   70.9185  221.5759 H   0  0  0  0  0  0  0  0  0  0  0  0
  140.8968   72.1191  223.2596 H   0  0  0  0  0  0  0  0  0  0  0  0
  137.3079   69.0514  222.8610 H   0  0  0  0  0  0  0  0  0  0  0  0
  138.2836   67.7068  224.6802 H   0  0  0  0  0  0  0  0  0  0  0  0
  139.6292   67.5370  226.5656 H   0  0  0  0  0  0  0  0  0  0  0  0
  141.6609   70.9950  228.0382 H   0  0  0  0  0  0  0  0  0  0  0  0
  140.7016   72.3813  226.2233 H   0  0  0  0  0  0  0  0  0  0  0  0
  1  2  2  0
  2  3  1  0
  3  4  1  0
  4  5  1  0
  5  6  2  0
  5  7  1  0
  7  8  1  0
  8  9  1  0
  9 10  1  0
 10 11  1  0
 11 12  1  0
 12 13  2  0
 13 14  1  0
 14 15  2  0
 15 16  1  0
 16 17  2  0
  2 18  1  0
 18 19  2  0
 19 20  1  0
 20 21  2  0
 21 22  1  0
 22 23  2  0
 23 24  1  0
 23 25  1  0
 25 26  2  0
 26 27  1  0
 27 28  2  0
 11  7  1  0
 17 12  1  0
 28 18  1  0
 27 21  1  0
  3 29  1  0
  4 30  1  0
  4 31  1  0
  8 32  1  0
  8 33  1  0
  9 34  1  0
  9 35  1  0
 10 36  1  0
 10 37  1  0
 11 38  1  6
 14 39  1  0
 15 40  1  0
 16 41  1  0
 19 42  1  0
 20 43  1  0
 22 44  1  0
 25 45  1  0
 26 46  1  0
M  END
>  <meeko>  (12) 
{"free_energy": -6.86, "intermolecular_energy": -8.35, "internal_energy": -2.71, "cluster_size": 13, "cluster_id": 4, "rank_in_cluster": 9}

$$$$

     RDKit          3D

 46 49  0  0  0  0  0  0  0  0999 V2000
  136.8270   71.1030  221.5330 O   0  0  0  0  0  0  0  0  0  0  0  0
  137.5820   71.6810  222.3760 C   0  0  0  0  0  0  0  0  0  0  0  0
  137.8840   73.0860  222.2670 N   0  0  0  0  0  0  0  0  0  0  0  0
  137.3510   73.8900  221.2280 C   0  0  0  0  0  0  0  0  0  0  0  0
  137.6420   75.3140  221.1990 C   0  0  0  0  0  0  0  0  0  0  0  0
  136.6050   76.0650  220.9620 O   0  0  0  0  0  0  0  0  0  0  0  0
  138.8810   75.9740  221.3880 N   0  0  0  0  0  0  0  0  0  0  0  0
  139.2880   76.9760  222.3540 C   0  0  0  0  0  0  0  0  0  0  0  0
  140.8150   76.7890  222.4120 C   0  0  0  0  0  0  0  0  0  0  0  0
  141.0670   76.7150  220.8950 C   0  0  0  0  0  0  0  0  0  0  0  0
  140.0350   75.6800  220.5240 C   0  0  1  0  0  0  0  0  0  0  0  0
  140.6390   74.3550  220.8510 C   0  0  0  0  0  0  0  0  0  0  0  0
  141.3920   73.6970  219.9520 N   0  0  0  0  0  0  0  0  0  0  0  0
  141.9620   72.5080  220.1810 C   0  0  0  0  0  0  0  0  0  0  0  0
  141.7780   71.8980  221.4170 C   0  0  0  0  0  0  0  0  0  0  0  0
  141.0040   72.5890  222.3230 C   0  0  0  0  0  0  0  0  0  0  0  0
  140.4510   73.7810  222.0500 N   0  0  0  0  0  0  0  0  0  0  0  0
  138.1730   70.9240  223.5000 C   0  0  0  0  0  0  0  0  0  0  0  0
  137.7520   69.6270  223.7030 C   0  0  0  0  0  0  0  0  0  0  0  0
  138.2530   68.8680  224.7180 C   0  0  0  0  0  0  0  0  0  0  0  0
  139.1990   69.4240  225.5480 C   0  0  0  0  0  0  0  0  0  0  0  0
  139.6880   68.6310  226.5670 C   0  0  0  0  0  0  0  0  0  0  0  0
  140.6400   69.1520  227.4230 C   0  0  0  0  0  0  0  0  0  0  0  0
  141.2650   68.1480  228.7200 Cl  0  0  0  0  0  0  0  0  0  0  0  0
  141.0510   70.4400  227.2110 C   0  0  0  0  0  0  0  0  0  0  0  0
  140.5540   71.2370  226.1800 C   0  0  0  0  0  0  0  0  0  0  0  0
  139.5960   70.7100  225.3200 C   0  0  0  0  0  0  0  0  0  0  0  0
  139.0880   71.4360  224.3160 N   0  0  0  0  0  0  0  0  0  0  0  0
  138.5270   73.4890  223.0040 H   0  0  0  0  0  0  0  0  0  0  0  0
  137.7173   73.4700  220.2796 H   0  0  0  0  0  0  0  0  0  0  0  0
  136.2661   73.8534  221.4061 H   0  0  0  0  0  0  0  0  0  0  0  0
  139.0249   77.9875  222.0111 H   0  0  0  0  0  0  0  0  0  0  0  0
  138.7970   76.8645  223.3320 H   0  0  0  0  0  0  0  0  0  0  0  0
  141.3241   77.6447  222.8797 H   0  0  0  0  0  0  0  0  0  0  0  0
  141.1796   75.9397  223.0085 H   0  0  0  0  0  0  0  0  0  0  0  0
  140.8784   77.6790  220.3998 H   0  0  0  0  0  0  0  0  0  0  0  0
  142.0995   76.4739  220.6022 H   0  0  0  0  0  0  0  0  0  0  0  0
  139.7291   75.6816  219.4674 H   0  0  0  0  0  0  0  0  0  0  0  0
  142.5673   72.0203  219.4027 H   0  0  0  0  0  0  0  0  0  0  0  0
  142.2241   70.9216  221.6570 H   0  0  0  0  0  0  0  0  0  0  0  0
  140.8315   72.1441  223.3141 H   0  0  0  0  0  0  0  0  0  0  0  0
  136.9954   69.1955  223.0312 H   0  0  0  0  0  0  0  0  0  0  0  0
  137.9089   67.8344  224.8702 H   0  0  0  0  0  0  0  0  0  0  0  0
  139.3255   67.6004  226.6956 H   0  0  0  0  0  0  0  0  0  0  0  0
  141.8085   70.8665  227.8850 H   0  0  0  0  0  0  0  0  0  0  0  0
  140.9145   72.2679  226.0487 H   0  0  0  0  0  0  0  0  0  0  0  0
  1  2  2  0
  2  3  1  0
  3  4  1  0
  4  5  1  0
  5  6  2  0
  5  7  1  0
  7  8  1  0
  8  9  1  0
  9 10  1  0
 10 11  1  0
 11 12  1  0
 12 13  2  0
 13 14  1  0
 14 15  2  0
 15 16  1  0
 16 17  2  0
  2 18  1  0
 18 19  2  0
 19 20  1  0
 20 21  2  0
 21 22  1  0
 22 23  2  0
 23 24  1  0
 23 25  1  0
 25 26  2  0
 26 27  1  0
 27 28  2  0
 11  7  1  0
 17 12  1  0
 28 18  1  0
 27 21  1  0
  3 29  1  0
  4 30  1  0
  4 31  1  0
  8 32  1  0
  8 33  1  0
  9 34  1  0
  9 35  1  0
 10 36  1  0
 10 37  1  0
 11 38  1  6
 14 39  1  0
 15 40  1  0
 16 41  1  0
 19 42  1  0
 20 43  1  0
 22 44  1  0
 25 45  1  0
 26 46  1  0
M  END
>  <meeko>  (13) 
{"free_energy": -6.91, "intermolecular_energy": -8.41, "internal_energy": -2.68, "cluster_size": 13, "cluster_id": 4, "rank_in_cluster": 3}

$$$$

     RDKit          3D

 46 49  0  0  0  0  0  0  0  0999 V2000
  139.9980   72.4090  220.8340 O   0  0  0  0  0  0  0  0  0  0  0  0
  139.8410   72.8110  222.0300 C   0  0  0  0  0  0  0  0  0  0  0  0
  139.5540   74.1920  222.3210 N   0  0  0  0  0  0  0  0  0  0  0  0
  139.4220   75.1630  221.2960 C   0  0  0  0  0  0  0  0  0  0  0  0
  140.5950   75.8920  220.8410 C   0  0  0  0  0  0  0  0  0  0  0  0
  141.7280   75.3570  221.2020 O   0  0  0  0  0  0  0  0  0  0  0  0
  140.6640   77.0820  220.0770 N   0  0  0  0  0  0  0  0  0  0  0  0
  139.7310   77.6590  219.1280 C   0  0  0  0  0  0  0  0  0  0  0  0
  140.0970   79.1540  219.1630 C   0  0  0  0  0  0  0  0  0  0  0  0
  141.6250   78.9900  219.0750 C   0  0  0  0  0  0  0  0  0  0  0  0
  141.8270   77.9770  220.1720 C   0  0  1  0  0  0  0  0  0  0  0  0
  141.8220   78.7440  221.4520 C   0  0  0  0  0  0  0  0  0  0  0  0
  141.4490   78.1620  222.6060 N   0  0  0  0  0  0  0  0  0  0  0  0
  141.4220   78.7910  223.7880 C   0  0  0  0  0  0  0  0  0  0  0  0
  141.7990   80.1280  223.8490 C   0  0  0  0  0  0  0  0  0  0  0  0
  142.1780   80.7050  222.6550 C   0  0  0  0  0  0  0  0  0  0  0  0
  142.1890   80.0340  221.4930 N   0  0  0  0  0  0  0  0  0  0  0  0
  139.9490   71.8650  223.1610 C   0  0  0  0  0  0  0  0  0  0  0  0
  139.5180   70.5690  222.9690 C   0  0  0  0  0  0  0  0  0  0  0  0
  139.5870   69.6430  223.9660 C   0  0  0  0  0  0  0  0  0  0  0  0
  140.1000   70.0260  225.1840 C   0  0  0  0  0  0  0  0  0  0  0  0
  140.1580   69.0650  226.1750 C   0  0  0  0  0  0  0  0  0  0  0  0
  140.6660   69.4100  227.4130 C   0  0  0  0  0  0  0  0  0  0  0  0
  140.7420   68.1930  228.6750 Cl  0  0  0  0  0  0  0  0  0  0  0  0
  141.0910   70.6990  227.5910 C   0  0  0  0  0  0  0  0  0  0  0  0
  141.0310   71.6650  226.5870 C   0  0  0  0  0  0  0  0  0  0  0  0
  140.5180   71.3150  225.3420 C   0  0  0  0  0  0  0  0  0  0  0  0
  140.4400   72.2090  224.3470 N   0  0  0  0  0  0  0  0  0  0  0  0
  139.4460   74.4470  223.3420 H   0  0  0  0  0  0  0  0  0  0  0  0
  139.0068   74.6463  220.4182 H   0  0  0  0  0  0  0  0  0  0  0  0
  138.7988   75.9423  221.7591 H   0  0  0  0  0  0  0  0  0  0  0  0
  139.8765   77.2381  218.1222 H   0  0  0  0  0  0  0  0  0  0  0  0
  138.6775   77.4608  219.3748 H   0  0  0  0  0  0  0  0  0  0  0  0
  139.6852   79.7059  218.3052 H   0  0  0  0  0  0  0  0  0  0  0  0
  139.7173   79.7285  220.0207 H   0  0  0  0  0  0  0  0  0  0  0  0
  141.9409   78.6028  218.0950 H   0  0  0  0  0  0  0  0  0  0  0  0
  142.2037   79.9193  219.1820 H   0  0  0  0  0  0  0  0  0  0  0  0
  142.7592   77.3968  220.1066 H   0  0  0  0  0  0  0  0  0  0  0  0
  141.1063   78.2580  224.6970 H   0  0  0  0  0  0  0  0  0  0  0  0
  141.7952   80.6920  224.7934 H   0  0  0  0  0  0  0  0  0  0  0  0
  142.4846   81.7614  222.6553 H   0  0  0  0  0  0  0  0  0  0  0  0
  139.1099   70.2768  221.9902 H   0  0  0  0  0  0  0  0  0  0  0  0
  139.2403   68.6122  223.8009 H   0  0  0  0  0  0  0  0  0  0  0  0
  139.8053   68.0412  225.9816 H   0  0  0  0  0  0  0  0  0  0  0  0
  141.4988   70.9862  228.5714 H   0  0  0  0  0  0  0  0  0  0  0  0
  141.3843   72.6893  226.7767 H   0  0  0  0  0  0  0  0  0  0  0  0
  1  2  2  0
  2  3  1  0
  3  4  1  0
  4  5  1  0
  5  6  2  0
  5  7  1  0
  7  8  1  0
  8  9  1  0
  9 10  1  0
 10 11  1  0
 11 12  1  0
 12 13  2  0
 13 14  1  0
 14 15  2  0
 15 16  1  0
 16 17  2  0
  2 18  1  0
 18 19  2  0
 19 20  1  0
 20 21  2  0
 21 22  1  0
 22 23  2  0
 23 24  1  0
 23 25  1  0
 25 26  2  0
 26 27  1  0
 27 28  2  0
 11  7  1  0
 17 12  1  0
 28 18  1  0
 27 21  1  0
  3 29  1  0
  4 30  1  0
  4 31  1  0
  8 32  1  0
  8 33  1  0
  9 34  1  0
  9 35  1  0
 10 36  1  0
 10 37  1  0
 11 38  1  6
 14 39  1  0
 15 40  1  0
 16 41  1  0
 19 42  1  0
 20 43  1  0
 22 44  1  0
 25 45  1  0
 26 46  1  0
M  END
>  <meeko>  (14) 
{"free_energy": -7.93, "intermolecular_energy": -9.42, "internal_energy": -1.45, "cluster_size": 3, "cluster_id": 1, "rank_in_cluster": 3}

$$$$

     RDKit          3D

 46 49  0  0  0  0  0  0  0  0999 V2000
  136.8660   71.0320  221.5370 O   0  0  0  0  0  0  0  0  0  0  0  0
  137.5970   71.6240  222.3920 C   0  0  0  0  0  0  0  0  0  0  0  0
  137.8550   73.0390  222.3010 N   0  0  0  0  0  0  0  0  0  0  0  0
  137.3030   73.8370  221.2680 C   0  0  0  0  0  0  0  0  0  0  0  0
  137.5400   75.2710  221.2630 C   0  0  0  0  0  0  0  0  0  0  0  0
  136.4650   75.9890  221.0980 O   0  0  0  0  0  0  0  0  0  0  0  0
  138.7620   75.9730  221.4070 N   0  0  0  0  0  0  0  0  0  0  0  0
  139.1630   77.0040  222.3450 C   0  0  0  0  0  0  0  0  0  0  0  0
  140.6960   76.8640  222.3640 C   0  0  0  0  0  0  0  0  0  0  0  0
  140.9090   76.7730  220.8420 C   0  0  0  0  0  0  0  0  0  0  0  0
  139.9010   75.7010  220.5160 C   0  0  1  0  0  0  0  0  0  0  0  0
  140.5550   74.4010  220.8470 C   0  0  0  0  0  0  0  0  0  0  0  0
  141.3570   73.7850  219.9600 N   0  0  0  0  0  0  0  0  0  0  0  0
  141.9730   72.6190  220.1920 C   0  0  0  0  0  0  0  0  0  0  0  0
  141.7880   71.9920  221.4190 C   0  0  0  0  0  0  0  0  0  0  0  0
  140.9640   72.6410  222.3130 C   0  0  0  0  0  0  0  0  0  0  0  0
  140.3660   73.8100  222.0360 N   0  0  0  0  0  0  0  0  0  0  0  0
  138.2040   70.8730  223.5120 C   0  0  0  0  0  0  0  0  0  0  0  0
  137.8310   69.5580  223.6910 C   0  0  0  0  0  0  0  0  0  0  0  0
  138.3490   68.8040  224.7000 C   0  0  0  0  0  0  0  0  0  0  0  0
  139.2640   69.3830  225.5500 C   0  0  0  0  0  0  0  0  0  0  0  0
  139.7720   68.5940  226.5630 C   0  0  0  0  0  0  0  0  0  0  0  0
  140.6930   69.1380  227.4380 C   0  0  0  0  0  0  0  0  0  0  0  0
  141.3420   68.1400  228.7280 Cl  0  0  0  0  0  0  0  0  0  0  0  0
  141.0550   70.4450  227.2500 C   0  0  0  0  0  0  0  0  0  0  0  0
  140.5400   71.2370  226.2240 C   0  0  0  0  0  0  0  0  0  0  0  0
  139.6130   70.6860  225.3460 C   0  0  0  0  0  0  0  0  0  0  0  0
  139.0880   71.4080  224.3460 N   0  0  0  0  0  0  0  0  0  0  0  0
  138.4790   73.4540  223.0480 H   0  0  0  0  0  0  0  0  0  0  0  0
  137.6951   73.4453  220.3178 H   0  0  0  0  0  0  0  0  0  0  0  0
  136.2184   73.7565  221.4331 H   0  0  0  0  0  0  0  0  0  0  0  0
  138.8598   78.0009  221.9926 H   0  0  0  0  0  0  0  0  0  0  0  0
  138.7017   76.8953  223.3377 H   0  0  0  0  0  0  0  0  0  0  0  0
  141.1911   77.7421  222.8043 H   0  0  0  0  0  0  0  0  0  0  0  0
  141.1023   76.0359  222.9633 H   0  0  0  0  0  0  0  0  0  0  0  0
  140.6768   77.7224  220.3372 H   0  0  0  0  0  0  0  0  0  0  0  0
  141.9403   76.5594  220.5245 H   0  0  0  0  0  0  0  0  0  0  0  0
  139.5667   75.6758  219.4683 H   0  0  0  0  0  0  0  0  0  0  0  0
  142.6155   72.1642  219.4237 H   0  0  0  0  0  0  0  0  0  0  0  0
  142.2710   71.0340  221.6620 H   0  0  0  0  0  0  0  0  0  0  0  0
  140.7889   72.1807  223.2966 H   0  0  0  0  0  0  0  0  0  0  0  0
  137.0992   69.1080  223.0040 H   0  0  0  0  0  0  0  0  0  0  0  0
  138.0430   67.7558  224.8327 H   0  0  0  0  0  0  0  0  0  0  0  0
  139.4485   67.5483  226.6718 H   0  0  0  0  0  0  0  0  0  0  0  0
  141.7860   70.8912  227.9403 H   0  0  0  0  0  0  0  0  0  0  0  0
  140.8625   72.2826  226.1109 H   0  0  0  0  0  0  0  0  0  0  0  0
  1  2  2  0
  2  3  1  0
  3  4  1  0
  4  5  1  0
  5  6  2  0
  5  7  1  0
  7  8  1  0
  8  9  1  0
  9 10  1  0
 10 11  1  0
 11 12  1  0
 12 13  2  0
 13 14  1  0
 14 15  2  0
 15 16  1  0
 16 17  2  0
  2 18  1  0
 18 19  2  0
 19 20  1  0
 20 21  2  0
 21 22  1  0
 22 23  2  0
 23 24  1  0
 23 25  1  0
 25 26  2  0
 26 27  1  0
 27 28  2  0
 11  7  1  0
 17 12  1  0
 28 18  1  0
 27 21  1  0
  3 29  1  0
  4 30  1  0
  4 31  1  0
  8 32  1  0
  8 33  1  0
  9 34  1  0
  9 35  1  0
 10 36  1  0
 10 37  1  0
 11 38  1  6
 14 39  1  0
 15 40  1  0
 16 41  1  0
 19 42  1  0
 20 43  1  0
 22 44  1  0
 25 45  1  0
 26 46  1  0
M  END
>  <meeko>  (15) 
{"free_energy": -6.95, "intermolecular_energy": -8.44, "internal_energy": -2.64, "cluster_size": 13, "cluster_id": 4, "rank_in_cluster": 1}

$$$$

     RDKit          3D

 46 49  0  0  0  0  0  0  0  0999 V2000
  136.8480   71.0670  221.4440 O   0  0  0  0  0  0  0  0  0  0  0  0
  137.6030   71.6700  222.2700 C   0  0  0  0  0  0  0  0  0  0  0  0
  137.8890   73.0750  222.1310 N   0  0  0  0  0  0  0  0  0  0  0  0
  137.3390   73.8530  221.0800 C   0  0  0  0  0  0  0  0  0  0  0  0
  137.6680   75.2650  220.9830 C   0  0  0  0  0  0  0  0  0  0  0  0
  136.7040   76.0050  220.5120 O   0  0  0  0  0  0  0  0  0  0  0  0
  138.8740   75.9260  221.3240 N   0  0  0  0  0  0  0  0  0  0  0  0
  139.1790   76.8590  222.3900 C   0  0  0  0  0  0  0  0  0  0  0  0
  140.7000   76.6870  222.5640 C   0  0  0  0  0  0  0  0  0  0  0  0
  141.0790   76.7280  221.0730 C   0  0  0  0  0  0  0  0  0  0  0  0
  140.1020   75.7110  220.5420 C   0  0  1  0  0  0  0  0  0  0  0  0
  140.7000   74.3730  220.8230 C   0  0  0  0  0  0  0  0  0  0  0  0
  140.5200   73.7700  222.0110 N   0  0  0  0  0  0  0  0  0  0  0  0
  141.0280   72.5730  222.3280 C   0  0  0  0  0  0  0  0  0  0  0  0
  141.7900   71.8930  221.3850 C   0  0  0  0  0  0  0  0  0  0  0  0
  141.9610   72.5280  220.1740 C   0  0  0  0  0  0  0  0  0  0  0  0
  141.4330   73.7300  219.9000 N   0  0  0  0  0  0  0  0  0  0  0  0
  138.2110   70.9420  223.4040 C   0  0  0  0  0  0  0  0  0  0  0  0
  137.8930   69.6100  223.5660 C   0  0  0  0  0  0  0  0  0  0  0  0
  138.4160   68.8750  224.5880 C   0  0  0  0  0  0  0  0  0  0  0  0
  139.2770   69.4900  225.4670 C   0  0  0  0  0  0  0  0  0  0  0  0
  139.7910   68.7200  226.4910 C   0  0  0  0  0  0  0  0  0  0  0  0
  140.6590   69.3010  227.3950 C   0  0  0  0  0  0  0  0  0  0  0  0
  141.3150   68.3270  228.7000 Cl  0  0  0  0  0  0  0  0  0  0  0  0
  140.9670   70.6240  227.2240 C   0  0  0  0  0  0  0  0  0  0  0  0
  140.4460   71.3980  226.1870 C   0  0  0  0  0  0  0  0  0  0  0  0
  139.5720   70.8100  225.2780 C   0  0  0  0  0  0  0  0  0  0  0  0
  139.0440   71.5120  224.2660 N   0  0  0  0  0  0  0  0  0  0  0  0
  138.5330   73.5000  222.8540 H   0  0  0  0  0  0  0  0  0  0  0  0
  137.6572   73.3855  220.1365 H   0  0  0  0  0  0  0  0  0  0  0  0
  136.2610   73.8550  221.2991 H   0  0  0  0  0  0  0  0  0  0  0  0
  138.9268   77.8896  222.0996 H   0  0  0  0  0  0  0  0  0  0  0  0
  138.6096   76.6704  223.3121 H   0  0  0  0  0  0  0  0  0  0  0  0
  141.1522   77.5121  223.1338 H   0  0  0  0  0  0  0  0  0  0  0  0
  141.0291   75.8008  223.1264 H   0  0  0  0  0  0  0  0  0  0  0  0
  140.9145   77.7234  220.6347 H   0  0  0  0  0  0  0  0  0  0  0  0
  142.1367   76.5220  220.8522 H   0  0  0  0  0  0  0  0  0  0  0  0
  139.8866   75.7869  219.4660 H   0  0  0  0  0  0  0  0  0  0  0  0
  140.8453   72.1339  223.3199 H   0  0  0  0  0  0  0  0  0  0  0  0
  142.2303   70.9067  221.5931 H   0  0  0  0  0  0  0  0  0  0  0  0
  142.5572   72.0266  219.3974 H   0  0  0  0  0  0  0  0  0  0  0  0
  137.2031   69.1307  222.8559 H   0  0  0  0  0  0  0  0  0  0  0  0
  138.1551   67.8130  224.7072 H   0  0  0  0  0  0  0  0  0  0  0  0
  139.5136   67.6598  226.5857 H   0  0  0  0  0  0  0  0  0  0  0  0
  141.6571   71.0985  227.9372 H   0  0  0  0  0  0  0  0  0  0  0  0
  140.7222   72.4583  226.0893 H   0  0  0  0  0  0  0  0  0  0  0  0
  1  2  2  0
  2  3  1  0
  3  4  1  0
  4  5  1  0
  5  6  2  0
  5  7  1  0
  7  8  1  0
  8  9  1  0
  9 10  1  0
 10 11  1  0
 11 12  1  0
 12 13  2  0
 13 14  1  0
 14 15  2  0
 15 16  1  0
 16 17  2  0
  2 18  1  0
 18 19  2  0
 19 20  1  0
 20 21  2  0
 21 22  1  0
 22 23  2  0
 23 24  1  0
 23 25  1  0
 25 26  2  0
 26 27  1  0
 27 28  2  0
 11  7  1  0
 17 12  1  0
 28 18  1  0
 27 21  1  0
  3 29  1  0
  4 30  1  0
  4 31  1  0
  8 32  1  0
  8 33  1  0
  9 34  1  0
  9 35  1  0
 10 36  1  0
 10 37  1  0
 11 38  1  6
 14 39  1  0
 15 40  1  0
 16 41  1  0
 19 42  1  0
 20 43  1  0
 22 44  1  0
 25 45  1  0
 26 46  1  0
M  END
>  <meeko>  (16) 
{"free_energy": -6.74, "intermolecular_energy": -8.24, "internal_energy": -2.74, "cluster_size": 13, "cluster_id": 4, "rank_in_cluster": 10}

$$$$

     RDKit          3D

 46 49  0  0  0  0  0  0  0  0999 V2000
  138.9030   71.5380  224.5170 O   0  0  0  0  0  0  0  0  0  0  0  0
  139.2270   71.2050  223.3340 C   0  0  0  0  0  0  0  0  0  0  0  0
  138.8040   69.9480  222.7700 N   0  0  0  0  0  0  0  0  0  0  0  0
  138.0030   69.0320  223.4970 C   0  0  0  0  0  0  0  0  0  0  0  0
  138.0780   69.0050  224.9480 C   0  0  0  0  0  0  0  0  0  0  0  0
  137.1070   69.6390  225.5440 O   0  0  0  0  0  0  0  0  0  0  0  0
  139.0490   68.3950  225.7800 N   0  0  0  0  0  0  0  0  0  0  0  0
  139.9520   67.2870  225.5330 C   0  0  0  0  0  0  0  0  0  0  0  0
  141.0900   67.5500  226.5360 C   0  0  0  0  0  0  0  0  0  0  0  0
  140.2110   67.8580  227.7620 C   0  0  0  0  0  0  0  0  0  0  0  0
  139.2830   68.8760  227.1500 C   0  0  1  0  0  0  0  0  0  0  0  0
  140.0240   70.1710  227.1550 C   0  0  0  0  0  0  0  0  0  0  0  0
  139.9510   71.0060  228.2070 N   0  0  0  0  0  0  0  0  0  0  0  0
  140.5900   72.1800  228.2760 C   0  0  0  0  0  0  0  0  0  0  0  0
  141.3830   72.5810  227.2060 C   0  0  0  0  0  0  0  0  0  0  0  0
  141.4440   71.7100  226.1400 C   0  0  0  0  0  0  0  0  0  0  0  0
  140.7860   70.5410  226.1140 N   0  0  0  0  0  0  0  0  0  0  0  0
  140.0510   72.1040  222.4990 C   0  0  0  0  0  0  0  0  0  0  0  0
  141.0730   71.5490  221.7580 C   0  0  0  0  0  0  0  0  0  0  0  0
  141.8730   72.3160  220.9650 C   0  0  0  0  0  0  0  0  0  0  0  0
  141.6410   73.6720  220.9140 C   0  0  0  0  0  0  0  0  0  0  0  0
  142.4680   74.4230  220.1010 C   0  0  0  0  0  0  0  0  0  0  0  0
  142.2680   75.7880  220.0220 C   0  0  0  0  0  0  0  0  0  0  0  0
  143.3160   76.7480  218.9910 Cl  0  0  0  0  0  0  0  0  0  0  0  0
  141.2500   76.3270  220.7620 C   0  0  0  0  0  0  0  0  0  0  0  0
  140.4180   75.5640  221.5810 C   0  0  0  0  0  0  0  0  0  0  0  0
  140.6210   74.1900  221.6580 C   0  0  0  0  0  0  0  0  0  0  0  0
  139.8490   73.4160  222.4310 N   0  0  0  0  0  0  0  0  0  0  0  0
  139.1230   69.7430  221.7830 H   0  0  0  0  0  0  0  0  0  0  0  0
  136.9562   69.2460  223.2355 H   0  0  0  0  0  0  0  0  0  0  0  0
  138.4027   68.0508  223.2012 H   0  0  0  0  0  0  0  0  0  0  0  0
  139.4615   66.3230  225.7331 H   0  0  0  0  0  0  0  0  0  0  0  0
  140.2944   67.2264  224.4894 H   0  0  0  0  0  0  0  0  0  0  0  0
  141.7263   66.6658  226.6886 H   0  0  0  0  0  0  0  0  0  0  0  0
  141.8199   68.3228  226.2532 H   0  0  0  0  0  0  0  0  0  0  0  0
  139.6695   66.9673  228.1134 H   0  0  0  0  0  0  0  0  0  0  0  0
  140.7549   68.1966  228.6561 H   0  0  0  0  0  0  0  0  0  0  0  0
  138.3256   69.0111  227.6745 H   0  0  0  0  0  0  0  0  0  0  0  0
  140.4895   72.8185  229.1661 H   0  0  0  0  0  0  0  0  0  0  0  0
  141.9287   73.5361  227.2105 H   0  0  0  0  0  0  0  0  0  0  0  0
  142.0599   71.9855  225.2712 H   0  0  0  0  0  0  0  0  0  0  0  0
  141.2462   70.4639  221.8081 H   0  0  0  0  0  0  0  0  0  0  0  0
  142.6856   71.8619  220.3790 H   0  0  0  0  0  0  0  0  0  0  0  0
  143.2728   73.9420  219.5258 H   0  0  0  0  0  0  0  0  0  0  0  0
  141.0804   77.4125  220.7081 H   0  0  0  0  0  0  0  0  0  0  0  0
  139.6126   76.0420  222.1579 H   0  0  0  0  0  0  0  0  0  0  0  0
  1  2  2  0
  2  3  1  0
  3  4  1  0
  4  5  1  0
  5  6  2  0
  5  7  1  0
  7  8  1  0
  8  9  1  0
  9 10  1  0
 10 11  1  0
 11 12  1  0
 12 13  2  0
 13 14  1  0
 14 15  2  0
 15 16  1  0
 16 17  2  0
  2 18  1  0
 18 19  2  0
 19 20  1  0
 20 21  2  0
 21 22  1  0
 22 23  2  0
 23 24  1  0
 23 25  1  0
 25 26  2  0
 26 27  1  0
 27 28  2  0
 11  7  1  0
 17 12  1  0
 28 18  1  0
 27 21  1  0
  3 29  1  0
  4 30  1  0
  4 31  1  0
  8 32  1  0
  8 33  1  0
  9 34  1  0
  9 35  1  0
 10 36  1  0
 10 37  1  0
 11 38  1  1
 14 39  1  0
 15 40  1  0
 16 41  1  0
 19 42  1  0
 20 43  1  0
 22 44  1  0
 25 45  1  0
 26 46  1  0
M  END
>  <meeko>  (17) 
{"free_energy": -7.45, "intermolecular_energy": -8.94, "internal_energy": -1.69, "cluster_size": 3, "cluster_id": 2, "rank_in_cluster": 3}

$$$$

     RDKit          3D

 46 49  0  0  0  0  0  0  0  0999 V2000
  136.0960   71.4360  221.7280 O   0  0  0  0  0  0  0  0  0  0  0  0
  137.0470   71.9320  222.4100 C   0  0  0  0  0  0  0  0  0  0  0  0
  137.5290   73.2660  222.1600 N   0  0  0  0  0  0  0  0  0  0  0  0
  136.9640   74.0920  221.1560 C   0  0  0  0  0  0  0  0  0  0  0  0
  137.7670   75.1440  220.5550 C   0  0  0  0  0  0  0  0  0  0  0  0
  137.4060   75.4630  219.3430 O   0  0  0  0  0  0  0  0  0  0  0  0
  138.8660   75.8500  221.1020 N   0  0  0  0  0  0  0  0  0  0  0  0
  138.9410   76.7880  222.2050 C   0  0  0  0  0  0  0  0  0  0  0  0
  140.4130   76.6740  222.6440 C   0  0  0  0  0  0  0  0  0  0  0  0
  141.0460   76.7400  221.2430 C   0  0  0  0  0  0  0  0  0  0  0  0
  140.2200   75.6890  220.5490 C   0  0  1  0  0  0  0  0  0  0  0  0
  140.8130   74.3740  220.9310 C   0  0  0  0  0  0  0  0  0  0  0  0
  141.8400   73.8500  220.2370 N   0  0  0  0  0  0  0  0  0  0  0  0
  142.4180   72.6780  220.5260 C   0  0  0  0  0  0  0  0  0  0  0  0
  141.9440   71.9410  221.6060 C   0  0  0  0  0  0  0  0  0  0  0  0
  140.8930   72.4960  222.3030 C   0  0  0  0  0  0  0  0  0  0  0  0
  140.3440   73.6760  221.9760 N   0  0  0  0  0  0  0  0  0  0  0  0
  137.6880   71.1470  223.4860 C   0  0  0  0  0  0  0  0  0  0  0  0
  137.0840   69.9740  223.8850 C   0  0  0  0  0  0  0  0  0  0  0  0
  137.6170   69.1980  224.8700 C   0  0  0  0  0  0  0  0  0  0  0  0
  138.7860   69.6100  225.4700 C   0  0  0  0  0  0  0  0  0  0  0  0
  139.3020   68.8040  226.4650 C   0  0  0  0  0  0  0  0  0  0  0  0
  140.4740   69.1820  227.0920 C   0  0  0  0  0  0  0  0  0  0  0  0
  141.1360   68.1610  228.3580 Cl  0  0  0  0  0  0  0  0  0  0  0  0
  141.0660   70.3490  226.6880 C   0  0  0  0  0  0  0  0  0  0  0  0
  140.5400   71.1590  225.6820 C   0  0  0  0  0  0  0  0  0  0  0  0
  139.3600   70.7760  225.0520 C   0  0  0  0  0  0  0  0  0  0  0  0
  138.8160   71.5220  224.0820 N   0  0  0  0  0  0  0  0  0  0  0  0
  138.3290   73.6010  222.7660 H   0  0  0  0  0  0  0  0  0  0  0  0
  136.6441   73.4283  220.3392 H   0  0  0  0  0  0  0  0  0  0  0  0
  136.1764   74.6435  221.6903 H   0  0  0  0  0  0  0  0  0  0  0  0
  138.7034   77.8098  221.8741 H   0  0  0  0  0  0  0  0  0  0  0  0
  138.2258   76.5718  223.0123 H   0  0  0  0  0  0  0  0  0  0  0  0
  140.7251   77.5121  223.2844 H   0  0  0  0  0  0  0  0  0  0  0  0
  140.6729   75.7975  223.2557 H   0  0  0  0  0  0  0  0  0  0  0  0
  140.9210   77.7310  220.7822 H   0  0  0  0  0  0  0  0  0  0  0  0
  142.1335   76.5777  221.2118 H   0  0  0  0  0  0  0  0  0  0  0  0
  140.1943   75.7633  219.4518 H   0  0  0  0  0  0  0  0  0  0  0  0
  143.2551   72.3034  219.9186 H   0  0  0  0  0  0  0  0  0  0  0  0
  142.3823   70.9721  221.8872 H   0  0  0  0  0  0  0  0  0  0  0  0
  140.4861   71.9477  223.1654 H   0  0  0  0  0  0  0  0  0  0  0  0
  136.1504   69.6572  223.3971 H   0  0  0  0  0  0  0  0  0  0  0  0
  137.1249   68.2640  225.1788 H   0  0  0  0  0  0  0  0  0  0  0  0
  138.7882   67.8754  226.7542 H   0  0  0  0  0  0  0  0  0  0  0  0
  141.9991   70.6617  227.1795 H   0  0  0  0  0  0  0  0  0  0  0  0
  141.0512   72.0883  225.3904 H   0  0  0  0  0  0  0  0  0  0  0  0
  1  2  2  0
  2  3  1  0
  3  4  1  0
  4  5  1  0
  5  6  2  0
  5  7  1  0
  7  8  1  0
  8  9  1  0
  9 10  1  0
 10 11  1  0
 11 12  1  0
 12 13  2  0
 13 14  1  0
 14 15  2  0
 15 16  1  0
 16 17  2  0
  2 18  1  0
 18 19  2  0
 19 20  1  0
 20 21  2  0
 21 22  1  0
 22 23  2  0
 23 24  1  0
 23 25  1  0
 25 26  2  0
 26 27  1  0
 27 28  2  0
 11  7  1  0
 17 12  1  0
 28 18  1  0
 27 21  1  0
  3 29  1  0
  4 30  1  0
  4 31  1  0
  8 32  1  0
  8 33  1  0
  9 34  1  0
  9 35  1  0
 10 36  1  0
 10 37  1  0
 11 38  1  6
 14 39  1  0
 15 40  1  0
 16 41  1  0
 19 42  1  0
 20 43  1  0
 22 44  1  0
 25 45  1  0
 26 46  1  0
M  END
>  <meeko>  (18) 
{"free_energy": -6.49, "intermolecular_energy": -7.98, "internal_energy": -2.74, "cluster_size": 13, "cluster_id": 4, "rank_in_cluster": 11}

$$$$

     RDKit          3D

 46 49  0  0  0  0  0  0  0  0999 V2000
  136.8500   71.0060  221.5720 O   0  0  0  0  0  0  0  0  0  0  0  0
  137.5970   71.6000  222.4110 C   0  0  0  0  0  0  0  0  0  0  0  0
  137.8600   73.0120  222.3080 N   0  0  0  0  0  0  0  0  0  0  0  0
  137.2950   73.8070  221.2790 C   0  0  0  0  0  0  0  0  0  0  0  0
  137.5420   75.2400  221.2590 C   0  0  0  0  0  0  0  0  0  0  0  0
  136.4740   75.9620  221.0730 O   0  0  0  0  0  0  0  0  0  0  0  0
  138.7670   75.9350  221.4080 N   0  0  0  0  0  0  0  0  0  0  0  0
  139.1700   76.9610  222.3500 C   0  0  0  0  0  0  0  0  0  0  0  0
  140.7020   76.8150  222.3740 C   0  0  0  0  0  0  0  0  0  0  0  0
  140.9200   76.7250  220.8530 C   0  0  0  0  0  0  0  0  0  0  0  0
  139.9080   75.6590  220.5210 C   0  0  1  0  0  0  0  0  0  0  0  0
  140.5540   74.3550  220.8520 C   0  0  0  0  0  0  0  0  0  0  0  0
  141.3200   73.7140  219.9510 N   0  0  0  0  0  0  0  0  0  0  0  0
  141.9280   72.5440  220.1820 C   0  0  0  0  0  0  0  0  0  0  0  0
  141.7710   71.9370  221.4240 C   0  0  0  0  0  0  0  0  0  0  0  0
  140.9830   72.6110  222.3320 C   0  0  0  0  0  0  0  0  0  0  0  0
  140.3920   73.7840  222.0550 N   0  0  0  0  0  0  0  0  0  0  0  0
  138.2190   70.8520  223.5250 C   0  0  0  0  0  0  0  0  0  0  0  0
  137.8920   69.5210  223.6780 C   0  0  0  0  0  0  0  0  0  0  0  0
  138.4270   68.7690  224.6810 C   0  0  0  0  0  0  0  0  0  0  0  0
  139.3110   69.3670  225.5500 C   0  0  0  0  0  0  0  0  0  0  0  0
  139.8370   68.5800  226.5550 C   0  0  0  0  0  0  0  0  0  0  0  0
  140.7280   69.1420  227.4490 C   0  0  0  0  0  0  0  0  0  0  0  0
  141.3990   68.1460  228.7290 Cl  0  0  0  0  0  0  0  0  0  0  0  0
  141.0460   70.4640  227.2860 C   0  0  0  0  0  0  0  0  0  0  0  0
  140.5120   71.2540  226.2680 C   0  0  0  0  0  0  0  0  0  0  0  0
  139.6150   70.6850  225.3710 C   0  0  0  0  0  0  0  0  0  0  0  0
  139.0750   71.4050  224.3770 N   0  0  0  0  0  0  0  0  0  0  0  0
  138.4980   73.4290  223.0410 H   0  0  0  0  0  0  0  0  0  0  0  0
  137.6671   73.4056  220.3248 H   0  0  0  0  0  0  0  0  0  0  0  0
  136.2131   73.7357  221.4645 H   0  0  0  0  0  0  0  0  0  0  0  0
  138.8722   77.9603  221.9997 H   0  0  0  0  0  0  0  0  0  0  0  0
  138.7053   76.8507  223.3409 H   0  0  0  0  0  0  0  0  0  0  0  0
  141.1990   77.6906  222.8170 H   0  0  0  0  0  0  0  0  0  0  0  0
  141.1029   75.9845  222.9736 H   0  0  0  0  0  0  0  0  0  0  0  0
  140.6947   77.6764  220.3489 H   0  0  0  0  0  0  0  0  0  0  0  0
  141.9514   76.5062  220.5394 H   0  0  0  0  0  0  0  0  0  0  0  0
  139.5778   75.6377  219.4720 H   0  0  0  0  0  0  0  0  0  0  0  0
  142.5421   72.0699  219.4021 H   0  0  0  0  0  0  0  0  0  0  0  0
  142.2476   70.9759  221.6670 H   0  0  0  0  0  0  0  0  0  0  0  0
  140.8317   72.1682  223.3275 H   0  0  0  0  0  0  0  0  0  0  0  0
  137.1843   69.0564  222.9756 H   0  0  0  0  0  0  0  0  0  0  0  0
  138.1583   67.7082  224.7934 H   0  0  0  0  0  0  0  0  0  0  0  0
  139.5510   67.5214  226.6426 H   0  0  0  0  0  0  0  0  0  0  0  0
  141.7550   70.9239  227.9901 H   0  0  0  0  0  0  0  0  0  0  0  0
  140.7966   72.3126  226.1762 H   0  0  0  0  0  0  0  0  0  0  0  0
  1  2  2  0
  2  3  1  0
  3  4  1  0
  4  5  1  0
  5  6  2  0
  5  7  1  0
  7  8  1  0
  8  9  1  0
  9 10  1  0
 10 11  1  0
 11 12  1  0
 12 13  2  0
 13 14  1  0
 14 15  2  0
 15 16  1  0
 16 17  2  0
  2 18  1  0
 18 19  2  0
 19 20  1  0
 20 21  2  0
 21 22  1  0
 22 23  2  0
 23 24  1  0
 23 25  1  0
 25 26  2  0
 26 27  1  0
 27 28  2  0
 11  7  1  0
 17 12  1  0
 28 18  1  0
 27 21  1  0
  3 29  1  0
  4 30  1  0
  4 31  1  0
  8 32  1  0
  8 33  1  0
  9 34  1  0
  9 35  1  0
 10 36  1  0
 10 37  1  0
 11 38  1  6
 14 39  1  0
 15 40  1  0
 16 41  1  0
 19 42  1  0
 20 43  1  0
 22 44  1  0
 25 45  1  0
 26 46  1  0
M  END
>  <meeko>  (19) 
{"free_energy": -6.92, "intermolecular_energy": -8.41, "internal_energy": -2.68, "cluster_size": 13, "cluster_id": 4, "rank_in_cluster": 2}

$$$$

     RDKit          3D

 46 49  0  0  0  0  0  0  0  0999 V2000
  136.8840   71.0520  221.5310 O   0  0  0  0  0  0  0  0  0  0  0  0
  137.6410   71.6370  222.3670 C   0  0  0  0  0  0  0  0  0  0  0  0
  137.9320   73.0430  222.2550 N   0  0  0  0  0  0  0  0  0  0  0  0
  137.3830   73.8420  221.2200 C   0  0  0  0  0  0  0  0  0  0  0  0
  137.6620   75.2690  221.1890 C   0  0  0  0  0  0  0  0  0  0  0  0
  136.6170   76.0110  220.9510 O   0  0  0  0  0  0  0  0  0  0  0  0
  138.8950   75.9410  221.3760 N   0  0  0  0  0  0  0  0  0  0  0  0
  139.2950   76.9440  222.3440 C   0  0  0  0  0  0  0  0  0  0  0  0
  140.8240   76.7700  222.3960 C   0  0  0  0  0  0  0  0  0  0  0  0
  141.0710   76.7040  220.8780 C   0  0  0  0  0  0  0  0  0  0  0  0
  140.0490   75.6610  220.5070 C   0  0  1  0  0  0  0  0  0  0  0  0
  140.6660   74.3410  220.8270 C   0  0  0  0  0  0  0  0  0  0  0  0
  141.4170   73.6900  219.9210 N   0  0  0  0  0  0  0  0  0  0  0  0
  141.9990   72.5050  220.1430 C   0  0  0  0  0  0  0  0  0  0  0  0
  141.8310   71.8920  221.3800 C   0  0  0  0  0  0  0  0  0  0  0  0
  141.0590   72.5770  222.2940 C   0  0  0  0  0  0  0  0  0  0  0  0
  140.4940   73.7640  222.0270 N   0  0  0  0  0  0  0  0  0  0  0  0
  138.2480   70.8850  223.4860 C   0  0  0  0  0  0  0  0  0  0  0  0
  137.9100   69.5560  223.6360 C   0  0  0  0  0  0  0  0  0  0  0  0
  138.4300   68.8000  224.6440 C   0  0  0  0  0  0  0  0  0  0  0  0
  139.3100   69.3910  225.5210 C   0  0  0  0  0  0  0  0  0  0  0  0
  139.8210   68.6000  226.5310 C   0  0  0  0  0  0  0  0  0  0  0  0
  140.7080   69.1560  227.4330 C   0  0  0  0  0  0  0  0  0  0  0  0
  141.3600   68.1550  228.7190 Cl  0  0  0  0  0  0  0  0  0  0  0  0
  141.0370   70.4750  227.2740 C   0  0  0  0  0  0  0  0  0  0  0  0
  140.5180   71.2700  226.2510 C   0  0  0  0  0  0  0  0  0  0  0  0
  139.6250   70.7070  225.3450 C   0  0  0  0  0  0  0  0  0  0  0  0
  139.1000   71.4310  224.3470 N   0  0  0  0  0  0  0  0  0  0  0  0
  138.5780   73.4520  222.9860 H   0  0  0  0  0  0  0  0  0  0  0  0
  137.7448   73.4251  220.2686 H   0  0  0  0  0  0  0  0  0  0  0  0
  136.2999   73.7958  221.4066 H   0  0  0  0  0  0  0  0  0  0  0  0
  139.0216   77.9542  222.0051 H   0  0  0  0  0  0  0  0  0  0  0  0
  138.8078   76.8258  223.3231 H   0  0  0  0  0  0  0  0  0  0  0  0
  141.3273   77.6282  222.8651 H   0  0  0  0  0  0  0  0  0  0  0  0
  141.1981   75.9217  222.9880 H   0  0  0  0  0  0  0  0  0  0  0  0
  140.8710   77.6678  220.3871 H   0  0  0  0  0  0  0  0  0  0  0  0
  142.1048   76.4742  220.5806 H   0  0  0  0  0  0  0  0  0  0  0  0
  139.7400   75.6633  219.4513 H   0  0  0  0  0  0  0  0  0  0  0  0
  142.6012   72.0233  219.3586 H   0  0  0  0  0  0  0  0  0  0  0  0
  142.2868   70.9189  221.6150 H   0  0  0  0  0  0  0  0  0  0  0  0
  140.8992   72.1303  223.2865 H   0  0  0  0  0  0  0  0  0  0  0  0
  137.2057   69.0965  222.9269 H   0  0  0  0  0  0  0  0  0  0  0  0
  138.1523   67.7413  224.7538 H   0  0  0  0  0  0  0  0  0  0  0  0
  139.5265   67.5436  226.6162 H   0  0  0  0  0  0  0  0  0  0  0  0
  141.7428   70.9293  227.9850 H   0  0  0  0  0  0  0  0  0  0  0  0
  140.8109   72.3266  226.1624 H   0  0  0  0  0  0  0  0  0  0  0  0
  1  2  2  0
  2  3  1  0
  3  4  1  0
  4  5  1  0
  5  6  2  0
  5  7  1  0
  7  8  1  0
  8  9  1  0
  9 10  1  0
 10 11  1  0
 11 12  1  0
 12 13  2  0
 13 14  1  0
 14 15  2  0
 15 16  1  0
 16 17  2  0
  2 18  1  0
 18 19  2  0
 19 20  1  0
 20 21  2  0
 21 22  1  0
 22 23  2  0
 23 24  1  0
 23 25  1  0
 25 26  2  0
 26 27  1  0
 27 28  2  0
 11  7  1  0
 17 12  1  0
 28 18  1  0
 27 21  1  0
  3 29  1  0
  4 30  1  0
  4 31  1  0
  8 32  1  0
  8 33  1  0
  9 34  1  0
  9 35  1  0
 10 36  1  0
 10 37  1  0
 11 38  1  6
 14 39  1  0
 15 40  1  0
 16 41  1  0
 19 42  1  0
 20 43  1  0
 22 44  1  0
 25 45  1  0
 26 46  1  0
M  END
>  <meeko>  (20) 
{"free_energy": -6.89, "intermolecular_energy": -8.38, "internal_energy": -2.7, "cluster_size": 13, "cluster_id": 4, "rank_in_cluster": 5}

$$$$
