
     RDKit          3D

 54 57  0  0  0  0  0  0  0  0999 V2000
  141.6260   76.8750  217.5130 O   0  0  0  0  0  0  0  0  0  0  0  0
  142.4420   76.5500  218.4210 C   0  0  0  0  0  0  0  0  0  0  0  0
  142.6680   77.5090  219.4450 N   0  0  0  0  0  0  0  0  0  0  0  0
  142.0960   78.7780  219.5720 C   0  0  0  0  0  0  0  0  0  0  0  0
  141.3870   79.2580  220.7310 C   0  0  0  0  0  0  0  0  0  0  0  0
  140.2690   79.9000  220.3750 O   0  0  0  0  0  0  0  0  0  0  0  0
  141.5740   79.2250  222.1020 N   0  0  0  0  0  0  0  0  0  0  0  0
  142.6400   79.8550  222.8280 C   0  0  0  0  0  0  0  0  0  0  0  0
  142.1380   81.1250  223.5240 C   0  0  0  0  0  0  0  0  0  0  0  0
  140.6980   81.4290  223.1700 C   0  0  0  0  0  0  0  0  0  0  0  0
  139.7420   80.5030  223.8580 C   0  0  0  0  0  0  0  0  0  0  0  0
  139.3410   79.3450  222.9570 C   0  0  0  0  0  0  0  0  0  0  0  0
  140.5220   78.4310  222.8020 C   0  0  1  0  0  0  0  0  0  0  0  0
  140.1980   77.2260  221.9900 C   0  0  0  0  0  0  0  0  0  0  0  0
  139.1220   77.1650  221.1280 C   0  0  0  0  0  0  0  0  0  0  0  0
  138.9060   75.9870  220.4130 C   0  0  0  0  0  0  0  0  0  0  0  0
  139.7240   74.9020  220.5430 C   0  0  0  0  0  0  0  0  0  0  0  0
  139.4290   73.4310  219.6310 Cl  0  0  0  0  0  0  0  0  0  0  0  0
  140.7880   74.9870  221.4080 C   0  0  0  0  0  0  0  0  0  0  0  0
  141.0570   76.1320  222.1490 C   0  0  0  0  0  0  0  0  0  0  0  0
  143.1270   75.2540  218.4320 C   0  0  0  0  0  0  0  0  0  0  0  0
  143.9610   74.9720  217.3710 C   0  0  0  0  0  0  0  0  0  0  0  0
  144.6480   73.7880  217.2890 C   0  0  0  0  0  0  0  0  0  0  0  0
  144.4530   72.8900  218.3410 C   0  0  0  0  0  0  0  0  0  0  0  0
  145.1190   71.6830  218.3140 C   0  0  0  0  0  0  0  0  0  0  0  0
  144.9390   70.7760  219.3520 C   0  0  0  0  0  0  0  0  0  0  0  0
  145.5840   69.5740  219.3530 F   0  0  0  0  0  0  0  0  0  0  0  0
  144.0960   71.0810  220.4080 C   0  0  0  0  0  0  0  0  0  0  0  0
  143.4360   72.3110  220.4080 C   0  0  0  0  0  0  0  0  0  0  0  0
  143.6090   73.2170  219.3810 C   0  0  0  0  0  0  0  0  0  0  0  0
  142.9370   74.3780  219.4590 N   0  0  0  0  0  0  0  0  0  0  0  0
  143.3640   77.1910  220.1920 H   0  0  0  0  0  0  0  0  0  0  0  0
  142.9228   79.4876  219.4207 H   0  0  0  0  0  0  0  0  0  0  0  0
  141.2651   78.6907  218.8565 H   0  0  0  0  0  0  0  0  0  0  0  0
  143.0254   79.1558  223.5846 H   0  0  0  0  0  0  0  0  0  0  0  0
  143.4385   80.1279  222.1223 H   0  0  0  0  0  0  0  0  0  0  0  0
  142.2157   80.9886  224.6127 H   0  0  0  0  0  0  0  0  0  0  0  0
  142.7583   81.9680  223.1855 H   0  0  0  0  0  0  0  0  0  0  0  0
  140.4693   82.4623  223.4701 H   0  0  0  0  0  0  0  0  0  0  0  0
  140.5797   81.2937  222.0848 H   0  0  0  0  0  0  0  0  0  0  0  0
  140.2217   80.1021  224.7631 H   0  0  0  0  0  0  0  0  0  0  0  0
  138.8354   81.0710  224.1139 H   0  0  0  0  0  0  0  0  0  0  0  0
  138.5031   78.7950  223.4103 H   0  0  0  0  0  0  0  0  0  0  0  0
  139.0261   79.7241  221.9736 H   0  0  0  0  0  0  0  0  0  0  0  0
  140.8465   78.0718  223.7898 H   0  0  0  0  0  0  0  0  0  0  0  0
  138.4492   78.0268  221.0074 H   0  0  0  0  0  0  0  0  0  0  0  0
  138.0507   75.9307  219.7236 H   0  0  0  0  0  0  0  0  0  0  0  0
  141.4517   74.1167  221.5183 H   0  0  0  0  0  0  0  0  0  0  0  0
  141.9148   76.1769  222.8362 H   0  0  0  0  0  0  0  0  0  0  0  0
  144.0784   75.7161  216.5694 H   0  0  0  0  0  0  0  0  0  0  0  0
  145.3139   73.5588  216.4440 H   0  0  0  0  0  0  0  0  0  0  0  0
  145.7887   71.4392  217.4761 H   0  0  0  0  0  0  0  0  0  0  0  0
  143.9493   70.3668  221.2317 H   0  0  0  0  0  0  0  0  0  0  0  0
  142.7651   72.5632  221.2425 H   0  0  0  0  0  0  0  0  0  0  0  0
  1  2  2  0
  2  3  1  0
  3  4  1  0
  4  5  1  0
  5  6  2  0
  5  7  1  0
  7  8  1  0
  8  9  1  0
  9 10  1  0
 10 11  1  0
 11 12  1  0
 12 13  1  0
 13 14  1  0
 14 15  2  0
 15 16  1  0
 16 17  2  0
 17 18  1  0
 17 19  1  0
 19 20  2  0
  2 21  1  0
 21 22  2  0
 22 23  1  0
 23 24  2  0
 24 25  1  0
 25 26  2  0
 26 27  1  0
 26 28  1  0
 28 29  2  0
 29 30  1  0
 30 31  2  0
 13  7  1  0
 20 14  1  0
 31 21  1  0
 30 24  1  0
  3 32  1  0
  4 33  1  0
  4 34  1  0
  8 35  1  0
  8 36  1  0
  9 37  1  0
  9 38  1  0
 10 39  1  0
 10 40  1  0
 11 41  1  0
 11 42  1  0
 12 43  1  0
 12 44  1  0
 13 45  1  1
 15 46  1  0
 16 47  1  0
 19 48  1  0
 20 49  1  0
 22 50  1  0
 23 51  1  0
 25 52  1  0
 28 53  1  0
 29 54  1  0
M  END
>  <meeko>  (1) 
{"free_energy": -3.59, "intermolecular_energy": -6.87, "internal_energy": -2.53, "cluster_size": 1, "cluster_id": 6, "rank_in_cluster": 1}

$$$$

     RDKit          3D

 54 57  0  0  0  0  0  0  0  0999 V2000
  140.5070   73.1630  222.6890 O   0  0  0  0  0  0  0  0  0  0  0  0
  139.6290   72.2820  222.9080 C   0  0  0  0  0  0  0  0  0  0  0  0
  138.4870   72.3000  222.0610 N   0  0  0  0  0  0  0  0  0  0  0  0
  138.2130   73.1790  221.0100 C   0  0  0  0  0  0  0  0  0  0  0  0
  138.7160   74.5250  220.8990 C   0  0  0  0  0  0  0  0  0  0  0  0
  137.7160   75.4140  220.9370 O   0  0  0  0  0  0  0  0  0  0  0  0
  139.9580   75.1200  220.7600 N   0  0  0  0  0  0  0  0  0  0  0  0
  140.5100   76.1370  221.6100 C   0  0  0  0  0  0  0  0  0  0  0  0
  139.9590   77.5150  221.2270 C   0  0  0  0  0  0  0  0  0  0  0  0
  140.0300   77.7550  219.7350 C   0  0  0  0  0  0  0  0  0  0  0  0
  141.1310   76.9690  219.0910 C   0  0  0  0  0  0  0  0  0  0  0  0
  140.6160   75.6520  218.5210 C   0  0  0  0  0  0  0  0  0  0  0  0
  140.7130   74.5970  219.5850 C   0  0  1  0  0  0  0  0  0  0  0  0
  142.1210   74.3300  219.9870 C   0  0  0  0  0  0  0  0  0  0  0  0
  143.1210   75.2780  219.9030 C   0  0  0  0  0  0  0  0  0  0  0  0
  144.4090   74.9270  220.3060 C   0  0  0  0  0  0  0  0  0  0  0  0
  144.7050   73.6800  220.7770 C   0  0  0  0  0  0  0  0  0  0  0  0
  146.3350   73.2630  221.2780 Cl  0  0  0  0  0  0  0  0  0  0  0  0
  143.6930   72.7540  220.8510 C   0  0  0  0  0  0  0  0  0  0  0  0
  142.3880   73.0410  220.4640 C   0  0  0  0  0  0  0  0  0  0  0  0
  139.7660   71.2860  223.9740 C   0  0  0  0  0  0  0  0  0  0  0  0
  139.3230   70.0080  223.7050 C   0  0  0  0  0  0  0  0  0  0  0  0
  139.4080   69.0040  224.6340 C   0  0  0  0  0  0  0  0  0  0  0  0
  139.9690   69.3530  225.8650 C   0  0  0  0  0  0  0  0  0  0  0  0
  140.0810   68.3840  226.8400 C   0  0  0  0  0  0  0  0  0  0  0  0
  140.6380   68.7110  228.0720 C   0  0  0  0  0  0  0  0  0  0  0  0
  140.7630   67.7740  229.0550 F   0  0  0  0  0  0  0  0  0  0  0  0
  141.0770   70.0010  228.3210 C   0  0  0  0  0  0  0  0  0  0  0  0
  140.9500   70.9600  227.3140 C   0  0  0  0  0  0  0  0  0  0  0  0
  140.3980   70.6440  226.0890 C   0  0  0  0  0  0  0  0  0  0  0  0
  140.3130   71.6260  225.1750 N   0  0  0  0  0  0  0  0  0  0  0  0
  137.7710   71.5360  222.2810 H   0  0  0  0  0  0  0  0  0  0  0  0
  138.5559   72.6632  220.1009 H   0  0  0  0  0  0  0  0  0  0  0  0
  137.1485   73.3828  221.1979 H   0  0  0  0  0  0  0  0  0  0  0  0
  140.2444   75.9187  222.6549 H   0  0  0  0  0  0  0  0  0  0  0  0
  141.6034   76.1455  221.4902 H   0  0  0  0  0  0  0  0  0  0  0  0
  138.9090   77.5802  221.5483 H   0  0  0  0  0  0  0  0  0  0  0  0
  140.5738   78.2790  221.7253 H   0  0  0  0  0  0  0  0  0  0  0  0
  139.0718   77.4605  219.2821 H   0  0  0  0  0  0  0  0  0  0  0  0
  140.2358   78.8233  219.5725 H   0  0  0  0  0  0  0  0  0  0  0  0
  141.5668   77.5654  218.2759 H   0  0  0  0  0  0  0  0  0  0  0  0
  141.8873   76.7420  219.8568 H   0  0  0  0  0  0  0  0  0  0  0  0
  139.5675   75.7682  218.2093 H   0  0  0  0  0  0  0  0  0  0  0  0
  141.2179   75.3604  217.6477 H   0  0  0  0  0  0  0  0  0  0  0  0
  140.3057   73.6482  219.2057 H   0  0  0  0  0  0  0  0  0  0  0  0
  142.9063   76.2889  219.5261 H   0  0  0  0  0  0  0  0  0  0  0  0
  145.2108   75.6774  220.2426 H   0  0  0  0  0  0  0  0  0  0  0  0
  143.9232   71.7476  221.2306 H   0  0  0  0  0  0  0  0  0  0  0  0
  141.5942   72.2824  220.5304 H   0  0  0  0  0  0  0  0  0  0  0  0
  138.8897   69.7885  222.7181 H   0  0  0  0  0  0  0  0  0  0  0  0
  139.0554   67.9837  224.4229 H   0  0  0  0  0  0  0  0  0  0  0  0
  139.7321   67.3592  226.6447 H   0  0  0  0  0  0  0  0  0  0  0  0
  141.5174   70.2650  229.2938 H   0  0  0  0  0  0  0  0  0  0  0  0
  141.2966   71.9872  227.5006 H   0  0  0  0  0  0  0  0  0  0  0  0
  1  2  2  0
  2  3  1  0
  3  4  1  0
  4  5  1  0
  5  6  2  0
  5  7  1  0
  7  8  1  0
  8  9  1  0
  9 10  1  0
 10 11  1  0
 11 12  1  0
 12 13  1  0
 13 14  1  0
 14 15  2  0
 15 16  1  0
 16 17  2  0
 17 18  1  0
 17 19  1  0
 19 20  2  0
  2 21  1  0
 21 22  2  0
 22 23  1  0
 23 24  2  0
 24 25  1  0
 25 26  2  0
 26 27  1  0
 26 28  1  0
 28 29  2  0
 29 30  1  0
 30 31  2  0
 13  7  1  0
 20 14  1  0
 31 21  1  0
 30 24  1  0
  3 32  1  0
  4 33  1  0
  4 34  1  0
  8 35  1  0
  8 36  1  0
  9 37  1  0
  9 38  1  0
 10 39  1  0
 10 40  1  0
 11 41  1  0
 11 42  1  0
 12 43  1  0
 12 44  1  0
 13 45  1  6
 15 46  1  0
 16 47  1  0
 19 48  1  0
 20 49  1  0
 22 50  1  0
 23 51  1  0
 25 52  1  0
 28 53  1  0
 29 54  1  0
M  END
>  <meeko>  (2) 
{"free_energy": -6.08, "intermolecular_energy": -9.36, "internal_energy": -1.31, "cluster_size": 7, "cluster_id": 2, "rank_in_cluster": 3}

$$$$

     RDKit          3D

 54 57  0  0  0  0  0  0  0  0999 V2000
  139.4580   71.1120  221.3400 O   0  0  0  0  0  0  0  0  0  0  0  0
  139.5580   71.6220  222.4920 C   0  0  0  0  0  0  0  0  0  0  0  0
  139.5560   73.0410  222.5600 N   0  0  0  0  0  0  0  0  0  0  0  0
  139.4560   73.9500  221.5030 C   0  0  0  0  0  0  0  0  0  0  0  0
  140.4560   74.9240  221.1470 C   0  0  0  0  0  0  0  0  0  0  0  0
  141.6810   74.4910  221.4690 O   0  0  0  0  0  0  0  0  0  0  0  0
  140.4680   76.1820  220.5690 N   0  0  0  0  0  0  0  0  0  0  0  0
  139.6910   76.6020  219.4370 C   0  0  0  0  0  0  0  0  0  0  0  0
  140.6040   76.9030  218.2430 C   0  0  0  0  0  0  0  0  0  0  0  0
  141.9050   76.1360  218.3220 C   0  0  0  0  0  0  0  0  0  0  0  0
  142.8600   76.7450  219.3030 C   0  0  0  0  0  0  0  0  0  0  0  0
  142.1830   77.8010  220.1620 C   0  0  0  0  0  0  0  0  0  0  0  0
  141.4110   77.1150  221.2520 C   0  0  1  0  0  0  0  0  0  0  0  0
  140.6350   78.0760  222.0820 C   0  0  0  0  0  0  0  0  0  0  0  0
  141.1830   79.2230  222.6170 C   0  0  0  0  0  0  0  0  0  0  0  0
  140.3690   80.0590  223.3810 C   0  0  0  0  0  0  0  0  0  0  0  0
  139.0540   79.7730  223.6120 C   0  0  0  0  0  0  0  0  0  0  0  0
  138.0490   80.8420  224.5780 Cl  0  0  0  0  0  0  0  0  0  0  0  0
  138.5310   78.6240  223.0690 C   0  0  0  0  0  0  0  0  0  0  0  0
  139.2900   77.7510  222.2990 C   0  0  0  0  0  0  0  0  0  0  0  0
  139.6720   70.8060  223.7040 C   0  0  0  0  0  0  0  0  0  0  0  0
  139.1740   69.5210  223.6480 C   0  0  0  0  0  0  0  0  0  0  0  0
  139.2340   68.6770  224.7280 C   0  0  0  0  0  0  0  0  0  0  0  0
  139.8260   69.1950  225.8810 C   0  0  0  0  0  0  0  0  0  0  0  0
  139.9150   68.3930  226.9990 C   0  0  0  0  0  0  0  0  0  0  0  0
  140.5020   68.8900  228.1570 C   0  0  0  0  0  0  0  0  0  0  0  0
  140.6040   68.1200  229.2780 F   0  0  0  0  0  0  0  0  0  0  0  0
  140.9960   70.1840  228.1900 C   0  0  0  0  0  0  0  0  0  0  0  0
  140.8920   70.9730  227.0430 C   0  0  0  0  0  0  0  0  0  0  0  0
  140.3100   70.4870  225.8890 C   0  0  0  0  0  0  0  0  0  0  0  0
  140.2500   71.3110  224.8300 N   0  0  0  0  0  0  0  0  0  0  0  0
  139.6410   73.4290  223.5530 H   0  0  0  0  0  0  0  0  0  0  0  0
  139.3128   73.3356  220.6019 H   0  0  0  0  0  0  0  0  0  0  0  0
  138.6664   74.6120  221.8882 H   0  0  0  0  0  0  0  0  0  0  0  0
  138.9882   75.8014  219.1629 H   0  0  0  0  0  0  0  0  0  0  0  0
  139.1390   77.5156  219.7028 H   0  0  0  0  0  0  0  0  0  0  0  0
  140.0817   76.6232  217.3162 H   0  0  0  0  0  0  0  0  0  0  0  0
  140.8397   77.9774  218.2558 H   0  0  0  0  0  0  0  0  0  0  0  0
  141.6893   75.1028  218.6317 H   0  0  0  0  0  0  0  0  0  0  0  0
  142.3760   76.1649  217.3284 H   0  0  0  0  0  0  0  0  0  0  0  0
  143.2543   75.9526  219.9562 H   0  0  0  0  0  0  0  0  0  0  0  0
  143.6708   77.2288  218.7386 H   0  0  0  0  0  0  0  0  0  0  0  0
  142.9437   78.4599  220.6060 H   0  0  0  0  0  0  0  0  0  0  0  0
  141.5020   78.4052  219.5446 H   0  0  0  0  0  0  0  0  0  0  0  0
  142.1045   76.5972  221.9310 H   0  0  0  0  0  0  0  0  0  0  0  0
  142.2402   79.4733  222.4447 H   0  0  0  0  0  0  0  0  0  0  0  0
  140.7991   80.9759  223.8102 H   0  0  0  0  0  0  0  0  0  0  0  0
  137.4724   78.3866  223.2506 H   0  0  0  0  0  0  0  0  0  0  0  0
  138.8498   76.8366  221.8747 H   0  0  0  0  0  0  0  0  0  0  0  0
  138.7170   69.1637  222.7134 H   0  0  0  0  0  0  0  0  0  0  0  0
  138.8384   67.6514  224.6876 H   0  0  0  0  0  0  0  0  0  0  0  0
  139.5236   67.3653  226.9748 H   0  0  0  0  0  0  0  0  0  0  0  0
  141.4617   70.5825  229.1034 H   0  0  0  0  0  0  0  0  0  0  0  0
  141.2812   72.0017  227.0589 H   0  0  0  0  0  0  0  0  0  0  0  0
  1  2  2  0
  2  3  1  0
  3  4  1  0
  4  5  1  0
  5  6  2  0
  5  7  1  0
  7  8  1  0
  8  9  1  0
  9 10  1  0
 10 11  1  0
 11 12  1  0
 12 13  1  0
 13 14  1  0
 14 15  2  0
 15 16  1  0
 16 17  2  0
 17 18  1  0
 17 19  1  0
 19 20  2  0
  2 21  1  0
 21 22  2  0
 22 23  1  0
 23 24  2  0
 24 25  1  0
 25 26  2  0
 26 27  1  0
 26 28  1  0
 28 29  2  0
 29 30  1  0
 30 31  2  0
 13  7  1  0
 20 14  1  0
 31 21  1  0
 30 24  1  0
  3 32  1  0
  4 33  1  0
  4 34  1  0
  8 35  1  0
  8 36  1  0
  9 37  1  0
  9 38  1  0
 10 39  1  0
 10 40  1  0
 11 41  1  0
 11 42  1  0
 12 43  1  0
 12 44  1  0
 13 45  1  1
 15 46  1  0
 16 47  1  0
 19 48  1  0
 20 49  1  0
 22 50  1  0
 23 51  1  0
 25 52  1  0
 28 53  1  0
 29 54  1  0
M  END
>  <meeko>  (3) 
{"free_energy": -6.29, "intermolecular_energy": -9.57, "internal_energy": -1.65, "cluster_size": 5, "cluster_id": 1, "rank_in_cluster": 3}

$$$$

     RDKit          3D

 54 57  0  0  0  0  0  0  0  0999 V2000
  138.1850   81.7970  221.9100 O   0  0  0  0  0  0  0  0  0  0  0  0
  137.7660   81.1770  222.9280 C   0  0  0  0  0  0  0  0  0  0  0  0
  137.9010   79.7620  222.9110 N   0  0  0  0  0  0  0  0  0  0  0  0
  138.4430   78.9650  221.8980 C   0  0  0  0  0  0  0  0  0  0  0  0
  139.6070   79.2940  221.1160 C   0  0  0  0  0  0  0  0  0  0  0  0
  139.4510   78.9110  219.8430 O   0  0  0  0  0  0  0  0  0  0  0  0
  140.8330   79.8940  221.3490 N   0  0  0  0  0  0  0  0  0  0  0  0
  141.1070   81.3020  221.3190 C   0  0  0  0  0  0  0  0  0  0  0  0
  141.7960   81.7430  222.6150 C   0  0  0  0  0  0  0  0  0  0  0  0
  141.1100   81.1740  223.8380 C   0  0  0  0  0  0  0  0  0  0  0  0
  141.0880   79.6760  223.8260 C   0  0  0  0  0  0  0  0  0  0  0  0
  142.2880   79.1080  223.0790 C   0  0  0  0  0  0  0  0  0  0  0  0
  141.9070   78.9010  221.6420 C   0  0  1  0  0  0  0  0  0  0  0  0
  141.3870   77.5290  221.3910 C   0  0  0  0  0  0  0  0  0  0  0  0
  140.6990   76.7980  222.3380 C   0  0  0  0  0  0  0  0  0  0  0  0
  140.2540   75.5200  222.0020 C   0  0  0  0  0  0  0  0  0  0  0  0
  140.4790   74.9770  220.7690 C   0  0  0  0  0  0  0  0  0  0  0  0
  139.9070   73.3660  220.3700 Cl  0  0  0  0  0  0  0  0  0  0  0  0
  141.1660   75.7240  219.8430 C   0  0  0  0  0  0  0  0  0  0  0  0
  141.6360   77.0030  220.1170 C   0  0  0  0  0  0  0  0  0  0  0  0
  137.1710   81.8670  224.0760 C   0  0  0  0  0  0  0  0  0  0  0  0
  136.8660   83.2030  223.9210 C   0  0  0  0  0  0  0  0  0  0  0  0
  136.3040   83.9370  224.9340 C   0  0  0  0  0  0  0  0  0  0  0  0
  136.0610   83.2530  226.1270 C   0  0  0  0  0  0  0  0  0  0  0  0
  135.4970   83.9390  227.1810 C   0  0  0  0  0  0  0  0  0  0  0  0
  135.2450   83.2750  228.3770 C   0  0  0  0  0  0  0  0  0  0  0  0
  134.6880   83.9270  229.4370 F   0  0  0  0  0  0  0  0  0  0  0  0
  135.5590   81.9320  228.5100 C   0  0  0  0  0  0  0  0  0  0  0  0
  136.1290   81.2640  227.4260 C   0  0  0  0  0  0  0  0  0  0  0  0
  136.3820   81.9160  226.2350 C   0  0  0  0  0  0  0  0  0  0  0  0
  136.9320   81.1990  225.2400 N   0  0  0  0  0  0  0  0  0  0  0  0
  137.5350   79.2800  223.7930 H   0  0  0  0  0  0  0  0  0  0  0  0
  138.6748   78.0019  222.3763 H   0  0  0  0  0  0  0  0  0  0  0  0
  137.6589   79.0607  221.1324 H   0  0  0  0  0  0  0  0  0  0  0  0
  141.7645   81.5246  220.4657 H   0  0  0  0  0  0  0  0  0  0  0  0
  140.1569   81.8470  221.2182 H   0  0  0  0  0  0  0  0  0  0  0  0
  142.8399   81.3967  222.5989 H   0  0  0  0  0  0  0  0  0  0  0  0
  141.7443   82.8402  222.6734 H   0  0  0  0  0  0  0  0  0  0  0  0
  141.6468   81.5137  224.7360 H   0  0  0  0  0  0  0  0  0  0  0  0
  140.0686   81.5281  223.8377 H   0  0  0  0  0  0  0  0  0  0  0  0
  141.1059   79.3096  224.8630 H   0  0  0  0  0  0  0  0  0  0  0  0
  140.1730   79.3475  223.3114 H   0  0  0  0  0  0  0  0  0  0  0  0
  143.1300   79.8132  223.1407 H   0  0  0  0  0  0  0  0  0  0  0  0
  142.5899   78.1503  223.5282 H   0  0  0  0  0  0  0  0  0  0  0  0
  142.7909   79.0291  220.9999 H   0  0  0  0  0  0  0  0  0  0  0  0
  140.5057   77.2150  223.3374 H   0  0  0  0  0  0  0  0  0  0  0  0
  139.7054   74.9316  222.7522 H   0  0  0  0  0  0  0  0  0  0  0  0
  141.3510   75.2938  218.8476 H   0  0  0  0  0  0  0  0  0  0  0  0
  142.1845   77.5821  219.3595 H   0  0  0  0  0  0  0  0  0  0  0  0
  137.0791   83.6928  222.9594 H   0  0  0  0  0  0  0  0  0  0  0  0
  136.0589   85.0026  224.8138 H   0  0  0  0  0  0  0  0  0  0  0  0
  135.2476   85.0053  227.0770 H   0  0  0  0  0  0  0  0  0  0  0  0
  135.3623   81.4019  229.4536 H   0  0  0  0  0  0  0  0  0  0  0  0
  136.3817   80.1977  227.5216 H   0  0  0  0  0  0  0  0  0  0  0  0
  1  2  2  0
  2  3  1  0
  3  4  1  0
  4  5  1  0
  5  6  2  0
  5  7  1  0
  7  8  1  0
  8  9  1  0
  9 10  1  0
 10 11  1  0
 11 12  1  0
 12 13  1  0
 13 14  1  0
 14 15  2  0
 15 16  1  0
 16 17  2  0
 17 18  1  0
 17 19  1  0
 19 20  2  0
  2 21  1  0
 21 22  2  0
 22 23  1  0
 23 24  2  0
 24 25  1  0
 25 26  2  0
 26 27  1  0
 26 28  1  0
 28 29  2  0
 29 30  1  0
 30 31  2  0
 13  7  1  0
 20 14  1  0
 31 21  1  0
 30 24  1  0
  3 32  1  0
  4 33  1  0
  4 34  1  0
  8 35  1  0
  8 36  1  0
  9 37  1  0
  9 38  1  0
 10 39  1  0
 10 40  1  0
 11 41  1  0
 11 42  1  0
 12 43  1  0
 12 44  1  0
 13 45  1  6
 15 46  1  0
 16 47  1  0
 19 48  1  0
 20 49  1  0
 22 50  1  0
 23 51  1  0
 25 52  1  0
 28 53  1  0
 29 54  1  0
M  END
>  <meeko>  (4) 
{"free_energy": -4.34, "intermolecular_energy": -7.62, "internal_energy": -2.08, "cluster_size": 1, "cluster_id": 5, "rank_in_cluster": 1}

$$$$

     RDKit          3D

 54 57  0  0  0  0  0  0  0  0999 V2000
  139.0750   71.3790  221.1610 O   0  0  0  0  0  0  0  0  0  0  0  0
  139.3120   71.9570  222.2590 C   0  0  0  0  0  0  0  0  0  0  0  0
  139.2880   73.3780  222.2470 N   0  0  0  0  0  0  0  0  0  0  0  0
  139.0340   74.2220  221.1620 C   0  0  0  0  0  0  0  0  0  0  0  0
  139.3960   75.6150  221.0890 C   0  0  0  0  0  0  0  0  0  0  0  0
  138.3960   76.3430  220.5780 O   0  0  0  0  0  0  0  0  0  0  0  0
  140.5070   76.3780  221.4070 N   0  0  0  0  0  0  0  0  0  0  0  0
  140.7930   76.9680  222.6840 C   0  0  0  0  0  0  0  0  0  0  0  0
  140.1880   78.3730  222.7730 C   0  0  0  0  0  0  0  0  0  0  0  0
  141.0190   79.3910  222.0220 C   0  0  0  0  0  0  0  0  0  0  0  0
  141.2680   78.9790  220.6040 C   0  0  0  0  0  0  0  0  0  0  0  0
  142.2230   77.7960  220.5290 C   0  0  0  0  0  0  0  0  0  0  0  0
  141.4280   76.5530  220.2470 C   0  0  1  0  0  0  0  0  0  0  0  0
  142.2930   75.3480  220.1220 C   0  0  0  0  0  0  0  0  0  0  0  0
  141.7920   74.0660  220.0430 C   0  0  0  0  0  0  0  0  0  0  0  0
  142.6880   73.0040  219.9270 C   0  0  0  0  0  0  0  0  0  0  0  0
  144.0390   73.1990  219.8920 C   0  0  0  0  0  0  0  0  0  0  0  0
  145.1470   71.8450  219.7460 Cl  0  0  0  0  0  0  0  0  0  0  0  0
  144.5150   74.4850  219.9730 C   0  0  0  0  0  0  0  0  0  0  0  0
  143.6730   75.5860  220.0900 C   0  0  0  0  0  0  0  0  0  0  0  0
  139.5970   71.2150  223.4900 C   0  0  0  0  0  0  0  0  0  0  0  0
  139.3340   69.8620  223.4870 C   0  0  0  0  0  0  0  0  0  0  0  0
  139.5680   69.0780  224.5880 C   0  0  0  0  0  0  0  0  0  0  0  0
  140.0870   69.7320  225.7080 C   0  0  0  0  0  0  0  0  0  0  0  0
  140.3440   68.9960  226.8450 C   0  0  0  0  0  0  0  0  0  0  0  0
  140.8620   69.6280  227.9690 C   0  0  0  0  0  0  0  0  0  0  0  0
  141.1270   68.9260  229.1090 F   0  0  0  0  0  0  0  0  0  0  0  0
  141.1200   70.9890  227.9500 C   0  0  0  0  0  0  0  0  0  0  0  0
  140.8500   71.7080  226.7850 C   0  0  0  0  0  0  0  0  0  0  0  0
  140.3350   71.0880  225.6640 C   0  0  0  0  0  0  0  0  0  0  0  0
  140.1050   71.8520  224.5830 N   0  0  0  0  0  0  0  0  0  0  0  0
  139.4920   73.8250  223.1970 H   0  0  0  0  0  0  0  0  0  0  0  0
  139.5266   73.7468  220.3009 H   0  0  0  0  0  0  0  0  0  0  0  0
  137.9397   74.3079  221.2332 H   0  0  0  0  0  0  0  0  0  0  0  0
  140.3647   76.3384  223.4778 H   0  0  0  0  0  0  0  0  0  0  0  0
  141.8837   77.0417  222.8058 H   0  0  0  0  0  0  0  0  0  0  0  0
  139.1757   78.3527  222.3431 H   0  0  0  0  0  0  0  0  0  0  0  0
  140.1616   78.6676  223.8325 H   0  0  0  0  0  0  0  0  0  0  0  0
  140.4869   80.3538  222.0234 H   0  0  0  0  0  0  0  0  0  0  0  0
  141.9928   79.4724  222.5271 H   0  0  0  0  0  0  0  0  0  0  0  0
  140.3114   78.6967  220.1401 H   0  0  0  0  0  0  0  0  0  0  0  0
  141.7246   79.8268  220.0722 H   0  0  0  0  0  0  0  0  0  0  0  0
  142.9527   77.9598  219.7223 H   0  0  0  0  0  0  0  0  0  0  0  0
  142.7621   77.6882  221.4818 H   0  0  0  0  0  0  0  0  0  0  0  0
  140.8938   76.6607  219.2915 H   0  0  0  0  0  0  0  0  0  0  0  0
  140.7074   73.8847  220.0709 H   0  0  0  0  0  0  0  0  0  0  0  0
  142.2949   71.9787  219.8618 H   0  0  0  0  0  0  0  0  0  0  0  0
  145.6021   74.6502  219.9443 H   0  0  0  0  0  0  0  0  0  0  0  0
  144.0765   76.6072  220.1551 H   0  0  0  0  0  0  0  0  0  0  0  0
  138.9254   69.3983  222.5770 H   0  0  0  0  0  0  0  0  0  0  0  0
  139.3593   67.9980  224.5889 H   0  0  0  0  0  0  0  0  0  0  0  0
  140.1403   67.9152  226.8624 H   0  0  0  0  0  0  0  0  0  0  0  0
  141.5302   71.4937  228.8371 H   0  0  0  0  0  0  0  0  0  0  0  0
  141.0513   72.7891  226.7592 H   0  0  0  0  0  0  0  0  0  0  0  0
  1  2  2  0
  2  3  1  0
  3  4  1  0
  4  5  1  0
  5  6  2  0
  5  7  1  0
  7  8  1  0
  8  9  1  0
  9 10  1  0
 10 11  1  0
 11 12  1  0
 12 13  1  0
 13 14  1  0
 14 15  2  0
 15 16  1  0
 16 17  2  0
 17 18  1  0
 17 19  1  0
 19 20  2  0
  2 21  1  0
 21 22  2  0
 22 23  1  0
 23 24  2  0
 24 25  1  0
 25 26  2  0
 26 27  1  0
 26 28  1  0
 28 29  2  0
 29 30  1  0
 30 31  2  0
 13  7  1  0
 20 14  1  0
 31 21  1  0
 30 24  1  0
  3 32  1  0
  4 33  1  0
  4 34  1  0
  8 35  1  0
  8 36  1  0
  9 37  1  0
  9 38  1  0
 10 39  1  0
 10 40  1  0
 11 41  1  0
 11 42  1  0
 12 43  1  0
 12 44  1  0
 13 45  1  6
 15 46  1  0
 16 47  1  0
 19 48  1  0
 20 49  1  0
 22 50  1  0
 23 51  1  0
 25 52  1  0
 28 53  1  0
 29 54  1  0
M  END
>  <meeko>  (5) 
{"free_energy": -6.32, "intermolecular_energy": -9.6, "internal_energy": -1.77, "cluster_size": 7, "cluster_id": 2, "rank_in_cluster": 2}

$$$$

     RDKit          3D

 54 57  0  0  0  0  0  0  0  0999 V2000
  140.6920   73.8920  220.0930 O   0  0  0  0  0  0  0  0  0  0  0  0
  140.2650   74.6080  221.0420 C   0  0  0  0  0  0  0  0  0  0  0  0
  139.2930   74.0190  221.8950 N   0  0  0  0  0  0  0  0  0  0  0  0
  138.7460   72.7350  221.8130 C   0  0  0  0  0  0  0  0  0  0  0  0
  139.3310   71.5450  222.3770 C   0  0  0  0  0  0  0  0  0  0  0  0
  140.6650   71.6410  222.4170 O   0  0  0  0  0  0  0  0  0  0  0  0
  138.8650   70.3410  222.8760 N   0  0  0  0  0  0  0  0  0  0  0  0
  139.0630   69.0460  222.2890 C   0  0  0  0  0  0  0  0  0  0  0  0
  137.7320   68.4750  221.7870 C   0  0  0  0  0  0  0  0  0  0  0  0
  136.7270   69.5670  221.4940 C   0  0  0  0  0  0  0  0  0  0  0  0
  136.1060   70.1110  222.7440 C   0  0  0  0  0  0  0  0  0  0  0  0
  136.8580   69.6630  223.9910 C   0  0  0  0  0  0  0  0  0  0  0  0
  138.0900   70.5100  224.1400 C   0  0  1  0  0  0  0  0  0  0  0  0
  138.9310   70.0810  225.2910 C   0  0  0  0  0  0  0  0  0  0  0  0
  139.8750   70.8970  225.8790 C   0  0  0  0  0  0  0  0  0  0  0  0
  140.6110   70.4000  226.9530 C   0  0  0  0  0  0  0  0  0  0  0  0
  140.4240   69.1360  227.4350 C   0  0  0  0  0  0  0  0  0  0  0  0
  141.3640   68.5340  228.7900 Cl  0  0  0  0  0  0  0  0  0  0  0  0
  139.4780   68.3420  226.8330 C   0  0  0  0  0  0  0  0  0  0  0  0
  138.7120   68.7800  225.7580 C   0  0  0  0  0  0  0  0  0  0  0  0
  140.7380   75.9770  221.2660 C   0  0  0  0  0  0  0  0  0  0  0  0
  141.6250   76.4970  220.3460 C   0  0  0  0  0  0  0  0  0  0  0  0
  142.1240   77.7690  220.4650 C   0  0  0  0  0  0  0  0  0  0  0  0
  141.6820   78.5020  221.5680 C   0  0  0  0  0  0  0  0  0  0  0  0
  142.1500   79.7880  221.7400 C   0  0  0  0  0  0  0  0  0  0  0  0
  141.7210   80.5350  222.8310 C   0  0  0  0  0  0  0  0  0  0  0  0
  142.1660   81.8090  223.0270 F   0  0  0  0  0  0  0  0  0  0  0  0
  140.8290   79.9930  223.7420 C   0  0  0  0  0  0  0  0  0  0  0  0
  140.3730   78.6890  223.5420 C   0  0  0  0  0  0  0  0  0  0  0  0
  140.7940   77.9400  222.4610 C   0  0  0  0  0  0  0  0  0  0  0  0
  140.3060   76.6940  222.3420 N   0  0  0  0  0  0  0  0  0  0  0  0
  138.9620   74.6600  222.6850 H   0  0  0  0  0  0  0  0  0  0  0  0
  137.7473   72.8133  222.2675 H   0  0  0  0  0  0  0  0  0  0  0  0
  138.8835   72.5316  220.7407 H   0  0  0  0  0  0  0  0  0  0  0  0
  139.7608   69.1347  221.4433 H   0  0  0  0  0  0  0  0  0  0  0  0
  139.4756   68.3690  223.0516 H   0  0  0  0  0  0  0  0  0  0  0  0
  137.9150   67.9029  220.8655 H   0  0  0  0  0  0  0  0  0  0  0  0
  137.3168   67.8311  222.5763 H   0  0  0  0  0  0  0  0  0  0  0  0
  137.2370   70.3861  220.9658 H   0  0  0  0  0  0  0  0  0  0  0  0
  135.9252   69.1334  220.8783 H   0  0  0  0  0  0  0  0  0  0  0  0
  136.1165   71.2100  222.6976 H   0  0  0  0  0  0  0  0  0  0  0  0
  135.0770   69.7277  222.8092 H   0  0  0  0  0  0  0  0  0  0  0  0
  136.2152   69.7857  224.8751 H   0  0  0  0  0  0  0  0  0  0  0  0
  137.1399   68.6038  223.8987 H   0  0  0  0  0  0  0  0  0  0  0  0
  137.8037   71.5554  224.3274 H   0  0  0  0  0  0  0  0  0  0  0  0
  140.0434   71.9187  225.5079 H   0  0  0  0  0  0  0  0  0  0  0  0
  141.3653   71.0453  227.4268 H   0  0  0  0  0  0  0  0  0  0  0  0
  139.3207   67.3226  227.2153 H   0  0  0  0  0  0  0  0  0  0  0  0
  137.9603   68.1267  225.2911 H   0  0  0  0  0  0  0  0  0  0  0  0
  141.9401   75.8753  219.4950 H   0  0  0  0  0  0  0  0  0  0  0  0
  142.8314   78.1874  219.7338 H   0  0  0  0  0  0  0  0  0  0  0  0
  142.8586   80.2200  221.0180 H   0  0  0  0  0  0  0  0  0  0  0  0
  140.4864   80.5796  224.6072 H   0  0  0  0  0  0  0  0  0  0  0  0
  139.6645   78.2495  224.2595 H   0  0  0  0  0  0  0  0  0  0  0  0
  1  2  2  0
  2  3  1  0
  3  4  1  0
  4  5  1  0
  5  6  2  0
  5  7  1  0
  7  8  1  0
  8  9  1  0
  9 10  1  0
 10 11  1  0
 11 12  1  0
 12 13  1  0
 13 14  1  0
 14 15  2  0
 15 16  1  0
 16 17  2  0
 17 18  1  0
 17 19  1  0
 19 20  2  0
  2 21  1  0
 21 22  2  0
 22 23  1  0
 23 24  2  0
 24 25  1  0
 25 26  2  0
 26 27  1  0
 26 28  1  0
 28 29  2  0
 29 30  1  0
 30 31  2  0
 13  7  1  0
 20 14  1  0
 31 21  1  0
 30 24  1  0
  3 32  1  0
  4 33  1  0
  4 34  1  0
  8 35  1  0
  8 36  1  0
  9 37  1  0
  9 38  1  0
 10 39  1  0
 10 40  1  0
 11 41  1  0
 11 42  1  0
 12 43  1  0
 12 44  1  0
 13 45  1  1
 15 46  1  0
 16 47  1  0
 19 48  1  0
 20 49  1  0
 22 50  1  0
 23 51  1  0
 25 52  1  0
 28 53  1  0
 29 54  1  0
M  END
>  <meeko>  (6) 
{"free_energy": -5.52, "intermolecular_energy": -8.8, "internal_energy": -1.83, "cluster_size": 3, "cluster_id": 4, "rank_in_cluster": 1}

$$$$

     RDKit          3D

 54 57  0  0  0  0  0  0  0  0999 V2000
  140.0470   73.8140  222.3430 O   0  0  0  0  0  0  0  0  0  0  0  0
  139.2300   74.7050  221.9760 C   0  0  0  0  0  0  0  0  0  0  0  0
  137.9650   74.2520  221.5100 N   0  0  0  0  0  0  0  0  0  0  0  0
  137.5110   72.9340  221.4070 C   0  0  0  0  0  0  0  0  0  0  0  0
  137.9090   71.8490  222.2660 C   0  0  0  0  0  0  0  0  0  0  0  0
  137.3180   71.9450  223.4630 O   0  0  0  0  0  0  0  0  0  0  0  0
  138.7440   70.7490  222.1680 N   0  0  0  0  0  0  0  0  0  0  0  0
  139.7650   70.5450  221.1790 C   0  0  0  0  0  0  0  0  0  0  0  0
  139.1970   69.7960  219.9680 C   0  0  0  0  0  0  0  0  0  0  0  0
  139.0770   68.3100  220.2320 C   0  0  0  0  0  0  0  0  0  0  0  0
  138.2920   68.0210  221.4750 C   0  0  0  0  0  0  0  0  0  0  0  0
  139.0540   68.4420  222.7240 C   0  0  0  0  0  0  0  0  0  0  0  0
  138.4750   69.7330  223.2260 C   0  0  1  0  0  0  0  0  0  0  0  0
  139.1060   70.1740  224.5000 C   0  0  0  0  0  0  0  0  0  0  0  0
  138.8270   69.5930  225.7200 C   0  0  0  0  0  0  0  0  0  0  0  0
  139.4730   70.0810  226.8550 C   0  0  0  0  0  0  0  0  0  0  0  0
  140.3670   71.1110  226.7920 C   0  0  0  0  0  0  0  0  0  0  0  0
  141.1680   71.7080  228.2360 Cl  0  0  0  0  0  0  0  0  0  0  0  0
  140.6290   71.6740  225.5660 C   0  0  0  0  0  0  0  0  0  0  0  0
  140.0170   71.2330  224.3970 C   0  0  0  0  0  0  0  0  0  0  0  0
  139.5530   76.1330  222.0220 C   0  0  0  0  0  0  0  0  0  0  0  0
  138.8100   76.9750  221.2210 C   0  0  0  0  0  0  0  0  0  0  0  0
  139.0330   78.3280  221.1930 C   0  0  0  0  0  0  0  0  0  0  0  0
  140.0540   78.7990  222.0220 C   0  0  0  0  0  0  0  0  0  0  0  0
  140.3240   80.1510  222.0370 C   0  0  0  0  0  0  0  0  0  0  0  0
  141.3350   80.6410  222.8560 C   0  0  0  0  0  0  0  0  0  0  0  0
  141.6250   81.9730  222.8920 F   0  0  0  0  0  0  0  0  0  0  0  0
  142.0690   79.7770  223.6530 C   0  0  0  0  0  0  0  0  0  0  0  0
  141.7720   78.4130  223.6170 C   0  0  0  0  0  0  0  0  0  0  0  0
  140.7700   77.9190  222.8060 C   0  0  0  0  0  0  0  0  0  0  0  0
  140.5480   76.5940  222.8310 N   0  0  0  0  0  0  0  0  0  0  0  0
  137.3050   75.0390  221.2110 H   0  0  0  0  0  0  0  0  0  0  0  0
  136.4166   72.9939  221.4999 H   0  0  0  0  0  0  0  0  0  0  0  0
  138.0001   72.6311  220.4695 H   0  0  0  0  0  0  0  0  0  0  0  0
  140.1524   71.5212  220.8519 H   0  0  0  0  0  0  0  0  0  0  0  0
  140.5740   69.9450  221.6212 H   0  0  0  0  0  0  0  0  0  0  0  0
  138.1998   70.1982  219.7362 H   0  0  0  0  0  0  0  0  0  0  0  0
  139.8869   69.9387  219.1232 H   0  0  0  0  0  0  0  0  0  0  0  0
  138.5732   67.8371  219.3761 H   0  0  0  0  0  0  0  0  0  0  0  0
  140.0912   67.9070  220.3700 H   0  0  0  0  0  0  0  0  0  0  0  0
  137.3407   68.5717  221.4336 H   0  0  0  0  0  0  0  0  0  0  0  0
  138.1136   66.9368  221.5274 H   0  0  0  0  0  0  0  0  0  0  0  0
  138.9553   67.6661  223.4974 H   0  0  0  0  0  0  0  0  0  0  0  0
  140.1198   68.5752  222.4869 H   0  0  0  0  0  0  0  0  0  0  0  0
  137.4016   69.6055  223.4298 H   0  0  0  0  0  0  0  0  0  0  0  0
  138.1099   68.7623  225.7955 H   0  0  0  0  0  0  0  0  0  0  0  0
  139.2558   69.6223  227.8309 H   0  0  0  0  0  0  0  0  0  0  0  0
  141.3489   72.5036  225.5068 H   0  0  0  0  0  0  0  0  0  0  0  0
  140.2406   71.6995  223.4262 H   0  0  0  0  0  0  0  0  0  0  0  0
  138.0174   76.5499  220.5877 H   0  0  0  0  0  0  0  0  0  0  0  0
  138.4427   79.0025  220.5553 H   0  0  0  0  0  0  0  0  0  0  0  0
  139.7428   80.8381  221.4045 H   0  0  0  0  0  0  0  0  0  0  0  0
  142.8709   80.1587  224.3021 H   0  0  0  0  0  0  0  0  0  0  0  0
  142.3475   77.7188  224.2470 H   0  0  0  0  0  0  0  0  0  0  0  0
  1  2  2  0
  2  3  1  0
  3  4  1  0
  4  5  1  0
  5  6  2  0
  5  7  1  0
  7  8  1  0
  8  9  1  0
  9 10  1  0
 10 11  1  0
 11 12  1  0
 12 13  1  0
 13 14  1  0
 14 15  2  0
 15 16  1  0
 16 17  2  0
 17 18  1  0
 17 19  1  0
 19 20  2  0
  2 21  1  0
 21 22  2  0
 22 23  1  0
 23 24  2  0
 24 25  1  0
 25 26  2  0
 26 27  1  0
 26 28  1  0
 28 29  2  0
 29 30  1  0
 30 31  2  0
 13  7  1  0
 20 14  1  0
 31 21  1  0
 30 24  1  0
  3 32  1  0
  4 33  1  0
  4 34  1  0
  8 35  1  0
  8 36  1  0
  9 37  1  0
  9 38  1  0
 10 39  1  0
 10 40  1  0
 11 41  1  0
 11 42  1  0
 12 43  1  0
 12 44  1  0
 13 45  1  1
 15 46  1  0
 16 47  1  0
 19 48  1  0
 20 49  1  0
 22 50  1  0
 23 51  1  0
 25 52  1  0
 28 53  1  0
 29 54  1  0
M  END
>  <meeko>  (7) 
{"free_energy": -5.39, "intermolecular_energy": -8.67, "internal_energy": -1.47, "cluster_size": 3, "cluster_id": 4, "rank_in_cluster": 2}

$$$$

     RDKit          3D

 54 57  0  0  0  0  0  0  0  0999 V2000
  140.0180   71.5430  220.8400 O   0  0  0  0  0  0  0  0  0  0  0  0
  139.5930   72.0020  221.9370 C   0  0  0  0  0  0  0  0  0  0  0  0
  138.9220   73.2540  221.8840 N   0  0  0  0  0  0  0  0  0  0  0  0
  138.6740   74.0470  220.7590 C   0  0  0  0  0  0  0  0  0  0  0  0
  139.2890   75.3210  220.4890 C   0  0  0  0  0  0  0  0  0  0  0  0
  138.6460   75.9630  219.5070 O   0  0  0  0  0  0  0  0  0  0  0  0
  140.3670   76.0360  220.9810 N   0  0  0  0  0  0  0  0  0  0  0  0
  140.5230   76.5200  222.3230 C   0  0  0  0  0  0  0  0  0  0  0  0
  139.9300   77.9280  222.4580 C   0  0  0  0  0  0  0  0  0  0  0  0
  140.8470   78.9810  221.8760 C   0  0  0  0  0  0  0  0  0  0  0  0
  141.2270   78.6770  220.4590 C   0  0  0  0  0  0  0  0  0  0  0  0
  142.1740   77.4930  220.3960 C   0  0  0  0  0  0  0  0  0  0  0  0
  141.4090   76.2830  219.9420 C   0  0  1  0  0  0  0  0  0  0  0  0
  142.2780   75.0800  219.8230 C   0  0  0  0  0  0  0  0  0  0  0  0
  141.7850   73.8170  219.5690 C   0  0  0  0  0  0  0  0  0  0  0  0
  142.6840   72.7550  219.4760 C   0  0  0  0  0  0  0  0  0  0  0  0
  144.0290   72.9320  219.6300 C   0  0  0  0  0  0  0  0  0  0  0  0
  145.1410   71.5780  219.5090 Cl  0  0  0  0  0  0  0  0  0  0  0  0
  144.4960   74.1990  219.8830 C   0  0  0  0  0  0  0  0  0  0  0  0
  143.6510   75.2980  219.9880 C   0  0  0  0  0  0  0  0  0  0  0  0
  139.7730   71.2930  223.2070 C   0  0  0  0  0  0  0  0  0  0  0  0
  139.3900   69.9690  223.2500 C   0  0  0  0  0  0  0  0  0  0  0  0
  139.5200   69.2170  224.3900 C   0  0  0  0  0  0  0  0  0  0  0  0
  140.0590   69.8710  225.4990 C   0  0  0  0  0  0  0  0  0  0  0  0
  140.2140   69.1660  226.6740 C   0  0  0  0  0  0  0  0  0  0  0  0
  140.7510   69.7990  227.7900 C   0  0  0  0  0  0  0  0  0  0  0  0
  140.9160   69.1280  228.9650 F   0  0  0  0  0  0  0  0  0  0  0  0
  141.1290   71.1310  227.7240 C   0  0  0  0  0  0  0  0  0  0  0  0
  140.9600   71.8190  226.5210 C   0  0  0  0  0  0  0  0  0  0  0  0
  140.4280   71.1980  225.4090 C   0  0  0  0  0  0  0  0  0  0  0  0
  140.3000   71.9310  224.2900 N   0  0  0  0  0  0  0  0  0  0  0  0
  138.5780   73.6040  222.8350 H   0  0  0  0  0  0  0  0  0  0  0  0
  138.9223   73.4136  219.8946 H   0  0  0  0  0  0  0  0  0  0  0  0
  137.6429   74.3677  220.9688 H   0  0  0  0  0  0  0  0  0  0  0  0
  140.0043   75.8407  223.0155 H   0  0  0  0  0  0  0  0  0  0  0  0
  141.5954   76.5608  222.5643 H   0  0  0  0  0  0  0  0  0  0  0  0
  138.9671   77.9614  221.9272 H   0  0  0  0  0  0  0  0  0  0  0  0
  139.7983   78.1427  223.5288 H   0  0  0  0  0  0  0  0  0  0  0  0
  140.3336   79.9534  221.9047 H   0  0  0  0  0  0  0  0  0  0  0  0
  141.7679   78.9978  222.4774 H   0  0  0  0  0  0  0  0  0  0  0  0
  140.3186   78.4429  219.8845 H   0  0  0  0  0  0  0  0  0  0  0  0
  141.7336   79.5560  220.0340 H   0  0  0  0  0  0  0  0  0  0  0  0
  142.9849   77.7060  219.6839 H   0  0  0  0  0  0  0  0  0  0  0  0
  142.6077   77.3089  221.3900 H   0  0  0  0  0  0  0  0  0  0  0  0
  140.9808   76.4651  218.9453 H   0  0  0  0  0  0  0  0  0  0  0  0
  140.7050   73.6510  219.4424 H   0  0  0  0  0  0  0  0  0  0  0  0
  142.2982   71.7451  219.2726 H   0  0  0  0  0  0  0  0  0  0  0  0
  145.5786   74.3495  220.0071 H   0  0  0  0  0  0  0  0  0  0  0  0
  144.0473   76.3034  220.1935 H   0  0  0  0  0  0  0  0  0  0  0  0
  138.9692   69.5036  222.3465 H   0  0  0  0  0  0  0  0  0  0  0  0
  139.2171   68.1602  224.4279 H   0  0  0  0  0  0  0  0  0  0  0  0
  139.9146   68.1089  226.7283 H   0  0  0  0  0  0  0  0  0  0  0  0
  141.5543   71.6367  228.6034 H   0  0  0  0  0  0  0  0  0  0  0  0
  141.2566   72.8764  226.4581 H   0  0  0  0  0  0  0  0  0  0  0  0
  1  2  2  0
  2  3  1  0
  3  4  1  0
  4  5  1  0
  5  6  2  0
  5  7  1  0
  7  8  1  0
  8  9  1  0
  9 10  1  0
 10 11  1  0
 11 12  1  0
 12 13  1  0
 13 14  1  0
 14 15  2  0
 15 16  1  0
 16 17  2  0
 17 18  1  0
 17 19  1  0
 19 20  2  0
  2 21  1  0
 21 22  2  0
 22 23  1  0
 23 24  2  0
 24 25  1  0
 25 26  2  0
 26 27  1  0
 26 28  1  0
 28 29  2  0
 29 30  1  0
 30 31  2  0
 13  7  1  0
 20 14  1  0
 31 21  1  0
 30 24  1  0
  3 32  1  0
  4 33  1  0
  4 34  1  0
  8 35  1  0
  8 36  1  0
  9 37  1  0
  9 38  1  0
 10 39  1  0
 10 40  1  0
 11 41  1  0
 11 42  1  0
 12 43  1  0
 12 44  1  0
 13 45  1  6
 15 46  1  0
 16 47  1  0
 19 48  1  0
 20 49  1  0
 22 50  1  0
 23 51  1  0
 25 52  1  0
 28 53  1  0
 29 54  1  0
M  END
>  <meeko>  (8) 
{"free_energy": -5.14, "intermolecular_energy": -8.42, "internal_energy": -1.89, "cluster_size": 7, "cluster_id": 2, "rank_in_cluster": 6}

$$$$

     RDKit          3D

 54 57  0  0  0  0  0  0  0  0999 V2000
  139.8340   71.8720  220.8260 O   0  0  0  0  0  0  0  0  0  0  0  0
  139.5240   72.2780  221.9820 C   0  0  0  0  0  0  0  0  0  0  0  0
  139.0120   73.6000  222.0740 N   0  0  0  0  0  0  0  0  0  0  0  0
  138.8080   74.5150  221.0370 C   0  0  0  0  0  0  0  0  0  0  0  0
  139.1770   75.9070  221.0730 C   0  0  0  0  0  0  0  0  0  0  0  0
  138.1480   76.6840  220.7150 O   0  0  0  0  0  0  0  0  0  0  0  0
  140.3160   76.6330  221.3760 N   0  0  0  0  0  0  0  0  0  0  0  0
  140.6520   77.1880  222.6560 C   0  0  0  0  0  0  0  0  0  0  0  0
  139.9790   78.5530  222.8430 C   0  0  0  0  0  0  0  0  0  0  0  0
  140.6070   79.6140  221.9650 C   0  0  0  0  0  0  0  0  0  0  0  0
  140.6920   79.1830  220.5330 C   0  0  0  0  0  0  0  0  0  0  0  0
  141.8140   78.1770  220.3250 C   0  0  0  0  0  0  0  0  0  0  0  0
  141.2120   76.8070  220.1960 C   0  0  1  0  0  0  0  0  0  0  0  0
  142.2460   75.7360  220.2030 C   0  0  0  0  0  0  0  0  0  0  0  0
  143.5180   75.9130  219.7000 C   0  0  0  0  0  0  0  0  0  0  0  0
  144.4120   74.8440  219.7550 C   0  0  0  0  0  0  0  0  0  0  0  0
  144.0640   73.6370  220.2890 C   0  0  0  0  0  0  0  0  0  0  0  0
  145.2100   72.3070  220.3470 Cl  0  0  0  0  0  0  0  0  0  0  0  0
  142.7920   73.4850  220.7840 C   0  0  0  0  0  0  0  0  0  0  0  0
  141.8540   74.5110  220.7580 C   0  0  0  0  0  0  0  0  0  0  0  0
  139.6780   71.4400  223.1740 C   0  0  0  0  0  0  0  0  0  0  0  0
  139.2390   70.1360  223.0900 C   0  0  0  0  0  0  0  0  0  0  0  0
  139.3400   69.2710  224.1500 C   0  0  0  0  0  0  0  0  0  0  0  0
  139.9120   69.7890  225.3140 C   0  0  0  0  0  0  0  0  0  0  0  0
  140.0410   68.9660  226.4120 C   0  0  0  0  0  0  0  0  0  0  0  0
  140.6090   69.4620  227.5800 C   0  0  0  0  0  0  0  0  0  0  0  0
  140.7500   68.6720  228.6820 F   0  0  0  0  0  0  0  0  0  0  0  0
  141.0440   70.7760  227.6420 C   0  0  0  0  0  0  0  0  0  0  0  0
  140.9010   71.5860  226.5140 C   0  0  0  0  0  0  0  0  0  0  0  0
  140.3380   71.1010  225.3500 C   0  0  0  0  0  0  0  0  0  0  0  0
  140.2370   71.9450  224.3100 N   0  0  0  0  0  0  0  0  0  0  0  0
  138.7610   73.9010  223.0700 H   0  0  0  0  0  0  0  0  0  0  0  0
  139.3365   74.0950  220.1685 H   0  0  0  0  0  0  0  0  0  0  0  0
  137.7118   74.6020  221.0653 H   0  0  0  0  0  0  0  0  0  0  0  0
  140.3108   76.5047  223.4477 H   0  0  0  0  0  0  0  0  0  0  0  0
  141.7428   77.3186  222.7118 H   0  0  0  0  0  0  0  0  0  0  0  0
  138.9133   78.4629  222.5857 H   0  0  0  0  0  0  0  0  0  0  0  0
  140.1079   78.8570  223.8923 H   0  0  0  0  0  0  0  0  0  0  0  0
  139.9992   80.5289  222.0245 H   0  0  0  0  0  0  0  0  0  0  0  0
  141.6307   79.7905  222.3268 H   0  0  0  0  0  0  0  0  0  0  0  0
  139.7375   78.7210  220.2404 H   0  0  0  0  0  0  0  0  0  0  0  0
  140.9006   80.0689  219.9153 H   0  0  0  0  0  0  0  0  0  0  0  0
  142.3692   78.4255  219.4085 H   0  0  0  0  0  0  0  0  0  0  0  0
  142.5061   78.2042  221.1796 H   0  0  0  0  0  0  0  0  0  0  0  0
  140.6752   76.7244  219.2394 H   0  0  0  0  0  0  0  0  0  0  0  0
  143.8209   76.8768  219.2647 H   0  0  0  0  0  0  0  0  0  0  0  0
  145.4283   74.9776  219.3560 H   0  0  0  0  0  0  0  0  0  0  0  0
  142.5046   72.5156  221.2171 H   0  0  0  0  0  0  0  0  0  0  0  0
  140.8400   74.3659  221.1590 H   0  0  0  0  0  0  0  0  0  0  0  0
  138.7961   69.7796  222.1483 H   0  0  0  0  0  0  0  0  0  0  0  0
  138.9907   68.2298  224.0868 H   0  0  0  0  0  0  0  0  0  0  0  0
  139.6964   67.9224  226.3645 H   0  0  0  0  0  0  0  0  0  0  0  0
  141.4940   71.1739  228.5635 H   0  0  0  0  0  0  0  0  0  0  0  0
  141.2434   72.6306  226.5531 H   0  0  0  0  0  0  0  0  0  0  0  0
  1  2  2  0
  2  3  1  0
  3  4  1  0
  4  5  1  0
  5  6  2  0
  5  7  1  0
  7  8  1  0
  8  9  1  0
  9 10  1  0
 10 11  1  0
 11 12  1  0
 12 13  1  0
 13 14  1  0
 14 15  2  0
 15 16  1  0
 16 17  2  0
 17 18  1  0
 17 19  1  0
 19 20  2  0
  2 21  1  0
 21 22  2  0
 22 23  1  0
 23 24  2  0
 24 25  1  0
 25 26  2  0
 26 27  1  0
 26 28  1  0
 28 29  2  0
 29 30  1  0
 30 31  2  0
 13  7  1  0
 20 14  1  0
 31 21  1  0
 30 24  1  0
  3 32  1  0
  4 33  1  0
  4 34  1  0
  8 35  1  0
  8 36  1  0
  9 37  1  0
  9 38  1  0
 10 39  1  0
 10 40  1  0
 11 41  1  0
 11 42  1  0
 12 43  1  0
 12 44  1  0
 13 45  1  6
 15 46  1  0
 16 47  1  0
 19 48  1  0
 20 49  1  0
 22 50  1  0
 23 51  1  0
 25 52  1  0
 28 53  1  0
 29 54  1  0
M  END
>  <meeko>  (9) 
{"free_energy": -6.42, "intermolecular_energy": -9.7, "internal_energy": -1.79, "cluster_size": 7, "cluster_id": 2, "rank_in_cluster": 1}

$$$$

     RDKit          3D

 54 57  0  0  0  0  0  0  0  0999 V2000
  139.6520   72.7130  222.1660 O   0  0  0  0  0  0  0  0  0  0  0  0
  140.0450   71.5290  222.3610 C   0  0  0  0  0  0  0  0  0  0  0  0
  140.3140   70.7500  221.2030 N   0  0  0  0  0  0  0  0  0  0  0  0
  140.1950   71.1360  219.8640 C   0  0  0  0  0  0  0  0  0  0  0  0
  140.7730   72.3230  219.2880 C   0  0  0  0  0  0  0  0  0  0  0  0
  139.8750   72.9780  218.5420 O   0  0  0  0  0  0  0  0  0  0  0  0
  142.0100   72.9440  219.3060 N   0  0  0  0  0  0  0  0  0  0  0  0
  142.8840   73.1260  218.1830 C   0  0  0  0  0  0  0  0  0  0  0  0
  143.7370   71.8720  217.9590 C   0  0  0  0  0  0  0  0  0  0  0  0
  144.7750   71.6960  219.0460 C   0  0  0  0  0  0  0  0  0  0  0  0
  144.1730   71.7710  220.4160 C   0  0  0  0  0  0  0  0  0  0  0  0
  143.8620   73.2070  220.7990 C   0  0  0  0  0  0  0  0  0  0  0  0
  142.3830   73.4300  220.6670 C   0  0  1  0  0  0  0  0  0  0  0  0
  142.0180   74.8680  220.7900 C   0  0  0  0  0  0  0  0  0  0  0  0
  141.0620   75.3300  221.6710 C   0  0  0  0  0  0  0  0  0  0  0  0
  140.7950   76.6980  221.7100 C   0  0  0  0  0  0  0  0  0  0  0  0
  141.4480   77.5850  220.9040 C   0  0  0  0  0  0  0  0  0  0  0  0
  141.0930   79.3040  220.9710 Cl  0  0  0  0  0  0  0  0  0  0  0  0
  142.3960   77.1010  220.0340 C   0  0  0  0  0  0  0  0  0  0  0  0
  142.7080   75.7490  219.9480 C   0  0  0  0  0  0  0  0  0  0  0  0
  140.2210   70.9720  223.7050 C   0  0  0  0  0  0  0  0  0  0  0  0
  140.7550   71.8020  224.6680 C   0  0  0  0  0  0  0  0  0  0  0  0
  140.9570   71.3770  225.9560 C   0  0  0  0  0  0  0  0  0  0  0  0
  140.5910   70.0580  226.2320 C   0  0  0  0  0  0  0  0  0  0  0  0
  140.7700   69.5740  227.5110 C   0  0  0  0  0  0  0  0  0  0  0  0
  140.4100   68.2640  227.8070 C   0  0  0  0  0  0  0  0  0  0  0  0
  140.5760   67.7580  229.0620 F   0  0  0  0  0  0  0  0  0  0  0  0
  139.8750   67.4470  226.8240 C   0  0  0  0  0  0  0  0  0  0  0  0
  139.7050   67.9650  225.5380 C   0  0  0  0  0  0  0  0  0  0  0  0
  140.0590   69.2640  225.2370 C   0  0  0  0  0  0  0  0  0  0  0  0
  139.8620   69.6840  223.9760 N   0  0  0  0  0  0  0  0  0  0  0  0
  140.6450   69.7550  221.4150 H   0  0  0  0  0  0  0  0  0  0  0  0
  140.6052   70.2984  219.2807 H   0  0  0  0  0  0  0  0  0  0  0  0
  139.1279   71.4010  219.8302 H   0  0  0  0  0  0  0  0  0  0  0  0
  142.2818   73.3199  217.2831 H   0  0  0  0  0  0  0  0  0  0  0  0
  143.5497   73.9783  218.3842 H   0  0  0  0  0  0  0  0  0  0  0  0
  143.0787   70.9908  217.9494 H   0  0  0  0  0  0  0  0  0  0  0  0
  144.2629   71.9835  216.9993 H   0  0  0  0  0  0  0  0  0  0  0  0
  145.2552   70.7141  218.9226 H   0  0  0  0  0  0  0  0  0  0  0  0
  145.5066   72.5120  218.9518 H   0  0  0  0  0  0  0  0  0  0  0  0
  143.2420   71.1854  220.4318 H   0  0  0  0  0  0  0  0  0  0  0  0
  144.8971   71.3660  221.1382 H   0  0  0  0  0  0  0  0  0  0  0  0
  144.1726   73.3886  221.8385 H   0  0  0  0  0  0  0  0  0  0  0  0
  144.4060   73.8978  220.1380 H   0  0  0  0  0  0  0  0  0  0  0  0
  141.8524   72.8973  221.4700 H   0  0  0  0  0  0  0  0  0  0  0  0
  140.5216   74.6336  222.3290 H   0  0  0  0  0  0  0  0  0  0  0  0
  140.0354   77.0736  222.4114 H   0  0  0  0  0  0  0  0  0  0  0  0
  142.9273   77.8097  219.3818 H   0  0  0  0  0  0  0  0  0  0  0  0
  143.4699   75.3841  219.2435 H   0  0  0  0  0  0  0  0  0  0  0  0
  141.0262   72.8327  224.3957 H   0  0  0  0  0  0  0  0  0  0  0  0
  141.3825   72.0365  226.7267 H   0  0  0  0  0  0  0  0  0  0  0  0
  141.1952   70.2208  228.2926 H   0  0  0  0  0  0  0  0  0  0  0  0
  139.5894   66.4095  227.0522 H   0  0  0  0  0  0  0  0  0  0  0  0
  139.2808   67.3250  224.7503 H   0  0  0  0  0  0  0  0  0  0  0  0
  1  2  2  0
  2  3  1  0
  3  4  1  0
  4  5  1  0
  5  6  2  0
  5  7  1  0
  7  8  1  0
  8  9  1  0
  9 10  1  0
 10 11  1  0
 11 12  1  0
 12 13  1  0
 13 14  1  0
 14 15  2  0
 15 16  1  0
 16 17  2  0
 17 18  1  0
 17 19  1  0
 19 20  2  0
  2 21  1  0
 21 22  2  0
 22 23  1  0
 23 24  2  0
 24 25  1  0
 25 26  2  0
 26 27  1  0
 26 28  1  0
 28 29  2  0
 29 30  1  0
 30 31  2  0
 13  7  1  0
 20 14  1  0
 31 21  1  0
 30 24  1  0
  3 32  1  0
  4 33  1  0
  4 34  1  0
  8 35  1  0
  8 36  1  0
  9 37  1  0
  9 38  1  0
 10 39  1  0
 10 40  1  0
 11 41  1  0
 11 42  1  0
 12 43  1  0
 12 44  1  0
 13 45  1  1
 15 46  1  0
 16 47  1  0
 19 48  1  0
 20 49  1  0
 22 50  1  0
 23 51  1  0
 25 52  1  0
 28 53  1  0
 29 54  1  0
M  END
>  <meeko>  (10) 
{"free_energy": -4.78, "intermolecular_energy": -8.06, "internal_energy": -2.19, "cluster_size": 3, "cluster_id": 3, "rank_in_cluster": 3}

$$$$

     RDKit          3D

 54 57  0  0  0  0  0  0  0  0999 V2000
  140.9500   72.3090  221.5090 O   0  0  0  0  0  0  0  0  0  0  0  0
  140.0530   72.3430  222.3970 C   0  0  0  0  0  0  0  0  0  0  0  0
  139.0340   73.3210  222.2330 N   0  0  0  0  0  0  0  0  0  0  0  0
  138.9020   74.2570  221.2030 C   0  0  0  0  0  0  0  0  0  0  0  0
  139.9740   74.7200  220.3590 C   0  0  0  0  0  0  0  0  0  0  0  0
  139.8990   74.1640  219.1440 O   0  0  0  0  0  0  0  0  0  0  0  0
  141.0500   75.5800  220.4900 N   0  0  0  0  0  0  0  0  0  0  0  0
  141.3020   76.4610  221.5950 C   0  0  0  0  0  0  0  0  0  0  0  0
  140.9500   77.9050  221.2210 C   0  0  0  0  0  0  0  0  0  0  0  0
  140.8150   78.0810  219.7240 C   0  0  0  0  0  0  0  0  0  0  0  0
  142.1310   77.9550  219.0210 C   0  0  0  0  0  0  0  0  0  0  0  0
  142.8880   76.7030  219.4460 C   0  0  0  0  0  0  0  0  0  0  0  0
  141.9740   75.5190  219.3200 C   0  0  1  0  0  0  0  0  0  0  0  0
  142.7180   74.2290  219.3500 C   0  0  0  0  0  0  0  0  0  0  0  0
  143.4730   73.8200  220.4290 C   0  0  0  0  0  0  0  0  0  0  0  0
  144.1310   72.5930  220.3560 C   0  0  0  0  0  0  0  0  0  0  0  0
  144.0490   71.7920  219.2540 C   0  0  0  0  0  0  0  0  0  0  0  0
  144.8870   70.2510  219.1870 Cl  0  0  0  0  0  0  0  0  0  0  0  0
  143.2900   72.2210  218.1910 C   0  0  0  0  0  0  0  0  0  0  0  0
  142.6110   73.4340  218.2020 C   0  0  0  0  0  0  0  0  0  0  0  0
  140.0480   71.4290  223.5430 C   0  0  0  0  0  0  0  0  0  0  0  0
  139.5130   70.1740  223.3460 C   0  0  0  0  0  0  0  0  0  0  0  0
  139.4640   69.2450  224.3540 C   0  0  0  0  0  0  0  0  0  0  0  0
  139.9860   69.6460  225.5860 C   0  0  0  0  0  0  0  0  0  0  0  0
  139.9640   68.7540  226.6370 C   0  0  0  0  0  0  0  0  0  0  0  0
  140.4800   69.1340  227.8710 C   0  0  0  0  0  0  0  0  0  0  0  0
  140.4720   68.2730  228.9290 F   0  0  0  0  0  0  0  0  0  0  0  0
  141.0130   70.4000  228.0460 C   0  0  0  0  0  0  0  0  0  0  0  0
  141.0210   71.2820  226.9630 C   0  0  0  0  0  0  0  0  0  0  0  0
  140.5110   70.9130  225.7350 C   0  0  0  0  0  0  0  0  0  0  0  0
  140.5580   71.8200  224.7450 N   0  0  0  0  0  0  0  0  0  0  0  0
  138.2960   73.3130  223.0070 H   0  0  0  0  0  0  0  0  0  0  0  0
  138.1525   73.8339  220.5179 H   0  0  0  0  0  0  0  0  0  0  0  0
  138.7068   75.1672  221.7891 H   0  0  0  0  0  0  0  0  0  0  0  0
  140.6887   76.1496  222.4535 H   0  0  0  0  0  0  0  0  0  0  0  0
  142.3699   76.4107  221.8539 H   0  0  0  0  0  0  0  0  0  0  0  0
  139.9963   78.1741  221.6985 H   0  0  0  0  0  0  0  0  0  0  0  0
  141.7646   78.5567  221.5697 H   0  0  0  0  0  0  0  0  0  0  0  0
  140.1309   77.3116  219.3367 H   0  0  0  0  0  0  0  0  0  0  0  0
  140.4259   79.0925  219.5356 H   0  0  0  0  0  0  0  0  0  0  0  0
  141.9515   77.9104  217.9367 H   0  0  0  0  0  0  0  0  0  0  0  0
  142.7434   78.8290  219.2875 H   0  0  0  0  0  0  0  0  0  0  0  0
  143.7654   76.5634  218.7974 H   0  0  0  0  0  0  0  0  0  0  0  0
  143.2251   76.8057  220.4880 H   0  0  0  0  0  0  0  0  0  0  0  0
  141.4437   75.5585  218.3571 H   0  0  0  0  0  0  0  0  0  0  0  0
  143.5544   74.4484  221.3281 H   0  0  0  0  0  0  0  0  0  0  0  0
  144.7349   72.2602  221.2131 H   0  0  0  0  0  0  0  0  0  0  0  0
  143.2173   71.5811  217.2992 H   0  0  0  0  0  0  0  0  0  0  0  0
  142.0106   73.7581  217.3391 H   0  0  0  0  0  0  0  0  0  0  0  0
  139.1151   69.9107  222.3549 H   0  0  0  0  0  0  0  0  0  0  0  0
  139.0383   68.2423  224.2010 H   0  0  0  0  0  0  0  0  0  0  0  0
  139.5409   67.7479  226.5002 H   0  0  0  0  0  0  0  0  0  0  0  0
  141.4226   70.7055  229.0201 H   0  0  0  0  0  0  0  0  0  0  0  0
  141.4419   72.2901  227.0914 H   0  0  0  0  0  0  0  0  0  0  0  0
  1  2  2  0
  2  3  1  0
  3  4  1  0
  4  5  1  0
  5  6  2  0
  5  7  1  0
  7  8  1  0
  8  9  1  0
  9 10  1  0
 10 11  1  0
 11 12  1  0
 12 13  1  0
 13 14  1  0
 14 15  2  0
 15 16  1  0
 16 17  2  0
 17 18  1  0
 17 19  1  0
 19 20  2  0
  2 21  1  0
 21 22  2  0
 22 23  1  0
 23 24  2  0
 24 25  1  0
 25 26  2  0
 26 27  1  0
 26 28  1  0
 28 29  2  0
 29 30  1  0
 30 31  2  0
 13  7  1  0
 20 14  1  0
 31 21  1  0
 30 24  1  0
  3 32  1  0
  4 33  1  0
  4 34  1  0
  8 35  1  0
  8 36  1  0
  9 37  1  0
  9 38  1  0
 10 39  1  0
 10 40  1  0
 11 41  1  0
 11 42  1  0
 12 43  1  0
 12 44  1  0
 13 45  1  6
 15 46  1  0
 16 47  1  0
 19 48  1  0
 20 49  1  0
 22 50  1  0
 23 51  1  0
 25 52  1  0
 28 53  1  0
 29 54  1  0
M  END
>  <meeko>  (11) 
{"free_energy": -4.59, "intermolecular_energy": -7.88, "internal_energy": -1.91, "cluster_size": 7, "cluster_id": 2, "rank_in_cluster": 7}

$$$$

     RDKit          3D

 54 57  0  0  0  0  0  0  0  0999 V2000
  139.9950   72.0480  221.0290 O   0  0  0  0  0  0  0  0  0  0  0  0
  139.4000   72.2780  222.1200 C   0  0  0  0  0  0  0  0  0  0  0  0
  138.5050   73.3820  222.1340 N   0  0  0  0  0  0  0  0  0  0  0  0
  138.2010   74.2530  221.0840 C   0  0  0  0  0  0  0  0  0  0  0  0
  138.9490   75.4360  220.7420 C   0  0  0  0  0  0  0  0  0  0  0  0
  138.2520   76.2180  219.9100 O   0  0  0  0  0  0  0  0  0  0  0  0
  140.1940   75.9560  221.0500 N   0  0  0  0  0  0  0  0  0  0  0  0
  140.6430   76.3670  222.3500 C   0  0  0  0  0  0  0  0  0  0  0  0
  140.1000   77.7600  222.6900 C   0  0  0  0  0  0  0  0  0  0  0  0
  140.4900   78.7850  221.6470 C   0  0  0  0  0  0  0  0  0  0  0  0
  140.1810   78.3190  220.2570 C   0  0  0  0  0  0  0  0  0  0  0  0
  141.3390   77.5350  219.6630 C   0  0  0  0  0  0  0  0  0  0  0  0
  141.0770   76.0690  219.8530 C   0  0  1  0  0  0  0  0  0  0  0  0
  142.3290   75.3000  220.0930 C   0  0  0  0  0  0  0  0  0  0  0  0
  143.5800   75.8810  220.1000 C   0  0  0  0  0  0  0  0  0  0  0  0
  144.6900   75.0710  220.3350 C   0  0  0  0  0  0  0  0  0  0  0  0
  144.5730   73.7290  220.5570 C   0  0  0  0  0  0  0  0  0  0  0  0
  145.9870   72.7310  220.8510 Cl  0  0  0  0  0  0  0  0  0  0  0  0
  143.3160   73.1730  220.5450 C   0  0  0  0  0  0  0  0  0  0  0  0
  142.1700   73.9270  220.3160 C   0  0  0  0  0  0  0  0  0  0  0  0
  139.6100   71.4570  223.3160 C   0  0  0  0  0  0  0  0  0  0  0  0
  139.2650   70.1250  223.2350 C   0  0  0  0  0  0  0  0  0  0  0  0
  139.4240   69.2730  224.2980 C   0  0  0  0  0  0  0  0  0  0  0  0
  139.9550   69.8340  225.4620 C   0  0  0  0  0  0  0  0  0  0  0  0
  140.1380   69.0260  226.5630 C   0  0  0  0  0  0  0  0  0  0  0  0
  140.6660   69.5660  227.7310 C   0  0  0  0  0  0  0  0  0  0  0  0
  140.8590   68.7910  228.8370 F   0  0  0  0  0  0  0  0  0  0  0  0
  141.0060   70.9080  227.7890 C   0  0  0  0  0  0  0  0  0  0  0  0
  140.8090   71.7010  226.6580 C   0  0  0  0  0  0  0  0  0  0  0  0
  140.2850   71.1730  225.4950 C   0  0  0  0  0  0  0  0  0  0  0  0
  140.1280   72.0050  224.4510 N   0  0  0  0  0  0  0  0  0  0  0  0
  138.0230   73.5380  223.0760 H   0  0  0  0  0  0  0  0  0  0  0  0
  138.2080   73.6307  220.1770 H   0  0  0  0  0  0  0  0  0  0  0  0
  137.2779   74.7100  221.4700 H   0  0  0  0  0  0  0  0  0  0  0  0
  140.2865   75.6463  223.1007 H   0  0  0  0  0  0  0  0  0  0  0  0
  141.7424   76.4035  222.3516 H   0  0  0  0  0  0  0  0  0  0  0  0
  139.0026   77.7102  222.7474 H   0  0  0  0  0  0  0  0  0  0  0  0
  140.5325   78.0701  223.6527 H   0  0  0  0  0  0  0  0  0  0  0  0
  139.9370   79.7161  221.8403 H   0  0  0  0  0  0  0  0  0  0  0  0
  141.5761   78.9444  221.7177 H   0  0  0  0  0  0  0  0  0  0  0  0
  139.2902   77.6744  220.2858 H   0  0  0  0  0  0  0  0  0  0  0  0
  140.0037   79.2035  219.6275 H   0  0  0  0  0  0  0  0  0  0  0  0
  141.4256   77.7593  218.5896 H   0  0  0  0  0  0  0  0  0  0  0  0
  142.2772   77.8156  220.1641 H   0  0  0  0  0  0  0  0  0  0  0  0
  140.6174   75.6521  218.9447 H   0  0  0  0  0  0  0  0  0  0  0  0
  143.6992   76.9603  219.9239 H   0  0  0  0  0  0  0  0  0  0  0  0
  145.6909   75.5272  220.3418 H   0  0  0  0  0  0  0  0  0  0  0  0
  143.2127   72.0924  220.7230 H   0  0  0  0  0  0  0  0  0  0  0  0
  141.1736   73.4610  220.3103 H   0  0  0  0  0  0  0  0  0  0  0  0
  138.8514   69.7351  222.2933 H   0  0  0  0  0  0  0  0  0  0  0  0
  139.1493   68.2096  224.2375 H   0  0  0  0  0  0  0  0  0  0  0  0
  139.8682   67.9605  226.5185 H   0  0  0  0  0  0  0  0  0  0  0  0
  141.4237   71.3404  228.7102 H   0  0  0  0  0  0  0  0  0  0  0  0
  141.0764   72.7674  226.6937 H   0  0  0  0  0  0  0  0  0  0  0  0
  1  2  2  0
  2  3  1  0
  3  4  1  0
  4  5  1  0
  5  6  2  0
  5  7  1  0
  7  8  1  0
  8  9  1  0
  9 10  1  0
 10 11  1  0
 11 12  1  0
 12 13  1  0
 13 14  1  0
 14 15  2  0
 15 16  1  0
 16 17  2  0
 17 18  1  0
 17 19  1  0
 19 20  2  0
  2 21  1  0
 21 22  2  0
 22 23  1  0
 23 24  2  0
 24 25  1  0
 25 26  2  0
 26 27  1  0
 26 28  1  0
 28 29  2  0
 29 30  1  0
 30 31  2  0
 13  7  1  0
 20 14  1  0
 31 21  1  0
 30 24  1  0
  3 32  1  0
  4 33  1  0
  4 34  1  0
  8 35  1  0
  8 36  1  0
  9 37  1  0
  9 38  1  0
 10 39  1  0
 10 40  1  0
 11 41  1  0
 11 42  1  0
 12 43  1  0
 12 44  1  0
 13 45  1  6
 15 46  1  0
 16 47  1  0
 19 48  1  0
 20 49  1  0
 22 50  1  0
 23 51  1  0
 25 52  1  0
 28 53  1  0
 29 54  1  0
M  END
>  <meeko>  (12) 
{"free_energy": -5.93, "intermolecular_energy": -9.21, "internal_energy": -1.91, "cluster_size": 7, "cluster_id": 2, "rank_in_cluster": 4}

$$$$

     RDKit          3D

 54 57  0  0  0  0  0  0  0  0999 V2000
  140.1000   71.2030  221.3610 O   0  0  0  0  0  0  0  0  0  0  0  0
  139.5540   71.6290  222.4180 C   0  0  0  0  0  0  0  0  0  0  0  0
  138.5710   72.6440  222.2600 N   0  0  0  0  0  0  0  0  0  0  0  0
  138.1320   73.2340  221.0710 C   0  0  0  0  0  0  0  0  0  0  0  0
  138.8230   74.2780  220.3580 C   0  0  0  0  0  0  0  0  0  0  0  0
  138.9740   73.9560  219.0680 O   0  0  0  0  0  0  0  0  0  0  0  0
  139.3670   75.5120  220.6690 N   0  0  0  0  0  0  0  0  0  0  0  0
  139.0620   76.3050  221.8260 C   0  0  0  0  0  0  0  0  0  0  0  0
  140.3260   76.5460  222.6600 C   0  0  0  0  0  0  0  0  0  0  0  0
  141.0410   77.8130  222.2450 C   0  0  0  0  0  0  0  0  0  0  0  0
  141.5850   77.7220  220.8520 C   0  0  0  0  0  0  0  0  0  0  0  0
  140.4790   77.4620  219.8390 C   0  0  0  0  0  0  0  0  0  0  0  0
  140.3440   75.9800  219.6430 C   0  0  1  0  0  0  0  0  0  0  0  0
  141.6360   75.2670  219.8370 C   0  0  0  0  0  0  0  0  0  0  0  0
  141.8340   74.3180  220.8190 C   0  0  0  0  0  0  0  0  0  0  0  0
  143.0840   73.7080  220.9160 C   0  0  0  0  0  0  0  0  0  0  0  0
  144.1100   74.0240  220.0730 C   0  0  0  0  0  0  0  0  0  0  0  0
  145.6750   73.2410  220.2160 Cl  0  0  0  0  0  0  0  0  0  0  0  0
  143.8900   74.9720  219.1030 C   0  0  0  0  0  0  0  0  0  0  0  0
  142.6660   75.6160  218.9550 C   0  0  0  0  0  0  0  0  0  0  0  0
  139.9030   71.1130  223.7440 C   0  0  0  0  0  0  0  0  0  0  0  0
  140.6550   71.9300  224.5610 C   0  0  0  0  0  0  0  0  0  0  0  0
  141.0320   71.5410  225.8210 C   0  0  0  0  0  0  0  0  0  0  0  0
  140.6100   70.2710  226.2240 C   0  0  0  0  0  0  0  0  0  0  0  0
  140.9590   69.8250  227.4810 C   0  0  0  0  0  0  0  0  0  0  0  0
  140.5480   68.5650  227.9010 C   0  0  0  0  0  0  0  0  0  0  0  0
  140.8770   68.0970  229.1390 F   0  0  0  0  0  0  0  0  0  0  0  0
  139.7930   67.7610  227.0630 C   0  0  0  0  0  0  0  0  0  0  0  0
  139.4550   68.2400  225.7960 C   0  0  0  0  0  0  0  0  0  0  0  0
  139.8590   69.4890  225.3710 C   0  0  0  0  0  0  0  0  0  0  0  0
  139.4910   69.8740  224.1380 N   0  0  0  0  0  0  0  0  0  0  0  0
  138.1350   72.9730  223.1790 H   0  0  0  0  0  0  0  0  0  0  0  0
  138.0323   72.4064  220.3533 H   0  0  0  0  0  0  0  0  0  0  0  0
  137.2590   73.7926  221.4396 H   0  0  0  0  0  0  0  0  0  0  0  0
  138.6511   77.2730  221.5034 H   0  0  0  0  0  0  0  0  0  0  0  0
  138.3263   75.7673  222.4421 H   0  0  0  0  0  0  0  0  0  0  0  0
  140.0429   76.6280  223.7198 H   0  0  0  0  0  0  0  0  0  0  0  0
  141.0092   75.6994  222.4971 H   0  0  0  0  0  0  0  0  0  0  0  0
  140.3324   78.6529  222.2950 H   0  0  0  0  0  0  0  0  0  0  0  0
  141.8879   77.9644  222.9304 H   0  0  0  0  0  0  0  0  0  0  0  0
  142.0850   78.6690  220.6006 H   0  0  0  0  0  0  0  0  0  0  0  0
  142.2950   76.8827  220.8121 H   0  0  0  0  0  0  0  0  0  0  0  0
  139.5301   77.8738  220.2132 H   0  0  0  0  0  0  0  0  0  0  0  0
  140.7260   77.9454  218.8823 H   0  0  0  0  0  0  0  0  0  0  0  0
  140.0153   75.7690  218.6147 H   0  0  0  0  0  0  0  0  0  0  0  0
  141.0225   74.0483  221.5109 H   0  0  0  0  0  0  0  0  0  0  0  0
  143.2483   72.9493  221.6953 H   0  0  0  0  0  0  0  0  0  0  0  0
  144.7115   75.2310  218.4188 H   0  0  0  0  0  0  0  0  0  0  0  0
  142.5125   76.3733  218.1721 H   0  0  0  0  0  0  0  0  0  0  0  0
  140.9608   72.9203  224.1925 H   0  0  0  0  0  0  0  0  0  0  0  0
  141.6313   72.1905  226.4760 H   0  0  0  0  0  0  0  0  0  0  0  0
  141.5589   70.4621  228.1475 H   0  0  0  0  0  0  0  0  0  0  0  0
  139.4656   66.7630  227.3900 H   0  0  0  0  0  0  0  0  0  0  0  0
  138.8550   67.6094  225.1234 H   0  0  0  0  0  0  0  0  0  0  0  0
  1  2  2  0
  2  3  1  0
  3  4  1  0
  4  5  1  0
  5  6  2  0
  5  7  1  0
  7  8  1  0
  8  9  1  0
  9 10  1  0
 10 11  1  0
 11 12  1  0
 12 13  1  0
 13 14  1  0
 14 15  2  0
 15 16  1  0
 16 17  2  0
 17 18  1  0
 17 19  1  0
 19 20  2  0
  2 21  1  0
 21 22  2  0
 22 23  1  0
 23 24  2  0
 24 25  1  0
 25 26  2  0
 26 27  1  0
 26 28  1  0
 28 29  2  0
 29 30  1  0
 30 31  2  0
 13  7  1  0
 20 14  1  0
 31 21  1  0
 30 24  1  0
  3 32  1  0
  4 33  1  0
  4 34  1  0
  8 35  1  0
  8 36  1  0
  9 37  1  0
  9 38  1  0
 10 39  1  0
 10 40  1  0
 11 41  1  0
 11 42  1  0
 12 43  1  0
 12 44  1  0
 13 45  1  6
 15 46  1  0
 16 47  1  0
 19 48  1  0
 20 49  1  0
 22 50  1  0
 23 51  1  0
 25 52  1  0
 28 53  1  0
 29 54  1  0
M  END
>  <meeko>  (13) 
{"free_energy": -5.86, "intermolecular_energy": -9.14, "internal_energy": -1.8, "cluster_size": 7, "cluster_id": 2, "rank_in_cluster": 5}

$$$$

     RDKit          3D

 54 57  0  0  0  0  0  0  0  0999 V2000
  137.6470   71.4500  222.8630 O   0  0  0  0  0  0  0  0  0  0  0  0
  138.8020   71.4970  223.3720 C   0  0  0  0  0  0  0  0  0  0  0  0
  139.6870   72.4790  222.8490 N   0  0  0  0  0  0  0  0  0  0  0  0
  139.4360   73.4050  221.8330 C   0  0  0  0  0  0  0  0  0  0  0  0
  140.1810   74.6170  221.6110 C   0  0  0  0  0  0  0  0  0  0  0  0
  141.4880   74.3580  221.4850 O   0  0  0  0  0  0  0  0  0  0  0  0
  139.8890   75.9660  221.5020 N   0  0  0  0  0  0  0  0  0  0  0  0
  138.7090   76.6200  221.9920 C   0  0  0  0  0  0  0  0  0  0  0  0
  137.5400   76.4170  221.0220 C   0  0  0  0  0  0  0  0  0  0  0  0
  137.9070   76.8160  219.6090 C   0  0  0  0  0  0  0  0  0  0  0  0
  139.1930   76.1920  219.1630 C   0  0  0  0  0  0  0  0  0  0  0  0
  140.3810   77.0980  219.4520 C   0  0  0  0  0  0  0  0  0  0  0  0
  140.9570   76.7250  220.7880 C   0  0  1  0  0  0  0  0  0  0  0  0
  141.3310   77.9190  221.5930 C   0  0  0  0  0  0  0  0  0  0  0  0
  141.6330   79.1430  221.0310 C   0  0  0  0  0  0  0  0  0  0  0  0
  141.9720   80.2000  221.8740 C   0  0  0  0  0  0  0  0  0  0  0  0
  142.0120   80.0570  223.2320 C   0  0  0  0  0  0  0  0  0  0  0  0
  142.4420   81.4050  224.2720 Cl  0  0  0  0  0  0  0  0  0  0  0  0
  141.7070   78.8300  223.7680 C   0  0  0  0  0  0  0  0  0  0  0  0
  141.3620   77.7370  222.9810 C   0  0  0  0  0  0  0  0  0  0  0  0
  139.2230   70.5940  224.4470 C   0  0  0  0  0  0  0  0  0  0  0  0
  138.8600   69.2680  224.3360 C   0  0  0  0  0  0  0  0  0  0  0  0
  139.2060   68.3430  225.2880 C   0  0  0  0  0  0  0  0  0  0  0  0
  139.9450   68.8240  226.3710 C   0  0  0  0  0  0  0  0  0  0  0  0
  140.3230   67.9400  227.3600 C   0  0  0  0  0  0  0  0  0  0  0  0
  141.0600   68.3980  228.4460 C   0  0  0  0  0  0  0  0  0  0  0  0
  141.4490   67.5470  229.4380 F   0  0  0  0  0  0  0  0  0  0  0  0
  141.4150   69.7340  228.5360 C   0  0  0  0  0  0  0  0  0  0  0  0
  141.0180   70.6050  227.5200 C   0  0  0  0  0  0  0  0  0  0  0  0
  140.2860   70.1590  226.4390 C   0  0  0  0  0  0  0  0  0  0  0  0
  139.9450   71.0620  225.5040 N   0  0  0  0  0  0  0  0  0  0  0  0
  140.6520   72.4830  223.3100 H   0  0  0  0  0  0  0  0  0  0  0  0
  139.5154   72.8372  220.8942 H   0  0  0  0  0  0  0  0  0  0  0  0
  138.4804   73.8237  222.1816 H   0  0  0  0  0  0  0  0  0  0  0  0
  138.4427   76.1990  222.9727 H   0  0  0  0  0  0  0  0  0  0  0  0
  138.9118   77.6972  222.0838 H   0  0  0  0  0  0  0  0  0  0  0  0
  137.2518   75.3555  221.0288 H   0  0  0  0  0  0  0  0  0  0  0  0
  136.7068   77.0548  221.3521 H   0  0  0  0  0  0  0  0  0  0  0  0
  137.1031   76.4956  218.9299 H   0  0  0  0  0  0  0  0  0  0  0  0
  138.0356   77.9083  219.5883 H   0  0  0  0  0  0  0  0  0  0  0  0
  139.3318   75.2395  219.6953 H   0  0  0  0  0  0  0  0  0  0  0  0
  139.1393   76.0286  218.0765 H   0  0  0  0  0  0  0  0  0  0  0  0
  141.1442   76.9683  218.6706 H   0  0  0  0  0  0  0  0  0  0  0  0
  140.0568   78.1491  219.4638 H   0  0  0  0  0  0  0  0  0  0  0  0
  141.8761   76.1373  220.6470 H   0  0  0  0  0  0  0  0  0  0  0  0
  141.6067   79.2815  219.9401 H   0  0  0  0  0  0  0  0  0  0  0  0
  142.2145   81.1780  221.4328 H   0  0  0  0  0  0  0  0  0  0  0  0
  141.7368   78.7073  224.8607 H   0  0  0  0  0  0  0  0  0  0  0  0
  141.1218   76.7633  223.4329 H   0  0  0  0  0  0  0  0  0  0  0  0
  138.2777   68.9437  223.4610 H   0  0  0  0  0  0  0  0  0  0  0  0
  138.9183   67.2847  225.2034 H   0  0  0  0  0  0  0  0  0  0  0  0
  140.0428   66.8786  227.2898 H   0  0  0  0  0  0  0  0  0  0  0  0
  141.9991   70.1018  229.3925 H   0  0  0  0  0  0  0  0  0  0  0  0
  141.2943   71.6679  227.5825 H   0  0  0  0  0  0  0  0  0  0  0  0
  1  2  2  0
  2  3  1  0
  3  4  1  0
  4  5  1  0
  5  6  2  0
  5  7  1  0
  7  8  1  0
  8  9  1  0
  9 10  1  0
 10 11  1  0
 11 12  1  0
 12 13  1  0
 13 14  1  0
 14 15  2  0
 15 16  1  0
 16 17  2  0
 17 18  1  0
 17 19  1  0
 19 20  2  0
  2 21  1  0
 21 22  2  0
 22 23  1  0
 23 24  2  0
 24 25  1  0
 25 26  2  0
 26 27  1  0
 26 28  1  0
 28 29  2  0
 29 30  1  0
 30 31  2  0
 13  7  1  0
 20 14  1  0
 31 21  1  0
 30 24  1  0
  3 32  1  0
  4 33  1  0
  4 34  1  0
  8 35  1  0
  8 36  1  0
  9 37  1  0
  9 38  1  0
 10 39  1  0
 10 40  1  0
 11 41  1  0
 11 42  1  0
 12 43  1  0
 12 44  1  0
 13 45  1  6
 15 46  1  0
 16 47  1  0
 19 48  1  0
 20 49  1  0
 22 50  1  0
 23 51  1  0
 25 52  1  0
 28 53  1  0
 29 54  1  0
M  END
>  <meeko>  (14) 
{"free_energy": -6.47, "intermolecular_energy": -9.75, "internal_energy": -1.53, "cluster_size": 5, "cluster_id": 1, "rank_in_cluster": 2}

$$$$

     RDKit          3D

 54 57  0  0  0  0  0  0  0  0999 V2000
  140.5620   71.0840  221.7250 O   0  0  0  0  0  0  0  0  0  0  0  0
  140.1510   71.6890  222.7550 C   0  0  0  0  0  0  0  0  0  0  0  0
  139.5640   72.9670  222.5500 N   0  0  0  0  0  0  0  0  0  0  0  0
  139.3840   73.6430  221.3400 C   0  0  0  0  0  0  0  0  0  0  0  0
  138.9900   75.0230  221.2100 C   0  0  0  0  0  0  0  0  0  0  0  0
  137.8230   75.2460  221.8260 O   0  0  0  0  0  0  0  0  0  0  0  0
  139.5060   76.1580  220.6110 N   0  0  0  0  0  0  0  0  0  0  0  0
  138.7650   77.1340  219.8630 C   0  0  0  0  0  0  0  0  0  0  0  0
  138.5050   76.6330  218.4370 C   0  0  0  0  0  0  0  0  0  0  0  0
  139.7930   76.3130  217.7100 C   0  0  0  0  0  0  0  0  0  0  0  0
  140.6960   75.4380  218.5230 C   0  0  0  0  0  0  0  0  0  0  0  0
  141.5910   76.2600  219.4380 C   0  0  0  0  0  0  0  0  0  0  0  0
  140.9790   76.2890  220.8090 C   0  0  1  0  0  0  0  0  0  0  0  0
  141.2660   77.5610  221.5270 C   0  0  0  0  0  0  0  0  0  0  0  0
  141.7060   78.7030  220.8890 C   0  0  0  0  0  0  0  0  0  0  0  0
  141.9460   79.8440  221.6540 C   0  0  0  0  0  0  0  0  0  0  0  0
  141.7580   79.8610  223.0060 C   0  0  0  0  0  0  0  0  0  0  0  0
  142.0670   81.3110  223.9460 Cl  0  0  0  0  0  0  0  0  0  0  0  0
  141.3200   78.7120  223.6180 C   0  0  0  0  0  0  0  0  0  0  0  0
  141.0630   77.5420  222.9120 C   0  0  0  0  0  0  0  0  0  0  0  0
  140.2670   71.1150  224.0990 C   0  0  0  0  0  0  0  0  0  0  0  0
  140.7810   71.9260  225.0890 C   0  0  0  0  0  0  0  0  0  0  0  0
  140.9280   71.4840  226.3790 C   0  0  0  0  0  0  0  0  0  0  0  0
  140.5270   70.1700  226.6280 C   0  0  0  0  0  0  0  0  0  0  0  0
  140.6500   69.6700  227.9070 C   0  0  0  0  0  0  0  0  0  0  0  0
  140.2550   68.3650  228.1760 C   0  0  0  0  0  0  0  0  0  0  0  0
  140.3640   67.8430  229.4310 F   0  0  0  0  0  0  0  0  0  0  0  0
  139.7400   67.5680  227.1660 C   0  0  0  0  0  0  0  0  0  0  0  0
  139.6270   68.1010  225.8810 C   0  0  0  0  0  0  0  0  0  0  0  0
  140.0170   69.3970  225.6050 C   0  0  0  0  0  0  0  0  0  0  0  0
  139.8750   69.8330  224.3430 N   0  0  0  0  0  0  0  0  0  0  0  0
  139.2300   73.4410  223.4490 H   0  0  0  0  0  0  0  0  0  0  0  0
  140.3471   73.5633  220.8146 H   0  0  0  0  0  0  0  0  0  0  0  0
  138.4761   73.1442  220.9699 H   0  0  0  0  0  0  0  0  0  0  0  0
  137.8028   77.3191  220.3628 H   0  0  0  0  0  0  0  0  0  0  0  0
  139.3508   78.0637  219.8125 H   0  0  0  0  0  0  0  0  0  0  0  0
  137.8884   75.7234  218.4861 H   0  0  0  0  0  0  0  0  0  0  0  0
  137.9890   77.4311  217.8831 H   0  0  0  0  0  0  0  0  0  0  0  0
  139.5506   75.7962  216.7697 H   0  0  0  0  0  0  0  0  0  0  0  0
  140.3194   77.2601  217.5206 H   0  0  0  0  0  0  0  0  0  0  0  0
  140.0820   74.7620  219.1362 H   0  0  0  0  0  0  0  0  0  0  0  0
  141.3365   74.8676  217.8343 H   0  0  0  0  0  0  0  0  0  0  0  0
  142.5899   75.8021  219.4879 H   0  0  0  0  0  0  0  0  0  0  0  0
  141.6869   77.2841  219.0481 H   0  0  0  0  0  0  0  0  0  0  0  0
  141.3992   75.4772  221.4209 H   0  0  0  0  0  0  0  0  0  0  0  0
  141.8640   78.7130  219.8005 H   0  0  0  0  0  0  0  0  0  0  0  0
  142.2974   80.7580  221.1528 H   0  0  0  0  0  0  0  0  0  0  0  0
  141.1668   78.7176  224.7073 H   0  0  0  0  0  0  0  0  0  0  0  0
  140.7125   76.6335  223.4237 H   0  0  0  0  0  0  0  0  0  0  0  0
  141.0809   72.9540  224.8375 H   0  0  0  0  0  0  0  0  0  0  0  0
  141.3380   72.1274  227.1714 H   0  0  0  0  0  0  0  0  0  0  0  0
  141.0586   70.3007  228.7103 H   0  0  0  0  0  0  0  0  0  0  0  0
  139.4261   66.5343  227.3732 H   0  0  0  0  0  0  0  0  0  0  0  0
  139.2194   67.4767  225.0722 H   0  0  0  0  0  0  0  0  0  0  0  0
  1  2  2  0
  2  3  1  0
  3  4  1  0
  4  5  1  0
  5  6  2  0
  5  7  1  0
  7  8  1  0
  8  9  1  0
  9 10  1  0
 10 11  1  0
 11 12  1  0
 12 13  1  0
 13 14  1  0
 14 15  2  0
 15 16  1  0
 16 17  2  0
 17 18  1  0
 17 19  1  0
 19 20  2  0
  2 21  1  0
 21 22  2  0
 22 23  1  0
 23 24  2  0
 24 25  1  0
 25 26  2  0
 26 27  1  0
 26 28  1  0
 28 29  2  0
 29 30  1  0
 30 31  2  0
 13  7  1  0
 20 14  1  0
 31 21  1  0
 30 24  1  0
  3 32  1  0
  4 33  1  0
  4 34  1  0
  8 35  1  0
  8 36  1  0
  9 37  1  0
  9 38  1  0
 10 39  1  0
 10 40  1  0
 11 41  1  0
 11 42  1  0
 12 43  1  0
 12 44  1  0
 13 45  1  1
 15 46  1  0
 16 47  1  0
 19 48  1  0
 20 49  1  0
 22 50  1  0
 23 51  1  0
 25 52  1  0
 28 53  1  0
 29 54  1  0
M  END
>  <meeko>  (15) 
{"free_energy": -6.51, "intermolecular_energy": -9.79, "internal_energy": -1.54, "cluster_size": 5, "cluster_id": 1, "rank_in_cluster": 1}

$$$$

     RDKit          3D

 54 57  0  0  0  0  0  0  0  0999 V2000
  137.7660   73.3850  221.6600 O   0  0  0  0  0  0  0  0  0  0  0  0
  138.8720   73.9860  221.7730 C   0  0  0  0  0  0  0  0  0  0  0  0
  140.0410   73.2200  221.5160 N   0  0  0  0  0  0  0  0  0  0  0  0
  140.1190   71.8730  221.1510 C   0  0  0  0  0  0  0  0  0  0  0  0
  139.1690   70.8550  221.5200 C   0  0  0  0  0  0  0  0  0  0  0  0
  138.3160   70.6120  220.5180 O   0  0  0  0  0  0  0  0  0  0  0  0
  138.9150   70.0810  222.6390 N   0  0  0  0  0  0  0  0  0  0  0  0
  138.9650   68.6480  222.7070 C   0  0  0  0  0  0  0  0  0  0  0  0
  137.6560   68.0410  222.1870 C   0  0  0  0  0  0  0  0  0  0  0  0
  136.4450   68.6990  222.8110 C   0  0  0  0  0  0  0  0  0  0  0  0
  136.4970   70.1920  222.7060 C   0  0  0  0  0  0  0  0  0  0  0  0
  137.0670   70.8180  223.9680 C   0  0  0  0  0  0  0  0  0  0  0  0
  138.5600   70.9020  223.8320 C   0  0  1  0  0  0  0  0  0  0  0  0
  139.2640   70.3620  225.0270 C   0  0  0  0  0  0  0  0  0  0  0  0
  140.4710   70.8560  225.4780 C   0  0  0  0  0  0  0  0  0  0  0  0
  141.0480   70.2790  226.6080 C   0  0  0  0  0  0  0  0  0  0  0  0
  140.4560   69.2450  227.2740 C   0  0  0  0  0  0  0  0  0  0  0  0
  141.2050   68.5350  228.6960 Cl  0  0  0  0  0  0  0  0  0  0  0  0
  139.2550   68.7690  226.8060 C   0  0  0  0  0  0  0  0  0  0  0  0
  138.6290   69.3020  225.6850 C   0  0  0  0  0  0  0  0  0  0  0  0
  138.9600   75.4000  222.1490 C   0  0  0  0  0  0  0  0  0  0  0  0
  137.7750   76.0890  222.2990 C   0  0  0  0  0  0  0  0  0  0  0  0
  137.7510   77.4140  222.6510 C   0  0  0  0  0  0  0  0  0  0  0  0
  138.9930   78.0220  222.8450 C   0  0  0  0  0  0  0  0  0  0  0  0
  139.0320   79.3530  223.2000 C   0  0  0  0  0  0  0  0  0  0  0  0
  140.2590   79.9760  223.4000 C   0  0  0  0  0  0  0  0  0  0  0  0
  140.3280   81.2910  223.7520 F   0  0  0  0  0  0  0  0  0  0  0  0
  141.4370   79.2640  223.2440 C   0  0  0  0  0  0  0  0  0  0  0  0
  141.3670   77.9170  222.8840 C   0  0  0  0  0  0  0  0  0  0  0  0
  140.1530   77.2920  222.6830 C   0  0  0  0  0  0  0  0  0  0  0  0
  140.1730   75.9930  222.3400 N   0  0  0  0  0  0  0  0  0  0  0  0
  140.9520   73.7690  221.6220 H   0  0  0  0  0  0  0  0  0  0  0  0
  140.1386   71.8692  220.0512 H   0  0  0  0  0  0  0  0  0  0  0  0
  140.9857   71.5580  221.7506 H   0  0  0  0  0  0  0  0  0  0  0  0
  139.8019   68.2852  222.0923 H   0  0  0  0  0  0  0  0  0  0  0  0
  139.1063   68.3457  223.7552 H   0  0  0  0  0  0  0  0  0  0  0  0
  137.6107   68.1736  221.0960 H   0  0  0  0  0  0  0  0  0  0  0  0
  137.6427   66.9746  222.4565 H   0  0  0  0  0  0  0  0  0  0  0  0
  135.5416   68.3387  222.2971 H   0  0  0  0  0  0  0  0  0  0  0  0
  136.4294   68.4353  223.8788 H   0  0  0  0  0  0  0  0  0  0  0  0
  137.1318   70.4686  221.8513 H   0  0  0  0  0  0  0  0  0  0  0  0
  135.4714   70.5649  222.5679 H   0  0  0  0  0  0  0  0  0  0  0  0
  136.6502   71.8272  224.1014 H   0  0  0  0  0  0  0  0  0  0  0  0
  136.8043   70.2043  224.8423 H   0  0  0  0  0  0  0  0  0  0  0  0
  138.8672   71.9534  223.7307 H   0  0  0  0  0  0  0  0  0  0  0  0
  140.9674   71.6877  224.9566 H   0  0  0  0  0  0  0  0  0  0  0  0
  142.0094   70.6686  226.9741 H   0  0  0  0  0  0  0  0  0  0  0  0
  138.7714   67.9361  227.3375 H   0  0  0  0  0  0  0  0  0  0  0  0
  137.6677   68.9045  225.3273 H   0  0  0  0  0  0  0  0  0  0  0  0
  136.8241   75.5619  222.1319 H   0  0  0  0  0  0  0  0  0  0  0  0
  136.8076   77.9663  222.7735 H   0  0  0  0  0  0  0  0  0  0  0  0
  138.0974   79.9196  223.3245 H   0  0  0  0  0  0  0  0  0  0  0  0
  142.4105   79.7514  223.4010 H   0  0  0  0  0  0  0  0  0  0  0  0
  142.2969   77.3430  222.7582 H   0  0  0  0  0  0  0  0  0  0  0  0
  1  2  2  0
  2  3  1  0
  3  4  1  0
  4  5  1  0
  5  6  2  0
  5  7  1  0
  7  8  1  0
  8  9  1  0
  9 10  1  0
 10 11  1  0
 11 12  1  0
 12 13  1  0
 13 14  1  0
 14 15  2  0
 15 16  1  0
 16 17  2  0
 17 18  1  0
 17 19  1  0
 19 20  2  0
  2 21  1  0
 21 22  2  0
 22 23  1  0
 23 24  2  0
 24 25  1  0
 25 26  2  0
 26 27  1  0
 26 28  1  0
 28 29  2  0
 29 30  1  0
 30 31  2  0
 13  7  1  0
 20 14  1  0
 31 21  1  0
 30 24  1  0
  3 32  1  0
  4 33  1  0
  4 34  1  0
  8 35  1  0
  8 36  1  0
  9 37  1  0
  9 38  1  0
 10 39  1  0
 10 40  1  0
 11 41  1  0
 11 42  1  0
 12 43  1  0
 12 44  1  0
 13 45  1  6
 15 46  1  0
 16 47  1  0
 19 48  1  0
 20 49  1  0
 22 50  1  0
 23 51  1  0
 25 52  1  0
 28 53  1  0
 29 54  1  0
M  END
>  <meeko>  (16) 
{"free_energy": -5.34, "intermolecular_energy": -8.62, "internal_energy": -1.92, "cluster_size": 3, "cluster_id": 4, "rank_in_cluster": 3}

$$$$

     RDKit          3D

 54 57  0  0  0  0  0  0  0  0999 V2000
  139.4750   71.5220  220.9160 O   0  0  0  0  0  0  0  0  0  0  0  0
  139.1230   71.9390  222.0550 C   0  0  0  0  0  0  0  0  0  0  0  0
  138.4340   73.1820  222.0910 N   0  0  0  0  0  0  0  0  0  0  0  0
  138.0950   74.0060  221.0140 C   0  0  0  0  0  0  0  0  0  0  0  0
  139.0330   74.5990  220.0950 C   0  0  0  0  0  0  0  0  0  0  0  0
  138.4100   75.4150  219.2370 O   0  0  0  0  0  0  0  0  0  0  0  0
  140.3990   74.5320  219.8770 N   0  0  0  0  0  0  0  0  0  0  0  0
  141.0440   74.1770  218.6450 C   0  0  0  0  0  0  0  0  0  0  0  0
  141.8270   75.3700  218.0850 C   0  0  0  0  0  0  0  0  0  0  0  0
  143.2500   75.3990  218.5980 C   0  0  0  0  0  0  0  0  0  0  0  0
  143.3100   75.5820  220.0840 C   0  0  0  0  0  0  0  0  0  0  0  0
  142.6000   74.4490  220.8110 C   0  0  0  0  0  0  0  0  0  0  0  0
  141.1880   74.8710  221.0970 C   0  0  1  0  0  0  0  0  0  0  0  0
  141.0790   76.3320  221.3600 C   0  0  0  0  0  0  0  0  0  0  0  0
  140.9870   77.2740  220.3560 C   0  0  0  0  0  0  0  0  0  0  0  0
  140.8890   78.6190  220.7100 C   0  0  0  0  0  0  0  0  0  0  0  0
  140.8820   79.0260  222.0130 C   0  0  0  0  0  0  0  0  0  0  0  0
  140.7570   80.7260  222.4320 Cl  0  0  0  0  0  0  0  0  0  0  0  0
  140.9750   78.0690  222.9950 C   0  0  0  0  0  0  0  0  0  0  0  0
  141.0760   76.7130  222.7080 C   0  0  0  0  0  0  0  0  0  0  0  0
  139.4030   71.1920  223.2850 C   0  0  0  0  0  0  0  0  0  0  0  0
  139.1000   69.8470  223.2890 C   0  0  0  0  0  0  0  0  0  0  0  0
  139.3260   69.0600  224.3890 C   0  0  0  0  0  0  0  0  0  0  0  0
  139.8780   69.7010  225.5000 C   0  0  0  0  0  0  0  0  0  0  0  0
  140.1280   68.9610  226.6360 C   0  0  0  0  0  0  0  0  0  0  0  0
  140.6780   69.5810  227.7530 C   0  0  0  0  0  0  0  0  0  0  0  0
  140.9370   68.8740  228.8900 F   0  0  0  0  0  0  0  0  0  0  0  0
  140.9750   70.9340  227.7260 C   0  0  0  0  0  0  0  0  0  0  0  0
  140.7110   71.6570  226.5620 C   0  0  0  0  0  0  0  0  0  0  0  0
  140.1640   71.0500  225.4490 C   0  0  0  0  0  0  0  0  0  0  0  0
  139.9420   71.8170  224.3690 N   0  0  0  0  0  0  0  0  0  0  0  0
  138.1540   73.4950  223.0750 H   0  0  0  0  0  0  0  0  0  0  0  0
  137.4139   73.4076  220.3911 H   0  0  0  0  0  0  0  0  0  0  0  0
  137.7542   74.9026  221.5525 H   0  0  0  0  0  0  0  0  0  0  0  0
  141.7371   73.3424  218.8268 H   0  0  0  0  0  0  0  0  0  0  0  0
  140.2768   73.8809  217.9145 H   0  0  0  0  0  0  0  0  0  0  0  0
  141.8456   75.3001  216.9874 H   0  0  0  0  0  0  0  0  0  0  0  0
  141.3261   76.2924  218.4140 H   0  0  0  0  0  0  0  0  0  0  0  0
  143.7403   74.4494  218.3375 H   0  0  0  0  0  0  0  0  0  0  0  0
  143.7611   76.2536  218.1306 H   0  0  0  0  0  0  0  0  0  0  0  0
  144.3635   75.6054  220.3997 H   0  0  0  0  0  0  0  0  0  0  0  0
  142.8060   76.5263  220.3376 H   0  0  0  0  0  0  0  0  0  0  0  0
  142.5965   73.5485  220.1792 H   0  0  0  0  0  0  0  0  0  0  0  0
  143.1217   74.2228  221.7527 H   0  0  0  0  0  0  0  0  0  0  0  0
  140.8211   74.3581  221.9983 H   0  0  0  0  0  0  0  0  0  0  0  0
  140.9909   76.9703  219.2988 H   0  0  0  0  0  0  0  0  0  0  0  0
  140.8151   79.3755  219.9149 H   0  0  0  0  0  0  0  0  0  0  0  0
  140.9693   78.3883  224.0476 H   0  0  0  0  0  0  0  0  0  0  0  0
  141.1510   75.9651  223.5112 H   0  0  0  0  0  0  0  0  0  0  0  0
  138.6655   69.3933  222.3860 H   0  0  0  0  0  0  0  0  0  0  0  0
  139.0864   67.9864  224.3958 H   0  0  0  0  0  0  0  0  0  0  0  0
  139.8939   67.8864  226.6589 H   0  0  0  0  0  0  0  0  0  0  0  0
  141.4110   71.4293  228.6061 H   0  0  0  0  0  0  0  0  0  0  0  0
  140.9433   72.7317  226.5305 H   0  0  0  0  0  0  0  0  0  0  0  0
  1  2  2  0
  2  3  1  0
  3  4  1  0
  4  5  1  0
  5  6  2  0
  5  7  1  0
  7  8  1  0
  8  9  1  0
  9 10  1  0
 10 11  1  0
 11 12  1  0
 12 13  1  0
 13 14  1  0
 14 15  2  0
 15 16  1  0
 16 17  2  0
 17 18  1  0
 17 19  1  0
 19 20  2  0
  2 21  1  0
 21 22  2  0
 22 23  1  0
 23 24  2  0
 24 25  1  0
 25 26  2  0
 26 27  1  0
 26 28  1  0
 28 29  2  0
 29 30  1  0
 30 31  2  0
 13  7  1  0
 20 14  1  0
 31 21  1  0
 30 24  1  0
  3 32  1  0
  4 33  1  0
  4 34  1  0
  8 35  1  0
  8 36  1  0
  9 37  1  0
  9 38  1  0
 10 39  1  0
 10 40  1  0
 11 41  1  0
 11 42  1  0
 12 43  1  0
 12 44  1  0
 13 45  1  1
 15 46  1  0
 16 47  1  0
 19 48  1  0
 20 49  1  0
 22 50  1  0
 23 51  1  0
 25 52  1  0
 28 53  1  0
 29 54  1  0
M  END
>  <meeko>  (17) 
{"free_energy": -5.31, "intermolecular_energy": -8.59, "internal_energy": -1.76, "cluster_size": 5, "cluster_id": 1, "rank_in_cluster": 5}

$$$$

     RDKit          3D

 54 57  0  0  0  0  0  0  0  0999 V2000
  140.3210   73.9900  222.2820 O   0  0  0  0  0  0  0  0  0  0  0  0
  140.1970   72.7440  222.1150 C   0  0  0  0  0  0  0  0  0  0  0  0
  140.1030   72.2900  220.7710 N   0  0  0  0  0  0  0  0  0  0  0  0
  140.1310   73.0580  219.6030 C   0  0  0  0  0  0  0  0  0  0  0  0
  141.3230   73.5490  218.9600 C   0  0  0  0  0  0  0  0  0  0  0  0
  141.0190   74.2440  217.8580 O   0  0  0  0  0  0  0  0  0  0  0  0
  142.6860   73.4780  219.1910 N   0  0  0  0  0  0  0  0  0  0  0  0
  143.6210   72.6380  218.4980 C   0  0  0  0  0  0  0  0  0  0  0  0
  144.0920   71.4970  219.4070 C   0  0  0  0  0  0  0  0  0  0  0  0
  144.0650   71.8940  220.8680 C   0  0  0  0  0  0  0  0  0  0  0  0
  144.9830   73.0410  221.1560 C   0  0  0  0  0  0  0  0  0  0  0  0
  144.6230   74.2780  220.3470 C   0  0  0  0  0  0  0  0  0  0  0  0
  143.1270   74.3930  220.2840 C   0  0  1  0  0  0  0  0  0  0  0  0
  142.6810   75.7780  219.9740 C   0  0  0  0  0  0  0  0  0  0  0  0
  141.7190   76.4430  220.7070 C   0  0  0  0  0  0  0  0  0  0  0  0
  141.3730   77.7400  220.3320 C   0  0  0  0  0  0  0  0  0  0  0  0
  141.9550   78.3660  219.2680 C   0  0  0  0  0  0  0  0  0  0  0  0
  141.5010   80.0010  218.8170 Cl  0  0  0  0  0  0  0  0  0  0  0  0
  142.9100   77.6840  218.5530 C   0  0  0  0  0  0  0  0  0  0  0  0
  143.2990   76.3890  218.8760 C   0  0  0  0  0  0  0  0  0  0  0  0
  140.1510   71.8030  223.2380 C   0  0  0  0  0  0  0  0  0  0  0  0
  139.5630   70.5770  223.0090 C   0  0  0  0  0  0  0  0  0  0  0  0
  139.4720   69.6260  223.9940 C   0  0  0  0  0  0  0  0  0  0  0  0
  140.0080   69.9740  225.2360 C   0  0  0  0  0  0  0  0  0  0  0  0
  139.9470   69.0580  226.2640 C   0  0  0  0  0  0  0  0  0  0  0  0
  140.4760   69.3850  227.5080 C   0  0  0  0  0  0  0  0  0  0  0  0
  140.4300   68.4990  228.5440 F   0  0  0  0  0  0  0  0  0  0  0  0
  141.0620   70.6230  227.7140 C   0  0  0  0  0  0  0  0  0  0  0  0
  141.1100   71.5300  226.6540 C   0  0  0  0  0  0  0  0  0  0  0  0
  140.5870   71.2130  225.4160 C   0  0  0  0  0  0  0  0  0  0  0  0
  140.6750   72.1420  224.4500 N   0  0  0  0  0  0  0  0  0  0  0  0
  140.0010   71.2300  220.6770 H   0  0  0  0  0  0  0  0  0  0  0  0
  139.6172   72.4518  218.8423 H   0  0  0  0  0  0  0  0  0  0  0  0
  139.7082   74.0015  219.9787 H   0  0  0  0  0  0  0  0  0  0  0  0
  143.1355   72.2141  217.6066 H   0  0  0  0  0  0  0  0  0  0  0  0
  144.4921   73.2417  218.2037 H   0  0  0  0  0  0  0  0  0  0  0  0
  143.4310   70.6299  219.2614 H   0  0  0  0  0  0  0  0  0  0  0  0
  145.1303   71.2524  219.1384 H   0  0  0  0  0  0  0  0  0  0  0  0
  143.0389   72.1843  221.1380 H   0  0  0  0  0  0  0  0  0  0  0  0
  144.4041   71.0313  221.4602 H   0  0  0  0  0  0  0  0  0  0  0  0
  144.9195   73.2862  222.2265 H   0  0  0  0  0  0  0  0  0  0  0  0
  146.0027   72.7378  220.8763 H   0  0  0  0  0  0  0  0  0  0  0  0
  145.0430   75.1721  220.8310 H   0  0  0  0  0  0  0  0  0  0  0  0
  145.0358   74.1947  219.3308 H   0  0  0  0  0  0  0  0  0  0  0  0
  142.6919   74.1312  221.2598 H   0  0  0  0  0  0  0  0  0  0  0  0
  141.2356   75.9596  221.5688 H   0  0  0  0  0  0  0  0  0  0  0  0
  140.6069   78.2758  220.9117 H   0  0  0  0  0  0  0  0  0  0  0  0
  143.3840   78.1809  217.6937 H   0  0  0  0  0  0  0  0  0  0  0  0
  144.0660   75.8623  218.2892 H   0  0  0  0  0  0  0  0  0  0  0  0
  139.1565   70.3556  222.0111 H   0  0  0  0  0  0  0  0  0  0  0  0
  139.0041   68.6465  223.8159 H   0  0  0  0  0  0  0  0  0  0  0  0
  139.4827   68.0741  226.1015 H   0  0  0  0  0  0  0  0  0  0  0  0
  141.4822   70.8868  228.6957 H   0  0  0  0  0  0  0  0  0  0  0  0
  141.5732   72.5158  226.8078 H   0  0  0  0  0  0  0  0  0  0  0  0
  1  2  2  0
  2  3  1  0
  3  4  1  0
  4  5  1  0
  5  6  2  0
  5  7  1  0
  7  8  1  0
  8  9  1  0
  9 10  1  0
 10 11  1  0
 11 12  1  0
 12 13  1  0
 13 14  1  0
 14 15  2  0
 15 16  1  0
 16 17  2  0
 17 18  1  0
 17 19  1  0
 19 20  2  0
  2 21  1  0
 21 22  2  0
 22 23  1  0
 23 24  2  0
 24 25  1  0
 25 26  2  0
 26 27  1  0
 26 28  1  0
 28 29  2  0
 29 30  1  0
 30 31  2  0
 13  7  1  0
 20 14  1  0
 31 21  1  0
 30 24  1  0
  3 32  1  0
  4 33  1  0
  4 34  1  0
  8 35  1  0
  8 36  1  0
  9 37  1  0
  9 38  1  0
 10 39  1  0
 10 40  1  0
 11 41  1  0
 11 42  1  0
 12 43  1  0
 12 44  1  0
 13 45  1  1
 15 46  1  0
 16 47  1  0
 19 48  1  0
 20 49  1  0
 22 50  1  0
 23 51  1  0
 25 52  1  0
 28 53  1  0
 29 54  1  0
M  END
>  <meeko>  (18) 
{"free_energy": -5.17, "intermolecular_energy": -8.45, "internal_energy": -2.1, "cluster_size": 3, "cluster_id": 3, "rank_in_cluster": 2}

$$$$

     RDKit          3D

 54 57  0  0  0  0  0  0  0  0999 V2000
  139.8960   71.5740  221.0920 O   0  0  0  0  0  0  0  0  0  0  0  0
  139.8250   72.1170  222.2300 C   0  0  0  0  0  0  0  0  0  0  0  0
  139.6420   73.5270  222.2510 N   0  0  0  0  0  0  0  0  0  0  0  0
  139.5310   74.3930  221.1590 C   0  0  0  0  0  0  0  0  0  0  0  0
  140.5590   74.6250  220.1760 C   0  0  0  0  0  0  0  0  0  0  0  0
  140.1540   75.5180  219.2640 O   0  0  0  0  0  0  0  0  0  0  0  0
  141.8400   74.1580  219.9370 N   0  0  0  0  0  0  0  0  0  0  0  0
  142.1860   72.9130  219.3130 C   0  0  0  0  0  0  0  0  0  0  0  0
  142.7760   71.9420  220.3410 C   0  0  0  0  0  0  0  0  0  0  0  0
  144.2750   72.1040  220.4720 C   0  0  0  0  0  0  0  0  0  0  0  0
  144.6540   73.4770  220.9370 C   0  0  0  0  0  0  0  0  0  0  0  0
  144.2020   74.5440  219.9510 C   0  0  0  0  0  0  0  0  0  0  0  0
  142.8890   75.1040  220.4180 C   0  0  1  0  0  0  0  0  0  0  0  0
  142.6240   76.4570  219.8560 C   0  0  0  0  0  0  0  0  0  0  0  0
  141.9970   77.4580  220.5680 C   0  0  0  0  0  0  0  0  0  0  0  0
  141.7960   78.6920  219.9500 C   0  0  0  0  0  0  0  0  0  0  0  0
  142.1990   78.9320  218.6680 C   0  0  0  0  0  0  0  0  0  0  0  0
  141.9340   80.4940  217.9110 Cl  0  0  0  0  0  0  0  0  0  0  0  0
  142.8210   77.9190  217.9790 C   0  0  0  0  0  0  0  0  0  0  0  0
  143.0500   76.6670  218.5390 C   0  0  0  0  0  0  0  0  0  0  0  0
  139.9220   71.3480  223.4730 C   0  0  0  0  0  0  0  0  0  0  0  0
  139.4890   70.0390  223.4420 C   0  0  0  0  0  0  0  0  0  0  0  0
  139.5410   69.2350  224.5520 C   0  0  0  0  0  0  0  0  0  0  0  0
  140.0560   69.8200  225.7110 C   0  0  0  0  0  0  0  0  0  0  0  0
  140.1330   69.0600  226.8580 C   0  0  0  0  0  0  0  0  0  0  0  0
  140.6440   69.6230  228.0220 C   0  0  0  0  0  0  0  0  0  0  0  0
  140.7340   68.8960  229.1730 F   0  0  0  0  0  0  0  0  0  0  0  0
  141.0750   70.9400  228.0310 C   0  0  0  0  0  0  0  0  0  0  0  0
  140.9840   71.6850  226.8540 C   0  0  0  0  0  0  0  0  0  0  0  0
  140.4780   71.1330  225.6940 C   0  0  0  0  0  0  0  0  0  0  0  0
  140.4260   71.9180  224.6050 N   0  0  0  0  0  0  0  0  0  0  0  0
  139.5850   73.9430  223.2340 H   0  0  0  0  0  0  0  0  0  0  0  0
  138.6584   74.0375  220.5913 H   0  0  0  0  0  0  0  0  0  0  0  0
  139.5317   75.3635  221.6769 H   0  0  0  0  0  0  0  0  0  0  0  0
  141.2831   72.4669  218.8705 H   0  0  0  0  0  0  0  0  0  0  0  0
  142.9371   73.1035  218.5323 H   0  0  0  0  0  0  0  0  0  0  0  0
  142.3105   72.1330  221.3192 H   0  0  0  0  0  0  0  0  0  0  0  0
  142.5717   70.9166  219.9991 H   0  0  0  0  0  0  0  0  0  0  0  0
  144.6494   71.3674  221.1981 H   0  0  0  0  0  0  0  0  0  0  0  0
  144.7212   71.9470  219.4789 H   0  0  0  0  0  0  0  0  0  0  0  0
  144.1810   73.6676  221.9117 H   0  0  0  0  0  0  0  0  0  0  0  0
  145.7500   73.5238  221.0179 H   0  0  0  0  0  0  0  0  0  0  0  0
  144.9520   75.3474  219.9050 H   0  0  0  0  0  0  0  0  0  0  0  0
  144.0877   74.1049  218.9490 H   0  0  0  0  0  0  0  0  0  0  0  0
  142.8963   75.2102  221.5128 H   0  0  0  0  0  0  0  0  0  0  0  0
  141.6624   77.2867  221.6018 H   0  0  0  0  0  0  0  0  0  0  0  0
  141.2980   79.4957  220.5122 H   0  0  0  0  0  0  0  0  0  0  0  0
  143.1500   78.1053  216.9460 H   0  0  0  0  0  0  0  0  0  0  0  0
  143.5482   75.8699  217.9676 H   0  0  0  0  0  0  0  0  0  0  0  0
  139.0913   69.6288  222.5020 H   0  0  0  0  0  0  0  0  0  0  0  0
  139.1971   68.1903  224.5307 H   0  0  0  0  0  0  0  0  0  0  0  0
  139.7922   68.0141  226.8526 H   0  0  0  0  0  0  0  0  0  0  0  0
  141.4814   71.3901  228.9488 H   0  0  0  0  0  0  0  0  0  0  0  0
  141.3219   72.7318  226.8506 H   0  0  0  0  0  0  0  0  0  0  0  0
  1  2  2  0
  2  3  1  0
  3  4  1  0
  4  5  1  0
  5  6  2  0
  5  7  1  0
  7  8  1  0
  8  9  1  0
  9 10  1  0
 10 11  1  0
 11 12  1  0
 12 13  1  0
 13 14  1  0
 14 15  2  0
 15 16  1  0
 16 17  2  0
 17 18  1  0
 17 19  1  0
 19 20  2  0
  2 21  1  0
 21 22  2  0
 22 23  1  0
 23 24  2  0
 24 25  1  0
 25 26  2  0
 26 27  1  0
 26 28  1  0
 28 29  2  0
 29 30  1  0
 30 31  2  0
 13  7  1  0
 20 14  1  0
 31 21  1  0
 30 24  1  0
  3 32  1  0
  4 33  1  0
  4 34  1  0
  8 35  1  0
  8 36  1  0
  9 37  1  0
  9 38  1  0
 10 39  1  0
 10 40  1  0
 11 41  1  0
 11 42  1  0
 12 43  1  0
 12 44  1  0
 13 45  1  1
 15 46  1  0
 16 47  1  0
 19 48  1  0
 20 49  1  0
 22 50  1  0
 23 51  1  0
 25 52  1  0
 28 53  1  0
 29 54  1  0
M  END
>  <meeko>  (19) 
{"free_energy": -5.86, "intermolecular_energy": -9.14, "internal_energy": -1.92, "cluster_size": 3, "cluster_id": 3, "rank_in_cluster": 1}

$$$$

     RDKit          3D

 54 57  0  0  0  0  0  0  0  0999 V2000
  138.5500   71.6600  221.9640 O   0  0  0  0  0  0  0  0  0  0  0  0
  139.5270   71.6920  222.7640 C   0  0  0  0  0  0  0  0  0  0  0  0
  140.5470   72.6410  222.4820 N   0  0  0  0  0  0  0  0  0  0  0  0
  140.6040   73.5490  221.4210 C   0  0  0  0  0  0  0  0  0  0  0  0
  140.2750   74.9490  221.5070 C   0  0  0  0  0  0  0  0  0  0  0  0
  139.7910   75.2530  222.7170 O   0  0  0  0  0  0  0  0  0  0  0  0
  140.3280   76.0440  220.6610 N   0  0  0  0  0  0  0  0  0  0  0  0
  139.5980   76.2040  219.4360 C   0  0  0  0  0  0  0  0  0  0  0  0
  140.5320   76.0460  218.2310 C   0  0  0  0  0  0  0  0  0  0  0  0
  141.9160   75.5980  218.6470 C   0  0  0  0  0  0  0  0  0  0  0  0
  142.7250   76.7230  219.2140 C   0  0  0  0  0  0  0  0  0  0  0  0
  141.8500   77.7380  219.9260 C   0  0  0  0  0  0  0  0  0  0  0  0
  141.2640   77.0970  221.1510 C   0  0  1  0  0  0  0  0  0  0  0  0
  140.5110   78.0700  221.9890 C   0  0  0  0  0  0  0  0  0  0  0  0
  141.0780   78.7520  223.0460 C   0  0  0  0  0  0  0  0  0  0  0  0
  140.2850   79.6430  223.7680 C   0  0  0  0  0  0  0  0  0  0  0  0
  138.9720   79.8560  223.4600 C   0  0  0  0  0  0  0  0  0  0  0  0
  137.9950   80.9840  224.3850 Cl  0  0  0  0  0  0  0  0  0  0  0  0
  138.4300   79.1650  222.4030 C   0  0  0  0  0  0  0  0  0  0  0  0
  139.1670   78.2640  221.6440 C   0  0  0  0  0  0  0  0  0  0  0  0
  139.6190   70.8050  223.9270 C   0  0  0  0  0  0  0  0  0  0  0  0
  139.0710   69.5450  223.8050 C   0  0  0  0  0  0  0  0  0  0  0  0
  139.1060   68.6400  224.8340 C   0  0  0  0  0  0  0  0  0  0  0  0
  139.7290   69.0690  226.0080 C   0  0  0  0  0  0  0  0  0  0  0  0
  139.7960   68.2010  227.0780 C   0  0  0  0  0  0  0  0  0  0  0  0
  140.4130   68.6090  228.2550 C   0  0  0  0  0  0  0  0  0  0  0  0
  140.4950   67.7720  229.3290 F   0  0  0  0  0  0  0  0  0  0  0  0
  140.9580   69.8780  228.3550 C   0  0  0  0  0  0  0  0  0  0  0  0
  140.8750   70.7350  227.2560 C   0  0  0  0  0  0  0  0  0  0  0  0
  140.2640   70.3380  226.0830 C   0  0  0  0  0  0  0  0  0  0  0  0
  140.2280   71.2220  225.0730 N   0  0  0  0  0  0  0  0  0  0  0  0
  141.3540   72.6340  223.1850 H   0  0  0  0  0  0  0  0  0  0  0  0
  141.6434   73.5146  221.0625 H   0  0  0  0  0  0  0  0  0  0  0  0
  139.7646   73.1878  220.8087 H   0  0  0  0  0  0  0  0  0  0  0  0
  138.8070   75.4414  219.3835 H   0  0  0  0  0  0  0  0  0  0  0  0
  139.1555   77.2108  219.4140 H   0  0  0  0  0  0  0  0  0  0  0  0
  140.1063   75.2975  217.5465 H   0  0  0  0  0  0  0  0  0  0  0  0
  140.6235   77.0255  217.7389 H   0  0  0  0  0  0  0  0  0  0  0  0
  141.8199   74.8108  219.4093 H   0  0  0  0  0  0  0  0  0  0  0  0
  142.4349   75.2251  217.7516 H   0  0  0  0  0  0  0  0  0  0  0  0
  143.4522   76.3137  219.9307 H   0  0  0  0  0  0  0  0  0  0  0  0
  143.2354   77.2321  218.3832 H   0  0  0  0  0  0  0  0  0  0  0  0
  142.4561   78.6083  220.2181 H   0  0  0  0  0  0  0  0  0  0  0  0
  141.0434   78.0712  219.2564 H   0  0  0  0  0  0  0  0  0  0  0  0
  142.0692   76.6911  221.7810 H   0  0  0  0  0  0  0  0  0  0  0  0
  142.1335   78.5960  223.3134 H   0  0  0  0  0  0  0  0  0  0  0  0
  140.7307   80.1909  224.6113 H   0  0  0  0  0  0  0  0  0  0  0  0
  137.3729   79.3314  222.1481 H   0  0  0  0  0  0  0  0  0  0  0  0
  138.7113   77.7222  220.8021 H   0  0  0  0  0  0  0  0  0  0  0  0
  138.5931   69.2588  222.8565 H   0  0  0  0  0  0  0  0  0  0  0  0
  138.6690   67.6349  224.7405 H   0  0  0  0  0  0  0  0  0  0  0  0
  139.3640   67.1924  227.0004 H   0  0  0  0  0  0  0  0  0  0  0  0
  141.4477   70.2051  229.2840 H   0  0  0  0  0  0  0  0  0  0  0  0
  141.3043   71.7453  227.3258 H   0  0  0  0  0  0  0  0  0  0  0  0
  1  2  2  0
  2  3  1  0
  3  4  1  0
  4  5  1  0
  5  6  2  0
  5  7  1  0
  7  8  1  0
  8  9  1  0
  9 10  1  0
 10 11  1  0
 11 12  1  0
 12 13  1  0
 13 14  1  0
 14 15  2  0
 15 16  1  0
 16 17  2  0
 17 18  1  0
 17 19  1  0
 19 20  2  0
  2 21  1  0
 21 22  2  0
 22 23  1  0
 23 24  2  0
 24 25  1  0
 25 26  2  0
 26 27  1  0
 26 28  1  0
 28 29  2  0
 29 30  1  0
 30 31  2  0
 13  7  1  0
 20 14  1  0
 31 21  1  0
 30 24  1  0
  3 32  1  0
  4 33  1  0
  4 34  1  0
  8 35  1  0
  8 36  1  0
  9 37  1  0
  9 38  1  0
 10 39  1  0
 10 40  1  0
 11 41  1  0
 11 42  1  0
 12 43  1  0
 12 44  1  0
 13 45  1  1
 15 46  1  0
 16 47  1  0
 19 48  1  0
 20 49  1  0
 22 50  1  0
 23 51  1  0
 25 52  1  0
 28 53  1  0
 29 54  1  0
M  END
>  <meeko>  (20) 
{"free_energy": -5.61, "intermolecular_energy": -8.89, "internal_energy": -1.61, "cluster_size": 5, "cluster_id": 1, "rank_in_cluster": 4}

$$$$
