
     RDKit          3D

 55 58  0  0  0  0  0  0  0  0999 V2000
  138.1690   78.2750  220.7390 C   0  0  0  0  0  0  0  0  0  0  0  0
  139.4700   77.9870  221.2630 N   0  0  0  0  0  0  0  0  0  0  0  0
  139.3690   76.8370  222.1290 C   0  0  0  0  0  0  0  0  0  0  0  0
  139.5280   75.5350  221.4120 C   0  0  0  0  0  0  0  0  0  0  0  0
  139.5420   74.3940  222.3360 N   0  0  0  0  0  0  0  0  0  0  0  0
  139.9570   73.1020  221.9500 C   0  0  0  0  0  0  0  0  0  0  0  0
  140.3430   72.8380  220.7820 O   0  0  0  0  0  0  0  0  0  0  0  0
  139.9370   72.0140  222.9520 C   0  0  0  0  0  0  0  0  0  0  0  0
  139.5070   70.7510  222.6050 C   0  0  0  0  0  0  0  0  0  0  0  0
  139.4980   69.7530  223.5550 C   0  0  0  0  0  0  0  0  0  0  0  0
  139.9090   69.9670  224.8590 C   0  0  0  0  0  0  0  0  0  0  0  0
  139.8940   68.9560  225.7960 C   0  0  0  0  0  0  0  0  0  0  0  0
  140.3170   69.2420  227.0780 C   0  0  0  0  0  0  0  0  0  0  0  0
  140.3000   68.2450  227.9930 F   0  0  0  0  0  0  0  0  0  0  0  0
  140.7540   70.5110  227.4390 C   0  0  0  0  0  0  0  0  0  0  0  0
  140.7520   71.5000  226.4620 C   0  0  0  0  0  0  0  0  0  0  0  0
  140.3360   71.2600  225.1670 C   0  0  0  0  0  0  0  0  0  0  0  0
  140.3350   72.2210  224.2190 N   0  0  0  0  0  0  0  0  0  0  0  0
  140.0610   79.1510  221.9130 C   0  0  1  0  0  0  0  0  0  0  0  0
  140.4670   78.9080  223.3080 C   0  0  0  0  0  0  0  0  0  0  0  0
  141.9260   79.0920  223.4160 C   0  0  0  0  0  0  0  0  0  0  0  0
  142.2750   80.0270  222.2830 C   0  0  0  0  0  0  0  0  0  0  0  0
  141.2440   79.6750  221.2100 C   0  0  1  0  0  0  0  0  0  0  0  0
  141.8280   78.8250  220.1610 C   0  0  0  0  0  0  0  0  0  0  0  0
  142.2000   77.5170  220.4880 C   0  0  0  0  0  0  0  0  0  0  0  0
  142.7520   76.6830  219.5290 C   0  0  0  0  0  0  0  0  0  0  0  0
  142.9600   77.0850  218.2300 C   0  0  0  0  0  0  0  0  0  0  0  0
  143.6540   76.0210  217.0350 Cl  0  0  0  0  0  0  0  0  0  0  0  0
  142.5970   78.3700  217.9020 C   0  0  0  0  0  0  0  0  0  0  0  0
  142.0410   79.2150  218.8590 C   0  0  0  0  0  0  0  0  0  0  0  0
  137.4653   78.4308  221.5700 H   0  0  0  0  0  0  0  0  0  0  0  0
  138.2152   79.1847  220.1222 H   0  0  0  0  0  0  0  0  0  0  0  0
  137.8270   77.4308  220.1222 H   0  0  0  0  0  0  0  0  0  0  0  0
  140.1531   76.9096  222.8971 H   0  0  0  0  0  0  0  0  0  0  0  0
  138.3582   76.8463  222.5627 H   0  0  0  0  0  0  0  0  0  0  0  0
  138.6905   75.4123  220.7095 H   0  0  0  0  0  0  0  0  0  0  0  0
  140.4925   75.5548  220.8834 H   0  0  0  0  0  0  0  0  0  0  0  0
  139.2350   74.5240  223.3300 H   0  0  0  0  0  0  0  0  0  0  0  0
  139.1737   70.5416  221.5778 H   0  0  0  0  0  0  0  0  0  0  0  0
  139.1515   68.7497  223.2664 H   0  0  0  0  0  0  0  0  0  0  0  0
  139.5529   67.9451  225.5281 H   0  0  0  0  0  0  0  0  0  0  0  0
  141.0904   70.7258  228.4640 H   0  0  0  0  0  0  0  0  0  0  0  0
  141.0942   72.5105  226.7301 H   0  0  0  0  0  0  0  0  0  0  0  0
  139.2442   79.8872  221.8840 H   0  0  0  0  0  0  0  0  0  0  0  0
  139.9543   79.6197  223.9718 H   0  0  0  0  0  0  0  0  0  0  0  0
  140.1961   77.8837  223.6036 H   0  0  0  0  0  0  0  0  0  0  0  0
  142.1905   79.5401  224.3852 H   0  0  0  0  0  0  0  0  0  0  0  0
  142.4729   78.1395  223.3554 H   0  0  0  0  0  0  0  0  0  0  0  0
  142.1776   81.0776  222.5942 H   0  0  0  0  0  0  0  0  0  0  0  0
  143.3132   79.9167  221.9367 H   0  0  0  0  0  0  0  0  0  0  0  0
  140.9112   80.5491  220.6310 H   0  0  0  0  0  0  0  0  0  0  0  0
  142.0533   77.1478  221.5137 H   0  0  0  0  0  0  0  0  0  0  0  0
  143.0348   75.6599  219.8176 H   0  0  0  0  0  0  0  0  0  0  0  0
  142.7471   78.7336  216.8747 H   0  0  0  0  0  0  0  0  0  0  0  0
  141.7606   80.2363  218.5617 H   0  0  0  0  0  0  0  0  0  0  0  0
  1  2  1  0
  2  3  1  0
  3  4  1  0
  4  5  1  0
  5  6  1  0
  6  7  2  0
  6  8  1  0
  8  9  2  0
  9 10  1  0
 10 11  2  0
 11 12  1  0
 12 13  2  0
 13 14  1  0
 13 15  1  0
 15 16  2  0
 16 17  1  0
 17 18  2  0
  2 19  1  0
 19 20  1  0
 20 21  1  0
 21 22  1  0
 22 23  1  0
 23 24  1  0
 24 25  2  0
 25 26  1  0
 26 27  2  0
 27 28  1  0
 27 29  1  0
 29 30  2  0
 18  8  1  0
 23 19  1  0
 30 24  1  0
 17 11  1  0
  1 31  1  0
  1 32  1  0
  1 33  1  0
  3 34  1  0
  3 35  1  0
  4 36  1  0
  4 37  1  0
  5 38  1  0
  9 39  1  0
 10 40  1  0
 12 41  1  0
 15 42  1  0
 16 43  1  0
 19 44  1  1
 20 45  1  0
 20 46  1  0
 21 47  1  0
 21 48  1  0
 22 49  1  0
 22 50  1  0
 23 51  1  6
 25 52  1  0
 26 53  1  0
 29 54  1  0
 30 55  1  0
M  END
>  <meeko>  (1) 
{"free_energy": -8.25, "intermolecular_energy": -10.04, "internal_energy": -1.51, "cluster_size": 4, "cluster_id": 1, "rank_in_cluster": 4}

$$$$

     RDKit          3D

 55 58  0  0  0  0  0  0  0  0999 V2000
  138.6090   79.4200  220.8890 C   0  0  0  0  0  0  0  0  0  0  0  0
  139.4920   78.9530  221.9160 N   0  0  0  0  0  0  0  0  0  0  0  0
  138.7130   78.2240  222.8890 C   0  0  0  0  0  0  0  0  0  0  0  0
  138.5650   76.7720  222.5680 C   0  0  0  0  0  0  0  0  0  0  0  0
  139.6030   76.3030  221.6410 N   0  0  0  0  0  0  0  0  0  0  0  0
  140.0340   74.9600  221.5920 C   0  0  0  0  0  0  0  0  0  0  0  0
  139.5580   74.0700  222.3430 O   0  0  0  0  0  0  0  0  0  0  0  0
  141.0850   74.5810  220.6240 C   0  0  0  0  0  0  0  0  0  0  0  0
  140.7800   74.4110  219.2900 C   0  0  0  0  0  0  0  0  0  0  0  0
  141.7760   74.0590  218.4050 C   0  0  0  0  0  0  0  0  0  0  0  0
  143.0880   73.8680  218.8040 C   0  0  0  0  0  0  0  0  0  0  0  0
  144.0720   73.5160  217.9050 C   0  0  0  0  0  0  0  0  0  0  0  0
  145.3580   73.3410  218.3730 C   0  0  0  0  0  0  0  0  0  0  0  0
  146.3190   72.9950  217.4850 F   0  0  0  0  0  0  0  0  0  0  0  0
  145.6780   73.5100  219.7150 C   0  0  0  0  0  0  0  0  0  0  0  0
  144.6540   73.8640  220.5860 C   0  0  0  0  0  0  0  0  0  0  0  0
  143.3530   74.0490  220.1630 C   0  0  0  0  0  0  0  0  0  0  0  0
  142.3590   74.3930  221.0100 N   0  0  0  0  0  0  0  0  0  0  0  0
  140.2720   80.0400  222.4940 C   0  0  1  0  0  0  0  0  0  0  0  0
  140.7870   79.7460  223.8430 C   0  0  0  0  0  0  0  0  0  0  0  0
  142.2610   79.7650  223.8020 C   0  0  0  0  0  0  0  0  0  0  0  0
  142.5960   80.6600  222.6340 C   0  0  0  0  0  0  0  0  0  0  0  0
  141.4300   80.4310  221.6720 C   0  0  1  0  0  0  0  0  0  0  0  0
  141.8050   79.5260  220.5750 C   0  0  0  0  0  0  0  0  0  0  0  0
  141.9040   80.0470  219.2800 C   0  0  0  0  0  0  0  0  0  0  0  0
  142.2560   79.2280  218.2200 C   0  0  0  0  0  0  0  0  0  0  0  0
  142.5210   77.8880  218.3760 C   0  0  0  0  0  0  0  0  0  0  0  0
  142.9650   76.8720  217.0280 Cl  0  0  0  0  0  0  0  0  0  0  0  0
  142.4240   77.3690  219.6450 C   0  0  0  0  0  0  0  0  0  0  0  0
  142.0710   78.1840  220.7180 C   0  0  0  0  0  0  0  0  0  0  0  0
  137.7258   79.8871  221.3493 H   0  0  0  0  0  0  0  0  0  0  0  0
  139.1315   80.1597  220.2646 H   0  0  0  0  0  0  0  0  0  0  0  0
  138.2917   78.5718  220.2646 H   0  0  0  0  0  0  0  0  0  0  0  0
  139.2054   78.3155  223.8684 H   0  0  0  0  0  0  0  0  0  0  0  0
  137.7032   78.6601  222.8871 H   0  0  0  0  0  0  0  0  0  0  0  0
  138.6349   76.1935  223.5010 H   0  0  0  0  0  0  0  0  0  0  0  0
  137.5880   76.6300  222.0828 H   0  0  0  0  0  0  0  0  0  0  0  0
  140.0550   76.9780  220.9790 H   0  0  0  0  0  0  0  0  0  0  0  0
  139.7490   74.5553  218.9348 H   0  0  0  0  0  0  0  0  0  0  0  0
  141.5195   73.9250  217.3437 H   0  0  0  0  0  0  0  0  0  0  0  0
  143.8373   73.3779  216.8392 H   0  0  0  0  0  0  0  0  0  0  0  0
  146.7074   73.3683  220.0759 H   0  0  0  0  0  0  0  0  0  0  0  0
  144.8891   74.0018  221.6517 H   0  0  0  0  0  0  0  0  0  0  0  0
  139.5445   80.8637  222.5415 H   0  0  0  0  0  0  0  0  0  0  0  0
  140.4267   80.5073  224.5506 H   0  0  0  0  0  0  0  0  0  0  0  0
  140.4343   78.7570  224.1710 H   0  0  0  0  0  0  0  0  0  0  0  0
  142.6705   80.1760  224.7365 H   0  0  0  0  0  0  0  0  0  0  0  0
  142.6890   78.7576  223.6928 H   0  0  0  0  0  0  0  0  0  0  0  0
  142.6483   81.7134  222.9466 H   0  0  0  0  0  0  0  0  0  0  0  0
  143.5752   80.4356  222.1858 H   0  0  0  0  0  0  0  0  0  0  0  0
  141.1422   81.3399  221.1232 H   0  0  0  0  0  0  0  0  0  0  0  0
  141.7010   81.1135  219.1028 H   0  0  0  0  0  0  0  0  0  0  0  0
  142.3263   79.6669  217.2138 H   0  0  0  0  0  0  0  0  0  0  0  0
  142.6268   76.3012  219.8146 H   0  0  0  0  0  0  0  0  0  0  0  0
  142.0022   77.7363  221.7204 H   0  0  0  0  0  0  0  0  0  0  0  0
  1  2  1  0
  2  3  1  0
  3  4  1  0
  4  5  1  0
  5  6  1  0
  6  7  2  0
  6  8  1  0
  8  9  2  0
  9 10  1  0
 10 11  2  0
 11 12  1  0
 12 13  2  0
 13 14  1  0
 13 15  1  0
 15 16  2  0
 16 17  1  0
 17 18  2  0
  2 19  1  0
 19 20  1  0
 20 21  1  0
 21 22  1  0
 22 23  1  0
 23 24  1  0
 24 25  2  0
 25 26  1  0
 26 27  2  0
 27 28  1  0
 27 29  1  0
 29 30  2  0
 18  8  1  0
 23 19  1  0
 30 24  1  0
 17 11  1  0
  1 31  1  0
  1 32  1  0
  1 33  1  0
  3 34  1  0
  3 35  1  0
  4 36  1  0
  4 37  1  0
  5 38  1  0
  9 39  1  0
 10 40  1  0
 12 41  1  0
 15 42  1  0
 16 43  1  0
 19 44  1  1
 20 45  1  0
 20 46  1  0
 21 47  1  0
 21 48  1  0
 22 49  1  0
 22 50  1  0
 23 51  1  6
 25 52  1  0
 26 53  1  0
 29 54  1  0
 30 55  1  0
M  END
>  <meeko>  (2) 
{"free_energy": -6.76, "intermolecular_energy": -8.55, "internal_energy": -3.19, "cluster_size": 8, "cluster_id": 3, "rank_in_cluster": 4}

$$$$

     RDKit          3D

 55 58  0  0  0  0  0  0  0  0999 V2000
  139.2690   82.1420  221.6530 C   0  0  0  0  0  0  0  0  0  0  0  0
  139.4800   80.7970  222.0990 N   0  0  0  0  0  0  0  0  0  0  0  0
  138.2650   80.3290  222.7240 C   0  0  0  0  0  0  0  0  0  0  0  0
  137.6720   79.1320  222.0530 C   0  0  0  0  0  0  0  0  0  0  0  0
  138.6940   78.1490  221.6750 N   0  0  0  0  0  0  0  0  0  0  0  0
  138.7090   76.8300  222.1780 C   0  0  0  0  0  0  0  0  0  0  0  0
  137.8460   76.4070  222.9890 O   0  0  0  0  0  0  0  0  0  0  0  0
  139.7790   75.9090  221.7380 C   0  0  0  0  0  0  0  0  0  0  0  0
  139.6650   74.5510  221.9510 C   0  0  0  0  0  0  0  0  0  0  0  0
  140.6750   73.7120  221.5310 C   0  0  0  0  0  0  0  0  0  0  0  0
  141.8120   74.1800  220.8970 C   0  0  0  0  0  0  0  0  0  0  0  0
  142.8120   73.3250  220.4840 C   0  0  0  0  0  0  0  0  0  0  0  0
  143.9180   73.8620  219.8580 C   0  0  0  0  0  0  0  0  0  0  0  0
  144.8960   73.0160  219.4550 F   0  0  0  0  0  0  0  0  0  0  0  0
  144.0440   75.2280  219.6370 C   0  0  0  0  0  0  0  0  0  0  0  0
  143.0120   76.0520  220.0710 C   0  0  0  0  0  0  0  0  0  0  0  0
  141.8870   75.5600  220.7020 C   0  0  0  0  0  0  0  0  0  0  0  0
  140.8850   76.3620  221.1230 N   0  0  0  0  0  0  0  0  0  0  0  0
  140.6520   80.6900  222.9590 C   0  0  1  0  0  0  0  0  0  0  0  0
  140.6220   79.5220  223.8560 C   0  0  0  0  0  0  0  0  0  0  0  0
  141.7600   78.6430  223.5280 C   0  0  0  0  0  0  0  0  0  0  0  0
  142.7800   79.5620  222.9010 C   0  0  0  0  0  0  0  0  0  0  0  0
  141.9200   80.6210  222.2120 C   0  0  1  0  0  0  0  0  0  0  0  0
  141.8290   80.3830  220.7630 C   0  0  0  0  0  0  0  0  0  0  0  0
  141.8140   81.4860  219.9020 C   0  0  0  0  0  0  0  0  0  0  0  0
  141.7310   81.3050  218.5320 C   0  0  0  0  0  0  0  0  0  0  0  0
  141.6590   80.0600  217.9520 C   0  0  0  0  0  0  0  0  0  0  0  0
  141.5560   79.8510  216.2240 Cl  0  0  0  0  0  0  0  0  0  0  0  0
  141.6730   78.9710  218.7920 C   0  0  0  0  0  0  0  0  0  0  0  0
  141.7560   79.1430  220.1720 C   0  0  0  0  0  0  0  0  0  0  0  0
  139.1650   82.8052  222.5244 H   0  0  0  0  0  0  0  0  0  0  0  0
  140.1273   82.4660  221.0461 H   0  0  0  0  0  0  0  0  0  0  0  0
  138.3527   82.1876  221.0461 H   0  0  0  0  0  0  0  0  0  0  0  0
  138.4893   80.0671  223.7686 H   0  0  0  0  0  0  0  0  0  0  0  0
  137.5277   81.1416  222.6467 H   0  0  0  0  0  0  0  0  0  0  0  0
  136.9592   78.6556  222.7422 H   0  0  0  0  0  0  0  0  0  0  0  0
  137.1718   79.4715  221.1340 H   0  0  0  0  0  0  0  0  0  0  0  0
  139.4520   78.4170  221.0030 H   0  0  0  0  0  0  0  0  0  0  0  0
  138.7756   74.1409  222.4518 H   0  0  0  0  0  0  0  0  0  0  0  0
  140.5731   72.6309  221.7064 H   0  0  0  0  0  0  0  0  0  0  0  0
  142.7298   72.2407  220.6497 H   0  0  0  0  0  0  0  0  0  0  0  0
  144.9305   75.6434  219.1355 H   0  0  0  0  0  0  0  0  0  0  0  0
  143.0948   77.1363  219.9055 H   0  0  0  0  0  0  0  0  0  0  0  0
  140.6082   81.6171  223.5494 H   0  0  0  0  0  0  0  0  0  0  0  0
  140.7017   79.8560  224.9010 H   0  0  0  0  0  0  0  0  0  0  0  0
  139.6767   78.9746  223.7262 H   0  0  0  0  0  0  0  0  0  0  0  0
  142.1650   78.1758  224.4377 H   0  0  0  0  0  0  0  0  0  0  0  0
  141.4723   77.8191  222.8584 H   0  0  0  0  0  0  0  0  0  0  0  0
  143.4257   80.0158  223.6673 H   0  0  0  0  0  0  0  0  0  0  0  0
  143.4608   79.0431  222.2101 H   0  0  0  0  0  0  0  0  0  0  0  0
  142.3673   81.6254  222.2456 H   0  0  0  0  0  0  0  0  0  0  0  0
  141.8685   82.5035  220.3164 H   0  0  0  0  0  0  0  0  0  0  0  0
  141.7223   82.1920  217.8816 H   0  0  0  0  0  0  0  0  0  0  0  0
  141.6182   77.9563  218.3709 H   0  0  0  0  0  0  0  0  0  0  0  0
  141.7635   78.2508  220.8153 H   0  0  0  0  0  0  0  0  0  0  0  0
  1  2  1  0
  2  3  1  0
  3  4  1  0
  4  5  1  0
  5  6  1  0
  6  7  2  0
  6  8  1  0
  8  9  2  0
  9 10  1  0
 10 11  2  0
 11 12  1  0
 12 13  2  0
 13 14  1  0
 13 15  1  0
 15 16  2  0
 16 17  1  0
 17 18  2  0
  2 19  1  0
 19 20  1  0
 20 21  1  0
 21 22  1  0
 22 23  1  0
 23 24  1  0
 24 25  2  0
 25 26  1  0
 26 27  2  0
 27 28  1  0
 27 29  1  0
 29 30  2  0
 18  8  1  0
 23 19  1  0
 30 24  1  0
 17 11  1  0
  1 31  1  0
  1 32  1  0
  1 33  1  0
  3 34  1  0
  3 35  1  0
  4 36  1  0
  4 37  1  0
  5 38  1  0
  9 39  1  0
 10 40  1  0
 12 41  1  0
 15 42  1  0
 16 43  1  0
 19 44  1  1
 20 45  1  0
 20 46  1  0
 21 47  1  0
 21 48  1  0
 22 49  1  0
 22 50  1  0
 23 51  1  6
 25 52  1  0
 26 53  1  0
 29 54  1  0
 30 55  1  0
M  END
>  <meeko>  (3) 
{"free_energy": -6.41, "intermolecular_energy": -8.2, "internal_energy": -3.23, "cluster_size": 8, "cluster_id": 3, "rank_in_cluster": 8}

$$$$

     RDKit          3D

 55 58  0  0  0  0  0  0  0  0999 V2000
  143.3260   79.9650  222.7240 C   0  0  0  0  0  0  0  0  0  0  0  0
  141.9880   79.8830  222.2220 N   0  0  0  0  0  0  0  0  0  0  0  0
  141.8520   80.8190  221.1310 C   0  0  0  0  0  0  0  0  0  0  0  0
  141.5590   80.1680  219.8180 C   0  0  0  0  0  0  0  0  0  0  0  0
  142.1750   78.8400  219.7110 N   0  0  0  0  0  0  0  0  0  0  0  0
  142.2510   78.1270  218.4960 C   0  0  0  0  0  0  0  0  0  0  0  0
  141.7910   78.5820  217.4170 O   0  0  0  0  0  0  0  0  0  0  0  0
  142.8920   76.7950  218.4860 C   0  0  0  0  0  0  0  0  0  0  0  0
  142.9800   76.0690  217.3170 C   0  0  0  0  0  0  0  0  0  0  0  0
  143.5830   74.8300  217.3310 C   0  0  0  0  0  0  0  0  0  0  0  0
  144.1120   74.2760  218.4850 C   0  0  0  0  0  0  0  0  0  0  0  0
  144.7120   73.0350  218.4800 C   0  0  0  0  0  0  0  0  0  0  0  0
  145.2160   72.5450  219.6670 C   0  0  0  0  0  0  0  0  0  0  0  0
  145.8040   71.3260  219.6550 F   0  0  0  0  0  0  0  0  0  0  0  0
  145.1340   73.2680  220.8510 C   0  0  0  0  0  0  0  0  0  0  0  0
  144.5210   74.5140  220.8090 C   0  0  0  0  0  0  0  0  0  0  0  0
  144.0000   75.0440  219.6450 C   0  0  0  0  0  0  0  0  0  0  0  0
  143.4050   76.2550  219.6050 N   0  0  0  0  0  0  0  0  0  0  0  0
  141.0000   80.0750  223.2770 C   0  0  1  0  0  0  0  0  0  0  0  0
  140.1190   81.2350  223.0590 C   0  0  0  0  0  0  0  0  0  0  0  0
  138.7300   80.7580  222.9330 C   0  0  0  0  0  0  0  0  0  0  0  0
  138.7100   79.4480  223.6810 C   0  0  0  0  0  0  0  0  0  0  0  0
  140.1250   78.9080  223.4790 C   0  0  1  0  0  0  0  0  0  0  0  0
  140.1610   77.8610  222.4450 C   0  0  0  0  0  0  0  0  0  0  0  0
  141.0020   76.7590  222.6350 C   0  0  0  0  0  0  0  0  0  0  0  0
  141.0630   75.7520  221.6860 C   0  0  0  0  0  0  0  0  0  0  0  0
  140.3190   75.7760  220.5310 C   0  0  0  0  0  0  0  0  0  0  0  0
  140.4080   74.4970  219.3480 Cl  0  0  0  0  0  0  0  0  0  0  0  0
  139.4900   76.8560  220.3370 C   0  0  0  0  0  0  0  0  0  0  0  0
  139.4210   77.8750  221.2850 C   0  0  0  0  0  0  0  0  0  0  0  0
  143.3057   79.9638  223.8238 H   0  0  0  0  0  0  0  0  0  0  0  0
  143.9052   79.1007  222.3670 H   0  0  0  0  0  0  0  0  0  0  0  0
  143.7953   80.8936  222.3670 H   0  0  0  0  0  0  0  0  0  0  0  0
  141.0305   81.5114  221.3670 H   0  0  0  0  0  0  0  0  0  0  0  0
  142.8174   81.3359  221.0268 H   0  0  0  0  0  0  0  0  0  0  0  0
  140.4694   80.0635  219.7091 H   0  0  0  0  0  0  0  0  0  0  0  0
  141.9802   80.8020  219.0239 H   0  0  0  0  0  0  0  0  0  0  0  0
  142.5840   78.3850  220.5620 H   0  0  0  0  0  0  0  0  0  0  0  0
  142.5718   76.4759  216.3801 H   0  0  0  0  0  0  0  0  0  0  0  0
  143.6465   74.2605  216.3920 H   0  0  0  0  0  0  0  0  0  0  0  0
  144.7871   72.4495  217.5518 H   0  0  0  0  0  0  0  0  0  0  0  0
  145.5412   72.8668  221.7908 H   0  0  0  0  0  0  0  0  0  0  0  0
  144.4479   75.1000  221.7371 H   0  0  0  0  0  0  0  0  0  0  0  0
  141.6242   80.2406  224.1675 H   0  0  0  0  0  0  0  0  0  0  0  0
  140.1973   81.9246  223.9124 H   0  0  0  0  0  0  0  0  0  0  0  0
  140.4175   81.7646  222.1422 H   0  0  0  0  0  0  0  0  0  0  0  0
  138.0301   81.4752  223.3866 H   0  0  0  0  0  0  0  0  0  0  0  0
  138.4207   80.6447  221.8835 H   0  0  0  0  0  0  0  0  0  0  0  0
  138.4972   79.6067  224.7485 H   0  0  0  0  0  0  0  0  0  0  0  0
  137.9306   78.7592  223.3232 H   0  0  0  0  0  0  0  0  0  0  0  0
  140.5069   78.3680  224.3579 H   0  0  0  0  0  0  0  0  0  0  0  0
  141.6185   76.6920  223.5436 H   0  0  0  0  0  0  0  0  0  0  0  0
  141.7340   74.8987  221.8641 H   0  0  0  0  0  0  0  0  0  0  0  0
  138.8764   76.9160  219.4260 H   0  0  0  0  0  0  0  0  0  0  0  0
  138.7479   78.7248  221.0985 H   0  0  0  0  0  0  0  0  0  0  0  0
  1  2  1  0
  2  3  1  0
  3  4  1  0
  4  5  1  0
  5  6  1  0
  6  7  2  0
  6  8  1  0
  8  9  2  0
  9 10  1  0
 10 11  2  0
 11 12  1  0
 12 13  2  0
 13 14  1  0
 13 15  1  0
 15 16  2  0
 16 17  1  0
 17 18  2  0
  2 19  1  0
 19 20  1  0
 20 21  1  0
 21 22  1  0
 22 23  1  0
 23 24  1  0
 24 25  2  0
 25 26  1  0
 26 27  2  0
 27 28  1  0
 27 29  1  0
 29 30  2  0
 18  8  1  0
 23 19  1  0
 30 24  1  0
 17 11  1  0
  1 31  1  0
  1 32  1  0
  1 33  1  0
  3 34  1  0
  3 35  1  0
  4 36  1  0
  4 37  1  0
  5 38  1  0
  9 39  1  0
 10 40  1  0
 12 41  1  0
 15 42  1  0
 16 43  1  0
 19 44  1  1
 20 45  1  0
 20 46  1  0
 21 47  1  0
 21 48  1  0
 22 49  1  0
 22 50  1  0
 23 51  1  1
 25 52  1  0
 26 53  1  0
 29 54  1  0
 30 55  1  0
M  END
>  <meeko>  (4) 
{"free_energy": -6.5, "intermolecular_energy": -8.29, "internal_energy": -3.86, "cluster_size": 7, "cluster_id": 4, "rank_in_cluster": 4}

$$$$

     RDKit          3D

 55 58  0  0  0  0  0  0  0  0999 V2000
  138.3030   77.3540  221.0180 C   0  0  0  0  0  0  0  0  0  0  0  0
  139.7240   77.4070  221.1940 N   0  0  0  0  0  0  0  0  0  0  0  0
  140.1330   76.2500  221.9550 C   0  0  0  0  0  0  0  0  0  0  0  0
  139.7030   74.9540  221.3460 C   0  0  0  0  0  0  0  0  0  0  0  0
  139.5800   73.8870  222.3470 N   0  0  0  0  0  0  0  0  0  0  0  0
  140.4480   72.7760  222.3910 C   0  0  0  0  0  0  0  0  0  0  0  0
  141.3890   72.6210  221.5710 O   0  0  0  0  0  0  0  0  0  0  0  0
  140.2460   71.7510  223.4380 C   0  0  0  0  0  0  0  0  0  0  0  0
  139.5840   70.5770  223.1500 C   0  0  0  0  0  0  0  0  0  0  0  0
  139.4080   69.6360  224.1410 C   0  0  0  0  0  0  0  0  0  0  0  0
  139.8760   69.8220  225.4300 C   0  0  0  0  0  0  0  0  0  0  0  0
  139.6920   68.8690  226.4100 C   0  0  0  0  0  0  0  0  0  0  0  0
  140.1840   69.1220  227.6730 C   0  0  0  0  0  0  0  0  0  0  0  0
  139.9990   68.1820  228.6300 F   0  0  0  0  0  0  0  0  0  0  0  0
  140.8540   70.3010  227.9750 C   0  0  0  0  0  0  0  0  0  0  0  0
  141.0170   71.2340  226.9580 C   0  0  0  0  0  0  0  0  0  0  0  0
  140.5400   71.0240  225.6790 C   0  0  0  0  0  0  0  0  0  0  0  0
  140.6990   71.9300  224.6910 N   0  0  0  0  0  0  0  0  0  0  0  0
  140.1490   78.6700  221.7870 C   0  0  1  0  0  0  0  0  0  0  0  0
  140.7420   78.5230  223.1270 C   0  0  0  0  0  0  0  0  0  0  0  0
  142.1420   78.9840  223.0790 C   0  0  0  0  0  0  0  0  0  0  0  0
  142.1810   79.9550  221.9240 C   0  0  0  0  0  0  0  0  0  0  0  0
  141.1270   79.4020  220.9650 C   0  0  1  0  0  0  0  0  0  0  0  0
  141.7450   78.6660  219.8510 C   0  0  0  0  0  0  0  0  0  0  0  0
  142.4070   77.4640  220.1260 C   0  0  0  0  0  0  0  0  0  0  0  0
  143.0010   76.7410  219.1040 C   0  0  0  0  0  0  0  0  0  0  0  0
  142.9740   77.1530  217.7930 C   0  0  0  0  0  0  0  0  0  0  0  0
  143.7260   76.2280  216.5200 Cl  0  0  0  0  0  0  0  0  0  0  0  0
  142.3260   78.3340  217.5160 C   0  0  0  0  0  0  0  0  0  0  0  0
  141.7260   79.0680  218.5360 C   0  0  0  0  0  0  0  0  0  0  0  0
  137.8121   77.3357  222.0022 H   0  0  0  0  0  0  0  0  0  0  0  0
  137.9695   78.2403  220.4583 H   0  0  0  0  0  0  0  0  0  0  0  0
  138.0365   76.4453  220.4583 H   0  0  0  0  0  0  0  0  0  0  0  0
  141.2304   76.2525  222.0299 H   0  0  0  0  0  0  0  0  0  0  0  0
  139.6478   76.3219  222.9396 H   0  0  0  0  0  0  0  0  0  0  0  0
  138.7272   75.0975  220.8589 H   0  0  0  0  0  0  0  0  0  0  0  0
  140.4710   74.6499  220.6195 H   0  0  0  0  0  0  0  0  0  0  0  0
  138.8220   73.9350  223.0700 H   0  0  0  0  0  0  0  0  0  0  0  0
  139.1989   70.3925  222.1363 H   0  0  0  0  0  0  0  0  0  0  0  0
  138.8766   68.7038  223.8990 H   0  0  0  0  0  0  0  0  0  0  0  0
  139.1650   67.9290  226.1891 H   0  0  0  0  0  0  0  0  0  0  0  0
  141.2429   70.4899  228.9865 H   0  0  0  0  0  0  0  0  0  0  0  0
  141.5448   72.1733  227.1796 H   0  0  0  0  0  0  0  0  0  0  0  0
  139.2092   79.2378  221.8536 H   0  0  0  0  0  0  0  0  0  0  0  0
  140.1773   79.1299  223.8500 H   0  0  0  0  0  0  0  0  0  0  0  0
  140.7056   77.4687  223.4388 H   0  0  0  0  0  0  0  0  0  0  0  0
  142.4186   79.4856  224.0181 H   0  0  0  0  0  0  0  0  0  0  0  0
  142.8517   78.1533  222.9511 H   0  0  0  0  0  0  0  0  0  0  0  0
  141.9191   80.9711  222.2542 H   0  0  0  0  0  0  0  0  0  0  0  0
  143.1776   80.0401  221.4662 H   0  0  0  0  0  0  0  0  0  0  0  0
  140.5744   80.1906  220.4333 H   0  0  0  0  0  0  0  0  0  0  0  0
  142.4561   77.0910  221.1597 H   0  0  0  0  0  0  0  0  0  0  0  0
  143.5144   75.8002  219.3517 H   0  0  0  0  0  0  0  0  0  0  0  0
  142.2813   78.7018  216.4803 H   0  0  0  0  0  0  0  0  0  0  0  0
  141.2158   80.0081  218.2793 H   0  0  0  0  0  0  0  0  0  0  0  0
  1  2  1  0
  2  3  1  0
  3  4  1  0
  4  5  1  0
  5  6  1  0
  6  7  2  0
  6  8  1  0
  8  9  2  0
  9 10  1  0
 10 11  2  0
 11 12  1  0
 12 13  2  0
 13 14  1  0
 13 15  1  0
 15 16  2  0
 16 17  1  0
 17 18  2  0
  2 19  1  0
 19 20  1  0
 20 21  1  0
 21 22  1  0
 22 23  1  0
 23 24  1  0
 24 25  2  0
 25 26  1  0
 26 27  2  0
 27 28  1  0
 27 29  1  0
 29 30  2  0
 18  8  1  0
 23 19  1  0
 30 24  1  0
 17 11  1  0
  1 31  1  0
  1 32  1  0
  1 33  1  0
  3 34  1  0
  3 35  1  0
  4 36  1  0
  4 37  1  0
  5 38  1  0
  9 39  1  0
 10 40  1  0
 12 41  1  0
 15 42  1  0
 16 43  1  0
 19 44  1  1
 20 45  1  0
 20 46  1  0
 21 47  1  0
 21 48  1  0
 22 49  1  0
 22 50  1  0
 23 51  1  6
 25 52  1  0
 26 53  1  0
 29 54  1  0
 30 55  1  0
M  END
>  <meeko>  (5) 
{"free_energy": -8.62, "intermolecular_energy": -10.41, "internal_energy": -1.3, "cluster_size": 4, "cluster_id": 1, "rank_in_cluster": 1}

$$$$

     RDKit          3D

 55 58  0  0  0  0  0  0  0  0999 V2000
  138.5740   79.6630  220.7960 C   0  0  0  0  0  0  0  0  0  0  0  0
  139.3860   79.0560  221.8070 N   0  0  0  0  0  0  0  0  0  0  0  0
  138.5220   78.3380  222.7140 C   0  0  0  0  0  0  0  0  0  0  0  0
  138.1550   76.9710  222.2320 C   0  0  0  0  0  0  0  0  0  0  0  0
  139.3380   76.1670  221.8990 N   0  0  0  0  0  0  0  0  0  0  0  0
  139.3080   74.7580  221.8240 C   0  0  0  0  0  0  0  0  0  0  0  0
  138.2630   74.0920  222.0390 O   0  0  0  0  0  0  0  0  0  0  0  0
  140.5510   74.0340  221.4810 C   0  0  0  0  0  0  0  0  0  0  0  0
  140.5900   72.6560  221.5150 C   0  0  0  0  0  0  0  0  0  0  0  0
  141.7590   72.0020  221.1900 C   0  0  0  0  0  0  0  0  0  0  0  0
  142.9100   72.6790  220.8250 C   0  0  0  0  0  0  0  0  0  0  0  0
  144.0700   72.0080  220.5030 C   0  0  0  0  0  0  0  0  0  0  0  0
  145.1800   72.7470  220.1480 C   0  0  0  0  0  0  0  0  0  0  0  0
  146.3150   72.0820  219.8330 F   0  0  0  0  0  0  0  0  0  0  0  0
  145.1520   74.1360  220.1080 C   0  0  0  0  0  0  0  0  0  0  0  0
  143.9610   74.7700  220.4410 C   0  0  0  0  0  0  0  0  0  0  0  0
  142.8260   74.0720  220.8030 C   0  0  0  0  0  0  0  0  0  0  0  0
  141.6700   74.6890  221.1260 N   0  0  0  0  0  0  0  0  0  0  0  0
  140.2410   80.0320  222.4720 C   0  0  1  0  0  0  0  0  0  0  0  0
  140.6700   79.6210  223.8200 C   0  0  0  0  0  0  0  0  0  0  0  0
  142.1390   79.4990  223.8340 C   0  0  0  0  0  0  0  0  0  0  0  0
  142.6060   80.4150  222.7290 C   0  0  0  0  0  0  0  0  0  0  0  0
  141.4640   80.3500  221.7150 C   0  0  1  0  0  0  0  0  0  0  0  0
  141.7960   79.4690  220.5840 C   0  0  0  0  0  0  0  0  0  0  0  0
  142.0720   80.0490  219.3410 C   0  0  0  0  0  0  0  0  0  0  0  0
  142.3900   79.2550  218.2520 C   0  0  0  0  0  0  0  0  0  0  0  0
  142.4520   77.8840  218.3280 C   0  0  0  0  0  0  0  0  0  0  0  0
  142.8570   76.9000  216.9450 Cl  0  0  0  0  0  0  0  0  0  0  0  0
  142.1820   77.3070  219.5460 C   0  0  0  0  0  0  0  0  0  0  0  0
  141.8600   78.0970  220.6480 C   0  0  0  0  0  0  0  0  0  0  0  0
  137.7795   80.2569  221.2714 H   0  0  0  0  0  0  0  0  0  0  0  0
  139.1971   80.3186  220.1699 H   0  0  0  0  0  0  0  0  0  0  0  0
  138.1216   78.8799  220.1699 H   0  0  0  0  0  0  0  0  0  0  0  0
  139.0371   78.2396  223.6809 H   0  0  0  0  0  0  0  0  0  0  0  0
  137.5883   78.9138  222.7953 H   0  0  0  0  0  0  0  0  0  0  0  0
  137.5874   76.4569  223.0217 H   0  0  0  0  0  0  0  0  0  0  0  0
  137.5538   77.0841  221.3178 H   0  0  0  0  0  0  0  0  0  0  0  0
  140.2520   76.6410  221.7050 H   0  0  0  0  0  0  0  0  0  0  0  0
  139.6950   72.0831  221.7993 H   0  0  0  0  0  0  0  0  0  0  0  0
  141.7780   70.9026  221.2218 H   0  0  0  0  0  0  0  0  0  0  0  0
  144.1101   70.9090  220.5284 H   0  0  0  0  0  0  0  0  0  0  0  0
  146.0430   74.7143  219.8222 H   0  0  0  0  0  0  0  0  0  0  0  0
  143.9210   75.8690  220.4152 H   0  0  0  0  0  0  0  0  0  0  0  0
  139.5934   80.9186  222.5385 H   0  0  0  0  0  0  0  0  0  0  0  0
  140.3547   80.3764  224.5548 H   0  0  0  0  0  0  0  0  0  0  0  0
  140.2121   78.6552  224.0799 H   0  0  0  0  0  0  0  0  0  0  0  0
  142.5465   79.8208  224.8038 H   0  0  0  0  0  0  0  0  0  0  0  0
  142.4735   78.4616  223.6861 H   0  0  0  0  0  0  0  0  0  0  0  0
  142.7461   81.4410  223.1000 H   0  0  0  0  0  0  0  0  0  0  0  0
  143.5768   80.1190  222.3048 H   0  0  0  0  0  0  0  0  0  0  0  0
  141.2870   81.3095  221.2071 H   0  0  0  0  0  0  0  0  0  0  0  0
  142.0362   81.1426  219.2281 H   0  0  0  0  0  0  0  0  0  0  0  0
  142.6014   79.7407  217.2879 H   0  0  0  0  0  0  0  0  0  0  0  0
  142.2204   76.2128  219.6518 H   0  0  0  0  0  0  0  0  0  0  0  0
  141.6485   77.6030  221.6078 H   0  0  0  0  0  0  0  0  0  0  0  0
  1  2  1  0
  2  3  1  0
  3  4  1  0
  4  5  1  0
  5  6  1  0
  6  7  2  0
  6  8  1  0
  8  9  2  0
  9 10  1  0
 10 11  2  0
 11 12  1  0
 12 13  2  0
 13 14  1  0
 13 15  1  0
 15 16  2  0
 16 17  1  0
 17 18  2  0
  2 19  1  0
 19 20  1  0
 20 21  1  0
 21 22  1  0
 22 23  1  0
 23 24  1  0
 24 25  2  0
 25 26  1  0
 26 27  2  0
 27 28  1  0
 27 29  1  0
 29 30  2  0
 18  8  1  0
 23 19  1  0
 30 24  1  0
 17 11  1  0
  1 31  1  0
  1 32  1  0
  1 33  1  0
  3 34  1  0
  3 35  1  0
  4 36  1  0
  4 37  1  0
  5 38  1  0
  9 39  1  0
 10 40  1  0
 12 41  1  0
 15 42  1  0
 16 43  1  0
 19 44  1  1
 20 45  1  0
 20 46  1  0
 21 47  1  0
 21 48  1  0
 22 49  1  0
 22 50  1  0
 23 51  1  6
 25 52  1  0
 26 53  1  0
 29 54  1  0
 30 55  1  0
M  END
>  <meeko>  (6) 
{"free_energy": -7.08, "intermolecular_energy": -8.87, "internal_energy": -2.78, "cluster_size": 8, "cluster_id": 3, "rank_in_cluster": 1}

$$$$

     RDKit          3D

 55 58  0  0  0  0  0  0  0  0999 V2000
  138.6890   79.6710  220.5900 C   0  0  0  0  0  0  0  0  0  0  0  0
  139.3610   79.0120  221.6700 N   0  0  0  0  0  0  0  0  0  0  0  0
  138.3730   78.3330  222.4760 C   0  0  0  0  0  0  0  0  0  0  0  0
  138.6040   76.8600  222.5860 C   0  0  0  0  0  0  0  0  0  0  0  0
  139.6360   76.3920  221.6530 N   0  0  0  0  0  0  0  0  0  0  0  0
  140.0600   75.0470  221.5940 C   0  0  0  0  0  0  0  0  0  0  0  0
  139.5830   74.1550  222.3420 O   0  0  0  0  0  0  0  0  0  0  0  0
  141.1060   74.6690  220.6200 C   0  0  0  0  0  0  0  0  0  0  0  0
  140.8070   74.5610  219.2780 C   0  0  0  0  0  0  0  0  0  0  0  0
  141.7980   74.2090  218.3870 C   0  0  0  0  0  0  0  0  0  0  0  0
  143.0980   73.9560  218.7880 C   0  0  0  0  0  0  0  0  0  0  0  0
  144.0770   73.6050  217.8830 C   0  0  0  0  0  0  0  0  0  0  0  0
  145.3520   73.3670  218.3540 C   0  0  0  0  0  0  0  0  0  0  0  0
  146.3080   73.0220  217.4600 F   0  0  0  0  0  0  0  0  0  0  0  0
  145.6660   73.4730  219.7030 C   0  0  0  0  0  0  0  0  0  0  0  0
  144.6480   73.8290  220.5800 C   0  0  0  0  0  0  0  0  0  0  0  0
  143.3580   74.0760  220.1550 C   0  0  0  0  0  0  0  0  0  0  0  0
  142.3690   74.4220  221.0070 N   0  0  0  0  0  0  0  0  0  0  0  0
  140.1950   79.9340  222.4310 C   0  0  1  0  0  0  0  0  0  0  0  0
  140.5570   79.4370  223.7700 C   0  0  0  0  0  0  0  0  0  0  0  0
  142.0220   79.2950  223.8430 C   0  0  0  0  0  0  0  0  0  0  0  0
  142.5490   80.2690  222.8180 C   0  0  0  0  0  0  0  0  0  0  0  0
  141.4540   80.2810  221.7510 C   0  0  1  0  0  0  0  0  0  0  0  0
  141.8290   79.4650  220.5860 C   0  0  0  0  0  0  0  0  0  0  0  0
  141.8750   80.0760  219.3270 C   0  0  0  0  0  0  0  0  0  0  0  0
  142.2250   79.3430  218.2050 C   0  0  0  0  0  0  0  0  0  0  0  0
  142.5390   78.0060  218.2620 C   0  0  0  0  0  0  0  0  0  0  0  0
  142.9790   77.1000  216.8370 Cl  0  0  0  0  0  0  0  0  0  0  0  0
  142.4960   77.3990  219.4950 C   0  0  0  0  0  0  0  0  0  0  0  0
  142.1450   78.1270  220.6290 C   0  0  0  0  0  0  0  0  0  0  0  0
  137.9588   80.3871  220.9949 H   0  0  0  0  0  0  0  0  0  0  0  0
  139.4250   80.2072  219.9729 H   0  0  0  0  0  0  0  0  0  0  0  0
  138.1673   78.9247  219.9729 H   0  0  0  0  0  0  0  0  0  0  0  0
  138.3920   78.7650  223.4874 H   0  0  0  0  0  0  0  0  0  0  0  0
  137.4004   78.4722  221.9814 H   0  0  0  0  0  0  0  0  0  0  0  0
  138.9219   76.6265  223.6128 H   0  0  0  0  0  0  0  0  0  0  0  0
  137.6627   76.3496  222.3339 H   0  0  0  0  0  0  0  0  0  0  0  0
  140.0880   77.0690  220.9930 H   0  0  0  0  0  0  0  0  0  0  0  0
  139.7846   74.7544  218.9211 H   0  0  0  0  0  0  0  0  0  0  0  0
  141.5465   74.1263  217.3193 H   0  0  0  0  0  0  0  0  0  0  0  0
  143.8472   73.5168  216.8109 H   0  0  0  0  0  0  0  0  0  0  0  0
  146.6868   73.2815  220.0654 H   0  0  0  0  0  0  0  0  0  0  0  0
  144.8787   73.9171  221.6519 H   0  0  0  0  0  0  0  0  0  0  0  0
  139.5545   80.8236  222.5220 H   0  0  0  0  0  0  0  0  0  0  0  0
  140.2161   80.1510  224.5342 H   0  0  0  0  0  0  0  0  0  0  0  0
  140.0774   78.4635  223.9500 H   0  0  0  0  0  0  0  0  0  0  0  0
  142.3878   79.5526  224.8479 H   0  0  0  0  0  0  0  0  0  0  0  0
  142.3520   78.2640  223.6478 H   0  0  0  0  0  0  0  0  0  0  0  0
  142.6832   81.2688  223.2566 H   0  0  0  0  0  0  0  0  0  0  0  0
  143.5348   79.9855  222.4208 H   0  0  0  0  0  0  0  0  0  0  0  0
  141.3100   81.2715  221.2948 H   0  0  0  0  0  0  0  0  0  0  0  0
  141.6318   81.1442  219.2284 H   0  0  0  0  0  0  0  0  0  0  0  0
  142.2528   79.8510  217.2297 H   0  0  0  0  0  0  0  0  0  0  0  0
  142.7407   76.3305  219.5863 H   0  0  0  0  0  0  0  0  0  0  0  0
  142.1194   77.6104  221.5998 H   0  0  0  0  0  0  0  0  0  0  0  0
  1  2  1  0
  2  3  1  0
  3  4  1  0
  4  5  1  0
  5  6  1  0
  6  7  2  0
  6  8  1  0
  8  9  2  0
  9 10  1  0
 10 11  2  0
 11 12  1  0
 12 13  2  0
 13 14  1  0
 13 15  1  0
 15 16  2  0
 16 17  1  0
 17 18  2  0
  2 19  1  0
 19 20  1  0
 20 21  1  0
 21 22  1  0
 22 23  1  0
 23 24  1  0
 24 25  2  0
 25 26  1  0
 26 27  2  0
 27 28  1  0
 27 29  1  0
 29 30  2  0
 18  8  1  0
 23 19  1  0
 30 24  1  0
 17 11  1  0
  1 31  1  0
  1 32  1  0
  1 33  1  0
  3 34  1  0
  3 35  1  0
  4 36  1  0
  4 37  1  0
  5 38  1  0
  9 39  1  0
 10 40  1  0
 12 41  1  0
 15 42  1  0
 16 43  1  0
 19 44  1  1
 20 45  1  0
 20 46  1  0
 21 47  1  0
 21 48  1  0
 22 49  1  0
 22 50  1  0
 23 51  1  6
 25 52  1  0
 26 53  1  0
 29 54  1  0
 30 55  1  0
M  END
>  <meeko>  (7) 
{"free_energy": -6.77, "intermolecular_energy": -8.56, "internal_energy": -3.35, "cluster_size": 8, "cluster_id": 3, "rank_in_cluster": 3}

$$$$

     RDKit          3D

 55 58  0  0  0  0  0  0  0  0999 V2000
  143.3190   80.0040  222.8650 C   0  0  0  0  0  0  0  0  0  0  0  0
  142.0080   79.8940  222.3000 N   0  0  0  0  0  0  0  0  0  0  0  0
  141.9340   80.7630  221.1490 C   0  0  0  0  0  0  0  0  0  0  0  0
  141.5430   80.0540  219.8910 C   0  0  0  0  0  0  0  0  0  0  0  0
  142.1760   78.7340  219.7820 N   0  0  0  0  0  0  0  0  0  0  0  0
  142.2360   78.0130  218.5710 C   0  0  0  0  0  0  0  0  0  0  0  0
  141.7470   78.4520  217.4990 O   0  0  0  0  0  0  0  0  0  0  0  0
  142.8950   76.6890  218.5590 C   0  0  0  0  0  0  0  0  0  0  0  0
  142.9380   75.9390  217.4020 C   0  0  0  0  0  0  0  0  0  0  0  0
  143.5590   74.7090  217.4140 C   0  0  0  0  0  0  0  0  0  0  0  0
  144.1510   74.1880  218.5510 C   0  0  0  0  0  0  0  0  0  0  0  0
  144.7680   72.9560  218.5450 C   0  0  0  0  0  0  0  0  0  0  0  0
  145.3370   72.4990  219.7160 C   0  0  0  0  0  0  0  0  0  0  0  0
  145.9410   71.2880  219.7010 F   0  0  0  0  0  0  0  0  0  0  0  0
  145.3010   73.2460  220.8870 C   0  0  0  0  0  0  0  0  0  0  0  0
  144.6680   74.4830  220.8480 C   0  0  0  0  0  0  0  0  0  0  0  0
  144.0840   74.9800  219.6990 C   0  0  0  0  0  0  0  0  0  0  0  0
  143.4700   76.1810  219.6630 N   0  0  0  0  0  0  0  0  0  0  0  0
  140.9690   80.1540  223.2890 C   0  0  1  0  0  0  0  0  0  0  0  0
  140.1290   81.3220  222.9720 C   0  0  0  0  0  0  0  0  0  0  0  0
  138.7370   80.8690  222.7890 C   0  0  0  0  0  0  0  0  0  0  0  0
  138.6450   79.5940  223.5910 C   0  0  0  0  0  0  0  0  0  0  0  0
  140.0570   79.0160  223.4920 C   0  0  1  0  0  0  0  0  0  0  0  0
  140.1240   77.9240  222.5080 C   0  0  0  0  0  0  0  0  0  0  0  0
  141.0190   76.8720  222.7340 C   0  0  0  0  0  0  0  0  0  0  0  0
  141.1120   75.8240  221.8330 C   0  0  0  0  0  0  0  0  0  0  0  0
  140.3480   75.7600  220.6910 C   0  0  0  0  0  0  0  0  0  0  0  0
  140.4780   74.4310  219.5680 Cl  0  0  0  0  0  0  0  0  0  0  0  0
  139.4670   76.7900  220.4620 C   0  0  0  0  0  0  0  0  0  0  0  0
  139.3660   77.8480  221.3630 C   0  0  0  0  0  0  0  0  0  0  0  0
  143.2469   79.9979  223.9626 H   0  0  0  0  0  0  0  0  0  0  0  0
  143.9337   79.1543  222.5332 H   0  0  0  0  0  0  0  0  0  0  0  0
  143.7835   80.9443  222.5332 H   0  0  0  0  0  0  0  0  0  0  0  0
  141.1903   81.5476  221.3522 H   0  0  0  0  0  0  0  0  0  0  0  0
  142.9413   81.1749  220.9889 H   0  0  0  0  0  0  0  0  0  0  0  0
  140.4506   79.9255  219.8811 H   0  0  0  0  0  0  0  0  0  0  0  0
  141.8807   80.6632  219.0396 H   0  0  0  0  0  0  0  0  0  0  0  0
  142.6090   78.2920  220.6280 H   0  0  0  0  0  0  0  0  0  0  0  0
  142.4802   76.3199  216.4771 H   0  0  0  0  0  0  0  0  0  0  0  0
  143.5851   74.1196  216.4856 H   0  0  0  0  0  0  0  0  0  0  0  0
  144.8061   72.3505  217.6274 H   0  0  0  0  0  0  0  0  0  0  0  0
  145.7583   72.8709  221.8144 H   0  0  0  0  0  0  0  0  0  0  0  0
  144.6308   75.0883  221.7657 H   0  0  0  0  0  0  0  0  0  0  0  0
  141.5470   80.3460  224.2050 H   0  0  0  0  0  0  0  0  0  0  0  0
  140.1766   82.0470  223.7979 H   0  0  0  0  0  0  0  0  0  0  0  0
  140.4900   81.8040  222.0514 H   0  0  0  0  0  0  0  0  0  0  0  0
  138.0303   81.6204  223.1712 H   0  0  0  0  0  0  0  0  0  0  0  0
  138.4833   80.7156  221.7297 H   0  0  0  0  0  0  0  0  0  0  0  0
  138.3774   79.8045  224.6370 H   0  0  0  0  0  0  0  0  0  0  0  0
  137.8706   78.9063  223.2204 H   0  0  0  0  0  0  0  0  0  0  0  0
  140.3782   78.5082  224.4134 H   0  0  0  0  0  0  0  0  0  0  0  0
  141.6528   76.8774  223.6331 H   0  0  0  0  0  0  0  0  0  0  0  0
  141.8244   75.0115  222.0387 H   0  0  0  0  0  0  0  0  0  0  0  0
  138.8368   76.7789  219.5605 H   0  0  0  0  0  0  0  0  0  0  0  0
  138.6505   78.6558  221.1497 H   0  0  0  0  0  0  0  0  0  0  0  0
  1  2  1  0
  2  3  1  0
  3  4  1  0
  4  5  1  0
  5  6  1  0
  6  7  2  0
  6  8  1  0
  8  9  2  0
  9 10  1  0
 10 11  2  0
 11 12  1  0
 12 13  2  0
 13 14  1  0
 13 15  1  0
 15 16  2  0
 16 17  1  0
 17 18  2  0
  2 19  1  0
 19 20  1  0
 20 21  1  0
 21 22  1  0
 22 23  1  0
 23 24  1  0
 24 25  2  0
 25 26  1  0
 26 27  2  0
 27 28  1  0
 27 29  1  0
 29 30  2  0
 18  8  1  0
 23 19  1  0
 30 24  1  0
 17 11  1  0
  1 31  1  0
  1 32  1  0
  1 33  1  0
  3 34  1  0
  3 35  1  0
  4 36  1  0
  4 37  1  0
  5 38  1  0
  9 39  1  0
 10 40  1  0
 12 41  1  0
 15 42  1  0
 16 43  1  0
 19 44  1  1
 20 45  1  0
 20 46  1  0
 21 47  1  0
 21 48  1  0
 22 49  1  0
 22 50  1  0
 23 51  1  1
 25 52  1  0
 26 53  1  0
 29 54  1  0
 30 55  1  0
M  END
>  <meeko>  (8) 
{"free_energy": -6.64, "intermolecular_energy": -8.43, "internal_energy": -3.71, "cluster_size": 7, "cluster_id": 4, "rank_in_cluster": 1}

$$$$

     RDKit          3D

 55 58  0  0  0  0  0  0  0  0999 V2000
  138.7010   79.4890  220.7040 C   0  0  0  0  0  0  0  0  0  0  0  0
  139.4240   78.9120  221.7970 N   0  0  0  0  0  0  0  0  0  0  0  0
  138.4820   78.2440  222.6640 C   0  0  0  0  0  0  0  0  0  0  0  0
  138.5840   76.7530  222.6180 C   0  0  0  0  0  0  0  0  0  0  0  0
  139.6210   76.2990  221.6840 N   0  0  0  0  0  0  0  0  0  0  0  0
  140.0560   74.9580  221.6170 C   0  0  0  0  0  0  0  0  0  0  0  0
  139.5860   74.0580  222.3590 O   0  0  0  0  0  0  0  0  0  0  0  0
  141.1060   74.5950  220.6420 C   0  0  0  0  0  0  0  0  0  0  0  0
  140.8090   74.4930  219.2990 C   0  0  0  0  0  0  0  0  0  0  0  0
  141.8040   74.1540  218.4070 C   0  0  0  0  0  0  0  0  0  0  0  0
  143.1060   73.9100  218.8080 C   0  0  0  0  0  0  0  0  0  0  0  0
  144.0890   73.5720  217.9020 C   0  0  0  0  0  0  0  0  0  0  0  0
  145.3650   73.3420  218.3730 C   0  0  0  0  0  0  0  0  0  0  0  0
  146.3250   73.0110  217.4770 F   0  0  0  0  0  0  0  0  0  0  0  0
  145.6770   73.4430  219.7230 C   0  0  0  0  0  0  0  0  0  0  0  0
  144.6550   73.7850  220.6010 C   0  0  0  0  0  0  0  0  0  0  0  0
  143.3630   74.0240  220.1750 C   0  0  0  0  0  0  0  0  0  0  0  0
  142.3710   74.3560  221.0290 N   0  0  0  0  0  0  0  0  0  0  0  0
  140.2440   79.9010  222.4860 C   0  0  1  0  0  0  0  0  0  0  0  0
  140.6800   79.4770  223.8280 C   0  0  0  0  0  0  0  0  0  0  0  0
  142.1520   79.4030  223.8460 C   0  0  0  0  0  0  0  0  0  0  0  0
  142.5940   80.3550  222.7620 C   0  0  0  0  0  0  0  0  0  0  0  0
  141.4590   80.2740  221.7410 C   0  0  1  0  0  0  0  0  0  0  0  0
  141.8250   79.4270  220.5950 C   0  0  0  0  0  0  0  0  0  0  0  0
  141.8440   79.9990  219.3180 C   0  0  0  0  0  0  0  0  0  0  0  0
  142.1850   79.2370  218.2130 C   0  0  0  0  0  0  0  0  0  0  0  0
  142.5150   77.9050  218.3050 C   0  0  0  0  0  0  0  0  0  0  0  0
  142.9420   76.9610  216.9020 Cl  0  0  0  0  0  0  0  0  0  0  0  0
  142.4970   77.3360  219.5570 C   0  0  0  0  0  0  0  0  0  0  0  0
  142.1560   78.0950  220.6740 C   0  0  0  0  0  0  0  0  0  0  0  0
  137.8971   80.1306  221.0941 H   0  0  0  0  0  0  0  0  0  0  0  0
  139.3855   80.0918  220.0891 H   0  0  0  0  0  0  0  0  0  0  0  0
  138.2650   78.6879  220.0891 H   0  0  0  0  0  0  0  0  0  0  0  0
  138.6650   78.5740  223.6973 H   0  0  0  0  0  0  0  0  0  0  0  0
  137.4739   78.5107  222.3138 H   0  0  0  0  0  0  0  0  0  0  0  0
  138.8270   76.3829  223.6250 H   0  0  0  0  0  0  0  0  0  0  0  0
  137.6182   76.3580  222.2698 H   0  0  0  0  0  0  0  0  0  0  0  0
  140.0680   76.9840  221.0290 H   0  0  0  0  0  0  0  0  0  0  0  0
  139.7856   74.6808  218.9422 H   0  0  0  0  0  0  0  0  0  0  0  0
  141.5542   74.0746  217.3387 H   0  0  0  0  0  0  0  0  0  0  0  0
  143.8611   73.4878  216.8292 H   0  0  0  0  0  0  0  0  0  0  0  0
  146.6991   73.2584  220.0852 H   0  0  0  0  0  0  0  0  0  0  0  0
  144.8834   73.8683  221.6738 H   0  0  0  0  0  0  0  0  0  0  0  0
  139.5678   80.7648  222.5677 H   0  0  0  0  0  0  0  0  0  0  0  0
  140.3370   80.2067  224.5762 H   0  0  0  0  0  0  0  0  0  0  0  0
  140.2526   78.4920  224.0668 H   0  0  0  0  0  0  0  0  0  0  0  0
  142.5448   79.7185  224.8238 H   0  0  0  0  0  0  0  0  0  0  0  0
  142.5204   78.3801  223.6787 H   0  0  0  0  0  0  0  0  0  0  0  0
  142.6996   81.3773  223.1540 H   0  0  0  0  0  0  0  0  0  0  0  0
  143.5755   80.0985  222.3368 H   0  0  0  0  0  0  0  0  0  0  0  0
  141.2524   81.2370  221.2512 H   0  0  0  0  0  0  0  0  0  0  0  0
  141.5864   81.0608  219.1910 H   0  0  0  0  0  0  0  0  0  0  0  0
  142.1922   79.7159  217.2228 H   0  0  0  0  0  0  0  0  0  0  0  0
  142.7539   76.2732  219.6772 H   0  0  0  0  0  0  0  0  0  0  0  0
  142.1514   77.6084  221.6605 H   0  0  0  0  0  0  0  0  0  0  0  0
  1  2  1  0
  2  3  1  0
  3  4  1  0
  4  5  1  0
  5  6  1  0
  6  7  2  0
  6  8  1  0
  8  9  2  0
  9 10  1  0
 10 11  2  0
 11 12  1  0
 12 13  2  0
 13 14  1  0
 13 15  1  0
 15 16  2  0
 16 17  1  0
 17 18  2  0
  2 19  1  0
 19 20  1  0
 20 21  1  0
 21 22  1  0
 22 23  1  0
 23 24  1  0
 24 25  2  0
 25 26  1  0
 26 27  2  0
 27 28  1  0
 27 29  1  0
 29 30  2  0
 18  8  1  0
 23 19  1  0
 30 24  1  0
 17 11  1  0
  1 31  1  0
  1 32  1  0
  1 33  1  0
  3 34  1  0
  3 35  1  0
  4 36  1  0
  4 37  1  0
  5 38  1  0
  9 39  1  0
 10 40  1  0
 12 41  1  0
 15 42  1  0
 16 43  1  0
 19 44  1  1
 20 45  1  0
 20 46  1  0
 21 47  1  0
 21 48  1  0
 22 49  1  0
 22 50  1  0
 23 51  1  6
 25 52  1  0
 26 53  1  0
 29 54  1  0
 30 55  1  0
M  END
>  <meeko>  (9) 
{"free_energy": -6.81, "intermolecular_energy": -8.6, "internal_energy": -3.33, "cluster_size": 8, "cluster_id": 3, "rank_in_cluster": 2}

$$$$

     RDKit          3D

 55 58  0  0  0  0  0  0  0  0999 V2000
  138.2760   76.9990  221.1330 C   0  0  0  0  0  0  0  0  0  0  0  0
  139.6970   77.1790  221.1370 N   0  0  0  0  0  0  0  0  0  0  0  0
  140.3000   76.0260  221.7620 C   0  0  0  0  0  0  0  0  0  0  0  0
  139.7620   74.7250  221.2580 C   0  0  0  0  0  0  0  0  0  0  0  0
  139.6420   73.7260  222.3270 N   0  0  0  0  0  0  0  0  0  0  0  0
  140.4620   72.5800  222.3990 C   0  0  0  0  0  0  0  0  0  0  0  0
  141.3550   72.3340  221.5480 O   0  0  0  0  0  0  0  0  0  0  0  0
  140.2670   71.6300  223.5150 C   0  0  0  0  0  0  0  0  0  0  0  0
  139.6150   70.4320  223.3090 C   0  0  0  0  0  0  0  0  0  0  0  0
  139.4460   69.5610  224.3630 C   0  0  0  0  0  0  0  0  0  0  0  0
  139.9090   69.8410  225.6370 C   0  0  0  0  0  0  0  0  0  0  0  0
  139.7300   68.9580  226.6810 C   0  0  0  0  0  0  0  0  0  0  0  0
  140.2170   69.3030  227.9240 C   0  0  0  0  0  0  0  0  0  0  0  0
  140.0380   68.4310  228.9440 F   0  0  0  0  0  0  0  0  0  0  0  0
  140.8760   70.5060  228.1440 C   0  0  0  0  0  0  0  0  0  0  0  0
  141.0330   71.3670  227.0640 C   0  0  0  0  0  0  0  0  0  0  0  0
  140.5610   71.0640  225.8020 C   0  0  0  0  0  0  0  0  0  0  0  0
  140.7140   71.9000  224.7530 N   0  0  0  0  0  0  0  0  0  0  0  0
  140.0810   78.4410  221.7570 C   0  0  1  0  0  0  0  0  0  0  0  0
  140.6760   78.2850  223.0960 C   0  0  0  0  0  0  0  0  0  0  0  0
  142.0610   78.7900  223.0610 C   0  0  0  0  0  0  0  0  0  0  0  0
  142.0730   79.7850  221.9270 C   0  0  0  0  0  0  0  0  0  0  0  0
  141.0390   79.2200  220.9540 C   0  0  1  0  0  0  0  0  0  0  0  0
  141.6810   78.5270  219.8260 C   0  0  0  0  0  0  0  0  0  0  0  0
  142.4770   77.4070  220.0920 C   0  0  0  0  0  0  0  0  0  0  0  0
  143.0980   76.7260  219.0590 C   0  0  0  0  0  0  0  0  0  0  0  0
  142.9720   77.1030  217.7430 C   0  0  0  0  0  0  0  0  0  0  0  0
  143.7620   76.2320  216.4540 Cl  0  0  0  0  0  0  0  0  0  0  0  0
  142.1930   78.2040  217.4730 C   0  0  0  0  0  0  0  0  0  0  0  0
  141.5640   78.8950  218.5060 C   0  0  0  0  0  0  0  0  0  0  0  0
  137.9094   76.9526  222.1691 H   0  0  0  0  0  0  0  0  0  0  0  0
  137.8008   77.8441  220.6134 H   0  0  0  0  0  0  0  0  0  0  0  0
  138.0265   76.0621  220.6134 H   0  0  0  0  0  0  0  0  0  0  0  0
  141.3829   76.0526  221.5705 H   0  0  0  0  0  0  0  0  0  0  0  0
  140.0648   76.0795  222.8352 H   0  0  0  0  0  0  0  0  0  0  0  0
  138.7675   74.8979  220.8208 H   0  0  0  0  0  0  0  0  0  0  0  0
  140.4655   74.3353  220.5075 H   0  0  0  0  0  0  0  0  0  0  0  0
  138.9230   73.8520  223.0790 H   0  0  0  0  0  0  0  0  0  0  0  0
  139.2328   70.1739  222.3104 H   0  0  0  0  0  0  0  0  0  0  0  0
  138.9244   68.6089  224.1857 H   0  0  0  0  0  0  0  0  0  0  0  0
  139.2108   68.0007  226.5258 H   0  0  0  0  0  0  0  0  0  0  0  0
  141.2610   70.7687  229.1404 H   0  0  0  0  0  0  0  0  0  0  0  0
  141.5519   72.3242  227.2202 H   0  0  0  0  0  0  0  0  0  0  0  0
  139.1235   78.9772  221.8319 H   0  0  0  0  0  0  0  0  0  0  0  0
  140.0913   78.8592  223.8298 H   0  0  0  0  0  0  0  0  0  0  0  0
  140.6717   77.2240  223.3861 H   0  0  0  0  0  0  0  0  0  0  0  0
  142.3200   79.2804  224.0110 H   0  0  0  0  0  0  0  0  0  0  0  0
  142.7960   77.9843  222.9177 H   0  0  0  0  0  0  0  0  0  0  0  0
  141.7793   80.7855  222.2773 H   0  0  0  0  0  0  0  0  0  0  0  0
  143.0676   79.9101  221.4741 H   0  0  0  0  0  0  0  0  0  0  0  0
  140.4642   80.0031  220.4379 H   0  0  0  0  0  0  0  0  0  0  0  0
  142.6101   77.0654  221.1291 H   0  0  0  0  0  0  0  0  0  0  0  0
  143.7164   75.8490  219.3007 H   0  0  0  0  0  0  0  0  0  0  0  0
  142.0658   78.5413  216.4337 H   0  0  0  0  0  0  0  0  0  0  0  0
  140.9481   79.7714  218.2556 H   0  0  0  0  0  0  0  0  0  0  0  0
  1  2  1  0
  2  3  1  0
  3  4  1  0
  4  5  1  0
  5  6  1  0
  6  7  2  0
  6  8  1  0
  8  9  2  0
  9 10  1  0
 10 11  2  0
 11 12  1  0
 12 13  2  0
 13 14  1  0
 13 15  1  0
 15 16  2  0
 16 17  1  0
 17 18  2  0
  2 19  1  0
 19 20  1  0
 20 21  1  0
 21 22  1  0
 22 23  1  0
 23 24  1  0
 24 25  2  0
 25 26  1  0
 26 27  2  0
 27 28  1  0
 27 29  1  0
 29 30  2  0
 18  8  1  0
 23 19  1  0
 30 24  1  0
 17 11  1  0
  1 31  1  0
  1 32  1  0
  1 33  1  0
  3 34  1  0
  3 35  1  0
  4 36  1  0
  4 37  1  0
  5 38  1  0
  9 39  1  0
 10 40  1  0
 12 41  1  0
 15 42  1  0
 16 43  1  0
 19 44  1  1
 20 45  1  0
 20 46  1  0
 21 47  1  0
 21 48  1  0
 22 49  1  0
 22 50  1  0
 23 51  1  6
 25 52  1  0
 26 53  1  0
 29 54  1  0
 30 55  1  0
M  END
>  <meeko>  (10) 
{"free_energy": -8.53, "intermolecular_energy": -10.32, "internal_energy": -1.3, "cluster_size": 4, "cluster_id": 1, "rank_in_cluster": 2}

$$$$

     RDKit          3D

 55 58  0  0  0  0  0  0  0  0999 V2000
  138.5500   79.6080  220.8960 C   0  0  0  0  0  0  0  0  0  0  0  0
  139.4430   79.0550  221.8680 N   0  0  0  0  0  0  0  0  0  0  0  0
  138.6700   78.2770  222.8080 C   0  0  0  0  0  0  0  0  0  0  0  0
  138.4270   76.8710  222.3600 C   0  0  0  0  0  0  0  0  0  0  0  0
  139.4810   76.3890  221.4590 N   0  0  0  0  0  0  0  0  0  0  0  0
  139.9810   75.0700  221.5050 C   0  0  0  0  0  0  0  0  0  0  0  0
  139.5580   74.2150  222.3250 O   0  0  0  0  0  0  0  0  0  0  0  0
  141.0430   74.6750  220.5560 C   0  0  0  0  0  0  0  0  0  0  0  0
  140.7550   74.4900  219.2200 C   0  0  0  0  0  0  0  0  0  0  0  0
  141.7610   74.1220  218.3530 C   0  0  0  0  0  0  0  0  0  0  0  0
  143.0660   73.9300  218.7720 C   0  0  0  0  0  0  0  0  0  0  0  0
  144.0610   73.5630  217.8900 C   0  0  0  0  0  0  0  0  0  0  0  0
  145.3390   73.3880  218.3780 C   0  0  0  0  0  0  0  0  0  0  0  0
  146.3100   73.0270  217.5060 F   0  0  0  0  0  0  0  0  0  0  0  0
  145.6420   73.5730  219.7210 C   0  0  0  0  0  0  0  0  0  0  0  0
  144.6090   73.9420  220.5740 C   0  0  0  0  0  0  0  0  0  0  0  0
  143.3140   74.1270  220.1310 C   0  0  0  0  0  0  0  0  0  0  0  0
  142.3110   74.4860  220.9600 N   0  0  0  0  0  0  0  0  0  0  0  0
  140.2590   80.0840  222.5020 C   0  0  1  0  0  0  0  0  0  0  0  0
  140.7380   79.7150  223.8450 C   0  0  0  0  0  0  0  0  0  0  0  0
  142.2120   79.6720  223.8280 C   0  0  0  0  0  0  0  0  0  0  0  0
  142.6050   80.5960  222.7010 C   0  0  0  0  0  0  0  0  0  0  0  0
  141.4460   80.4560  221.7140 C   0  0  1  0  0  0  0  0  0  0  0  0
  141.8010   79.5790  220.5870 C   0  0  0  0  0  0  0  0  0  0  0  0
  141.9010   80.1370  219.3080 C   0  0  0  0  0  0  0  0  0  0  0  0
  142.2340   79.3450  218.2210 C   0  0  0  0  0  0  0  0  0  0  0  0
  142.4800   77.9970  218.3350 C   0  0  0  0  0  0  0  0  0  0  0  0
  142.9000   77.0160  216.9550 Cl  0  0  0  0  0  0  0  0  0  0  0  0
  142.3830   77.4420  219.5890 C   0  0  0  0  0  0  0  0  0  0  0  0
  142.0490   78.2290  220.6880 C   0  0  0  0  0  0  0  0  0  0  0  0
  137.7223   80.1205  221.4081 H   0  0  0  0  0  0  0  0  0  0  0  0
  139.0935   80.3278  220.2664 H   0  0  0  0  0  0  0  0  0  0  0  0
  138.1478   78.8007  220.2664 H   0  0  0  0  0  0  0  0  0  0  0  0
  139.2113   78.2490  223.7652 H   0  0  0  0  0  0  0  0  0  0  0  0
  137.6871   78.7624  222.8991 H   0  0  0  0  0  0  0  0  0  0  0  0
  138.3904   76.2181  223.2445 H   0  0  0  0  0  0  0  0  0  0  0  0
  137.4749   76.8505  221.8094 H   0  0  0  0  0  0  0  0  0  0  0  0
  139.8920   77.0350  220.7440 H   0  0  0  0  0  0  0  0  0  0  0  0
  139.7296   74.6351  218.8491 H   0  0  0  0  0  0  0  0  0  0  0  0
  141.5182   73.9757  217.2902 H   0  0  0  0  0  0  0  0  0  0  0  0
  143.8404   73.4135  216.8228 H   0  0  0  0  0  0  0  0  0  0  0  0
  146.6661   73.4320  220.0969 H   0  0  0  0  0  0  0  0  0  0  0  0
  144.8307   74.0922  221.6409 H   0  0  0  0  0  0  0  0  0  0  0  0
  139.5666   80.9359  222.5723 H   0  0  0  0  0  0  0  0  0  0  0  0
  140.3983   80.4624  224.5771 H   0  0  0  0  0  0  0  0  0  0  0  0
  140.3383   78.7297  224.1270 H   0  0  0  0  0  0  0  0  0  0  0  0
  142.6223   80.0289  224.7842 H   0  0  0  0  0  0  0  0  0  0  0  0
  142.5987   78.6520  223.6863 H   0  0  0  0  0  0  0  0  0  0  0  0
  142.6980   81.6331  223.0555 H   0  0  0  0  0  0  0  0  0  0  0  0
  143.5807   80.3462  222.2587 H   0  0  0  0  0  0  0  0  0  0  0  0
  141.2057   81.3973  221.1981 H   0  0  0  0  0  0  0  0  0  0  0  0
  141.7141   81.2114  219.1644 H   0  0  0  0  0  0  0  0  0  0  0  0
  142.3043   79.8129  217.2280 H   0  0  0  0  0  0  0  0  0  0  0  0
  142.5709   76.3668  219.7253 H   0  0  0  0  0  0  0  0  0  0  0  0
  141.9806   77.7524  221.6770 H   0  0  0  0  0  0  0  0  0  0  0  0
  1  2  1  0
  2  3  1  0
  3  4  1  0
  4  5  1  0
  5  6  1  0
  6  7  2  0
  6  8  1  0
  8  9  2  0
  9 10  1  0
 10 11  2  0
 11 12  1  0
 12 13  2  0
 13 14  1  0
 13 15  1  0
 15 16  2  0
 16 17  1  0
 17 18  2  0
  2 19  1  0
 19 20  1  0
 20 21  1  0
 21 22  1  0
 22 23  1  0
 23 24  1  0
 24 25  2  0
 25 26  1  0
 26 27  2  0
 27 28  1  0
 27 29  1  0
 29 30  2  0
 18  8  1  0
 23 19  1  0
 30 24  1  0
 17 11  1  0
  1 31  1  0
  1 32  1  0
  1 33  1  0
  3 34  1  0
  3 35  1  0
  4 36  1  0
  4 37  1  0
  5 38  1  0
  9 39  1  0
 10 40  1  0
 12 41  1  0
 15 42  1  0
 16 43  1  0
 19 44  1  1
 20 45  1  0
 20 46  1  0
 21 47  1  0
 21 48  1  0
 22 49  1  0
 22 50  1  0
 23 51  1  6
 25 52  1  0
 26 53  1  0
 29 54  1  0
 30 55  1  0
M  END
>  <meeko>  (11) 
{"free_energy": -6.75, "intermolecular_energy": -8.54, "internal_energy": -3.13, "cluster_size": 8, "cluster_id": 3, "rank_in_cluster": 5}

$$$$

     RDKit          3D

 55 58  0  0  0  0  0  0  0  0999 V2000
  143.2850   80.0100  222.7210 C   0  0  0  0  0  0  0  0  0  0  0  0
  141.9420   80.0200  222.2250 N   0  0  0  0  0  0  0  0  0  0  0  0
  141.8300   81.0630  221.2320 C   0  0  0  0  0  0  0  0  0  0  0  0
  141.6140   80.5460  219.8460 C   0  0  0  0  0  0  0  0  0  0  0  0
  142.1870   79.2070  219.6610 N   0  0  0  0  0  0  0  0  0  0  0  0
  142.2410   78.5650  218.4060 C   0  0  0  0  0  0  0  0  0  0  0  0
  141.7990   79.0980  217.3550 O   0  0  0  0  0  0  0  0  0  0  0  0
  142.8380   77.2150  218.3170 C   0  0  0  0  0  0  0  0  0  0  0  0
  142.9100   76.5600  217.1060 C   0  0  0  0  0  0  0  0  0  0  0  0
  143.4720   75.3020  217.0480 C   0  0  0  0  0  0  0  0  0  0  0  0
  143.9740   74.6620  218.1670 C   0  0  0  0  0  0  0  0  0  0  0  0
  144.5320   73.4040  218.0900 C   0  0  0  0  0  0  0  0  0  0  0  0
  145.0120   72.8260  219.2470 C   0  0  0  0  0  0  0  0  0  0  0  0
  145.5590   71.5910  219.1630 F   0  0  0  0  0  0  0  0  0  0  0  0
  144.9460   73.4770  220.4730 C   0  0  0  0  0  0  0  0  0  0  0  0
  144.3740   74.7440  220.5040 C   0  0  0  0  0  0  0  0  0  0  0  0
  143.8800   75.3610  219.3720 C   0  0  0  0  0  0  0  0  0  0  0  0
  143.3250   76.5910  219.4040 N   0  0  0  0  0  0  0  0  0  0  0  0
  140.9680   80.1400  223.3030 C   0  0  1  0  0  0  0  0  0  0  0  0
  140.0410   81.2740  223.1400 C   0  0  0  0  0  0  0  0  0  0  0  0
  138.6680   80.7510  223.0220 C   0  0  0  0  0  0  0  0  0  0  0  0
  138.7090   79.4160  223.7250 C   0  0  0  0  0  0  0  0  0  0  0  0
  140.1400   78.9360  223.4800 C   0  0  1  0  0  0  0  0  0  0  0  0
  140.1940   77.9270  222.4100 C   0  0  0  0  0  0  0  0  0  0  0  0
  141.0000   76.7970  222.5940 C   0  0  0  0  0  0  0  0  0  0  0  0
  141.0770   75.8230  221.6120 C   0  0  0  0  0  0  0  0  0  0  0  0
  140.3830   75.9090  220.4290 C   0  0  0  0  0  0  0  0  0  0  0  0
  140.4920   74.6710  219.2040 Cl  0  0  0  0  0  0  0  0  0  0  0  0
  139.5890   77.0160  220.2410 C   0  0  0  0  0  0  0  0  0  0  0  0
  139.5050   78.0010  221.2220 C   0  0  0  0  0  0  0  0  0  0  0  0
  143.2697   80.0101  223.8209 H   0  0  0  0  0  0  0  0  0  0  0  0
  143.8019   79.1080  222.3616 H   0  0  0  0  0  0  0  0  0  0  0  0
  143.8153   80.9042  222.3616 H   0  0  0  0  0  0  0  0  0  0  0  0
  140.9803   81.7084  221.4992 H   0  0  0  0  0  0  0  0  0  0  0  0
  142.7843   81.6100  221.2282 H   0  0  0  0  0  0  0  0  0  0  0  0
  140.5328   80.4995  219.6492 H   0  0  0  0  0  0  0  0  0  0  0  0
  142.1176   81.2298  219.1468 H   0  0  0  0  0  0  0  0  0  0  0  0
  142.5790   78.6890  220.4840 H   0  0  0  0  0  0  0  0  0  0  0  0
  142.5224   77.0369  216.1937 H   0  0  0  0  0  0  0  0  0  0  0  0
  143.5230   74.7887  216.0765 H   0  0  0  0  0  0  0  0  0  0  0  0
  144.5931   72.8733  217.1284 H   0  0  0  0  0  0  0  0  0  0  0  0
  145.3333   73.0057  221.3884 H   0  0  0  0  0  0  0  0  0  0  0  0
  144.3128   75.2742  221.4658 H   0  0  0  0  0  0  0  0  0  0  0  0
  141.6024   80.2986  224.1875 H   0  0  0  0  0  0  0  0  0  0  0  0
  140.1103   81.9370  224.0150 H   0  0  0  0  0  0  0  0  0  0  0  0
  140.3029   81.8444  222.2367 H   0  0  0  0  0  0  0  0  0  0  0  0
  137.9514   81.4265  223.5122 H   0  0  0  0  0  0  0  0  0  0  0  0
  138.3435   80.6619  221.9747 H   0  0  0  0  0  0  0  0  0  0  0  0
  138.5101   79.5304  224.8008 H   0  0  0  0  0  0  0  0  0  0  0  0
  137.9487   78.7113  223.3573 H   0  0  0  0  0  0  0  0  0  0  0  0
  140.5580   78.3818  224.3333 H   0  0  0  0  0  0  0  0  0  0  0  0
  141.5757   76.6819  223.5242 H   0  0  0  0  0  0  0  0  0  0  0  0
  141.7186   74.9466  221.7859 H   0  0  0  0  0  0  0  0  0  0  0  0
  139.0157   77.1243  219.3085 H   0  0  0  0  0  0  0  0  0  0  0  0
  138.8612   78.8740  221.0391 H   0  0  0  0  0  0  0  0  0  0  0  0
  1  2  1  0
  2  3  1  0
  3  4  1  0
  4  5  1  0
  5  6  1  0
  6  7  2  0
  6  8  1  0
  8  9  2  0
  9 10  1  0
 10 11  2  0
 11 12  1  0
 12 13  2  0
 13 14  1  0
 13 15  1  0
 15 16  2  0
 16 17  1  0
 17 18  2  0
  2 19  1  0
 19 20  1  0
 20 21  1  0
 21 22  1  0
 22 23  1  0
 23 24  1  0
 24 25  2  0
 25 26  1  0
 26 27  2  0
 27 28  1  0
 27 29  1  0
 29 30  2  0
 18  8  1  0
 23 19  1  0
 30 24  1  0
 17 11  1  0
  1 31  1  0
  1 32  1  0
  1 33  1  0
  3 34  1  0
  3 35  1  0
  4 36  1  0
  4 37  1  0
  5 38  1  0
  9 39  1  0
 10 40  1  0
 12 41  1  0
 15 42  1  0
 16 43  1  0
 19 44  1  1
 20 45  1  0
 20 46  1  0
 21 47  1  0
 21 48  1  0
 22 49  1  0
 22 50  1  0
 23 51  1  1
 25 52  1  0
 26 53  1  0
 29 54  1  0
 30 55  1  0
M  END
>  <meeko>  (12) 
{"free_energy": -6.35, "intermolecular_energy": -8.14, "internal_energy": -3.93, "cluster_size": 7, "cluster_id": 4, "rank_in_cluster": 6}

$$$$

     RDKit          3D

 55 58  0  0  0  0  0  0  0  0999 V2000
  138.1790   77.1140  220.8970 C   0  0  0  0  0  0  0  0  0  0  0  0
  139.6000   77.1680  221.0650 N   0  0  0  0  0  0  0  0  0  0  0  0
  140.0220   75.9770  221.7640 C   0  0  0  0  0  0  0  0  0  0  0  0
  139.3190   74.7380  221.3100 C   0  0  0  0  0  0  0  0  0  0  0  0
  139.3010   73.7020  222.3490 N   0  0  0  0  0  0  0  0  0  0  0  0
  140.2690   72.6780  222.4250 C   0  0  0  0  0  0  0  0  0  0  0  0
  141.2170   72.5830  221.6030 O   0  0  0  0  0  0  0  0  0  0  0  0
  140.1690   71.6770  223.5090 C   0  0  0  0  0  0  0  0  0  0  0  0
  139.5760   70.4530  223.2790 C   0  0  0  0  0  0  0  0  0  0  0  0
  139.4950   69.5360  224.3040 C   0  0  0  0  0  0  0  0  0  0  0  0
  139.9910   69.7930  225.5700 C   0  0  0  0  0  0  0  0  0  0  0  0
  139.9010   68.8630  226.5840 C   0  0  0  0  0  0  0  0  0  0  0  0
  140.4160   69.1880  227.8210 C   0  0  0  0  0  0  0  0  0  0  0  0
  140.3240   68.2700  228.8120 F   0  0  0  0  0  0  0  0  0  0  0  0
  141.0160   70.4170  228.0650 C   0  0  0  0  0  0  0  0  0  0  0  0
  141.0840   71.3250  227.0140 C   0  0  0  0  0  0  0  0  0  0  0  0
  140.5810   71.0440  225.7590 C   0  0  0  0  0  0  0  0  0  0  0  0
  140.6490   71.9260  224.7400 N   0  0  0  0  0  0  0  0  0  0  0  0
  140.0220   78.4020  221.7170 C   0  0  1  0  0  0  0  0  0  0  0  0
  140.5290   78.2050  223.0860 C   0  0  0  0  0  0  0  0  0  0  0  0
  141.9400   78.6270  223.1340 C   0  0  0  0  0  0  0  0  0  0  0  0
  142.0760   79.6250  222.0110 C   0  0  0  0  0  0  0  0  0  0  0  0
  141.0680   79.1270  220.9760 C   0  0  1  0  0  0  0  0  0  0  0  0
  141.7320   78.4030  219.8810 C   0  0  0  0  0  0  0  0  0  0  0  0
  142.4140   77.2180  220.1780 C   0  0  0  0  0  0  0  0  0  0  0  0
  143.0520   76.5060  219.1750 C   0  0  0  0  0  0  0  0  0  0  0  0
  143.0520   76.9140  217.8620 C   0  0  0  0  0  0  0  0  0  0  0  0
  143.8590   76.0030  216.6130 Cl  0  0  0  0  0  0  0  0  0  0  0  0
  142.3840   78.0780  217.5640 C   0  0  0  0  0  0  0  0  0  0  0  0
  141.7400   78.8010  218.5650 C   0  0  0  0  0  0  0  0  0  0  0  0
  137.6935   77.0956  221.8839 H   0  0  0  0  0  0  0  0  0  0  0  0
  137.8418   78.0000  220.3390 H   0  0  0  0  0  0  0  0  0  0  0  0
  137.9100   76.2050  220.3390 H   0  0  0  0  0  0  0  0  0  0  0  0
  141.1019   75.8432  221.6033 H   0  0  0  0  0  0  0  0  0  0  0  0
  139.7726   76.1197  222.8258 H   0  0  0  0  0  0  0  0  0  0  0  0
  138.2822   74.9946  221.0468 H   0  0  0  0  0  0  0  0  0  0  0  0
  139.8636   74.3381  220.4420 H   0  0  0  0  0  0  0  0  0  0  0  0
  138.5450   73.7040  223.0750 H   0  0  0  0  0  0  0  0  0  0  0  0
  139.1711   70.2110  222.2853 H   0  0  0  0  0  0  0  0  0  0  0  0
  139.0186   68.5639  224.1089 H   0  0  0  0  0  0  0  0  0  0  0  0
  139.4293   67.8846  226.4101 H   0  0  0  0  0  0  0  0  0  0  0  0
  141.4237   70.6636  229.0565 H   0  0  0  0  0  0  0  0  0  0  0  0
  141.5559   72.3032  227.1887 H   0  0  0  0  0  0  0  0  0  0  0  0
  139.0947   78.9932  221.7424 H   0  0  0  0  0  0  0  0  0  0  0  0
  139.9380   78.8094  223.7899 H   0  0  0  0  0  0  0  0  0  0  0  0
  140.4458   77.1447  223.3669 H   0  0  0  0  0  0  0  0  0  0  0  0
  142.1724   79.0965  224.1013 H   0  0  0  0  0  0  0  0  0  0  0  0
  142.6332   77.7797  223.0259 H   0  0  0  0  0  0  0  0  0  0  0  0
  141.8222   80.6395  222.3522 H   0  0  0  0  0  0  0  0  0  0  0  0
  143.1006   79.6931  221.6167 H   0  0  0  0  0  0  0  0  0  0  0  0
  140.5703   79.9449  220.4344 H   0  0  0  0  0  0  0  0  0  0  0  0
  142.4439   76.8494  221.2140 H   0  0  0  0  0  0  0  0  0  0  0  0
  143.5793   75.5776  219.4397 H   0  0  0  0  0  0  0  0  0  0  0  0
  142.3580   78.4414  216.5261 H   0  0  0  0  0  0  0  0  0  0  0  0
  141.2161   79.7288  218.2915 H   0  0  0  0  0  0  0  0  0  0  0  0
  1  2  1  0
  2  3  1  0
  3  4  1  0
  4  5  1  0
  5  6  1  0
  6  7  2  0
  6  8  1  0
  8  9  2  0
  9 10  1  0
 10 11  2  0
 11 12  1  0
 12 13  2  0
 13 14  1  0
 13 15  1  0
 15 16  2  0
 16 17  1  0
 17 18  2  0
  2 19  1  0
 19 20  1  0
 20 21  1  0
 21 22  1  0
 22 23  1  0
 23 24  1  0
 24 25  2  0
 25 26  1  0
 26 27  2  0
 27 28  1  0
 27 29  1  0
 29 30  2  0
 18  8  1  0
 23 19  1  0
 30 24  1  0
 17 11  1  0
  1 31  1  0
  1 32  1  0
  1 33  1  0
  3 34  1  0
  3 35  1  0
  4 36  1  0
  4 37  1  0
  5 38  1  0
  9 39  1  0
 10 40  1  0
 12 41  1  0
 15 42  1  0
 16 43  1  0
 19 44  1  1
 20 45  1  0
 20 46  1  0
 21 47  1  0
 21 48  1  0
 22 49  1  0
 22 50  1  0
 23 51  1  6
 25 52  1  0
 26 53  1  0
 29 54  1  0
 30 55  1  0
M  END
>  <meeko>  (13) 
{"free_energy": -8.43, "intermolecular_energy": -10.22, "internal_energy": -1.33, "cluster_size": 4, "cluster_id": 1, "rank_in_cluster": 3}

$$$$

     RDKit          3D

 55 58  0  0  0  0  0  0  0  0999 V2000
  138.7110   79.6680  220.6040 C   0  0  0  0  0  0  0  0  0  0  0  0
  139.3590   78.9940  221.6890 N   0  0  0  0  0  0  0  0  0  0  0  0
  138.3510   78.3270  222.4780 C   0  0  0  0  0  0  0  0  0  0  0  0
  138.5190   76.8420  222.5280 C   0  0  0  0  0  0  0  0  0  0  0  0
  139.5630   76.3730  221.6090 N   0  0  0  0  0  0  0  0  0  0  0  0
  140.0360   75.0440  221.6020 C   0  0  0  0  0  0  0  0  0  0  0  0
  139.5950   74.1660  222.3880 O   0  0  0  0  0  0  0  0  0  0  0  0
  141.0910   74.6650  220.6380 C   0  0  0  0  0  0  0  0  0  0  0  0
  140.8070   74.5680  219.2920 C   0  0  0  0  0  0  0  0  0  0  0  0
  141.8060   74.2140  218.4110 C   0  0  0  0  0  0  0  0  0  0  0  0
  143.0990   73.9490  218.8260 C   0  0  0  0  0  0  0  0  0  0  0  0
  144.0870   73.5960  217.9300 C   0  0  0  0  0  0  0  0  0  0  0  0
  145.3540   73.3450  218.4150 C   0  0  0  0  0  0  0  0  0  0  0  0
  146.3180   72.9990  217.5300 F   0  0  0  0  0  0  0  0  0  0  0  0
  145.6520   73.4400  219.7680 C   0  0  0  0  0  0  0  0  0  0  0  0
  144.6260   73.7980  220.6350 C   0  0  0  0  0  0  0  0  0  0  0  0
  143.3430   74.0570  220.1960 C   0  0  0  0  0  0  0  0  0  0  0  0
  142.3470   74.4050  221.0390 N   0  0  0  0  0  0  0  0  0  0  0  0
  140.1970   79.9000  222.4650 C   0  0  1  0  0  0  0  0  0  0  0  0
  140.5390   79.3880  223.8040 C   0  0  0  0  0  0  0  0  0  0  0  0
  142.0010   79.2270  223.8910 C   0  0  0  0  0  0  0  0  0  0  0  0
  142.5510   80.2020  222.8790 C   0  0  0  0  0  0  0  0  0  0  0  0
  141.4680   80.2360  221.8010 C   0  0  1  0  0  0  0  0  0  0  0  0
  141.8440   79.4240  220.6330 C   0  0  0  0  0  0  0  0  0  0  0  0
  141.8800   80.0360  219.3750 C   0  0  0  0  0  0  0  0  0  0  0  0
  142.2310   79.3080  218.2500 C   0  0  0  0  0  0  0  0  0  0  0  0
  142.5560   77.9730  218.3050 C   0  0  0  0  0  0  0  0  0  0  0  0
  142.9970   77.0720  216.8770 Cl  0  0  0  0  0  0  0  0  0  0  0  0
  142.5230   77.3650  219.5370 C   0  0  0  0  0  0  0  0  0  0  0  0
  142.1710   78.0890  220.6740 C   0  0  0  0  0  0  0  0  0  0  0  0
  138.0006   80.4069  221.0032 H   0  0  0  0  0  0  0  0  0  0  0  0
  139.4648   80.1798  219.9877 H   0  0  0  0  0  0  0  0  0  0  0  0
  138.1699   78.9349  219.9877 H   0  0  0  0  0  0  0  0  0  0  0  0
  138.3980   78.7175  223.5053 H   0  0  0  0  0  0  0  0  0  0  0  0
  137.3808   78.5270  221.9997 H   0  0  0  0  0  0  0  0  0  0  0  0
  138.7916   76.5502  223.5530 H   0  0  0  0  0  0  0  0  0  0  0  0
  137.5673   76.3830  222.2220 H   0  0  0  0  0  0  0  0  0  0  0  0
  139.9880   77.0390  220.9190 H   0  0  0  0  0  0  0  0  0  0  0  0
  139.7905   74.7717  218.9242 H   0  0  0  0  0  0  0  0  0  0  0  0
  141.5669   74.1395  217.3399 H   0  0  0  0  0  0  0  0  0  0  0  0
  143.8697   73.5166  216.8546 H   0  0  0  0  0  0  0  0  0  0  0  0
  146.6668   73.2385  220.1415 H   0  0  0  0  0  0  0  0  0  0  0  0
  144.8444   73.8778  221.7101 H   0  0  0  0  0  0  0  0  0  0  0  0
  139.5670   80.7972  222.5553 H   0  0  0  0  0  0  0  0  0  0  0  0
  140.1992   80.1003  224.5702 H   0  0  0  0  0  0  0  0  0  0  0  0
  140.0455   78.4193  223.9713 H   0  0  0  0  0  0  0  0  0  0  0  0
  142.3595   79.4724  224.9016 H   0  0  0  0  0  0  0  0  0  0  0  0
  142.3200   78.1934  223.6913 H   0  0  0  0  0  0  0  0  0  0  0  0
  142.6931   81.1967  223.3266 H   0  0  0  0  0  0  0  0  0  0  0  0
  143.5373   79.9090  222.4900 H   0  0  0  0  0  0  0  0  0  0  0  0
  141.3424   81.2319  221.3512 H   0  0  0  0  0  0  0  0  0  0  0  0
  141.6279   81.1024  219.2789 H   0  0  0  0  0  0  0  0  0  0  0  0
  142.2505   79.8174  217.2752 H   0  0  0  0  0  0  0  0  0  0  0  0
  142.7765   76.2983  219.6261 H   0  0  0  0  0  0  0  0  0  0  0  0
  142.1540   77.5714  221.6445 H   0  0  0  0  0  0  0  0  0  0  0  0
  1  2  1  0
  2  3  1  0
  3  4  1  0
  4  5  1  0
  5  6  1  0
  6  7  2  0
  6  8  1  0
  8  9  2  0
  9 10  1  0
 10 11  2  0
 11 12  1  0
 12 13  2  0
 13 14  1  0
 13 15  1  0
 15 16  2  0
 16 17  1  0
 17 18  2  0
  2 19  1  0
 19 20  1  0
 20 21  1  0
 21 22  1  0
 22 23  1  0
 23 24  1  0
 24 25  2  0
 25 26  1  0
 26 27  2  0
 27 28  1  0
 27 29  1  0
 29 30  2  0
 18  8  1  0
 23 19  1  0
 30 24  1  0
 17 11  1  0
  1 31  1  0
  1 32  1  0
  1 33  1  0
  3 34  1  0
  3 35  1  0
  4 36  1  0
  4 37  1  0
  5 38  1  0
  9 39  1  0
 10 40  1  0
 12 41  1  0
 15 42  1  0
 16 43  1  0
 19 44  1  1
 20 45  1  0
 20 46  1  0
 21 47  1  0
 21 48  1  0
 22 49  1  0
 22 50  1  0
 23 51  1  6
 25 52  1  0
 26 53  1  0
 29 54  1  0
 30 55  1  0
M  END
>  <meeko>  (14) 
{"free_energy": -6.74, "intermolecular_energy": -8.53, "internal_energy": -3.36, "cluster_size": 8, "cluster_id": 3, "rank_in_cluster": 6}

$$$$

     RDKit          3D

 55 58  0  0  0  0  0  0  0  0999 V2000
  143.3110   80.0050  222.7930 C   0  0  0  0  0  0  0  0  0  0  0  0
  141.9910   79.9080  222.2460 N   0  0  0  0  0  0  0  0  0  0  0  0
  141.9000   80.8000  221.1150 C   0  0  0  0  0  0  0  0  0  0  0  0
  141.5520   80.1080  219.8360 C   0  0  0  0  0  0  0  0  0  0  0  0
  142.1910   78.7900  219.7300 N   0  0  0  0  0  0  0  0  0  0  0  0
  142.2270   78.0520  218.5280 C   0  0  0  0  0  0  0  0  0  0  0  0
  141.7110   78.4730  217.4610 O   0  0  0  0  0  0  0  0  0  0  0  0
  142.8940   76.7320  218.5190 C   0  0  0  0  0  0  0  0  0  0  0  0
  142.9760   75.9970  217.3550 C   0  0  0  0  0  0  0  0  0  0  0  0
  143.6030   74.7700  217.3690 C   0  0  0  0  0  0  0  0  0  0  0  0
  144.1630   74.2380  218.5180 C   0  0  0  0  0  0  0  0  0  0  0  0
  144.7870   73.0090  218.5140 C   0  0  0  0  0  0  0  0  0  0  0  0
  145.3210   72.5390  219.6960 C   0  0  0  0  0  0  0  0  0  0  0  0
  145.9330   71.3320  219.6850 F   0  0  0  0  0  0  0  0  0  0  0  0
  145.2460   73.2710  220.8750 C   0  0  0  0  0  0  0  0  0  0  0  0
  144.6070   74.5050  220.8330 C   0  0  0  0  0  0  0  0  0  0  0  0
  144.0560   75.0140  219.6740 C   0  0  0  0  0  0  0  0  0  0  0  0
  143.4360   76.2130  219.6340 N   0  0  0  0  0  0  0  0  0  0  0  0
  140.9670   80.1480  223.2560 C   0  0  1  0  0  0  0  0  0  0  0  0
  140.1010   81.3010  222.9580 C   0  0  0  0  0  0  0  0  0  0  0  0
  138.7140   80.8250  222.8020 C   0  0  0  0  0  0  0  0  0  0  0  0
  138.6600   79.5470  223.6020 C   0  0  0  0  0  0  0  0  0  0  0  0
  140.0790   78.9930  223.4740 C   0  0  1  0  0  0  0  0  0  0  0  0
  140.1460   77.9050  222.4870 C   0  0  0  0  0  0  0  0  0  0  0  0
  141.0490   76.8580  222.7030 C   0  0  0  0  0  0  0  0  0  0  0  0
  141.1420   75.8130  221.7980 C   0  0  0  0  0  0  0  0  0  0  0  0
  140.3700   75.7470  220.6620 C   0  0  0  0  0  0  0  0  0  0  0  0
  140.5000   74.4220  219.5350 Cl  0  0  0  0  0  0  0  0  0  0  0  0
  139.4810   76.7720  220.4430 C   0  0  0  0  0  0  0  0  0  0  0  0
  139.3800   77.8270  221.3470 C   0  0  0  0  0  0  0  0  0  0  0  0
  143.2539   80.0008  223.8915 H   0  0  0  0  0  0  0  0  0  0  0  0
  143.9123   79.1486  222.4538 H   0  0  0  0  0  0  0  0  0  0  0  0
  143.7807   80.9401  222.4538 H   0  0  0  0  0  0  0  0  0  0  0  0
  141.1253   81.5519  221.3260 H   0  0  0  0  0  0  0  0  0  0  0  0
  142.8936   81.2517  220.9785 H   0  0  0  0  0  0  0  0  0  0  0  0
  140.4607   79.9781  219.7884 H   0  0  0  0  0  0  0  0  0  0  0  0
  141.9163   80.7292  219.0045 H   0  0  0  0  0  0  0  0  0  0  0  0
  142.6450   78.3620  220.5720 H   0  0  0  0  0  0  0  0  0  0  0  0
  142.5439   76.3875  216.4218 H   0  0  0  0  0  0  0  0  0  0  0  0
  143.6606   74.1929  216.4343 H   0  0  0  0  0  0  0  0  0  0  0  0
  144.8576   72.4167  217.5898 H   0  0  0  0  0  0  0  0  0  0  0  0
  145.6781   72.8866  221.8107 H   0  0  0  0  0  0  0  0  0  0  0  0
  144.5379   75.0976  221.7572 H   0  0  0  0  0  0  0  0  0  0  0  0
  141.5591   80.3486  224.1611 H   0  0  0  0  0  0  0  0  0  0  0  0
  140.1526   82.0256  223.7840 H   0  0  0  0  0  0  0  0  0  0  0  0
  140.4351   81.7900  222.0310 H   0  0  0  0  0  0  0  0  0  0  0  0
  138.0026   81.5633  223.2005 H   0  0  0  0  0  0  0  0  0  0  0  0
  138.4415   80.6698  221.7476 H   0  0  0  0  0  0  0  0  0  0  0  0
  138.4096   79.7505  224.6536 H   0  0  0  0  0  0  0  0  0  0  0  0
  137.8903   78.8471  223.2445 H   0  0  0  0  0  0  0  0  0  0  0  0
  140.4266   78.4881  224.3874 H   0  0  0  0  0  0  0  0  0  0  0  0
  141.6893   76.8647  223.5974 H   0  0  0  0  0  0  0  0  0  0  0  0
  141.8614   75.0047  221.9960 H   0  0  0  0  0  0  0  0  0  0  0  0
  138.8439   76.7592  219.5464 H   0  0  0  0  0  0  0  0  0  0  0  0
  138.6580   78.6309  221.1408 H   0  0  0  0  0  0  0  0  0  0  0  0
  1  2  1  0
  2  3  1  0
  3  4  1  0
  4  5  1  0
  5  6  1  0
  6  7  2  0
  6  8  1  0
  8  9  2  0
  9 10  1  0
 10 11  2  0
 11 12  1  0
 12 13  2  0
 13 14  1  0
 13 15  1  0
 15 16  2  0
 16 17  1  0
 17 18  2  0
  2 19  1  0
 19 20  1  0
 20 21  1  0
 21 22  1  0
 22 23  1  0
 23 24  1  0
 24 25  2  0
 25 26  1  0
 26 27  2  0
 27 28  1  0
 27 29  1  0
 29 30  2  0
 18  8  1  0
 23 19  1  0
 30 24  1  0
 17 11  1  0
  1 31  1  0
  1 32  1  0
  1 33  1  0
  3 34  1  0
  3 35  1  0
  4 36  1  0
  4 37  1  0
  5 38  1  0
  9 39  1  0
 10 40  1  0
 12 41  1  0
 15 42  1  0
 16 43  1  0
 19 44  1  1
 20 45  1  0
 20 46  1  0
 21 47  1  0
 21 48  1  0
 22 49  1  0
 22 50  1  0
 23 51  1  1
 25 52  1  0
 26 53  1  0
 29 54  1  0
 30 55  1  0
M  END
>  <meeko>  (15) 
{"free_energy": -6.61, "intermolecular_energy": -8.4, "internal_energy": -3.75, "cluster_size": 7, "cluster_id": 4, "rank_in_cluster": 3}

$$$$

     RDKit          3D

 55 58  0  0  0  0  0  0  0  0999 V2000
  143.3110   80.0350  222.7490 C   0  0  0  0  0  0  0  0  0  0  0  0
  141.9840   80.0070  222.2110 N   0  0  0  0  0  0  0  0  0  0  0  0
  141.8950   81.0000  221.1670 C   0  0  0  0  0  0  0  0  0  0  0  0
  141.6050   80.4230  219.8180 C   0  0  0  0  0  0  0  0  0  0  0  0
  142.1980   79.0910  219.6490 N   0  0  0  0  0  0  0  0  0  0  0  0
  142.2540   78.4320  218.4020 C   0  0  0  0  0  0  0  0  0  0  0  0
  141.7970   78.9420  217.3470 O   0  0  0  0  0  0  0  0  0  0  0  0
  142.8720   77.0900  218.3300 C   0  0  0  0  0  0  0  0  0  0  0  0
  142.9290   76.4100  217.1320 C   0  0  0  0  0  0  0  0  0  0  0  0
  143.5110   75.1610  217.0880 C   0  0  0  0  0  0  0  0  0  0  0  0
  144.0490   74.5540  218.2090 C   0  0  0  0  0  0  0  0  0  0  0  0
  144.6270   73.3040  218.1470 C   0  0  0  0  0  0  0  0  0  0  0  0
  145.1430   72.7600  219.3050 C   0  0  0  0  0  0  0  0  0  0  0  0
  145.7090   71.5330  219.2350 F   0  0  0  0  0  0  0  0  0  0  0  0
  145.0920   73.4370  220.5170 C   0  0  0  0  0  0  0  0  0  0  0  0
  144.4990   74.6940  220.5340 C   0  0  0  0  0  0  0  0  0  0  0  0
  143.9690   75.2770  219.4010 C   0  0  0  0  0  0  0  0  0  0  0  0
  143.3940   76.4990  219.4180 N   0  0  0  0  0  0  0  0  0  0  0  0
  140.9750   80.1680  223.2510 C   0  0  1  0  0  0  0  0  0  0  0  0
  140.0300   81.2680  222.9930 C   0  0  0  0  0  0  0  0  0  0  0  0
  138.6730   80.7070  222.8650 C   0  0  0  0  0  0  0  0  0  0  0  0
  138.7200   79.4170  223.6470 C   0  0  0  0  0  0  0  0  0  0  0  0
  140.1670   78.9570  223.4740 C   0  0  1  0  0  0  0  0  0  0  0  0
  140.2760   77.8880  222.4690 C   0  0  0  0  0  0  0  0  0  0  0  0
  139.5270   77.9960  221.2910 C   0  0  0  0  0  0  0  0  0  0  0  0
  139.6020   77.0120  220.3190 C   0  0  0  0  0  0  0  0  0  0  0  0
  140.3980   75.8990  220.4520 C   0  0  0  0  0  0  0  0  0  0  0  0
  140.4810   74.6710  219.2160 Cl  0  0  0  0  0  0  0  0  0  0  0  0
  141.1360   75.7860  221.6070 C   0  0  0  0  0  0  0  0  0  0  0  0
  141.0670   76.7700  222.5900 C   0  0  0  0  0  0  0  0  0  0  0  0
  143.2612   80.0340  223.8479 H   0  0  0  0  0  0  0  0  0  0  0  0
  143.8644   79.1483  222.4062 H   0  0  0  0  0  0  0  0  0  0  0  0
  143.8265   80.9442  222.4062 H   0  0  0  0  0  0  0  0  0  0  0  0
  141.0906   81.7048  221.4245 H   0  0  0  0  0  0  0  0  0  0  0  0
  142.8767   81.4922  221.1041 H   0  0  0  0  0  0  0  0  0  0  0  0
  140.5150   80.3447  219.6924 H   0  0  0  0  0  0  0  0  0  0  0  0
  142.0466   81.0892  219.0622 H   0  0  0  0  0  0  0  0  0  0  0  0
  142.6030   78.5920  220.4770 H   0  0  0  0  0  0  0  0  0  0  0  0
  142.5134   76.8605  216.2186 H   0  0  0  0  0  0  0  0  0  0  0  0
  143.5491   74.6276  216.1267 H   0  0  0  0  0  0  0  0  0  0  0  0
  144.6756   72.7531  217.1962 H   0  0  0  0  0  0  0  0  0  0  0  0
  145.5074   72.9927  221.4335 H   0  0  0  0  0  0  0  0  0  0  0  0
  144.4504   75.2442  221.4853 H   0  0  0  0  0  0  0  0  0  0  0  0
  141.5779   80.3930  224.1431 H   0  0  0  0  0  0  0  0  0  0  0  0
  140.0574   81.9828  223.8286 H   0  0  0  0  0  0  0  0  0  0  0  0
  140.3079   81.7903  222.0656 H   0  0  0  0  0  0  0  0  0  0  0  0
  137.9270   81.3933  223.2922 H   0  0  0  0  0  0  0  0  0  0  0  0
  138.3839   80.5488  221.8155 H   0  0  0  0  0  0  0  0  0  0  0  0
  138.4851   79.5898  224.7076 H   0  0  0  0  0  0  0  0  0  0  0  0
  137.9866   78.6746  223.2993 H   0  0  0  0  0  0  0  0  0  0  0  0
  140.5701   78.4638  224.3708 H   0  0  0  0  0  0  0  0  0  0  0  0
  138.8746   78.8681  221.1364 H   0  0  0  0  0  0  0  0  0  0  0  0
  139.0010   77.1256  219.4047 H   0  0  0  0  0  0  0  0  0  0  0  0
  141.7861   74.9112  221.7555 H   0  0  0  0  0  0  0  0  0  0  0  0
  141.6706   76.6476  223.5014 H   0  0  0  0  0  0  0  0  0  0  0  0
  1  2  1  0
  2  3  1  0
  3  4  1  0
  4  5  1  0
  5  6  1  0
  6  7  2  0
  6  8  1  0
  8  9  2  0
  9 10  1  0
 10 11  2  0
 11 12  1  0
 12 13  2  0
 13 14  1  0
 13 15  1  0
 15 16  2  0
 16 17  1  0
 17 18  2  0
  2 19  1  0
 19 20  1  0
 20 21  1  0
 21 22  1  0
 22 23  1  0
 23 24  1  0
 24 25  2  0
 25 26  1  0
 26 27  2  0
 27 28  1  0
 27 29  1  0
 29 30  2  0
 18  8  1  0
 23 19  1  0
 30 24  1  0
 17 11  1  0
  1 31  1  0
  1 32  1  0
  1 33  1  0
  3 34  1  0
  3 35  1  0
  4 36  1  0
  4 37  1  0
  5 38  1  0
  9 39  1  0
 10 40  1  0
 12 41  1  0
 15 42  1  0
 16 43  1  0
 19 44  1  1
 20 45  1  0
 20 46  1  0
 21 47  1  0
 21 48  1  0
 22 49  1  0
 22 50  1  0
 23 51  1  1
 25 52  1  0
 26 53  1  0
 29 54  1  0
 30 55  1  0
M  END
>  <meeko>  (16) 
{"free_energy": -6.4, "intermolecular_energy": -8.19, "internal_energy": -3.84, "cluster_size": 7, "cluster_id": 4, "rank_in_cluster": 5}

$$$$

     RDKit          3D

 55 58  0  0  0  0  0  0  0  0999 V2000
  143.1420   79.9260  222.8750 C   0  0  0  0  0  0  0  0  0  0  0  0
  141.8490   79.8830  222.2610 N   0  0  0  0  0  0  0  0  0  0  0  0
  141.8520   80.7810  221.1300 C   0  0  0  0  0  0  0  0  0  0  0  0
  141.5480   80.1060  219.8310 C   0  0  0  0  0  0  0  0  0  0  0  0
  142.1980   78.7940  219.7260 N   0  0  0  0  0  0  0  0  0  0  0  0
  142.1820   78.0250  218.5430 C   0  0  0  0  0  0  0  0  0  0  0  0
  141.6050   78.4120  217.4940 O   0  0  0  0  0  0  0  0  0  0  0  0
  142.8670   76.7150  218.5320 C   0  0  0  0  0  0  0  0  0  0  0  0
  142.9460   75.9760  217.3690 C   0  0  0  0  0  0  0  0  0  0  0  0
  143.5900   74.7580  217.3820 C   0  0  0  0  0  0  0  0  0  0  0  0
  144.1690   74.2380  218.5270 C   0  0  0  0  0  0  0  0  0  0  0  0
  144.8100   73.0170  218.5220 C   0  0  0  0  0  0  0  0  0  0  0  0
  145.3630   72.5600  219.7000 C   0  0  0  0  0  0  0  0  0  0  0  0
  145.9910   71.3610  219.6870 F   0  0  0  0  0  0  0  0  0  0  0  0
  145.2910   73.2960  220.8760 C   0  0  0  0  0  0  0  0  0  0  0  0
  144.6350   74.5210  220.8360 C   0  0  0  0  0  0  0  0  0  0  0  0
  144.0650   75.0170  219.6800 C   0  0  0  0  0  0  0  0  0  0  0  0
  143.4290   76.2070  219.6420 N   0  0  0  0  0  0  0  0  0  0  0  0
  140.7850   80.1600  223.2180 C   0  0  1  0  0  0  0  0  0  0  0  0
  139.9270   81.2960  222.8370 C   0  0  0  0  0  0  0  0  0  0  0  0
  138.5500   80.8060  222.6460 C   0  0  0  0  0  0  0  0  0  0  0  0
  138.4680   79.5630  223.4980 C   0  0  0  0  0  0  0  0  0  0  0  0
  139.8930   79.0110  223.4500 C   0  0  1  0  0  0  0  0  0  0  0  0
  140.0030   77.8820  222.5130 C   0  0  0  0  0  0  0  0  0  0  0  0
  141.0190   76.9410  222.7140 C   0  0  0  0  0  0  0  0  0  0  0  0
  141.1550   75.8620  221.8550 C   0  0  0  0  0  0  0  0  0  0  0  0
  140.3210   75.6600  220.7820 C   0  0  0  0  0  0  0  0  0  0  0  0
  140.5070   74.2950  219.7120 Cl  0  0  0  0  0  0  0  0  0  0  0  0
  139.3210   76.5820  220.5780 C   0  0  0  0  0  0  0  0  0  0  0  0
  139.1750   77.6690  221.4350 C   0  0  0  0  0  0  0  0  0  0  0  0
  143.0286   79.9222  223.9691 H   0  0  0  0  0  0  0  0  0  0  0  0
  143.7251   79.0468  222.5638 H   0  0  0  0  0  0  0  0  0  0  0  0
  143.6654   80.8421  222.5638 H   0  0  0  0  0  0  0  0  0  0  0  0
  141.0954   81.5606  221.3026 H   0  0  0  0  0  0  0  0  0  0  0  0
  142.8677   81.1955  221.0490 H   0  0  0  0  0  0  0  0  0  0  0  0
  140.4596   79.9705  219.7477 H   0  0  0  0  0  0  0  0  0  0  0  0
  141.9338   80.7414  219.0202 H   0  0  0  0  0  0  0  0  0  0  0  0
  142.7030   78.3940  220.5530 H   0  0  0  0  0  0  0  0  0  0  0  0
  142.4983   76.3564  216.4390 H   0  0  0  0  0  0  0  0  0  0  0  0
  143.6461   74.1779  216.4491 H   0  0  0  0  0  0  0  0  0  0  0  0
  144.8787   72.4213  217.5998 H   0  0  0  0  0  0  0  0  0  0  0  0
  145.7385   72.9216  221.8085 H   0  0  0  0  0  0  0  0  0  0  0  0
  144.5675   75.1167  221.7583 H   0  0  0  0  0  0  0  0  0  0  0  0
  141.3401   80.4016  224.1365 H   0  0  0  0  0  0  0  0  0  0  0  0
  139.9426   82.0548  223.6332 H   0  0  0  0  0  0  0  0  0  0  0  0
  140.2963   81.7480  221.9046 H   0  0  0  0  0  0  0  0  0  0  0  0
  137.8202   81.5569  222.9829 H   0  0  0  0  0  0  0  0  0  0  0  0
  138.3215   80.6038  221.5892 H   0  0  0  0  0  0  0  0  0  0  0  0
  138.1755   79.8103  224.5291 H   0  0  0  0  0  0  0  0  0  0  0  0
  137.7152   78.8447  223.1412 H   0  0  0  0  0  0  0  0  0  0  0  0
  140.2055   78.5470  224.3972 H   0  0  0  0  0  0  0  0  0  0  0  0
  141.7137   77.0584  223.5587 H   0  0  0  0  0  0  0  0  0  0  0  0
  141.9628   75.1385  222.0396 H   0  0  0  0  0  0  0  0  0  0  0  0
  138.6307   76.4593  219.7304 H   0  0  0  0  0  0  0  0  0  0  0  0
  138.3644   78.3872  221.2425 H   0  0  0  0  0  0  0  0  0  0  0  0
  1  2  1  0
  2  3  1  0
  3  4  1  0
  4  5  1  0
  5  6  1  0
  6  7  2  0
  6  8  1  0
  8  9  2  0
  9 10  1  0
 10 11  2  0
 11 12  1  0
 12 13  2  0
 13 14  1  0
 13 15  1  0
 15 16  2  0
 16 17  1  0
 17 18  2  0
  2 19  1  0
 19 20  1  0
 20 21  1  0
 21 22  1  0
 22 23  1  0
 23 24  1  0
 24 25  2  0
 25 26  1  0
 26 27  2  0
 27 28  1  0
 27 29  1  0
 29 30  2  0
 18  8  1  0
 23 19  1  0
 30 24  1  0
 17 11  1  0
  1 31  1  0
  1 32  1  0
  1 33  1  0
  3 34  1  0
  3 35  1  0
  4 36  1  0
  4 37  1  0
  5 38  1  0
  9 39  1  0
 10 40  1  0
 12 41  1  0
 15 42  1  0
 16 43  1  0
 19 44  1  1
 20 45  1  0
 20 46  1  0
 21 47  1  0
 21 48  1  0
 22 49  1  0
 22 50  1  0
 23 51  1  1
 25 52  1  0
 26 53  1  0
 29 54  1  0
 30 55  1  0
M  END
>  <meeko>  (17) 
{"free_energy": -6.63, "intermolecular_energy": -8.42, "internal_energy": -3.66, "cluster_size": 7, "cluster_id": 4, "rank_in_cluster": 2}

$$$$

     RDKit          3D

 55 58  0  0  0  0  0  0  0  0999 V2000
  138.7470   79.7100  220.6540 C   0  0  0  0  0  0  0  0  0  0  0  0
  139.4080   79.0850  221.7600 N   0  0  0  0  0  0  0  0  0  0  0  0
  138.4110   78.4420  222.5830 C   0  0  0  0  0  0  0  0  0  0  0  0
  138.5860   76.9610  222.6830 C   0  0  0  0  0  0  0  0  0  0  0  0
  139.6180   76.4630  221.7650 N   0  0  0  0  0  0  0  0  0  0  0  0
  139.9620   75.0980  221.6680 C   0  0  0  0  0  0  0  0  0  0  0  0
  139.4070   74.2110  222.3660 O   0  0  0  0  0  0  0  0  0  0  0  0
  141.0150   74.6920  220.7120 C   0  0  0  0  0  0  0  0  0  0  0  0
  140.7040   74.4500  219.3900 C   0  0  0  0  0  0  0  0  0  0  0  0
  141.7010   74.0730  218.5170 C   0  0  0  0  0  0  0  0  0  0  0  0
  143.0190   73.9260  218.9160 C   0  0  0  0  0  0  0  0  0  0  0  0
  144.0040   73.5490  218.0280 C   0  0  0  0  0  0  0  0  0  0  0  0
  145.2960   73.4210  218.4950 C   0  0  0  0  0  0  0  0  0  0  0  0
  146.2570   73.0500  217.6180 F   0  0  0  0  0  0  0  0  0  0  0  0
  145.6200   73.6630  219.8240 C   0  0  0  0  0  0  0  0  0  0  0  0
  144.5960   74.0410  220.6840 C   0  0  0  0  0  0  0  0  0  0  0  0
  143.2890   74.1800  220.2620 C   0  0  0  0  0  0  0  0  0  0  0  0
  142.2940   74.5470  221.0980 N   0  0  0  0  0  0  0  0  0  0  0  0
  140.2450   80.0280  222.4940 C   0  0  1  0  0  0  0  0  0  0  0  0
  140.6600   79.5400  223.8210 C   0  0  0  0  0  0  0  0  0  0  0  0
  142.1300   79.4330  223.8470 C   0  0  0  0  0  0  0  0  0  0  0  0
  142.6010   80.4180  222.8060 C   0  0  0  0  0  0  0  0  0  0  0  0
  141.4730   80.4030  221.7740 C   0  0  1  0  0  0  0  0  0  0  0  0
  141.8300   79.5950  220.5970 C   0  0  0  0  0  0  0  0  0  0  0  0
  142.1110   78.2360  220.7770 C   0  0  0  0  0  0  0  0  0  0  0  0
  142.4500   77.4410  219.6950 C   0  0  0  0  0  0  0  0  0  0  0  0
  142.5270   77.9290  218.4120 C   0  0  0  0  0  0  0  0  0  0  0  0
  142.9530   76.9120  217.0610 Cl  0  0  0  0  0  0  0  0  0  0  0  0
  142.2520   79.2640  218.2280 C   0  0  0  0  0  0  0  0  0  0  0  0
  141.9110   80.0720  219.3100 C   0  0  0  0  0  0  0  0  0  0  0  0
  137.9958   80.4203  221.0296 H   0  0  0  0  0  0  0  0  0  0  0  0
  139.4858   80.2475  220.0414 H   0  0  0  0  0  0  0  0  0  0  0  0
  138.2517   78.9423  220.0414 H   0  0  0  0  0  0  0  0  0  0  0  0
  138.4673   78.8685  223.5954 H   0  0  0  0  0  0  0  0  0  0  0  0
  137.4349   78.6214  222.1087 H   0  0  0  0  0  0  0  0  0  0  0  0
  138.8755   76.7069  223.7134 H   0  0  0  0  0  0  0  0  0  0  0  0
  137.6317   76.4881  222.4081 H   0  0  0  0  0  0  0  0  0  0  0  0
  140.1320   77.1340  221.1450 H   0  0  0  0  0  0  0  0  0  0  0  0
  139.6682   74.5572  219.0356 H   0  0  0  0  0  0  0  0  0  0  0  0
  141.4408   73.8819  217.4654 H   0  0  0  0  0  0  0  0  0  0  0  0
  143.7654   73.3548  216.9719 H   0  0  0  0  0  0  0  0  0  0  0  0
  146.6541   73.5587  220.1841 H   0  0  0  0  0  0  0  0  0  0  0  0
  144.8356   74.2366  221.7396 H   0  0  0  0  0  0  0  0  0  0  0  0
  139.5883   80.9035  222.6050 H   0  0  0  0  0  0  0  0  0  0  0  0
  140.3265   80.2460  224.5959 H   0  0  0  0  0  0  0  0  0  0  0  0
  140.2092   78.5558  224.0161 H   0  0  0  0  0  0  0  0  0  0  0  0
  142.5214   79.7001  224.8397 H   0  0  0  0  0  0  0  0  0  0  0  0
  142.4778   78.4099  223.6412 H   0  0  0  0  0  0  0  0  0  0  0  0
  142.7251   81.4211  223.2399 H   0  0  0  0  0  0  0  0  0  0  0  0
  143.5803   80.1576  222.3780 H   0  0  0  0  0  0  0  0  0  0  0  0
  141.2915   81.3891  221.3216 H   0  0  0  0  0  0  0  0  0  0  0  0
  142.0623   77.7965  221.7842 H   0  0  0  0  0  0  0  0  0  0  0  0
  142.6663   76.3766  219.8690 H   0  0  0  0  0  0  0  0  0  0  0  0
  142.3018   79.6971  217.2181 H   0  0  0  0  0  0  0  0  0  0  0  0
  141.6977   81.1356  219.1274 H   0  0  0  0  0  0  0  0  0  0  0  0
  1  2  1  0
  2  3  1  0
  3  4  1  0
  4  5  1  0
  5  6  1  0
  6  7  2  0
  6  8  1  0
  8  9  2  0
  9 10  1  0
 10 11  2  0
 11 12  1  0
 12 13  2  0
 13 14  1  0
 13 15  1  0
 15 16  2  0
 16 17  1  0
 17 18  2  0
  2 19  1  0
 19 20  1  0
 20 21  1  0
 21 22  1  0
 22 23  1  0
 23 24  1  0
 24 25  2  0
 25 26  1  0
 26 27  2  0
 27 28  1  0
 27 29  1  0
 29 30  2  0
 18  8  1  0
 23 19  1  0
 30 24  1  0
 17 11  1  0
  1 31  1  0
  1 32  1  0
  1 33  1  0
  3 34  1  0
  3 35  1  0
  4 36  1  0
  4 37  1  0
  5 38  1  0
  9 39  1  0
 10 40  1  0
 12 41  1  0
 15 42  1  0
 16 43  1  0
 19 44  1  1
 20 45  1  0
 20 46  1  0
 21 47  1  0
 21 48  1  0
 22 49  1  0
 22 50  1  0
 23 51  1  6
 25 52  1  0
 26 53  1  0
 29 54  1  0
 30 55  1  0
M  END
>  <meeko>  (18) 
{"free_energy": -6.65, "intermolecular_energy": -8.44, "internal_energy": -3.33, "cluster_size": 8, "cluster_id": 3, "rank_in_cluster": 7}

$$$$

     RDKit          3D

 55 58  0  0  0  0  0  0  0  0999 V2000
  140.9400   76.0220  221.2780 C   0  0  0  0  0  0  0  0  0  0  0  0
  141.4080   75.0000  220.3900 N   0  0  0  0  0  0  0  0  0  0  0  0
  140.3510   74.0340  220.2110 C   0  0  0  0  0  0  0  0  0  0  0  0
  139.2450   74.1660  221.2090 C   0  0  0  0  0  0  0  0  0  0  0  0
  139.4220   73.2620  222.3520 N   0  0  0  0  0  0  0  0  0  0  0  0
  139.4530   71.8570  222.2180 C   0  0  0  0  0  0  0  0  0  0  0  0
  139.3290   71.2820  221.1060 O   0  0  0  0  0  0  0  0  0  0  0  0
  139.6370   71.0270  223.4280 C   0  0  0  0  0  0  0  0  0  0  0  0
  139.2870   69.6930  223.4220 C   0  0  0  0  0  0  0  0  0  0  0  0
  139.4680   68.9390  224.5610 C   0  0  0  0  0  0  0  0  0  0  0  0
  139.9960   69.4700  225.7250 C   0  0  0  0  0  0  0  0  0  0  0  0
  140.1710   68.7000  226.8550 C   0  0  0  0  0  0  0  0  0  0  0  0
  140.7010   69.2960  227.9810 C   0  0  0  0  0  0  0  0  0  0  0  0
  140.8700   68.5340  229.0860 F   0  0  0  0  0  0  0  0  0  0  0  0
  141.0600   70.6380  227.9980 C   0  0  0  0  0  0  0  0  0  0  0  0
  140.8650   71.3770  226.8370 C   0  0  0  0  0  0  0  0  0  0  0  0
  140.3360   70.8230  225.6880 C   0  0  0  0  0  0  0  0  0  0  0  0
  140.1480   71.5410  224.5600 N   0  0  0  0  0  0  0  0  0  0  0  0
  142.6580   74.4120  220.8540 C   0  0  1  0  0  0  0  0  0  0  0  0
  142.6590   72.9390  220.8410 C   0  0  0  0  0  0  0  0  0  0  0  0
  143.7030   72.4730  219.9100 C   0  0  0  0  0  0  0  0  0  0  0  0
  144.7000   73.6050  219.8610 C   0  0  0  0  0  0  0  0  0  0  0  0
  143.8320   74.8450  220.0770 C   0  0  1  0  0  0  0  0  0  0  0  0
  143.5710   75.5480  218.8110 C   0  0  0  0  0  0  0  0  0  0  0  0
  143.1710   76.8880  218.8580 C   0  0  0  0  0  0  0  0  0  0  0  0
  142.9170   77.5860  217.6890 C   0  0  0  0  0  0  0  0  0  0  0  0
  143.0410   77.0150  216.4450 C   0  0  0  0  0  0  0  0  0  0  0  0
  142.7180   77.9100  214.9830 Cl  0  0  0  0  0  0  0  0  0  0  0  0
  143.4330   75.6980  216.3900 C   0  0  0  0  0  0  0  0  0  0  0  0
  143.6900   74.9880  217.5610 C   0  0  0  0  0  0  0  0  0  0  0  0
  141.0879   75.6991  222.3191 H   0  0  0  0  0  0  0  0  0  0  0  0
  141.5030   76.9498  221.0984 H   0  0  0  0  0  0  0  0  0  0  0  0
  139.8698   76.2019  221.0984 H   0  0  0  0  0  0  0  0  0  0  0  0
  139.9281   74.1636  219.2038 H   0  0  0  0  0  0  0  0  0  0  0  0
  140.7963   73.0381  220.3523 H   0  0  0  0  0  0  0  0  0  0  0  0
  139.2209   75.2024  221.5768 H   0  0  0  0  0  0  0  0  0  0  0  0
  138.3029   73.8984  220.7081 H   0  0  0  0  0  0  0  0  0  0  0  0
  139.5340   73.6560  223.3160 H   0  0  0  0  0  0  0  0  0  0  0  0
  138.8666   69.2344  222.5148 H   0  0  0  0  0  0  0  0  0  0  0  0
  139.1826   67.8768  224.5446 H   0  0  0  0  0  0  0  0  0  0  0  0
  139.8946   67.6353  226.8589 H   0  0  0  0  0  0  0  0  0  0  0  0
  141.4848   71.1007  228.9010 H   0  0  0  0  0  0  0  0  0  0  0  0
  141.1421   72.4415  226.8333 H   0  0  0  0  0  0  0  0  0  0  0  0
  142.7307   74.7782  221.8887 H   0  0  0  0  0  0  0  0  0  0  0  0
  142.8695   72.5605  221.8521 H   0  0  0  0  0  0  0  0  0  0  0  0
  141.6758   72.5673  220.5166 H   0  0  0  0  0  0  0  0  0  0  0  0
  144.1766   71.5540  220.2857 H   0  0  0  0  0  0  0  0  0  0  0  0
  143.2984   72.2293  218.9166 H   0  0  0  0  0  0  0  0  0  0  0  0
  145.4501   73.5047  220.6593 H   0  0  0  0  0  0  0  0  0  0  0  0
  145.2708   73.6365  218.9212 H   0  0  0  0  0  0  0  0  0  0  0  0
  144.3374   75.6244  220.6662 H   0  0  0  0  0  0  0  0  0  0  0  0
  143.0575   77.3905  219.8299 H   0  0  0  0  0  0  0  0  0  0  0  0
  142.6039   78.6382  217.7589 H   0  0  0  0  0  0  0  0  0  0  0  0
  143.5444   75.2016  215.4147 H   0  0  0  0  0  0  0  0  0  0  0  0
  144.0010   73.9358  217.4821 H   0  0  0  0  0  0  0  0  0  0  0  0
  1  2  1  0
  2  3  1  0
  3  4  1  0
  4  5  1  0
  5  6  1  0
  6  7  2  0
  6  8  1  0
  8  9  2  0
  9 10  1  0
 10 11  2  0
 11 12  1  0
 12 13  2  0
 13 14  1  0
 13 15  1  0
 15 16  2  0
 16 17  1  0
 17 18  2  0
  2 19  1  0
 19 20  1  0
 20 21  1  0
 21 22  1  0
 22 23  1  0
 23 24  1  0
 24 25  2  0
 25 26  1  0
 26 27  2  0
 27 28  1  0
 27 29  1  0
 29 30  2  0
 18  8  1  0
 23 19  1  0
 30 24  1  0
 17 11  1  0
  1 31  1  0
  1 32  1  0
  1 33  1  0
  3 34  1  0
  3 35  1  0
  4 36  1  0
  4 37  1  0
  5 38  1  0
  9 39  1  0
 10 40  1  0
 12 41  1  0
 15 42  1  0
 16 43  1  0
 19 44  1  1
 20 45  1  0
 20 46  1  0
 21 47  1  0
 21 48  1  0
 22 49  1  0
 22 50  1  0
 23 51  1  1
 25 52  1  0
 26 53  1  0
 29 54  1  0
 30 55  1  0
M  END
>  <meeko>  (19) 
{"free_energy": -7.63, "intermolecular_energy": -9.42, "internal_energy": -1.92, "cluster_size": 1, "cluster_id": 2, "rank_in_cluster": 1}

$$$$

     RDKit          3D

 55 58  0  0  0  0  0  0  0  0999 V2000
  143.2080   80.0370  222.7370 C   0  0  0  0  0  0  0  0  0  0  0  0
  141.8820   80.0950  222.2000 N   0  0  0  0  0  0  0  0  0  0  0  0
  141.8340   81.1530  221.2190 C   0  0  0  0  0  0  0  0  0  0  0  0
  141.6650   80.6600  219.8170 C   0  0  0  0  0  0  0  0  0  0  0  0
  142.1990   79.3040  219.6410 N   0  0  0  0  0  0  0  0  0  0  0  0
  142.2530   78.6600  218.3870 C   0  0  0  0  0  0  0  0  0  0  0  0
  141.8430   79.2050  217.3300 O   0  0  0  0  0  0  0  0  0  0  0  0
  142.8100   77.2930  218.3080 C   0  0  0  0  0  0  0  0  0  0  0  0
  142.7820   76.5930  217.1190 C   0  0  0  0  0  0  0  0  0  0  0  0
  143.3080   75.3200  217.0690 C   0  0  0  0  0  0  0  0  0  0  0  0
  143.8700   74.7070  218.1750 C   0  0  0  0  0  0  0  0  0  0  0  0
  144.3920   73.4320  218.1060 C   0  0  0  0  0  0  0  0  0  0  0  0
  144.9370   72.8830  219.2480 C   0  0  0  0  0  0  0  0  0  0  0  0
  145.4470   71.6310  219.1730 F   0  0  0  0  0  0  0  0  0  0  0  0
  144.9720   73.5780  220.4500 C   0  0  0  0  0  0  0  0  0  0  0  0
  144.4340   74.8600  220.4740 C   0  0  0  0  0  0  0  0  0  0  0  0
  143.8770   75.4500  219.3570 C   0  0  0  0  0  0  0  0  0  0  0  0
  143.3560   76.6950  219.3810 N   0  0  0  0  0  0  0  0  0  0  0  0
  140.8780   80.2310  223.2480 C   0  0  1  0  0  0  0  0  0  0  0  0
  139.9020   81.3060  222.9970 C   0  0  0  0  0  0  0  0  0  0  0  0
  138.5590   80.7090  222.8820 C   0  0  0  0  0  0  0  0  0  0  0  0
  138.6470   79.4230  223.6670 C   0  0  0  0  0  0  0  0  0  0  0  0
  140.1050   79.0000  223.4810 C   0  0  1  0  0  0  0  0  0  0  0  0
  140.2330   77.9320  222.4770 C   0  0  0  0  0  0  0  0  0  0  0  0
  139.4750   78.0210  221.3040 C   0  0  0  0  0  0  0  0  0  0  0  0
  139.5670   77.0370  220.3330 C   0  0  0  0  0  0  0  0  0  0  0  0
  140.3890   75.9430  220.4640 C   0  0  0  0  0  0  0  0  0  0  0  0
  140.4930   74.7150  219.2290 Cl  0  0  0  0  0  0  0  0  0  0  0  0
  141.1360   75.8490  221.6140 C   0  0  0  0  0  0  0  0  0  0  0  0
  141.0500   76.8320  222.5960 C   0  0  0  0  0  0  0  0  0  0  0  0
  143.1590   80.0391  223.8359 H   0  0  0  0  0  0  0  0  0  0  0  0
  143.7026   79.1164  222.3938 H   0  0  0  0  0  0  0  0  0  0  0  0
  143.7811   80.9109  222.3938 H   0  0  0  0  0  0  0  0  0  0  0  0
  140.9879   81.8132  221.4602 H   0  0  0  0  0  0  0  0  0  0  0  0
  142.7993   81.6786  221.2628 H   0  0  0  0  0  0  0  0  0  0  0  0
  140.5932   80.6541  219.5697 H   0  0  0  0  0  0  0  0  0  0  0  0
  142.2242   81.3337  219.1510 H   0  0  0  0  0  0  0  0  0  0  0  0
  142.5620   78.7750  220.4700 H   0  0  0  0  0  0  0  0  0  0  0  0
  142.3434   77.0474  216.2184 H   0  0  0  0  0  0  0  0  0  0  0  0
  143.2800   74.7717  216.1158 H   0  0  0  0  0  0  0  0  0  0  0  0
  144.3741   72.8665  217.1626 H   0  0  0  0  0  0  0  0  0  0  0  0
  145.4109   73.1291  221.3532 H   0  0  0  0  0  0  0  0  0  0  0  0
  144.4529   75.4249  221.4177 H   0  0  0  0  0  0  0  0  0  0  0  0
  141.4827   80.4734  224.1344 H   0  0  0  0  0  0  0  0  0  0  0  0
  139.9181   82.0226  223.8314 H   0  0  0  0  0  0  0  0  0  0  0  0
  140.1578   81.8342  222.0666 H   0  0  0  0  0  0  0  0  0  0  0  0
  137.7988   81.3765  223.3138 H   0  0  0  0  0  0  0  0  0  0  0  0
  138.2651   80.5403  221.8355 H   0  0  0  0  0  0  0  0  0  0  0  0
  138.4179   79.5928  224.7294 H   0  0  0  0  0  0  0  0  0  0  0  0
  137.9298   78.6607  223.3285 H   0  0  0  0  0  0  0  0  0  0  0  0
  140.5291   78.5190  224.3748 H   0  0  0  0  0  0  0  0  0  0  0  0
  138.8019   78.8776  221.1519 H   0  0  0  0  0  0  0  0  0  0  0  0
  138.9586   77.1350  219.4218 H   0  0  0  0  0  0  0  0  0  0  0  0
  141.8074   74.9899  221.7596 H   0  0  0  0  0  0  0  0  0  0  0  0
  141.6607   76.7245  223.5046 H   0  0  0  0  0  0  0  0  0  0  0  0
  1  2  1  0
  2  3  1  0
  3  4  1  0
  4  5  1  0
  5  6  1  0
  6  7  2  0
  6  8  1  0
  8  9  2  0
  9 10  1  0
 10 11  2  0
 11 12  1  0
 12 13  2  0
 13 14  1  0
 13 15  1  0
 15 16  2  0
 16 17  1  0
 17 18  2  0
  2 19  1  0
 19 20  1  0
 20 21  1  0
 21 22  1  0
 22 23  1  0
 23 24  1  0
 24 25  2  0
 25 26  1  0
 26 27  2  0
 27 28  1  0
 27 29  1  0
 29 30  2  0
 18  8  1  0
 23 19  1  0
 30 24  1  0
 17 11  1  0
  1 31  1  0
  1 32  1  0
  1 33  1  0
  3 34  1  0
  3 35  1  0
  4 36  1  0
  4 37  1  0
  5 38  1  0
  9 39  1  0
 10 40  1  0
 12 41  1  0
 15 42  1  0
 16 43  1  0
 19 44  1  1
 20 45  1  0
 20 46  1  0
 21 47  1  0
 21 48  1  0
 22 49  1  0
 22 50  1  0
 23 51  1  1
 25 52  1  0
 26 53  1  0
 29 54  1  0
 30 55  1  0
M  END
>  <meeko>  (20) 
{"free_energy": -6.3, "intermolecular_energy": -8.09, "internal_energy": -3.91, "cluster_size": 7, "cluster_id": 4, "rank_in_cluster": 7}

$$$$
