
     RDKit          3D

 54 57  0  0  0  0  0  0  0  0999 V2000
  141.3510   73.4650  221.4320 O   0  0  0  0  0  0  0  0  0  0  0  0
  140.3520   73.3530  222.1970 C   0  0  0  0  0  0  0  0  0  0  0  0
  139.4850   74.5290  222.3450 N   0  0  0  0  0  0  0  0  0  0  0  0
  139.8860   75.6600  221.5990 C   0  0  0  0  0  0  0  0  0  0  0  0
  139.4670   77.0040  221.9720 C   0  0  0  0  0  0  0  0  0  0  0  0
  138.1740   77.0360  222.2500 O   0  0  0  0  0  0  0  0  0  0  0  0
  140.1040   78.2200  222.0940 N   0  0  0  0  0  0  0  0  0  0  0  0
  140.3630   78.9260  223.3700 C   0  0  0  0  0  0  0  0  0  0  0  0
  141.8330   78.7290  223.6240 C   0  0  0  0  0  0  0  0  0  0  0  0
  142.5460   79.5770  222.5840 C   0  0  0  0  0  0  0  0  0  0  0  0
  141.6730   79.9810  221.4540 C   0  0  0  0  0  0  0  0  0  0  0  0
  140.6880   78.9690  220.9550 C   0  0  1  0  0  0  0  0  0  0  0  0
  141.1840   78.0630  219.9220 C   0  0  0  0  0  0  0  0  0  0  0  0
  142.3170   77.1420  220.2710 C   0  0  0  0  0  0  0  0  0  0  0  0
  142.4740   76.4580  218.9010 C   0  0  0  0  0  0  0  0  0  0  0  0
  142.1650   77.5670  217.8850 C   0  0  0  0  0  0  0  0  0  0  0  0
  141.8890   78.8050  218.7640 C   0  0  0  0  0  0  0  0  0  0  0  0
  140.0390   72.1380  222.9120 C   0  0  0  0  0  0  0  0  0  0  0  0
  139.2750   71.1920  222.2650 C   0  0  0  0  0  0  0  0  0  0  0  0
  138.9380   70.0210  222.8700 C   0  0  0  0  0  0  0  0  0  0  0  0
  139.3610   69.7640  224.1530 C   0  0  0  0  0  0  0  0  0  0  0  0
  139.0040   68.5680  224.7440 C   0  0  0  0  0  0  0  0  0  0  0  0
  139.4330   68.3220  226.0320 C   0  0  0  0  0  0  0  0  0  0  0  0
  140.2010   69.2710  226.6860 C   0  0  0  0  0  0  0  0  0  0  0  0
  140.7170   68.8960  228.3250 Cl  0  0  0  0  0  0  0  0  0  0  0  0
  140.5390   70.4560  226.0640 C   0  0  0  0  0  0  0  0  0  0  0  0
  140.1230   70.7230  224.7830 C   0  0  0  0  0  0  0  0  0  0  0  0
  140.4440   71.8730  224.1640 N   0  0  0  0  0  0  0  0  0  0  0  0
  138.7150   74.3750  222.9940 H   0  0  0  0  0  0  0  0  0  0  0  0
  140.9860   75.6639  221.6080 H   0  0  0  0  0  0  0  0  0  0  0  0
  139.3678   75.5077  220.6407 H   0  0  0  0  0  0  0  0  0  0  0  0
  140.1255   79.9960  223.2765 H   0  0  0  0  0  0  0  0  0  0  0  0
  139.7431   78.5399  224.1926 H   0  0  0  0  0  0  0  0  0  0  0  0
  142.0955   79.0644  224.6382 H   0  0  0  0  0  0  0  0  0  0  0  0
  142.1198   77.6696  223.5507 H   0  0  0  0  0  0  0  0  0  0  0  0
  142.9241   80.4859  223.0748 H   0  0  0  0  0  0  0  0  0  0  0  0
  143.3568   78.9631  222.1647 H   0  0  0  0  0  0  0  0  0  0  0  0
  141.1043   80.8662  221.7751 H   0  0  0  0  0  0  0  0  0  0  0  0
  142.3594   80.1487  220.6109 H   0  0  0  0  0  0  0  0  0  0  0  0
  139.9066   79.5512  220.4447 H   0  0  0  0  0  0  0  0  0  0  0  0
  140.2407   77.5360  219.7159 H   0  0  0  0  0  0  0  0  0  0  0  0
  143.2228   77.6910  220.5679 H   0  0  0  0  0  0  0  0  0  0  0  0
  142.1457   76.4717  221.1262 H   0  0  0  0  0  0  0  0  0  0  0  0
  143.4994   76.0827  218.7682 H   0  0  0  0  0  0  0  0  0  0  0  0
  141.8109   75.5877  218.7876 H   0  0  0  0  0  0  0  0  0  0  0  0
  143.0249   77.7413  217.2215 H   0  0  0  0  0  0  0  0  0  0  0  0
  141.3209   77.3167  217.2256 H   0  0  0  0  0  0  0  0  0  0  0  0
  142.8135   79.3061  219.0867 H   0  0  0  0  0  0  0  0  0  0  0  0
  141.3292   79.6269  218.2937 H   0  0  0  0  0  0  0  0  0  0  0  0
  138.9305   71.3872  221.2387 H   0  0  0  0  0  0  0  0  0  0  0  0
  138.3274   69.2801  222.3331 H   0  0  0  0  0  0  0  0  0  0  0  0
  138.3935   67.8307  224.2020 H   0  0  0  0  0  0  0  0  0  0  0  0
  139.1674   67.3805  226.5350 H   0  0  0  0  0  0  0  0  0  0  0  0
  141.1497   71.1962  226.6017 H   0  0  0  0  0  0  0  0  0  0  0  0
  1  2  2  0
  2  3  1  0
  3  4  1  0
  4  5  1  0
  5  6  2  0
  5  7  1  0
  7  8  1  0
  8  9  1  0
  9 10  1  0
 10 11  1  0
 11 12  1  0
 12 13  1  0
 13 14  1  0
 14 15  1  0
 15 16  1  0
 16 17  1  0
  2 18  1  0
 18 19  2  0
 19 20  1  0
 20 21  2  0
 21 22  1  0
 22 23  2  0
 23 24  1  0
 24 25  1  0
 24 26  2  0
 26 27  1  0
 27 28  2  0
 12  7  1  0
 17 13  1  0
 28 18  1  0
 27 21  1  0
  3 29  1  0
  4 30  1  0
  4 31  1  0
  8 32  1  0
  8 33  1  0
  9 34  1  0
  9 35  1  0
 10 36  1  0
 10 37  1  0
 11 38  1  0
 11 39  1  0
 12 40  1  6
 13 41  1  0
 14 42  1  0
 14 43  1  0
 15 44  1  0
 15 45  1  0
 16 46  1  0
 16 47  1  0
 17 48  1  0
 17 49  1  0
 19 50  1  0
 20 51  1  0
 22 52  1  0
 23 53  1  0
 26 54  1  0
M  END
>  <meeko>  (1) 
{"free_energy": -8.18, "intermolecular_energy": -9.68, "internal_energy": -1.4, "cluster_size": 7, "cluster_id": 1, "rank_in_cluster": 2}

$$$$

     RDKit          3D

 54 57  0  0  0  0  0  0  0  0999 V2000
  139.8960   79.3950  219.0090 O   0  0  0  0  0  0  0  0  0  0  0  0
  140.9720   79.0680  219.5850 C   0  0  0  0  0  0  0  0  0  0  0  0
  141.8990   80.1500  219.9400 N   0  0  0  0  0  0  0  0  0  0  0  0
  141.4640   81.4460  219.5860 C   0  0  0  0  0  0  0  0  0  0  0  0
  140.6000   82.2240  220.4620 C   0  0  0  0  0  0  0  0  0  0  0  0
  140.9490   83.5000  220.4580 O   0  0  0  0  0  0  0  0  0  0  0  0
  139.5270   81.9320  221.2750 N   0  0  0  0  0  0  0  0  0  0  0  0
  138.1020   82.0380  220.8830 C   0  0  0  0  0  0  0  0  0  0  0  0
  137.6550   80.6160  220.6770 C   0  0  0  0  0  0  0  0  0  0  0  0
  137.6090   79.9960  222.0640 C   0  0  0  0  0  0  0  0  0  0  0  0
  138.3580   80.7730  223.0820 C   0  0  0  0  0  0  0  0  0  0  0  0
  139.6500   81.3960  222.6530 C   0  0  1  0  0  0  0  0  0  0  0  0
  140.8340   80.5520  222.7890 C   0  0  0  0  0  0  0  0  0  0  0  0
  140.7430   79.3400  223.6710 C   0  0  0  0  0  0  0  0  0  0  0  0
  142.1890   78.8400  223.5080 C   0  0  0  0  0  0  0  0  0  0  0  0
  143.0250   80.1230  223.4000 C   0  0  0  0  0  0  0  0  0  0  0  0
  141.9840   81.2530  223.5470 C   0  0  0  0  0  0  0  0  0  0  0  0
  141.3130   77.7000  219.8990 C   0  0  0  0  0  0  0  0  0  0  0  0
  140.3040   76.8750  220.3450 C   0  0  0  0  0  0  0  0  0  0  0  0
  140.5440   75.5740  220.6620 C   0  0  0  0  0  0  0  0  0  0  0  0
  141.8120   75.0590  220.5390 C   0  0  0  0  0  0  0  0  0  0  0  0
  142.0280   73.7350  220.8680 C   0  0  0  0  0  0  0  0  0  0  0  0
  143.3060   73.2310  220.7410 C   0  0  0  0  0  0  0  0  0  0  0  0
  144.3220   74.0570  220.2930 C   0  0  0  0  0  0  0  0  0  0  0  0
  145.9290   73.3520  220.1540 Cl  0  0  0  0  0  0  0  0  0  0  0  0
  144.0700   75.3760  219.9740 C   0  0  0  0  0  0  0  0  0  0  0  0
  142.8070   75.9010  220.0920 C   0  0  0  0  0  0  0  0  0  0  0  0
  142.5470   77.1830  219.7850 N   0  0  0  0  0  0  0  0  0  0  0  0
  142.7550   79.8110  220.3770 H   0  0  0  0  0  0  0  0  0  0  0  0
  142.3724   82.0471  219.4324 H   0  0  0  0  0  0  0  0  0  0  0  0
  140.8103   81.2487  218.7236 H   0  0  0  0  0  0  0  0  0  0  0  0
  137.5151   82.5174  221.6803 H   0  0  0  0  0  0  0  0  0  0  0  0
  137.9633   82.6524  219.9811 H   0  0  0  0  0  0  0  0  0  0  0  0
  136.6585   80.5905  220.2119 H   0  0  0  0  0  0  0  0  0  0  0  0
  138.3362   80.0683  220.0092 H   0  0  0  0  0  0  0  0  0  0  0  0
  136.5578   79.9283  222.3810 H   0  0  0  0  0  0  0  0  0  0  0  0
  138.0866   79.0076  221.9938 H   0  0  0  0  0  0  0  0  0  0  0  0
  137.6999   81.5826  223.4306 H   0  0  0  0  0  0  0  0  0  0  0  0
  138.6392   80.0373  223.8499 H   0  0  0  0  0  0  0  0  0  0  0  0
  139.8251   82.2162  223.3647 H   0  0  0  0  0  0  0  0  0  0  0  0
  140.9715   80.3095  221.7249 H   0  0  0  0  0  0  0  0  0  0  0  0
  140.5085   79.6012  224.7135 H   0  0  0  0  0  0  0  0  0  0  0  0
  139.9533   78.6181  223.4157 H   0  0  0  0  0  0  0  0  0  0  0  0
  142.4969   78.2469  224.3817 H   0  0  0  0  0  0  0  0  0  0  0  0
  142.3106   78.1847  222.6329 H   0  0  0  0  0  0  0  0  0  0  0  0
  143.7733   80.1722  224.2047 H   0  0  0  0  0  0  0  0  0  0  0  0
  143.5904   80.1848  222.4584 H   0  0  0  0  0  0  0  0  0  0  0  0
  141.7315   81.4581  224.5978 H   0  0  0  0  0  0  0  0  0  0  0  0
  142.2814   82.2463  223.1796 H   0  0  0  0  0  0  0  0  0  0  0  0
  139.2847   77.2759  220.4468 H   0  0  0  0  0  0  0  0  0  0  0  0
  139.7227   74.9341  221.0169 H   0  0  0  0  0  0  0  0  0  0  0  0
  141.2030   73.0993  221.2219 H   0  0  0  0  0  0  0  0  0  0  0  0
  143.5157   72.1812  220.9938 H   0  0  0  0  0  0  0  0  0  0  0  0
  144.8924   76.0153  219.6204 H   0  0  0  0  0  0  0  0  0  0  0  0
  1  2  2  0
  2  3  1  0
  3  4  1  0
  4  5  1  0
  5  6  2  0
  5  7  1  0
  7  8  1  0
  8  9  1  0
  9 10  1  0
 10 11  1  0
 11 12  1  0
 12 13  1  0
 13 14  1  0
 14 15  1  0
 15 16  1  0
 16 17  1  0
  2 18  1  0
 18 19  2  0
 19 20  1  0
 20 21  2  0
 21 22  1  0
 22 23  2  0
 23 24  1  0
 24 25  1  0
 24 26  2  0
 26 27  1  0
 27 28  2  0
 12  7  1  0
 17 13  1  0
 28 18  1  0
 27 21  1  0
  3 29  1  0
  4 30  1  0
  4 31  1  0
  8 32  1  0
  8 33  1  0
  9 34  1  0
  9 35  1  0
 10 36  1  0
 10 37  1  0
 11 38  1  0
 11 39  1  0
 12 40  1  1
 13 41  1  0
 14 42  1  0
 14 43  1  0
 15 44  1  0
 15 45  1  0
 16 46  1  0
 16 47  1  0
 17 48  1  0
 17 49  1  0
 19 50  1  0
 20 51  1  0
 22 52  1  0
 23 53  1  0
 26 54  1  0
M  END
>  <meeko>  (2) 
{"free_energy": -6.65, "intermolecular_energy": -8.14, "internal_energy": -2.69, "cluster_size": 4, "cluster_id": 5, "rank_in_cluster": 2}

$$$$

     RDKit          3D

 54 57  0  0  0  0  0  0  0  0999 V2000
  140.4550   73.4830  222.2910 O   0  0  0  0  0  0  0  0  0  0  0  0
  140.2370   74.4550  221.5140 C   0  0  0  0  0  0  0  0  0  0  0  0
  140.2400   74.1760  220.0720 N   0  0  0  0  0  0  0  0  0  0  0  0
  140.4920   72.8290  219.7280 C   0  0  0  0  0  0  0  0  0  0  0  0
  141.8450   72.3400  219.5090 C   0  0  0  0  0  0  0  0  0  0  0  0
  141.8770   71.4650  218.5180 O   0  0  0  0  0  0  0  0  0  0  0  0
  143.0700   72.5800  220.0930 N   0  0  0  0  0  0  0  0  0  0  0  0
  144.0670   71.5420  220.4470 C   0  0  0  0  0  0  0  0  0  0  0  0
  145.1370   71.6670  219.3970 C   0  0  0  0  0  0  0  0  0  0  0  0
  145.8500   72.9750  219.6910 C   0  0  0  0  0  0  0  0  0  0  0  0
  145.0820   73.8760  220.5850 C   0  0  0  0  0  0  0  0  0  0  0  0
  143.5990   73.9330  220.3900 C   0  0  1  0  0  0  0  0  0  0  0  0
  143.1290   74.9120  219.4120 C   0  0  0  0  0  0  0  0  0  0  0  0
  143.6530   74.8210  218.0080 C   0  0  0  0  0  0  0  0  0  0  0  0
  142.9130   76.0340  217.4180 C   0  0  0  0  0  0  0  0  0  0  0  0
  142.8740   77.0520  218.5670 C   0  0  0  0  0  0  0  0  0  0  0  0
  143.6300   76.3440  219.7110 C   0  0  0  0  0  0  0  0  0  0  0  0
  139.9910   75.8000  221.9830 C   0  0  0  0  0  0  0  0  0  0  0  0
  138.6800   76.1970  222.1260 C   0  0  0  0  0  0  0  0  0  0  0  0
  138.3660   77.4470  222.5620 C   0  0  0  0  0  0  0  0  0  0  0  0
  139.3650   78.3400  222.8690 C   0  0  0  0  0  0  0  0  0  0  0  0
  139.0170   79.6020  223.3100 C   0  0  0  0  0  0  0  0  0  0  0  0
  140.0290   80.4890  223.6140 C   0  0  0  0  0  0  0  0  0  0  0  0
  141.3470   80.0930  223.4710 C   0  0  0  0  0  0  0  0  0  0  0  0
  142.5890   81.2710  223.8750 Cl  0  0  0  0  0  0  0  0  0  0  0  0
  141.6580   78.8230  223.0270 C   0  0  0  0  0  0  0  0  0  0  0  0
  140.6680   77.9220  222.7180 C   0  0  0  0  0  0  0  0  0  0  0  0
  140.9560   76.6830  222.2850 N   0  0  0  0  0  0  0  0  0  0  0  0
  140.0840   75.0090  219.5060 H   0  0  0  0  0  0  0  0  0  0  0  0
  140.0685   72.2174  220.5383 H   0  0  0  0  0  0  0  0  0  0  0  0
  140.0487   72.7547  218.7240 H   0  0  0  0  0  0  0  0  0  0  0  0
  144.4824   71.7285  221.4484 H   0  0  0  0  0  0  0  0  0  0  0  0
  143.6269   70.5343  220.4750 H   0  0  0  0  0  0  0  0  0  0  0  0
  145.8400   70.8236  219.4634 H   0  0  0  0  0  0  0  0  0  0  0  0
  144.7133   71.6547  218.3820 H   0  0  0  0  0  0  0  0  0  0  0  0
  146.8137   72.7470  220.1699 H   0  0  0  0  0  0  0  0  0  0  0  0
  145.9763   73.4990  218.7321 H   0  0  0  0  0  0  0  0  0  0  0  0
  145.2673   73.5519  221.6197 H   0  0  0  0  0  0  0  0  0  0  0  0
  145.4387   74.8877  220.3417 H   0  0  0  0  0  0  0  0  0  0  0  0
  143.1948   74.2961  221.3464 H   0  0  0  0  0  0  0  0  0  0  0  0
  142.0524   74.7003  219.4906 H   0  0  0  0  0  0  0  0  0  0  0  0
  144.7458   74.9388  217.9636 H   0  0  0  0  0  0  0  0  0  0  0  0
  143.4890   73.8618  217.4950 H   0  0  0  0  0  0  0  0  0  0  0  0
  143.4597   76.4417  216.5549 H   0  0  0  0  0  0  0  0  0  0  0  0
  141.9084   75.7755  217.0520 H   0  0  0  0  0  0  0  0  0  0  0  0
  143.3808   77.9855  218.2810 H   0  0  0  0  0  0  0  0  0  0  0  0
  141.8496   77.3386  218.8472 H   0  0  0  0  0  0  0  0  0  0  0  0
  144.7218   76.4364  219.6140 H   0  0  0  0  0  0  0  0  0  0  0  0
  143.4524   76.7249  220.7275 H   0  0  0  0  0  0  0  0  0  0  0  0
  137.8723   75.4908  221.8834 H   0  0  0  0  0  0  0  0  0  0  0  0
  137.3120   77.7432  222.6689 H   0  0  0  0  0  0  0  0  0  0  0  0
  137.9612   79.8920  223.4159 H   0  0  0  0  0  0  0  0  0  0  0  0
  139.7900   81.5029  223.9673 H   0  0  0  0  0  0  0  0  0  0  0  0
  142.7124   78.5288  222.9193 H   0  0  0  0  0  0  0  0  0  0  0  0
  1  2  2  0
  2  3  1  0
  3  4  1  0
  4  5  1  0
  5  6  2  0
  5  7  1  0
  7  8  1  0
  8  9  1  0
  9 10  1  0
 10 11  1  0
 11 12  1  0
 12 13  1  0
 13 14  1  0
 14 15  1  0
 15 16  1  0
 16 17  1  0
  2 18  1  0
 18 19  2  0
 19 20  1  0
 20 21  2  0
 21 22  1  0
 22 23  2  0
 23 24  1  0
 24 25  1  0
 24 26  2  0
 26 27  1  0
 27 28  2  0
 12  7  1  0
 17 13  1  0
 28 18  1  0
 27 21  1  0
  3 29  1  0
  4 30  1  0
  4 31  1  0
  8 32  1  0
  8 33  1  0
  9 34  1  0
  9 35  1  0
 10 36  1  0
 10 37  1  0
 11 38  1  0
 11 39  1  0
 12 40  1  1
 13 41  1  0
 14 42  1  0
 14 43  1  0
 15 44  1  0
 15 45  1  0
 16 46  1  0
 16 47  1  0
 17 48  1  0
 17 49  1  0
 19 50  1  0
 20 51  1  0
 22 52  1  0
 23 53  1  0
 26 54  1  0
M  END
>  <meeko>  (3) 
{"free_energy": -7.35, "intermolecular_energy": -8.84, "internal_energy": -2.18, "cluster_size": 6, "cluster_id": 3, "rank_in_cluster": 2}

$$$$

     RDKit          3D

 54 57  0  0  0  0  0  0  0  0999 V2000
  140.2040   74.9140  219.3870 O   0  0  0  0  0  0  0  0  0  0  0  0
  140.7000   74.6270  220.5130 C   0  0  0  0  0  0  0  0  0  0  0  0
  141.7450   75.5190  221.0330 N   0  0  0  0  0  0  0  0  0  0  0  0
  142.0710   76.6060  220.1920 C   0  0  0  0  0  0  0  0  0  0  0  0
  141.9190   77.9840  220.6370 C   0  0  0  0  0  0  0  0  0  0  0  0
  141.9150   78.8150  219.6090 O   0  0  0  0  0  0  0  0  0  0  0  0
  141.7830   78.5980  221.8640 N   0  0  0  0  0  0  0  0  0  0  0  0
  142.6030   79.7340  222.3460 C   0  0  0  0  0  0  0  0  0  0  0  0
  141.6970   80.9310  222.2400 C   0  0  0  0  0  0  0  0  0  0  0  0
  140.6480   80.7490  223.3240 C   0  0  0  0  0  0  0  0  0  0  0  0
  140.5750   79.3620  223.8450 C   0  0  0  0  0  0  0  0  0  0  0  0
  140.7390   78.2490  222.8570 C   0  0  1  0  0  0  0  0  0  0  0  0
  139.5130   77.8020  222.2020 C   0  0  0  0  0  0  0  0  0  0  0  0
  138.2350   78.5250  222.5170 C   0  0  0  0  0  0  0  0  0  0  0  0
  137.2860   77.6870  221.6420 C   0  0  0  0  0  0  0  0  0  0  0  0
  137.8510   76.2620  221.7240 C   0  0  0  0  0  0  0  0  0  0  0  0
  139.0600   76.4000  222.6730 C   0  0  0  0  0  0  0  0  0  0  0  0
  140.2860   73.4800  221.2890 C   0  0  0  0  0  0  0  0  0  0  0  0
  139.4170   72.5890  220.6980 C   0  0  0  0  0  0  0  0  0  0  0  0
  138.9790   71.4850  221.3620 C   0  0  0  0  0  0  0  0  0  0  0  0
  139.4040   71.2420  222.6460 C   0  0  0  0  0  0  0  0  0  0  0  0
  138.9440   70.1140  223.2970 C   0  0  0  0  0  0  0  0  0  0  0  0
  139.3770   69.8810  224.5860 C   0  0  0  0  0  0  0  0  0  0  0  0
  140.2510   70.7740  225.1820 C   0  0  0  0  0  0  0  0  0  0  0  0
  140.7650   70.4200  226.8270 Cl  0  0  0  0  0  0  0  0  0  0  0  0
  140.6890   71.8920  224.5010 C   0  0  0  0  0  0  0  0  0  0  0  0
  140.2720   72.1450  223.2180 C   0  0  0  0  0  0  0  0  0  0  0  0
  140.6910   73.2300  222.5430 N   0  0  0  0  0  0  0  0  0  0  0  0
  142.1170   75.2120  221.9310 H   0  0  0  0  0  0  0  0  0  0  0  0
  143.1300   76.4823  219.9212 H   0  0  0  0  0  0  0  0  0  0  0  0
  141.3119   76.5281  219.3997 H   0  0  0  0  0  0  0  0  0  0  0  0
  142.9133   79.5735  223.3890 H   0  0  0  0  0  0  0  0  0  0  0  0
  143.5267   79.8581  221.7617 H   0  0  0  0  0  0  0  0  0  0  0  0
  142.2649   81.8580  222.4075 H   0  0  0  0  0  0  0  0  0  0  0  0
  141.2408   81.0082  221.2420 H   0  0  0  0  0  0  0  0  0  0  0  0
  140.8888   81.4232  224.1592 H   0  0  0  0  0  0  0  0  0  0  0  0
  139.6713   80.9788  222.8731 H   0  0  0  0  0  0  0  0  0  0  0  0
  141.3653   79.2512  224.6021 H   0  0  0  0  0  0  0  0  0  0  0  0
  139.5475   79.2555  224.2231 H   0  0  0  0  0  0  0  0  0  0  0  0
  141.0560   77.3787  223.4503 H   0  0  0  0  0  0  0  0  0  0  0  0
  139.8421   77.9305  221.1603 H   0  0  0  0  0  0  0  0  0  0  0  0
  137.9765   78.4663  223.5846 H   0  0  0  0  0  0  0  0  0  0  0  0
  138.2356   79.6080  222.3241 H   0  0  0  0  0  0  0  0  0  0  0  0
  136.2597   77.7223  222.0364 H   0  0  0  0  0  0  0  0  0  0  0  0
  137.2314   78.0579  220.6079 H   0  0  0  0  0  0  0  0  0  0  0  0
  137.1049   75.5678  222.1380 H   0  0  0  0  0  0  0  0  0  0  0  0
  138.1269   75.8562  220.7395 H   0  0  0  0  0  0  0  0  0  0  0  0
  138.7662   76.3871  223.7330 H   0  0  0  0  0  0  0  0  0  0  0  0
  139.8132   75.5995  222.6291 H   0  0  0  0  0  0  0  0  0  0  0  0
  139.0709   72.7735  219.6703 H   0  0  0  0  0  0  0  0  0  0  0  0
  138.2848   70.7871  220.8710 H   0  0  0  0  0  0  0  0  0  0  0  0
  138.2504   69.4194  222.8005 H   0  0  0  0  0  0  0  0  0  0  0  0
  139.0307   68.9932  225.1355 H   0  0  0  0  0  0  0  0  0  0  0  0
  141.3820   72.5900  224.9935 H   0  0  0  0  0  0  0  0  0  0  0  0
  1  2  2  0
  2  3  1  0
  3  4  1  0
  4  5  1  0
  5  6  2  0
  5  7  1  0
  7  8  1  0
  8  9  1  0
  9 10  1  0
 10 11  1  0
 11 12  1  0
 12 13  1  0
 13 14  1  0
 14 15  1  0
 15 16  1  0
 16 17  1  0
  2 18  1  0
 18 19  2  0
 19 20  1  0
 20 21  2  0
 21 22  1  0
 22 23  2  0
 23 24  1  0
 24 25  1  0
 24 26  2  0
 26 27  1  0
 27 28  2  0
 12  7  1  0
 17 13  1  0
 28 18  1  0
 27 21  1  0
  3 29  1  0
  4 30  1  0
  4 31  1  0
  8 32  1  0
  8 33  1  0
  9 34  1  0
  9 35  1  0
 10 36  1  0
 10 37  1  0
 11 38  1  0
 11 39  1  0
 12 40  1  1
 13 41  1  0
 14 42  1  0
 14 43  1  0
 15 44  1  0
 15 45  1  0
 16 46  1  0
 16 47  1  0
 17 48  1  0
 17 49  1  0
 19 50  1  0
 20 51  1  0
 22 52  1  0
 23 53  1  0
 26 54  1  0
M  END
>  <meeko>  (4) 
{"free_energy": -7.07, "intermolecular_energy": -8.56, "internal_energy": -2.3, "cluster_size": 7, "cluster_id": 1, "rank_in_cluster": 6}

$$$$

     RDKit          3D

 54 57  0  0  0  0  0  0  0  0999 V2000
  140.1400   75.1870  219.3960 O   0  0  0  0  0  0  0  0  0  0  0  0
  140.6690   74.8170  220.4820 C   0  0  0  0  0  0  0  0  0  0  0  0
  141.7840   75.6230  220.9940 N   0  0  0  0  0  0  0  0  0  0  0  0
  142.1330   76.7320  220.1920 C   0  0  0  0  0  0  0  0  0  0  0  0
  141.9000   78.0980  220.6390 C   0  0  0  0  0  0  0  0  0  0  0  0
  141.7990   78.9220  219.6090 O   0  0  0  0  0  0  0  0  0  0  0  0
  141.7670   78.7080  221.8680 N   0  0  0  0  0  0  0  0  0  0  0  0
  142.5810   79.8480  222.3500 C   0  0  0  0  0  0  0  0  0  0  0  0
  141.6650   81.0380  222.2520 C   0  0  0  0  0  0  0  0  0  0  0  0
  140.6240   80.8450  223.3410 C   0  0  0  0  0  0  0  0  0  0  0  0
  140.5630   79.4560  223.8580 C   0  0  0  0  0  0  0  0  0  0  0  0
  140.7300   78.3480  222.8660 C   0  0  1  0  0  0  0  0  0  0  0  0
  139.5030   77.8940  222.2150 C   0  0  0  0  0  0  0  0  0  0  0  0
  138.2240   78.6120  222.5330 C   0  0  0  0  0  0  0  0  0  0  0  0
  137.2760   77.7680  221.6630 C   0  0  0  0  0  0  0  0  0  0  0  0
  137.8470   76.3460  221.7470 C   0  0  0  0  0  0  0  0  0  0  0  0
  139.0590   76.4910  222.6920 C   0  0  0  0  0  0  0  0  0  0  0  0
  140.2250   73.6570  221.2210 C   0  0  0  0  0  0  0  0  0  0  0  0
  139.2840   72.8430  220.6290 C   0  0  0  0  0  0  0  0  0  0  0  0
  138.8150   71.7320  221.2590 C   0  0  0  0  0  0  0  0  0  0  0  0
  139.2800   71.4040  222.5100 C   0  0  0  0  0  0  0  0  0  0  0  0
  138.7870   70.2710  223.1260 C   0  0  0  0  0  0  0  0  0  0  0  0
  139.2600   69.9530  224.3830 C   0  0  0  0  0  0  0  0  0  0  0  0
  140.2060   70.7680  224.9800 C   0  0  0  0  0  0  0  0  0  0  0  0
  140.7680   70.3070  226.5820 Cl  0  0  0  0  0  0  0  0  0  0  0  0
  140.6760   71.8940  224.3340 C   0  0  0  0  0  0  0  0  0  0  0  0
  140.2190   72.2310  223.0840 C   0  0  0  0  0  0  0  0  0  0  0  0
  140.6680   73.3240  222.4430 N   0  0  0  0  0  0  0  0  0  0  0  0
  142.1770   75.2530  221.8580 H   0  0  0  0  0  0  0  0  0  0  0  0
  143.2129   76.6484  219.9999 H   0  0  0  0  0  0  0  0  0  0  0  0
  141.4377   76.6389  219.3447 H   0  0  0  0  0  0  0  0  0  0  0  0
  142.8973   79.6864  223.3911 H   0  0  0  0  0  0  0  0  0  0  0  0
  143.5013   79.9809  221.7623 H   0  0  0  0  0  0  0  0  0  0  0  0
  142.2265   81.9691  222.4186 H   0  0  0  0  0  0  0  0  0  0  0  0
  141.2027   81.1140  221.2568 H   0  0  0  0  0  0  0  0  0  0  0  0
  140.8651   81.5180  224.1771 H   0  0  0  0  0  0  0  0  0  0  0  0
  139.6433   81.0694  222.8962 H   0  0  0  0  0  0  0  0  0  0  0  0
  141.3576   79.3482  224.6110 H   0  0  0  0  0  0  0  0  0  0  0  0
  139.5382   79.3412  224.2408 H   0  0  0  0  0  0  0  0  0  0  0  0
  141.0563   77.4782  223.4550 H   0  0  0  0  0  0  0  0  0  0  0  0
  139.8267   78.0214  221.1714 H   0  0  0  0  0  0  0  0  0  0  0  0
  137.9695   78.5544  223.6016 H   0  0  0  0  0  0  0  0  0  0  0  0
  138.2192   79.6946  222.3382 H   0  0  0  0  0  0  0  0  0  0  0  0
  136.2508   77.8000  222.0603 H   0  0  0  0  0  0  0  0  0  0  0  0
  137.2169   78.1360  220.6281 H   0  0  0  0  0  0  0  0  0  0  0  0
  137.1051   75.6499  222.1653 H   0  0  0  0  0  0  0  0  0  0  0  0
  138.1215   75.9390  220.7626 H   0  0  0  0  0  0  0  0  0  0  0  0
  138.7691   76.4795  223.7530 H   0  0  0  0  0  0  0  0  0  0  0  0
  139.8156   75.6938  222.6482 H   0  0  0  0  0  0  0  0  0  0  0  0
  138.9047   73.0962  219.6280 H   0  0  0  0  0  0  0  0  0  0  0  0
  138.0638   71.0965  220.7672 H   0  0  0  0  0  0  0  0  0  0  0  0
  138.0372   69.6386  222.6282 H   0  0  0  0  0  0  0  0  0  0  0  0
  138.8883   69.0594  224.9059 H   0  0  0  0  0  0  0  0  0  0  0  0
  141.4264   72.5294  224.8272 H   0  0  0  0  0  0  0  0  0  0  0  0
  1  2  2  0
  2  3  1  0
  3  4  1  0
  4  5  1  0
  5  6  2  0
  5  7  1  0
  7  8  1  0
  8  9  1  0
  9 10  1  0
 10 11  1  0
 11 12  1  0
 12 13  1  0
 13 14  1  0
 14 15  1  0
 15 16  1  0
 16 17  1  0
  2 18  1  0
 18 19  2  0
 19 20  1  0
 20 21  2  0
 21 22  1  0
 22 23  2  0
 23 24  1  0
 24 25  1  0
 24 26  2  0
 26 27  1  0
 27 28  2  0
 12  7  1  0
 17 13  1  0
 28 18  1  0
 27 21  1  0
  3 29  1  0
  4 30  1  0
  4 31  1  0
  8 32  1  0
  8 33  1  0
  9 34  1  0
  9 35  1  0
 10 36  1  0
 10 37  1  0
 11 38  1  0
 11 39  1  0
 12 40  1  1
 13 41  1  0
 14 42  1  0
 14 43  1  0
 15 44  1  0
 15 45  1  0
 16 46  1  0
 16 47  1  0
 17 48  1  0
 17 49  1  0
 19 50  1  0
 20 51  1  0
 22 52  1  0
 23 53  1  0
 26 54  1  0
M  END
>  <meeko>  (5) 
{"free_energy": -7.06, "intermolecular_energy": -8.55, "internal_energy": -2.33, "cluster_size": 1, "cluster_id": 4, "rank_in_cluster": 1}

$$$$

     RDKit          3D

 54 57  0  0  0  0  0  0  0  0999 V2000
  140.5810   73.5110  222.2030 O   0  0  0  0  0  0  0  0  0  0  0  0
  140.2940   74.4900  221.4560 C   0  0  0  0  0  0  0  0  0  0  0  0
  140.2330   74.2360  220.0110 N   0  0  0  0  0  0  0  0  0  0  0  0
  140.5080   72.9040  219.6300 C   0  0  0  0  0  0  0  0  0  0  0  0
  141.8680   72.3850  219.6040 C   0  0  0  0  0  0  0  0  0  0  0  0
  141.9660   71.3540  218.7820 O   0  0  0  0  0  0  0  0  0  0  0  0
  143.0480   72.7230  220.2320 N   0  0  0  0  0  0  0  0  0  0  0  0
  144.0750   71.7610  220.6980 C   0  0  0  0  0  0  0  0  0  0  0  0
  145.1910   71.8800  219.6960 C   0  0  0  0  0  0  0  0  0  0  0  0
  145.8220   73.2400  219.9450 C   0  0  0  0  0  0  0  0  0  0  0  0
  144.9650   74.1500  220.7430 C   0  0  0  0  0  0  0  0  0  0  0  0
  143.4930   74.1170  220.4710 C   0  0  1  0  0  0  0  0  0  0  0  0
  143.0260   75.0110  219.4140 C   0  0  0  0  0  0  0  0  0  0  0  0
  143.7010   74.9380  218.0740 C   0  0  0  0  0  0  0  0  0  0  0  0
  142.9030   76.0460  217.3650 C   0  0  0  0  0  0  0  0  0  0  0  0
  142.6380   77.0860  218.4630 C   0  0  0  0  0  0  0  0  0  0  0  0
  143.3400   76.4970  219.7050 C   0  0  0  0  0  0  0  0  0  0  0  0
  140.0310   75.8170  221.9630 C   0  0  0  0  0  0  0  0  0  0  0  0
  138.7150   76.1850  222.1390 C   0  0  0  0  0  0  0  0  0  0  0  0
  138.3850   77.4180  222.6110 C   0  0  0  0  0  0  0  0  0  0  0  0
  139.3720   78.3220  222.9220 C   0  0  0  0  0  0  0  0  0  0  0  0
  139.0080   79.5660  223.4000 C   0  0  0  0  0  0  0  0  0  0  0  0
  140.0080   80.4650  223.7080 C   0  0  0  0  0  0  0  0  0  0  0  0
  141.3310   80.0980  223.5320 C   0  0  0  0  0  0  0  0  0  0  0  0
  142.5570   81.2910  223.9430 Cl  0  0  0  0  0  0  0  0  0  0  0  0
  141.6570   78.8460  223.0520 C   0  0  0  0  0  0  0  0  0  0  0  0
  140.6800   77.9340  222.7380 C   0  0  0  0  0  0  0  0  0  0  0  0
  140.9830   76.7110  222.2700 N   0  0  0  0  0  0  0  0  0  0  0  0
  140.0230   75.0730  219.4700 H   0  0  0  0  0  0  0  0  0  0  0  0
  139.9437   72.2608  220.3213 H   0  0  0  0  0  0  0  0  0  0  0  0
  140.2340   72.9017  218.5647 H   0  0  0  0  0  0  0  0  0  0  0  0
  144.4277   72.0275  221.7052 H   0  0  0  0  0  0  0  0  0  0  0  0
  143.6842   70.7350  220.7664 H   0  0  0  0  0  0  0  0  0  0  0  0
  145.9305   71.0801  219.8484 H   0  0  0  0  0  0  0  0  0  0  0  0
  144.8225   71.7856  218.6639 H   0  0  0  0  0  0  0  0  0  0  0  0
  146.7693   73.0914  220.4840 H   0  0  0  0  0  0  0  0  0  0  0  0
  145.9718   73.7130  218.9633 H   0  0  0  0  0  0  0  0  0  0  0  0
  145.1113   73.8972  221.8035 H   0  0  0  0  0  0  0  0  0  0  0  0
  145.2837   75.1632  220.4569 H   0  0  0  0  0  0  0  0  0  0  0  0
  143.0220   74.5140  221.3823 H   0  0  0  0  0  0  0  0  0  0  0  0
  141.9752   74.6863  219.3928 H   0  0  0  0  0  0  0  0  0  0  0  0
  144.7739   75.1729  218.1356 H   0  0  0  0  0  0  0  0  0  0  0  0
  143.6937   73.9526  217.5852 H   0  0  0  0  0  0  0  0  0  0  0  0
  143.4906   76.4857  216.5457 H   0  0  0  0  0  0  0  0  0  0  0  0
  141.9747   75.6696  216.9104 H   0  0  0  0  0  0  0  0  0  0  0  0
  143.0716   78.0602  218.1929 H   0  0  0  0  0  0  0  0  0  0  0  0
  141.5656   77.2680  218.6267 H   0  0  0  0  0  0  0  0  0  0  0  0
  144.4202   76.7044  219.7154 H   0  0  0  0  0  0  0  0  0  0  0  0
  143.0178   76.8854  220.6824 H   0  0  0  0  0  0  0  0  0  0  0  0
  137.9166   75.4692  221.8936 H   0  0  0  0  0  0  0  0  0  0  0  0
  137.3277   77.6911  222.7436 H   0  0  0  0  0  0  0  0  0  0  0  0
  137.9489   79.8326  223.5315 H   0  0  0  0  0  0  0  0  0  0  0  0
  139.7561   81.4652  224.0903 H   0  0  0  0  0  0  0  0  0  0  0  0
  142.7147   78.5748  222.9191 H   0  0  0  0  0  0  0  0  0  0  0  0
  1  2  2  0
  2  3  1  0
  3  4  1  0
  4  5  1  0
  5  6  2  0
  5  7  1  0
  7  8  1  0
  8  9  1  0
  9 10  1  0
 10 11  1  0
 11 12  1  0
 12 13  1  0
 13 14  1  0
 14 15  1  0
 15 16  1  0
 16 17  1  0
  2 18  1  0
 18 19  2  0
 19 20  1  0
 20 21  2  0
 21 22  1  0
 22 23  2  0
 23 24  1  0
 24 25  1  0
 24 26  2  0
 26 27  1  0
 27 28  2  0
 12  7  1  0
 17 13  1  0
 28 18  1  0
 27 21  1  0
  3 29  1  0
  4 30  1  0
  4 31  1  0
  8 32  1  0
  8 33  1  0
  9 34  1  0
  9 35  1  0
 10 36  1  0
 10 37  1  0
 11 38  1  0
 11 39  1  0
 12 40  1  1
 13 41  1  0
 14 42  1  0
 14 43  1  0
 15 44  1  0
 15 45  1  0
 16 46  1  0
 16 47  1  0
 17 48  1  0
 17 49  1  0
 19 50  1  0
 20 51  1  0
 22 52  1  0
 23 53  1  0
 26 54  1  0
M  END
>  <meeko>  (6) 
{"free_energy": -7.33, "intermolecular_energy": -8.82, "internal_energy": -2.22, "cluster_size": 6, "cluster_id": 3, "rank_in_cluster": 3}

$$$$

     RDKit          3D

 54 57  0  0  0  0  0  0  0  0999 V2000
  139.8600   79.4180  219.0670 O   0  0  0  0  0  0  0  0  0  0  0  0
  140.9620   79.0840  219.5870 C   0  0  0  0  0  0  0  0  0  0  0  0
  141.9190   80.1580  219.8800 N   0  0  0  0  0  0  0  0  0  0  0  0
  141.4800   81.4550  219.5350 C   0  0  0  0  0  0  0  0  0  0  0  0
  140.6200   82.2270  220.4200 C   0  0  0  0  0  0  0  0  0  0  0  0
  140.9770   83.5000  220.4360 O   0  0  0  0  0  0  0  0  0  0  0  0
  139.5430   81.9310  221.2280 N   0  0  0  0  0  0  0  0  0  0  0  0
  138.1200   82.0220  220.8240 C   0  0  0  0  0  0  0  0  0  0  0  0
  137.6870   80.5950  220.6240 C   0  0  0  0  0  0  0  0  0  0  0  0
  137.6350   79.9840  222.0140 C   0  0  0  0  0  0  0  0  0  0  0  0
  138.3700   80.7730  223.0320 C   0  0  0  0  0  0  0  0  0  0  0  0
  139.6600   81.4050  222.6100 C   0  0  1  0  0  0  0  0  0  0  0  0
  140.8500   80.5710  222.7600 C   0  0  0  0  0  0  0  0  0  0  0  0
  140.7470   79.3340  223.6050 C   0  0  0  0  0  0  0  0  0  0  0  0
  142.2040   78.8570  223.4750 C   0  0  0  0  0  0  0  0  0  0  0  0
  143.0260   80.1520  223.4290 C   0  0  0  0  0  0  0  0  0  0  0  0
  141.9670   81.2650  223.5730 C   0  0  0  0  0  0  0  0  0  0  0  0
  141.3030   77.7140  219.8970 C   0  0  0  0  0  0  0  0  0  0  0  0
  140.2890   76.8800  220.3110 C   0  0  0  0  0  0  0  0  0  0  0  0
  140.5290   75.5770  220.6220 C   0  0  0  0  0  0  0  0  0  0  0  0
  141.8030   75.0710  220.5250 C   0  0  0  0  0  0  0  0  0  0  0  0
  142.0180   73.7460  220.8470 C   0  0  0  0  0  0  0  0  0  0  0  0
  143.3020   73.2490  220.7470 C   0  0  0  0  0  0  0  0  0  0  0  0
  144.3240   74.0860  220.3310 C   0  0  0  0  0  0  0  0  0  0  0  0
  145.9370   73.3920  220.2240 Cl  0  0  0  0  0  0  0  0  0  0  0  0
  144.0720   75.4060  220.0180 C   0  0  0  0  0  0  0  0  0  0  0  0
  142.8030   75.9220  220.1100 C   0  0  0  0  0  0  0  0  0  0  0  0
  142.5420   77.2060  219.8090 N   0  0  0  0  0  0  0  0  0  0  0  0
  142.7940   79.8120  220.2740 H   0  0  0  0  0  0  0  0  0  0  0  0
  142.3865   82.0583  219.3791 H   0  0  0  0  0  0  0  0  0  0  0  0
  140.8217   81.2611  218.6753 H   0  0  0  0  0  0  0  0  0  0  0  0
  137.5226   82.5015  221.6135 H   0  0  0  0  0  0  0  0  0  0  0  0
  137.9832   82.6292  219.9170 H   0  0  0  0  0  0  0  0  0  0  0  0
  136.6946   80.5578  220.1510 H   0  0  0  0  0  0  0  0  0  0  0  0
  138.3784   80.0488  219.9654 H   0  0  0  0  0  0  0  0  0  0  0  0
  136.5820   79.9104  222.3234 H   0  0  0  0  0  0  0  0  0  0  0  0
  138.1205   78.9988  221.9540 H   0  0  0  0  0  0  0  0  0  0  0  0
  137.7024   81.5789  223.3709 H   0  0  0  0  0  0  0  0  0  0  0  0
  138.6523   80.0435  223.8054 H   0  0  0  0  0  0  0  0  0  0  0  0
  139.8229   82.2310  223.3179 H   0  0  0  0  0  0  0  0  0  0  0  0
  141.0237   80.3592  221.6946 H   0  0  0  0  0  0  0  0  0  0  0  0
  140.4758   79.5631  224.6461 H   0  0  0  0  0  0  0  0  0  0  0  0
  139.9755   78.6097  223.3048 H   0  0  0  0  0  0  0  0  0  0  0  0
  142.4917   78.2437  224.3417 H   0  0  0  0  0  0  0  0  0  0  0  0
  142.3619   78.2280  222.5865 H   0  0  0  0  0  0  0  0  0  0  0  0
  143.7476   80.1879  224.2585 H   0  0  0  0  0  0  0  0  0  0  0  0
  143.6201   80.2464  222.5081 H   0  0  0  0  0  0  0  0  0  0  0  0
  141.6790   81.4385  224.6203 H   0  0  0  0  0  0  0  0  0  0  0  0
  142.2632   82.2713  223.2420 H   0  0  0  0  0  0  0  0  0  0  0  0
  139.2653   77.2743  220.3920 H   0  0  0  0  0  0  0  0  0  0  0  0
  139.7033   74.9289  220.9510 H   0  0  0  0  0  0  0  0  0  0  0  0
  141.1879   73.1030  221.1747 H   0  0  0  0  0  0  0  0  0  0  0  0
  143.5114   72.1981  220.9954 H   0  0  0  0  0  0  0  0  0  0  0  0
  144.8987   76.0535  219.6905 H   0  0  0  0  0  0  0  0  0  0  0  0
  1  2  2  0
  2  3  1  0
  3  4  1  0
  4  5  1  0
  5  6  2  0
  5  7  1  0
  7  8  1  0
  8  9  1  0
  9 10  1  0
 10 11  1  0
 11 12  1  0
 12 13  1  0
 13 14  1  0
 14 15  1  0
 15 16  1  0
 16 17  1  0
  2 18  1  0
 18 19  2  0
 19 20  1  0
 20 21  2  0
 21 22  1  0
 22 23  2  0
 23 24  1  0
 24 25  1  0
 24 26  2  0
 26 27  1  0
 27 28  2  0
 12  7  1  0
 17 13  1  0
 28 18  1  0
 27 21  1  0
  3 29  1  0
  4 30  1  0
  4 31  1  0
  8 32  1  0
  8 33  1  0
  9 34  1  0
  9 35  1  0
 10 36  1  0
 10 37  1  0
 11 38  1  0
 11 39  1  0
 12 40  1  1
 13 41  1  0
 14 42  1  0
 14 43  1  0
 15 44  1  0
 15 45  1  0
 16 46  1  0
 16 47  1  0
 17 48  1  0
 17 49  1  0
 19 50  1  0
 20 51  1  0
 22 52  1  0
 23 53  1  0
 26 54  1  0
M  END
>  <meeko>  (7) 
{"free_energy": -6.61, "intermolecular_energy": -8.1, "internal_energy": -2.72, "cluster_size": 4, "cluster_id": 5, "rank_in_cluster": 4}

$$$$

     RDKit          3D

 54 57  0  0  0  0  0  0  0  0999 V2000
  141.2150   73.1560  221.1220 O   0  0  0  0  0  0  0  0  0  0  0  0
  140.2830   73.2390  221.9710 C   0  0  0  0  0  0  0  0  0  0  0  0
  139.5580   74.5140  222.0490 N   0  0  0  0  0  0  0  0  0  0  0  0
  140.0030   75.5060  221.1480 C   0  0  0  0  0  0  0  0  0  0  0  0
  140.8490   76.6070  221.5860 C   0  0  0  0  0  0  0  0  0  0  0  0
  141.0170   76.5820  222.8970 O   0  0  0  0  0  0  0  0  0  0  0  0
  141.4970   77.6450  220.9510 N   0  0  0  0  0  0  0  0  0  0  0  0
  142.1640   77.5580  219.6310 C   0  0  0  0  0  0  0  0  0  0  0  0
  141.2300   78.2620  218.6840 C   0  0  0  0  0  0  0  0  0  0  0  0
  141.3170   79.7350  219.0420 C   0  0  0  0  0  0  0  0  0  0  0  0
  141.9160   79.9830  220.3760 C   0  0  0  0  0  0  0  0  0  0  0  0
  141.5570   79.0320  221.4750 C   0  0  1  0  0  0  0  0  0  0  0  0
  140.3520   79.3650  222.2300 C   0  0  0  0  0  0  0  0  0  0  0  0
  139.7250   80.7110  222.0070 C   0  0  0  0  0  0  0  0  0  0  0  0
  138.5670   80.5840  223.0130 C   0  0  0  0  0  0  0  0  0  0  0  0
  139.1580   79.7690  224.1720 C   0  0  0  0  0  0  0  0  0  0  0  0
  140.6210   79.5280  223.7440 C   0  0  0  0  0  0  0  0  0  0  0  0
  139.9140   72.1510  222.8470 C   0  0  0  0  0  0  0  0  0  0  0  0
  138.8920   71.3210  222.4410 C   0  0  0  0  0  0  0  0  0  0  0  0
  138.4860   70.2740  223.2090 C   0  0  0  0  0  0  0  0  0  0  0  0
  139.0980   70.0270  224.4140 C   0  0  0  0  0  0  0  0  0  0  0  0
  138.6660   68.9580  225.1730 C   0  0  0  0  0  0  0  0  0  0  0  0
  139.2880   68.7200  226.3820 C   0  0  0  0  0  0  0  0  0  0  0  0
  140.3160   69.5520  226.7920 C   0  0  0  0  0  0  0  0  0  0  0  0
  141.0670   69.1950  228.3430 Cl  0  0  0  0  0  0  0  0  0  0  0  0
  140.7210   70.6120  226.0070 C   0  0  0  0  0  0  0  0  0  0  0  0
  140.1170   70.8680  224.8010 C   0  0  0  0  0  0  0  0  0  0  0  0
  140.5020   71.8970  224.0260 N   0  0  0  0  0  0  0  0  0  0  0  0
  138.8390   74.5180  222.7720 H   0  0  0  0  0  0  0  0  0  0  0  0
  140.5611   74.9807  220.3589 H   0  0  0  0  0  0  0  0  0  0  0  0
  139.0675   76.0188  220.8799 H   0  0  0  0  0  0  0  0  0  0  0  0
  143.1420   78.0608  219.6567 H   0  0  0  0  0  0  0  0  0  0  0  0
  142.3562   76.5177  219.3295 H   0  0  0  0  0  0  0  0  0  0  0  0
  141.5460   78.1009  217.6428 H   0  0  0  0  0  0  0  0  0  0  0  0
  140.2011   77.8827  218.7709 H   0  0  0  0  0  0  0  0  0  0  0  0
  141.9319   80.2422  218.2840 H   0  0  0  0  0  0  0  0  0  0  0  0
  140.2882   80.1233  219.0709 H   0  0  0  0  0  0  0  0  0  0  0  0
  143.0093   79.9549  220.2582 H   0  0  0  0  0  0  0  0  0  0  0  0
  141.5059   80.9526  220.6950 H   0  0  0  0  0  0  0  0  0  0  0  0
  142.3671   79.1245  222.2134 H   0  0  0  0  0  0  0  0  0  0  0  0
  139.7234   78.5284  221.8909 H   0  0  0  0  0  0  0  0  0  0  0  0
  140.4080   81.5350  222.2612 H   0  0  0  0  0  0  0  0  0  0  0  0
  139.4380   80.9416  220.9705 H   0  0  0  0  0  0  0  0  0  0  0  0
  138.2421   81.5759  223.3602 H   0  0  0  0  0  0  0  0  0  0  0  0
  137.6792   80.1060  222.5733 H   0  0  0  0  0  0  0  0  0  0  0  0
  139.1135   80.3368  225.1131 H   0  0  0  0  0  0  0  0  0  0  0  0
  138.6095   78.8338  224.3576 H   0  0  0  0  0  0  0  0  0  0  0  0
  141.2710   80.3874  223.9655 H   0  0  0  0  0  0  0  0  0  0  0  0
  141.1489   78.7010  224.2414 H   0  0  0  0  0  0  0  0  0  0  0  0
  138.3950   71.5084  221.4778 H   0  0  0  0  0  0  0  0  0  0  0  0
  137.6673   69.6249  222.8650 H   0  0  0  0  0  0  0  0  0  0  0  0
  137.8470   68.3123  224.8233 H   0  0  0  0  0  0  0  0  0  0  0  0
  138.9700   67.8775  227.0137 H   0  0  0  0  0  0  0  0  0  0  0  0
  141.5392   71.2610  226.3523 H   0  0  0  0  0  0  0  0  0  0  0  0
  1  2  2  0
  2  3  1  0
  3  4  1  0
  4  5  1  0
  5  6  2  0
  5  7  1  0
  7  8  1  0
  8  9  1  0
  9 10  1  0
 10 11  1  0
 11 12  1  0
 12 13  1  0
 13 14  1  0
 14 15  1  0
 15 16  1  0
 16 17  1  0
  2 18  1  0
 18 19  2  0
 19 20  1  0
 20 21  2  0
 21 22  1  0
 22 23  2  0
 23 24  1  0
 24 25  1  0
 24 26  2  0
 26 27  1  0
 27 28  2  0
 12  7  1  0
 17 13  1  0
 28 18  1  0
 27 21  1  0
  3 29  1  0
  4 30  1  0
  4 31  1  0
  8 32  1  0
  8 33  1  0
  9 34  1  0
  9 35  1  0
 10 36  1  0
 10 37  1  0
 11 38  1  0
 11 39  1  0
 12 40  1  1
 13 41  1  0
 14 42  1  0
 14 43  1  0
 15 44  1  0
 15 45  1  0
 16 46  1  0
 16 47  1  0
 17 48  1  0
 17 49  1  0
 19 50  1  0
 20 51  1  0
 22 52  1  0
 23 53  1  0
 26 54  1  0
M  END
>  <meeko>  (8) 
{"free_energy": -7.9, "intermolecular_energy": -9.39, "internal_energy": -1.34, "cluster_size": 7, "cluster_id": 1, "rank_in_cluster": 3}

$$$$

     RDKit          3D

 54 57  0  0  0  0  0  0  0  0999 V2000
  139.9580   79.3930  218.9360 O   0  0  0  0  0  0  0  0  0  0  0  0
  141.0120   79.0660  219.5520 C   0  0  0  0  0  0  0  0  0  0  0  0
  141.9190   80.1500  219.9510 N   0  0  0  0  0  0  0  0  0  0  0  0
  141.4920   81.4460  219.5880 C   0  0  0  0  0  0  0  0  0  0  0  0
  140.5820   82.2110  220.4300 C   0  0  0  0  0  0  0  0  0  0  0  0
  140.8800   83.4990  220.4010 O   0  0  0  0  0  0  0  0  0  0  0  0
  139.5060   81.8960  221.2320 N   0  0  0  0  0  0  0  0  0  0  0  0
  138.0840   81.9710  220.8240 C   0  0  0  0  0  0  0  0  0  0  0  0
  137.6700   80.5400  220.6140 C   0  0  0  0  0  0  0  0  0  0  0  0
  137.6210   79.9200  222.0000 C   0  0  0  0  0  0  0  0  0  0  0  0
  138.3430   80.7130  223.0260 C   0  0  0  0  0  0  0  0  0  0  0  0
  139.6260   81.3630  222.6110 C   0  0  1  0  0  0  0  0  0  0  0  0
  140.8260   80.5440  222.7610 C   0  0  0  0  0  0  0  0  0  0  0  0
  140.7250   79.2780  223.5610 C   0  0  0  0  0  0  0  0  0  0  0  0
  142.1920   78.8290  223.4480 C   0  0  0  0  0  0  0  0  0  0  0  0
  142.9940   80.1380  223.4640 C   0  0  0  0  0  0  0  0  0  0  0  0
  141.9130   81.2280  223.6210 C   0  0  0  0  0  0  0  0  0  0  0  0
  141.3470   77.6970  219.8700 C   0  0  0  0  0  0  0  0  0  0  0  0
  140.3320   76.8760  220.3090 C   0  0  0  0  0  0  0  0  0  0  0  0
  140.5660   75.5740  220.6290 C   0  0  0  0  0  0  0  0  0  0  0  0
  141.8340   75.0560  220.5160 C   0  0  0  0  0  0  0  0  0  0  0  0
  142.0430   73.7320  220.8480 C   0  0  0  0  0  0  0  0  0  0  0  0
  143.3210   73.2240  220.7320 C   0  0  0  0  0  0  0  0  0  0  0  0
  144.3430   74.0470  220.2910 C   0  0  0  0  0  0  0  0  0  0  0  0
  145.9480   73.3380  220.1650 Cl  0  0  0  0  0  0  0  0  0  0  0  0
  144.0970   75.3660  219.9690 C   0  0  0  0  0  0  0  0  0  0  0  0
  142.8340   75.8950  220.0770 C   0  0  0  0  0  0  0  0  0  0  0  0
  142.5800   77.1770  219.7660 N   0  0  0  0  0  0  0  0  0  0  0  0
  142.7580   79.8120  220.4200 H   0  0  0  0  0  0  0  0  0  0  0  0
  142.4023   82.0544  219.4820 H   0  0  0  0  0  0  0  0  0  0  0  0
  140.8807   81.2520  218.6943 H   0  0  0  0  0  0  0  0  0  0  0  0
  137.4780   82.4380  221.6143 H   0  0  0  0  0  0  0  0  0  0  0  0
  137.9424   82.5818  219.9202 H   0  0  0  0  0  0  0  0  0  0  0  0
  136.6798   80.4930  220.1373 H   0  0  0  0  0  0  0  0  0  0  0  0
  138.3706   80.0067  219.9546 H   0  0  0  0  0  0  0  0  0  0  0  0
  136.5679   79.8311  222.3053 H   0  0  0  0  0  0  0  0  0  0  0  0
  138.1192   78.9414  221.9359 H   0  0  0  0  0  0  0  0  0  0  0  0
  137.6643   81.5086  223.3672 H   0  0  0  0  0  0  0  0  0  0  0  0
  138.6315   79.9833  223.7969 H   0  0  0  0  0  0  0  0  0  0  0  0
  139.7769   82.1871  223.3238 H   0  0  0  0  0  0  0  0  0  0  0  0
  141.0268   80.3711  221.6934 H   0  0  0  0  0  0  0  0  0  0  0  0
  140.4272   79.4672  224.6029 H   0  0  0  0  0  0  0  0  0  0  0  0
  139.9725   78.5521  223.2192 H   0  0  0  0  0  0  0  0  0  0  0  0
  142.4707   78.1913  224.2999 H   0  0  0  0  0  0  0  0  0  0  0  0
  142.3797   78.2332  222.5426 H   0  0  0  0  0  0  0  0  0  0  0  0
  143.6963   80.1573  224.3104 H   0  0  0  0  0  0  0  0  0  0  0  0
  143.6073   80.2730  222.5609 H   0  0  0  0  0  0  0  0  0  0  0  0
  141.5994   81.3615  224.6668 H   0  0  0  0  0  0  0  0  0  0  0  0
  142.1992   82.2495  223.3301 H   0  0  0  0  0  0  0  0  0  0  0  0
  139.3132   77.2801  220.4027 H   0  0  0  0  0  0  0  0  0  0  0  0
  139.7404   74.9364  220.9780 H   0  0  0  0  0  0  0  0  0  0  0  0
  141.2131   73.0992  221.1956 H   0  0  0  0  0  0  0  0  0  0  0  0
  143.5258   72.1739  220.9878 H   0  0  0  0  0  0  0  0  0  0  0  0
  144.9238   76.0027  219.6210 H   0  0  0  0  0  0  0  0  0  0  0  0
  1  2  2  0
  2  3  1  0
  3  4  1  0
  4  5  1  0
  5  6  2  0
  5  7  1  0
  7  8  1  0
  8  9  1  0
  9 10  1  0
 10 11  1  0
 11 12  1  0
 12 13  1  0
 13 14  1  0
 14 15  1  0
 15 16  1  0
 16 17  1  0
  2 18  1  0
 18 19  2  0
 19 20  1  0
 20 21  2  0
 21 22  1  0
 22 23  2  0
 23 24  1  0
 24 25  1  0
 24 26  2  0
 26 27  1  0
 27 28  2  0
 12  7  1  0
 17 13  1  0
 28 18  1  0
 27 21  1  0
  3 29  1  0
  4 30  1  0
  4 31  1  0
  8 32  1  0
  8 33  1  0
  9 34  1  0
  9 35  1  0
 10 36  1  0
 10 37  1  0
 11 38  1  0
 11 39  1  0
 12 40  1  1
 13 41  1  0
 14 42  1  0
 14 43  1  0
 15 44  1  0
 15 45  1  0
 16 46  1  0
 16 47  1  0
 17 48  1  0
 17 49  1  0
 19 50  1  0
 20 51  1  0
 22 52  1  0
 23 53  1  0
 26 54  1  0
M  END
>  <meeko>  (9) 
{"free_energy": -6.64, "intermolecular_energy": -8.13, "internal_energy": -2.68, "cluster_size": 4, "cluster_id": 5, "rank_in_cluster": 3}

$$$$

     RDKit          3D

 54 57  0  0  0  0  0  0  0  0999 V2000
  140.7060   73.5060  222.2300 O   0  0  0  0  0  0  0  0  0  0  0  0
  140.3420   74.4570  221.4810 C   0  0  0  0  0  0  0  0  0  0  0  0
  140.1930   74.1640  220.0490 N   0  0  0  0  0  0  0  0  0  0  0  0
  140.4820   72.8310  219.6820 C   0  0  0  0  0  0  0  0  0  0  0  0
  141.8520   72.3520  219.5760 C   0  0  0  0  0  0  0  0  0  0  0  0
  141.9480   71.3890  218.6750 O   0  0  0  0  0  0  0  0  0  0  0  0
  143.0420   72.6700  220.1950 N   0  0  0  0  0  0  0  0  0  0  0  0
  144.0660   71.6930  220.6350 C   0  0  0  0  0  0  0  0  0  0  0  0
  145.1710   71.8160  219.6210 C   0  0  0  0  0  0  0  0  0  0  0  0
  145.8170   73.1660  219.8800 C   0  0  0  0  0  0  0  0  0  0  0  0
  144.9780   74.0730  220.7010 C   0  0  0  0  0  0  0  0  0  0  0  0
  143.5030   74.0570  220.4470 C   0  0  1  0  0  0  0  0  0  0  0  0
  143.0320   74.9690  219.4070 C   0  0  0  0  0  0  0  0  0  0  0  0
  143.6920   74.9110  218.0600 C   0  0  0  0  0  0  0  0  0  0  0  0
  142.8950   76.0350  217.3750 C   0  0  0  0  0  0  0  0  0  0  0  0
  142.6470   77.0600  218.4910 C   0  0  0  0  0  0  0  0  0  0  0  0
  143.3580   76.4480  219.7170 C   0  0  0  0  0  0  0  0  0  0  0  0
  140.0730   75.7880  221.9720 C   0  0  0  0  0  0  0  0  0  0  0  0
  138.7550   76.1590  222.1270 C   0  0  0  0  0  0  0  0  0  0  0  0
  138.4190   77.3960  222.5850 C   0  0  0  0  0  0  0  0  0  0  0  0
  139.4030   78.3020  222.9020 C   0  0  0  0  0  0  0  0  0  0  0  0
  139.0340   79.5500  223.3640 C   0  0  0  0  0  0  0  0  0  0  0  0
  140.0300   80.4510  223.6780 C   0  0  0  0  0  0  0  0  0  0  0  0
  141.3550   80.0820  223.5230 C   0  0  0  0  0  0  0  0  0  0  0  0
  142.5770   81.2770  223.9410 Cl  0  0  0  0  0  0  0  0  0  0  0  0
  141.6870   78.8250  223.0580 C   0  0  0  0  0  0  0  0  0  0  0  0
  140.7130   77.9120  222.7390 C   0  0  0  0  0  0  0  0  0  0  0  0
  141.0220   76.6840  222.2850 N   0  0  0  0  0  0  0  0  0  0  0  0
  139.9220   74.9810  219.5040 H   0  0  0  0  0  0  0  0  0  0  0  0
  139.9856   72.1898  220.4253 H   0  0  0  0  0  0  0  0  0  0  0  0
  140.1365   72.7927  218.6384 H   0  0  0  0  0  0  0  0  0  0  0  0
  144.4333   71.9426  221.6414 H   0  0  0  0  0  0  0  0  0  0  0  0
  143.6670   70.6696  220.6940 H   0  0  0  0  0  0  0  0  0  0  0  0
  145.9051   71.0076  219.7536 H   0  0  0  0  0  0  0  0  0  0  0  0
  144.7890   71.7390  218.5924 H   0  0  0  0  0  0  0  0  0  0  0  0
  146.7696   73.0017  220.4050 H   0  0  0  0  0  0  0  0  0  0  0  0
  145.9589   73.6508  218.9029 H   0  0  0  0  0  0  0  0  0  0  0  0
  145.1351   73.8045  221.7561 H   0  0  0  0  0  0  0  0  0  0  0  0
  145.3024   75.0871  220.4246 H   0  0  0  0  0  0  0  0  0  0  0  0
  143.0467   74.4460  221.3692 H   0  0  0  0  0  0  0  0  0  0  0  0
  141.9791   74.6509  219.3908 H   0  0  0  0  0  0  0  0  0  0  0  0
  144.7671   75.1372  218.1139 H   0  0  0  0  0  0  0  0  0  0  0  0
  143.6722   73.9329  217.5571 H   0  0  0  0  0  0  0  0  0  0  0  0
  143.4781   76.4832  216.5570 H   0  0  0  0  0  0  0  0  0  0  0  0
  141.9602   75.6717  216.9233 H   0  0  0  0  0  0  0  0  0  0  0  0
  143.0837   78.0356  218.2312 H   0  0  0  0  0  0  0  0  0  0  0  0
  141.5774   77.2458  218.6682 H   0  0  0  0  0  0  0  0  0  0  0  0
  144.4395   76.6487  219.7195 H   0  0  0  0  0  0  0  0  0  0  0  0
  143.0481   76.8236  220.7034 H   0  0  0  0  0  0  0  0  0  0  0  0
  137.9594   75.4420  221.8759 H   0  0  0  0  0  0  0  0  0  0  0  0
  137.3602   77.6706  222.7015 H   0  0  0  0  0  0  0  0  0  0  0  0
  137.9734   79.8185  223.4786 H   0  0  0  0  0  0  0  0  0  0  0  0
  139.7735   81.4544  224.0485 H   0  0  0  0  0  0  0  0  0  0  0  0
  142.7461   78.5516  222.9417 H   0  0  0  0  0  0  0  0  0  0  0  0
  1  2  2  0
  2  3  1  0
  3  4  1  0
  4  5  1  0
  5  6  2  0
  5  7  1  0
  7  8  1  0
  8  9  1  0
  9 10  1  0
 10 11  1  0
 11 12  1  0
 12 13  1  0
 13 14  1  0
 14 15  1  0
 15 16  1  0
 16 17  1  0
  2 18  1  0
 18 19  2  0
 19 20  1  0
 20 21  2  0
 21 22  1  0
 22 23  2  0
 23 24  1  0
 24 25  1  0
 24 26  2  0
 26 27  1  0
 27 28  2  0
 12  7  1  0
 17 13  1  0
 28 18  1  0
 27 21  1  0
  3 29  1  0
  4 30  1  0
  4 31  1  0
  8 32  1  0
  8 33  1  0
  9 34  1  0
  9 35  1  0
 10 36  1  0
 10 37  1  0
 11 38  1  0
 11 39  1  0
 12 40  1  1
 13 41  1  0
 14 42  1  0
 14 43  1  0
 15 44  1  0
 15 45  1  0
 16 46  1  0
 16 47  1  0
 17 48  1  0
 17 49  1  0
 19 50  1  0
 20 51  1  0
 22 52  1  0
 23 53  1  0
 26 54  1  0
M  END
>  <meeko>  (10) 
{"free_energy": -7.32, "intermolecular_energy": -8.81, "internal_energy": -2.24, "cluster_size": 6, "cluster_id": 3, "rank_in_cluster": 4}

$$$$

     RDKit          3D

 54 57  0  0  0  0  0  0  0  0999 V2000
  140.9250   73.3710  221.3680 O   0  0  0  0  0  0  0  0  0  0  0  0
  139.9710   73.1970  222.1770 C   0  0  0  0  0  0  0  0  0  0  0  0
  139.0160   74.3010  222.3350 N   0  0  0  0  0  0  0  0  0  0  0  0
  139.2900   75.4420  221.5480 C   0  0  0  0  0  0  0  0  0  0  0  0
  140.3400   76.3830  221.9120 C   0  0  0  0  0  0  0  0  0  0  0  0
  141.4150   75.7470  222.3450 O   0  0  0  0  0  0  0  0  0  0  0  0
  140.4560   77.7560  221.9070 N   0  0  0  0  0  0  0  0  0  0  0  0
  140.5050   78.6150  223.1130 C   0  0  0  0  0  0  0  0  0  0  0  0
  141.9480   79.0220  223.2340 C   0  0  0  0  0  0  0  0  0  0  0  0
  142.2000   79.9860  222.0880 C   0  0  0  0  0  0  0  0  0  0  0  0
  141.1650   79.9230  221.0270 C   0  0  0  0  0  0  0  0  0  0  0  0
  140.6230   78.5710  220.6790 C   0  0  1  0  0  0  0  0  0  0  0  0
  141.3620   77.8400  219.6530 C   0  0  0  0  0  0  0  0  0  0  0  0
  142.6160   77.1200  220.0590 C   0  0  0  0  0  0  0  0  0  0  0  0
  143.0100   76.5680  218.6790 C   0  0  0  0  0  0  0  0  0  0  0  0
  142.5820   77.6660  217.6940 C   0  0  0  0  0  0  0  0  0  0  0  0
  142.0080   78.7730  218.6030 C   0  0  0  0  0  0  0  0  0  0  0  0
  139.7900   71.9790  222.9330 C   0  0  0  0  0  0  0  0  0  0  0  0
  139.0530   70.9700  222.3540 C   0  0  0  0  0  0  0  0  0  0  0  0
  138.8380   69.7930  223.0010 C   0  0  0  0  0  0  0  0  0  0  0  0
  139.3590   69.5940  224.2560 C   0  0  0  0  0  0  0  0  0  0  0  0
  139.1250   68.3890  224.8910 C   0  0  0  0  0  0  0  0  0  0  0  0
  139.6530   68.2010  226.1520 C   0  0  0  0  0  0  0  0  0  0  0  0
  140.3940   69.2140  226.7360 C   0  0  0  0  0  0  0  0  0  0  0  0
  141.0390   68.9110  228.3450 Cl  0  0  0  0  0  0  0  0  0  0  0  0
  140.6070   70.4050  226.0730 C   0  0  0  0  0  0  0  0  0  0  0  0
  140.0920   70.6150  224.8180 C   0  0  0  0  0  0  0  0  0  0  0  0
  140.2920   71.7700  224.1600 N   0  0  0  0  0  0  0  0  0  0  0  0
  138.2880   74.1010  223.0200 H   0  0  0  0  0  0  0  0  0  0  0  0
  139.5392   75.0727  220.5423 H   0  0  0  0  0  0  0  0  0  0  0  0
  138.3781   76.0434  221.6779 H   0  0  0  0  0  0  0  0  0  0  0  0
  139.8621   79.4985  222.9862 H   0  0  0  0  0  0  0  0  0  0  0  0
  140.1434   78.0925  224.0109 H   0  0  0  0  0  0  0  0  0  0  0  0
  142.1270   79.5183  224.1992 H   0  0  0  0  0  0  0  0  0  0  0  0
  142.6204   78.1526  223.1888 H   0  0  0  0  0  0  0  0  0  0  0  0
  142.2238   81.0090  222.4916 H   0  0  0  0  0  0  0  0  0  0  0  0
  143.1563   79.6990  221.6264 H   0  0  0  0  0  0  0  0  0  0  0  0
  140.3184   80.5450  221.3532 H   0  0  0  0  0  0  0  0  0  0  0  0
  141.6730   80.2683  220.1145 H   0  0  0  0  0  0  0  0  0  0  0  0
  139.6440   78.7618  220.2152 H   0  0  0  0  0  0  0  0  0  0  0  0
  140.5542   77.1644  219.3353 H   0  0  0  0  0  0  0  0  0  0  0  0
  143.3753   77.8045  220.4651 H   0  0  0  0  0  0  0  0  0  0  0  0
  142.5040   76.3748  220.8604 H   0  0  0  0  0  0  0  0  0  0  0  0
  144.0951   76.3962  218.6235 H   0  0  0  0  0  0  0  0  0  0  0  0
  142.5339   75.6004  218.4621 H   0  0  0  0  0  0  0  0  0  0  0  0
  143.4450   78.0372  217.1218 H   0  0  0  0  0  0  0  0  0  0  0  0
  141.8563   77.3091  216.9484 H   0  0  0  0  0  0  0  0  0  0  0  0
  142.7926   79.4121  219.0342 H   0  0  0  0  0  0  0  0  0  0  0  0
  141.3447   79.5082  218.1239 H   0  0  0  0  0  0  0  0  0  0  0  0
  138.6302   71.1187  221.3494 H   0  0  0  0  0  0  0  0  0  0  0  0
  138.2468   69.0005  222.5190 H   0  0  0  0  0  0  0  0  0  0  0  0
  138.5331   67.6001  224.4038 H   0  0  0  0  0  0  0  0  0  0  0  0
  139.4866   67.2550  226.6881 H   0  0  0  0  0  0  0  0  0  0  0  0
  141.1975   71.1971  226.5566 H   0  0  0  0  0  0  0  0  0  0  0  0
  1  2  2  0
  2  3  1  0
  3  4  1  0
  4  5  1  0
  5  6  2  0
  5  7  1  0
  7  8  1  0
  8  9  1  0
  9 10  1  0
 10 11  1  0
 11 12  1  0
 12 13  1  0
 13 14  1  0
 14 15  1  0
 15 16  1  0
 16 17  1  0
  2 18  1  0
 18 19  2  0
 19 20  1  0
 20 21  2  0
 21 22  1  0
 22 23  2  0
 23 24  1  0
 24 25  1  0
 24 26  2  0
 26 27  1  0
 27 28  2  0
 12  7  1  0
 17 13  1  0
 28 18  1  0
 27 21  1  0
  3 29  1  0
  4 30  1  0
  4 31  1  0
  8 32  1  0
  8 33  1  0
  9 34  1  0
  9 35  1  0
 10 36  1  0
 10 37  1  0
 11 38  1  0
 11 39  1  0
 12 40  1  6
 13 41  1  0
 14 42  1  0
 14 43  1  0
 15 44  1  0
 15 45  1  0
 16 46  1  0
 16 47  1  0
 17 48  1  0
 17 49  1  0
 19 50  1  0
 20 51  1  0
 22 52  1  0
 23 53  1  0
 26 54  1  0
M  END
>  <meeko>  (11) 
{"free_energy": -8.32, "intermolecular_energy": -9.81, "internal_energy": -1.25, "cluster_size": 7, "cluster_id": 1, "rank_in_cluster": 1}

$$$$

     RDKit          3D

 54 57  0  0  0  0  0  0  0  0999 V2000
  141.0660   73.4430  221.0200 O   0  0  0  0  0  0  0  0  0  0  0  0
  140.2350   73.4450  221.9720 C   0  0  0  0  0  0  0  0  0  0  0  0
  139.5180   74.7000  222.2350 N   0  0  0  0  0  0  0  0  0  0  0  0
  139.8550   75.7680  221.3730 C   0  0  0  0  0  0  0  0  0  0  0  0
  140.7980   76.8010  221.7760 C   0  0  0  0  0  0  0  0  0  0  0  0
  141.0490   76.7340  223.0730 O   0  0  0  0  0  0  0  0  0  0  0  0
  141.4690   77.8120  221.1210 N   0  0  0  0  0  0  0  0  0  0  0  0
  142.1640   77.6730  219.8200 C   0  0  0  0  0  0  0  0  0  0  0  0
  141.2580   78.3520  218.8280 C   0  0  0  0  0  0  0  0  0  0  0  0
  141.3510   79.8360  219.1370 C   0  0  0  0  0  0  0  0  0  0  0  0
  141.9220   80.1240  220.4760 C   0  0  0  0  0  0  0  0  0  0  0  0
  141.5300   79.2140  221.5980 C   0  0  1  0  0  0  0  0  0  0  0  0
  140.3110   79.5840  222.3140 C   0  0  0  0  0  0  0  0  0  0  0  0
  139.8100   80.9930  222.1820 C   0  0  0  0  0  0  0  0  0  0  0  0
  138.5870   80.8800  223.1070 C   0  0  0  0  0  0  0  0  0  0  0  0
  139.0370   79.9190  224.2170 C   0  0  0  0  0  0  0  0  0  0  0  0
  140.4990   79.5910  223.8490 C   0  0  0  0  0  0  0  0  0  0  0  0
  139.9720   72.2840  222.7910 C   0  0  0  0  0  0  0  0  0  0  0  0
  139.1470   71.3100  222.2730 C   0  0  0  0  0  0  0  0  0  0  0  0
  138.8500   70.1870  222.9820 C   0  0  0  0  0  0  0  0  0  0  0  0
  139.3760   70.0090  224.2390 C   0  0  0  0  0  0  0  0  0  0  0  0
  139.0580   68.8600  224.9360 C   0  0  0  0  0  0  0  0  0  0  0  0
  139.5920   68.6920  226.1980 C   0  0  0  0  0  0  0  0  0  0  0  0
  140.4210   69.6700  226.7210 C   0  0  0  0  0  0  0  0  0  0  0  0
  141.0680   69.3960  228.3340 Cl  0  0  0  0  0  0  0  0  0  0  0  0
  140.7160   70.8060  225.9950 C   0  0  0  0  0  0  0  0  0  0  0  0
  140.1970   70.9950  224.7380 C   0  0  0  0  0  0  0  0  0  0  0  0
  140.4770   72.0960  224.0200 N   0  0  0  0  0  0  0  0  0  0  0  0
  138.8850   74.6350  223.0300 H   0  0  0  0  0  0  0  0  0  0  0  0
  140.2652   75.3123  220.4597 H   0  0  0  0  0  0  0  0  0  0  0  0
  138.9088   76.3248  221.3046 H   0  0  0  0  0  0  0  0  0  0  0  0
  143.1461   78.1676  219.8501 H   0  0  0  0  0  0  0  0  0  0  0  0
  142.3525   76.6211  219.5593 H   0  0  0  0  0  0  0  0  0  0  0  0
  141.5958   78.1521  217.8004 H   0  0  0  0  0  0  0  0  0  0  0  0
  140.2239   77.9849  218.9044 H   0  0  0  0  0  0  0  0  0  0  0  0
  141.9881   80.3113  218.3766 H   0  0  0  0  0  0  0  0  0  0  0  0
  140.3258   80.2346  219.1283 H   0  0  0  0  0  0  0  0  0  0  0  0
  143.0174   80.0830  220.3842 H   0  0  0  0  0  0  0  0  0  0  0  0
  141.5131   81.1070  220.7527 H   0  0  0  0  0  0  0  0  0  0  0  0
  142.3244   79.3238  222.3509 H   0  0  0  0  0  0  0  0  0  0  0  0
  139.6384   78.8380  221.8656 H   0  0  0  0  0  0  0  0  0  0  0  0
  140.5406   81.7298  222.5472 H   0  0  0  0  0  0  0  0  0  0  0  0
  139.6068   81.3364  221.1569 H   0  0  0  0  0  0  0  0  0  0  0  0
  138.3232   81.8624  223.5256 H   0  0  0  0  0  0  0  0  0  0  0  0
  137.6921   80.5206  222.5778 H   0  0  0  0  0  0  0  0  0  0  0  0
  138.9804   80.4044  225.2025 H   0  0  0  0  0  0  0  0  0  0  0  0
  138.4040   79.0220  224.2857 H   0  0  0  0  0  0  0  0  0  0  0  0
  141.2015   80.3687  224.1832 H   0  0  0  0  0  0  0  0  0  0  0  0
  140.9268   78.6817  224.2964 H   0  0  0  0  0  0  0  0  0  0  0  0
  138.7204   71.4424  221.2678 H   0  0  0  0  0  0  0  0  0  0  0  0
  138.1890   69.4218  222.5489 H   0  0  0  0  0  0  0  0  0  0  0  0
  138.3965   68.0985  224.4971 H   0  0  0  0  0  0  0  0  0  0  0  0
  139.3610   67.7894  226.7827 H   0  0  0  0  0  0  0  0  0  0  0  0
  141.3763   71.5709  226.4296 H   0  0  0  0  0  0  0  0  0  0  0  0
  1  2  2  0
  2  3  1  0
  3  4  1  0
  4  5  1  0
  5  6  2  0
  5  7  1  0
  7  8  1  0
  8  9  1  0
  9 10  1  0
 10 11  1  0
 11 12  1  0
 12 13  1  0
 13 14  1  0
 14 15  1  0
 15 16  1  0
 16 17  1  0
  2 18  1  0
 18 19  2  0
 19 20  1  0
 20 21  2  0
 21 22  1  0
 22 23  2  0
 23 24  1  0
 24 25  1  0
 24 26  2  0
 26 27  1  0
 27 28  2  0
 12  7  1  0
 17 13  1  0
 28 18  1  0
 27 21  1  0
  3 29  1  0
  4 30  1  0
  4 31  1  0
  8 32  1  0
  8 33  1  0
  9 34  1  0
  9 35  1  0
 10 36  1  0
 10 37  1  0
 11 38  1  0
 11 39  1  0
 12 40  1  1
 13 41  1  0
 14 42  1  0
 14 43  1  0
 15 44  1  0
 15 45  1  0
 16 46  1  0
 16 47  1  0
 17 48  1  0
 17 49  1  0
 19 50  1  0
 20 51  1  0
 22 52  1  0
 23 53  1  0
 26 54  1  0
M  END
>  <meeko>  (12) 
{"free_energy": -7.86, "intermolecular_energy": -9.35, "internal_energy": -1.38, "cluster_size": 7, "cluster_id": 1, "rank_in_cluster": 4}

$$$$

     RDKit          3D

 54 57  0  0  0  0  0  0  0  0999 V2000
  140.0360   75.1140  219.4890 O   0  0  0  0  0  0  0  0  0  0  0  0
  140.5690   74.7690  220.5820 C   0  0  0  0  0  0  0  0  0  0  0  0
  141.6950   75.5790  221.0640 N   0  0  0  0  0  0  0  0  0  0  0  0
  142.0480   76.6620  220.2300 C   0  0  0  0  0  0  0  0  0  0  0  0
  141.8720   78.0420  220.6590 C   0  0  0  0  0  0  0  0  0  0  0  0
  141.8160   78.8580  219.6200 O   0  0  0  0  0  0  0  0  0  0  0  0
  141.7550   78.6710  221.8810 N   0  0  0  0  0  0  0  0  0  0  0  0
  142.6010   79.7940  222.3490 C   0  0  0  0  0  0  0  0  0  0  0  0
  141.7200   81.0080  222.2350 C   0  0  0  0  0  0  0  0  0  0  0  0
  140.6730   80.8590  223.3250 C   0  0  0  0  0  0  0  0  0  0  0  0
  140.5720   79.4790  223.8600 C   0  0  0  0  0  0  0  0  0  0  0  0
  140.7070   78.3540  222.8820 C   0  0  1  0  0  0  0  0  0  0  0  0
  139.4690   77.9270  222.2350 C   0  0  0  0  0  0  0  0  0  0  0  0
  138.2060   78.6690  222.5620 C   0  0  0  0  0  0  0  0  0  0  0  0
  137.2370   77.8480  221.6930 C   0  0  0  0  0  0  0  0  0  0  0  0
  137.7800   76.4140  221.7690 C   0  0  0  0  0  0  0  0  0  0  0  0
  138.9990   76.5320  222.7080 C   0  0  0  0  0  0  0  0  0  0  0  0
  140.1200   73.6330  221.3540 C   0  0  0  0  0  0  0  0  0  0  0  0
  139.1020   72.8660  220.8310 C   0  0  0  0  0  0  0  0  0  0  0  0
  138.6230   71.7810  221.4970 C   0  0  0  0  0  0  0  0  0  0  0  0
  139.1560   71.4310  222.7150 C   0  0  0  0  0  0  0  0  0  0  0  0
  138.6510   70.3250  223.3690 C   0  0  0  0  0  0  0  0  0  0  0  0
  139.1930   69.9850  224.5910 C   0  0  0  0  0  0  0  0  0  0  0  0
  140.2170   70.7530  225.1190 C   0  0  0  0  0  0  0  0  0  0  0  0
  140.8650   70.2650  226.6800 Cl  0  0  0  0  0  0  0  0  0  0  0  0
  140.6960   71.8530  224.4370 C   0  0  0  0  0  0  0  0  0  0  0  0
  140.1720   72.2120  223.2200 C   0  0  0  0  0  0  0  0  0  0  0  0
  140.6300   73.2800  222.5440 N   0  0  0  0  0  0  0  0  0  0  0  0
  142.0910   75.2280  221.9350 H   0  0  0  0  0  0  0  0  0  0  0  0
  143.1174   76.5421  220.0018 H   0  0  0  0  0  0  0  0  0  0  0  0
  141.3205   76.5751  219.4095 H   0  0  0  0  0  0  0  0  0  0  0  0
  142.9121   79.6369  223.3923 H   0  0  0  0  0  0  0  0  0  0  0  0
  143.5248   79.8930  221.7602 H   0  0  0  0  0  0  0  0  0  0  0  0
  142.3079   81.9246  222.3905 H   0  0  0  0  0  0  0  0  0  0  0  0
  141.2608   81.0846  221.2384 H   0  0  0  0  0  0  0  0  0  0  0  0
  140.9324   81.5357  224.1525 H   0  0  0  0  0  0  0  0  0  0  0  0
  139.6995   81.1054  222.8761 H   0  0  0  0  0  0  0  0  0  0  0  0
  141.3632   79.3580  224.6146 H   0  0  0  0  0  0  0  0  0  0  0  0
  139.5444   79.3986  224.2441 H   0  0  0  0  0  0  0  0  0  0  0  0
  141.0065   77.4828  223.4831 H   0  0  0  0  0  0  0  0  0  0  0  0
  139.7909   78.0518  221.1906 H   0  0  0  0  0  0  0  0  0  0  0  0
  137.9554   78.6119  223.6315 H   0  0  0  0  0  0  0  0  0  0  0  0
  138.2221   79.7523  222.3716 H   0  0  0  0  0  0  0  0  0  0  0  0
  136.2144   77.8991  222.0951 H   0  0  0  0  0  0  0  0  0  0  0  0
  137.1803   78.2213  220.6598 H   0  0  0  0  0  0  0  0  0  0  0  0
  137.0265   75.7313  222.1887 H   0  0  0  0  0  0  0  0  0  0  0  0
  138.0411   76.0048  220.7819 H   0  0  0  0  0  0  0  0  0  0  0  0
  138.7140   76.5221  223.7704 H   0  0  0  0  0  0  0  0  0  0  0  0
  139.7395   75.7202  222.6569 H   0  0  0  0  0  0  0  0  0  0  0  0
  138.6685   73.1360  219.8567 H   0  0  0  0  0  0  0  0  0  0  0  0
  137.8089   71.1834  221.0609 H   0  0  0  0  0  0  0  0  0  0  0  0
  137.8378   69.7305  222.9272 H   0  0  0  0  0  0  0  0  0  0  0  0
  138.8148   69.1110  225.1415 H   0  0  0  0  0  0  0  0  0  0  0  0
  141.5092   72.4506  224.8748 H   0  0  0  0  0  0  0  0  0  0  0  0
  1  2  2  0
  2  3  1  0
  3  4  1  0
  4  5  1  0
  5  6  2  0
  5  7  1  0
  7  8  1  0
  8  9  1  0
  9 10  1  0
 10 11  1  0
 11 12  1  0
 12 13  1  0
 13 14  1  0
 14 15  1  0
 15 16  1  0
 16 17  1  0
  2 18  1  0
 18 19  2  0
 19 20  1  0
 20 21  2  0
 21 22  1  0
 22 23  2  0
 23 24  1  0
 24 25  1  0
 24 26  2  0
 26 27  1  0
 27 28  2  0
 12  7  1  0
 17 13  1  0
 28 18  1  0
 27 21  1  0
  3 29  1  0
  4 30  1  0
  4 31  1  0
  8 32  1  0
  8 33  1  0
  9 34  1  0
  9 35  1  0
 10 36  1  0
 10 37  1  0
 11 38  1  0
 11 39  1  0
 12 40  1  1
 13 41  1  0
 14 42  1  0
 14 43  1  0
 15 44  1  0
 15 45  1  0
 16 46  1  0
 16 47  1  0
 17 48  1  0
 17 49  1  0
 19 50  1  0
 20 51  1  0
 22 52  1  0
 23 53  1  0
 26 54  1  0
M  END
>  <meeko>  (13) 
{"free_energy": -7.06, "intermolecular_energy": -8.55, "internal_energy": -2.31, "cluster_size": 7, "cluster_id": 1, "rank_in_cluster": 7}

$$$$

     RDKit          3D

 54 57  0  0  0  0  0  0  0  0999 V2000
  140.6940   73.5150  222.2840 O   0  0  0  0  0  0  0  0  0  0  0  0
  140.3320   74.4410  221.5050 C   0  0  0  0  0  0  0  0  0  0  0  0
  140.1750   74.1020  220.0850 N   0  0  0  0  0  0  0  0  0  0  0  0
  140.4540   72.7560  219.7620 C   0  0  0  0  0  0  0  0  0  0  0  0
  141.8160   72.2980  219.5240 C   0  0  0  0  0  0  0  0  0  0  0  0
  141.8570   71.4370  218.5210 O   0  0  0  0  0  0  0  0  0  0  0  0
  143.0410   72.5560  220.1000 N   0  0  0  0  0  0  0  0  0  0  0  0
  144.0470   71.5310  220.4660 C   0  0  0  0  0  0  0  0  0  0  0  0
  145.1130   71.6480  219.4100 C   0  0  0  0  0  0  0  0  0  0  0  0
  145.8160   72.9670  219.6820 C   0  0  0  0  0  0  0  0  0  0  0  0
  145.0450   73.8750  220.5650 C   0  0  0  0  0  0  0  0  0  0  0  0
  143.5600   73.9180  220.3740 C   0  0  1  0  0  0  0  0  0  0  0  0
  143.0790   74.8780  219.3840 C   0  0  0  0  0  0  0  0  0  0  0  0
  143.6780   74.8390  218.0080 C   0  0  0  0  0  0  0  0  0  0  0  0
  142.8940   76.0110  217.3930 C   0  0  0  0  0  0  0  0  0  0  0  0
  142.7330   77.0090  218.5480 C   0  0  0  0  0  0  0  0  0  0  0  0
  143.4730   76.3340  219.7230 C   0  0  0  0  0  0  0  0  0  0  0  0
  140.0720   75.7910  221.9530 C   0  0  0  0  0  0  0  0  0  0  0  0
  138.7580   76.1960  222.0350 C   0  0  0  0  0  0  0  0  0  0  0  0
  138.4310   77.4510  222.4470 C   0  0  0  0  0  0  0  0  0  0  0  0
  139.4210   78.3410  222.7910 C   0  0  0  0  0  0  0  0  0  0  0  0
  139.0610   79.6080  223.2060 C   0  0  0  0  0  0  0  0  0  0  0  0
  140.0630   80.4930  223.5480 C   0  0  0  0  0  0  0  0  0  0  0  0
  141.3840   80.0880  223.4670 C   0  0  0  0  0  0  0  0  0  0  0  0
  142.6130   81.2630  223.9180 Cl  0  0  0  0  0  0  0  0  0  0  0  0
  141.7070   78.8130  223.0480 C   0  0  0  0  0  0  0  0  0  0  0  0
  140.7270   77.9160  222.7020 C   0  0  0  0  0  0  0  0  0  0  0  0
  141.0270   76.6710  222.2920 N   0  0  0  0  0  0  0  0  0  0  0  0
  139.9060   74.9020  219.5140 H   0  0  0  0  0  0  0  0  0  0  0  0
  140.0633   72.1499  220.5926 H   0  0  0  0  0  0  0  0  0  0  0  0
  139.9916   72.6498  218.7696 H   0  0  0  0  0  0  0  0  0  0  0  0
  144.4644   71.7357  221.4629 H   0  0  0  0  0  0  0  0  0  0  0  0
  143.6145   70.5206  220.5107 H   0  0  0  0  0  0  0  0  0  0  0  0
  145.8232   70.8115  219.4872 H   0  0  0  0  0  0  0  0  0  0  0  0
  144.6866   71.6160  218.3965 H   0  0  0  0  0  0  0  0  0  0  0  0
  146.7834   72.7542  220.1603 H   0  0  0  0  0  0  0  0  0  0  0  0
  145.9333   73.4775  218.7147 H   0  0  0  0  0  0  0  0  0  0  0  0
  145.2362   73.5676  221.6037 H   0  0  0  0  0  0  0  0  0  0  0  0
  145.3935   74.8857  220.3059 H   0  0  0  0  0  0  0  0  0  0  0  0
  143.1558   74.2932  221.3258 H   0  0  0  0  0  0  0  0  0  0  0  0
  142.0153   74.5984  219.4051 H   0  0  0  0  0  0  0  0  0  0  0  0
  144.7620   75.0254  218.0211 H   0  0  0  0  0  0  0  0  0  0  0  0
  143.6009   73.8785  217.4775 H   0  0  0  0  0  0  0  0  0  0  0  0
  143.4569   76.4632  216.5632 H   0  0  0  0  0  0  0  0  0  0  0  0
  141.9275   75.6952  216.9734 H   0  0  0  0  0  0  0  0  0  0  0  0
  143.1943   77.9758  218.2978 H   0  0  0  0  0  0  0  0  0  0  0  0
  141.6798   77.2278  218.7777 H   0  0  0  0  0  0  0  0  0  0  0  0
  144.5604   76.4955  219.6837 H   0  0  0  0  0  0  0  0  0  0  0  0
  143.2202   76.6896  220.7328 H   0  0  0  0  0  0  0  0  0  0  0  0
  137.9581   75.4918  221.7624 H   0  0  0  0  0  0  0  0  0  0  0  0
  137.3750   77.7534  222.5048 H   0  0  0  0  0  0  0  0  0  0  0  0
  138.0031   79.9040  223.2624 H   0  0  0  0  0  0  0  0  0  0  0  0
  139.8141   81.5111  223.8820 H   0  0  0  0  0  0  0  0  0  0  0  0
  142.7634   78.5118  222.9906 H   0  0  0  0  0  0  0  0  0  0  0  0
  1  2  2  0
  2  3  1  0
  3  4  1  0
  4  5  1  0
  5  6  2  0
  5  7  1  0
  7  8  1  0
  8  9  1  0
  9 10  1  0
 10 11  1  0
 11 12  1  0
 12 13  1  0
 13 14  1  0
 14 15  1  0
 15 16  1  0
 16 17  1  0
  2 18  1  0
 18 19  2  0
 19 20  1  0
 20 21  2  0
 21 22  1  0
 22 23  2  0
 23 24  1  0
 24 25  1  0
 24 26  2  0
 26 27  1  0
 27 28  2  0
 12  7  1  0
 17 13  1  0
 28 18  1  0
 27 21  1  0
  3 29  1  0
  4 30  1  0
  4 31  1  0
  8 32  1  0
  8 33  1  0
  9 34  1  0
  9 35  1  0
 10 36  1  0
 10 37  1  0
 11 38  1  0
 11 39  1  0
 12 40  1  1
 13 41  1  0
 14 42  1  0
 14 43  1  0
 15 44  1  0
 15 45  1  0
 16 46  1  0
 16 47  1  0
 17 48  1  0
 17 49  1  0
 19 50  1  0
 20 51  1  0
 22 52  1  0
 23 53  1  0
 26 54  1  0
M  END
>  <meeko>  (14) 
{"free_energy": -7.29, "intermolecular_energy": -8.79, "internal_energy": -2.24, "cluster_size": 6, "cluster_id": 3, "rank_in_cluster": 6}

$$$$

     RDKit          3D

 54 57  0  0  0  0  0  0  0  0999 V2000
  134.3010   69.2270  226.4680 O   0  0  0  0  0  0  0  0  0  0  0  0
  134.6120   70.3690  226.0250 C   0  0  0  0  0  0  0  0  0  0  0  0
  135.7580   70.4460  225.1120 N   0  0  0  0  0  0  0  0  0  0  0  0
  136.3830   69.2090  224.8380 C   0  0  0  0  0  0  0  0  0  0  0  0
  137.8310   69.0950  224.7300 C   0  0  0  0  0  0  0  0  0  0  0  0
  138.2910   68.1420  225.5230 O   0  0  0  0  0  0  0  0  0  0  0  0
  138.8040   69.7480  224.0040 N   0  0  0  0  0  0  0  0  0  0  0  0
  138.6790   70.1670  222.5890 C   0  0  0  0  0  0  0  0  0  0  0  0
  138.4730   71.6570  222.6490 C   0  0  0  0  0  0  0  0  0  0  0  0
  139.8070   72.2370  223.0870 C   0  0  0  0  0  0  0  0  0  0  0  0
  140.7190   71.2320  223.6850 C   0  0  0  0  0  0  0  0  0  0  0  0
  140.1050   70.1880  224.5650 C   0  0  1  0  0  0  0  0  0  0  0  0
  139.9790   70.5470  225.9760 C   0  0  0  0  0  0  0  0  0  0  0  0
  140.8750   71.6230  226.5170 C   0  0  0  0  0  0  0  0  0  0  0  0
  140.3930   71.5970  227.9780 C   0  0  0  0  0  0  0  0  0  0  0  0
  140.0780   70.1180  228.2490 C   0  0  0  0  0  0  0  0  0  0  0  0
  140.4420   69.4170  226.9240 C   0  0  0  0  0  0  0  0  0  0  0  0
  133.8940   71.5730  226.3780 C   0  0  0  0  0  0  0  0  0  0  0  0
  132.7880   71.4440  227.1890 C   0  0  0  0  0  0  0  0  0  0  0  0
  132.0590   72.5290  227.5660 C   0  0  0  0  0  0  0  0  0  0  0  0
  132.4220   73.7830  227.1360 C   0  0  0  0  0  0  0  0  0  0  0  0
  131.6640   74.8670  227.5330 C   0  0  0  0  0  0  0  0  0  0  0  0
  132.0380   76.1220  227.0950 C   0  0  0  0  0  0  0  0  0  0  0  0
  133.1490   76.2540  226.2800 C   0  0  0  0  0  0  0  0  0  0  0  0
  133.5720   77.8800  225.7560 Cl  0  0  0  0  0  0  0  0  0  0  0  0
  133.8820   75.1480  225.9030 C   0  0  0  0  0  0  0  0  0  0  0  0
  133.5300   73.8900  226.3260 C   0  0  0  0  0  0  0  0  0  0  0  0
  134.2350   72.8040  225.9660 N   0  0  0  0  0  0  0  0  0  0  0  0
  135.9660   71.3980  224.8150 H   0  0  0  0  0  0  0  0  0  0  0  0
  136.0767   68.5221  225.6407 H   0  0  0  0  0  0  0  0  0  0  0  0
  136.0522   68.9998  223.8100 H   0  0  0  0  0  0  0  0  0  0  0  0
  139.5948   69.9241  222.0301 H   0  0  0  0  0  0  0  0  0  0  0  0
  137.8541   69.6530  222.0738 H   0  0  0  0  0  0  0  0  0  0  0  0
  138.1918   72.0458  221.6592 H   0  0  0  0  0  0  0  0  0  0  0  0
  137.6639   71.9282  223.3431 H   0  0  0  0  0  0  0  0  0  0  0  0
  140.3012   72.6769  222.2082 H   0  0  0  0  0  0  0  0  0  0  0  0
  139.5956   72.9863  223.8641 H   0  0  0  0  0  0  0  0  0  0  0  0
  141.2256   70.7119  222.8587 H   0  0  0  0  0  0  0  0  0  0  0  0
  141.3801   71.8087  224.3486 H   0  0  0  0  0  0  0  0  0  0  0  0
  140.8201   69.3522  224.5656 H   0  0  0  0  0  0  0  0  0  0  0  0
  138.9156   70.8281  225.9672 H   0  0  0  0  0  0  0  0  0  0  0  0
  141.9397   71.3622  226.4258 H   0  0  0  0  0  0  0  0  0  0  0  0
  140.8170   72.5970  226.0091 H   0  0  0  0  0  0  0  0  0  0  0  0
  141.1817   71.9575  228.6547 H   0  0  0  0  0  0  0  0  0  0  0  0
  139.5227   72.2488  228.1445 H   0  0  0  0  0  0  0  0  0  0  0  0
  140.6899   69.7322  229.0777 H   0  0  0  0  0  0  0  0  0  0  0  0
  139.0315   69.9526  228.5449 H   0  0  0  0  0  0  0  0  0  0  0  0
  141.5194   69.2121  226.8390 H   0  0  0  0  0  0  0  0  0  0  0  0
  140.0005   68.4235  226.7564 H   0  0  0  0  0  0  0  0  0  0  0  0
  132.4886   70.4448  227.5384 H   0  0  0  0  0  0  0  0  0  0  0  0
  131.1796   72.4028  228.2146 H   0  0  0  0  0  0  0  0  0  0  0  0
  130.7853   74.7341  228.1812 H   0  0  0  0  0  0  0  0  0  0  0  0
  131.4583   77.0088  227.3911 H   0  0  0  0  0  0  0  0  0  0  0  0
  134.7611   75.2756  225.2542 H   0  0  0  0  0  0  0  0  0  0  0  0
  1  2  2  0
  2  3  1  0
  3  4  1  0
  4  5  1  0
  5  6  2  0
  5  7  1  0
  7  8  1  0
  8  9  1  0
  9 10  1  0
 10 11  1  0
 11 12  1  0
 12 13  1  0
 13 14  1  0
 14 15  1  0
 15 16  1  0
 16 17  1  0
  2 18  1  0
 18 19  2  0
 19 20  1  0
 20 21  2  0
 21 22  1  0
 22 23  2  0
 23 24  1  0
 24 25  1  0
 24 26  2  0
 26 27  1  0
 27 28  2  0
 12  7  1  0
 17 13  1  0
 28 18  1  0
 27 21  1  0
  3 29  1  0
  4 30  1  0
  4 31  1  0
  8 32  1  0
  8 33  1  0
  9 34  1  0
  9 35  1  0
 10 36  1  0
 10 37  1  0
 11 38  1  0
 11 39  1  0
 12 40  1  1
 13 41  1  0
 14 42  1  0
 14 43  1  0
 15 44  1  0
 15 45  1  0
 16 46  1  0
 16 47  1  0
 17 48  1  0
 17 49  1  0
 19 50  1  0
 20 51  1  0
 22 52  1  0
 23 53  1  0
 26 54  1  0
M  END
>  <meeko>  (15) 
{"free_energy": -8.21, "intermolecular_energy": -9.7, "internal_energy": -1.66, "cluster_size": 2, "cluster_id": 2, "rank_in_cluster": 2}

$$$$

     RDKit          3D

 54 57  0  0  0  0  0  0  0  0999 V2000
  140.2470   74.9510  219.4000 O   0  0  0  0  0  0  0  0  0  0  0  0
  140.7320   74.6590  220.5290 C   0  0  0  0  0  0  0  0  0  0  0  0
  141.7610   75.5570  221.0700 N   0  0  0  0  0  0  0  0  0  0  0  0
  142.0850   76.6550  220.2440 C   0  0  0  0  0  0  0  0  0  0  0  0
  141.8430   78.0260  220.6710 C   0  0  0  0  0  0  0  0  0  0  0  0
  141.6860   78.8250  219.6300 O   0  0  0  0  0  0  0  0  0  0  0  0
  141.7470   78.6590  221.8920 N   0  0  0  0  0  0  0  0  0  0  0  0
  142.5870   79.7960  222.3340 C   0  0  0  0  0  0  0  0  0  0  0  0
  141.6860   80.9980  222.2360 C   0  0  0  0  0  0  0  0  0  0  0  0
  140.6670   80.8390  223.3510 C   0  0  0  0  0  0  0  0  0  0  0  0
  140.6000   79.4600  223.8950 C   0  0  0  0  0  0  0  0  0  0  0  0
  140.7280   78.3320  222.9190 C   0  0  1  0  0  0  0  0  0  0  0  0
  139.4810   77.8840  222.3050 C   0  0  0  0  0  0  0  0  0  0  0  0
  138.2010   78.5380  222.7390 C   0  0  0  0  0  0  0  0  0  0  0  0
  137.2310   77.7250  221.8640 C   0  0  0  0  0  0  0  0  0  0  0  0
  137.8450   76.3190  221.8200 C   0  0  0  0  0  0  0  0  0  0  0  0
  139.1030   76.4390  222.7070 C   0  0  0  0  0  0  0  0  0  0  0  0
  140.3210   73.5000  221.2880 C   0  0  0  0  0  0  0  0  0  0  0  0
  139.4760   72.6010  220.6760 C   0  0  0  0  0  0  0  0  0  0  0  0
  139.0430   71.4860  221.3230 C   0  0  0  0  0  0  0  0  0  0  0  0
  139.4480   71.2390  222.6130 C   0  0  0  0  0  0  0  0  0  0  0  0
  138.9940   70.0990  223.2470 C   0  0  0  0  0  0  0  0  0  0  0  0
  139.4070   69.8630  224.5420 C   0  0  0  0  0  0  0  0  0  0  0  0
  140.2560   70.7650  225.1600 C   0  0  0  0  0  0  0  0  0  0  0  0
  140.7450   70.4050  226.8120 Cl  0  0  0  0  0  0  0  0  0  0  0  0
  140.6900   71.8940  224.4960 C   0  0  0  0  0  0  0  0  0  0  0  0
  140.2920   72.1510  223.2070 C   0  0  0  0  0  0  0  0  0  0  0  0
  140.7070   73.2460  222.5480 N   0  0  0  0  0  0  0  0  0  0  0  0
  142.1250   75.2460  221.9700 H   0  0  0  0  0  0  0  0  0  0  0  0
  143.1627   76.5801  220.0369 H   0  0  0  0  0  0  0  0  0  0  0  0
  141.3783   76.5393  219.4090 H   0  0  0  0  0  0  0  0  0  0  0  0
  142.9254   79.6484  223.3702 H   0  0  0  0  0  0  0  0  0  0  0  0
  143.4946   79.9053  221.7221 H   0  0  0  0  0  0  0  0  0  0  0  0
  142.2645   81.9234  222.3740 H   0  0  0  0  0  0  0  0  0  0  0  0
  141.2025   81.0640  221.2502 H   0  0  0  0  0  0  0  0  0  0  0  0
  140.9352   81.5240  224.1689 H   0  0  0  0  0  0  0  0  0  0  0  0
  139.6795   81.0683  222.9240 H   0  0  0  0  0  0  0  0  0  0  0  0
  141.4112   79.3547  224.6305 H   0  0  0  0  0  0  0  0  0  0  0  0
  139.5835   79.3662  224.3047 H   0  0  0  0  0  0  0  0  0  0  0  0
  141.0549   77.4679  223.5160 H   0  0  0  0  0  0  0  0  0  0  0  0
  139.7437   78.0914  221.2571 H   0  0  0  0  0  0  0  0  0  0  0  0
  138.0071   78.4003  223.8130 H   0  0  0  0  0  0  0  0  0  0  0  0
  138.1551   79.6306  222.6200 H   0  0  0  0  0  0  0  0  0  0  0  0
  136.2284   77.6981  222.3157 H   0  0  0  0  0  0  0  0  0  0  0  0
  137.1055   78.1597  220.8613 H   0  0  0  0  0  0  0  0  0  0  0  0
  137.1470   75.5735  222.2287 H   0  0  0  0  0  0  0  0  0  0  0  0
  138.0757   75.9872  220.7969 H   0  0  0  0  0  0  0  0  0  0  0  0
  138.8725   76.3471  223.7786 H   0  0  0  0  0  0  0  0  0  0  0  0
  139.8781   75.6709  222.5681 H   0  0  0  0  0  0  0  0  0  0  0  0
  139.1449   72.7885  219.6439 H   0  0  0  0  0  0  0  0  0  0  0  0
  138.3686   70.7817  220.8139 H   0  0  0  0  0  0  0  0  0  0  0  0
  138.3206   69.3975  222.7327 H   0  0  0  0  0  0  0  0  0  0  0  0
  139.0647   68.9660  225.0788 H   0  0  0  0  0  0  0  0  0  0  0  0
  141.3640   72.5979  225.0061 H   0  0  0  0  0  0  0  0  0  0  0  0
  1  2  2  0
  2  3  1  0
  3  4  1  0
  4  5  1  0
  5  6  2  0
  5  7  1  0
  7  8  1  0
  8  9  1  0
  9 10  1  0
 10 11  1  0
 11 12  1  0
 12 13  1  0
 13 14  1  0
 14 15  1  0
 15 16  1  0
 16 17  1  0
  2 18  1  0
 18 19  2  0
 19 20  1  0
 20 21  2  0
 21 22  1  0
 22 23  2  0
 23 24  1  0
 24 25  1  0
 24 26  2  0
 26 27  1  0
 27 28  2  0
 12  7  1  0
 17 13  1  0
 28 18  1  0
 27 21  1  0
  3 29  1  0
  4 30  1  0
  4 31  1  0
  8 32  1  0
  8 33  1  0
  9 34  1  0
  9 35  1  0
 10 36  1  0
 10 37  1  0
 11 38  1  0
 11 39  1  0
 12 40  1  1
 13 41  1  0
 14 42  1  0
 14 43  1  0
 15 44  1  0
 15 45  1  0
 16 46  1  0
 16 47  1  0
 17 48  1  0
 17 49  1  0
 19 50  1  0
 20 51  1  0
 22 52  1  0
 23 53  1  0
 26 54  1  0
M  END
>  <meeko>  (16) 
{"free_energy": -7.12, "intermolecular_energy": -8.61, "internal_energy": -2.28, "cluster_size": 7, "cluster_id": 1, "rank_in_cluster": 5}

$$$$

     RDKit          3D

 54 57  0  0  0  0  0  0  0  0999 V2000
  134.2890   69.2490  226.4910 O   0  0  0  0  0  0  0  0  0  0  0  0
  134.5770   70.3910  226.0320 C   0  0  0  0  0  0  0  0  0  0  0  0
  135.6970   70.4730  225.0870 N   0  0  0  0  0  0  0  0  0  0  0  0
  136.3260   69.2410  224.8030 C   0  0  0  0  0  0  0  0  0  0  0  0
  137.7750   69.1280  224.7220 C   0  0  0  0  0  0  0  0  0  0  0  0
  138.2230   68.1900  225.5410 O   0  0  0  0  0  0  0  0  0  0  0  0
  138.7600   69.7680  224.0010 N   0  0  0  0  0  0  0  0  0  0  0  0
  138.6420   70.2000  222.5890 C   0  0  0  0  0  0  0  0  0  0  0  0
  138.4630   71.6930  222.6600 C   0  0  0  0  0  0  0  0  0  0  0  0
  139.8070   72.2460  223.1010 C   0  0  0  0  0  0  0  0  0  0  0  0
  140.7010   71.2200  223.6920 C   0  0  0  0  0  0  0  0  0  0  0  0
  140.0680   70.1810  224.5650 C   0  0  1  0  0  0  0  0  0  0  0  0
  139.9490   70.5310  225.9780 C   0  0  0  0  0  0  0  0  0  0  0  0
  140.8300   71.6210  226.5160 C   0  0  0  0  0  0  0  0  0  0  0  0
  140.3620   71.5800  227.9810 C   0  0  0  0  0  0  0  0  0  0  0  0
  140.0780   70.0950  228.2480 C   0  0  0  0  0  0  0  0  0  0  0  0
  140.4430   69.4060  226.9160 C   0  0  0  0  0  0  0  0  0  0  0  0
  133.8570   71.5900  226.3970 C   0  0  0  0  0  0  0  0  0  0  0  0
  132.7380   71.4500  227.1880 C   0  0  0  0  0  0  0  0  0  0  0  0
  132.0070   72.5300  227.5740 C   0  0  0  0  0  0  0  0  0  0  0  0
  132.3800   73.7910  227.1760 C   0  0  0  0  0  0  0  0  0  0  0  0
  131.6200   74.8690  227.5820 C   0  0  0  0  0  0  0  0  0  0  0  0
  132.0040   76.1310  227.1750 C   0  0  0  0  0  0  0  0  0  0  0  0
  133.1280   76.2750  226.3800 C   0  0  0  0  0  0  0  0  0  0  0  0
  133.5650   77.9090  225.8950 Cl  0  0  0  0  0  0  0  0  0  0  0  0
  133.8640   75.1740  225.9930 C   0  0  0  0  0  0  0  0  0  0  0  0
  133.5020   73.9100  226.3850 C   0  0  0  0  0  0  0  0  0  0  0  0
  134.2090   72.8280  226.0150 N   0  0  0  0  0  0  0  0  0  0  0  0
  135.8870   71.4260  224.7790 H   0  0  0  0  0  0  0  0  0  0  0  0
  136.0033   68.5398  225.5867 H   0  0  0  0  0  0  0  0  0  0  0  0
  136.0155   69.0506  223.7650 H   0  0  0  0  0  0  0  0  0  0  0  0
  139.5530   69.9448  222.0278 H   0  0  0  0  0  0  0  0  0  0  0  0
  137.8076   69.7049  222.0706 H   0  0  0  0  0  0  0  0  0  0  0  0
  138.1881   72.0939  221.6733 H   0  0  0  0  0  0  0  0  0  0  0  0
  137.6594   71.9735  223.3569 H   0  0  0  0  0  0  0  0  0  0  0  0
  140.3088   72.6828  222.2250 H   0  0  0  0  0  0  0  0  0  0  0  0
  139.6096   72.9941  223.8830 H   0  0  0  0  0  0  0  0  0  0  0  0
  141.1980   70.6966  222.8619 H   0  0  0  0  0  0  0  0  0  0  0  0
  141.3726   71.7800  224.3594 H   0  0  0  0  0  0  0  0  0  0  0  0
  140.7682   69.3327  224.5596 H   0  0  0  0  0  0  0  0  0  0  0  0
  138.8804   70.7921  225.9804 H   0  0  0  0  0  0  0  0  0  0  0  0
  141.8985   71.3802  226.4141 H   0  0  0  0  0  0  0  0  0  0  0  0
  140.7494   72.5960  226.0131 H   0  0  0  0  0  0  0  0  0  0  0  0
  141.1498   71.9527  228.6522 H   0  0  0  0  0  0  0  0  0  0  0  0
  139.4811   72.2145  228.1583 H   0  0  0  0  0  0  0  0  0  0  0  0
  140.7049   69.7175  229.0693 H   0  0  0  0  0  0  0  0  0  0  0  0
  139.0376   69.9086  228.5527 H   0  0  0  0  0  0  0  0  0  0  0  0
  141.5233   69.2223  226.8198 H   0  0  0  0  0  0  0  0  0  0  0  0
  140.0195   68.4047  226.7483 H   0  0  0  0  0  0  0  0  0  0  0  0
  132.4298   70.4455  227.5137 H   0  0  0  0  0  0  0  0  0  0  0  0
  131.1165   72.3938  228.2053 H   0  0  0  0  0  0  0  0  0  0  0  0
  130.7309   74.7263  228.2138 H   0  0  0  0  0  0  0  0  0  0  0  0
  131.4224   77.0136  227.4795 H   0  0  0  0  0  0  0  0  0  0  0  0
  134.7538   75.3116  225.3611 H   0  0  0  0  0  0  0  0  0  0  0  0
  1  2  2  0
  2  3  1  0
  3  4  1  0
  4  5  1  0
  5  6  2  0
  5  7  1  0
  7  8  1  0
  8  9  1  0
  9 10  1  0
 10 11  1  0
 11 12  1  0
 12 13  1  0
 13 14  1  0
 14 15  1  0
 15 16  1  0
 16 17  1  0
  2 18  1  0
 18 19  2  0
 19 20  1  0
 20 21  2  0
 21 22  1  0
 22 23  2  0
 23 24  1  0
 24 25  1  0
 24 26  2  0
 26 27  1  0
 27 28  2  0
 12  7  1  0
 17 13  1  0
 28 18  1  0
 27 21  1  0
  3 29  1  0
  4 30  1  0
  4 31  1  0
  8 32  1  0
  8 33  1  0
  9 34  1  0
  9 35  1  0
 10 36  1  0
 10 37  1  0
 11 38  1  0
 11 39  1  0
 12 40  1  1
 13 41  1  0
 14 42  1  0
 14 43  1  0
 15 44  1  0
 15 45  1  0
 16 46  1  0
 16 47  1  0
 17 48  1  0
 17 49  1  0
 19 50  1  0
 20 51  1  0
 22 52  1  0
 23 53  1  0
 26 54  1  0
M  END
>  <meeko>  (17) 
{"free_energy": -8.21, "intermolecular_energy": -9.7, "internal_energy": -1.65, "cluster_size": 2, "cluster_id": 2, "rank_in_cluster": 1}

$$$$

     RDKit          3D

 54 57  0  0  0  0  0  0  0  0999 V2000
  139.9710   79.3780  218.9710 O   0  0  0  0  0  0  0  0  0  0  0  0
  141.0140   79.0560  219.6070 C   0  0  0  0  0  0  0  0  0  0  0  0
  141.9050   80.1430  220.0300 N   0  0  0  0  0  0  0  0  0  0  0  0
  141.4760   81.4390  219.6650 C   0  0  0  0  0  0  0  0  0  0  0  0
  140.5630   82.2020  220.5030 C   0  0  0  0  0  0  0  0  0  0  0  0
  140.8590   83.4910  220.4740 O   0  0  0  0  0  0  0  0  0  0  0  0
  139.4850   81.8860  221.3020 N   0  0  0  0  0  0  0  0  0  0  0  0
  138.0630   81.9680  220.8920 C   0  0  0  0  0  0  0  0  0  0  0  0
  137.6460   80.5390  220.6740 C   0  0  0  0  0  0  0  0  0  0  0  0
  137.5930   79.9120  222.0560 C   0  0  0  0  0  0  0  0  0  0  0  0
  138.3140   80.6970  223.0870 C   0  0  0  0  0  0  0  0  0  0  0  0
  139.6000   81.3460  222.6780 C   0  0  1  0  0  0  0  0  0  0  0  0
  140.7970   80.5220  222.8260 C   0  0  0  0  0  0  0  0  0  0  0  0
  140.7320   79.3320  223.7380 C   0  0  0  0  0  0  0  0  0  0  0  0
  142.1840   78.8500  223.5750 C   0  0  0  0  0  0  0  0  0  0  0  0
  143.0000   80.1420  223.4290 C   0  0  0  0  0  0  0  0  0  0  0  0
  141.9440   81.2600  223.5550 C   0  0  0  0  0  0  0  0  0  0  0  0
  141.3510   77.6870  219.9250 C   0  0  0  0  0  0  0  0  0  0  0  0
  140.3470   76.8750  220.4060 C   0  0  0  0  0  0  0  0  0  0  0  0
  140.5840   75.5750  220.7290 C   0  0  0  0  0  0  0  0  0  0  0  0
  141.8450   75.0490  220.5780 C   0  0  0  0  0  0  0  0  0  0  0  0
  142.0580   73.7260  220.9130 C   0  0  0  0  0  0  0  0  0  0  0  0
  143.3280   73.2090  220.7580 C   0  0  0  0  0  0  0  0  0  0  0  0
  144.3390   74.0220  220.2760 C   0  0  0  0  0  0  0  0  0  0  0  0
  145.9350   73.3030  220.1020 Cl  0  0  0  0  0  0  0  0  0  0  0  0
  144.0900   75.3400  219.9510 C   0  0  0  0  0  0  0  0  0  0  0  0
  142.8350   75.8770  220.0970 C   0  0  0  0  0  0  0  0  0  0  0  0
  142.5770   77.1590  219.7840 N   0  0  0  0  0  0  0  0  0  0  0  0
  142.7360   79.8080  220.5150 H   0  0  0  0  0  0  0  0  0  0  0  0
  142.3854   82.0492  219.5613 H   0  0  0  0  0  0  0  0  0  0  0  0
  140.8675   81.2432  218.7698 H   0  0  0  0  0  0  0  0  0  0  0  0
  137.4570   82.4325  221.6838 H   0  0  0  0  0  0  0  0  0  0  0  0
  137.9241   82.5843  219.9915 H   0  0  0  0  0  0  0  0  0  0  0  0
  136.6565   80.4968  220.1953 H   0  0  0  0  0  0  0  0  0  0  0  0
  138.3466   80.0075  220.0132 H   0  0  0  0  0  0  0  0  0  0  0  0
  136.5391   79.8238  222.3587 H   0  0  0  0  0  0  0  0  0  0  0  0
  138.0894   78.9327  221.9875 H   0  0  0  0  0  0  0  0  0  0  0  0
  137.6366   81.4925  223.4309 H   0  0  0  0  0  0  0  0  0  0  0  0
  138.5987   79.9626  223.8548 H   0  0  0  0  0  0  0  0  0  0  0  0
  139.7514   82.1663  223.3951 H   0  0  0  0  0  0  0  0  0  0  0  0
  140.9281   80.2531  221.7675 H   0  0  0  0  0  0  0  0  0  0  0  0
  140.5022   79.6156  224.7757 H   0  0  0  0  0  0  0  0  0  0  0  0
  139.9513   78.5921  223.5076 H   0  0  0  0  0  0  0  0  0  0  0  0
  142.5078   78.2829  224.4602 H   0  0  0  0  0  0  0  0  0  0  0  0
  142.3083   78.1757  222.7149 H   0  0  0  0  0  0  0  0  0  0  0  0
  143.7529   80.2223  224.2269 H   0  0  0  0  0  0  0  0  0  0  0  0
  143.5578   80.1883  222.4821 H   0  0  0  0  0  0  0  0  0  0  0  0
  141.6976   81.4896  224.6022 H   0  0  0  0  0  0  0  0  0  0  0  0
  142.2236   82.2472  223.1584 H   0  0  0  0  0  0  0  0  0  0  0  0
  139.3343   77.2859  220.5312 H   0  0  0  0  0  0  0  0  0  0  0  0
  139.7670   74.9451  221.1108 H   0  0  0  0  0  0  0  0  0  0  0  0
  141.2367   73.1009  221.2934 H   0  0  0  0  0  0  0  0  0  0  0  0
  143.5350   72.1598  221.0153 H   0  0  0  0  0  0  0  0  0  0  0  0
  144.9082   75.9687  219.5698 H   0  0  0  0  0  0  0  0  0  0  0  0
  1  2  2  0
  2  3  1  0
  3  4  1  0
  4  5  1  0
  5  6  2  0
  5  7  1  0
  7  8  1  0
  8  9  1  0
  9 10  1  0
 10 11  1  0
 11 12  1  0
 12 13  1  0
 13 14  1  0
 14 15  1  0
 15 16  1  0
 16 17  1  0
  2 18  1  0
 18 19  2  0
 19 20  1  0
 20 21  2  0
 21 22  1  0
 22 23  2  0
 23 24  1  0
 24 25  1  0
 24 26  2  0
 26 27  1  0
 27 28  2  0
 12  7  1  0
 17 13  1  0
 28 18  1  0
 27 21  1  0
  3 29  1  0
  4 30  1  0
  4 31  1  0
  8 32  1  0
  8 33  1  0
  9 34  1  0
  9 35  1  0
 10 36  1  0
 10 37  1  0
 11 38  1  0
 11 39  1  0
 12 40  1  1
 13 41  1  0
 14 42  1  0
 14 43  1  0
 15 44  1  0
 15 45  1  0
 16 46  1  0
 16 47  1  0
 17 48  1  0
 17 49  1  0
 19 50  1  0
 20 51  1  0
 22 52  1  0
 23 53  1  0
 26 54  1  0
M  END
>  <meeko>  (18) 
{"free_energy": -6.68, "intermolecular_energy": -8.17, "internal_energy": -2.65, "cluster_size": 4, "cluster_id": 5, "rank_in_cluster": 1}

$$$$

     RDKit          3D

 54 57  0  0  0  0  0  0  0  0999 V2000
  140.6920   73.4660  222.1900 O   0  0  0  0  0  0  0  0  0  0  0  0
  140.3430   74.4270  221.4480 C   0  0  0  0  0  0  0  0  0  0  0  0
  140.2130   74.1520  220.0110 N   0  0  0  0  0  0  0  0  0  0  0  0
  140.5000   72.8220  219.6320 C   0  0  0  0  0  0  0  0  0  0  0  0
  141.8710   72.3470  219.5060 C   0  0  0  0  0  0  0  0  0  0  0  0
  141.9650   71.4160  218.5720 O   0  0  0  0  0  0  0  0  0  0  0  0
  143.0620   72.6440  220.1320 N   0  0  0  0  0  0  0  0  0  0  0  0
  144.0800   71.6510  220.5500 C   0  0  0  0  0  0  0  0  0  0  0  0
  145.1870   71.7910  219.5390 C   0  0  0  0  0  0  0  0  0  0  0  0
  145.8400   73.1310  219.8310 C   0  0  0  0  0  0  0  0  0  0  0  0
  145.0060   74.0230  220.6720 C   0  0  0  0  0  0  0  0  0  0  0  0
  143.5310   74.0220  220.4170 C   0  0  1  0  0  0  0  0  0  0  0  0
  143.0650   74.9610  219.3990 C   0  0  0  0  0  0  0  0  0  0  0  0
  143.6870   74.8930  218.0340 C   0  0  0  0  0  0  0  0  0  0  0  0
  142.9130   76.0510  217.3820 C   0  0  0  0  0  0  0  0  0  0  0  0
  142.7330   77.0730  218.5130 C   0  0  0  0  0  0  0  0  0  0  0  0
  143.4540   76.4240  219.7140 C   0  0  0  0  0  0  0  0  0  0  0  0
  140.0730   75.7540  221.9510 C   0  0  0  0  0  0  0  0  0  0  0  0
  138.7550   76.1200  222.1180 C   0  0  0  0  0  0  0  0  0  0  0  0
  138.4190   77.3510  222.5870 C   0  0  0  0  0  0  0  0  0  0  0  0
  139.4020   78.2580  222.9050 C   0  0  0  0  0  0  0  0  0  0  0  0
  139.0320   79.5010  223.3790 C   0  0  0  0  0  0  0  0  0  0  0  0
  140.0280   80.4030  223.6930 C   0  0  0  0  0  0  0  0  0  0  0  0
  141.3530   80.0390  223.5270 C   0  0  0  0  0  0  0  0  0  0  0  0
  142.5740   81.2340  223.9460 Cl  0  0  0  0  0  0  0  0  0  0  0  0
  141.6850   78.7870  223.0500 C   0  0  0  0  0  0  0  0  0  0  0  0
  140.7120   77.8730  222.7300 C   0  0  0  0  0  0  0  0  0  0  0  0
  141.0210   76.6500  222.2650 N   0  0  0  0  0  0  0  0  0  0  0  0
  139.9540   74.9770  219.4720 H   0  0  0  0  0  0  0  0  0  0  0  0
  140.0144   72.1750  220.3773 H   0  0  0  0  0  0  0  0  0  0  0  0
  140.1412   72.7890  218.5927 H   0  0  0  0  0  0  0  0  0  0  0  0
  144.4481   71.8752  221.5621 H   0  0  0  0  0  0  0  0  0  0  0  0
  143.6750   70.6289  220.5853 H   0  0  0  0  0  0  0  0  0  0  0  0
  145.9164   70.9755  219.6529 H   0  0  0  0  0  0  0  0  0  0  0  0
  144.8058   71.7400  218.5084 H   0  0  0  0  0  0  0  0  0  0  0  0
  146.7910   72.9488  220.3529 H   0  0  0  0  0  0  0  0  0  0  0  0
  145.9853   73.6380  218.8657 H   0  0  0  0  0  0  0  0  0  0  0  0
  145.1607   73.7289  221.7206 H   0  0  0  0  0  0  0  0  0  0  0  0
  145.3366   75.0413  220.4194 H   0  0  0  0  0  0  0  0  0  0  0  0
  143.0771   74.3923  221.3481 H   0  0  0  0  0  0  0  0  0  0  0  0
  142.0010   74.6819  219.4084 H   0  0  0  0  0  0  0  0  0  0  0  0
  144.7706   75.0803  218.0611 H   0  0  0  0  0  0  0  0  0  0  0  0
  143.6192   73.9214  217.5227 H   0  0  0  0  0  0  0  0  0  0  0  0
  143.4892   76.4860  216.5521 H   0  0  0  0  0  0  0  0  0  0  0  0
  141.9535   75.7258  216.9535 H   0  0  0  0  0  0  0  0  0  0  0  0
  143.1978   78.0346  218.2499 H   0  0  0  0  0  0  0  0  0  0  0  0
  141.6760   77.2956  218.7210 H   0  0  0  0  0  0  0  0  0  0  0  0
  144.5419   76.5850  219.6889 H   0  0  0  0  0  0  0  0  0  0  0  0
  143.1854   76.8010  220.7119 H   0  0  0  0  0  0  0  0  0  0  0  0
  137.9598   75.4026  221.8671 H   0  0  0  0  0  0  0  0  0  0  0  0
  137.3601   77.6214  222.7121 H   0  0  0  0  0  0  0  0  0  0  0  0
  137.9714   79.7652  223.5030 H   0  0  0  0  0  0  0  0  0  0  0  0
  139.7710   81.4031  224.0721 H   0  0  0  0  0  0  0  0  0  0  0  0
  142.7442   78.5178  222.9245 H   0  0  0  0  0  0  0  0  0  0  0  0
  1  2  2  0
  2  3  1  0
  3  4  1  0
  4  5  1  0
  5  6  2  0
  5  7  1  0
  7  8  1  0
  8  9  1  0
  9 10  1  0
 10 11  1  0
 11 12  1  0
 12 13  1  0
 13 14  1  0
 14 15  1  0
 15 16  1  0
 16 17  1  0
  2 18  1  0
 18 19  2  0
 19 20  1  0
 20 21  2  0
 21 22  1  0
 22 23  2  0
 23 24  1  0
 24 25  1  0
 24 26  2  0
 26 27  1  0
 27 28  2  0
 12  7  1  0
 17 13  1  0
 28 18  1  0
 27 21  1  0
  3 29  1  0
  4 30  1  0
  4 31  1  0
  8 32  1  0
  8 33  1  0
  9 34  1  0
  9 35  1  0
 10 36  1  0
 10 37  1  0
 11 38  1  0
 11 39  1  0
 12 40  1  1
 13 41  1  0
 14 42  1  0
 14 43  1  0
 15 44  1  0
 15 45  1  0
 16 46  1  0
 16 47  1  0
 17 48  1  0
 17 49  1  0
 19 50  1  0
 20 51  1  0
 22 52  1  0
 23 53  1  0
 26 54  1  0
M  END
>  <meeko>  (19) 
{"free_energy": -7.31, "intermolecular_energy": -8.8, "internal_energy": -2.24, "cluster_size": 6, "cluster_id": 3, "rank_in_cluster": 5}

$$$$

     RDKit          3D

 54 57  0  0  0  0  0  0  0  0999 V2000
  140.3760   73.4790  222.2810 O   0  0  0  0  0  0  0  0  0  0  0  0
  140.1920   74.4630  221.5100 C   0  0  0  0  0  0  0  0  0  0  0  0
  140.2300   74.2010  220.0660 N   0  0  0  0  0  0  0  0  0  0  0  0
  140.4730   72.8550  219.7130 C   0  0  0  0  0  0  0  0  0  0  0  0
  141.8250   72.3490  219.5300 C   0  0  0  0  0  0  0  0  0  0  0  0
  141.8600   71.4210  218.5880 O   0  0  0  0  0  0  0  0  0  0  0  0
  143.0480   72.6150  220.1090 N   0  0  0  0  0  0  0  0  0  0  0  0
  144.0590   71.5970  220.4790 C   0  0  0  0  0  0  0  0  0  0  0  0
  145.1270   71.7190  219.4260 C   0  0  0  0  0  0  0  0  0  0  0  0
  145.8220   73.0420  219.6980 C   0  0  0  0  0  0  0  0  0  0  0  0
  145.0420   73.9470  220.5780 C   0  0  0  0  0  0  0  0  0  0  0  0
  143.5580   73.9810  220.3830 C   0  0  1  0  0  0  0  0  0  0  0  0
  143.0730   74.9360  219.3900 C   0  0  0  0  0  0  0  0  0  0  0  0
  143.6630   74.8860  218.0100 C   0  0  0  0  0  0  0  0  0  0  0  0
  142.8790   76.0570  217.3930 C   0  0  0  0  0  0  0  0  0  0  0  0
  142.7290   77.0630  218.5430 C   0  0  0  0  0  0  0  0  0  0  0  0
  143.4750   76.3930  219.7160 C   0  0  0  0  0  0  0  0  0  0  0  0
  139.9510   75.8050  221.9880 C   0  0  0  0  0  0  0  0  0  0  0  0
  138.6410   76.2010  222.1490 C   0  0  0  0  0  0  0  0  0  0  0  0
  138.3310   77.4490  222.5950 C   0  0  0  0  0  0  0  0  0  0  0  0
  139.3330   78.3400  222.8950 C   0  0  0  0  0  0  0  0  0  0  0  0
  138.9900   79.6000  223.3450 C   0  0  0  0  0  0  0  0  0  0  0  0
  140.0050   80.4870  223.6420 C   0  0  0  0  0  0  0  0  0  0  0  0
  141.3220   80.0910  223.4820 C   0  0  0  0  0  0  0  0  0  0  0  0
  142.5680   81.2690  223.8770 Cl  0  0  0  0  0  0  0  0  0  0  0  0
  141.6280   78.8240  223.0280 C   0  0  0  0  0  0  0  0  0  0  0  0
  140.6350   77.9250  222.7260 C   0  0  0  0  0  0  0  0  0  0  0  0
  140.9180   76.6870  222.2840 N   0  0  0  0  0  0  0  0  0  0  0  0
  140.0990   75.0420  219.5060 H   0  0  0  0  0  0  0  0  0  0  0  0
  140.0156   72.2399  220.5019 H   0  0  0  0  0  0  0  0  0  0  0  0
  140.0601   72.7994  218.6950 H   0  0  0  0  0  0  0  0  0  0  0  0
  144.4724   71.8056  221.4768 H   0  0  0  0  0  0  0  0  0  0  0  0
  143.6326   70.5840  220.5239 H   0  0  0  0  0  0  0  0  0  0  0  0
  145.8416   70.8866  219.5061 H   0  0  0  0  0  0  0  0  0  0  0  0
  144.7033   71.6836  218.4115 H   0  0  0  0  0  0  0  0  0  0  0  0
  146.7891   72.8353  220.1797 H   0  0  0  0  0  0  0  0  0  0  0  0
  145.9401   73.5519  218.7305 H   0  0  0  0  0  0  0  0  0  0  0  0
  145.2321   73.6421  221.6177 H   0  0  0  0  0  0  0  0  0  0  0  0
  145.3849   74.9594  220.3182 H   0  0  0  0  0  0  0  0  0  0  0  0
  143.1498   74.3558  221.3332 H   0  0  0  0  0  0  0  0  0  0  0  0
  142.0086   74.6602  219.4206 H   0  0  0  0  0  0  0  0  0  0  0  0
  144.7477   75.0686  218.0148 H   0  0  0  0  0  0  0  0  0  0  0  0
  143.5791   73.9224  217.4861 H   0  0  0  0  0  0  0  0  0  0  0  0
  143.4380   76.5021  216.5567 H   0  0  0  0  0  0  0  0  0  0  0  0
  141.9086   75.7419  216.9819 H   0  0  0  0  0  0  0  0  0  0  0  0
  143.1914   78.0268  218.2836 H   0  0  0  0  0  0  0  0  0  0  0  0
  141.6781   77.2868  218.7788 H   0  0  0  0  0  0  0  0  0  0  0  0
  144.5626   76.5501  219.6672 H   0  0  0  0  0  0  0  0  0  0  0  0
  143.2311   76.7562  220.7253 H   0  0  0  0  0  0  0  0  0  0  0  0
  137.8308   75.4954  221.9127 H   0  0  0  0  0  0  0  0  0  0  0  0
  137.2782   77.7443  222.7153 H   0  0  0  0  0  0  0  0  0  0  0  0
  137.9353   79.8891  223.4636 H   0  0  0  0  0  0  0  0  0  0  0  0
  139.7697   81.4993  224.0025 H   0  0  0  0  0  0  0  0  0  0  0  0
  142.6812   78.5306  222.9065 H   0  0  0  0  0  0  0  0  0  0  0  0
  1  2  2  0
  2  3  1  0
  3  4  1  0
  4  5  1  0
  5  6  2  0
  5  7  1  0
  7  8  1  0
  8  9  1  0
  9 10  1  0
 10 11  1  0
 11 12  1  0
 12 13  1  0
 13 14  1  0
 14 15  1  0
 15 16  1  0
 16 17  1  0
  2 18  1  0
 18 19  2  0
 19 20  1  0
 20 21  2  0
 21 22  1  0
 22 23  2  0
 23 24  1  0
 24 25  1  0
 24 26  2  0
 26 27  1  0
 27 28  2  0
 12  7  1  0
 17 13  1  0
 28 18  1  0
 27 21  1  0
  3 29  1  0
  4 30  1  0
  4 31  1  0
  8 32  1  0
  8 33  1  0
  9 34  1  0
  9 35  1  0
 10 36  1  0
 10 37  1  0
 11 38  1  0
 11 39  1  0
 12 40  1  1
 13 41  1  0
 14 42  1  0
 14 43  1  0
 15 44  1  0
 15 45  1  0
 16 46  1  0
 16 47  1  0
 17 48  1  0
 17 49  1  0
 19 50  1  0
 20 51  1  0
 22 52  1  0
 23 53  1  0
 26 54  1  0
M  END
>  <meeko>  (20) 
{"free_energy": -7.36, "intermolecular_energy": -8.85, "internal_energy": -2.18, "cluster_size": 6, "cluster_id": 3, "rank_in_cluster": 1}

$$$$
