
     RDKit          3D

 46 49  0  0  0  0  0  0  0  0999 V2000
  139.9780   73.9890  221.9940 O   0  0  0  0  0  0  0  0  0  0  0  0
  140.5340   72.8550  221.9410 C   0  0  0  0  0  0  0  0  0  0  0  0
  141.2630   72.4580  220.7820 N   0  0  0  0  0  0  0  0  0  0  0  0
  141.3490   73.3670  219.6890 C   0  0  0  0  0  0  0  0  0  0  0  0
  142.5520   74.2630  219.7850 C   0  0  0  0  0  0  0  0  0  0  0  0
  142.3890   75.5060  219.7120 O   0  0  0  0  0  0  0  0  0  0  0  0
  143.8220   73.6440  219.9560 N   0  0  0  0  0  0  0  0  0  0  0  0
  144.6320   73.5840  221.1590 C   0  0  0  0  0  0  0  0  0  0  0  0
  146.0400   73.4780  220.6120 C   0  0  0  0  0  0  0  0  0  0  0  0
  145.9360   73.3740  219.1190 C   0  0  0  0  0  0  0  0  0  0  0  0
  144.5050   72.9500  218.8630 C   0  0  1  0  0  0  0  0  0  0  0  0
  144.4420   71.4780  219.0010 C   0  0  0  0  0  0  0  0  0  0  0  0
  143.3540   70.8340  219.4690 N   0  0  0  0  0  0  0  0  0  0  0  0
  143.2890   69.4970  219.5970 C   0  0  0  0  0  0  0  0  0  0  0  0
  144.3890   68.7680  219.2300 C   0  0  0  0  0  0  0  0  0  0  0  0
  144.4430   67.0100  219.3450 Cl  0  0  0  0  0  0  0  0  0  0  0  0
  145.5230   69.4040  218.7470 C   0  0  0  0  0  0  0  0  0  0  0  0
  145.5200   70.7580  218.6420 N   0  0  0  0  0  0  0  0  0  0  0  0
  140.4370   71.9320  223.0710 C   0  0  0  0  0  0  0  0  0  0  0  0
  139.9370   70.6620  222.8660 C   0  0  0  0  0  0  0  0  0  0  0  0
  139.8210   69.7390  223.9030 C   0  0  0  0  0  0  0  0  0  0  0  0
  140.2180   70.1040  225.1820 C   0  0  0  0  0  0  0  0  0  0  0  0
  140.0930   69.1870  226.1730 C   0  0  0  0  0  0  0  0  0  0  0  0
  140.4900   69.5530  227.4510 C   0  0  0  0  0  0  0  0  0  0  0  0
  140.3370   68.3840  228.7420 Cl  0  0  0  0  0  0  0  0  0  0  0  0
  140.9890   70.8260  227.6470 C   0  0  0  0  0  0  0  0  0  0  0  0
  141.1090   71.7500  226.6260 C   0  0  0  0  0  0  0  0  0  0  0  0
  140.7140   71.3860  225.3530 C   0  0  0  0  0  0  0  0  0  0  0  0
  140.8130   72.2570  224.3180 N   0  0  0  0  0  0  0  0  0  0  0  0
  141.7230   71.5070  220.7510 H   0  0  0  0  0  0  0  0  0  0  0  0
  141.4108   72.7909  218.7539 H   0  0  0  0  0  0  0  0  0  0  0  0
  140.4525   74.0041  219.7101 H   0  0  0  0  0  0  0  0  0  0  0  0
  144.5099   74.4942  221.7644 H   0  0  0  0  0  0  0  0  0  0  0  0
  144.3604   72.7519  221.8252 H   0  0  0  0  0  0  0  0  0  0  0  0
  146.6183   74.3724  220.8870 H   0  0  0  0  0  0  0  0  0  0  0  0
  146.5522   72.5976  221.0274 H   0  0  0  0  0  0  0  0  0  0  0  0
  146.1432   74.3457  218.6469 H   0  0  0  0  0  0  0  0  0  0  0  0
  146.6627   72.6628  218.6993 H   0  0  0  0  0  0  0  0  0  0  0  0
  144.0789   73.1852  217.8766 H   0  0  0  0  0  0  0  0  0  0  0  0
  142.3837   69.0057  219.9831 H   0  0  0  0  0  0  0  0  0  0  0  0
  146.4092   68.8219  218.4541 H   0  0  0  0  0  0  0  0  0  0  0  0
  139.6207   70.3700  221.8537 H   0  0  0  0  0  0  0  0  0  0  0  0
  139.4196   68.7331  223.7106 H   0  0  0  0  0  0  0  0  0  0  0  0
  139.6894   68.1841  225.9700 H   0  0  0  0  0  0  0  0  0  0  0  0
  141.3046   71.1171  228.6597 H   0  0  0  0  0  0  0  0  0  0  0  0
  141.5108   72.7548  226.8230 H   0  0  0  0  0  0  0  0  0  0  0  0
  1  2  2  0
  2  3  1  0
  3  4  1  0
  4  5  1  0
  5  6  2  0
  5  7  1  0
  7  8  1  0
  8  9  1  0
  9 10  1  0
 10 11  1  0
 11 12  1  0
 12 13  2  0
 13 14  1  0
 14 15  2  0
 15 16  1  0
 15 17  1  0
 17 18  2  0
  2 19  1  0
 19 20  2  0
 20 21  1  0
 21 22  2  0
 22 23  1  0
 23 24  2  0
 24 25  1  0
 24 26  1  0
 26 27  2  0
 27 28  1  0
 28 29  2  0
 11  7  1  0
 18 12  1  0
 29 19  1  0
 28 22  1  0
  3 30  1  0
  4 31  1  0
  4 32  1  0
  8 33  1  0
  8 34  1  0
  9 35  1  0
  9 36  1  0
 10 37  1  0
 10 38  1  0
 11 39  1  6
 14 40  1  0
 17 41  1  0
 20 42  1  0
 21 43  1  0
 23 44  1  0
 26 45  1  0
 27 46  1  0
M  END
>  <meeko>  (1) 
{"free_energy": -7.43, "intermolecular_energy": -8.92, "internal_energy": -2.24, "cluster_size": 3, "cluster_id": 4, "rank_in_cluster": 1}

$$$$

     RDKit          3D

 46 49  0  0  0  0  0  0  0  0999 V2000
  140.1170   72.1800  220.8290 O   0  0  0  0  0  0  0  0  0  0  0  0
  139.6430   72.4890  221.9600 C   0  0  0  0  0  0  0  0  0  0  0  0
  138.9470   73.7200  222.1430 N   0  0  0  0  0  0  0  0  0  0  0  0
  138.7990   74.5900  221.0250 C   0  0  0  0  0  0  0  0  0  0  0  0
  138.8680   76.0390  221.4160 C   0  0  0  0  0  0  0  0  0  0  0  0
  137.8310   76.6010  221.8490 O   0  0  0  0  0  0  0  0  0  0  0  0
  140.1200   76.7010  221.2720 N   0  0  0  0  0  0  0  0  0  0  0  0
  140.7970   77.5500  222.2350 C   0  0  0  0  0  0  0  0  0  0  0  0
  141.6150   78.4710  221.3550 C   0  0  0  0  0  0  0  0  0  0  0  0
  141.4370   78.0150  219.9370 C   0  0  0  0  0  0  0  0  0  0  0  0
  140.9240   76.5950  220.0530 C   0  0  1  0  0  0  0  0  0  0  0  0
  142.0950   75.7070  220.2220 C   0  0  0  0  0  0  0  0  0  0  0  0
  143.3560   76.1050  219.9580 N   0  0  0  0  0  0  0  0  0  0  0  0
  144.4260   75.3030  220.1090 C   0  0  0  0  0  0  0  0  0  0  0  0
  144.2080   74.0260  220.5530 C   0  0  0  0  0  0  0  0  0  0  0  0
  145.5150   72.8690  220.7960 Cl  0  0  0  0  0  0  0  0  0  0  0  0
  142.9200   73.5910  220.8310 C   0  0  0  0  0  0  0  0  0  0  0  0
  141.8850   74.4530  220.6580 N   0  0  0  0  0  0  0  0  0  0  0  0
  139.8030   71.5870  223.0980 C   0  0  0  0  0  0  0  0  0  0  0  0
  139.4330   70.2630  222.9700 C   0  0  0  0  0  0  0  0  0  0  0  0
  139.5620   69.3560  224.0190 C   0  0  0  0  0  0  0  0  0  0  0  0
  140.0770   69.7920  225.2320 C   0  0  0  0  0  0  0  0  0  0  0  0
  140.1910   68.8890  226.2370 C   0  0  0  0  0  0  0  0  0  0  0  0
  140.7060   69.3270  227.4490 C   0  0  0  0  0  0  0  0  0  0  0  0
  140.8610   68.1770  228.7570 Cl  0  0  0  0  0  0  0  0  0  0  0  0
  141.0730   70.6530  227.5690 C   0  0  0  0  0  0  0  0  0  0  0  0
  140.9490   71.5630  226.5350 C   0  0  0  0  0  0  0  0  0  0  0  0
  140.4370   71.1270  225.3280 C   0  0  0  0  0  0  0  0  0  0  0  0
  140.2970   71.9800  224.2830 N   0  0  0  0  0  0  0  0  0  0  0  0
  138.5560   73.9650  223.0930 H   0  0  0  0  0  0  0  0  0  0  0  0
  139.6030   74.3796  220.3043 H   0  0  0  0  0  0  0  0  0  0  0  0
  137.8072   74.4072  220.5858 H   0  0  0  0  0  0  0  0  0  0  0  0
  140.0743   78.1181  222.8391 H   0  0  0  0  0  0  0  0  0  0  0  0
  141.4043   76.9877  222.9595 H   0  0  0  0  0  0  0  0  0  0  0  0
  141.2609   79.5068  221.4637 H   0  0  0  0  0  0  0  0  0  0  0  0
  142.6765   78.4393  221.6419 H   0  0  0  0  0  0  0  0  0  0  0  0
  140.7069   78.6500  219.4138 H   0  0  0  0  0  0  0  0  0  0  0  0
  142.3713   78.0747  219.3596 H   0  0  0  0  0  0  0  0  0  0  0  0
  140.3551   76.1939  219.2013 H   0  0  0  0  0  0  0  0  0  0  0  0
  145.4413   75.6610  219.8834 H   0  0  0  0  0  0  0  0  0  0  0  0
  142.7404   72.5653  221.1855 H   0  0  0  0  0  0  0  0  0  0  0  0
  139.0239   69.9139  222.0104 H   0  0  0  0  0  0  0  0  0  0  0  0
  139.2594   68.3066  223.8878 H   0  0  0  0  0  0  0  0  0  0  0  0
  139.8848   67.8419  226.0961 H   0  0  0  0  0  0  0  0  0  0  0  0
  141.4819   71.0006  228.5292 H   0  0  0  0  0  0  0  0  0  0  0  0
  141.2516   72.6118  226.6706 H   0  0  0  0  0  0  0  0  0  0  0  0
  1  2  2  0
  2  3  1  0
  3  4  1  0
  4  5  1  0
  5  6  2  0
  5  7  1  0
  7  8  1  0
  8  9  1  0
  9 10  1  0
 10 11  1  0
 11 12  1  0
 12 13  2  0
 13 14  1  0
 14 15  2  0
 15 16  1  0
 15 17  1  0
 17 18  2  0
  2 19  1  0
 19 20  2  0
 20 21  1  0
 21 22  2  0
 22 23  1  0
 23 24  2  0
 24 25  1  0
 24 26  1  0
 26 27  2  0
 27 28  1  0
 28 29  2  0
 11  7  1  0
 18 12  1  0
 29 19  1  0
 28 22  1  0
  3 30  1  0
  4 31  1  0
  4 32  1  0
  8 33  1  0
  8 34  1  0
  9 35  1  0
  9 36  1  0
 10 37  1  0
 10 38  1  0
 11 39  1  6
 14 40  1  0
 17 41  1  0
 20 42  1  0
 21 43  1  0
 23 44  1  0
 26 45  1  0
 27 46  1  0
M  END
>  <meeko>  (2) 
{"free_energy": -8.2, "intermolecular_energy": -9.69, "internal_energy": -1.77, "cluster_size": 2, "cluster_id": 1, "rank_in_cluster": 1}

$$$$

     RDKit          3D

 46 49  0  0  0  0  0  0  0  0999 V2000
  138.3130   75.2910  222.3410 O   0  0  0  0  0  0  0  0  0  0  0  0
  139.4850   75.6910  222.0850 C   0  0  0  0  0  0  0  0  0  0  0  0
  139.8380   77.0610  222.2580 N   0  0  0  0  0  0  0  0  0  0  0  0
  138.8420   77.9650  222.7250 C   0  0  0  0  0  0  0  0  0  0  0  0
  139.4360   79.1980  223.3460 C   0  0  0  0  0  0  0  0  0  0  0  0
  138.7450   79.8610  224.1590 O   0  0  0  0  0  0  0  0  0  0  0  0
  140.7650   79.5480  222.9750 N   0  0  0  0  0  0  0  0  0  0  0  0
  142.0070   79.1190  223.5900 C   0  0  0  0  0  0  0  0  0  0  0  0
  142.9450   80.2690  223.2920 C   0  0  0  0  0  0  0  0  0  0  0  0
  142.2040   81.2420  222.4230 C   0  0  0  0  0  0  0  0  0  0  0  0
  141.0510   80.4430  221.8520 C   0  0  1  0  0  0  0  0  0  0  0  0
  141.5530   79.7180  220.6630 C   0  0  0  0  0  0  0  0  0  0  0  0
  141.8680   80.3390  219.5090 N   0  0  0  0  0  0  0  0  0  0  0  0
  142.3230   79.6870  218.4240 C   0  0  0  0  0  0  0  0  0  0  0  0
  142.4700   78.3280  218.5130 C   0  0  0  0  0  0  0  0  0  0  0  0
  143.0560   77.3480  217.1710 Cl  0  0  0  0  0  0  0  0  0  0  0  0
  142.1520   77.6640  219.6880 C   0  0  0  0  0  0  0  0  0  0  0  0
  141.6970   78.3840  220.7460 N   0  0  0  0  0  0  0  0  0  0  0  0
  140.4970   74.7510  221.6060 C   0  0  0  0  0  0  0  0  0  0  0  0
  140.1860   73.4080  221.5190 C   0  0  0  0  0  0  0  0  0  0  0  0
  141.1090   72.4660  221.0700 C   0  0  0  0  0  0  0  0  0  0  0  0
  142.3790   72.8850  220.6980 C   0  0  0  0  0  0  0  0  0  0  0  0
  143.2570   71.9470  220.2650 C   0  0  0  0  0  0  0  0  0  0  0  0
  144.5260   72.3670  219.8940 C   0  0  0  0  0  0  0  0  0  0  0  0
  145.6720   71.1710  219.3330 Cl  0  0  0  0  0  0  0  0  0  0  0  0
  144.8280   73.7110  219.9850 C   0  0  0  0  0  0  0  0  0  0  0  0
  143.9210   74.6560  220.4290 C   0  0  0  0  0  0  0  0  0  0  0  0
  142.6570   74.2380  220.7980 C   0  0  0  0  0  0  0  0  0  0  0  0
  141.7330   75.1260  221.2400 N   0  0  0  0  0  0  0  0  0  0  0  0
  140.8210   77.3810  222.0400 H   0  0  0  0  0  0  0  0  0  0  0  0
  138.2111   78.2657  221.8756 H   0  0  0  0  0  0  0  0  0  0  0  0
  138.2551   77.4483  223.4986 H   0  0  0  0  0  0  0  0  0  0  0  0
  141.8843   78.9788  224.6741 H   0  0  0  0  0  0  0  0  0  0  0  0
  142.3694   78.1524  223.2100 H   0  0  0  0  0  0  0  0  0  0  0  0
  143.2488   80.7583  224.2292 H   0  0  0  0  0  0  0  0  0  0  0  0
  143.8513   79.9080  222.7838 H   0  0  0  0  0  0  0  0  0  0  0  0
  141.8323   82.0892  223.0181 H   0  0  0  0  0  0  0  0  0  0  0  0
  142.8437   81.6709  221.6376 H   0  0  0  0  0  0  0  0  0  0  0  0
  140.1655   81.0040  221.5186 H   0  0  0  0  0  0  0  0  0  0  0  0
  142.5685   80.2264  217.4973 H   0  0  0  0  0  0  0  0  0  0  0  0
  142.2663   76.5725  219.7620 H   0  0  0  0  0  0  0  0  0  0  0  0
  139.1804   73.0725  221.8127 H   0  0  0  0  0  0  0  0  0  0  0  0
  140.8345   71.4024  221.0110 H   0  0  0  0  0  0  0  0  0  0  0  0
  142.9720   70.8860  220.2096 H   0  0  0  0  0  0  0  0  0  0  0  0
  145.8342   74.0449  219.6915 H   0  0  0  0  0  0  0  0  0  0  0  0
  144.2003   75.7184  220.4871 H   0  0  0  0  0  0  0  0  0  0  0  0
  1  2  2  0
  2  3  1  0
  3  4  1  0
  4  5  1  0
  5  6  2  0
  5  7  1  0
  7  8  1  0
  8  9  1  0
  9 10  1  0
 10 11  1  0
 11 12  1  0
 12 13  2  0
 13 14  1  0
 14 15  2  0
 15 16  1  0
 15 17  1  0
 17 18  2  0
  2 19  1  0
 19 20  2  0
 20 21  1  0
 21 22  2  0
 22 23  1  0
 23 24  2  0
 24 25  1  0
 24 26  1  0
 26 27  2  0
 27 28  1  0
 28 29  2  0
 11  7  1  0
 18 12  1  0
 29 19  1  0
 28 22  1  0
  3 30  1  0
  4 31  1  0
  4 32  1  0
  8 33  1  0
  8 34  1  0
  9 35  1  0
  9 36  1  0
 10 37  1  0
 10 38  1  0
 11 39  1  6
 14 40  1  0
 17 41  1  0
 20 42  1  0
 21 43  1  0
 23 44  1  0
 26 45  1  0
 27 46  1  0
M  END
>  <meeko>  (3) 
{"free_energy": -6.92, "intermolecular_energy": -8.41, "internal_energy": -2.89, "cluster_size": 10, "cluster_id": 5, "rank_in_cluster": 4}

$$$$

     RDKit          3D

 46 49  0  0  0  0  0  0  0  0999 V2000
  138.3370   75.2690  222.3480 O   0  0  0  0  0  0  0  0  0  0  0  0
  139.5110   75.6620  222.0910 C   0  0  0  0  0  0  0  0  0  0  0  0
  139.8710   77.0310  222.2610 N   0  0  0  0  0  0  0  0  0  0  0  0
  138.8790   77.9420  222.7250 C   0  0  0  0  0  0  0  0  0  0  0  0
  139.4790   79.1640  223.3610 C   0  0  0  0  0  0  0  0  0  0  0  0
  138.8030   79.8030  224.2040 O   0  0  0  0  0  0  0  0  0  0  0  0
  140.7970   79.5320  222.9680 N   0  0  0  0  0  0  0  0  0  0  0  0
  142.0540   79.1470  223.5830 C   0  0  0  0  0  0  0  0  0  0  0  0
  142.9640   80.3080  223.2440 C   0  0  0  0  0  0  0  0  0  0  0  0
  142.1940   81.2400  222.3560 C   0  0  0  0  0  0  0  0  0  0  0  0
  141.0540   80.4020  221.8180 C   0  0  1  0  0  0  0  0  0  0  0  0
  141.5600   79.6550  220.6450 C   0  0  0  0  0  0  0  0  0  0  0  0
  141.8490   80.2500  219.4700 N   0  0  0  0  0  0  0  0  0  0  0  0
  142.3090   79.5790  218.3990 C   0  0  0  0  0  0  0  0  0  0  0  0
  142.4880   78.2260  218.5250 C   0  0  0  0  0  0  0  0  0  0  0  0
  143.0840   77.2220  217.2040 Cl  0  0  0  0  0  0  0  0  0  0  0  0
  142.1980   77.5880  219.7220 C   0  0  0  0  0  0  0  0  0  0  0  0
  141.7370   78.3270  220.7640 N   0  0  0  0  0  0  0  0  0  0  0  0
  140.5180   74.7160  221.6140 C   0  0  0  0  0  0  0  0  0  0  0  0
  140.2030   73.3740  221.5370 C   0  0  0  0  0  0  0  0  0  0  0  0
  141.1210   72.4260  221.0910 C   0  0  0  0  0  0  0  0  0  0  0  0
  142.3910   72.8380  220.7130 C   0  0  0  0  0  0  0  0  0  0  0  0
  143.2650   71.8940  220.2830 C   0  0  0  0  0  0  0  0  0  0  0  0
  144.5340   72.3080  219.9050 C   0  0  0  0  0  0  0  0  0  0  0  0
  145.6750   71.1050  219.3490 Cl  0  0  0  0  0  0  0  0  0  0  0  0
  144.8410   73.6510  219.9860 C   0  0  0  0  0  0  0  0  0  0  0  0
  143.9380   74.6020  220.4270 C   0  0  0  0  0  0  0  0  0  0  0  0
  142.6740   74.1910  220.8030 C   0  0  0  0  0  0  0  0  0  0  0  0
  141.7540   75.0850  221.2420 N   0  0  0  0  0  0  0  0  0  0  0  0
  140.8560   77.3450  222.0420 H   0  0  0  0  0  0  0  0  0  0  0  0
  138.2598   78.2554  221.8716 H   0  0  0  0  0  0  0  0  0  0  0  0
  138.2791   77.4256  223.4888 H   0  0  0  0  0  0  0  0  0  0  0  0
  141.9442   79.0347  224.6717 H   0  0  0  0  0  0  0  0  0  0  0  0
  142.4339   78.1781  223.2267 H   0  0  0  0  0  0  0  0  0  0  0  0
  143.2659   80.8297  224.1642 H   0  0  0  0  0  0  0  0  0  0  0  0
  143.8732   79.9525  222.7370 H   0  0  0  0  0  0  0  0  0  0  0  0
  141.8093   82.0950  222.9313 H   0  0  0  0  0  0  0  0  0  0  0  0
  142.8172   81.6604  221.5530 H   0  0  0  0  0  0  0  0  0  0  0  0
  140.1542   80.9354  221.4776 H   0  0  0  0  0  0  0  0  0  0  0  0
  142.5336   80.0977  217.4554 H   0  0  0  0  0  0  0  0  0  0  0  0
  142.3390   76.5020  219.8255 H   0  0  0  0  0  0  0  0  0  0  0  0
  139.1975   73.0437  221.8367 H   0  0  0  0  0  0  0  0  0  0  0  0
  140.8424   71.3631  221.0391 H   0  0  0  0  0  0  0  0  0  0  0  0
  142.9766   70.8335  220.2355 H   0  0  0  0  0  0  0  0  0  0  0  0
  145.8473   73.9797  219.6870 H   0  0  0  0  0  0  0  0  0  0  0  0
  144.2209   75.6638  220.4772 H   0  0  0  0  0  0  0  0  0  0  0  0
  1  2  2  0
  2  3  1  0
  3  4  1  0
  4  5  1  0
  5  6  2  0
  5  7  1  0
  7  8  1  0
  8  9  1  0
  9 10  1  0
 10 11  1  0
 11 12  1  0
 12 13  2  0
 13 14  1  0
 14 15  2  0
 15 16  1  0
 15 17  1  0
 17 18  2  0
  2 19  1  0
 19 20  2  0
 20 21  1  0
 21 22  2  0
 22 23  1  0
 23 24  2  0
 24 25  1  0
 24 26  1  0
 26 27  2  0
 27 28  1  0
 28 29  2  0
 11  7  1  0
 18 12  1  0
 29 19  1  0
 28 22  1  0
  3 30  1  0
  4 31  1  0
  4 32  1  0
  8 33  1  0
  8 34  1  0
  9 35  1  0
  9 36  1  0
 10 37  1  0
 10 38  1  0
 11 39  1  6
 14 40  1  0
 17 41  1  0
 20 42  1  0
 21 43  1  0
 23 44  1  0
 26 45  1  0
 27 46  1  0
M  END
>  <meeko>  (4) 
{"free_energy": -6.93, "intermolecular_energy": -8.42, "internal_energy": -2.89, "cluster_size": 10, "cluster_id": 5, "rank_in_cluster": 2}

$$$$

     RDKit          3D

 46 49  0  0  0  0  0  0  0  0999 V2000
  138.2000   75.3580  222.4680 O   0  0  0  0  0  0  0  0  0  0  0  0
  139.3590   75.7810  222.1870 C   0  0  0  0  0  0  0  0  0  0  0  0
  139.6850   77.1600  222.3440 N   0  0  0  0  0  0  0  0  0  0  0  0
  138.6790   78.0460  222.8220 C   0  0  0  0  0  0  0  0  0  0  0  0
  139.2460   79.3570  223.2870 C   0  0  0  0  0  0  0  0  0  0  0  0
  138.5040   80.1500  223.9180 O   0  0  0  0  0  0  0  0  0  0  0  0
  140.6100   79.6300  222.9830 N   0  0  0  0  0  0  0  0  0  0  0  0
  141.7940   79.0900  223.6260 C   0  0  0  0  0  0  0  0  0  0  0  0
  142.8190   80.1840  223.4150 C   0  0  0  0  0  0  0  0  0  0  0  0
  142.1810   81.2420  222.5630 C   0  0  0  0  0  0  0  0  0  0  0  0
  141.0020   80.5490  221.9130 C   0  0  1  0  0  0  0  0  0  0  0  0
  141.5020   79.8420  220.7130 C   0  0  0  0  0  0  0  0  0  0  0  0
  141.9650   80.4890  219.6250 N   0  0  0  0  0  0  0  0  0  0  0  0
  142.4200   79.8530  218.5300 C   0  0  0  0  0  0  0  0  0  0  0  0
  142.4070   78.4830  218.5380 C   0  0  0  0  0  0  0  0  0  0  0  0
  142.9740   77.5210  217.1740 Cl  0  0  0  0  0  0  0  0  0  0  0  0
  141.9350   77.7920  219.6440 C   0  0  0  0  0  0  0  0  0  0  0  0
  141.4900   78.4970  220.7170 N   0  0  0  0  0  0  0  0  0  0  0  0
  140.3820   74.8590  221.6960 C   0  0  0  0  0  0  0  0  0  0  0  0
  140.1080   73.5070  221.6490 C   0  0  0  0  0  0  0  0  0  0  0  0
  141.0430   72.5810  221.1910 C   0  0  0  0  0  0  0  0  0  0  0  0
  142.2870   73.0270  220.7690 C   0  0  0  0  0  0  0  0  0  0  0  0
  143.1780   72.1040  220.3290 C   0  0  0  0  0  0  0  0  0  0  0  0
  144.4220   72.5520  219.9070 C   0  0  0  0  0  0  0  0  0  0  0  0
  145.5850   71.3770  219.3360 Cl  0  0  0  0  0  0  0  0  0  0  0  0
  144.6880   73.9060  219.9580 C   0  0  0  0  0  0  0  0  0  0  0  0
  143.7680   74.8350  220.4100 C   0  0  0  0  0  0  0  0  0  0  0  0
  142.5290   74.3890  220.8300 C   0  0  0  0  0  0  0  0  0  0  0  0
  141.5940   75.2610  221.2820 N   0  0  0  0  0  0  0  0  0  0  0  0
  140.6570   77.4990  222.1050 H   0  0  0  0  0  0  0  0  0  0  0  0
  137.9628   78.2389  222.0097 H   0  0  0  0  0  0  0  0  0  0  0  0
  138.1910   77.5667  223.6835 H   0  0  0  0  0  0  0  0  0  0  0  0
  141.6175   78.9138  224.6974 H   0  0  0  0  0  0  0  0  0  0  0  0
  142.1055   78.1170  223.2183 H   0  0  0  0  0  0  0  0  0  0  0  0
  143.1171   80.6112  224.3838 H   0  0  0  0  0  0  0  0  0  0  0  0
  143.7186   79.7827  222.9253 H   0  0  0  0  0  0  0  0  0  0  0  0
  141.8426   82.0866  223.1812 H   0  0  0  0  0  0  0  0  0  0  0  0
  142.8797   81.6592  221.8229 H   0  0  0  0  0  0  0  0  0  0  0  0
  140.1709   81.1834  221.5710 H   0  0  0  0  0  0  0  0  0  0  0  0
  142.7896   80.4135  217.6587 H   0  0  0  0  0  0  0  0  0  0  0  0
  141.9211   76.6921  219.6524 H   0  0  0  0  0  0  0  0  0  0  0  0
  139.1226   73.1501  221.9829 H   0  0  0  0  0  0  0  0  0  0  0  0
  140.7977   71.5090  221.1643 H   0  0  0  0  0  0  0  0  0  0  0  0
  142.9228   71.0342  220.3073 H   0  0  0  0  0  0  0  0  0  0  0  0
  145.6742   74.2614  219.6247 H   0  0  0  0  0  0  0  0  0  0  0  0
  144.0173   75.9061  220.4346 H   0  0  0  0  0  0  0  0  0  0  0  0
  1  2  2  0
  2  3  1  0
  3  4  1  0
  4  5  1  0
  5  6  2  0
  5  7  1  0
  7  8  1  0
  8  9  1  0
  9 10  1  0
 10 11  1  0
 11 12  1  0
 12 13  2  0
 13 14  1  0
 14 15  2  0
 15 16  1  0
 15 17  1  0
 17 18  2  0
  2 19  1  0
 19 20  2  0
 20 21  1  0
 21 22  2  0
 22 23  1  0
 23 24  2  0
 24 25  1  0
 24 26  1  0
 26 27  2  0
 27 28  1  0
 28 29  2  0
 11  7  1  0
 18 12  1  0
 29 19  1  0
 28 22  1  0
  3 30  1  0
  4 31  1  0
  4 32  1  0
  8 33  1  0
  8 34  1  0
  9 35  1  0
  9 36  1  0
 10 37  1  0
 10 38  1  0
 11 39  1  6
 14 40  1  0
 17 41  1  0
 20 42  1  0
 21 43  1  0
 23 44  1  0
 26 45  1  0
 27 46  1  0
M  END
>  <meeko>  (5) 
{"free_energy": -6.87, "intermolecular_energy": -8.36, "internal_energy": -2.92, "cluster_size": 10, "cluster_id": 5, "rank_in_cluster": 9}

$$$$

     RDKit          3D

 46 49  0  0  0  0  0  0  0  0999 V2000
  140.0780   74.0630  221.9740 O   0  0  0  0  0  0  0  0  0  0  0  0
  140.5500   75.2270  221.8340 C   0  0  0  0  0  0  0  0  0  0  0  0
  141.8370   75.4220  221.2520 N   0  0  0  0  0  0  0  0  0  0  0  0
  142.5740   74.2780  220.8340 C   0  0  0  0  0  0  0  0  0  0  0  0
  143.2990   74.5070  219.5380 C   0  0  0  0  0  0  0  0  0  0  0  0
  144.4100   73.9500  219.3570 O   0  0  0  0  0  0  0  0  0  0  0  0
  142.6770   75.3530  218.5760 N   0  0  0  0  0  0  0  0  0  0  0  0
  141.3670   75.2040  217.9690 C   0  0  0  0  0  0  0  0  0  0  0  0
  141.5380   75.8860  216.6290 C   0  0  0  0  0  0  0  0  0  0  0  0
  142.9140   76.4820  216.5980 C   0  0  0  0  0  0  0  0  0  0  0  0
  143.3330   76.5520  218.0510 C   0  0  1  0  0  0  0  0  0  0  0  0
  142.7740   77.7980  218.6210 C   0  0  0  0  0  0  0  0  0  0  0  0
  142.1730   77.8440  219.8260 N   0  0  0  0  0  0  0  0  0  0  0  0
  141.6610   78.9730  220.3500 C   0  0  0  0  0  0  0  0  0  0  0  0
  141.7640   80.1210  219.6110 C   0  0  0  0  0  0  0  0  0  0  0  0
  141.1380   81.6700  220.1740 Cl  0  0  0  0  0  0  0  0  0  0  0  0
  142.3760   80.1020  218.3670 C   0  0  0  0  0  0  0  0  0  0  0  0
  142.8720   78.9280  217.8980 N   0  0  0  0  0  0  0  0  0  0  0  0
  139.7820   76.3930  222.2680 C   0  0  0  0  0  0  0  0  0  0  0  0
  138.4030   76.3260  222.2860 C   0  0  0  0  0  0  0  0  0  0  0  0
  137.6190   77.4040  222.6900 C   0  0  0  0  0  0  0  0  0  0  0  0
  138.2370   78.5820  223.0860 C   0  0  0  0  0  0  0  0  0  0  0  0
  137.4490   79.6150  223.4740 C   0  0  0  0  0  0  0  0  0  0  0  0
  138.0690   80.7910  223.8700 C   0  0  0  0  0  0  0  0  0  0  0  0
  137.0700   82.1350  224.3730 Cl  0  0  0  0  0  0  0  0  0  0  0  0
  139.4480   80.8500  223.8480 C   0  0  0  0  0  0  0  0  0  0  0  0
  140.2380   79.7870  223.4500 C   0  0  0  0  0  0  0  0  0  0  0  0
  139.6210   78.6150  223.0560 C   0  0  0  0  0  0  0  0  0  0  0  0
  140.3520   77.5450  222.6560 N   0  0  0  0  0  0  0  0  0  0  0  0
  142.2190   76.4010  221.1410 H   0  0  0  0  0  0  0  0  0  0  0  0
  143.3107   74.0286  221.6118 H   0  0  0  0  0  0  0  0  0  0  0  0
  141.8592   73.4565  220.6783 H   0  0  0  0  0  0  0  0  0  0  0  0
  141.1073   74.1426  217.8429 H   0  0  0  0  0  0  0  0  0  0  0  0
  140.5553   75.6327  218.5750 H   0  0  0  0  0  0  0  0  0  0  0  0
  141.4285   75.1517  215.8173 H   0  0  0  0  0  0  0  0  0  0  0  0
  140.7749   76.6663  216.4916 H   0  0  0  0  0  0  0  0  0  0  0  0
  143.6017   75.8417  216.0260 H   0  0  0  0  0  0  0  0  0  0  0  0
  142.9304   77.4683  216.1113 H   0  0  0  0  0  0  0  0  0  0  0  0
  144.4122   76.5747  218.2625 H   0  0  0  0  0  0  0  0  0  0  0  0
  141.1766   78.9734  221.3376 H   0  0  0  0  0  0  0  0  0  0  0  0
  142.4584   81.0223  217.7701 H   0  0  0  0  0  0  0  0  0  0  0  0
  137.9093   75.3944  221.9722 H   0  0  0  0  0  0  0  0  0  0  0  0
  136.5220   77.3226  222.6952 H   0  0  0  0  0  0  0  0  0  0  0  0
  136.3528   79.5234  223.4747 H   0  0  0  0  0  0  0  0  0  0  0  0
  139.9398   81.7830  224.1606 H   0  0  0  0  0  0  0  0  0  0  0  0
  141.3347   79.8726  223.4471 H   0  0  0  0  0  0  0  0  0  0  0  0
  1  2  2  0
  2  3  1  0
  3  4  1  0
  4  5  1  0
  5  6  2  0
  5  7  1  0
  7  8  1  0
  8  9  1  0
  9 10  1  0
 10 11  1  0
 11 12  1  0
 12 13  2  0
 13 14  1  0
 14 15  2  0
 15 16  1  0
 15 17  1  0
 17 18  2  0
  2 19  1  0
 19 20  2  0
 20 21  1  0
 21 22  2  0
 22 23  1  0
 23 24  2  0
 24 25  1  0
 24 26  1  0
 26 27  2  0
 27 28  1  0
 28 29  2  0
 11  7  1  0
 18 12  1  0
 29 19  1  0
 28 22  1  0
  3 30  1  0
  4 31  1  0
  4 32  1  0
  8 33  1  0
  8 34  1  0
  9 35  1  0
  9 36  1  0
 10 37  1  0
 10 38  1  0
 11 39  1  6
 14 40  1  0
 17 41  1  0
 20 42  1  0
 21 43  1  0
 23 44  1  0
 26 45  1  0
 27 46  1  0
M  END
>  <meeko>  (6) 
{"free_energy": -6.3, "intermolecular_energy": -7.79, "internal_energy": -3.05, "cluster_size": 1, "cluster_id": 7, "rank_in_cluster": 1}

$$$$

     RDKit          3D

 46 49  0  0  0  0  0  0  0  0999 V2000
  138.3190   75.2870  222.3490 O   0  0  0  0  0  0  0  0  0  0  0  0
  139.4910   75.6820  222.0840 C   0  0  0  0  0  0  0  0  0  0  0  0
  139.8490   77.0520  222.2500 N   0  0  0  0  0  0  0  0  0  0  0  0
  138.8580   77.9610  222.7190 C   0  0  0  0  0  0  0  0  0  0  0  0
  139.4580   79.1990  223.3220 C   0  0  0  0  0  0  0  0  0  0  0  0
  138.7760   79.8690  224.1370 O   0  0  0  0  0  0  0  0  0  0  0  0
  140.7820   79.5470  222.9310 N   0  0  0  0  0  0  0  0  0  0  0  0
  142.0300   79.1740  223.5720 C   0  0  0  0  0  0  0  0  0  0  0  0
  142.9510   80.3190  223.2070 C   0  0  0  0  0  0  0  0  0  0  0  0
  142.1960   81.2270  222.2820 C   0  0  0  0  0  0  0  0  0  0  0  0
  141.0560   80.3790  221.7580 C   0  0  1  0  0  0  0  0  0  0  0  0
  141.5710   79.5930  220.6150 C   0  0  0  0  0  0  0  0  0  0  0  0
  141.7950   78.2650  220.6840 N   0  0  0  0  0  0  0  0  0  0  0  0
  142.2630   77.5430  219.6490 C   0  0  0  0  0  0  0  0  0  0  0  0
  142.5190   78.2040  218.4770 C   0  0  0  0  0  0  0  0  0  0  0  0
  143.1340   77.3850  217.0420 Cl  0  0  0  0  0  0  0  0  0  0  0  0
  142.2980   79.5700  218.3780 C   0  0  0  0  0  0  0  0  0  0  0  0
  141.8240   80.2370  219.4620 N   0  0  0  0  0  0  0  0  0  0  0  0
  140.4980   74.7370  221.6040 C   0  0  0  0  0  0  0  0  0  0  0  0
  140.1730   73.4000  221.4940 C   0  0  0  0  0  0  0  0  0  0  0  0
  141.0900   72.4540  221.0420 C   0  0  0  0  0  0  0  0  0  0  0  0
  142.3690   72.8630  220.6910 C   0  0  0  0  0  0  0  0  0  0  0  0
  143.2420   71.9210  220.2550 C   0  0  0  0  0  0  0  0  0  0  0  0
  144.5200   72.3320  219.9050 C   0  0  0  0  0  0  0  0  0  0  0  0
  145.6600   71.1310  219.3410 Cl  0  0  0  0  0  0  0  0  0  0  0  0
  144.8360   73.6710  220.0190 C   0  0  0  0  0  0  0  0  0  0  0  0
  143.9350   74.6200  220.4660 C   0  0  0  0  0  0  0  0  0  0  0  0
  142.6620   74.2110  220.8140 C   0  0  0  0  0  0  0  0  0  0  0  0
  141.7420   75.1030  221.2580 N   0  0  0  0  0  0  0  0  0  0  0  0
  140.8310   77.3680  222.0250 H   0  0  0  0  0  0  0  0  0  0  0  0
  138.2184   78.2539  221.8733 H   0  0  0  0  0  0  0  0  0  0  0  0
  138.2793   77.4516  223.5036 H   0  0  0  0  0  0  0  0  0  0  0  0
  141.9075   79.0964  224.6624 H   0  0  0  0  0  0  0  0  0  0  0  0
  142.4078   78.1922  223.2505 H   0  0  0  0  0  0  0  0  0  0  0  0
  143.2461   80.8675  224.1137 H   0  0  0  0  0  0  0  0  0  0  0  0
  143.8636   79.9428  222.7215 H   0  0  0  0  0  0  0  0  0  0  0  0
  141.8106   82.1019  222.8261 H   0  0  0  0  0  0  0  0  0  0  0  0
  142.8302   81.6182  221.4728 H   0  0  0  0  0  0  0  0  0  0  0  0
  140.1629   80.9064  221.3916 H   0  0  0  0  0  0  0  0  0  0  0  0
  142.4339   76.4603  219.7411 H   0  0  0  0  0  0  0  0  0  0  0  0
  142.5031   80.1035  217.4381 H   0  0  0  0  0  0  0  0  0  0  0  0
  139.1603   73.0721  221.7714 H   0  0  0  0  0  0  0  0  0  0  0  0
  140.8037   71.3948  220.9641 H   0  0  0  0  0  0  0  0  0  0  0  0
  142.9460   70.8642  220.1812 H   0  0  0  0  0  0  0  0  0  0  0  0
  145.8493   73.9975  219.7420 H   0  0  0  0  0  0  0  0  0  0  0  0
  144.2256   75.6781  220.5429 H   0  0  0  0  0  0  0  0  0  0  0  0
  1  2  2  0
  2  3  1  0
  3  4  1  0
  4  5  1  0
  5  6  2  0
  5  7  1  0
  7  8  1  0
  8  9  1  0
  9 10  1  0
 10 11  1  0
 11 12  1  0
 12 13  2  0
 13 14  1  0
 14 15  2  0
 15 16  1  0
 15 17  1  0
 17 18  2  0
  2 19  1  0
 19 20  2  0
 20 21  1  0
 21 22  2  0
 22 23  1  0
 23 24  2  0
 24 25  1  0
 24 26  1  0
 26 27  2  0
 27 28  1  0
 28 29  2  0
 11  7  1  0
 18 12  1  0
 29 19  1  0
 28 22  1  0
  3 30  1  0
  4 31  1  0
  4 32  1  0
  8 33  1  0
  8 34  1  0
  9 35  1  0
  9 36  1  0
 10 37  1  0
 10 38  1  0
 11 39  1  6
 14 40  1  0
 17 41  1  0
 20 42  1  0
 21 43  1  0
 23 44  1  0
 26 45  1  0
 27 46  1  0
M  END
>  <meeko>  (7) 
{"free_energy": -6.87, "intermolecular_energy": -8.36, "internal_energy": -2.92, "cluster_size": 10, "cluster_id": 5, "rank_in_cluster": 8}

$$$$

     RDKit          3D

 46 49  0  0  0  0  0  0  0  0999 V2000
  142.1840   73.5140  220.7240 O   0  0  0  0  0  0  0  0  0  0  0  0
  141.3160   74.2120  221.3240 C   0  0  0  0  0  0  0  0  0  0  0  0
  140.2560   73.5870  222.0440 N   0  0  0  0  0  0  0  0  0  0  0  0
  140.1990   72.1640  222.0710 C   0  0  0  0  0  0  0  0  0  0  0  0
  138.8710   71.6550  222.5580 C   0  0  0  0  0  0  0  0  0  0  0  0
  137.9250   72.4690  222.7000 O   0  0  0  0  0  0  0  0  0  0  0  0
  138.7600   70.2630  222.8330 N   0  0  0  0  0  0  0  0  0  0  0  0
  139.4050   69.1610  222.1430 C   0  0  0  0  0  0  0  0  0  0  0  0
  138.4380   68.0170  222.3590 C   0  0  0  0  0  0  0  0  0  0  0  0
  137.3450   68.5140  223.2580 C   0  0  0  0  0  0  0  0  0  0  0  0
  137.9240   69.7470  223.9190 C   0  0  1  0  0  0  0  0  0  0  0  0
  138.7210   69.3010  225.0830 C   0  0  0  0  0  0  0  0  0  0  0  0
  138.8370   68.0040  225.4340 N   0  0  0  0  0  0  0  0  0  0  0  0
  139.5590   67.5900  226.4910 C   0  0  0  0  0  0  0  0  0  0  0  0
  140.2010   68.5430  227.2360 C   0  0  0  0  0  0  0  0  0  0  0  0
  141.1800   68.1450  228.6470 Cl  0  0  0  0  0  0  0  0  0  0  0  0
  140.0970   69.8850  226.8990 C   0  0  0  0  0  0  0  0  0  0  0  0
  139.3520   70.2340  225.8180 N   0  0  0  0  0  0  0  0  0  0  0  0
  141.3880   75.6710  221.2860 C   0  0  0  0  0  0  0  0  0  0  0  0
  141.8190   76.2980  220.1350 C   0  0  0  0  0  0  0  0  0  0  0  0
  141.9080   77.6850  220.0410 C   0  0  0  0  0  0  0  0  0  0  0  0
  141.5540   78.4630  221.1340 C   0  0  0  0  0  0  0  0  0  0  0  0
  141.6500   79.8110  221.0150 C   0  0  0  0  0  0  0  0  0  0  0  0
  141.2960   80.5870  222.1090 C   0  0  0  0  0  0  0  0  0  0  0  0
  141.4140   82.3260  221.9750 Cl  0  0  0  0  0  0  0  0  0  0  0  0
  140.8660   79.9510  223.2570 C   0  0  0  0  0  0  0  0  0  0  0  0
  140.7730   78.5750  223.3630 C   0  0  0  0  0  0  0  0  0  0  0  0
  141.1260   77.8020  222.2740 C   0  0  0  0  0  0  0  0  0  0  0  0
  141.0520   76.4490  222.3280 N   0  0  0  0  0  0  0  0  0  0  0  0
  139.5370   74.1820  222.5400 H   0  0  0  0  0  0  0  0  0  0  0  0
  140.3719   71.7838  221.0534 H   0  0  0  0  0  0  0  0  0  0  0  0
  140.9716   71.8096  222.7692 H   0  0  0  0  0  0  0  0  0  0  0  0
  139.5258   69.3807  221.0719 H   0  0  0  0  0  0  0  0  0  0  0  0
  140.4190   68.9495  222.5133 H   0  0  0  0  0  0  0  0  0  0  0  0
  138.0150   67.6958  221.3957 H   0  0  0  0  0  0  0  0  0  0  0  0
  138.9513   67.1563  222.8126 H   0  0  0  0  0  0  0  0  0  0  0  0
  136.4489   68.7711  222.6741 H   0  0  0  0  0  0  0  0  0  0  0  0
  137.0316   67.7563  223.9912 H   0  0  0  0  0  0  0  0  0  0  0  0
  137.2128   70.4937  224.3019 H   0  0  0  0  0  0  0  0  0  0  0  0
  139.6312   66.5229  226.7480 H   0  0  0  0  0  0  0  0  0  0  0  0
  140.6091   70.6532  227.4970 H   0  0  0  0  0  0  0  0  0  0  0  0
  142.1005   75.6848  219.2663 H   0  0  0  0  0  0  0  0  0  0  0  0
  142.2551   78.1582  219.1106 H   0  0  0  0  0  0  0  0  0  0  0  0
  141.9978   80.2743  220.0799 H   0  0  0  0  0  0  0  0  0  0  0  0
  140.5852   80.5656  224.1250 H   0  0  0  0  0  0  0  0  0  0  0  0
  140.4251   78.1060  224.2952 H   0  0  0  0  0  0  0  0  0  0  0  0
  1  2  2  0
  2  3  1  0
  3  4  1  0
  4  5  1  0
  5  6  2  0
  5  7  1  0
  7  8  1  0
  8  9  1  0
  9 10  1  0
 10 11  1  0
 11 12  1  0
 12 13  2  0
 13 14  1  0
 14 15  2  0
 15 16  1  0
 15 17  1  0
 17 18  2  0
  2 19  1  0
 19 20  2  0
 20 21  1  0
 21 22  2  0
 22 23  1  0
 23 24  2  0
 24 25  1  0
 24 26  1  0
 26 27  2  0
 27 28  1  0
 28 29  2  0
 11  7  1  0
 18 12  1  0
 29 19  1  0
 28 22  1  0
  3 30  1  0
  4 31  1  0
  4 32  1  0
  8 33  1  0
  8 34  1  0
  9 35  1  0
  9 36  1  0
 10 37  1  0
 10 38  1  0
 11 39  1  1
 14 40  1  0
 17 41  1  0
 20 42  1  0
 21 43  1  0
 23 44  1  0
 26 45  1  0
 27 46  1  0
M  END
>  <meeko>  (8) 
{"free_energy": -7.77, "intermolecular_energy": -9.26, "internal_energy": -1.75, "cluster_size": 1, "cluster_id": 3, "rank_in_cluster": 1}

$$$$

     RDKit          3D

 46 49  0  0  0  0  0  0  0  0999 V2000
  138.2640   75.3910  222.6680 O   0  0  0  0  0  0  0  0  0  0  0  0
  139.3760   75.8130  222.2390 C   0  0  0  0  0  0  0  0  0  0  0  0
  139.6710   77.2080  222.2410 N   0  0  0  0  0  0  0  0  0  0  0  0
  138.6870   78.1100  222.7360 C   0  0  0  0  0  0  0  0  0  0  0  0
  139.2970   79.3260  223.3740 C   0  0  0  0  0  0  0  0  0  0  0  0
  138.6010   80.0080  224.1670 O   0  0  0  0  0  0  0  0  0  0  0  0
  140.6450   79.6390  223.0420 N   0  0  0  0  0  0  0  0  0  0  0  0
  141.8580   79.1440  223.6660 C   0  0  0  0  0  0  0  0  0  0  0  0
  142.8430   80.2680  223.4270 C   0  0  0  0  0  0  0  0  0  0  0  0
  142.1560   81.2970  222.5790 C   0  0  0  0  0  0  0  0  0  0  0  0
  140.9870   80.5620  221.9570 C   0  0  1  0  0  0  0  0  0  0  0  0
  141.4860   79.8600  220.7540 C   0  0  0  0  0  0  0  0  0  0  0  0
  141.8320   80.5080  219.6230 N   0  0  0  0  0  0  0  0  0  0  0  0
  142.2860   79.8770  218.5240 C   0  0  0  0  0  0  0  0  0  0  0  0
  142.3980   78.5130  218.5740 C   0  0  0  0  0  0  0  0  0  0  0  0
  142.9780   77.5590  217.2100 Cl  0  0  0  0  0  0  0  0  0  0  0  0
  142.0470   77.8220  219.7240 C   0  0  0  0  0  0  0  0  0  0  0  0
  141.5960   78.5210  220.7980 N   0  0  0  0  0  0  0  0  0  0  0  0
  140.3770   74.8750  221.7330 C   0  0  0  0  0  0  0  0  0  0  0  0
  140.0760   73.5290  221.6790 C   0  0  0  0  0  0  0  0  0  0  0  0
  140.9880   72.5880  221.2060 C   0  0  0  0  0  0  0  0  0  0  0  0
  142.2380   73.0120  220.7780 C   0  0  0  0  0  0  0  0  0  0  0  0
  143.1070   72.0760  220.3240 C   0  0  0  0  0  0  0  0  0  0  0  0
  144.3560   72.5010  219.8960 C   0  0  0  0  0  0  0  0  0  0  0  0
  145.4910   71.3080  219.3080 Cl  0  0  0  0  0  0  0  0  0  0  0  0
  144.6490   73.8490  219.9550 C   0  0  0  0  0  0  0  0  0  0  0  0
  143.7520   74.7930  220.4220 C   0  0  0  0  0  0  0  0  0  0  0  0
  142.5080   74.3690  220.8470 C   0  0  0  0  0  0  0  0  0  0  0  0
  141.5940   75.2560  221.3130 N   0  0  0  0  0  0  0  0  0  0  0  0
  140.6040   77.5470  221.8790 H   0  0  0  0  0  0  0  0  0  0  0  0
  138.0494   78.4318  221.8994 H   0  0  0  0  0  0  0  0  0  0  0  0
  138.1043   77.5828  223.5058 H   0  0  0  0  0  0  0  0  0  0  0  0
  141.7077   78.9714  224.7419 H   0  0  0  0  0  0  0  0  0  0  0  0
  142.1932   78.1784  223.2595 H   0  0  0  0  0  0  0  0  0  0  0  0
  143.1451   80.7130  224.3865 H   0  0  0  0  0  0  0  0  0  0  0  0
  143.7458   79.8915  222.9239 H   0  0  0  0  0  0  0  0  0  0  0  0
  141.8028   82.1360  223.1965 H   0  0  0  0  0  0  0  0  0  0  0  0
  142.8272   81.7289  221.8221 H   0  0  0  0  0  0  0  0  0  0  0  0
  140.1304   81.1677  221.6262 H   0  0  0  0  0  0  0  0  0  0  0  0
  142.5576   80.4375  217.6173 H   0  0  0  0  0  0  0  0  0  0  0  0
  142.1324   76.7261  219.7658 H   0  0  0  0  0  0  0  0  0  0  0  0
  139.0868   73.1892  222.0195 H   0  0  0  0  0  0  0  0  0  0  0  0
  140.7204   71.5216  221.1722 H   0  0  0  0  0  0  0  0  0  0  0  0
  142.8301   71.0118  220.2959 H   0  0  0  0  0  0  0  0  0  0  0  0
  145.6392   74.1872  219.6158 H   0  0  0  0  0  0  0  0  0  0  0  0
  144.0236   75.8585  220.4542 H   0  0  0  0  0  0  0  0  0  0  0  0
  1  2  2  0
  2  3  1  0
  3  4  1  0
  4  5  1  0
  5  6  2  0
  5  7  1  0
  7  8  1  0
  8  9  1  0
  9 10  1  0
 10 11  1  0
 11 12  1  0
 12 13  2  0
 13 14  1  0
 14 15  2  0
 15 16  1  0
 15 17  1  0
 17 18  2  0
  2 19  1  0
 19 20  2  0
 20 21  1  0
 21 22  2  0
 22 23  1  0
 23 24  2  0
 24 25  1  0
 24 26  1  0
 26 27  2  0
 27 28  1  0
 28 29  2  0
 11  7  1  0
 18 12  1  0
 29 19  1  0
 28 22  1  0
  3 30  1  0
  4 31  1  0
  4 32  1  0
  8 33  1  0
  8 34  1  0
  9 35  1  0
  9 36  1  0
 10 37  1  0
 10 38  1  0
 11 39  1  6
 14 40  1  0
 17 41  1  0
 20 42  1  0
 21 43  1  0
 23 44  1  0
 26 45  1  0
 27 46  1  0
M  END
>  <meeko>  (9) 
{"free_energy": -6.84, "intermolecular_energy": -8.33, "internal_energy": -2.91, "cluster_size": 10, "cluster_id": 5, "rank_in_cluster": 10}

$$$$

     RDKit          3D

 46 49  0  0  0  0  0  0  0  0999 V2000
  136.1160   76.2490  221.1500 O   0  0  0  0  0  0  0  0  0  0  0  0
  137.1070   76.0250  221.9020 C   0  0  0  0  0  0  0  0  0  0  0  0
  137.4060   74.6990  222.3320 N   0  0  0  0  0  0  0  0  0  0  0  0
  136.5650   73.6370  221.8940 C   0  0  0  0  0  0  0  0  0  0  0  0
  136.8180   72.3610  222.6460 C   0  0  0  0  0  0  0  0  0  0  0  0
  135.9700   71.9740  223.4880 O   0  0  0  0  0  0  0  0  0  0  0  0
  138.0190   71.6530  222.3580 N   0  0  0  0  0  0  0  0  0  0  0  0
  138.2310   70.6240  221.3560 C   0  0  0  0  0  0  0  0  0  0  0  0
  139.3550   69.8030  221.9500 C   0  0  0  0  0  0  0  0  0  0  0  0
  139.7920   70.4840  223.2140 C   0  0  0  0  0  0  0  0  0  0  0  0
  139.2630   71.8970  223.0890 C   0  0  1  0  0  0  0  0  0  0  0  0
  140.2420   72.6740  222.2970 C   0  0  0  0  0  0  0  0  0  0  0  0
  140.1520   74.0090  222.1310 N   0  0  0  0  0  0  0  0  0  0  0  0
  141.0370   74.7230  221.4120 C   0  0  0  0  0  0  0  0  0  0  0  0
  142.0740   74.0460  220.8260 C   0  0  0  0  0  0  0  0  0  0  0  0
  143.3060   74.8520  219.8570 Cl  0  0  0  0  0  0  0  0  0  0  0  0
  142.1910   72.6720  220.9800 C   0  0  0  0  0  0  0  0  0  0  0  0
  141.2610   72.0130  221.7200 N   0  0  0  0  0  0  0  0  0  0  0  0
  137.9620   77.1260  222.3440 C   0  0  0  0  0  0  0  0  0  0  0  0
  137.3850   78.3200  222.7240 C   0  0  0  0  0  0  0  0  0  0  0  0
  138.1470   79.4040  223.1540 C   0  0  0  0  0  0  0  0  0  0  0  0
  139.5290   79.2830  223.2020 C   0  0  0  0  0  0  0  0  0  0  0  0
  140.2480   80.3530  223.6240 C   0  0  0  0  0  0  0  0  0  0  0  0
  141.6290   80.2310  223.6720 C   0  0  0  0  0  0  0  0  0  0  0  0
  142.5720   81.6000  224.2120 Cl  0  0  0  0  0  0  0  0  0  0  0  0
  142.1980   79.0320  223.2890 C   0  0  0  0  0  0  0  0  0  0  0  0
  141.4520   77.9490  222.8610 C   0  0  0  0  0  0  0  0  0  0  0  0
  140.0760   78.0710  222.8140 C   0  0  0  0  0  0  0  0  0  0  0  0
  139.3010   77.0380  222.4010 N   0  0  0  0  0  0  0  0  0  0  0  0
  138.2380   74.5260  222.9610 H   0  0  0  0  0  0  0  0  0  0  0  0
  135.5159   73.9327  222.0421 H   0  0  0  0  0  0  0  0  0  0  0  0
  136.7842   73.4506  220.8323 H   0  0  0  0  0  0  0  0  0  0  0  0
  137.3260   70.0144  221.2167 H   0  0  0  0  0  0  0  0  0  0  0  0
  138.4664   71.0280  220.3603 H   0  0  0  0  0  0  0  0  0  0  0  0
  138.9995   68.7866  222.1746 H   0  0  0  0  0  0  0  0  0  0  0  0
  140.1935   69.7248  221.2423 H   0  0  0  0  0  0  0  0  0  0  0  0
  139.3603   69.9841  224.0937 H   0  0  0  0  0  0  0  0  0  0  0  0
  140.8837   70.4574  223.3462 H   0  0  0  0  0  0  0  0  0  0  0  0
  139.1055   72.4597  224.0210 H   0  0  0  0  0  0  0  0  0  0  0  0
  140.9317   75.8121  221.2986 H   0  0  0  0  0  0  0  0  0  0  0  0
  143.0224   72.1254  220.5110 H   0  0  0  0  0  0  0  0  0  0  0  0
  136.2901   78.4191  222.6863 H   0  0  0  0  0  0  0  0  0  0  0  0
  137.6596   80.3441  223.4518 H   0  0  0  0  0  0  0  0  0  0  0  0
  139.7511   81.2889  223.9192 H   0  0  0  0  0  0  0  0  0  0  0  0
  143.2930   78.9343  223.3261 H   0  0  0  0  0  0  0  0  0  0  0  0
  141.9432   77.0105  222.5643 H   0  0  0  0  0  0  0  0  0  0  0  0
  1  2  2  0
  2  3  1  0
  3  4  1  0
  4  5  1  0
  5  6  2  0
  5  7  1  0
  7  8  1  0
  8  9  1  0
  9 10  1  0
 10 11  1  0
 11 12  1  0
 12 13  2  0
 13 14  1  0
 14 15  2  0
 15 16  1  0
 15 17  1  0
 17 18  2  0
  2 19  1  0
 19 20  2  0
 20 21  1  0
 21 22  2  0
 22 23  1  0
 23 24  2  0
 24 25  1  0
 24 26  1  0
 26 27  2  0
 27 28  1  0
 28 29  2  0
 11  7  1  0
 18 12  1  0
 29 19  1  0
 28 22  1  0
  3 30  1  0
  4 31  1  0
  4 32  1  0
  8 33  1  0
  8 34  1  0
  9 35  1  0
  9 36  1  0
 10 37  1  0
 10 38  1  0
 11 39  1  1
 14 40  1  0
 17 41  1  0
 20 42  1  0
 21 43  1  0
 23 44  1  0
 26 45  1  0
 27 46  1  0
M  END
>  <meeko>  (10) 
{"free_energy": -6.86, "intermolecular_energy": -8.36, "internal_energy": -2.56, "cluster_size": 1, "cluster_id": 6, "rank_in_cluster": 1}

$$$$

     RDKit          3D

 46 49  0  0  0  0  0  0  0  0999 V2000
  139.8210   72.0330  220.6540 O   0  0  0  0  0  0  0  0  0  0  0  0
  139.3500   72.3680  221.7790 C   0  0  0  0  0  0  0  0  0  0  0  0
  138.5940   73.5690  221.9200 N   0  0  0  0  0  0  0  0  0  0  0  0
  138.3850   74.3790  220.7680 C   0  0  0  0  0  0  0  0  0  0  0  0
  138.4170   75.8470  221.0880 C   0  0  0  0  0  0  0  0  0  0  0  0
  137.3420   76.4970  221.0600 O   0  0  0  0  0  0  0  0  0  0  0  0
  139.6770   76.4240  221.4110 N   0  0  0  0  0  0  0  0  0  0  0  0
  140.1680   76.8260  222.7160 C   0  0  0  0  0  0  0  0  0  0  0  0
  141.1420   77.9360  222.3820 C   0  0  0  0  0  0  0  0  0  0  0  0
  141.2280   78.0250  220.8870 C   0  0  0  0  0  0  0  0  0  0  0  0
  140.6940   76.6970  220.3930 C   0  0  1  0  0  0  0  0  0  0  0  0
  141.8070   75.7240  220.4290 C   0  0  0  0  0  0  0  0  0  0  0  0
  141.6440   74.4420  220.8120 N   0  0  0  0  0  0  0  0  0  0  0  0
  142.6510   73.5510  220.8490 C   0  0  0  0  0  0  0  0  0  0  0  0
  143.8960   73.9820  220.4750 C   0  0  0  0  0  0  0  0  0  0  0  0
  145.3060   72.9250  220.4740 Cl  0  0  0  0  0  0  0  0  0  0  0  0
  144.0930   75.2970  220.0780 C   0  0  0  0  0  0  0  0  0  0  0  0
  143.0320   76.1440  220.0640 N   0  0  0  0  0  0  0  0  0  0  0  0
  139.5730   71.5260  222.9530 C   0  0  0  0  0  0  0  0  0  0  0  0
  139.2050   70.1960  222.9120 C   0  0  0  0  0  0  0  0  0  0  0  0
  139.3930   69.3460  224.0000 C   0  0  0  0  0  0  0  0  0  0  0  0
  139.9670   69.8460  225.1600 C   0  0  0  0  0  0  0  0  0  0  0  0
  140.1380   68.9970  226.2030 C   0  0  0  0  0  0  0  0  0  0  0  0
  140.7120   69.4990  227.3620 C   0  0  0  0  0  0  0  0  0  0  0  0
  140.9410   68.4190  228.7180 Cl  0  0  0  0  0  0  0  0  0  0  0  0
  141.0770   70.8300  227.3940 C   0  0  0  0  0  0  0  0  0  0  0  0
  140.8950   71.6850  226.3220 C   0  0  0  0  0  0  0  0  0  0  0  0
  140.3240   71.1850  225.1670 C   0  0  0  0  0  0  0  0  0  0  0  0
  140.1250   71.9820  224.0890 N   0  0  0  0  0  0  0  0  0  0  0  0
  138.2070   73.8360  222.8660 H   0  0  0  0  0  0  0  0  0  0  0  0
  139.1743   74.1599  220.0339 H   0  0  0  0  0  0  0  0  0  0  0  0
  137.3874   74.1439  220.3685 H   0  0  0  0  0  0  0  0  0  0  0  0
  139.3490   77.1954  223.3507 H   0  0  0  0  0  0  0  0  0  0  0  0
  140.6259   76.0011  223.2816 H   0  0  0  0  0  0  0  0  0  0  0  0
  140.7809   78.8895  222.7949 H   0  0  0  0  0  0  0  0  0  0  0  0
  142.1312   77.7272  222.8154 H   0  0  0  0  0  0  0  0  0  0  0  0
  140.6116   78.8551  220.5115 H   0  0  0  0  0  0  0  0  0  0  0  0
  142.2537   78.2171  220.5392 H   0  0  0  0  0  0  0  0  0  0  0  0
  140.2918   76.6650  219.3697 H   0  0  0  0  0  0  0  0  0  0  0  0
  142.4805   72.5123  221.1685 H   0  0  0  0  0  0  0  0  0  0  0  0
  145.0921   75.6473  219.7796 H   0  0  0  0  0  0  0  0  0  0  0  0
  138.7502   69.7957  221.9939 H   0  0  0  0  0  0  0  0  0  0  0  0
  139.0897   68.2903  223.9399 H   0  0  0  0  0  0  0  0  0  0  0  0
  139.8312   67.9430  226.1325 H   0  0  0  0  0  0  0  0  0  0  0  0
  141.5327   71.2282  228.3126 H   0  0  0  0  0  0  0  0  0  0  0  0
  141.1983   72.7403  226.3874 H   0  0  0  0  0  0  0  0  0  0  0  0
  1  2  2  0
  2  3  1  0
  3  4  1  0
  4  5  1  0
  5  6  2  0
  5  7  1  0
  7  8  1  0
  8  9  1  0
  9 10  1  0
 10 11  1  0
 11 12  1  0
 12 13  2  0
 13 14  1  0
 14 15  2  0
 15 16  1  0
 15 17  1  0
 17 18  2  0
  2 19  1  0
 19 20  2  0
 20 21  1  0
 21 22  2  0
 22 23  1  0
 23 24  2  0
 24 25  1  0
 24 26  1  0
 26 27  2  0
 27 28  1  0
 28 29  2  0
 11  7  1  0
 18 12  1  0
 29 19  1  0
 28 22  1  0
  3 30  1  0
  4 31  1  0
  4 32  1  0
  8 33  1  0
  8 34  1  0
  9 35  1  0
  9 36  1  0
 10 37  1  0
 10 38  1  0
 11 39  1  6
 14 40  1  0
 17 41  1  0
 20 42  1  0
 21 43  1  0
 23 44  1  0
 26 45  1  0
 27 46  1  0
M  END
>  <meeko>  (11) 
{"free_energy": -7.98, "intermolecular_energy": -9.47, "internal_energy": -1.85, "cluster_size": 2, "cluster_id": 1, "rank_in_cluster": 2}

$$$$

     RDKit          3D

 46 49  0  0  0  0  0  0  0  0999 V2000
  138.3320   75.2610  222.3360 O   0  0  0  0  0  0  0  0  0  0  0  0
  139.5080   75.6510  222.0820 C   0  0  0  0  0  0  0  0  0  0  0  0
  139.8710   77.0190  222.2560 N   0  0  0  0  0  0  0  0  0  0  0  0
  138.8820   77.9310  222.7220 C   0  0  0  0  0  0  0  0  0  0  0  0
  139.4850   79.1510  223.3580 C   0  0  0  0  0  0  0  0  0  0  0  0
  138.8090   79.7930  224.2010 O   0  0  0  0  0  0  0  0  0  0  0  0
  140.8040   79.5160  222.9660 N   0  0  0  0  0  0  0  0  0  0  0  0
  142.0590   79.1300  223.5850 C   0  0  0  0  0  0  0  0  0  0  0  0
  142.9720   80.2880  223.2440 C   0  0  0  0  0  0  0  0  0  0  0  0
  142.2050   81.2190  222.3520 C   0  0  0  0  0  0  0  0  0  0  0  0
  141.0650   80.3810  221.8140 C   0  0  1  0  0  0  0  0  0  0  0  0
  141.5720   79.6290  220.6450 C   0  0  0  0  0  0  0  0  0  0  0  0
  141.8690   80.2210  219.4700 N   0  0  0  0  0  0  0  0  0  0  0  0
  142.3300   79.5440  218.4020 C   0  0  0  0  0  0  0  0  0  0  0  0
  142.5010   78.1920  218.5310 C   0  0  0  0  0  0  0  0  0  0  0  0
  143.0970   77.1810  217.2150 Cl  0  0  0  0  0  0  0  0  0  0  0  0
  142.2020   77.5570  219.7280 C   0  0  0  0  0  0  0  0  0  0  0  0
  141.7410   78.3010  220.7670 N   0  0  0  0  0  0  0  0  0  0  0  0
  140.5120   74.7030  221.6040 C   0  0  0  0  0  0  0  0  0  0  0  0
  140.1890   73.3650  221.5080 C   0  0  0  0  0  0  0  0  0  0  0  0
  141.1040   72.4150  221.0600 C   0  0  0  0  0  0  0  0  0  0  0  0
  142.3810   72.8220  220.6980 C   0  0  0  0  0  0  0  0  0  0  0  0
  143.2520   71.8780  220.2660 C   0  0  0  0  0  0  0  0  0  0  0  0
  144.5270   72.2870  219.9040 C   0  0  0  0  0  0  0  0  0  0  0  0
  145.6650   71.0820  219.3450 Cl  0  0  0  0  0  0  0  0  0  0  0  0
  144.8430   73.6270  220.0040 C   0  0  0  0  0  0  0  0  0  0  0  0
  143.9430   74.5790  220.4470 C   0  0  0  0  0  0  0  0  0  0  0  0
  142.6730   74.1720  220.8060 C   0  0  0  0  0  0  0  0  0  0  0  0
  141.7540   75.0680  221.2470 N   0  0  0  0  0  0  0  0  0  0  0  0
  140.8570   77.3310  222.0400 H   0  0  0  0  0  0  0  0  0  0  0  0
  138.2621   78.2463  221.8697 H   0  0  0  0  0  0  0  0  0  0  0  0
  138.2823   77.4150  223.4863 H   0  0  0  0  0  0  0  0  0  0  0  0
  141.9467   79.0214  224.6739 H   0  0  0  0  0  0  0  0  0  0  0  0
  142.4375   78.1590  223.2328 H   0  0  0  0  0  0  0  0  0  0  0  0
  143.2736   80.8118  224.1631 H   0  0  0  0  0  0  0  0  0  0  0  0
  143.8812   79.9291  222.7395 H   0  0  0  0  0  0  0  0  0  0  0  0
  141.8203   82.0760  222.9244 H   0  0  0  0  0  0  0  0  0  0  0  0
  142.8303   81.6366  221.5492 H   0  0  0  0  0  0  0  0  0  0  0  0
  140.1671   80.9148  221.4693 H   0  0  0  0  0  0  0  0  0  0  0  0
  142.5613   80.0593  217.4581 H   0  0  0  0  0  0  0  0  0  0  0  0
  142.3359   76.4703  219.8338 H   0  0  0  0  0  0  0  0  0  0  0  0
  139.1782   73.0386  221.7939 H   0  0  0  0  0  0  0  0  0  0  0  0
  140.8181   71.3549  220.9938 H   0  0  0  0  0  0  0  0  0  0  0  0
  142.9570   70.8201  220.2043 H   0  0  0  0  0  0  0  0  0  0  0  0
  145.8546   73.9517  219.7189 H   0  0  0  0  0  0  0  0  0  0  0  0
  144.2326   75.6382  220.5121 H   0  0  0  0  0  0  0  0  0  0  0  0
  1  2  2  0
  2  3  1  0
  3  4  1  0
  4  5  1  0
  5  6  2  0
  5  7  1  0
  7  8  1  0
  8  9  1  0
  9 10  1  0
 10 11  1  0
 11 12  1  0
 12 13  2  0
 13 14  1  0
 14 15  2  0
 15 16  1  0
 15 17  1  0
 17 18  2  0
  2 19  1  0
 19 20  2  0
 20 21  1  0
 21 22  2  0
 22 23  1  0
 23 24  2  0
 24 25  1  0
 24 26  1  0
 26 27  2  0
 27 28  1  0
 28 29  2  0
 11  7  1  0
 18 12  1  0
 29 19  1  0
 28 22  1  0
  3 30  1  0
  4 31  1  0
  4 32  1  0
  8 33  1  0
  8 34  1  0
  9 35  1  0
  9 36  1  0
 10 37  1  0
 10 38  1  0
 11 39  1  6
 14 40  1  0
 17 41  1  0
 20 42  1  0
 21 43  1  0
 23 44  1  0
 26 45  1  0
 27 46  1  0
M  END
>  <meeko>  (12) 
{"free_energy": -6.93, "intermolecular_energy": -8.42, "internal_energy": -2.89, "cluster_size": 10, "cluster_id": 5, "rank_in_cluster": 1}

$$$$

     RDKit          3D

 46 49  0  0  0  0  0  0  0  0999 V2000
  138.3120   75.3230  222.3420 O   0  0  0  0  0  0  0  0  0  0  0  0
  139.4900   75.7130  222.0990 C   0  0  0  0  0  0  0  0  0  0  0  0
  139.8560   77.0780  222.2900 N   0  0  0  0  0  0  0  0  0  0  0  0
  138.8660   77.9870  222.7590 C   0  0  0  0  0  0  0  0  0  0  0  0
  139.4680   79.2260  223.3600 C   0  0  0  0  0  0  0  0  0  0  0  0
  138.7940   79.8890  224.1870 O   0  0  0  0  0  0  0  0  0  0  0  0
  140.7850   79.5830  222.9530 N   0  0  0  0  0  0  0  0  0  0  0  0
  142.0430   79.2120  223.5730 C   0  0  0  0  0  0  0  0  0  0  0  0
  142.9530   80.3630  223.2030 C   0  0  0  0  0  0  0  0  0  0  0  0
  142.1810   81.2750  222.2950 C   0  0  0  0  0  0  0  0  0  0  0  0
  141.0380   80.4240  221.7820 C   0  0  1  0  0  0  0  0  0  0  0  0
  141.5400   79.6480  220.6260 C   0  0  0  0  0  0  0  0  0  0  0  0
  141.7420   78.3160  220.6740 N   0  0  0  0  0  0  0  0  0  0  0  0
  142.1990   77.6040  219.6270 C   0  0  0  0  0  0  0  0  0  0  0  0
  142.4650   78.2790  218.4650 C   0  0  0  0  0  0  0  0  0  0  0  0
  143.0680   77.4740  217.0180 Cl  0  0  0  0  0  0  0  0  0  0  0  0
  142.2670   79.6500  218.3890 C   0  0  0  0  0  0  0  0  0  0  0  0
  141.8030   80.3070  219.4830 N   0  0  0  0  0  0  0  0  0  0  0  0
  140.4950   74.7680  221.6160 C   0  0  0  0  0  0  0  0  0  0  0  0
  140.1750   73.4290  221.5230 C   0  0  0  0  0  0  0  0  0  0  0  0
  141.0910   72.4820  221.0700 C   0  0  0  0  0  0  0  0  0  0  0  0
  142.3650   72.8920  220.7030 C   0  0  0  0  0  0  0  0  0  0  0  0
  143.2370   71.9500  220.2670 C   0  0  0  0  0  0  0  0  0  0  0  0
  144.5090   72.3620  219.9000 C   0  0  0  0  0  0  0  0  0  0  0  0
  145.6480   71.1610  219.3350 Cl  0  0  0  0  0  0  0  0  0  0  0  0
  144.8220   73.7030  219.9970 C   0  0  0  0  0  0  0  0  0  0  0  0
  143.9210   74.6530  220.4450 C   0  0  0  0  0  0  0  0  0  0  0  0
  142.6530   74.2430  220.8100 C   0  0  0  0  0  0  0  0  0  0  0  0
  141.7350   75.1360  221.2540 N   0  0  0  0  0  0  0  0  0  0  0  0
  140.8440   77.3900  222.0820 H   0  0  0  0  0  0  0  0  0  0  0  0
  138.2253   78.2792  221.9139 H   0  0  0  0  0  0  0  0  0  0  0  0
  138.2878   77.4787  223.5447 H   0  0  0  0  0  0  0  0  0  0  0  0
  141.9365   79.1265  224.6645 H   0  0  0  0  0  0  0  0  0  0  0  0
  142.4207   78.2343  223.2393 H   0  0  0  0  0  0  0  0  0  0  0  0
  143.2588   80.9063  224.1093 H   0  0  0  0  0  0  0  0  0  0  0  0
  143.8598   79.9940  222.7015 H   0  0  0  0  0  0  0  0  0  0  0  0
  141.7992   82.1442  222.8506 H   0  0  0  0  0  0  0  0  0  0  0  0
  142.8015   81.6758  221.4800 H   0  0  0  0  0  0  0  0  0  0  0  0
  140.1371   80.9493  221.4321 H   0  0  0  0  0  0  0  0  0  0  0  0
  142.3536   76.5175  219.7019 H   0  0  0  0  0  0  0  0  0  0  0  0
  142.4822   80.1955  217.4584 H   0  0  0  0  0  0  0  0  0  0  0  0
  139.1670   73.0995  221.8151 H   0  0  0  0  0  0  0  0  0  0  0  0
  140.8076   71.4212  221.0040 H   0  0  0  0  0  0  0  0  0  0  0  0
  142.9444   70.8914  220.2063 H   0  0  0  0  0  0  0  0  0  0  0  0
  145.8309   74.0305  219.7057 H   0  0  0  0  0  0  0  0  0  0  0  0
  144.2084   75.7128  220.5092 H   0  0  0  0  0  0  0  0  0  0  0  0
  1  2  2  0
  2  3  1  0
  3  4  1  0
  4  5  1  0
  5  6  2  0
  5  7  1  0
  7  8  1  0
  8  9  1  0
  9 10  1  0
 10 11  1  0
 11 12  1  0
 12 13  2  0
 13 14  1  0
 14 15  2  0
 15 16  1  0
 15 17  1  0
 17 18  2  0
  2 19  1  0
 19 20  2  0
 20 21  1  0
 21 22  2  0
 22 23  1  0
 23 24  2  0
 24 25  1  0
 24 26  1  0
 26 27  2  0
 27 28  1  0
 28 29  2  0
 11  7  1  0
 18 12  1  0
 29 19  1  0
 28 22  1  0
  3 30  1  0
  4 31  1  0
  4 32  1  0
  8 33  1  0
  8 34  1  0
  9 35  1  0
  9 36  1  0
 10 37  1  0
 10 38  1  0
 11 39  1  6
 14 40  1  0
 17 41  1  0
 20 42  1  0
 21 43  1  0
 23 44  1  0
 26 45  1  0
 27 46  1  0
M  END
>  <meeko>  (13) 
{"free_energy": -6.88, "intermolecular_energy": -8.37, "internal_energy": -2.91, "cluster_size": 10, "cluster_id": 5, "rank_in_cluster": 7}

$$$$

     RDKit          3D

 46 49  0  0  0  0  0  0  0  0999 V2000
  134.0570   70.6020  226.4840 O   0  0  0  0  0  0  0  0  0  0  0  0
  134.1580   71.7300  225.9210 C   0  0  0  0  0  0  0  0  0  0  0  0
  134.9580   71.8880  224.7520 N   0  0  0  0  0  0  0  0  0  0  0  0
  135.6380   70.7480  224.2350 C   0  0  0  0  0  0  0  0  0  0  0  0
  136.7910   71.1240  223.3480 C   0  0  0  0  0  0  0  0  0  0  0  0
  136.7630   72.2300  222.7530 O   0  0  0  0  0  0  0  0  0  0  0  0
  137.8630   70.1950  223.2310 N   0  0  0  0  0  0  0  0  0  0  0  0
  139.1300   70.3750  222.5470 C   0  0  0  0  0  0  0  0  0  0  0  0
  139.5040   68.9610  222.1560 C   0  0  0  0  0  0  0  0  0  0  0  0
  138.4730   68.0430  222.7420 C   0  0  0  0  0  0  0  0  0  0  0  0
  137.8070   68.8600  223.8300 C   0  0  1  0  0  0  0  0  0  0  0  0
  138.6410   68.7500  225.0470 C   0  0  0  0  0  0  0  0  0  0  0  0
  138.8880   69.7970  225.8600 N   0  0  0  0  0  0  0  0  0  0  0  0
  139.6450   69.7060  226.9680 C   0  0  0  0  0  0  0  0  0  0  0  0
  140.1830   68.4830  227.2720 C   0  0  0  0  0  0  0  0  0  0  0  0
  141.1930   68.2180  228.6920 Cl  0  0  0  0  0  0  0  0  0  0  0  0
  139.9460   67.3890  226.4530 C   0  0  0  0  0  0  0  0  0  0  0  0
  139.1710   67.5520  225.3490 N   0  0  0  0  0  0  0  0  0  0  0  0
  133.4540   72.8910  226.4630 C   0  0  0  0  0  0  0  0  0  0  0  0
  132.2340   72.7140  227.0830 C   0  0  0  0  0  0  0  0  0  0  0  0
  131.5170   73.7820  227.6180 C   0  0  0  0  0  0  0  0  0  0  0  0
  132.0420   75.0640  227.5280 C   0  0  0  0  0  0  0  0  0  0  0  0
  131.3240   76.0850  228.0570 C   0  0  0  0  0  0  0  0  0  0  0  0
  131.8510   77.3660  227.9650 C   0  0  0  0  0  0  0  0  0  0  0  0
  130.9380   78.6960  228.6410 Cl  0  0  0  0  0  0  0  0  0  0  0  0
  133.0710   77.5340  227.3430 C   0  0  0  0  0  0  0  0  0  0  0  0
  133.7920   76.4820  226.8080 C   0  0  0  0  0  0  0  0  0  0  0  0
  133.2690   75.2060  226.8990 C   0  0  0  0  0  0  0  0  0  0  0  0
  133.9370   74.1420  226.3900 N   0  0  0  0  0  0  0  0  0  0  0  0
  135.0340   72.8360  224.2920 H   0  0  0  0  0  0  0  0  0  0  0  0
  136.0195   70.1519  225.0771 H   0  0  0  0  0  0  0  0  0  0  0  0
  134.9207   70.1751  223.6289 H   0  0  0  0  0  0  0  0  0  0  0  0
  139.0137   71.0140  221.6592 H   0  0  0  0  0  0  0  0  0  0  0  0
  139.8920   70.8718  223.1655 H   0  0  0  0  0  0  0  0  0  0  0  0
  139.5133   68.8644  221.0603 H   0  0  0  0  0  0  0  0  0  0  0  0
  140.5063   68.7077  222.5317 H   0  0  0  0  0  0  0  0  0  0  0  0
  137.7405   67.7437  221.9779 H   0  0  0  0  0  0  0  0  0  0  0  0
  138.9149   67.1135  223.1301 H   0  0  0  0  0  0  0  0  0  0  0  0
  136.7889   68.5687  224.1278 H   0  0  0  0  0  0  0  0  0  0  0  0
  139.8259   70.5825  227.6076 H   0  0  0  0  0  0  0  0  0  0  0  0
  140.3780   66.4063  226.6932 H   0  0  0  0  0  0  0  0  0  0  0  0
  131.8151   71.6996  227.1570 H   0  0  0  0  0  0  0  0  0  0  0  0
  130.5461   73.6114  228.1061 H   0  0  0  0  0  0  0  0  0  0  0  0
  130.3543   75.9041  228.5438 H   0  0  0  0  0  0  0  0  0  0  0  0
  133.4885   78.5490  227.2694 H   0  0  0  0  0  0  0  0  0  0  0  0
  134.7621   76.6574  226.3199 H   0  0  0  0  0  0  0  0  0  0  0  0
  1  2  2  0
  2  3  1  0
  3  4  1  0
  4  5  1  0
  5  6  2  0
  5  7  1  0
  7  8  1  0
  8  9  1  0
  9 10  1  0
 10 11  1  0
 11 12  1  0
 12 13  2  0
 13 14  1  0
 14 15  2  0
 15 16  1  0
 15 17  1  0
 17 18  2  0
  2 19  1  0
 19 20  2  0
 20 21  1  0
 21 22  2  0
 22 23  1  0
 23 24  2  0
 24 25  1  0
 24 26  1  0
 26 27  2  0
 27 28  1  0
 28 29  2  0
 11  7  1  0
 18 12  1  0
 29 19  1  0
 28 22  1  0
  3 30  1  0
  4 31  1  0
  4 32  1  0
  8 33  1  0
  8 34  1  0
  9 35  1  0
  9 36  1  0
 10 37  1  0
 10 38  1  0
 11 39  1  1
 14 40  1  0
 17 41  1  0
 20 42  1  0
 21 43  1  0
 23 44  1  0
 26 45  1  0
 27 46  1  0
M  END
>  <meeko>  (14) 
{"free_energy": -7.84, "intermolecular_energy": -9.33, "internal_energy": -1.82, "cluster_size": 2, "cluster_id": 2, "rank_in_cluster": 2}

$$$$

     RDKit          3D

 46 49  0  0  0  0  0  0  0  0999 V2000
  139.9890   73.9730  221.9600 O   0  0  0  0  0  0  0  0  0  0  0  0
  140.5260   72.8290  221.9000 C   0  0  0  0  0  0  0  0  0  0  0  0
  141.2230   72.4160  220.7270 N   0  0  0  0  0  0  0  0  0  0  0  0
  141.2990   73.3200  219.6290 C   0  0  0  0  0  0  0  0  0  0  0  0
  142.5350   74.1730  219.6770 C   0  0  0  0  0  0  0  0  0  0  0  0
  142.4280   75.4080  219.4760 O   0  0  0  0  0  0  0  0  0  0  0  0
  143.7730   73.5250  219.9510 N   0  0  0  0  0  0  0  0  0  0  0  0
  144.4690   73.4300  221.2210 C   0  0  0  0  0  0  0  0  0  0  0  0
  145.9180   73.3030  220.8010 C   0  0  0  0  0  0  0  0  0  0  0  0
  145.9490   73.2240  219.3030 C   0  0  0  0  0  0  0  0  0  0  0  0
  144.5390   72.8330  218.9120 C   0  0  1  0  0  0  0  0  0  0  0  0
  144.4350   71.3610  219.0180 C   0  0  0  0  0  0  0  0  0  0  0  0
  143.3210   70.7380  219.4540 N   0  0  0  0  0  0  0  0  0  0  0  0
  143.2190   69.4000  219.5540 C   0  0  0  0  0  0  0  0  0  0  0  0
  144.3070   68.6490  219.1910 C   0  0  0  0  0  0  0  0  0  0  0  0
  144.3130   66.8890  219.2700 Cl  0  0  0  0  0  0  0  0  0  0  0  0
  145.4650   69.2650  218.7400 C   0  0  0  0  0  0  0  0  0  0  0  0
  145.5000   70.6210  218.6630 N   0  0  0  0  0  0  0  0  0  0  0  0
  140.4380   71.9130  223.0360 C   0  0  0  0  0  0  0  0  0  0  0  0
  139.9680   70.6310  222.8360 C   0  0  0  0  0  0  0  0  0  0  0  0
  139.8620   69.7130  223.8790 C   0  0  0  0  0  0  0  0  0  0  0  0
  140.2400   70.0960  225.1580 C   0  0  0  0  0  0  0  0  0  0  0  0
  140.1260   69.1830  226.1550 C   0  0  0  0  0  0  0  0  0  0  0  0
  140.5040   69.5670  227.4340 C   0  0  0  0  0  0  0  0  0  0  0  0
  140.3640   68.4040  228.7320 Cl  0  0  0  0  0  0  0  0  0  0  0  0
  140.9730   70.8520  227.6250 C   0  0  0  0  0  0  0  0  0  0  0  0
  141.0820   71.7720  226.5980 C   0  0  0  0  0  0  0  0  0  0  0  0
  140.7070   71.3890  225.3240 C   0  0  0  0  0  0  0  0  0  0  0  0
  140.7950   72.2550  224.2840 N   0  0  0  0  0  0  0  0  0  0  0  0
  141.6670   71.4580  220.6910 H   0  0  0  0  0  0  0  0  0  0  0  0
  141.3050   72.7409  218.6938 H   0  0  0  0  0  0  0  0  0  0  0  0
  140.4268   73.9882  219.6823 H   0  0  0  0  0  0  0  0  0  0  0  0
  144.3103   74.3333  221.8283 H   0  0  0  0  0  0  0  0  0  0  0  0
  144.1220   72.5941  221.8462 H   0  0  0  0  0  0  0  0  0  0  0  0
  146.4862   74.1808  221.1425 H   0  0  0  0  0  0  0  0  0  0  0  0
  146.3726   72.4053  221.2454 H   0  0  0  0  0  0  0  0  0  0  0  0
  146.2166   74.1983  218.8682 H   0  0  0  0  0  0  0  0  0  0  0  0
  146.6976   72.5052  218.9385 H   0  0  0  0  0  0  0  0  0  0  0  0
  144.2086   73.0916  217.8952 H   0  0  0  0  0  0  0  0  0  0  0  0
  142.2946   68.9252  219.9146 H   0  0  0  0  0  0  0  0  0  0  0  0
  146.3404   68.6657  218.4495 H   0  0  0  0  0  0  0  0  0  0  0  0
  139.6681   70.3246  221.8230 H   0  0  0  0  0  0  0  0  0  0  0  0
  139.4834   68.6975  223.6908 H   0  0  0  0  0  0  0  0  0  0  0  0
  139.7459   68.1701  225.9559 H   0  0  0  0  0  0  0  0  0  0  0  0
  141.2730   71.1571  228.6384 H   0  0  0  0  0  0  0  0  0  0  0  0
  141.4592   72.7871  226.7911 H   0  0  0  0  0  0  0  0  0  0  0  0
  1  2  2  0
  2  3  1  0
  3  4  1  0
  4  5  1  0
  5  6  2  0
  5  7  1  0
  7  8  1  0
  8  9  1  0
  9 10  1  0
 10 11  1  0
 11 12  1  0
 12 13  2  0
 13 14  1  0
 14 15  2  0
 15 16  1  0
 15 17  1  0
 17 18  2  0
  2 19  1  0
 19 20  2  0
 20 21  1  0
 21 22  2  0
 22 23  1  0
 23 24  2  0
 24 25  1  0
 24 26  1  0
 26 27  2  0
 27 28  1  0
 28 29  2  0
 11  7  1  0
 18 12  1  0
 29 19  1  0
 28 22  1  0
  3 30  1  0
  4 31  1  0
  4 32  1  0
  8 33  1  0
  8 34  1  0
  9 35  1  0
  9 36  1  0
 10 37  1  0
 10 38  1  0
 11 39  1  6
 14 40  1  0
 17 41  1  0
 20 42  1  0
 21 43  1  0
 23 44  1  0
 26 45  1  0
 27 46  1  0
M  END
>  <meeko>  (15) 
{"free_energy": -7.33, "intermolecular_energy": -8.82, "internal_energy": -2.27, "cluster_size": 3, "cluster_id": 4, "rank_in_cluster": 2}

$$$$

     RDKit          3D

 46 49  0  0  0  0  0  0  0  0999 V2000
  133.8380   69.2620  226.5360 O   0  0  0  0  0  0  0  0  0  0  0  0
  134.0140   70.2770  225.8030 C   0  0  0  0  0  0  0  0  0  0  0  0
  134.6560   70.1540  224.5360 N   0  0  0  0  0  0  0  0  0  0  0  0
  135.0920   68.8650  224.1180 C   0  0  0  0  0  0  0  0  0  0  0  0
  136.1830   68.9380  223.0870 C   0  0  0  0  0  0  0  0  0  0  0  0
  136.0370   68.3150  222.0050 O   0  0  0  0  0  0  0  0  0  0  0  0
  137.3320   69.7170  223.3970 N   0  0  0  0  0  0  0  0  0  0  0  0
  137.3840   71.1080  223.8090 C   0  0  0  0  0  0  0  0  0  0  0  0
  138.7450   71.5540  223.3190 C   0  0  0  0  0  0  0  0  0  0  0  0
  139.4350   70.3500  222.7490 C   0  0  0  0  0  0  0  0  0  0  0  0
  138.6880   69.1690  223.3310 C   0  0  1  0  0  0  0  0  0  0  0  0
  139.2540   68.8960  224.6710 C   0  0  0  0  0  0  0  0  0  0  0  0
  139.1570   67.6940  225.2730 N   0  0  0  0  0  0  0  0  0  0  0  0
  139.6680   67.4380  226.4910 C   0  0  0  0  0  0  0  0  0  0  0  0
  140.3160   68.4580  227.1370 C   0  0  0  0  0  0  0  0  0  0  0  0
  141.0330   68.2650  228.7350 Cl  0  0  0  0  0  0  0  0  0  0  0  0
  140.4290   69.7050  226.5410 C   0  0  0  0  0  0  0  0  0  0  0  0
  139.8900   69.8950  225.3080 N   0  0  0  0  0  0  0  0  0  0  0  0
  133.5610   71.5940  226.2460 C   0  0  0  0  0  0  0  0  0  0  0  0
  132.4640   71.6880  227.0780 C   0  0  0  0  0  0  0  0  0  0  0  0
  131.9860   72.9150  227.5330 C   0  0  0  0  0  0  0  0  0  0  0  0
  132.6290   74.0800  227.1390 C   0  0  0  0  0  0  0  0  0  0  0  0
  132.1430   75.2610  227.5960 C   0  0  0  0  0  0  0  0  0  0  0  0
  132.7870   76.4250  227.2010 C   0  0  0  0  0  0  0  0  0  0  0  0
  132.1740   77.9570  227.7790 Cl  0  0  0  0  0  0  0  0  0  0  0  0
  133.8830   76.3220  226.3680 C   0  0  0  0  0  0  0  0  0  0  0  0
  134.3670   75.1100  225.9100 C   0  0  0  0  0  0  0  0  0  0  0  0
  133.7260   73.9510  226.3030 C   0  0  0  0  0  0  0  0  0  0  0  0
  134.1620   72.7380  225.8820 N   0  0  0  0  0  0  0  0  0  0  0  0
  134.7960   71.0110  223.9340 H   0  0  0  0  0  0  0  0  0  0  0  0
  135.4697   68.3180  224.9944 H   0  0  0  0  0  0  0  0  0  0  0  0
  134.2329   68.3506  223.6627 H   0  0  0  0  0  0  0  0  0  0  0  0
  136.5815   71.6918  223.3345 H   0  0  0  0  0  0  0  0  0  0  0  0
  137.2447   71.2464  224.8913 H   0  0  0  0  0  0  0  0  0  0  0  0
  138.6307   72.3244  222.5422 H   0  0  0  0  0  0  0  0  0  0  0  0
  139.3325   71.9833  224.1439 H   0  0  0  0  0  0  0  0  0  0  0  0
  139.3688   70.3483  221.6510 H   0  0  0  0  0  0  0  0  0  0  0  0
  140.5066   70.3280  222.9961 H   0  0  0  0  0  0  0  0  0  0  0  0
  138.7372   68.2199  222.7772 H   0  0  0  0  0  0  0  0  0  0  0  0
  139.5690   66.4443  226.9523 H   0  0  0  0  0  0  0  0  0  0  0  0
  140.9464   70.5268  227.0577 H   0  0  0  0  0  0  0  0  0  0  0  0
  131.9516   70.7665  227.3914 H   0  0  0  0  0  0  0  0  0  0  0  0
  131.1097   72.9598  228.1964 H   0  0  0  0  0  0  0  0  0  0  0  0
  131.2659   75.2950  228.2589 H   0  0  0  0  0  0  0  0  0  0  0  0
  134.3938   77.2444  226.0547 H   0  0  0  0  0  0  0  0  0  0  0  0
  135.2437   75.0698  225.2469 H   0  0  0  0  0  0  0  0  0  0  0  0
  1  2  2  0
  2  3  1  0
  3  4  1  0
  4  5  1  0
  5  6  2  0
  5  7  1  0
  7  8  1  0
  8  9  1  0
  9 10  1  0
 10 11  1  0
 11 12  1  0
 12 13  2  0
 13 14  1  0
 14 15  2  0
 15 16  1  0
 15 17  1  0
 17 18  2  0
  2 19  1  0
 19 20  2  0
 20 21  1  0
 21 22  2  0
 22 23  1  0
 23 24  2  0
 24 25  1  0
 24 26  1  0
 26 27  2  0
 27 28  1  0
 28 29  2  0
 11  7  1  0
 18 12  1  0
 29 19  1  0
 28 22  1  0
  3 30  1  0
  4 31  1  0
  4 32  1  0
  8 33  1  0
  8 34  1  0
  9 35  1  0
  9 36  1  0
 10 37  1  0
 10 38  1  0
 11 39  1  6
 14 40  1  0
 17 41  1  0
 20 42  1  0
 21 43  1  0
 23 44  1  0
 26 45  1  0
 27 46  1  0
M  END
>  <meeko>  (16) 
{"free_energy": -8.04, "intermolecular_energy": -9.54, "internal_energy": -1.42, "cluster_size": 2, "cluster_id": 2, "rank_in_cluster": 1}

$$$$

     RDKit          3D

 46 49  0  0  0  0  0  0  0  0999 V2000
  138.3170   75.3000  222.3450 O   0  0  0  0  0  0  0  0  0  0  0  0
  139.4960   75.6910  222.1050 C   0  0  0  0  0  0  0  0  0  0  0  0
  139.8620   77.0540  222.3040 N   0  0  0  0  0  0  0  0  0  0  0  0
  138.8720   77.9610  222.7780 C   0  0  0  0  0  0  0  0  0  0  0  0
  139.4740   79.1940  223.3900 C   0  0  0  0  0  0  0  0  0  0  0  0
  138.7990   79.8500  224.2230 O   0  0  0  0  0  0  0  0  0  0  0  0
  140.7920   79.5540  222.9880 N   0  0  0  0  0  0  0  0  0  0  0  0
  142.0500   79.1600  223.5940 C   0  0  0  0  0  0  0  0  0  0  0  0
  142.9660   80.3150  223.2500 C   0  0  0  0  0  0  0  0  0  0  0  0
  142.1960   81.2540  222.3690 C   0  0  0  0  0  0  0  0  0  0  0  0
  141.0460   80.4230  221.8380 C   0  0  1  0  0  0  0  0  0  0  0  0
  141.5400   79.6750  220.6610 C   0  0  0  0  0  0  0  0  0  0  0  0
  141.8250   80.2700  219.4850 N   0  0  0  0  0  0  0  0  0  0  0  0
  142.2730   79.5960  218.4100 C   0  0  0  0  0  0  0  0  0  0  0  0
  142.4430   78.2420  218.5320 C   0  0  0  0  0  0  0  0  0  0  0  0
  143.0230   77.2350  217.2070 Cl  0  0  0  0  0  0  0  0  0  0  0  0
  142.1560   77.6050  219.7300 C   0  0  0  0  0  0  0  0  0  0  0  0
  141.7070   78.3460  220.7760 N   0  0  0  0  0  0  0  0  0  0  0  0
  140.5010   74.7480  221.6180 C   0  0  0  0  0  0  0  0  0  0  0  0
  140.1870   73.4060  221.5360 C   0  0  0  0  0  0  0  0  0  0  0  0
  141.1030   72.4610  221.0800 C   0  0  0  0  0  0  0  0  0  0  0  0
  142.3710   72.8760  220.6960 C   0  0  0  0  0  0  0  0  0  0  0  0
  143.2430   71.9360  220.2570 C   0  0  0  0  0  0  0  0  0  0  0  0
  144.5100   72.3530  219.8740 C   0  0  0  0  0  0  0  0  0  0  0  0
  145.6490   71.1540  219.3050 Cl  0  0  0  0  0  0  0  0  0  0  0  0
  144.8160   73.6960  219.9590 C   0  0  0  0  0  0  0  0  0  0  0  0
  143.9150   74.6440  220.4100 C   0  0  0  0  0  0  0  0  0  0  0  0
  142.6530   74.2290  220.7910 C   0  0  0  0  0  0  0  0  0  0  0  0
  141.7340   75.1200  221.2400 N   0  0  0  0  0  0  0  0  0  0  0  0
  140.8500   77.3670  222.0990 H   0  0  0  0  0  0  0  0  0  0  0  0
  138.2337   78.2607  221.9337 H   0  0  0  0  0  0  0  0  0  0  0  0
  138.2913   77.4474  223.5584 H   0  0  0  0  0  0  0  0  0  0  0  0
  141.9467   79.0474  224.6833 H   0  0  0  0  0  0  0  0  0  0  0  0
  142.4207   78.1889  223.2342 H   0  0  0  0  0  0  0  0  0  0  0  0
  143.2785   80.8331  224.1687 H   0  0  0  0  0  0  0  0  0  0  0  0
  143.8688   79.9537  222.7358 H   0  0  0  0  0  0  0  0  0  0  0  0
  141.8211   82.1106  222.9484 H   0  0  0  0  0  0  0  0  0  0  0  0
  142.8160   81.6721  221.5623 H   0  0  0  0  0  0  0  0  0  0  0  0
  140.1467   80.9617  221.5048 H   0  0  0  0  0  0  0  0  0  0  0  0
  142.4951   80.1144  217.4656 H   0  0  0  0  0  0  0  0  0  0  0  0
  142.2898   76.5179  219.8314 H   0  0  0  0  0  0  0  0  0  0  0  0
  139.1835   73.0732  221.8398 H   0  0  0  0  0  0  0  0  0  0  0  0
  140.8250   71.3981  221.0248 H   0  0  0  0  0  0  0  0  0  0  0  0
  142.9554   70.8755  220.2059 H   0  0  0  0  0  0  0  0  0  0  0  0
  145.8199   74.0271  219.6549 H   0  0  0  0  0  0  0  0  0  0  0  0
  144.1971   75.7058  220.4642 H   0  0  0  0  0  0  0  0  0  0  0  0
  1  2  2  0
  2  3  1  0
  3  4  1  0
  4  5  1  0
  5  6  2  0
  5  7  1  0
  7  8  1  0
  8  9  1  0
  9 10  1  0
 10 11  1  0
 11 12  1  0
 12 13  2  0
 13 14  1  0
 14 15  2  0
 15 16  1  0
 15 17  1  0
 17 18  2  0
  2 19  1  0
 19 20  2  0
 20 21  1  0
 21 22  2  0
 22 23  1  0
 23 24  2  0
 24 25  1  0
 24 26  1  0
 26 27  2  0
 27 28  1  0
 28 29  2  0
 11  7  1  0
 18 12  1  0
 29 19  1  0
 28 22  1  0
  3 30  1  0
  4 31  1  0
  4 32  1  0
  8 33  1  0
  8 34  1  0
  9 35  1  0
  9 36  1  0
 10 37  1  0
 10 38  1  0
 11 39  1  6
 14 40  1  0
 17 41  1  0
 20 42  1  0
 21 43  1  0
 23 44  1  0
 26 45  1  0
 27 46  1  0
M  END
>  <meeko>  (17) 
{"free_energy": -6.92, "intermolecular_energy": -8.41, "internal_energy": -2.89, "cluster_size": 10, "cluster_id": 5, "rank_in_cluster": 3}

$$$$

     RDKit          3D

 46 49  0  0  0  0  0  0  0  0999 V2000
  138.2410   75.3620  222.4640 O   0  0  0  0  0  0  0  0  0  0  0  0
  139.3960   75.7770  222.1570 C   0  0  0  0  0  0  0  0  0  0  0  0
  139.7260   77.1580  222.2790 N   0  0  0  0  0  0  0  0  0  0  0  0
  138.7290   78.0560  222.7540 C   0  0  0  0  0  0  0  0  0  0  0  0
  139.3190   79.3060  223.3430 C   0  0  0  0  0  0  0  0  0  0  0  0
  138.6080   80.0160  224.0960 O   0  0  0  0  0  0  0  0  0  0  0  0
  140.6670   79.6180  223.0100 N   0  0  0  0  0  0  0  0  0  0  0  0
  141.8800   79.1230  223.6360 C   0  0  0  0  0  0  0  0  0  0  0  0
  142.8660   80.2460  223.3950 C   0  0  0  0  0  0  0  0  0  0  0  0
  142.1790   81.2740  222.5450 C   0  0  0  0  0  0  0  0  0  0  0  0
  141.0100   80.5380  221.9240 C   0  0  1  0  0  0  0  0  0  0  0  0
  141.5100   79.8340  220.7220 C   0  0  0  0  0  0  0  0  0  0  0  0
  141.8620   80.4790  219.5920 N   0  0  0  0  0  0  0  0  0  0  0  0
  142.3170   79.8460  218.4950 C   0  0  0  0  0  0  0  0  0  0  0  0
  142.4220   78.4810  218.5460 C   0  0  0  0  0  0  0  0  0  0  0  0
  143.0020   77.5240  217.1840 Cl  0  0  0  0  0  0  0  0  0  0  0  0
  142.0650   77.7920  219.6960 C   0  0  0  0  0  0  0  0  0  0  0  0
  141.6140   78.4940  220.7670 N   0  0  0  0  0  0  0  0  0  0  0  0
  140.4090   74.8430  221.6710 C   0  0  0  0  0  0  0  0  0  0  0  0
  140.1150   73.4960  221.6090 C   0  0  0  0  0  0  0  0  0  0  0  0
  141.0400   72.5590  221.1540 C   0  0  0  0  0  0  0  0  0  0  0  0
  142.2970   72.9880  220.7510 C   0  0  0  0  0  0  0  0  0  0  0  0
  143.1780   72.0550  220.3130 C   0  0  0  0  0  0  0  0  0  0  0  0
  144.4340   72.4860  219.9110 C   0  0  0  0  0  0  0  0  0  0  0  0
  145.5840   71.2980  219.3430 Cl  0  0  0  0  0  0  0  0  0  0  0  0
  144.7210   73.8350  219.9760 C   0  0  0  0  0  0  0  0  0  0  0  0
  143.8110   74.7750  220.4260 C   0  0  0  0  0  0  0  0  0  0  0  0
  142.5600   74.3460  220.8260 C   0  0  0  0  0  0  0  0  0  0  0  0
  141.6330   75.2290  221.2740 N   0  0  0  0  0  0  0  0  0  0  0  0
  140.6950   77.4900  222.0190 H   0  0  0  0  0  0  0  0  0  0  0  0
  138.0758   78.3352  221.9141 H   0  0  0  0  0  0  0  0  0  0  0  0
  138.1665   77.5436  223.5484 H   0  0  0  0  0  0  0  0  0  0  0  0
  141.7291   78.9528  224.7122 H   0  0  0  0  0  0  0  0  0  0  0  0
  142.2147   78.1563  223.2318 H   0  0  0  0  0  0  0  0  0  0  0  0
  143.1685   80.6925  224.3537 H   0  0  0  0  0  0  0  0  0  0  0  0
  143.7687   79.8681  222.8927 H   0  0  0  0  0  0  0  0  0  0  0  0
  141.8258   82.1140  223.1611 H   0  0  0  0  0  0  0  0  0  0  0  0
  142.8503   81.7047  221.7875 H   0  0  0  0  0  0  0  0  0  0  0  0
  140.1534   81.1428  221.5917 H   0  0  0  0  0  0  0  0  0  0  0  0
  142.5948   80.4049  217.5892 H   0  0  0  0  0  0  0  0  0  0  0  0
  142.1460   76.6958  219.7393 H   0  0  0  0  0  0  0  0  0  0  0  0
  139.1203   73.1519  221.9285 H   0  0  0  0  0  0  0  0  0  0  0  0
  140.7773   71.4916  221.1146 H   0  0  0  0  0  0  0  0  0  0  0  0
  142.9055   70.9899  220.2775 H   0  0  0  0  0  0  0  0  0  0  0  0
  145.7163   74.1772  219.6561 H   0  0  0  0  0  0  0  0  0  0  0  0
  144.0778   75.8414  220.4645 H   0  0  0  0  0  0  0  0  0  0  0  0
  1  2  2  0
  2  3  1  0
  3  4  1  0
  4  5  1  0
  5  6  2  0
  5  7  1  0
  7  8  1  0
  8  9  1  0
  9 10  1  0
 10 11  1  0
 11 12  1  0
 12 13  2  0
 13 14  1  0
 14 15  2  0
 15 16  1  0
 15 17  1  0
 17 18  2  0
  2 19  1  0
 19 20  2  0
 20 21  1  0
 21 22  2  0
 22 23  1  0
 23 24  2  0
 24 25  1  0
 24 26  1  0
 26 27  2  0
 27 28  1  0
 28 29  2  0
 11  7  1  0
 18 12  1  0
 29 19  1  0
 28 22  1  0
  3 30  1  0
  4 31  1  0
  4 32  1  0
  8 33  1  0
  8 34  1  0
  9 35  1  0
  9 36  1  0
 10 37  1  0
 10 38  1  0
 11 39  1  6
 14 40  1  0
 17 41  1  0
 20 42  1  0
 21 43  1  0
 23 44  1  0
 26 45  1  0
 27 46  1  0
M  END
>  <meeko>  (18) 
{"free_energy": -6.89, "intermolecular_energy": -8.38, "internal_energy": -2.91, "cluster_size": 10, "cluster_id": 5, "rank_in_cluster": 5}

$$$$

     RDKit          3D

 46 49  0  0  0  0  0  0  0  0999 V2000
  138.2150   75.3990  222.5670 O   0  0  0  0  0  0  0  0  0  0  0  0
  139.3600   75.8210  222.2350 C   0  0  0  0  0  0  0  0  0  0  0  0
  139.6790   77.2070  222.3370 N   0  0  0  0  0  0  0  0  0  0  0  0
  138.6800   78.1000  222.8180 C   0  0  0  0  0  0  0  0  0  0  0  0
  139.2650   79.3820  223.3410 C   0  0  0  0  0  0  0  0  0  0  0  0
  138.5390   80.1450  224.0260 O   0  0  0  0  0  0  0  0  0  0  0  0
  140.6250   79.6620  223.0290 N   0  0  0  0  0  0  0  0  0  0  0  0
  141.8160   79.1300  223.6640 C   0  0  0  0  0  0  0  0  0  0  0  0
  142.8340   80.2290  223.4460 C   0  0  0  0  0  0  0  0  0  0  0  0
  142.1840   81.2820  222.5970 C   0  0  0  0  0  0  0  0  0  0  0  0
  141.0050   80.5820  221.9550 C   0  0  1  0  0  0  0  0  0  0  0  0
  141.5010   79.8770  220.7530 C   0  0  0  0  0  0  0  0  0  0  0  0
  141.9310   80.5250  219.6520 N   0  0  0  0  0  0  0  0  0  0  0  0
  142.3830   79.8900  218.5550 C   0  0  0  0  0  0  0  0  0  0  0  0
  142.4030   78.5210  218.5740 C   0  0  0  0  0  0  0  0  0  0  0  0
  142.9690   77.5610  217.2090 Cl  0  0  0  0  0  0  0  0  0  0  0  0
  141.9660   77.8290  219.6940 C   0  0  0  0  0  0  0  0  0  0  0  0
  141.5220   78.5320  220.7680 N   0  0  0  0  0  0  0  0  0  0  0  0
  140.3750   74.8920  221.7420 C   0  0  0  0  0  0  0  0  0  0  0  0
  140.1060   73.5380  221.7350 C   0  0  0  0  0  0  0  0  0  0  0  0
  141.0340   72.6050  221.2770 C   0  0  0  0  0  0  0  0  0  0  0  0
  142.2660   73.0450  220.8140 C   0  0  0  0  0  0  0  0  0  0  0  0
  143.1500   72.1160  220.3750 C   0  0  0  0  0  0  0  0  0  0  0  0
  144.3810   72.5580  219.9120 C   0  0  0  0  0  0  0  0  0  0  0  0
  145.5350   71.3740  219.3420 Cl  0  0  0  0  0  0  0  0  0  0  0  0
  144.6420   73.9140  219.9240 C   0  0  0  0  0  0  0  0  0  0  0  0
  143.7290   74.8500  220.3750 C   0  0  0  0  0  0  0  0  0  0  0  0
  142.5030   74.4100  220.8360 C   0  0  0  0  0  0  0  0  0  0  0  0
  141.5750   75.2880  221.2890 N   0  0  0  0  0  0  0  0  0  0  0  0
  140.6390   77.5460  222.0560 H   0  0  0  0  0  0  0  0  0  0  0  0
  137.9902   78.3360  221.9943 H   0  0  0  0  0  0  0  0  0  0  0  0
  138.1578   77.6044  223.6497 H   0  0  0  0  0  0  0  0  0  0  0  0
  141.6475   78.9535  224.7366 H   0  0  0  0  0  0  0  0  0  0  0  0
  142.1302   78.1588  223.2542 H   0  0  0  0  0  0  0  0  0  0  0  0
  143.1357   80.6589  224.4125 H   0  0  0  0  0  0  0  0  0  0  0  0
  143.7332   79.8325  222.9518 H   0  0  0  0  0  0  0  0  0  0  0  0
  141.8445   82.1252  223.2165 H   0  0  0  0  0  0  0  0  0  0  0  0
  142.8756   81.7022  221.8519 H   0  0  0  0  0  0  0  0  0  0  0  0
  140.1683   81.2112  221.6173 H   0  0  0  0  0  0  0  0  0  0  0  0
  142.7248   80.4516  217.6731 H   0  0  0  0  0  0  0  0  0  0  0  0
  141.9788   76.7292  219.7120 H   0  0  0  0  0  0  0  0  0  0  0  0
  139.1307   73.1854  222.1017 H   0  0  0  0  0  0  0  0  0  0  0  0
  140.7928   71.5318  221.2824 H   0  0  0  0  0  0  0  0  0  0  0  0
  142.8993   71.0450  220.3855 H   0  0  0  0  0  0  0  0  0  0  0  0
  145.6185   74.2650  219.5590 H   0  0  0  0  0  0  0  0  0  0  0  0
  143.9738   75.9224  220.3668 H   0  0  0  0  0  0  0  0  0  0  0  0
  1  2  2  0
  2  3  1  0
  3  4  1  0
  4  5  1  0
  5  6  2  0
  5  7  1  0
  7  8  1  0
  8  9  1  0
  9 10  1  0
 10 11  1  0
 11 12  1  0
 12 13  2  0
 13 14  1  0
 14 15  2  0
 15 16  1  0
 15 17  1  0
 17 18  2  0
  2 19  1  0
 19 20  2  0
 20 21  1  0
 21 22  2  0
 22 23  1  0
 23 24  2  0
 24 25  1  0
 24 26  1  0
 26 27  2  0
 27 28  1  0
 28 29  2  0
 11  7  1  0
 18 12  1  0
 29 19  1  0
 28 22  1  0
  3 30  1  0
  4 31  1  0
  4 32  1  0
  8 33  1  0
  8 34  1  0
  9 35  1  0
  9 36  1  0
 10 37  1  0
 10 38  1  0
 11 39  1  6
 14 40  1  0
 17 41  1  0
 20 42  1  0
 21 43  1  0
 23 44  1  0
 26 45  1  0
 27 46  1  0
M  END
>  <meeko>  (19) 
{"free_energy": -6.88, "intermolecular_energy": -8.37, "internal_energy": -2.91, "cluster_size": 10, "cluster_id": 5, "rank_in_cluster": 6}

$$$$

     RDKit          3D

 46 49  0  0  0  0  0  0  0  0999 V2000
  139.8280   73.8740  221.2640 O   0  0  0  0  0  0  0  0  0  0  0  0
  140.4800   72.7940  221.3500 C   0  0  0  0  0  0  0  0  0  0  0  0
  141.3700   72.4000  220.3080 N   0  0  0  0  0  0  0  0  0  0  0  0
  141.5070   73.2500  219.1740 C   0  0  0  0  0  0  0  0  0  0  0  0
  142.7330   74.1140  219.2540 C   0  0  0  0  0  0  0  0  0  0  0  0
  142.6710   75.2960  218.8330 O   0  0  0  0  0  0  0  0  0  0  0  0
  143.9110   73.5390  219.8090 N   0  0  0  0  0  0  0  0  0  0  0  0
  144.2910   73.4560  221.2070 C   0  0  0  0  0  0  0  0  0  0  0  0
  145.8030   73.4300  221.1440 C   0  0  0  0  0  0  0  0  0  0  0  0
  146.1930   73.3910  219.6960 C   0  0  0  0  0  0  0  0  0  0  0  0
  144.9460   72.9230  218.9760 C   0  0  1  0  0  0  0  0  0  0  0  0
  144.9180   71.4450  219.0400 C   0  0  0  0  0  0  0  0  0  0  0  0
  145.9410   70.6770  218.6140 N   0  0  0  0  0  0  0  0  0  0  0  0
  145.9240   69.3330  218.6680 C   0  0  0  0  0  0  0  0  0  0  0  0
  144.8070   68.7310  219.1840 C   0  0  0  0  0  0  0  0  0  0  0  0
  144.6470   66.9800  219.3160 Cl  0  0  0  0  0  0  0  0  0  0  0  0
  143.7390   69.4970  219.6290 C   0  0  0  0  0  0  0  0  0  0  0  0
  143.8230   70.8500  219.5450 N   0  0  0  0  0  0  0  0  0  0  0  0
  140.3280   71.9310  222.5210 C   0  0  0  0  0  0  0  0  0  0  0  0
  139.7610   70.6820  222.3720 C   0  0  0  0  0  0  0  0  0  0  0  0
  139.5900   69.8170  223.4500 C   0  0  0  0  0  0  0  0  0  0  0  0
  140.0020   70.2180  224.7130 C   0  0  0  0  0  0  0  0  0  0  0  0
  139.8240   69.3570  225.7450 C   0  0  0  0  0  0  0  0  0  0  0  0
  140.2360   69.7600  227.0070 C   0  0  0  0  0  0  0  0  0  0  0  0
  140.0150   68.6630  228.3500 Cl  0  0  0  0  0  0  0  0  0  0  0  0
  140.8020   71.0120  227.1470 C   0  0  0  0  0  0  0  0  0  0  0  0
  140.9770   71.8800  226.0840 C   0  0  0  0  0  0  0  0  0  0  0  0
  140.5670   71.4780  224.8270 C   0  0  0  0  0  0  0  0  0  0  0  0
  140.7170   72.2930  223.7540 N   0  0  0  0  0  0  0  0  0  0  0  0
  141.9080   71.4950  220.3930 H   0  0  0  0  0  0  0  0  0  0  0  0
  141.5721   72.6263  218.2702 H   0  0  0  0  0  0  0  0  0  0  0  0
  140.6297   73.9128  219.1423 H   0  0  0  0  0  0  0  0  0  0  0  0
  143.9330   74.3323  221.7673 H   0  0  0  0  0  0  0  0  0  0  0  0
  143.8621   72.5845  221.7233 H   0  0  0  0  0  0  0  0  0  0  0  0
  146.2143   74.3325  221.6196 H   0  0  0  0  0  0  0  0  0  0  0  0
  146.1980   72.5517  221.6756 H   0  0  0  0  0  0  0  0  0  0  0  0
  146.4905   74.3909  219.3471 H   0  0  0  0  0  0  0  0  0  0  0  0
  147.0526   72.7293  219.5136 H   0  0  0  0  0  0  0  0  0  0  0  0
  144.8502   73.1862  217.9123 H   0  0  0  0  0  0  0  0  0  0  0  0
  146.7773   68.7381  218.3103 H   0  0  0  0  0  0  0  0  0  0  0  0
  142.8399   69.0168  220.0426 H   0  0  0  0  0  0  0  0  0  0  0  0
  139.4344   70.3599  221.3722 H   0  0  0  0  0  0  0  0  0  0  0  0
  139.1335   68.8272  223.3020 H   0  0  0  0  0  0  0  0  0  0  0  0
  139.3669   68.3691  225.5866 H   0  0  0  0  0  0  0  0  0  0  0  0
  141.1279   71.3330  228.1474 H   0  0  0  0  0  0  0  0  0  0  0  0
  141.4330   72.8694  226.2362 H   0  0  0  0  0  0  0  0  0  0  0  0
  1  2  2  0
  2  3  1  0
  3  4  1  0
  4  5  1  0
  5  6  2  0
  5  7  1  0
  7  8  1  0
  8  9  1  0
  9 10  1  0
 10 11  1  0
 11 12  1  0
 12 13  2  0
 13 14  1  0
 14 15  2  0
 15 16  1  0
 15 17  1  0
 17 18  2  0
  2 19  1  0
 19 20  2  0
 20 21  1  0
 21 22  2  0
 22 23  1  0
 23 24  2  0
 24 25  1  0
 24 26  1  0
 26 27  2  0
 27 28  1  0
 28 29  2  0
 11  7  1  0
 18 12  1  0
 29 19  1  0
 28 22  1  0
  3 30  1  0
  4 31  1  0
  4 32  1  0
  8 33  1  0
  8 34  1  0
  9 35  1  0
  9 36  1  0
 10 37  1  0
 10 38  1  0
 11 39  1  6
 14 40  1  0
 17 41  1  0
 20 42  1  0
 21 43  1  0
 23 44  1  0
 26 45  1  0
 27 46  1  0
M  END
>  <meeko>  (20) 
{"free_energy": -7.1, "intermolecular_energy": -8.59, "internal_energy": -2.28, "cluster_size": 3, "cluster_id": 4, "rank_in_cluster": 3}

$$$$
