
     RDKit          3D

 52 55  0  0  0  0  0  0  0  0999 V2000
  139.5490   71.3390  221.0250 O   0  0  0  0  0  0  0  0  0  0  0  0
  139.5750   71.8840  222.1610 C   0  0  0  0  0  0  0  0  0  0  0  0
  139.5520   73.2890  222.3340 N   0  0  0  0  0  0  0  0  0  0  0  0
  139.4970   74.2000  221.2240 C   0  0  0  0  0  0  0  0  0  0  0  0
  140.0580   75.5320  221.5570 C   0  0  0  0  0  0  0  0  0  0  0  0
  139.9020   76.0250  222.7250 O   0  0  0  0  0  0  0  0  0  0  0  0
  140.7680   76.2490  220.5620 N   0  0  0  0  0  0  0  0  0  0  0  0
  140.6330   76.1190  219.1240 C   0  0  0  0  0  0  0  0  0  0  0  0
  141.8630   76.7340  218.5140 C   0  0  0  0  0  0  0  0  0  0  0  0
  142.7640   76.9710  219.6810 C   0  0  2  0  0  0  0  0  0  0  0  0
  143.3600   75.7360  220.0200 O   0  0  0  0  0  0  0  0  0  0  0  0
  141.7890   77.2720  220.7840 C   0  0  1  0  0  0  0  0  0  0  0  0
  141.0860   78.6120  220.5900 C   0  0  0  0  0  0  0  0  0  0  0  0
  141.4970   79.4950  221.7130 C   0  0  0  0  0  0  0  0  0  0  0  0
  142.1820   79.0550  222.8180 C   0  0  0  0  0  0  0  0  0  0  0  0
  142.5530   79.8890  223.8490 C   0  0  0  0  0  0  0  0  0  0  0  0
  142.2140   81.2230  223.7520 C   0  0  0  0  0  0  0  0  0  0  0  0
  141.5250   81.7240  222.6630 C   0  0  0  0  0  0  0  0  0  0  0  0
  141.1780   80.8390  221.6540 C   0  0  0  0  0  0  0  0  0  0  0  0
  139.6320   71.0320  223.3640 C   0  0  0  0  0  0  0  0  0  0  0  0
  139.1700   69.7320  223.3370 C   0  0  0  0  0  0  0  0  0  0  0  0
  139.2240   68.9260  224.4780 C   0  0  0  0  0  0  0  0  0  0  0  0
  139.7590   69.4760  225.6410 C   0  0  0  0  0  0  0  0  0  0  0  0
  139.8370   68.7170  226.8050 C   0  0  0  0  0  0  0  0  0  0  0  0
  140.3770   69.3120  227.9320 C   0  0  0  0  0  0  0  0  0  0  0  0
  140.4740   68.6050  229.1000 F   0  0  0  0  0  0  0  0  0  0  0  0
  140.8320   70.6220  227.9240 C   0  0  0  0  0  0  0  0  0  0  0  0
  140.7570   71.3830  226.7670 C   0  0  0  0  0  0  0  0  0  0  0  0
  140.2180   70.7770  225.6560 C   0  0  0  0  0  0  0  0  0  0  0  0
  140.1450   71.5140  224.5330 N   0  0  0  0  0  0  0  0  0  0  0  0
  139.5760   73.6670  223.3270 H   0  0  0  0  0  0  0  0  0  0  0  0
  140.0714   73.7737  220.3884 H   0  0  0  0  0  0  0  0  0  0  0  0
  138.4391   74.3391  220.9566 H   0  0  0  0  0  0  0  0  0  0  0  0
  140.5623   75.0574  218.8448 H   0  0  0  0  0  0  0  0  0  0  0  0
  139.7220   76.6212  218.7663 H   0  0  0  0  0  0  0  0  0  0  0  0
  142.3287   76.0452  217.7938 H   0  0  0  0  0  0  0  0  0  0  0  0
  141.6432   77.6552  217.9545 H   0  0  0  0  0  0  0  0  0  0  0  0
  143.5305   77.7397  219.5033 H   0  0  0  0  0  0  0  0  0  0  0  0
  143.2700   75.5250  220.9750 H   0  0  0  0  0  0  0  0  0  0  0  0
  142.2837   77.2929  221.7663 H   0  0  0  0  0  0  0  0  0  0  0  0
  141.3862   79.0589  219.6308 H   0  0  0  0  0  0  0  0  0  0  0  0
  139.9940   78.4802  220.5786 H   0  0  0  0  0  0  0  0  0  0  0  0
  142.4463   77.9892  222.8828 H   0  0  0  0  0  0  0  0  0  0  0  0
  143.1016   79.5043  224.7214 H   0  0  0  0  0  0  0  0  0  0  0  0
  142.5001   81.9074  224.5642 H   0  0  0  0  0  0  0  0  0  0  0  0
  141.2608   82.7899  222.5993 H   0  0  0  0  0  0  0  0  0  0  0  0
  140.6312   81.2183  220.7781 H   0  0  0  0  0  0  0  0  0  0  0  0
  138.7532   69.3240  222.4043 H   0  0  0  0  0  0  0  0  0  0  0  0
  138.8555   67.8897  224.4582 H   0  0  0  0  0  0  0  0  0  0  0  0
  139.4806   67.6766  226.8286 H   0  0  0  0  0  0  0  0  0  0  0  0
  141.2547   71.0599  228.8403 H   0  0  0  0  0  0  0  0  0  0  0  0
  141.1123   72.4237  226.7391 H   0  0  0  0  0  0  0  0  0  0  0  0
  1  2  2  0
  2  3  1  0
  3  4  1  0
  4  5  1  0
  5  6  2  0
  5  7  1  0
  7  8  1  0
  8  9  1  0
  9 10  1  0
 10 11  1  0
 10 12  1  0
 12 13  1  0
 13 14  1  0
 14 15  2  0
 15 16  1  0
 16 17  2  0
 17 18  1  0
 18 19  2  0
  2 20  1  0
 20 21  2  0
 21 22  1  0
 22 23  2  0
 23 24  1  0
 24 25  2  0
 25 26  1  0
 25 27  1  0
 27 28  2  0
 28 29  1  0
 29 30  2  0
 12  7  1  0
 19 14  1  0
 30 20  1  0
 29 23  1  0
  3 31  1  0
  4 32  1  0
  4 33  1  0
  8 34  1  0
  8 35  1  0
  9 36  1  0
  9 37  1  0
 10 38  1  6
 11 39  1  0
 12 40  1  1
 13 41  1  0
 13 42  1  0
 15 43  1  0
 16 44  1  0
 17 45  1  0
 18 46  1  0
 19 47  1  0
 21 48  1  0
 22 49  1  0
 24 50  1  0
 27 51  1  0
 28 52  1  0
M  END
>  <meeko>  (1) 
{"free_energy": -8.83, "intermolecular_energy": -10.92, "internal_energy": -1.82, "cluster_size": 8, "cluster_id": 1, "rank_in_cluster": 6}

$$$$

     RDKit          3D

 52 55  0  0  0  0  0  0  0  0999 V2000
  137.0880   76.2670  221.9040 O   0  0  0  0  0  0  0  0  0  0  0  0
  138.3020   76.3170  222.2370 C   0  0  0  0  0  0  0  0  0  0  0  0
  139.1390   75.1750  222.2450 N   0  0  0  0  0  0  0  0  0  0  0  0
  138.6640   73.8700  221.8730 C   0  0  0  0  0  0  0  0  0  0  0  0
  139.5800   72.7890  222.3090 C   0  0  0  0  0  0  0  0  0  0  0  0
  140.8430   72.9780  222.3190 O   0  0  0  0  0  0  0  0  0  0  0  0
  139.0350   71.5450  222.7130 N   0  0  0  0  0  0  0  0  0  0  0  0
  138.6760   70.4280  221.8610 C   0  0  0  0  0  0  0  0  0  0  0  0
  137.7580   69.5460  222.6630 C   0  0  0  0  0  0  0  0  0  0  0  0
  137.4480   70.3590  223.8770 C   0  0  2  0  0  0  0  0  0  0  0  0
  136.4710   71.3130  223.5170 O   0  0  0  0  0  0  0  0  0  0  0  0
  138.7200   71.1330  224.0800 C   0  0  1  0  0  0  0  0  0  0  0  0
  139.8770   70.2430  224.5250 C   0  0  0  0  0  0  0  0  0  0  0  0
  140.3140   70.7190  225.8630 C   0  0  0  0  0  0  0  0  0  0  0  0
  141.0320   71.8720  226.0660 C   0  0  0  0  0  0  0  0  0  0  0  0
  141.4290   72.2950  227.3150 C   0  0  0  0  0  0  0  0  0  0  0  0
  141.0810   71.5170  228.3990 C   0  0  0  0  0  0  0  0  0  0  0  0
  140.3590   70.3460  228.2570 C   0  0  0  0  0  0  0  0  0  0  0  0
  139.9860   69.9680  226.9760 C   0  0  0  0  0  0  0  0  0  0  0  0
  138.8840   77.6130  222.6360 C   0  0  0  0  0  0  0  0  0  0  0  0
  138.0780   78.6970  222.9190 C   0  0  0  0  0  0  0  0  0  0  0  0
  138.6300   79.9240  223.2960 C   0  0  0  0  0  0  0  0  0  0  0  0
  140.0180   80.0170  223.3790 C   0  0  0  0  0  0  0  0  0  0  0  0
  140.6200   81.2160  223.7500 C   0  0  0  0  0  0  0  0  0  0  0  0
  142.0020   81.2550  223.8160 C   0  0  0  0  0  0  0  0  0  0  0  0
  142.6380   82.4110  224.1770 F   0  0  0  0  0  0  0  0  0  0  0  0
  142.7810   80.1460  223.5250 C   0  0  0  0  0  0  0  0  0  0  0  0
  142.1870   78.9490  223.1540 C   0  0  0  0  0  0  0  0  0  0  0  0
  140.8130   78.9270  223.0930 C   0  0  0  0  0  0  0  0  0  0  0  0
  140.2360   77.7660  222.7340 N   0  0  0  0  0  0  0  0  0  0  0  0
  140.1520   75.3030  222.5390 H   0  0  0  0  0  0  0  0  0  0  0  0
  137.6797   73.7071  222.3363 H   0  0  0  0  0  0  0  0  0  0  0  0
  138.6037   73.8357  220.7752 H   0  0  0  0  0  0  0  0  0  0  0  0
  138.1606   70.7901  220.9592 H   0  0  0  0  0  0  0  0  0  0  0  0
  139.5704   69.8755  221.5373 H   0  0  0  0  0  0  0  0  0  0  0  0
  136.8411   69.3199  222.0989 H   0  0  0  0  0  0  0  0  0  0  0  0
  138.2109   68.5739  222.9079 H   0  0  0  0  0  0  0  0  0  0  0  0
  137.1135   69.7621  224.7383 H   0  0  0  0  0  0  0  0  0  0  0  0
  136.7410   72.2300  223.7400 H   0  0  0  0  0  0  0  0  0  0  0  0
  138.5968   71.9241  224.8343 H   0  0  0  0  0  0  0  0  0  0  0  0
  139.5437   69.1966  224.5885 H   0  0  0  0  0  0  0  0  0  0  0  0
  140.7064   70.2945  223.8043 H   0  0  0  0  0  0  0  0  0  0  0  0
  141.3017   72.4843  225.1929 H   0  0  0  0  0  0  0  0  0  0  0  0
  142.0050   73.2233  227.4437 H   0  0  0  0  0  0  0  0  0  0  0  0
  141.3866   71.8371  229.4061 H   0  0  0  0  0  0  0  0  0  0  0  0
  140.0896   69.7349  229.1310 H   0  0  0  0  0  0  0  0  0  0  0  0
  139.4104   69.0404  226.8413 H   0  0  0  0  0  0  0  0  0  0  0  0
  136.9853   78.5935  222.8467 H   0  0  0  0  0  0  0  0  0  0  0  0
  137.9891   80.7894  223.5203 H   0  0  0  0  0  0  0  0  0  0  0  0
  140.0160   82.1052  223.9835 H   0  0  0  0  0  0  0  0  0  0  0  0
  143.8769   80.2158  223.5887 H   0  0  0  0  0  0  0  0  0  0  0  0
  142.7873   78.0577  222.9192 H   0  0  0  0  0  0  0  0  0  0  0  0
  1  2  2  0
  2  3  1  0
  3  4  1  0
  4  5  1  0
  5  6  2  0
  5  7  1  0
  7  8  1  0
  8  9  1  0
  9 10  1  0
 10 11  1  0
 10 12  1  0
 12 13  1  0
 13 14  1  0
 14 15  2  0
 15 16  1  0
 16 17  2  0
 17 18  1  0
 18 19  2  0
  2 20  1  0
 20 21  2  0
 21 22  1  0
 22 23  2  0
 23 24  1  0
 24 25  2  0
 25 26  1  0
 25 27  1  0
 27 28  2  0
 28 29  1  0
 29 30  2  0
 12  7  1  0
 19 14  1  0
 30 20  1  0
 29 23  1  0
  3 31  1  0
  4 32  1  0
  4 33  1  0
  8 34  1  0
  8 35  1  0
  9 36  1  0
  9 37  1  0
 10 38  1  1
 11 39  1  0
 12 40  1  1
 13 41  1  0
 13 42  1  0
 15 43  1  0
 16 44  1  0
 17 45  1  0
 18 46  1  0
 19 47  1  0
 21 48  1  0
 22 49  1  0
 24 50  1  0
 27 51  1  0
 28 52  1  0
M  END
>  <meeko>  (2) 
{"free_energy": -8.47, "intermolecular_energy": -10.55, "internal_energy": -1.91, "cluster_size": 3, "cluster_id": 2, "rank_in_cluster": 2}

$$$$

     RDKit          3D

 52 55  0  0  0  0  0  0  0  0999 V2000
  138.2430   76.4290  221.3620 O   0  0  0  0  0  0  0  0  0  0  0  0
  137.8870   75.5340  222.1750 C   0  0  0  0  0  0  0  0  0  0  0  0
  138.5690   74.2990  222.2980 N   0  0  0  0  0  0  0  0  0  0  0  0
  139.7200   73.9730  221.5020 C   0  0  0  0  0  0  0  0  0  0  0  0
  140.3030   72.6580  221.8600 C   0  0  0  0  0  0  0  0  0  0  0  0
  141.5470   72.4310  221.6790 O   0  0  0  0  0  0  0  0  0  0  0  0
  139.4610   71.6570  222.4060 N   0  0  0  0  0  0  0  0  0  0  0  0
  138.7820   70.5970  221.6880 C   0  0  0  0  0  0  0  0  0  0  0  0
  137.6940   70.0850  222.5930 C   0  0  0  0  0  0  0  0  0  0  0  0
  137.6630   71.0740  223.7120 C   0  0  2  0  0  0  0  0  0  0  0  0
  136.9630   72.2140  223.2580 O   0  0  0  0  0  0  0  0  0  0  0  0
  139.1030   71.4910  223.8140 C   0  0  1  0  0  0  0  0  0  0  0  0
  139.9960   70.3720  224.3420 C   0  0  0  0  0  0  0  0  0  0  0  0
  140.3430   70.7080  225.7480 C   0  0  0  0  0  0  0  0  0  0  0  0
  139.9890   69.9350  226.8260 C   0  0  0  0  0  0  0  0  0  0  0  0
  140.3190   70.2640  228.1220 C   0  0  0  0  0  0  0  0  0  0  0  0
  141.0360   71.4240  228.3290 C   0  0  0  0  0  0  0  0  0  0  0  0
  141.4200   72.2430  227.2830 C   0  0  0  0  0  0  0  0  0  0  0  0
  141.0620   71.8620  225.9990 C   0  0  0  0  0  0  0  0  0  0  0  0
  136.7150   75.7740  223.0380 C   0  0  0  0  0  0  0  0  0  0  0  0
  136.1200   77.0180  223.0990 C   0  0  0  0  0  0  0  0  0  0  0  0
  135.0090   77.2440  223.9160 C   0  0  0  0  0  0  0  0  0  0  0  0
  134.5230   76.1760  224.6670 C   0  0  0  0  0  0  0  0  0  0  0  0
  133.4200   76.3460  225.4980 C   0  0  0  0  0  0  0  0  0  0  0  0
  132.9770   75.2530  226.2220 C   0  0  0  0  0  0  0  0  0  0  0  0
  131.8960   75.3720  227.0510 F   0  0  0  0  0  0  0  0  0  0  0  0
  133.6000   74.0160  226.1370 C   0  0  0  0  0  0  0  0  0  0  0  0
  134.7000   73.8400  225.3110 C   0  0  0  0  0  0  0  0  0  0  0  0
  135.1260   74.9370  224.5990 C   0  0  0  0  0  0  0  0  0  0  0  0
  136.1930   74.7670  223.7970 N   0  0  0  0  0  0  0  0  0  0  0  0
  138.2040   73.5990  223.0090 H   0  0  0  0  0  0  0  0  0  0  0  0
  139.4220   73.9505  220.4434 H   0  0  0  0  0  0  0  0  0  0  0  0
  140.4852   74.7405  221.6902 H   0  0  0  0  0  0  0  0  0  0  0  0
  138.3466   70.9890  220.7570 H   0  0  0  0  0  0  0  0  0  0  0  0
  139.4818   69.7923  221.4185 H   0  0  0  0  0  0  0  0  0  0  0  0
  136.7280   70.0581  222.0675 H   0  0  0  0  0  0  0  0  0  0  0  0
  137.8789   69.0576  222.9397 H   0  0  0  0  0  0  0  0  0  0  0  0
  137.2162   70.6838  224.6383 H   0  0  0  0  0  0  0  0  0  0  0  0
  137.0140   72.9630  223.8910 H   0  0  0  0  0  0  0  0  0  0  0  0
  139.2272   72.3599  224.4770 H   0  0  0  0  0  0  0  0  0  0  0  0
  139.4584   69.4130  224.3060 H   0  0  0  0  0  0  0  0  0  0  0  0
  140.9045   70.2774  223.7291 H   0  0  0  0  0  0  0  0  0  0  0  0
  139.4169   69.0127  226.6468 H   0  0  0  0  0  0  0  0  0  0  0  0
  140.0206   69.6227  228.9644 H   0  0  0  0  0  0  0  0  0  0  0  0
  141.3104   71.7059  229.3562 H   0  0  0  0  0  0  0  0  0  0  0  0
  141.9905   73.1660  227.4637 H   0  0  0  0  0  0  0  0  0  0  0  0
  141.3596   72.4984  225.1525 H   0  0  0  0  0  0  0  0  0  0  0  0
  136.5262   77.8433  222.4958 H   0  0  0  0  0  0  0  0  0  0  0  0
  134.5330   78.2345  223.9646 H   0  0  0  0  0  0  0  0  0  0  0  0
  132.9152   77.3201  225.5771 H   0  0  0  0  0  0  0  0  0  0  0  0
  133.2192   73.1701  226.7282 H   0  0  0  0  0  0  0  0  0  0  0  0
  135.2083   72.8680  225.2290 H   0  0  0  0  0  0  0  0  0  0  0  0
  1  2  2  0
  2  3  1  0
  3  4  1  0
  4  5  1  0
  5  6  2  0
  5  7  1  0
  7  8  1  0
  8  9  1  0
  9 10  1  0
 10 11  1  0
 10 12  1  0
 12 13  1  0
 13 14  1  0
 14 15  2  0
 15 16  1  0
 16 17  2  0
 17 18  1  0
 18 19  2  0
  2 20  1  0
 20 21  2  0
 21 22  1  0
 22 23  2  0
 23 24  1  0
 24 25  2  0
 25 26  1  0
 25 27  1  0
 27 28  2  0
 28 29  1  0
 29 30  2  0
 12  7  1  0
 19 14  1  0
 30 20  1  0
 29 23  1  0
  3 31  1  0
  4 32  1  0
  4 33  1  0
  8 34  1  0
  8 35  1  0
  9 36  1  0
  9 37  1  0
 10 38  1  1
 11 39  1  0
 12 40  1  1
 13 41  1  0
 13 42  1  0
 15 43  1  0
 16 44  1  0
 17 45  1  0
 18 46  1  0
 19 47  1  0
 21 48  1  0
 22 49  1  0
 24 50  1  0
 27 51  1  0
 28 52  1  0
M  END
>  <meeko>  (3) 
{"free_energy": -7.35, "intermolecular_energy": -9.44, "internal_energy": -3.32, "cluster_size": 7, "cluster_id": 3, "rank_in_cluster": 4}

$$$$

     RDKit          3D

 52 55  0  0  0  0  0  0  0  0999 V2000
  136.7670   76.6750  222.7600 O   0  0  0  0  0  0  0  0  0  0  0  0
  136.5750   75.4880  223.1380 C   0  0  0  0  0  0  0  0  0  0  0  0
  137.3580   74.4040  222.6730 N   0  0  0  0  0  0  0  0  0  0  0  0
  138.4320   74.5760  221.7340 C   0  0  0  0  0  0  0  0  0  0  0  0
  139.5490   73.6300  221.9710 C   0  0  0  0  0  0  0  0  0  0  0  0
  140.7560   73.9930  221.7690 O   0  0  0  0  0  0  0  0  0  0  0  0
  139.2570   72.3190  222.4220 N   0  0  0  0  0  0  0  0  0  0  0  0
  138.8980   71.1720  221.6100 C   0  0  0  0  0  0  0  0  0  0  0  0
  138.2690   70.1650  222.5330 C   0  0  0  0  0  0  0  0  0  0  0  0
  138.0820   70.9150  223.8110 C   0  0  2  0  0  0  0  0  0  0  0  0
  136.9370   71.7300  223.6670 O   0  0  0  0  0  0  0  0  0  0  0  0
  139.2560   71.8530  223.8080 C   0  0  1  0  0  0  0  0  0  0  0  0
  140.5830   71.1260  224.0050 C   0  0  0  0  0  0  0  0  0  0  0  0
  140.7310   70.8590  225.4590 C   0  0  0  0  0  0  0  0  0  0  0  0
  140.9460   71.8390  226.3960 C   0  0  0  0  0  0  0  0  0  0  0  0
  141.0830   71.5720  227.7400 C   0  0  0  0  0  0  0  0  0  0  0  0
  140.9960   70.2570  228.1470 C   0  0  0  0  0  0  0  0  0  0  0  0
  140.7810   69.2270  227.2500 C   0  0  0  0  0  0  0  0  0  0  0  0
  140.6500   69.5540  225.9090 C   0  0  0  0  0  0  0  0  0  0  0  0
  135.4940   75.2080  224.1020 C   0  0  0  0  0  0  0  0  0  0  0  0
  134.6720   76.2170  224.5610 C   0  0  0  0  0  0  0  0  0  0  0  0
  133.6490   75.9500  225.4750 C   0  0  0  0  0  0  0  0  0  0  0  0
  133.4850   74.6360  225.9070 C   0  0  0  0  0  0  0  0  0  0  0  0
  132.4820   74.3150  226.8170 C   0  0  0  0  0  0  0  0  0  0  0  0
  132.3630   72.9940  227.2130 C   0  0  0  0  0  0  0  0  0  0  0  0
  131.3910   72.6310  228.1050 F   0  0  0  0  0  0  0  0  0  0  0  0
  133.2080   72.0050  226.7320 C   0  0  0  0  0  0  0  0  0  0  0  0
  134.2100   72.3190  225.8250 C   0  0  0  0  0  0  0  0  0  0  0  0
  134.3140   73.6360  225.4420 C   0  0  0  0  0  0  0  0  0  0  0  0
  135.2850   73.9410  224.5630 N   0  0  0  0  0  0  0  0  0  0  0  0
  137.1310   73.4330  223.0430 H   0  0  0  0  0  0  0  0  0  0  0  0
  138.0420   74.4143  220.7182 H   0  0  0  0  0  0  0  0  0  0  0  0
  138.8251   75.5958  221.8581 H   0  0  0  0  0  0  0  0  0  0  0  0
  138.1818   71.4697  220.8300 H   0  0  0  0  0  0  0  0  0  0  0  0
  139.7825   70.7503  221.1101 H   0  0  0  0  0  0  0  0  0  0  0  0
  137.3024   69.8210  222.1363 H   0  0  0  0  0  0  0  0  0  0  0  0
  138.8846   69.2620  222.6578 H   0  0  0  0  0  0  0  0  0  0  0  0
  137.9933   70.2695  224.6973 H   0  0  0  0  0  0  0  0  0  0  0  0
  136.9780   72.5360  224.2250 H   0  0  0  0  0  0  0  0  0  0  0  0
  139.1696   72.6114  224.6001 H   0  0  0  0  0  0  0  0  0  0  0  0
  140.5789   70.1780  223.4470 H   0  0  0  0  0  0  0  0  0  0  0  0
  141.4195   71.7369  223.6349 H   0  0  0  0  0  0  0  0  0  0  0  0
  141.0118   72.8838  226.0583 H   0  0  0  0  0  0  0  0  0  0  0  0
  141.2561   72.3808  228.4651 H   0  0  0  0  0  0  0  0  0  0  0  0
  141.1007   70.0209  229.2162 H   0  0  0  0  0  0  0  0  0  0  0  0
  140.7160   68.1826  227.5891 H   0  0  0  0  0  0  0  0  0  0  0  0
  140.4760   68.7493  225.1795 H   0  0  0  0  0  0  0  0  0  0  0  0
  134.8241   77.2458  224.2025 H   0  0  0  0  0  0  0  0  0  0  0  0
  132.9932   76.7532  225.8421 H   0  0  0  0  0  0  0  0  0  0  0  0
  131.8045   75.0876  227.2096 H   0  0  0  0  0  0  0  0  0  0  0  0
  133.0832   70.9661  227.0713 H   0  0  0  0  0  0  0  0  0  0  0  0
  134.8901   71.5498  225.4303 H   0  0  0  0  0  0  0  0  0  0  0  0
  1  2  2  0
  2  3  1  0
  3  4  1  0
  4  5  1  0
  5  6  2  0
  5  7  1  0
  7  8  1  0
  8  9  1  0
  9 10  1  0
 10 11  1  0
 10 12  1  0
 12 13  1  0
 13 14  1  0
 14 15  2  0
 15 16  1  0
 16 17  2  0
 17 18  1  0
 18 19  2  0
  2 20  1  0
 20 21  2  0
 21 22  1  0
 22 23  2  0
 23 24  1  0
 24 25  2  0
 25 26  1  0
 25 27  1  0
 27 28  2  0
 28 29  1  0
 29 30  2  0
 12  7  1  0
 19 14  1  0
 30 20  1  0
 29 23  1  0
  3 31  1  0
  4 32  1  0
  4 33  1  0
  8 34  1  0
  8 35  1  0
  9 36  1  0
  9 37  1  0
 10 38  1  1
 11 39  1  0
 12 40  1  1
 13 41  1  0
 13 42  1  0
 15 43  1  0
 16 44  1  0
 17 45  1  0
 18 46  1  0
 19 47  1  0
 21 48  1  0
 22 49  1  0
 24 50  1  0
 27 51  1  0
 28 52  1  0
M  END
>  <meeko>  (4) 
{"free_energy": -7.55, "intermolecular_energy": -9.63, "internal_energy": -3.28, "cluster_size": 7, "cluster_id": 3, "rank_in_cluster": 1}

$$$$

     RDKit          3D

 52 55  0  0  0  0  0  0  0  0999 V2000
  141.0730   72.9900  222.2340 O   0  0  0  0  0  0  0  0  0  0  0  0
  139.9850   72.6050  222.7390 C   0  0  0  0  0  0  0  0  0  0  0  0
  138.7310   73.1300  222.3430 N   0  0  0  0  0  0  0  0  0  0  0  0
  138.6060   74.1450  221.3330 C   0  0  0  0  0  0  0  0  0  0  0  0
  139.4630   75.3240  221.6050 C   0  0  0  0  0  0  0  0  0  0  0  0
  139.3450   75.9680  222.7010 O   0  0  0  0  0  0  0  0  0  0  0  0
  140.4130   75.7240  220.6330 N   0  0  0  0  0  0  0  0  0  0  0  0
  140.3840   75.4420  219.2120 C   0  0  0  0  0  0  0  0  0  0  0  0
  141.7770   75.6760  218.6920 C   0  0  0  0  0  0  0  0  0  0  0  0
  142.5970   75.8500  219.9280 C   0  0  2  0  0  0  0  0  0  0  0  0
  142.8440   74.5670  220.4640 O   0  0  0  0  0  0  0  0  0  0  0  0
  141.6260   76.5070  220.8680 C   0  0  1  0  0  0  0  0  0  0  0  0
  141.2870   77.9350  220.4520 C   0  0  0  0  0  0  0  0  0  0  0  0
  141.5950   78.8190  221.6060 C   0  0  0  0  0  0  0  0  0  0  0  0
  141.9950   80.1260  221.4810 C   0  0  0  0  0  0  0  0  0  0  0  0
  142.2770   80.9290  222.5640 C   0  0  0  0  0  0  0  0  0  0  0  0
  142.1480   80.3810  223.8230 C   0  0  0  0  0  0  0  0  0  0  0  0
  141.7490   79.0700  224.0120 C   0  0  0  0  0  0  0  0  0  0  0  0
  141.4770   78.3080  222.8860 C   0  0  0  0  0  0  0  0  0  0  0  0
  140.0080   71.5650  223.7860 C   0  0  0  0  0  0  0  0  0  0  0  0
  139.5480   70.2900  223.5310 C   0  0  0  0  0  0  0  0  0  0  0  0
  139.5710   69.3060  224.5240 C   0  0  0  0  0  0  0  0  0  0  0  0
  140.0730   69.6540  225.7760 C   0  0  0  0  0  0  0  0  0  0  0  0
  140.1180   68.7130  226.8010 C   0  0  0  0  0  0  0  0  0  0  0  0
  140.6250   69.1110  228.0260 C   0  0  0  0  0  0  0  0  0  0  0  0
  140.6900   68.2200  229.0620 F   0  0  0  0  0  0  0  0  0  0  0  0
  141.0790   70.4020  228.2470 C   0  0  0  0  0  0  0  0  0  0  0  0
  141.0360   71.3450  227.2300 C   0  0  0  0  0  0  0  0  0  0  0  0
  140.5290   70.9330  226.0190 C   0  0  0  0  0  0  0  0  0  0  0  0
  140.4870   71.8460  225.0320 N   0  0  0  0  0  0  0  0  0  0  0  0
  137.8600   72.7490  222.8190 H   0  0  0  0  0  0  0  0  0  0  0  0
  138.8951   73.7149  220.3627 H   0  0  0  0  0  0  0  0  0  0  0  0
  137.5600   74.4855  221.3284 H   0  0  0  0  0  0  0  0  0  0  0  0
  140.0863   74.3972  219.0396 H   0  0  0  0  0  0  0  0  0  0  0  0
  139.6575   76.0877  218.6969 H   0  0  0  0  0  0  0  0  0  0  0  0
  142.1272   74.8119  218.1084 H   0  0  0  0  0  0  0  0  0  0  0  0
  141.8379   76.5423  218.0169 H   0  0  0  0  0  0  0  0  0  0  0  0
  143.5395   76.3929  219.7641 H   0  0  0  0  0  0  0  0  0  0  0  0
  142.4100   74.4330  221.3340 H   0  0  0  0  0  0  0  0  0  0  0  0
  142.0190   76.5423  221.8948 H   0  0  0  0  0  0  0  0  0  0  0  0
  141.8936   78.2272  219.5821 H   0  0  0  0  0  0  0  0  0  0  0  0
  140.2263   78.0166  220.1724 H   0  0  0  0  0  0  0  0  0  0  0  0
  142.0948   80.5510  220.4713 H   0  0  0  0  0  0  0  0  0  0  0  0
  142.5948   81.9734  222.4291 H   0  0  0  0  0  0  0  0  0  0  0  0
  142.3687   81.0043  224.7021 H   0  0  0  0  0  0  0  0  0  0  0  0
  141.6507   78.6460  225.0222 H   0  0  0  0  0  0  0  0  0  0  0  0
  141.1571   77.2635  223.0147 H   0  0  0  0  0  0  0  0  0  0  0  0
  139.1576   70.0439  222.5325 H   0  0  0  0  0  0  0  0  0  0  0  0
  139.2041   68.2887  224.3229 H   0  0  0  0  0  0  0  0  0  0  0  0
  139.7615   67.6845  226.6422 H   0  0  0  0  0  0  0  0  0  0  0  0
  141.4757   70.6805  229.2344 H   0  0  0  0  0  0  0  0  0  0  0  0
  141.3909   72.3746  227.3848 H   0  0  0  0  0  0  0  0  0  0  0  0
  1  2  2  0
  2  3  1  0
  3  4  1  0
  4  5  1  0
  5  6  2  0
  5  7  1  0
  7  8  1  0
  8  9  1  0
  9 10  1  0
 10 11  1  0
 10 12  1  0
 12 13  1  0
 13 14  1  0
 14 15  2  0
 15 16  1  0
 16 17  2  0
 17 18  1  0
 18 19  2  0
  2 20  1  0
 20 21  2  0
 21 22  1  0
 22 23  2  0
 23 24  1  0
 24 25  2  0
 25 26  1  0
 25 27  1  0
 27 28  2  0
 28 29  1  0
 29 30  2  0
 12  7  1  0
 19 14  1  0
 30 20  1  0
 29 23  1  0
  3 31  1  0
  4 32  1  0
  4 33  1  0
  8 34  1  0
  8 35  1  0
  9 36  1  0
  9 37  1  0
 10 38  1  6
 11 39  1  0
 12 40  1  1
 13 41  1  0
 13 42  1  0
 15 43  1  0
 16 44  1  0
 17 45  1  0
 18 46  1  0
 19 47  1  0
 21 48  1  0
 22 49  1  0
 24 50  1  0
 27 51  1  0
 28 52  1  0
M  END
>  <meeko>  (5) 
{"free_energy": -8.66, "intermolecular_energy": -10.75, "internal_energy": -2.18, "cluster_size": 8, "cluster_id": 1, "rank_in_cluster": 8}

$$$$

     RDKit          3D

 52 55  0  0  0  0  0  0  0  0999 V2000
  136.8820   77.1410  222.6700 O   0  0  0  0  0  0  0  0  0  0  0  0
  136.6820   75.9710  223.0950 C   0  0  0  0  0  0  0  0  0  0  0  0
  137.4910   74.8730  222.7140 N   0  0  0  0  0  0  0  0  0  0  0  0
  138.6020   75.0110  221.8140 C   0  0  0  0  0  0  0  0  0  0  0  0
  139.4540   73.7980  221.7750 C   0  0  0  0  0  0  0  0  0  0  0  0
  140.6990   73.8910  221.5050 O   0  0  0  0  0  0  0  0  0  0  0  0
  138.8670   72.5360  222.0390 N   0  0  0  0  0  0  0  0  0  0  0  0
  138.2640   71.6310  221.0800 C   0  0  0  0  0  0  0  0  0  0  0  0
  137.4130   70.6690  221.8620 C   0  0  0  0  0  0  0  0  0  0  0  0
  137.3900   71.2480  223.2400 C   0  0  2  0  0  0  0  0  0  0  0  0
  136.4630   72.3130  223.2420 O   0  0  0  0  0  0  0  0  0  0  0  0
  138.7470   71.8850  223.3430 C   0  0  1  0  0  0  0  0  0  0  0  0
  139.8710   70.8550  223.4010 C   0  0  0  0  0  0  0  0  0  0  0  0
  140.1630   70.5960  224.8340 C   0  0  0  0  0  0  0  0  0  0  0  0
  140.6850   71.5360  225.6890 C   0  0  0  0  0  0  0  0  0  0  0  0
  140.9490   71.2760  227.0150 C   0  0  0  0  0  0  0  0  0  0  0  0
  140.6720   70.0110  227.4910 C   0  0  0  0  0  0  0  0  0  0  0  0
  140.1450   69.0240  226.6780 C   0  0  0  0  0  0  0  0  0  0  0  0
  139.8980   69.3410  225.3520 C   0  0  0  0  0  0  0  0  0  0  0  0
  135.5630   75.7270  224.0250 C   0  0  0  0  0  0  0  0  0  0  0  0
  134.7200   76.7500  224.4060 C   0  0  0  0  0  0  0  0  0  0  0  0
  133.6610   76.5180  225.2880 C   0  0  0  0  0  0  0  0  0  0  0  0
  133.4830   75.2220  225.7680 C   0  0  0  0  0  0  0  0  0  0  0  0
  132.4450   74.9350  226.6490 C   0  0  0  0  0  0  0  0  0  0  0  0
  132.3140   73.6320  227.0950 C   0  0  0  0  0  0  0  0  0  0  0  0
  131.3070   73.3020  227.9610 F   0  0  0  0  0  0  0  0  0  0  0  0
  133.1800   72.6270  226.6910 C   0  0  0  0  0  0  0  0  0  0  0  0
  134.2180   72.9070  225.8140 C   0  0  0  0  0  0  0  0  0  0  0  0
  134.3330   74.2070  225.3800 C   0  0  0  0  0  0  0  0  0  0  0  0
  135.3400   74.4790  224.5290 N   0  0  0  0  0  0  0  0  0  0  0  0
  137.2550   73.9190  223.1180 H   0  0  0  0  0  0  0  0  0  0  0  0
  138.2150   75.2032  220.8024 H   0  0  0  0  0  0  0  0  0  0  0  0
  139.2229   75.8446  222.1741 H   0  0  0  0  0  0  0  0  0  0  0  0
  137.6421   72.1937  220.3682 H   0  0  0  0  0  0  0  0  0  0  0  0
  139.0344   71.0969  220.5045 H   0  0  0  0  0  0  0  0  0  0  0  0
  136.3973   70.6151  221.4431 H   0  0  0  0  0  0  0  0  0  0  0  0
  137.8047   69.6413  221.8400 H   0  0  0  0  0  0  0  0  0  0  0  0
  137.1482   70.5179  224.0264 H   0  0  0  0  0  0  0  0  0  0  0  0
  136.6330   72.9570  223.9630 H   0  0  0  0  0  0  0  0  0  0  0  0
  138.8288   72.5195  224.2378 H   0  0  0  0  0  0  0  0  0  0  0  0
  139.5539   69.9243  222.9078 H   0  0  0  0  0  0  0  0  0  0  0  0
  140.7670   71.2285  222.8835 H   0  0  0  0  0  0  0  0  0  0  0  0
  140.9016   72.5407  225.2969 H   0  0  0  0  0  0  0  0  0  0  0  0
  141.3672   72.0516  227.6735 H   0  0  0  0  0  0  0  0  0  0  0  0
  140.8761   69.7809  228.5471 H   0  0  0  0  0  0  0  0  0  0  0  0
  139.9289   68.0197  227.0714 H   0  0  0  0  0  0  0  0  0  0  0  0
  139.4776   68.5698  224.6898 H   0  0  0  0  0  0  0  0  0  0  0  0
  134.8836   77.7631  224.0100 H   0  0  0  0  0  0  0  0  0  0  0  0
  132.9888   77.3332  225.5938 H   0  0  0  0  0  0  0  0  0  0  0  0
  131.7498   75.7202  226.9808 H   0  0  0  0  0  0  0  0  0  0  0  0
  133.0432   71.6026  227.0678 H   0  0  0  0  0  0  0  0  0  0  0  0
  134.9167   72.1253  225.4812 H   0  0  0  0  0  0  0  0  0  0  0  0
  1  2  2  0
  2  3  1  0
  3  4  1  0
  4  5  1  0
  5  6  2  0
  5  7  1  0
  7  8  1  0
  8  9  1  0
  9 10  1  0
 10 11  1  0
 10 12  1  0
 12 13  1  0
 13 14  1  0
 14 15  2  0
 15 16  1  0
 16 17  2  0
 17 18  1  0
 18 19  2  0
  2 20  1  0
 20 21  2  0
 21 22  1  0
 22 23  2  0
 23 24  1  0
 24 25  2  0
 25 26  1  0
 25 27  1  0
 27 28  2  0
 28 29  1  0
 29 30  2  0
 12  7  1  0
 19 14  1  0
 30 20  1  0
 29 23  1  0
  3 31  1  0
  4 32  1  0
  4 33  1  0
  8 34  1  0
  8 35  1  0
  9 36  1  0
  9 37  1  0
 10 38  1  1
 11 39  1  0
 12 40  1  1
 13 41  1  0
 13 42  1  0
 15 43  1  0
 16 44  1  0
 17 45  1  0
 18 46  1  0
 19 47  1  0
 21 48  1  0
 22 49  1  0
 24 50  1  0
 27 51  1  0
 28 52  1  0
M  END
>  <meeko>  (6) 
{"free_energy": -6.95, "intermolecular_energy": -9.04, "internal_energy": -3.3, "cluster_size": 7, "cluster_id": 3, "rank_in_cluster": 6}

$$$$

     RDKit          3D

 52 55  0  0  0  0  0  0  0  0999 V2000
  141.2780   72.5850  221.7900 O   0  0  0  0  0  0  0  0  0  0  0  0
  140.2220   72.5540  222.4770 C   0  0  0  0  0  0  0  0  0  0  0  0
  139.1280   73.4180  222.2320 N   0  0  0  0  0  0  0  0  0  0  0  0
  139.1400   74.3970  221.1800 C   0  0  0  0  0  0  0  0  0  0  0  0
  139.9590   75.5850  221.5220 C   0  0  0  0  0  0  0  0  0  0  0  0
  139.9580   76.0490  222.7120 O   0  0  0  0  0  0  0  0  0  0  0  0
  140.7400   76.1970  220.5110 N   0  0  0  0  0  0  0  0  0  0  0  0
  140.6470   75.9820  219.0810 C   0  0  0  0  0  0  0  0  0  0  0  0
  141.9280   76.4900  218.4790 C   0  0  0  0  0  0  0  0  0  0  0  0
  142.8010   76.7540  219.6620 C   0  0  2  0  0  0  0  0  0  0  0  0
  143.3170   75.5140  220.1000 O   0  0  0  0  0  0  0  0  0  0  0  0
  141.8080   77.1770  220.7070 C   0  0  1  0  0  0  0  0  0  0  0  0
  141.1870   78.5370  220.4030 C   0  0  0  0  0  0  0  0  0  0  0  0
  141.4990   79.4330  221.5470 C   0  0  0  0  0  0  0  0  0  0  0  0
  141.4680   80.8040  221.4730 C   0  0  0  0  0  0  0  0  0  0  0  0
  141.7610   81.6170  222.5450 C   0  0  0  0  0  0  0  0  0  0  0  0
  142.1000   81.0130  223.7380 C   0  0  0  0  0  0  0  0  0  0  0  0
  142.1480   79.6380  223.8720 C   0  0  0  0  0  0  0  0  0  0  0  0
  141.8420   78.8680  222.7610 C   0  0  0  0  0  0  0  0  0  0  0  0
  140.1130   71.5820  223.5810 C   0  0  0  0  0  0  0  0  0  0  0  0
  139.5070   70.3570  223.3930 C   0  0  0  0  0  0  0  0  0  0  0  0
  139.4040   69.4380  224.4400 C   0  0  0  0  0  0  0  0  0  0  0  0
  139.9320   69.7970  225.6790 C   0  0  0  0  0  0  0  0  0  0  0  0
  139.8570   68.9190  226.7560 C   0  0  0  0  0  0  0  0  0  0  0  0
  140.3970   69.3250  227.9640 C   0  0  0  0  0  0  0  0  0  0  0  0
  140.3470   68.4950  229.0500 F   0  0  0  0  0  0  0  0  0  0  0  0
  140.9990   70.5640  228.1170 C   0  0  0  0  0  0  0  0  0  0  0  0
  141.0780   71.4440  227.0480 C   0  0  0  0  0  0  0  0  0  0  0  0
  140.5360   71.0240  225.8550 C   0  0  0  0  0  0  0  0  0  0  0  0
  140.6110   71.8770  224.8170 N   0  0  0  0  0  0  0  0  0  0  0  0
  138.2730   73.3260  222.8580 H   0  0  0  0  0  0  0  0  0  0  0  0
  139.5519   73.9339  220.2712 H   0  0  0  0  0  0  0  0  0  0  0  0
  138.1050   74.7364  221.0262 H   0  0  0  0  0  0  0  0  0  0  0  0
  140.5273   74.9098  218.8666 H   0  0  0  0  0  0  0  0  0  0  0  0
  139.7778   76.5081  218.6593 H   0  0  0  0  0  0  0  0  0  0  0  0
  142.3788   75.7323  217.8213 H   0  0  0  0  0  0  0  0  0  0  0  0
  141.7783   77.3831  217.8545 H   0  0  0  0  0  0  0  0  0  0  0  0
  143.6141   77.4681  219.4646 H   0  0  0  0  0  0  0  0  0  0  0  0
  143.1330   75.3450  221.0500 H   0  0  0  0  0  0  0  0  0  0  0  0
  142.2694   77.2353  221.7038 H   0  0  0  0  0  0  0  0  0  0  0  0
  141.6149   78.9472  219.4764 H   0  0  0  0  0  0  0  0  0  0  0  0
  140.0994   78.4458  220.2661 H   0  0  0  0  0  0  0  0  0  0  0  0
  141.1973   81.2731  220.5156 H   0  0  0  0  0  0  0  0  0  0  0  0
  141.7259   82.7126  222.4531 H   0  0  0  0  0  0  0  0  0  0  0  0
  142.3389   81.6434  224.6073 H   0  0  0  0  0  0  0  0  0  0  0  0
  142.4203   79.1701  224.8295 H   0  0  0  0  0  0  0  0  0  0  0  0
  141.8731   77.7719  222.8481 H   0  0  0  0  0  0  0  0  0  0  0  0
  139.0990   70.1002  222.4043 H   0  0  0  0  0  0  0  0  0  0  0  0
  138.9210   68.4610  224.2912 H   0  0  0  0  0  0  0  0  0  0  0  0
  139.3828   67.9321  226.6505 H   0  0  0  0  0  0  0  0  0  0  0  0
  141.4170   70.8514  229.0931 H   0  0  0  0  0  0  0  0  0  0  0  0
  141.5518   72.4316  227.1491 H   0  0  0  0  0  0  0  0  0  0  0  0
  1  2  2  0
  2  3  1  0
  3  4  1  0
  4  5  1  0
  5  6  2  0
  5  7  1  0
  7  8  1  0
  8  9  1  0
  9 10  1  0
 10 11  1  0
 10 12  1  0
 12 13  1  0
 13 14  1  0
 14 15  2  0
 15 16  1  0
 16 17  2  0
 17 18  1  0
 18 19  2  0
  2 20  1  0
 20 21  2  0
 21 22  1  0
 22 23  2  0
 23 24  1  0
 24 25  2  0
 25 26  1  0
 25 27  1  0
 27 28  2  0
 28 29  1  0
 29 30  2  0
 12  7  1  0
 19 14  1  0
 30 20  1  0
 29 23  1  0
  3 31  1  0
  4 32  1  0
  4 33  1  0
  8 34  1  0
  8 35  1  0
  9 36  1  0
  9 37  1  0
 10 38  1  6
 11 39  1  0
 12 40  1  1
 13 41  1  0
 13 42  1  0
 15 43  1  0
 16 44  1  0
 17 45  1  0
 18 46  1  0
 19 47  1  0
 21 48  1  0
 22 49  1  0
 24 50  1  0
 27 51  1  0
 28 52  1  0
M  END
>  <meeko>  (7) 
{"free_energy": -9.16, "intermolecular_energy": -11.25, "internal_energy": -1.46, "cluster_size": 8, "cluster_id": 1, "rank_in_cluster": 1}

$$$$

     RDKit          3D

 52 55  0  0  0  0  0  0  0  0999 V2000
  139.6500   71.3210  221.0210 O   0  0  0  0  0  0  0  0  0  0  0  0
  139.6360   71.8710  222.1540 C   0  0  0  0  0  0  0  0  0  0  0  0
  139.5860   73.2770  222.3200 N   0  0  0  0  0  0  0  0  0  0  0  0
  139.5470   74.1820  221.2040 C   0  0  0  0  0  0  0  0  0  0  0  0
  140.0780   75.5240  221.5460 C   0  0  0  0  0  0  0  0  0  0  0  0
  139.9150   76.0030  222.7180 O   0  0  0  0  0  0  0  0  0  0  0  0
  140.7650   76.2660  220.5540 N   0  0  0  0  0  0  0  0  0  0  0  0
  140.6070   76.1640  219.1160 C   0  0  0  0  0  0  0  0  0  0  0  0
  141.8210   76.8010  218.4980 C   0  0  0  0  0  0  0  0  0  0  0  0
  142.7400   77.0210  219.6550 C   0  0  2  0  0  0  0  0  0  0  0  0
  143.3510   75.7850  219.9580 O   0  0  0  0  0  0  0  0  0  0  0  0
  141.7820   77.2920  220.7800 C   0  0  1  0  0  0  0  0  0  0  0  0
  141.0660   78.6310  220.6250 C   0  0  0  0  0  0  0  0  0  0  0  0
  141.4710   79.4860  221.7710 C   0  0  0  0  0  0  0  0  0  0  0  0
  141.8740   78.9910  222.9870 C   0  0  0  0  0  0  0  0  0  0  0  0
  142.2440   79.8010  224.0370 C   0  0  0  0  0  0  0  0  0  0  0  0
  142.2030   81.1660  223.8440 C   0  0  0  0  0  0  0  0  0  0  0  0
  141.8060   81.7220  222.6430 C   0  0  0  0  0  0  0  0  0  0  0  0
  141.4440   80.8600  221.6190 C   0  0  0  0  0  0  0  0  0  0  0  0
  139.6740   71.0260  223.3620 C   0  0  0  0  0  0  0  0  0  0  0  0
  139.1970   69.7310  223.3390 C   0  0  0  0  0  0  0  0  0  0  0  0
  139.2330   68.9310  224.4850 C   0  0  0  0  0  0  0  0  0  0  0  0
  139.7650   69.4810  225.6490 C   0  0  0  0  0  0  0  0  0  0  0  0
  139.8240   68.7290  226.8180 C   0  0  0  0  0  0  0  0  0  0  0  0
  140.3620   69.3230  227.9460 C   0  0  0  0  0  0  0  0  0  0  0  0
  140.4420   68.6220  229.1180 F   0  0  0  0  0  0  0  0  0  0  0  0
  140.8330   70.6280  227.9340 C   0  0  0  0  0  0  0  0  0  0  0  0
  140.7760   71.3830  226.7720 C   0  0  0  0  0  0  0  0  0  0  0  0
  140.2380   70.7770  225.6600 C   0  0  0  0  0  0  0  0  0  0  0  0
  140.1830   71.5090  224.5330 N   0  0  0  0  0  0  0  0  0  0  0  0
  139.5770   73.6600  223.3110 H   0  0  0  0  0  0  0  0  0  0  0  0
  140.1506   73.7610  220.3864 H   0  0  0  0  0  0  0  0  0  0  0  0
  138.4949   74.3032  220.9068 H   0  0  0  0  0  0  0  0  0  0  0  0
  140.5400   75.1077  218.8166 H   0  0  0  0  0  0  0  0  0  0  0  0
  139.6863   76.6660  218.7840 H   0  0  0  0  0  0  0  0  0  0  0  0
  142.2796   76.1309  217.7559 H   0  0  0  0  0  0  0  0  0  0  0  0
  141.5848   77.7316  217.9612 H   0  0  0  0  0  0  0  0  0  0  0  0
  143.4976   77.7992  219.4804 H   0  0  0  0  0  0  0  0  0  0  0  0
  143.2960   75.5630  220.9130 H   0  0  0  0  0  0  0  0  0  0  0  0
  142.2928   77.2966  221.7542 H   0  0  0  0  0  0  0  0  0  0  0  0
  141.3600   79.1073  219.6780 H   0  0  0  0  0  0  0  0  0  0  0  0
  139.9752   78.4893  220.6122 H   0  0  0  0  0  0  0  0  0  0  0  0
  141.9024   77.9005  223.1281 H   0  0  0  0  0  0  0  0  0  0  0  0
  142.5622   79.3731  224.9991 H   0  0  0  0  0  0  0  0  0  0  0  0
  142.4948   81.8312  224.6700 H   0  0  0  0  0  0  0  0  0  0  0  0
  141.7780   82.8128  222.5038 H   0  0  0  0  0  0  0  0  0  0  0  0
  141.1251   81.2828  220.6549 H   0  0  0  0  0  0  0  0  0  0  0  0
  138.7826   69.3225  222.4055 H   0  0  0  0  0  0  0  0  0  0  0  0
  138.8529   67.8989  224.4680 H   0  0  0  0  0  0  0  0  0  0  0  0
  139.4541   67.6934  226.8447 H   0  0  0  0  0  0  0  0  0  0  0  0
  141.2539   71.0662  228.8510 H   0  0  0  0  0  0  0  0  0  0  0  0
  141.1441   72.4191  226.7408 H   0  0  0  0  0  0  0  0  0  0  0  0
  1  2  2  0
  2  3  1  0
  3  4  1  0
  4  5  1  0
  5  6  2  0
  5  7  1  0
  7  8  1  0
  8  9  1  0
  9 10  1  0
 10 11  1  0
 10 12  1  0
 12 13  1  0
 13 14  1  0
 14 15  2  0
 15 16  1  0
 16 17  2  0
 17 18  1  0
 18 19  2  0
  2 20  1  0
 20 21  2  0
 21 22  1  0
 22 23  2  0
 23 24  1  0
 24 25  2  0
 25 26  1  0
 25 27  1  0
 27 28  2  0
 28 29  1  0
 29 30  2  0
 12  7  1  0
 19 14  1  0
 30 20  1  0
 29 23  1  0
  3 31  1  0
  4 32  1  0
  4 33  1  0
  8 34  1  0
  8 35  1  0
  9 36  1  0
  9 37  1  0
 10 38  1  6
 11 39  1  0
 12 40  1  1
 13 41  1  0
 13 42  1  0
 15 43  1  0
 16 44  1  0
 17 45  1  0
 18 46  1  0
 19 47  1  0
 21 48  1  0
 22 49  1  0
 24 50  1  0
 27 51  1  0
 28 52  1  0
M  END
>  <meeko>  (8) 
{"free_energy": -8.83, "intermolecular_energy": -10.92, "internal_energy": -1.82, "cluster_size": 8, "cluster_id": 1, "rank_in_cluster": 7}

$$$$

     RDKit          3D

 52 55  0  0  0  0  0  0  0  0999 V2000
  136.7770   76.7050  222.7610 O   0  0  0  0  0  0  0  0  0  0  0  0
  136.5670   75.5190  223.1300 C   0  0  0  0  0  0  0  0  0  0  0  0
  137.3330   74.4260  222.6580 N   0  0  0  0  0  0  0  0  0  0  0  0
  138.4100   74.5880  221.7200 C   0  0  0  0  0  0  0  0  0  0  0  0
  139.5230   73.6400  221.9670 C   0  0  0  0  0  0  0  0  0  0  0  0
  140.7320   73.9980  221.7650 O   0  0  0  0  0  0  0  0  0  0  0  0
  139.2260   72.3340  222.4280 N   0  0  0  0  0  0  0  0  0  0  0  0
  138.8610   71.1830  221.6250 C   0  0  0  0  0  0  0  0  0  0  0  0
  138.2290   70.1850  222.5560 C   0  0  0  0  0  0  0  0  0  0  0  0
  138.0480   70.9450  223.8290 C   0  0  2  0  0  0  0  0  0  0  0  0
  136.9060   71.7640  223.6810 O   0  0  0  0  0  0  0  0  0  0  0  0
  139.2260   71.8780  223.8170 C   0  0  1  0  0  0  0  0  0  0  0  0
  140.5500   71.1460  224.0160 C   0  0  0  0  0  0  0  0  0  0  0  0
  140.6980   70.8850  225.4720 C   0  0  0  0  0  0  0  0  0  0  0  0
  140.9020   71.8700  226.4060 C   0  0  0  0  0  0  0  0  0  0  0  0
  141.0390   71.6080  227.7510 C   0  0  0  0  0  0  0  0  0  0  0  0
  140.9630   70.2930  228.1620 C   0  0  0  0  0  0  0  0  0  0  0  0
  140.7590   69.2590  227.2670 C   0  0  0  0  0  0  0  0  0  0  0  0
  140.6280   69.5810  225.9250 C   0  0  0  0  0  0  0  0  0  0  0  0
  135.4810   75.2490  224.0920 C   0  0  0  0  0  0  0  0  0  0  0  0
  134.6560   76.2620  224.5350 C   0  0  0  0  0  0  0  0  0  0  0  0
  133.6290   76.0050  225.4470 C   0  0  0  0  0  0  0  0  0  0  0  0
  133.4630   74.6950  225.8930 C   0  0  0  0  0  0  0  0  0  0  0  0
  132.4560   74.3850  226.8010 C   0  0  0  0  0  0  0  0  0  0  0  0
  132.3350   73.0680  227.2110 C   0  0  0  0  0  0  0  0  0  0  0  0
  131.3590   72.7140  228.1020 F   0  0  0  0  0  0  0  0  0  0  0  0
  133.1830   72.0740  226.7440 C   0  0  0  0  0  0  0  0  0  0  0  0
  134.1890   72.3780  225.8400 C   0  0  0  0  0  0  0  0  0  0  0  0
  134.2950   73.6910  225.4420 C   0  0  0  0  0  0  0  0  0  0  0  0
  135.2710   73.9870  224.5650 N   0  0  0  0  0  0  0  0  0  0  0  0
  137.0900   73.4560  223.0200 H   0  0  0  0  0  0  0  0  0  0  0  0
  138.0220   74.4202  220.7045 H   0  0  0  0  0  0  0  0  0  0  0  0
  138.8060   75.6075  221.8373 H   0  0  0  0  0  0  0  0  0  0  0  0
  138.1449   71.4782  220.8439 H   0  0  0  0  0  0  0  0  0  0  0  0
  139.7430   70.7540  221.1270 H   0  0  0  0  0  0  0  0  0  0  0  0
  137.2601   69.8427  222.1635 H   0  0  0  0  0  0  0  0  0  0  0  0
  138.8405   69.2799  222.6858 H   0  0  0  0  0  0  0  0  0  0  0  0
  137.9585   70.3063  224.7201 H   0  0  0  0  0  0  0  0  0  0  0  0
  136.9550   72.5780  224.2280 H   0  0  0  0  0  0  0  0  0  0  0  0
  139.1448   72.6424  224.6038 H   0  0  0  0  0  0  0  0  0  0  0  0
  140.5412   70.1955  223.4624 H   0  0  0  0  0  0  0  0  0  0  0  0
  141.3890   71.7513  223.6422 H   0  0  0  0  0  0  0  0  0  0  0  0
  140.9585   72.9144  226.0652 H   0  0  0  0  0  0  0  0  0  0  0  0
  141.2036   72.4205  228.4741 H   0  0  0  0  0  0  0  0  0  0  0  0
  141.0677   70.0607  229.2321 H   0  0  0  0  0  0  0  0  0  0  0  0
  140.7025   68.2149  227.6087 H   0  0  0  0  0  0  0  0  0  0  0  0
  140.4631   68.7728  225.1973 H   0  0  0  0  0  0  0  0  0  0  0  0
  134.8088   77.2866  224.1651 H   0  0  0  0  0  0  0  0  0  0  0  0
  132.9714   76.8121  225.8022 H   0  0  0  0  0  0  0  0  0  0  0  0
  131.7768   75.1620  227.1816 H   0  0  0  0  0  0  0  0  0  0  0  0
  133.0563   71.0386  227.0932 H   0  0  0  0  0  0  0  0  0  0  0  0
  134.8717   71.6046  225.4581 H   0  0  0  0  0  0  0  0  0  0  0  0
  1  2  2  0
  2  3  1  0
  3  4  1  0
  4  5  1  0
  5  6  2  0
  5  7  1  0
  7  8  1  0
  8  9  1  0
  9 10  1  0
 10 11  1  0
 10 12  1  0
 12 13  1  0
 13 14  1  0
 14 15  2  0
 15 16  1  0
 16 17  2  0
 17 18  1  0
 18 19  2  0
  2 20  1  0
 20 21  2  0
 21 22  1  0
 22 23  2  0
 23 24  1  0
 24 25  2  0
 25 26  1  0
 25 27  1  0
 27 28  2  0
 28 29  1  0
 29 30  2  0
 12  7  1  0
 19 14  1  0
 30 20  1  0
 29 23  1  0
  3 31  1  0
  4 32  1  0
  4 33  1  0
  8 34  1  0
  8 35  1  0
  9 36  1  0
  9 37  1  0
 10 38  1  1
 11 39  1  0
 12 40  1  1
 13 41  1  0
 13 42  1  0
 15 43  1  0
 16 44  1  0
 17 45  1  0
 18 46  1  0
 19 47  1  0
 21 48  1  0
 22 49  1  0
 24 50  1  0
 27 51  1  0
 28 52  1  0
M  END
>  <meeko>  (9) 
{"free_energy": -7.54, "intermolecular_energy": -9.62, "internal_energy": -3.28, "cluster_size": 7, "cluster_id": 3, "rank_in_cluster": 2}

$$$$

     RDKit          3D

 52 55  0  0  0  0  0  0  0  0999 V2000
  137.4880   76.7020  221.9010 O   0  0  0  0  0  0  0  0  0  0  0  0
  137.3020   75.6200  222.5210 C   0  0  0  0  0  0  0  0  0  0  0  0
  138.1240   74.4830  222.3360 N   0  0  0  0  0  0  0  0  0  0  0  0
  139.2360   74.4780  221.4250 C   0  0  0  0  0  0  0  0  0  0  0  0
  139.8800   73.1460  221.3260 C   0  0  0  0  0  0  0  0  0  0  0  0
  140.9450   72.9930  220.6380 O   0  0  0  0  0  0  0  0  0  0  0  0
  139.2980   72.0470  222.0040 N   0  0  0  0  0  0  0  0  0  0  0  0
  138.6720   70.8820  221.4090 C   0  0  0  0  0  0  0  0  0  0  0  0
  137.8380   70.2390  222.4830 C   0  0  0  0  0  0  0  0  0  0  0  0
  137.8470   71.2390  223.5930 C   0  0  2  0  0  0  0  0  0  0  0  0
  136.9210   72.2540  223.2640 O   0  0  0  0  0  0  0  0  0  0  0  0
  139.2070   71.8630  223.4520 C   0  0  1  0  0  0  0  0  0  0  0  0
  140.3310   70.9000  223.8220 C   0  0  0  0  0  0  0  0  0  0  0  0
  140.4100   70.8590  225.3050 C   0  0  0  0  0  0  0  0  0  0  0  0
  139.8790   69.8490  226.0690 C   0  0  0  0  0  0  0  0  0  0  0  0
  139.9620   69.8290  227.4440 C   0  0  0  0  0  0  0  0  0  0  0  0
  140.6090   70.8770  228.0650 C   0  0  0  0  0  0  0  0  0  0  0  0
  141.1630   71.9220  227.3480 C   0  0  0  0  0  0  0  0  0  0  0  0
  141.0510   71.8900  225.9660 C   0  0  0  0  0  0  0  0  0  0  0  0
  136.1840   75.5270  223.4790 C   0  0  0  0  0  0  0  0  0  0  0  0
  135.4590   76.6450  223.8380 C   0  0  0  0  0  0  0  0  0  0  0  0
  134.4010   76.5540  224.7470 C   0  0  0  0  0  0  0  0  0  0  0  0
  134.1010   75.3010  225.2770 C   0  0  0  0  0  0  0  0  0  0  0  0
  133.0580   75.1550  226.1860 C   0  0  0  0  0  0  0  0  0  0  0  0
  132.8020   73.8890  226.6830 C   0  0  0  0  0  0  0  0  0  0  0  0
  131.7850   73.6960  227.5780 F   0  0  0  0  0  0  0  0  0  0  0  0
  133.5510   72.7860  226.3000 C   0  0  0  0  0  0  0  0  0  0  0  0
  134.5920   72.9260  225.3950 C   0  0  0  0  0  0  0  0  0  0  0  0
  134.8330   74.1910  224.9110 C   0  0  0  0  0  0  0  0  0  0  0  0
  135.8430   74.3270  224.0330 N   0  0  0  0  0  0  0  0  0  0  0  0
  137.8990   73.6100  222.8990 H   0  0  0  0  0  0  0  0  0  0  0  0
  138.8768   74.7717  220.4276 H   0  0  0  0  0  0  0  0  0  0  0  0
  139.9862   75.1855  221.8079 H   0  0  0  0  0  0  0  0  0  0  0  0
  138.0346   71.1844  220.5651 H   0  0  0  0  0  0  0  0  0  0  0  0
  139.4280   70.1815  221.0246 H   0  0  0  0  0  0  0  0  0  0  0  0
  136.8129   70.0588  222.1270 H   0  0  0  0  0  0  0  0  0  0  0  0
  138.2284   69.2583  222.7927 H   0  0  0  0  0  0  0  0  0  0  0  0
  137.6222   70.8102  224.5807 H   0  0  0  0  0  0  0  0  0  0  0  0
  136.9390   72.9990  223.9020 H   0  0  0  0  0  0  0  0  0  0  0  0
  139.3098   72.7559  224.0861 H   0  0  0  0  0  0  0  0  0  0  0  0
  140.1109   69.8964  223.4292 H   0  0  0  0  0  0  0  0  0  0  0  0
  141.2864   71.2339  223.3910 H   0  0  0  0  0  0  0  0  0  0  0  0
  139.3649   69.0198  225.5609 H   0  0  0  0  0  0  0  0  0  0  0  0
  139.5266   69.0044  228.0275 H   0  0  0  0  0  0  0  0  0  0  0  0
  140.6866   70.8818  229.1623 H   0  0  0  0  0  0  0  0  0  0  0  0
  141.6757   72.7514  227.8572 H   0  0  0  0  0  0  0  0  0  0  0  0
  141.4860   72.7111  225.3773 H   0  0  0  0  0  0  0  0  0  0  0  0
  135.7173   77.6216  223.4027 H   0  0  0  0  0  0  0  0  0  0  0  0
  133.8230   77.4445  225.0350 H   0  0  0  0  0  0  0  0  0  0  0  0
  132.4550   76.0197  226.5002 H   0  0  0  0  0  0  0  0  0  0  0  0
  133.3178   71.7950  226.7165 H   0  0  0  0  0  0  0  0  0  0  0  0
  135.1980   72.0643  225.0782 H   0  0  0  0  0  0  0  0  0  0  0  0
  1  2  2  0
  2  3  1  0
  3  4  1  0
  4  5  1  0
  5  6  2  0
  5  7  1  0
  7  8  1  0
  8  9  1  0
  9 10  1  0
 10 11  1  0
 10 12  1  0
 12 13  1  0
 13 14  1  0
 14 15  2  0
 15 16  1  0
 16 17  2  0
 17 18  1  0
 18 19  2  0
  2 20  1  0
 20 21  2  0
 21 22  1  0
 22 23  2  0
 23 24  1  0
 24 25  2  0
 25 26  1  0
 25 27  1  0
 27 28  2  0
 28 29  1  0
 29 30  2  0
 12  7  1  0
 19 14  1  0
 30 20  1  0
 29 23  1  0
  3 31  1  0
  4 32  1  0
  4 33  1  0
  8 34  1  0
  8 35  1  0
  9 36  1  0
  9 37  1  0
 10 38  1  1
 11 39  1  0
 12 40  1  1
 13 41  1  0
 13 42  1  0
 15 43  1  0
 16 44  1  0
 17 45  1  0
 18 46  1  0
 19 47  1  0
 21 48  1  0
 22 49  1  0
 24 50  1  0
 27 51  1  0
 28 52  1  0
M  END
>  <meeko>  (10) 
{"free_energy": -7.08, "intermolecular_energy": -9.16, "internal_energy": -3.19, "cluster_size": 7, "cluster_id": 3, "rank_in_cluster": 5}

$$$$

     RDKit          3D

 52 55  0  0  0  0  0  0  0  0999 V2000
  137.2780   76.1550  222.1910 O   0  0  0  0  0  0  0  0  0  0  0  0
  138.5290   76.2930  222.2600 C   0  0  0  0  0  0  0  0  0  0  0  0
  139.4300   75.2410  221.9700 N   0  0  0  0  0  0  0  0  0  0  0  0
  138.9850   73.9330  221.5730 C   0  0  0  0  0  0  0  0  0  0  0  0
  139.7920   72.8500  222.1860 C   0  0  0  0  0  0  0  0  0  0  0  0
  141.0590   72.9690  222.2880 O   0  0  0  0  0  0  0  0  0  0  0  0
  139.1380   71.6840  222.6540 N   0  0  0  0  0  0  0  0  0  0  0  0
  138.6170   70.5920  221.8560 C   0  0  0  0  0  0  0  0  0  0  0  0
  137.6530   69.8360  222.7280 C   0  0  0  0  0  0  0  0  0  0  0  0
  137.4950   70.7090  223.9300 C   0  0  2  0  0  0  0  0  0  0  0  0
  136.6080   71.7530  223.5880 O   0  0  0  0  0  0  0  0  0  0  0  0
  138.8520   71.3440  224.0470 C   0  0  1  0  0  0  0  0  0  0  0  0
  139.9280   70.3450  224.4620 C   0  0  0  0  0  0  0  0  0  0  0  0
  140.3610   70.7060  225.8370 C   0  0  0  0  0  0  0  0  0  0  0  0
  140.0860   69.9470  226.9470 C   0  0  0  0  0  0  0  0  0  0  0  0
  140.4950   70.2990  228.2140 C   0  0  0  0  0  0  0  0  0  0  0  0
  141.2140   71.4680  228.3570 C   0  0  0  0  0  0  0  0  0  0  0  0
  141.5220   72.2730  227.2750 C   0  0  0  0  0  0  0  0  0  0  0  0
  141.0850   71.8690  226.0230 C   0  0  0  0  0  0  0  0  0  0  0  0
  139.0850   77.6000  222.6590 C   0  0  0  0  0  0  0  0  0  0  0  0
  138.2580   78.6730  222.9260 C   0  0  0  0  0  0  0  0  0  0  0  0
  138.7860   79.9110  223.3030 C   0  0  0  0  0  0  0  0  0  0  0  0
  140.1720   80.0270  223.4020 C   0  0  0  0  0  0  0  0  0  0  0  0
  140.7500   81.2370  223.7730 C   0  0  0  0  0  0  0  0  0  0  0  0
  142.1300   81.2990  223.8550 C   0  0  0  0  0  0  0  0  0  0  0  0
  142.7440   82.4670  224.2170 F   0  0  0  0  0  0  0  0  0  0  0  0
  142.9310   80.2000  223.5800 C   0  0  0  0  0  0  0  0  0  0  0  0
  142.3600   78.9920  223.2090 C   0  0  0  0  0  0  0  0  0  0  0  0
  140.9870   78.9480  223.1320 C   0  0  0  0  0  0  0  0  0  0  0  0
  140.4330   77.7760  222.7720 N   0  0  0  0  0  0  0  0  0  0  0  0
  140.4710   75.4420  222.0520 H   0  0  0  0  0  0  0  0  0  0  0  0
  137.9360   73.8087  221.8799 H   0  0  0  0  0  0  0  0  0  0  0  0
  139.0977   73.8578  220.4814 H   0  0  0  0  0  0  0  0  0  0  0  0
  138.0973   70.9853  220.9699 H   0  0  0  0  0  0  0  0  0  0  0  0
  139.4288   69.9373  221.5063 H   0  0  0  0  0  0  0  0  0  0  0  0
  136.6893   69.6963  222.2164 H   0  0  0  0  0  0  0  0  0  0  0  0
  138.0111   68.8271  222.9806 H   0  0  0  0  0  0  0  0  0  0  0  0
  137.1434   70.1753  224.8253 H   0  0  0  0  0  0  0  0  0  0  0  0
  136.9540   72.6370  223.8410 H   0  0  0  0  0  0  0  0  0  0  0  0
  138.8541   72.1624  224.7819 H   0  0  0  0  0  0  0  0  0  0  0  0
  139.5176   69.3245  224.4525 H   0  0  0  0  0  0  0  0  0  0  0  0
  140.7785   70.3775  223.7652 H   0  0  0  0  0  0  0  0  0  0  0  0
  139.5136   69.0164  226.8189 H   0  0  0  0  0  0  0  0  0  0  0  0
  140.2563   69.6689  229.0835 H   0  0  0  0  0  0  0  0  0  0  0  0
  141.5519   71.7683  229.3598 H   0  0  0  0  0  0  0  0  0  0  0  0
  142.0949   73.2032  227.4039 H   0  0  0  0  0  0  0  0  0  0  0  0
  141.3220   72.4939  225.1493 H   0  0  0  0  0  0  0  0  0  0  0  0
  137.1680   78.5517  222.8408 H   0  0  0  0  0  0  0  0  0  0  0  0
  138.1286   80.7671  223.5150 H   0  0  0  0  0  0  0  0  0  0  0  0
  140.1289   82.1175  223.9944 H   0  0  0  0  0  0  0  0  0  0  0  0
  144.0248   80.2874  223.6567 H   0  0  0  0  0  0  0  0  0  0  0  0
  142.9769   78.1089  222.9863 H   0  0  0  0  0  0  0  0  0  0  0  0
  1  2  2  0
  2  3  1  0
  3  4  1  0
  4  5  1  0
  5  6  2  0
  5  7  1  0
  7  8  1  0
  8  9  1  0
  9 10  1  0
 10 11  1  0
 10 12  1  0
 12 13  1  0
 13 14  1  0
 14 15  2  0
 15 16  1  0
 16 17  2  0
 17 18  1  0
 18 19  2  0
  2 20  1  0
 20 21  2  0
 21 22  1  0
 22 23  2  0
 23 24  1  0
 24 25  2  0
 25 26  1  0
 25 27  1  0
 27 28  2  0
 28 29  1  0
 29 30  2  0
 12  7  1  0
 19 14  1  0
 30 20  1  0
 29 23  1  0
  3 31  1  0
  4 32  1  0
  4 33  1  0
  8 34  1  0
  8 35  1  0
  9 36  1  0
  9 37  1  0
 10 38  1  1
 11 39  1  0
 12 40  1  1
 13 41  1  0
 13 42  1  0
 15 43  1  0
 16 44  1  0
 17 45  1  0
 18 46  1  0
 19 47  1  0
 21 48  1  0
 22 49  1  0
 24 50  1  0
 27 51  1  0
 28 52  1  0
M  END
>  <meeko>  (11) 
{"free_energy": -8.73, "intermolecular_energy": -10.81, "internal_energy": -1.88, "cluster_size": 3, "cluster_id": 2, "rank_in_cluster": 1}

$$$$

     RDKit          3D

 52 55  0  0  0  0  0  0  0  0999 V2000
  139.7190   71.3110  221.0350 O   0  0  0  0  0  0  0  0  0  0  0  0
  139.6740   71.8650  222.1650 C   0  0  0  0  0  0  0  0  0  0  0  0
  139.6030   73.2700  222.3240 N   0  0  0  0  0  0  0  0  0  0  0  0
  139.5760   74.1710  221.2040 C   0  0  0  0  0  0  0  0  0  0  0  0
  140.0750   75.5230  221.5530 C   0  0  0  0  0  0  0  0  0  0  0  0
  139.9050   75.9900  222.7300 O   0  0  0  0  0  0  0  0  0  0  0  0
  140.7410   76.2880  220.5640 N   0  0  0  0  0  0  0  0  0  0  0  0
  140.5790   76.1930  219.1270 C   0  0  0  0  0  0  0  0  0  0  0  0
  141.7760   76.8620  218.5080 C   0  0  0  0  0  0  0  0  0  0  0  0
  142.6950   77.0940  219.6630 C   0  0  2  0  0  0  0  0  0  0  0  0
  143.3350   75.8700  219.9550 O   0  0  0  0  0  0  0  0  0  0  0  0
  141.7360   77.3350  220.7940 C   0  0  1  0  0  0  0  0  0  0  0  0
  140.9890   78.6580  220.6530 C   0  0  0  0  0  0  0  0  0  0  0  0
  141.4390   79.5420  221.7590 C   0  0  0  0  0  0  0  0  0  0  0  0
  142.1690   79.1040  222.8360 C   0  0  0  0  0  0  0  0  0  0  0  0
  142.5760   79.9390  223.8530 C   0  0  0  0  0  0  0  0  0  0  0  0
  142.2260   81.2710  223.7710 C   0  0  0  0  0  0  0  0  0  0  0  0
  141.4920   81.7700  222.7110 C   0  0  0  0  0  0  0  0  0  0  0  0
  141.1100   80.8840  221.7150 C   0  0  0  0  0  0  0  0  0  0  0  0
  139.6960   71.0250  223.3780 C   0  0  0  0  0  0  0  0  0  0  0  0
  139.2040   69.7360  223.3580 C   0  0  0  0  0  0  0  0  0  0  0  0
  139.2260   68.9410  224.5070 C   0  0  0  0  0  0  0  0  0  0  0  0
  139.7590   69.4900  225.6720 C   0  0  0  0  0  0  0  0  0  0  0  0
  139.8040   68.7420  226.8440 C   0  0  0  0  0  0  0  0  0  0  0  0
  140.3440   69.3350  227.9720 C   0  0  0  0  0  0  0  0  0  0  0  0
  140.4100   68.6390  229.1480 F   0  0  0  0  0  0  0  0  0  0  0  0
  140.8290   70.6340  227.9560 C   0  0  0  0  0  0  0  0  0  0  0  0
  140.7870   71.3850  226.7910 C   0  0  0  0  0  0  0  0  0  0  0  0
  140.2470   70.7800  225.6790 C   0  0  0  0  0  0  0  0  0  0  0  0
  140.2050   71.5070  224.5480 N   0  0  0  0  0  0  0  0  0  0  0  0
  139.5670   73.6570  223.3130 H   0  0  0  0  0  0  0  0  0  0  0  0
  140.2067   73.7577  220.4031 H   0  0  0  0  0  0  0  0  0  0  0  0
  138.5294   74.2731  220.8813 H   0  0  0  0  0  0  0  0  0  0  0  0
  140.5345   75.1376  218.8201 H   0  0  0  0  0  0  0  0  0  0  0  0
  139.6457   76.6766  218.8028 H   0  0  0  0  0  0  0  0  0  0  0  0
  142.2462   76.2079  217.7590 H   0  0  0  0  0  0  0  0  0  0  0  0
  141.5166   77.7909  217.9789 H   0  0  0  0  0  0  0  0  0  0  0  0
  143.4341   77.8902  219.4906 H   0  0  0  0  0  0  0  0  0  0  0  0
  143.2360   75.6090  220.8960 H   0  0  0  0  0  0  0  0  0  0  0  0
  142.2512   77.3439  221.7658 H   0  0  0  0  0  0  0  0  0  0  0  0
  141.2233   79.1206  219.6829 H   0  0  0  0  0  0  0  0  0  0  0  0
  139.9019   78.4975  220.7017 H   0  0  0  0  0  0  0  0  0  0  0  0
  142.4408   78.0394  222.8891 H   0  0  0  0  0  0  0  0  0  0  0  0
  143.1608   79.5565  224.7025 H   0  0  0  0  0  0  0  0  0  0  0  0
  142.5401   81.9559  224.5724 H   0  0  0  0  0  0  0  0  0  0  0  0
  141.2200   82.8346  222.6594 H   0  0  0  0  0  0  0  0  0  0  0  0
  140.5263   81.2612  220.8623 H   0  0  0  0  0  0  0  0  0  0  0  0
  138.7886   69.3285  222.4245 H   0  0  0  0  0  0  0  0  0  0  0  0
  138.8345   67.9131  224.4925 H   0  0  0  0  0  0  0  0  0  0  0  0
  139.4221   67.7108  226.8734 H   0  0  0  0  0  0  0  0  0  0  0  0
  141.2498   71.0715  228.8733 H   0  0  0  0  0  0  0  0  0  0  0  0
  141.1677   72.4165  226.7572 H   0  0  0  0  0  0  0  0  0  0  0  0
  1  2  2  0
  2  3  1  0
  3  4  1  0
  4  5  1  0
  5  6  2  0
  5  7  1  0
  7  8  1  0
  8  9  1  0
  9 10  1  0
 10 11  1  0
 10 12  1  0
 12 13  1  0
 13 14  1  0
 14 15  2  0
 15 16  1  0
 16 17  2  0
 17 18  1  0
 18 19  2  0
  2 20  1  0
 20 21  2  0
 21 22  1  0
 22 23  2  0
 23 24  1  0
 24 25  2  0
 25 26  1  0
 25 27  1  0
 27 28  2  0
 28 29  1  0
 29 30  2  0
 12  7  1  0
 19 14  1  0
 30 20  1  0
 29 23  1  0
  3 31  1  0
  4 32  1  0
  4 33  1  0
  8 34  1  0
  8 35  1  0
  9 36  1  0
  9 37  1  0
 10 38  1  6
 11 39  1  0
 12 40  1  1
 13 41  1  0
 13 42  1  0
 15 43  1  0
 16 44  1  0
 17 45  1  0
 18 46  1  0
 19 47  1  0
 21 48  1  0
 22 49  1  0
 24 50  1  0
 27 51  1  0
 28 52  1  0
M  END
>  <meeko>  (12) 
{"free_energy": -8.83, "intermolecular_energy": -10.92, "internal_energy": -1.82, "cluster_size": 8, "cluster_id": 1, "rank_in_cluster": 5}

$$$$

     RDKit          3D

 52 55  0  0  0  0  0  0  0  0999 V2000
  139.5920   71.3030  221.0200 O   0  0  0  0  0  0  0  0  0  0  0  0
  139.6050   71.8490  222.1560 C   0  0  0  0  0  0  0  0  0  0  0  0
  139.5690   73.2530  222.3270 N   0  0  0  0  0  0  0  0  0  0  0  0
  139.5150   74.1630  221.2160 C   0  0  0  0  0  0  0  0  0  0  0  0
  140.0880   75.4920  221.5440 C   0  0  0  0  0  0  0  0  0  0  0  0
  139.9470   75.9850  222.7130 O   0  0  0  0  0  0  0  0  0  0  0  0
  140.7920   76.2040  220.5420 N   0  0  0  0  0  0  0  0  0  0  0  0
  140.6680   76.0500  219.1060 C   0  0  0  0  0  0  0  0  0  0  0  0
  141.8920   76.6750  218.4930 C   0  0  0  0  0  0  0  0  0  0  0  0
  142.7820   76.9430  219.6620 C   0  0  2  0  0  0  0  0  0  0  0  0
  143.3950   75.7230  220.0230 O   0  0  0  0  0  0  0  0  0  0  0  0
  141.7970   77.2450  220.7550 C   0  0  1  0  0  0  0  0  0  0  0  0
  141.0750   78.5720  220.5370 C   0  0  0  0  0  0  0  0  0  0  0  0
  141.4510   79.4720  221.6580 C   0  0  0  0  0  0  0  0  0  0  0  0
  141.4390   80.8420  221.5730 C   0  0  0  0  0  0  0  0  0  0  0  0
  141.7930   81.6590  222.6230 C   0  0  0  0  0  0  0  0  0  0  0  0
  142.1730   81.0600  223.8060 C   0  0  0  0  0  0  0  0  0  0  0  0
  142.2040   79.6850  223.9510 C   0  0  0  0  0  0  0  0  0  0  0  0
  141.8370   78.9110  222.8610 C   0  0  0  0  0  0  0  0  0  0  0  0
  139.6600   70.9980  223.3600 C   0  0  0  0  0  0  0  0  0  0  0  0
  139.1980   69.6980  223.3340 C   0  0  0  0  0  0  0  0  0  0  0  0
  139.2500   68.8940  224.4750 C   0  0  0  0  0  0  0  0  0  0  0  0
  139.7830   69.4450  225.6390 C   0  0  0  0  0  0  0  0  0  0  0  0
  139.8590   68.6870  226.8040 C   0  0  0  0  0  0  0  0  0  0  0  0
  140.3970   69.2830  227.9310 C   0  0  0  0  0  0  0  0  0  0  0  0
  140.4920   68.5780  229.1000 F   0  0  0  0  0  0  0  0  0  0  0  0
  140.8520   70.5930  227.9220 C   0  0  0  0  0  0  0  0  0  0  0  0
  140.7790   71.3530  226.7640 C   0  0  0  0  0  0  0  0  0  0  0  0
  140.2420   70.7450  225.6530 C   0  0  0  0  0  0  0  0  0  0  0  0
  140.1710   71.4820  224.5290 N   0  0  0  0  0  0  0  0  0  0  0  0
  139.5820   73.6330  223.3200 H   0  0  0  0  0  0  0  0  0  0  0  0
  140.0818   73.7312  220.3780 H   0  0  0  0  0  0  0  0  0  0  0  0
  138.4567   74.3098  220.9542 H   0  0  0  0  0  0  0  0  0  0  0  0
  140.6157   74.9832  218.8429 H   0  0  0  0  0  0  0  0  0  0  0  0
  139.7515   76.5325  218.7356 H   0  0  0  0  0  0  0  0  0  0  0  0
  142.3725   75.9828  217.7858 H   0  0  0  0  0  0  0  0  0  0  0  0
  141.6615   77.5840  217.9180 H   0  0  0  0  0  0  0  0  0  0  0  0
  143.5373   77.7210  219.4767 H   0  0  0  0  0  0  0  0  0  0  0  0
  143.2840   75.5140  220.9760 H   0  0  0  0  0  0  0  0  0  0  0  0
  142.2857   77.2871  221.7396 H   0  0  0  0  0  0  0  0  0  0  0  0
  141.3843   79.0153  219.5790 H   0  0  0  0  0  0  0  0  0  0  0  0
  139.9857   78.4213  220.5086 H   0  0  0  0  0  0  0  0  0  0  0  0
  141.1331   81.3074  220.6244 H   0  0  0  0  0  0  0  0  0  0  0  0
  141.7734   82.7542  222.5218 H   0  0  0  0  0  0  0  0  0  0  0  0
  142.4595   81.6939  224.6581 H   0  0  0  0  0  0  0  0  0  0  0  0
  142.5098   79.2207  224.9002 H   0  0  0  0  0  0  0  0  0  0  0  0
  141.8535   77.8153  222.9564 H   0  0  0  0  0  0  0  0  0  0  0  0
  138.7827   69.2889  222.4012 H   0  0  0  0  0  0  0  0  0  0  0  0
  138.8816   67.8577  224.4555 H   0  0  0  0  0  0  0  0  0  0  0  0
  139.5025   67.6466  226.8280 H   0  0  0  0  0  0  0  0  0  0  0  0
  141.2732   71.0319  228.8385 H   0  0  0  0  0  0  0  0  0  0  0  0
  141.1341   72.3937  226.7354 H   0  0  0  0  0  0  0  0  0  0  0  0
  1  2  2  0
  2  3  1  0
  3  4  1  0
  4  5  1  0
  5  6  2  0
  5  7  1  0
  7  8  1  0
  8  9  1  0
  9 10  1  0
 10 11  1  0
 10 12  1  0
 12 13  1  0
 13 14  1  0
 14 15  2  0
 15 16  1  0
 16 17  2  0
 17 18  1  0
 18 19  2  0
  2 20  1  0
 20 21  2  0
 21 22  1  0
 22 23  2  0
 23 24  1  0
 24 25  2  0
 25 26  1  0
 25 27  1  0
 27 28  2  0
 28 29  1  0
 29 30  2  0
 12  7  1  0
 19 14  1  0
 30 20  1  0
 29 23  1  0
  3 31  1  0
  4 32  1  0
  4 33  1  0
  8 34  1  0
  8 35  1  0
  9 36  1  0
  9 37  1  0
 10 38  1  6
 11 39  1  0
 12 40  1  1
 13 41  1  0
 13 42  1  0
 15 43  1  0
 16 44  1  0
 17 45  1  0
 18 46  1  0
 19 47  1  0
 21 48  1  0
 22 49  1  0
 24 50  1  0
 27 51  1  0
 28 52  1  0
M  END
>  <meeko>  (13) 
{"free_energy": -8.84, "intermolecular_energy": -10.93, "internal_energy": -1.82, "cluster_size": 8, "cluster_id": 1, "rank_in_cluster": 3}

$$$$

     RDKit          3D

 52 55  0  0  0  0  0  0  0  0999 V2000
  142.4380   72.6760  221.2100 O   0  0  0  0  0  0  0  0  0  0  0  0
  141.1970   72.8680  221.3170 C   0  0  0  0  0  0  0  0  0  0  0  0
  140.2480   71.8280  221.1720 N   0  0  0  0  0  0  0  0  0  0  0  0
  140.6310   70.4710  220.8920 C   0  0  0  0  0  0  0  0  0  0  0  0
  139.6300   69.4890  221.3750 C   0  0  0  0  0  0  0  0  0  0  0  0
  139.4640   68.3810  220.7610 O   0  0  0  0  0  0  0  0  0  0  0  0
  138.8620   69.7970  222.5240 N   0  0  0  0  0  0  0  0  0  0  0  0
  137.5020   69.3820  222.8070 C   0  0  0  0  0  0  0  0  0  0  0  0
  136.9840   70.2910  223.8880 C   0  0  0  0  0  0  0  0  0  0  0  0
  138.0280   71.3550  223.9930 C   0  0  2  0  0  0  0  0  0  0  0  0
  137.8300   72.2570  222.9250 O   0  0  0  0  0  0  0  0  0  0  0  0
  139.2870   70.6030  223.6680 C   0  0  1  0  0  0  0  0  0  0  0  0
  139.6710   69.6090  224.7600 C   0  0  0  0  0  0  0  0  0  0  0  0
  140.1760   70.3930  225.9170 C   0  0  0  0  0  0  0  0  0  0  0  0
  140.9580   71.5150  225.7940 C   0  0  0  0  0  0  0  0  0  0  0  0
  141.4180   72.2280  226.8790 C   0  0  0  0  0  0  0  0  0  0  0  0
  141.0690   71.7830  228.1370 C   0  0  0  0  0  0  0  0  0  0  0  0
  140.2840   70.6600  228.3230 C   0  0  0  0  0  0  0  0  0  0  0  0
  139.8480   69.9810  227.1950 C   0  0  0  0  0  0  0  0  0  0  0  0
  140.7040   74.2290  221.6050 C   0  0  0  0  0  0  0  0  0  0  0  0
  141.5240   75.3290  221.4530 C   0  0  0  0  0  0  0  0  0  0  0  0
  141.0560   76.6170  221.7260 C   0  0  0  0  0  0  0  0  0  0  0  0
  139.7370   76.7550  222.1560 C   0  0  0  0  0  0  0  0  0  0  0  0
  139.2210   78.0150  222.4420 C   0  0  0  0  0  0  0  0  0  0  0  0
  137.9060   78.0970  222.8660 C   0  0  0  0  0  0  0  0  0  0  0  0
  137.3540   79.3140  223.1580 F   0  0  0  0  0  0  0  0  0  0  0  0
  137.1100   76.9700  223.0080 C   0  0  0  0  0  0  0  0  0  0  0  0
  137.6190   75.7110  222.7240 C   0  0  0  0  0  0  0  0  0  0  0  0
  138.9280   75.6490  222.3050 C   0  0  0  0  0  0  0  0  0  0  0  0
  139.4230   74.4280  222.0300 N   0  0  0  0  0  0  0  0  0  0  0  0
  139.2200   72.0750  221.2790 H   0  0  0  0  0  0  0  0  0  0  0  0
  140.7446   70.3535  219.8042 H   0  0  0  0  0  0  0  0  0  0  0  0
  141.5756   70.2738  221.4200 H   0  0  0  0  0  0  0  0  0  0  0  0
  136.8817   69.4769  221.9035 H   0  0  0  0  0  0  0  0  0  0  0  0
  137.4698   68.3303  223.1279 H   0  0  0  0  0  0  0  0  0  0  0  0
  136.0126   70.7223  223.6046 H   0  0  0  0  0  0  0  0  0  0  0  0
  136.8160   69.7658  224.8398 H   0  0  0  0  0  0  0  0  0  0  0  0
  138.0286   71.8852  224.9568 H   0  0  0  0  0  0  0  0  0  0  0  0
  138.3920   73.0590  223.0020 H   0  0  0  0  0  0  0  0  0  0  0  0
  140.1383   71.2843  223.5225 H   0  0  0  0  0  0  0  0  0  0  0  0
  138.7909   69.0211  225.0596 H   0  0  0  0  0  0  0  0  0  0  0  0
  140.4409   68.9120  224.3974 H   0  0  0  0  0  0  0  0  0  0  0  0
  141.2289   71.8594  224.7850 H   0  0  0  0  0  0  0  0  0  0  0  0
  142.0434   73.1232  226.7465 H   0  0  0  0  0  0  0  0  0  0  0  0
  141.4254   72.3374  229.0177 H   0  0  0  0  0  0  0  0  0  0  0  0
  140.0141   70.3164  229.3325 H   0  0  0  0  0  0  0  0  0  0  0  0
  139.2212   69.0860  227.3214 H   0  0  0  0  0  0  0  0  0  0  0  0
  142.5605   75.1896  221.1122 H   0  0  0  0  0  0  0  0  0  0  0  0
  141.7080   77.4947  221.6054 H   0  0  0  0  0  0  0  0  0  0  0  0
  139.8392   78.9184  222.3344 H   0  0  0  0  0  0  0  0  0  0  0  0
  136.0691   77.0751  223.3478 H   0  0  0  0  0  0  0  0  0  0  0  0
  137.0046   74.8046  222.8289 H   0  0  0  0  0  0  0  0  0  0  0  0
  1  2  2  0
  2  3  1  0
  3  4  1  0
  4  5  1  0
  5  6  2  0
  5  7  1  0
  7  8  1  0
  8  9  1  0
  9 10  1  0
 10 11  1  0
 10 12  1  0
 12 13  1  0
 13 14  1  0
 14 15  2  0
 15 16  1  0
 16 17  2  0
 17 18  1  0
 18 19  2  0
  2 20  1  0
 20 21  2  0
 21 22  1  0
 22 23  2  0
 23 24  1  0
 24 25  2  0
 25 26  1  0
 25 27  1  0
 27 28  2  0
 28 29  1  0
 29 30  2  0
 12  7  1  0
 19 14  1  0
 30 20  1  0
 29 23  1  0
  3 31  1  0
  4 32  1  0
  4 33  1  0
  8 34  1  0
  8 35  1  0
  9 36  1  0
  9 37  1  0
 10 38  1  1
 11 39  1  0
 12 40  1  6
 13 41  1  0
 13 42  1  0
 15 43  1  0
 16 44  1  0
 17 45  1  0
 18 46  1  0
 19 47  1  0
 21 48  1  0
 22 49  1  0
 24 50  1  0
 27 51  1  0
 28 52  1  0
M  END
>  <meeko>  (14) 
{"free_energy": -6.97, "intermolecular_energy": -9.06, "internal_energy": -3.5, "cluster_size": 2, "cluster_id": 4, "rank_in_cluster": 2}

$$$$

     RDKit          3D

 52 55  0  0  0  0  0  0  0  0999 V2000
  141.2790   72.6400  221.8470 O   0  0  0  0  0  0  0  0  0  0  0  0
  140.2150   72.5820  222.5200 C   0  0  0  0  0  0  0  0  0  0  0  0
  139.1040   73.4220  222.2650 N   0  0  0  0  0  0  0  0  0  0  0  0
  139.1070   74.4060  221.2170 C   0  0  0  0  0  0  0  0  0  0  0  0
  139.9490   75.5820  221.5470 C   0  0  0  0  0  0  0  0  0  0  0  0
  139.9510   76.0630  222.7300 O   0  0  0  0  0  0  0  0  0  0  0  0
  140.7490   76.1630  220.5330 N   0  0  0  0  0  0  0  0  0  0  0  0
  140.6720   75.9150  219.1070 C   0  0  0  0  0  0  0  0  0  0  0  0
  141.9660   76.3970  218.5090 C   0  0  0  0  0  0  0  0  0  0  0  0
  142.8260   76.6800  219.6970 C   0  0  2  0  0  0  0  0  0  0  0  0
  143.3240   75.4460  220.1700 O   0  0  0  0  0  0  0  0  0  0  0  0
  141.8240   77.1370  220.7190 C   0  0  1  0  0  0  0  0  0  0  0  0
  141.2200   78.4950  220.3760 C   0  0  0  0  0  0  0  0  0  0  0  0
  141.2540   79.3210  221.6110 C   0  0  0  0  0  0  0  0  0  0  0  0
  140.1820   79.4740  222.4560 C   0  0  0  0  0  0  0  0  0  0  0  0
  140.2330   80.2440  223.5960 C   0  0  0  0  0  0  0  0  0  0  0  0
  141.4200   80.8840  223.8890 C   0  0  0  0  0  0  0  0  0  0  0  0
  142.5320   80.7680  223.0760 C   0  0  0  0  0  0  0  0  0  0  0  0
  142.4240   79.9780  221.9410 C   0  0  0  0  0  0  0  0  0  0  0  0
  140.1140   71.6030  223.6190 C   0  0  0  0  0  0  0  0  0  0  0  0
  139.5140   70.3760  223.4250 C   0  0  0  0  0  0  0  0  0  0  0  0
  139.4190   69.4500  224.4670 C   0  0  0  0  0  0  0  0  0  0  0  0
  139.9480   69.8040  225.7060 C   0  0  0  0  0  0  0  0  0  0  0  0
  139.8790   68.9190  226.7780 C   0  0  0  0  0  0  0  0  0  0  0  0
  140.4200   69.3210  227.9870 C   0  0  0  0  0  0  0  0  0  0  0  0
  140.3770   68.4850  229.0690 F   0  0  0  0  0  0  0  0  0  0  0  0
  141.0150   70.5640  228.1470 C   0  0  0  0  0  0  0  0  0  0  0  0
  141.0860   71.4500  227.0830 C   0  0  0  0  0  0  0  0  0  0  0  0
  140.5440   71.0340  225.8890 C   0  0  0  0  0  0  0  0  0  0  0  0
  140.6130   71.8940  224.8560 N   0  0  0  0  0  0  0  0  0  0  0  0
  138.2440   73.3080  222.8790 H   0  0  0  0  0  0  0  0  0  0  0  0
  139.4935   73.9417  220.2977 H   0  0  0  0  0  0  0  0  0  0  0  0
  138.0736   74.7597  221.0865 H   0  0  0  0  0  0  0  0  0  0  0  0
  140.5448   74.8391  218.9165 H   0  0  0  0  0  0  0  0  0  0  0  0
  139.8133   76.4391  218.6620 H   0  0  0  0  0  0  0  0  0  0  0  0
  142.4177   75.6200  217.8748 H   0  0  0  0  0  0  0  0  0  0  0  0
  141.8332   77.2764  217.8617 H   0  0  0  0  0  0  0  0  0  0  0  0
  143.6486   77.3815  219.4939 H   0  0  0  0  0  0  0  0  0  0  0  0
  143.1290   75.3020  221.1220 H   0  0  0  0  0  0  0  0  0  0  0  0
  142.2740   77.2144  221.7198 H   0  0  0  0  0  0  0  0  0  0  0  0
  141.8093   78.9793  219.5834 H   0  0  0  0  0  0  0  0  0  0  0  0
  140.1878   78.3807  220.0134 H   0  0  0  0  0  0  0  0  0  0  0  0
  139.2416   78.9587  222.2111 H   0  0  0  0  0  0  0  0  0  0  0  0
  139.3560   80.3458  224.2521 H   0  0  0  0  0  0  0  0  0  0  0  0
  141.4831   81.5041  224.7953 H   0  0  0  0  0  0  0  0  0  0  0  0
  143.4714   81.2851  223.3211 H   0  0  0  0  0  0  0  0  0  0  0  0
  143.2983   79.8710  221.2821 H   0  0  0  0  0  0  0  0  0  0  0  0
  139.1046   70.1230  222.4359 H   0  0  0  0  0  0  0  0  0  0  0  0
  138.9410   68.4712  224.3136 H   0  0  0  0  0  0  0  0  0  0  0  0
  139.4090   67.9306  226.6678 H   0  0  0  0  0  0  0  0  0  0  0  0
  141.4330   70.8483  229.1240 H   0  0  0  0  0  0  0  0  0  0  0  0
  141.5541   72.4398  227.1886 H   0  0  0  0  0  0  0  0  0  0  0  0
  1  2  2  0
  2  3  1  0
  3  4  1  0
  4  5  1  0
  5  6  2  0
  5  7  1  0
  7  8  1  0
  8  9  1  0
  9 10  1  0
 10 11  1  0
 10 12  1  0
 12 13  1  0
 13 14  1  0
 14 15  2  0
 15 16  1  0
 16 17  2  0
 17 18  1  0
 18 19  2  0
  2 20  1  0
 20 21  2  0
 21 22  1  0
 22 23  2  0
 23 24  1  0
 24 25  2  0
 25 26  1  0
 25 27  1  0
 27 28  2  0
 28 29  1  0
 29 30  2  0
 12  7  1  0
 19 14  1  0
 30 20  1  0
 29 23  1  0
  3 31  1  0
  4 32  1  0
  4 33  1  0
  8 34  1  0
  8 35  1  0
  9 36  1  0
  9 37  1  0
 10 38  1  6
 11 39  1  0
 12 40  1  1
 13 41  1  0
 13 42  1  0
 15 43  1  0
 16 44  1  0
 17 45  1  0
 18 46  1  0
 19 47  1  0
 21 48  1  0
 22 49  1  0
 24 50  1  0
 27 51  1  0
 28 52  1  0
M  END
>  <meeko>  (15) 
{"free_energy": -8.85, "intermolecular_energy": -10.94, "internal_energy": -1.5, "cluster_size": 8, "cluster_id": 1, "rank_in_cluster": 2}

$$$$

     RDKit          3D

 52 55  0  0  0  0  0  0  0  0999 V2000
  142.4660   72.6110  221.1770 O   0  0  0  0  0  0  0  0  0  0  0  0
  141.2250   72.8050  221.2730 C   0  0  0  0  0  0  0  0  0  0  0  0
  140.2760   71.7660  221.1160 N   0  0  0  0  0  0  0  0  0  0  0  0
  140.6580   70.4100  220.8350 C   0  0  0  0  0  0  0  0  0  0  0  0
  139.6670   69.4270  221.3350 C   0  0  0  0  0  0  0  0  0  0  0  0
  139.5060   68.3110  220.7350 O   0  0  0  0  0  0  0  0  0  0  0  0
  138.9020   69.7430  222.4840 N   0  0  0  0  0  0  0  0  0  0  0  0
  137.5370   69.3440  222.7650 C   0  0  0  0  0  0  0  0  0  0  0  0
  137.0300   70.2580  223.8470 C   0  0  0  0  0  0  0  0  0  0  0  0
  138.0860   71.3100  223.9540 C   0  0  2  0  0  0  0  0  0  0  0  0
  137.8990   72.2150  222.8860 O   0  0  0  0  0  0  0  0  0  0  0  0
  139.3360   70.5430  223.6280 C   0  0  1  0  0  0  0  0  0  0  0  0
  139.7070   69.5440  224.7200 C   0  0  0  0  0  0  0  0  0  0  0  0
  140.1600   70.3240  225.9010 C   0  0  0  0  0  0  0  0  0  0  0  0
  139.8190   70.0170  227.1950 C   0  0  0  0  0  0  0  0  0  0  0  0
  140.2480   70.7530  228.2760 C   0  0  0  0  0  0  0  0  0  0  0  0
  141.0560   71.8450  228.0320 C   0  0  0  0  0  0  0  0  0  0  0  0
  141.4330   72.2030  226.7510 C   0  0  0  0  0  0  0  0  0  0  0  0
  140.9720   71.4250  225.7000 C   0  0  0  0  0  0  0  0  0  0  0  0
  140.7320   74.1660  221.5590 C   0  0  0  0  0  0  0  0  0  0  0  0
  141.5450   75.2670  221.3870 C   0  0  0  0  0  0  0  0  0  0  0  0
  141.0760   76.5550  221.6590 C   0  0  0  0  0  0  0  0  0  0  0  0
  139.7640   76.6920  222.1080 C   0  0  0  0  0  0  0  0  0  0  0  0
  139.2480   77.9520  222.3940 C   0  0  0  0  0  0  0  0  0  0  0  0
  137.9390   78.0320  222.8370 C   0  0  0  0  0  0  0  0  0  0  0  0
  137.3880   79.2490  223.1300 F   0  0  0  0  0  0  0  0  0  0  0  0
  137.1500   76.9030  222.9990 C   0  0  0  0  0  0  0  0  0  0  0  0
  137.6590   75.6450  222.7160 C   0  0  0  0  0  0  0  0  0  0  0  0
  138.9610   75.5840  222.2770 C   0  0  0  0  0  0  0  0  0  0  0  0
  139.4560   74.3630  222.0020 N   0  0  0  0  0  0  0  0  0  0  0  0
  139.2470   72.0150  221.2130 H   0  0  0  0  0  0  0  0  0  0  0  0
  140.7564   70.2894  219.7461 H   0  0  0  0  0  0  0  0  0  0  0  0
  141.6105   70.2169  221.3503 H   0  0  0  0  0  0  0  0  0  0  0  0
  136.9186   69.4478  221.8612 H   0  0  0  0  0  0  0  0  0  0  0  0
  137.4913   68.2922  223.0838 H   0  0  0  0  0  0  0  0  0  0  0  0
  136.0637   70.7010  223.5640 H   0  0  0  0  0  0  0  0  0  0  0  0
  136.8563   69.7334  224.7981 H   0  0  0  0  0  0  0  0  0  0  0  0
  138.0925   71.8394  224.9182 H   0  0  0  0  0  0  0  0  0  0  0  0
  138.2200   73.1180  223.0990 H   0  0  0  0  0  0  0  0  0  0  0  0
  140.1955   71.2139  223.4824 H   0  0  0  0  0  0  0  0  0  0  0  0
  138.8306   68.9347  224.9856 H   0  0  0  0  0  0  0  0  0  0  0  0
  140.5020   68.8673  224.3734 H   0  0  0  0  0  0  0  0  0  0  0  0
  139.1744   69.1442  227.3758 H   0  0  0  0  0  0  0  0  0  0  0  0
  139.9564   70.4798  229.3009 H   0  0  0  0  0  0  0  0  0  0  0  0
  141.4102   72.4478  228.8812 H   0  0  0  0  0  0  0  0  0  0  0  0
  142.0774   73.0762  226.5715 H   0  0  0  0  0  0  0  0  0  0  0  0
  141.2616   71.6923  224.6730 H   0  0  0  0  0  0  0  0  0  0  0  0
  142.5766   75.1293  221.0308 H   0  0  0  0  0  0  0  0  0  0  0  0
  141.7230   77.4341  221.5228 H   0  0  0  0  0  0  0  0  0  0  0  0
  139.8614   78.8569  222.2718 H   0  0  0  0  0  0  0  0  0  0  0  0
  136.1141   77.0064  223.3542 H   0  0  0  0  0  0  0  0  0  0  0  0
  137.0496   74.7373  222.8370 H   0  0  0  0  0  0  0  0  0  0  0  0
  1  2  2  0
  2  3  1  0
  3  4  1  0
  4  5  1  0
  5  6  2  0
  5  7  1  0
  7  8  1  0
  8  9  1  0
  9 10  1  0
 10 11  1  0
 10 12  1  0
 12 13  1  0
 13 14  1  0
 14 15  2  0
 15 16  1  0
 16 17  2  0
 17 18  1  0
 18 19  2  0
  2 20  1  0
 20 21  2  0
 21 22  1  0
 22 23  2  0
 23 24  1  0
 24 25  2  0
 25 26  1  0
 25 27  1  0
 27 28  2  0
 28 29  1  0
 29 30  2  0
 12  7  1  0
 19 14  1  0
 30 20  1  0
 29 23  1  0
  3 31  1  0
  4 32  1  0
  4 33  1  0
  8 34  1  0
  8 35  1  0
  9 36  1  0
  9 37  1  0
 10 38  1  1
 11 39  1  0
 12 40  1  6
 13 41  1  0
 13 42  1  0
 15 43  1  0
 16 44  1  0
 17 45  1  0
 18 46  1  0
 19 47  1  0
 21 48  1  0
 22 49  1  0
 24 50  1  0
 27 51  1  0
 28 52  1  0
M  END
>  <meeko>  (16) 
{"free_energy": -7.01, "intermolecular_energy": -9.1, "internal_energy": -3.5, "cluster_size": 2, "cluster_id": 4, "rank_in_cluster": 1}

$$$$

     RDKit          3D

 52 55  0  0  0  0  0  0  0  0999 V2000
  139.5240   71.3160  221.0350 O   0  0  0  0  0  0  0  0  0  0  0  0
  139.5650   71.8610  222.1710 C   0  0  0  0  0  0  0  0  0  0  0  0
  139.5400   73.2660  222.3450 N   0  0  0  0  0  0  0  0  0  0  0  0
  139.4670   74.1780  221.2360 C   0  0  0  0  0  0  0  0  0  0  0  0
  140.0350   75.5090  221.5590 C   0  0  0  0  0  0  0  0  0  0  0  0
  139.8740   76.0150  222.7200 O   0  0  0  0  0  0  0  0  0  0  0  0
  140.7560   76.2100  220.5610 N   0  0  0  0  0  0  0  0  0  0  0  0
  140.6220   76.0750  219.1240 C   0  0  0  0  0  0  0  0  0  0  0  0
  141.8610   76.6690  218.5130 C   0  0  0  0  0  0  0  0  0  0  0  0
  142.7640   76.8990  219.6810 C   0  0  2  0  0  0  0  0  0  0  0  0
  143.3420   75.6580  220.0270 O   0  0  0  0  0  0  0  0  0  0  0  0
  141.7910   77.2200  220.7800 C   0  0  1  0  0  0  0  0  0  0  0  0
  141.1080   78.5690  220.5780 C   0  0  0  0  0  0  0  0  0  0  0  0
  141.4730   79.4290  221.7340 C   0  0  0  0  0  0  0  0  0  0  0  0
  141.8550   78.9390  222.9580 C   0  0  0  0  0  0  0  0  0  0  0  0
  142.1880   79.7530  224.0180 C   0  0  0  0  0  0  0  0  0  0  0  0
  142.1320   81.1180  223.8250 C   0  0  0  0  0  0  0  0  0  0  0  0
  141.7550   81.6690  222.6140 C   0  0  0  0  0  0  0  0  0  0  0  0
  141.4300   80.8020  221.5810 C   0  0  0  0  0  0  0  0  0  0  0  0
  139.6420   71.0090  223.3730 C   0  0  0  0  0  0  0  0  0  0  0  0
  139.1810   69.7090  223.3530 C   0  0  0  0  0  0  0  0  0  0  0  0
  139.2550   68.9030  224.4920 C   0  0  0  0  0  0  0  0  0  0  0  0
  139.8070   69.4530  225.6470 C   0  0  0  0  0  0  0  0  0  0  0  0
  139.9040   68.6950  226.8100 C   0  0  0  0  0  0  0  0  0  0  0  0
  140.4600   69.2900  227.9290 C   0  0  0  0  0  0  0  0  0  0  0  0
  140.5770   68.5830  229.0940 F   0  0  0  0  0  0  0  0  0  0  0  0
  140.9130   70.6000  227.9130 C   0  0  0  0  0  0  0  0  0  0  0  0
  140.8190   71.3610  226.7580 C   0  0  0  0  0  0  0  0  0  0  0  0
  140.2630   70.7550  225.6550 C   0  0  0  0  0  0  0  0  0  0  0  0
  140.1720   71.4920  224.5340 N   0  0  0  0  0  0  0  0  0  0  0  0
  139.5780   73.6450  223.3370 H   0  0  0  0  0  0  0  0  0  0  0  0
  140.0264   73.7512  220.3905 H   0  0  0  0  0  0  0  0  0  0  0  0
  138.4047   74.3186  220.9874 H   0  0  0  0  0  0  0  0  0  0  0  0
  140.5367   75.0131  218.8500 H   0  0  0  0  0  0  0  0  0  0  0  0
  139.7190   76.5887  218.7624 H   0  0  0  0  0  0  0  0  0  0  0  0
  142.3178   75.9700  217.7970 H   0  0  0  0  0  0  0  0  0  0  0  0
  141.6553   77.5904  217.9484 H   0  0  0  0  0  0  0  0  0  0  0  0
  143.5421   77.6554  219.5011 H   0  0  0  0  0  0  0  0  0  0  0  0
  143.2750   75.4680  220.9880 H   0  0  0  0  0  0  0  0  0  0  0  0
  142.2836   77.2393  221.7633 H   0  0  0  0  0  0  0  0  0  0  0  0
  141.4556   79.0301  219.6417 H   0  0  0  0  0  0  0  0  0  0  0  0
  140.0167   78.4463  220.5142 H   0  0  0  0  0  0  0  0  0  0  0  0
  141.8970   77.8488  223.0984 H   0  0  0  0  0  0  0  0  0  0  0  0
  142.4889   79.3285  224.9872 H   0  0  0  0  0  0  0  0  0  0  0  0
  142.3946   81.7868  224.6579 H   0  0  0  0  0  0  0  0  0  0  0  0
  141.7142   82.7593  222.4743 H   0  0  0  0  0  0  0  0  0  0  0  0
  141.1285   81.2205  220.6094 H   0  0  0  0  0  0  0  0  0  0  0  0
  138.7490   69.3011  222.4273 H   0  0  0  0  0  0  0  0  0  0  0  0
  138.8886   67.8659  224.4772 H   0  0  0  0  0  0  0  0  0  0  0  0
  139.5494   67.6541  226.8390 H   0  0  0  0  0  0  0  0  0  0  0  0
  141.3498   71.0384  228.8224 H   0  0  0  0  0  0  0  0  0  0  0  0
  141.1729   72.4020  226.7249 H   0  0  0  0  0  0  0  0  0  0  0  0
  1  2  2  0
  2  3  1  0
  3  4  1  0
  4  5  1  0
  5  6  2  0
  5  7  1  0
  7  8  1  0
  8  9  1  0
  9 10  1  0
 10 11  1  0
 10 12  1  0
 12 13  1  0
 13 14  1  0
 14 15  2  0
 15 16  1  0
 16 17  2  0
 17 18  1  0
 18 19  2  0
  2 20  1  0
 20 21  2  0
 21 22  1  0
 22 23  2  0
 23 24  1  0
 24 25  2  0
 25 26  1  0
 25 27  1  0
 27 28  2  0
 28 29  1  0
 29 30  2  0
 12  7  1  0
 19 14  1  0
 30 20  1  0
 29 23  1  0
  3 31  1  0
  4 32  1  0
  4 33  1  0
  8 34  1  0
  8 35  1  0
  9 36  1  0
  9 37  1  0
 10 38  1  6
 11 39  1  0
 12 40  1  1
 13 41  1  0
 13 42  1  0
 15 43  1  0
 16 44  1  0
 17 45  1  0
 18 46  1  0
 19 47  1  0
 21 48  1  0
 22 49  1  0
 24 50  1  0
 27 51  1  0
 28 52  1  0
M  END
>  <meeko>  (17) 
{"free_energy": -8.84, "intermolecular_energy": -10.93, "internal_energy": -1.81, "cluster_size": 8, "cluster_id": 1, "rank_in_cluster": 4}

$$$$

     RDKit          3D

 52 55  0  0  0  0  0  0  0  0999 V2000
  136.7150   76.5420  222.6020 O   0  0  0  0  0  0  0  0  0  0  0  0
  136.4910   75.3990  223.0830 C   0  0  0  0  0  0  0  0  0  0  0  0
  137.2090   74.2470  222.6780 N   0  0  0  0  0  0  0  0  0  0  0  0
  138.2480   74.2970  221.6870 C   0  0  0  0  0  0  0  0  0  0  0  0
  139.4010   73.4310  222.0320 C   0  0  0  0  0  0  0  0  0  0  0  0
  140.5870   73.9060  222.0360 O   0  0  0  0  0  0  0  0  0  0  0  0
  139.1700   72.0710  222.3550 N   0  0  0  0  0  0  0  0  0  0  0  0
  139.0590   70.9580  221.4340 C   0  0  0  0  0  0  0  0  0  0  0  0
  138.3900   69.8370  222.1830 C   0  0  0  0  0  0  0  0  0  0  0  0
  137.9290   70.4770  223.4510 C   0  0  2  0  0  0  0  0  0  0  0  0
  136.7490   71.1970  223.1640 O   0  0  0  0  0  0  0  0  0  0  0  0
  138.9920   71.5110  223.6940 C   0  0  1  0  0  0  0  0  0  0  0  0
  140.3350   70.8890  224.0680 C   0  0  0  0  0  0  0  0  0  0  0  0
  140.4140   70.8640  225.5520 C   0  0  0  0  0  0  0  0  0  0  0  0
  139.8670   69.8720  226.3280 C   0  0  0  0  0  0  0  0  0  0  0  0
  139.9510   69.8670  227.7030 C   0  0  0  0  0  0  0  0  0  0  0  0
  140.6160   70.9100  228.3110 C   0  0  0  0  0  0  0  0  0  0  0  0
  141.1880   71.9370  227.5820 C   0  0  0  0  0  0  0  0  0  0  0  0
  141.0740   71.8910  226.2010 C   0  0  0  0  0  0  0  0  0  0  0  0
  135.4420   75.2450  224.1080 C   0  0  0  0  0  0  0  0  0  0  0  0
  134.7590   76.3400  224.5960 C   0  0  0  0  0  0  0  0  0  0  0  0
  133.7660   76.1930  225.5680 C   0  0  0  0  0  0  0  0  0  0  0  0
  133.4870   74.9070  226.0280 C   0  0  0  0  0  0  0  0  0  0  0  0
  132.5070   74.7040  226.9950 C   0  0  0  0  0  0  0  0  0  0  0  0
  132.2700   73.4080  227.4170 C   0  0  0  0  0  0  0  0  0  0  0  0
  131.3160   73.1590  228.3650 F   0  0  0  0  0  0  0  0  0  0  0  0
  132.9760   72.3290  226.9040 C   0  0  0  0  0  0  0  0  0  0  0  0
  133.9540   72.5260  225.9400 C   0  0  0  0  0  0  0  0  0  0  0  0
  134.1770   73.8200  225.5330 C   0  0  0  0  0  0  0  0  0  0  0  0
  135.1250   74.0110  224.5980 N   0  0  0  0  0  0  0  0  0  0  0  0
  136.9580   73.3210  223.1350 H   0  0  0  0  0  0  0  0  0  0  0  0
  137.8333   73.9657  220.7235 H   0  0  0  0  0  0  0  0  0  0  0  0
  138.6115   75.3339  221.6345 H   0  0  0  0  0  0  0  0  0  0  0  0
  138.4520   71.2465  220.5632 H   0  0  0  0  0  0  0  0  0  0  0  0
  140.0491   70.6505  221.0662 H   0  0  0  0  0  0  0  0  0  0  0  0
  137.5374   69.4394  221.6128 H   0  0  0  0  0  0  0  0  0  0  0  0
  139.0617   68.9838  222.3583 H   0  0  0  0  0  0  0  0  0  0  0  0
  137.7625   69.7662  224.2738 H   0  0  0  0  0  0  0  0  0  0  0  0
  136.5860   71.2810  222.1990 H   0  0  0  0  0  0  0  0  0  0  0  0
  138.7069   72.2019  224.5011 H   0  0  0  0  0  0  0  0  0  0  0  0
  140.3992   69.8653  223.6705 H   0  0  0  0  0  0  0  0  0  0  0  0
  141.1654   71.4727  223.6441 H   0  0  0  0  0  0  0  0  0  0  0  0
  139.3388   69.0455  225.8301 H   0  0  0  0  0  0  0  0  0  0  0  0
  139.5020   69.0569  228.2964 H   0  0  0  0  0  0  0  0  0  0  0  0
  140.6941   70.9262  229.4081 H   0  0  0  0  0  0  0  0  0  0  0  0
  141.7158   72.7628  228.0814 H   0  0  0  0  0  0  0  0  0  0  0  0
  141.5230   72.6974  225.6026 H   0  0  0  0  0  0  0  0  0  0  0  0
  134.9997   77.3432  224.2143 H   0  0  0  0  0  0  0  0  0  0  0  0
  133.2212   77.0653  225.9582 H   0  0  0  0  0  0  0  0  0  0  0  0
  131.9381   75.5485  227.4112 H   0  0  0  0  0  0  0  0  0  0  0  0
  132.7590   71.3123  227.2636 H   0  0  0  0  0  0  0  0  0  0  0  0
  134.5252   71.6848  225.5203 H   0  0  0  0  0  0  0  0  0  0  0  0
  1  2  2  0
  2  3  1  0
  3  4  1  0
  4  5  1  0
  5  6  2  0
  5  7  1  0
  7  8  1  0
  8  9  1  0
  9 10  1  0
 10 11  1  0
 10 12  1  0
 12 13  1  0
 13 14  1  0
 14 15  2  0
 15 16  1  0
 16 17  2  0
 17 18  1  0
 18 19  2  0
  2 20  1  0
 20 21  2  0
 21 22  1  0
 22 23  2  0
 23 24  1  0
 24 25  2  0
 25 26  1  0
 25 27  1  0
 27 28  2  0
 28 29  1  0
 29 30  2  0
 12  7  1  0
 19 14  1  0
 30 20  1  0
 29 23  1  0
  3 31  1  0
  4 32  1  0
  4 33  1  0
  8 34  1  0
  8 35  1  0
  9 36  1  0
  9 37  1  0
 10 38  1  1
 11 39  1  0
 12 40  1  1
 13 41  1  0
 13 42  1  0
 15 43  1  0
 16 44  1  0
 17 45  1  0
 18 46  1  0
 19 47  1  0
 21 48  1  0
 22 49  1  0
 24 50  1  0
 27 51  1  0
 28 52  1  0
M  END
>  <meeko>  (18) 
{"free_energy": -7.53, "intermolecular_energy": -9.62, "internal_energy": -2.58, "cluster_size": 7, "cluster_id": 3, "rank_in_cluster": 3}

$$$$

     RDKit          3D

 52 55  0  0  0  0  0  0  0  0999 V2000
  139.6690   73.9160  222.3370 O   0  0  0  0  0  0  0  0  0  0  0  0
  140.6690   74.2430  221.6430 C   0  0  0  0  0  0  0  0  0  0  0  0
  141.5190   73.2890  221.0330 N   0  0  0  0  0  0  0  0  0  0  0  0
  141.3030   71.8740  221.1590 C   0  0  0  0  0  0  0  0  0  0  0  0
  139.8720   71.5060  221.0370 C   0  0  0  0  0  0  0  0  0  0  0  0
  139.2520   71.6840  219.9350 O   0  0  0  0  0  0  0  0  0  0  0  0
  139.2030   70.9560  222.1580 N   0  0  0  0  0  0  0  0  0  0  0  0
  138.2390   69.8730  222.1590 C   0  0  0  0  0  0  0  0  0  0  0  0
  137.5030   69.9460  223.4700 C   0  0  0  0  0  0  0  0  0  0  0  0
  137.9390   71.2500  224.0550 C   0  0  2  0  0  0  0  0  0  0  0  0
  137.2110   72.2740  223.4100 O   0  0  0  0  0  0  0  0  0  0  0  0
  139.3500   71.3720  223.5520 C   0  0  1  0  0  0  0  0  0  0  0  0
  140.2870   70.3540  224.1950 C   0  0  0  0  0  0  0  0  0  0  0  0
  140.4630   70.7480  225.6170 C   0  0  0  0  0  0  0  0  0  0  0  0
  141.0870   71.9040  226.0170 C   0  0  0  0  0  0  0  0  0  0  0  0
  141.2410   72.2510  227.3410 C   0  0  0  0  0  0  0  0  0  0  0  0
  140.7400   71.3900  228.2950 C   0  0  0  0  0  0  0  0  0  0  0  0
  140.1010   70.2120  227.9530 C   0  0  0  0  0  0  0  0  0  0  0  0
  139.9740   69.9130  226.6050 C   0  0  0  0  0  0  0  0  0  0  0  0
  140.9750   75.6740  221.4550 C   0  0  0  0  0  0  0  0  0  0  0  0
  141.4170   76.1520  220.2390 C   0  0  0  0  0  0  0  0  0  0  0  0
  141.7070   77.5080  220.0620 C   0  0  0  0  0  0  0  0  0  0  0  0
  141.5350   78.3600  221.1510 C   0  0  0  0  0  0  0  0  0  0  0  0
  141.8090   79.7190  221.0300 C   0  0  0  0  0  0  0  0  0  0  0  0
  141.6220   80.5210  222.1420 C   0  0  0  0  0  0  0  0  0  0  0  0
  141.8770   81.8630  222.0700 F   0  0  0  0  0  0  0  0  0  0  0  0
  141.1760   80.0060  223.3500 C   0  0  0  0  0  0  0  0  0  0  0  0
  140.9010   78.6520  223.4770 C   0  0  0  0  0  0  0  0  0  0  0  0
  141.0930   77.8700  222.3620 C   0  0  0  0  0  0  0  0  0  0  0  0
  140.8270   76.5570  222.4850 N   0  0  0  0  0  0  0  0  0  0  0  0
  142.3420   73.6480  220.4640 H   0  0  0  0  0  0  0  0  0  0  0  0
  141.8685   71.3589  220.3685 H   0  0  0  0  0  0  0  0  0  0  0  0
  141.6421   71.5716  222.1608 H   0  0  0  0  0  0  0  0  0  0  0  0
  137.5348   69.9923  221.3224 H   0  0  0  0  0  0  0  0  0  0  0  0
  138.7387   68.9002  222.0409 H   0  0  0  0  0  0  0  0  0  0  0  0
  136.4149   69.9335  223.3091 H   0  0  0  0  0  0  0  0  0  0  0  0
  137.7221   69.0918  224.1275 H   0  0  0  0  0  0  0  0  0  0  0  0
  137.8176   71.3113  225.1465 H   0  0  0  0  0  0  0  0  0  0  0  0
  137.7850   73.0140  223.1140 H   0  0  0  0  0  0  0  0  0  0  0  0
  139.7624   72.3737  223.7433 H   0  0  0  0  0  0  0  0  0  0  0  0
  139.8468   69.3477  224.1354 H   0  0  0  0  0  0  0  0  0  0  0  0
  141.2559   70.3350  223.6745 H   0  0  0  0  0  0  0  0  0  0  0  0
  141.4812   72.5826  225.2462 H   0  0  0  0  0  0  0  0  0  0  0  0
  141.7471   73.1845  227.6282 H   0  0  0  0  0  0  0  0  0  0  0  0
  140.8519   71.6477  229.3585 H   0  0  0  0  0  0  0  0  0  0  0  0
  139.7066   69.5347  228.7249 H   0  0  0  0  0  0  0  0  0  0  0  0
  139.4678   68.9814  226.3120 H   0  0  0  0  0  0  0  0  0  0  0  0
  141.5431   75.4562  219.3964 H   0  0  0  0  0  0  0  0  0  0  0  0
  142.0601   77.8906  219.0930 H   0  0  0  0  0  0  0  0  0  0  0  0
  142.1636   80.1429  220.0789 H   0  0  0  0  0  0  0  0  0  0  0  0
  141.0395   80.6749  224.2125 H   0  0  0  0  0  0  0  0  0  0  0  0
  140.5457   78.2237  224.4259 H   0  0  0  0  0  0  0  0  0  0  0  0
  1  2  2  0
  2  3  1  0
  3  4  1  0
  4  5  1  0
  5  6  2  0
  5  7  1  0
  7  8  1  0
  8  9  1  0
  9 10  1  0
 10 11  1  0
 10 12  1  0
 12 13  1  0
 13 14  1  0
 14 15  2  0
 15 16  1  0
 16 17  2  0
 17 18  1  0
 18 19  2  0
  2 20  1  0
 20 21  2  0
 21 22  1  0
 22 23  2  0
 23 24  1  0
 24 25  2  0
 25 26  1  0
 25 27  1  0
 27 28  2  0
 28 29  1  0
 29 30  2  0
 12  7  1  0
 19 14  1  0
 30 20  1  0
 29 23  1  0
  3 31  1  0
  4 32  1  0
  4 33  1  0
  8 34  1  0
  8 35  1  0
  9 36  1  0
  9 37  1  0
 10 38  1  1
 11 39  1  0
 12 40  1  6
 13 41  1  0
 13 42  1  0
 15 43  1  0
 16 44  1  0
 17 45  1  0
 18 46  1  0
 19 47  1  0
 21 48  1  0
 22 49  1  0
 24 50  1  0
 27 51  1  0
 28 52  1  0
M  END
>  <meeko>  (19) 
{"free_energy": -8.36, "intermolecular_energy": -10.44, "internal_energy": -2.09, "cluster_size": 3, "cluster_id": 2, "rank_in_cluster": 3}

$$$$

     RDKit          3D

 52 55  0  0  0  0  0  0  0  0999 V2000
  138.1780   75.3090  220.1920 O   0  0  0  0  0  0  0  0  0  0  0  0
  137.9800   74.9000  221.3670 C   0  0  0  0  0  0  0  0  0  0  0  0
  138.9500   74.1690  222.0940 N   0  0  0  0  0  0  0  0  0  0  0  0
  140.2360   73.8380  221.5450 C   0  0  0  0  0  0  0  0  0  0  0  0
  140.5440   72.3910  221.6540 C   0  0  0  0  0  0  0  0  0  0  0  0
  141.6390   71.9270  221.1880 O   0  0  0  0  0  0  0  0  0  0  0  0
  139.6070   71.5330  222.2810 N   0  0  0  0  0  0  0  0  0  0  0  0
  138.8120   70.4960  221.6540 C   0  0  0  0  0  0  0  0  0  0  0  0
  137.6860   70.1780  222.5990 C   0  0  0  0  0  0  0  0  0  0  0  0
  137.7710   71.2520  223.6340 C   0  0  2  0  0  0  0  0  0  0  0  0
  137.1900   72.4190  223.0890 O   0  0  0  0  0  0  0  0  0  0  0  0
  139.2480   71.5210  223.6980 C   0  0  1  0  0  0  0  0  0  0  0  0
  140.0240   70.3610  224.3160 C   0  0  0  0  0  0  0  0  0  0  0  0
  140.3430   70.7370  225.7170 C   0  0  0  0  0  0  0  0  0  0  0  0
  139.9440   70.0110  226.8120 C   0  0  0  0  0  0  0  0  0  0  0  0
  140.2490   70.3770  228.1040 C   0  0  0  0  0  0  0  0  0  0  0  0
  140.9900   71.5250  228.2900 C   0  0  0  0  0  0  0  0  0  0  0  0
  141.4210   72.2970  227.2270 C   0  0  0  0  0  0  0  0  0  0  0  0
  141.0850   71.8810  225.9470 C   0  0  0  0  0  0  0  0  0  0  0  0
  136.6890   75.1890  222.0190 C   0  0  0  0  0  0  0  0  0  0  0  0
  135.5800   75.5390  221.2750 C   0  0  0  0  0  0  0  0  0  0  0  0
  134.3570   75.8130  221.8940 C   0  0  0  0  0  0  0  0  0  0  0  0
  134.2930   75.7220  223.2830 C   0  0  0  0  0  0  0  0  0  0  0  0
  133.1000   75.9850  223.9500 C   0  0  0  0  0  0  0  0  0  0  0  0
  133.0910   75.8800  225.3300 C   0  0  0  0  0  0  0  0  0  0  0  0
  131.9410   76.1280  226.0280 F   0  0  0  0  0  0  0  0  0  0  0  0
  134.2250   75.5260  226.0460 C   0  0  0  0  0  0  0  0  0  0  0  0
  135.4170   75.2630  225.3870 C   0  0  0  0  0  0  0  0  0  0  0  0
  135.4080   75.3720  224.0150 C   0  0  0  0  0  0  0  0  0  0  0  0
  136.5640   75.1170  223.3760 N   0  0  0  0  0  0  0  0  0  0  0  0
  138.7030   73.8610  223.0810 H   0  0  0  0  0  0  0  0  0  0  0  0
  140.2501   74.1227  220.4826 H   0  0  0  0  0  0  0  0  0  0  0  0
  140.9965   74.3862  222.1203 H   0  0  0  0  0  0  0  0  0  0  0  0
  138.4109   70.8548  220.6946 H   0  0  0  0  0  0  0  0  0  0  0  0
  139.4201   69.6022  221.4508 H   0  0  0  0  0  0  0  0  0  0  0  0
  136.7173   70.2116  222.0789 H   0  0  0  0  0  0  0  0  0  0  0  0
  137.7649   69.1682  223.0282 H   0  0  0  0  0  0  0  0  0  0  0  0
  137.2957   70.9879  224.5903 H   0  0  0  0  0  0  0  0  0  0  0  0
  137.0760   73.1290  223.7570 H   0  0  0  0  0  0  0  0  0  0  0  0
  139.4700   72.4234  224.2865 H   0  0  0  0  0  0  0  0  0  0  0  0
  139.4103   69.4482  224.3020 H   0  0  0  0  0  0  0  0  0  0  0  0
  140.9447   70.1628  223.7476 H   0  0  0  0  0  0  0  0  0  0  0  0
  139.3546   69.0965  226.6500 H   0  0  0  0  0  0  0  0  0  0  0  0
  139.9125   69.7733  228.9598 H   0  0  0  0  0  0  0  0  0  0  0  0
  141.2456   71.8356  229.3138 H   0  0  0  0  0  0  0  0  0  0  0  0
  142.0109   73.2109  227.3909 H   0  0  0  0  0  0  0  0  0  0  0  0
  141.4195   72.4804  225.0874 H   0  0  0  0  0  0  0  0  0  0  0  0
  135.6599   75.6032  220.1798 H   0  0  0  0  0  0  0  0  0  0  0  0
  133.4723   76.0919  221.3028 H   0  0  0  0  0  0  0  0  0  0  0  0
  132.1920   76.2677  223.3972 H   0  0  0  0  0  0  0  0  0  0  0  0
  134.1788   75.4534  227.1426 H   0  0  0  0  0  0  0  0  0  0  0  0
  136.3275   74.9803  225.9357 H   0  0  0  0  0  0  0  0  0  0  0  0
  1  2  2  0
  2  3  1  0
  3  4  1  0
  4  5  1  0
  5  6  2  0
  5  7  1  0
  7  8  1  0
  8  9  1  0
  9 10  1  0
 10 11  1  0
 10 12  1  0
 12 13  1  0
 13 14  1  0
 14 15  2  0
 15 16  1  0
 16 17  2  0
 17 18  1  0
 18 19  2  0
  2 20  1  0
 20 21  2  0
 21 22  1  0
 22 23  2  0
 23 24  1  0
 24 25  2  0
 25 26  1  0
 25 27  1  0
 27 28  2  0
 28 29  1  0
 29 30  2  0
 12  7  1  0
 19 14  1  0
 30 20  1  0
 29 23  1  0
  3 31  1  0
  4 32  1  0
  4 33  1  0
  8 34  1  0
  8 35  1  0
  9 36  1  0
  9 37  1  0
 10 38  1  1
 11 39  1  0
 12 40  1  1
 13 41  1  0
 13 42  1  0
 15 43  1  0
 16 44  1  0
 17 45  1  0
 18 46  1  0
 19 47  1  0
 21 48  1  0
 22 49  1  0
 24 50  1  0
 27 51  1  0
 28 52  1  0
M  END
>  <meeko>  (20) 
{"free_energy": -6.61, "intermolecular_energy": -8.69, "internal_energy": -3.31, "cluster_size": 7, "cluster_id": 3, "rank_in_cluster": 7}

$$$$
