
     RDKit          3D

 51 54  0  0  0  0  0  0  0  0999 V2000
  140.2080   72.3400  220.8000 O   0  0  0  0  0  0  0  0  0  0  0  0
  140.0250   72.7240  221.9850 C   0  0  0  0  0  0  0  0  0  0  0  0
  139.7470   74.1250  222.1470 N   0  0  0  0  0  0  0  0  0  0  0  0
  139.7120   74.9130  220.9360 C   0  0  0  0  0  0  0  0  0  0  0  0
  140.8640   75.8800  220.8960 C   0  0  0  0  0  0  0  0  0  0  0  0
  141.1930   76.4000  221.9940 O   0  0  0  0  0  0  0  0  0  0  0  0
  141.5210   76.1650  219.6680 N   0  0  0  0  0  0  0  0  0  0  0  0
  141.5900   77.5390  219.2130 C   0  0  0  0  0  0  0  0  0  0  0  0
  142.4970   77.7290  218.0430 C   0  0  0  0  0  0  0  0  0  0  0  0
  142.1160   76.6830  217.0180 C   0  0  0  0  0  0  0  0  0  0  0  0
  142.5210   75.3520  217.5530 C   0  0  0  0  0  0  0  0  0  0  0  0
  142.0850   75.0500  218.9450 C   0  0  1  0  0  0  0  0  0  0  0  0
  143.1350   74.3350  219.7240 C   0  0  0  0  0  0  0  0  0  0  0  0
  144.3040   74.9650  220.1050 C   0  0  0  0  0  0  0  0  0  0  0  0
  145.2730   74.2980  220.8260 C   0  0  0  0  0  0  0  0  0  0  0  0
  145.0890   72.9600  221.1890 C   0  0  0  0  0  0  0  0  0  0  0  0
  143.9120   72.3360  220.8030 C   0  0  0  0  0  0  0  0  0  0  0  0
  142.9470   73.0150  220.0790 C   0  0  0  0  0  0  0  0  0  0  0  0
  140.0860   71.8300  223.1340 C   0  0  0  0  0  0  0  0  0  0  0  0
  139.6280   70.5410  222.9470 C   0  0  0  0  0  0  0  0  0  0  0  0
  139.6280   69.5940  223.9460 C   0  0  0  0  0  0  0  0  0  0  0  0
  140.1200   70.0030  225.1800 C   0  0  0  0  0  0  0  0  0  0  0  0
  140.1390   69.0960  226.2030 C   0  0  0  0  0  0  0  0  0  0  0  0
  140.6150   69.4400  227.4540 C   0  0  0  0  0  0  0  0  0  0  0  0
  140.6060   68.2260  228.7040 Cl  0  0  0  0  0  0  0  0  0  0  0  0
  141.0740   70.7290  227.6480 C   0  0  0  0  0  0  0  0  0  0  0  0
  141.0490   71.6460  226.5920 C   0  0  0  0  0  0  0  0  0  0  0  0
  140.5740   71.2960  225.3520 C   0  0  0  0  0  0  0  0  0  0  0  0
  140.5580   72.2050  224.3370 N   0  0  0  0  0  0  0  0  0  0  0  0
  139.5820   74.5270  223.1070 H   0  0  0  0  0  0  0  0  0  0  0  0
  139.7739   74.2418  220.0667 H   0  0  0  0  0  0  0  0  0  0  0  0
  138.7715   75.4830  220.9125 H   0  0  0  0  0  0  0  0  0  0  0  0
  140.5785   77.8632  218.9268 H   0  0  0  0  0  0  0  0  0  0  0  0
  141.9980   78.1363  220.0417 H   0  0  0  0  0  0  0  0  0  0  0  0
  142.3656   78.7367  217.6221 H   0  0  0  0  0  0  0  0  0  0  0  0
  143.5508   77.6239  218.3402 H   0  0  0  0  0  0  0  0  0  0  0  0
  141.0293   76.7033  216.8488 H   0  0  0  0  0  0  0  0  0  0  0  0
  142.6199   76.8818  216.0606 H   0  0  0  0  0  0  0  0  0  0  0  0
  142.0982   74.5805  216.8926 H   0  0  0  0  0  0  0  0  0  0  0  0
  143.6205   75.3649  217.5817 H   0  0  0  0  0  0  0  0  0  0  0  0
  141.2384   74.3588  218.8206 H   0  0  0  0  0  0  0  0  0  0  0  0
  144.4652   76.0174  219.8285 H   0  0  0  0  0  0  0  0  0  0  0  0
  146.1956   74.8216  221.1170 H   0  0  0  0  0  0  0  0  0  0  0  0
  145.8550   72.4186  221.7636 H   0  0  0  0  0  0  0  0  0  0  0  0
  143.7425   71.2842  221.0767 H   0  0  0  0  0  0  0  0  0  0  0  0
  142.0222   72.4976  219.7841 H   0  0  0  0  0  0  0  0  0  0  0  0
  139.2459   70.2581  221.9551 H   0  0  0  0  0  0  0  0  0  0  0  0
  139.2595   68.5714  223.7773 H   0  0  0  0  0  0  0  0  0  0  0  0
  139.7691   68.0751  226.0273 H   0  0  0  0  0  0  0  0  0  0  0  0
  141.4588   71.0337  228.6324 H   0  0  0  0  0  0  0  0  0  0  0  0
  141.4176   72.6690  226.7584 H   0  0  0  0  0  0  0  0  0  0  0  0
  1  2  2  0
  2  3  1  0
  3  4  1  0
  4  5  1  0
  5  6  2  0
  5  7  1  0
  7  8  1  0
  8  9  1  0
  9 10  1  0
 10 11  1  0
 11 12  1  0
 12 13  1  0
 13 14  2  0
 14 15  1  0
 15 16  2  0
 16 17  1  0
 17 18  2  0
  2 19  1  0
 19 20  2  0
 20 21  1  0
 21 22  2  0
 22 23  1  0
 23 24  2  0
 24 25  1  0
 24 26  1  0
 26 27  2  0
 27 28  1  0
 28 29  2  0
 12  7  1  0
 18 13  1  0
 29 19  1  0
 28 22  1  0
  3 30  1  0
  4 31  1  0
  4 32  1  0
  8 33  1  0
  8 34  1  0
  9 35  1  0
  9 36  1  0
 10 37  1  0
 10 38  1  0
 11 39  1  0
 11 40  1  0
 12 41  1  6
 14 42  1  0
 15 43  1  0
 16 44  1  0
 17 45  1  0
 18 46  1  0
 20 47  1  0
 21 48  1  0
 23 49  1  0
 26 50  1  0
 27 51  1  0
M  END
>  <meeko>  (1) 
{"free_energy": -8.18, "intermolecular_energy": -9.67, "internal_energy": -2.07, "cluster_size": 13, "cluster_id": 2, "rank_in_cluster": 13}

$$$$

     RDKit          3D

 51 54  0  0  0  0  0  0  0  0999 V2000
  140.4830   71.9070  220.9400 O   0  0  0  0  0  0  0  0  0  0  0  0
  140.2060   72.3390  222.0890 C   0  0  0  0  0  0  0  0  0  0  0  0
  139.8900   73.7400  222.1650 N   0  0  0  0  0  0  0  0  0  0  0  0
  139.9320   74.4720  220.9200 C   0  0  0  0  0  0  0  0  0  0  0  0
  140.8660   75.6460  221.0230 C   0  0  0  0  0  0  0  0  0  0  0  0
  140.9760   76.1730  222.1610 O   0  0  0  0  0  0  0  0  0  0  0  0
  141.5710   76.1080  219.8780 N   0  0  0  0  0  0  0  0  0  0  0  0
  141.6180   77.5320  219.6120 C   0  0  0  0  0  0  0  0  0  0  0  0
  142.5720   77.8970  218.5240 C   0  0  0  0  0  0  0  0  0  0  0  0
  142.2720   76.9880  217.3520 C   0  0  0  0  0  0  0  0  0  0  0  0
  142.6930   75.6080  217.7270 C   0  0  0  0  0  0  0  0  0  0  0  0
  142.2020   75.1130  219.0440 C   0  0  1  0  0  0  0  0  0  0  0  0
  143.2360   74.3270  219.7740 C   0  0  0  0  0  0  0  0  0  0  0  0
  143.0310   73.0020  220.1080 C   0  0  0  0  0  0  0  0  0  0  0  0
  143.9920   72.2790  220.7840 C   0  0  0  0  0  0  0  0  0  0  0  0
  145.2030   72.8770  221.1470 C   0  0  0  0  0  0  0  0  0  0  0  0
  145.3990   74.2080  220.8080 C   0  0  0  0  0  0  0  0  0  0  0  0
  144.4290   74.9240  220.1300 C   0  0  0  0  0  0  0  0  0  0  0  0
  140.1960   71.4990  223.2800 C   0  0  0  0  0  0  0  0  0  0  0  0
  139.6470   70.2390  223.1500 C   0  0  0  0  0  0  0  0  0  0  0  0
  139.5740   69.3430  224.1930 C   0  0  0  0  0  0  0  0  0  0  0  0
  140.0880   69.7740  225.4110 C   0  0  0  0  0  0  0  0  0  0  0  0
  140.0370   68.9190  226.4750 C   0  0  0  0  0  0  0  0  0  0  0  0
  140.5310   69.2870  227.7130 C   0  0  0  0  0  0  0  0  0  0  0  0
  140.4270   68.1380  229.0190 Cl  0  0  0  0  0  0  0  0  0  0  0  0
  141.0800   70.5480  227.8490 C   0  0  0  0  0  0  0  0  0  0  0  0
  141.1260   71.4130  226.7510 C   0  0  0  0  0  0  0  0  0  0  0  0
  140.6330   71.0390  225.5250 C   0  0  0  0  0  0  0  0  0  0  0  0
  140.6880   71.8970  224.4680 N   0  0  0  0  0  0  0  0  0  0  0  0
  139.6470   74.1810  223.0900 H   0  0  0  0  0  0  0  0  0  0  0  0
  140.2806   73.8028  220.1196 H   0  0  0  0  0  0  0  0  0  0  0  0
  138.9215   74.8436  220.6948 H   0  0  0  0  0  0  0  0  0  0  0  0
  140.6114   77.8664  219.3207 H   0  0  0  0  0  0  0  0  0  0  0  0
  141.9678   78.0243  220.5314 H   0  0  0  0  0  0  0  0  0  0  0  0
  142.4297   78.9483  218.2333 H   0  0  0  0  0  0  0  0  0  0  0  0
  143.6134   77.7781  218.8576 H   0  0  0  0  0  0  0  0  0  0  0  0
  141.1943   77.0039  217.1323 H   0  0  0  0  0  0  0  0  0  0  0  0
  142.8134   77.3249  216.4557 H   0  0  0  0  0  0  0  0  0  0  0  0
  142.3257   74.9209  216.9505 H   0  0  0  0  0  0  0  0  0  0  0  0
  143.7891   75.6441  217.8124 H   0  0  0  0  0  0  0  0  0  0  0  0
  141.3839   74.4239  218.7874 H   0  0  0  0  0  0  0  0  0  0  0  0
  142.0847   72.5150  219.8299 H   0  0  0  0  0  0  0  0  0  0  0  0
  143.8046   71.2255  221.0391 H   0  0  0  0  0  0  0  0  0  0  0  0
  145.9766   72.3093  221.6849 H   0  0  0  0  0  0  0  0  0  0  0  0
  146.3423   74.7025  221.0832 H   0  0  0  0  0  0  0  0  0  0  0  0
  144.6096   75.9780  219.8722 H   0  0  0  0  0  0  0  0  0  0  0  0
  139.2502   69.9374  222.1694 H   0  0  0  0  0  0  0  0  0  0  0  0
  139.1338   68.3425  224.0696 H   0  0  0  0  0  0  0  0  0  0  0  0
  139.5952   67.9201  226.3448 H   0  0  0  0  0  0  0  0  0  0  0  0
  141.4808   70.8714  228.8210 H   0  0  0  0  0  0  0  0  0  0  0  0
  141.5663   72.4138  226.8719 H   0  0  0  0  0  0  0  0  0  0  0  0
  1  2  2  0
  2  3  1  0
  3  4  1  0
  4  5  1  0
  5  6  2  0
  5  7  1  0
  7  8  1  0
  8  9  1  0
  9 10  1  0
 10 11  1  0
 11 12  1  0
 12 13  1  0
 13 14  2  0
 14 15  1  0
 15 16  2  0
 16 17  1  0
 17 18  2  0
  2 19  1  0
 19 20  2  0
 20 21  1  0
 21 22  2  0
 22 23  1  0
 23 24  2  0
 24 25  1  0
 24 26  1  0
 26 27  2  0
 27 28  1  0
 28 29  2  0
 12  7  1  0
 18 13  1  0
 29 19  1  0
 28 22  1  0
  3 30  1  0
  4 31  1  0
  4 32  1  0
  8 33  1  0
  8 34  1  0
  9 35  1  0
  9 36  1  0
 10 37  1  0
 10 38  1  0
 11 39  1  0
 11 40  1  0
 12 41  1  6
 14 42  1  0
 15 43  1  0
 16 44  1  0
 17 45  1  0
 18 46  1  0
 20 47  1  0
 21 48  1  0
 23 49  1  0
 26 50  1  0
 27 51  1  0
M  END
>  <meeko>  (2) 
{"free_energy": -8.39, "intermolecular_energy": -9.88, "internal_energy": -2.04, "cluster_size": 13, "cluster_id": 2, "rank_in_cluster": 4}

$$$$

     RDKit          3D

 51 54  0  0  0  0  0  0  0  0999 V2000
  140.3810   72.2200  220.8370 O   0  0  0  0  0  0  0  0  0  0  0  0
  140.1290   72.6080  222.0070 C   0  0  0  0  0  0  0  0  0  0  0  0
  139.8180   74.0060  222.1440 N   0  0  0  0  0  0  0  0  0  0  0  0
  139.8350   74.7850  220.9270 C   0  0  0  0  0  0  0  0  0  0  0  0
  140.9250   75.8210  220.9740 C   0  0  0  0  0  0  0  0  0  0  0  0
  141.1750   76.3160  222.1040 O   0  0  0  0  0  0  0  0  0  0  0  0
  141.6130   76.1960  219.7870 N   0  0  0  0  0  0  0  0  0  0  0  0
  141.6760   77.5980  219.4270 C   0  0  0  0  0  0  0  0  0  0  0  0
  142.6130   77.8760  218.2990 C   0  0  0  0  0  0  0  0  0  0  0  0
  142.2770   76.8960  217.1960 C   0  0  0  0  0  0  0  0  0  0  0  0
  142.6850   75.5370  217.6530 C   0  0  0  0  0  0  0  0  0  0  0  0
  142.2130   75.1380  219.0100 C   0  0  1  0  0  0  0  0  0  0  0  0
  143.2500   74.3860  219.7700 C   0  0  0  0  0  0  0  0  0  0  0  0
  143.0650   73.0630  220.1250 C   0  0  0  0  0  0  0  0  0  0  0  0
  144.0280   72.3710  220.8290 C   0  0  0  0  0  0  0  0  0  0  0  0
  145.2220   72.9980  221.2000 C   0  0  0  0  0  0  0  0  0  0  0  0
  145.3980   74.3260  220.8390 C   0  0  0  0  0  0  0  0  0  0  0  0
  144.4250   75.0110  220.1330 C   0  0  0  0  0  0  0  0  0  0  0  0
  140.1420   71.7230  223.1650 C   0  0  0  0  0  0  0  0  0  0  0  0
  139.6210   70.4570  222.9880 C   0  0  0  0  0  0  0  0  0  0  0  0
  139.5710   69.5200  223.9960 C   0  0  0  0  0  0  0  0  0  0  0  0
  140.0800   69.9150  225.2280 C   0  0  0  0  0  0  0  0  0  0  0  0
  140.0520   69.0180  226.2590 C   0  0  0  0  0  0  0  0  0  0  0  0
  140.5420   69.3500  227.5080 C   0  0  0  0  0  0  0  0  0  0  0  0
  140.4690   68.1490  228.7690 Cl  0  0  0  0  0  0  0  0  0  0  0  0
  141.0640   70.6160  227.6910 C   0  0  0  0  0  0  0  0  0  0  0  0
  141.0870   71.5230  226.6270 C   0  0  0  0  0  0  0  0  0  0  0  0
  140.5980   71.1860  225.3890 C   0  0  0  0  0  0  0  0  0  0  0  0
  140.6300   72.0850  224.3660 N   0  0  0  0  0  0  0  0  0  0  0  0
  139.5950   74.4110  223.0910 H   0  0  0  0  0  0  0  0  0  0  0  0
  140.0099   74.1154  220.0720 H   0  0  0  0  0  0  0  0  0  0  0  0
  138.8664   75.2953  220.8202 H   0  0  0  0  0  0  0  0  0  0  0  0
  140.6687   77.9289  219.1339 H   0  0  0  0  0  0  0  0  0  0  0  0
  142.0521   78.1434  220.3051 H   0  0  0  0  0  0  0  0  0  0  0  0
  142.4793   78.9078  217.9418 H   0  0  0  0  0  0  0  0  0  0  0  0
  143.6592   77.7639  218.6198 H   0  0  0  0  0  0  0  0  0  0  0  0
  141.1955   76.9144  216.9960 H   0  0  0  0  0  0  0  0  0  0  0  0
  142.8060   77.1644  216.2696 H   0  0  0  0  0  0  0  0  0  0  0  0
  142.2918   74.8063  216.9309 H   0  0  0  0  0  0  0  0  0  0  0  0
  143.7830   75.5604  217.7144 H   0  0  0  0  0  0  0  0  0  0  0  0
  141.3799   74.4462  218.8166 H   0  0  0  0  0  0  0  0  0  0  0  0
  142.1328   72.5529  219.8408 H   0  0  0  0  0  0  0  0  0  0  0  0
  143.8560   71.3190  221.1005 H   0  0  0  0  0  0  0  0  0  0  0  0
  145.9973   72.4551  221.7605 H   0  0  0  0  0  0  0  0  0  0  0  0
  146.3274   74.8434  221.1190 H   0  0  0  0  0  0  0  0  0  0  0  0
  144.5899   76.0634  219.8587 H   0  0  0  0  0  0  0  0  0  0  0  0
  139.2281   70.1844  221.9974 H   0  0  0  0  0  0  0  0  0  0  0  0
  139.1520   68.5157  223.8354 H   0  0  0  0  0  0  0  0  0  0  0  0
  139.6324   68.0150  226.0919 H   0  0  0  0  0  0  0  0  0  0  0  0
  141.4614   70.9104  228.6735 H   0  0  0  0  0  0  0  0  0  0  0  0
  141.5057   72.5278  226.7851 H   0  0  0  0  0  0  0  0  0  0  0  0
  1  2  2  0
  2  3  1  0
  3  4  1  0
  4  5  1  0
  5  6  2  0
  5  7  1  0
  7  8  1  0
  8  9  1  0
  9 10  1  0
 10 11  1  0
 11 12  1  0
 12 13  1  0
 13 14  2  0
 14 15  1  0
 15 16  2  0
 16 17  1  0
 17 18  2  0
  2 19  1  0
 19 20  2  0
 20 21  1  0
 21 22  2  0
 22 23  1  0
 23 24  2  0
 24 25  1  0
 24 26  1  0
 26 27  2  0
 27 28  1  0
 28 29  2  0
 12  7  1  0
 18 13  1  0
 29 19  1  0
 28 22  1  0
  3 30  1  0
  4 31  1  0
  4 32  1  0
  8 33  1  0
  8 34  1  0
  9 35  1  0
  9 36  1  0
 10 37  1  0
 10 38  1  0
 11 39  1  0
 11 40  1  0
 12 41  1  6
 14 42  1  0
 15 43  1  0
 16 44  1  0
 17 45  1  0
 18 46  1  0
 20 47  1  0
 21 48  1  0
 23 49  1  0
 26 50  1  0
 27 51  1  0
M  END
>  <meeko>  (3) 
{"free_energy": -8.36, "intermolecular_energy": -9.85, "internal_energy": -2.04, "cluster_size": 13, "cluster_id": 2, "rank_in_cluster": 8}

$$$$

     RDKit          3D

 51 54  0  0  0  0  0  0  0  0999 V2000
  140.4640   71.9650  220.9300 O   0  0  0  0  0  0  0  0  0  0  0  0
  140.1780   72.3900  222.0800 C   0  0  0  0  0  0  0  0  0  0  0  0
  139.8550   73.7880  222.1630 N   0  0  0  0  0  0  0  0  0  0  0  0
  139.8990   74.5280  220.9210 C   0  0  0  0  0  0  0  0  0  0  0  0
  140.8860   75.6590  221.0100 C   0  0  0  0  0  0  0  0  0  0  0  0
  141.0510   76.1660  222.1500 O   0  0  0  0  0  0  0  0  0  0  0  0
  141.5760   76.1040  219.8490 N   0  0  0  0  0  0  0  0  0  0  0  0
  141.6100   77.5220  219.5550 C   0  0  0  0  0  0  0  0  0  0  0  0
  142.5500   77.8750  218.4520 C   0  0  0  0  0  0  0  0  0  0  0  0
  142.2480   76.9400  217.3000 C   0  0  0  0  0  0  0  0  0  0  0  0
  142.6830   75.5710  217.6990 C   0  0  0  0  0  0  0  0  0  0  0  0
  142.2080   75.0980  219.0300 C   0  0  1  0  0  0  0  0  0  0  0  0
  143.2550   74.3350  219.7650 C   0  0  0  0  0  0  0  0  0  0  0  0
  144.4400   74.9300  220.1550 C   0  0  0  0  0  0  0  0  0  0  0  0
  145.4060   74.2180  220.8360 C   0  0  0  0  0  0  0  0  0  0  0  0
  145.2040   72.8700  221.1480 C   0  0  0  0  0  0  0  0  0  0  0  0
  144.0120   72.2820  220.7530 C   0  0  0  0  0  0  0  0  0  0  0  0
  143.0490   73.0050  220.0700 C   0  0  0  0  0  0  0  0  0  0  0  0
  140.1670   71.5430  223.2670 C   0  0  0  0  0  0  0  0  0  0  0  0
  139.6210   70.2820  223.1280 C   0  0  0  0  0  0  0  0  0  0  0  0
  139.5480   69.3810  224.1660 C   0  0  0  0  0  0  0  0  0  0  0  0
  140.0570   69.8060  225.3880 C   0  0  0  0  0  0  0  0  0  0  0  0
  140.0050   68.9450  226.4470 C   0  0  0  0  0  0  0  0  0  0  0  0
  140.4940   69.3080  227.6880 C   0  0  0  0  0  0  0  0  0  0  0  0
  140.3900   68.1510  228.9870 Cl  0  0  0  0  0  0  0  0  0  0  0  0
  141.0400   70.5690  227.8330 C   0  0  0  0  0  0  0  0  0  0  0  0
  141.0880   71.4400  226.7400 C   0  0  0  0  0  0  0  0  0  0  0  0
  140.5990   71.0710  225.5100 C   0  0  0  0  0  0  0  0  0  0  0  0
  140.6550   71.9350  224.4580 N   0  0  0  0  0  0  0  0  0  0  0  0
  139.6040   74.2230  223.0890 H   0  0  0  0  0  0  0  0  0  0  0  0
  140.1986   73.8507  220.1077 H   0  0  0  0  0  0  0  0  0  0  0  0
  138.9007   74.9451  220.7226 H   0  0  0  0  0  0  0  0  0  0  0  0
  140.5980   77.8429  219.2670 H   0  0  0  0  0  0  0  0  0  0  0  0
  141.9657   78.0336  220.4615 H   0  0  0  0  0  0  0  0  0  0  0  0
  142.3947   78.9190  218.1424 H   0  0  0  0  0  0  0  0  0  0  0  0
  143.5956   77.7727  218.7781 H   0  0  0  0  0  0  0  0  0  0  0  0
  141.1685   76.9430  217.0886 H   0  0  0  0  0  0  0  0  0  0  0  0
  142.7796   77.2633  216.3929 H   0  0  0  0  0  0  0  0  0  0  0  0
  142.3142   74.8657  216.9397 H   0  0  0  0  0  0  0  0  0  0  0  0
  143.7794   75.6177  217.7742 H   0  0  0  0  0  0  0  0  0  0  0  0
  141.3934   74.3970  218.7957 H   0  0  0  0  0  0  0  0  0  0  0  0
  144.6161   75.9897  219.9183 H   0  0  0  0  0  0  0  0  0  0  0  0
  146.3411   74.7140  221.1354 H   0  0  0  0  0  0  0  0  0  0  0  0
  145.9677   72.2934  221.6905 H   0  0  0  0  0  0  0  0  0  0  0  0
  143.8284   71.2228  220.9864 H   0  0  0  0  0  0  0  0  0  0  0  0
  142.1116   72.5151  219.7679 H   0  0  0  0  0  0  0  0  0  0  0  0
  139.2273   69.9848  222.1448 H   0  0  0  0  0  0  0  0  0  0  0  0
  139.1111   68.3799  224.0359 H   0  0  0  0  0  0  0  0  0  0  0  0
  139.5665   67.9455  226.3100 H   0  0  0  0  0  0  0  0  0  0  0  0
  141.4369   70.8877  228.8081 H   0  0  0  0  0  0  0  0  0  0  0  0
  141.5261   72.4409  226.8675 H   0  0  0  0  0  0  0  0  0  0  0  0
  1  2  2  0
  2  3  1  0
  3  4  1  0
  4  5  1  0
  5  6  2  0
  5  7  1  0
  7  8  1  0
  8  9  1  0
  9 10  1  0
 10 11  1  0
 11 12  1  0
 12 13  1  0
 13 14  2  0
 14 15  1  0
 15 16  2  0
 16 17  1  0
 17 18  2  0
  2 19  1  0
 19 20  2  0
 20 21  1  0
 21 22  2  0
 22 23  1  0
 23 24  2  0
 24 25  1  0
 24 26  1  0
 26 27  2  0
 27 28  1  0
 28 29  2  0
 12  7  1  0
 18 13  1  0
 29 19  1  0
 28 22  1  0
  3 30  1  0
  4 31  1  0
  4 32  1  0
  8 33  1  0
  8 34  1  0
  9 35  1  0
  9 36  1  0
 10 37  1  0
 10 38  1  0
 11 39  1  0
 11 40  1  0
 12 41  1  6
 14 42  1  0
 15 43  1  0
 16 44  1  0
 17 45  1  0
 18 46  1  0
 20 47  1  0
 21 48  1  0
 23 49  1  0
 26 50  1  0
 27 51  1  0
M  END
>  <meeko>  (4) 
{"free_energy": -8.38, "intermolecular_energy": -9.87, "internal_energy": -2.03, "cluster_size": 13, "cluster_id": 2, "rank_in_cluster": 6}

$$$$

     RDKit          3D

 51 54  0  0  0  0  0  0  0  0999 V2000
  140.4790   72.0070  220.9280 O   0  0  0  0  0  0  0  0  0  0  0  0
  140.1870   72.4210  222.0810 C   0  0  0  0  0  0  0  0  0  0  0  0
  139.8470   73.8150  222.1710 N   0  0  0  0  0  0  0  0  0  0  0  0
  139.8850   74.5620  220.9340 C   0  0  0  0  0  0  0  0  0  0  0  0
  140.8840   75.6840  221.0200 C   0  0  0  0  0  0  0  0  0  0  0  0
  141.0560   76.1910  222.1580 O   0  0  0  0  0  0  0  0  0  0  0  0
  141.5760   76.1210  219.8570 N   0  0  0  0  0  0  0  0  0  0  0  0
  141.6180   77.5380  219.5580 C   0  0  0  0  0  0  0  0  0  0  0  0
  142.5610   77.8800  218.4530 C   0  0  0  0  0  0  0  0  0  0  0  0
  142.2520   76.9430  217.3050 C   0  0  0  0  0  0  0  0  0  0  0  0
  142.6800   75.5730  217.7080 C   0  0  0  0  0  0  0  0  0  0  0  0
  142.2020   75.1080  219.0410 C   0  0  1  0  0  0  0  0  0  0  0  0
  143.2450   74.3410  219.7790 C   0  0  0  0  0  0  0  0  0  0  0  0
  143.0600   73.0140  220.1150 C   0  0  0  0  0  0  0  0  0  0  0  0
  144.0280   72.3080  220.7980 C   0  0  0  0  0  0  0  0  0  0  0  0
  145.2270   72.9270  221.1670 C   0  0  0  0  0  0  0  0  0  0  0  0
  145.4030   74.2600  220.8260 C   0  0  0  0  0  0  0  0  0  0  0  0
  144.4250   74.9580  220.1400 C   0  0  0  0  0  0  0  0  0  0  0  0
  140.1830   71.5670  223.2620 C   0  0  0  0  0  0  0  0  0  0  0  0
  139.6460   70.3030  223.1170 C   0  0  0  0  0  0  0  0  0  0  0  0
  139.5800   69.3950  224.1490 C   0  0  0  0  0  0  0  0  0  0  0  0
  140.0890   69.8170  225.3730 C   0  0  0  0  0  0  0  0  0  0  0  0
  140.0430   68.9490  226.4270 C   0  0  0  0  0  0  0  0  0  0  0  0
  140.5320   69.3080  227.6690 C   0  0  0  0  0  0  0  0  0  0  0  0
  140.4370   68.1430  228.9620 Cl  0  0  0  0  0  0  0  0  0  0  0  0
  141.0700   70.5710  227.8210 C   0  0  0  0  0  0  0  0  0  0  0  0
  141.1090   71.4490  226.7330 C   0  0  0  0  0  0  0  0  0  0  0  0
  140.6220   71.0850  225.5020 C   0  0  0  0  0  0  0  0  0  0  0  0
  140.6700   71.9550  224.4550 N   0  0  0  0  0  0  0  0  0  0  0  0
  139.5900   74.2410  223.0990 H   0  0  0  0  0  0  0  0  0  0  0  0
  140.1699   73.8871  220.1134 H   0  0  0  0  0  0  0  0  0  0  0  0
  138.8886   74.9895  220.7486 H   0  0  0  0  0  0  0  0  0  0  0  0
  140.6080   77.8639  219.2686 H   0  0  0  0  0  0  0  0  0  0  0  0
  141.9758   78.0516  220.4626 H   0  0  0  0  0  0  0  0  0  0  0  0
  142.4134   78.9240  218.1394 H   0  0  0  0  0  0  0  0  0  0  0  0
  143.6058   77.7713  218.7794 H   0  0  0  0  0  0  0  0  0  0  0  0
  141.1722   76.9513  217.0953 H   0  0  0  0  0  0  0  0  0  0  0  0
  142.7839   77.2602  216.3959 H   0  0  0  0  0  0  0  0  0  0  0  0
  142.3073   74.8671  216.9511 H   0  0  0  0  0  0  0  0  0  0  0  0
  143.7767   75.6133  217.7822 H   0  0  0  0  0  0  0  0  0  0  0  0
  141.3828   74.4115  218.8091 H   0  0  0  0  0  0  0  0  0  0  0  0
  142.1233   72.5111  219.8326 H   0  0  0  0  0  0  0  0  0  0  0  0
  143.8563   71.2521  221.0541 H   0  0  0  0  0  0  0  0  0  0  0  0
  146.0065   72.3735  221.7110 H   0  0  0  0  0  0  0  0  0  0  0  0
  146.3361   74.7709  221.1058 H   0  0  0  0  0  0  0  0  0  0  0  0
  144.5897   76.0141  219.8801 H   0  0  0  0  0  0  0  0  0  0  0  0
  139.2534   70.0088  222.1325 H   0  0  0  0  0  0  0  0  0  0  0  0
  139.1491   68.3920  224.0137 H   0  0  0  0  0  0  0  0  0  0  0  0
  139.6097   67.9480  226.2849 H   0  0  0  0  0  0  0  0  0  0  0  0
  141.4675   70.8861  228.7971 H   0  0  0  0  0  0  0  0  0  0  0  0
  141.5390   72.4526  226.8664 H   0  0  0  0  0  0  0  0  0  0  0  0
  1  2  2  0
  2  3  1  0
  3  4  1  0
  4  5  1  0
  5  6  2  0
  5  7  1  0
  7  8  1  0
  8  9  1  0
  9 10  1  0
 10 11  1  0
 11 12  1  0
 12 13  1  0
 13 14  2  0
 14 15  1  0
 15 16  2  0
 16 17  1  0
 17 18  2  0
  2 19  1  0
 19 20  2  0
 20 21  1  0
 21 22  2  0
 22 23  1  0
 23 24  2  0
 24 25  1  0
 24 26  1  0
 26 27  2  0
 27 28  1  0
 28 29  2  0
 12  7  1  0
 18 13  1  0
 29 19  1  0
 28 22  1  0
  3 30  1  0
  4 31  1  0
  4 32  1  0
  8 33  1  0
  8 34  1  0
  9 35  1  0
  9 36  1  0
 10 37  1  0
 10 38  1  0
 11 39  1  0
 11 40  1  0
 12 41  1  6
 14 42  1  0
 15 43  1  0
 16 44  1  0
 17 45  1  0
 18 46  1  0
 20 47  1  0
 21 48  1  0
 23 49  1  0
 26 50  1  0
 27 51  1  0
M  END
>  <meeko>  (5) 
{"free_energy": -8.42, "intermolecular_energy": -9.91, "internal_energy": -2.02, "cluster_size": 13, "cluster_id": 2, "rank_in_cluster": 1}

$$$$

     RDKit          3D

 51 54  0  0  0  0  0  0  0  0999 V2000
  140.4140   72.1940  220.8750 O   0  0  0  0  0  0  0  0  0  0  0  0
  140.1400   72.5870  222.0400 C   0  0  0  0  0  0  0  0  0  0  0  0
  139.8100   73.9810  222.1630 N   0  0  0  0  0  0  0  0  0  0  0  0
  139.8340   74.7520  220.9400 C   0  0  0  0  0  0  0  0  0  0  0  0
  140.9150   75.7970  220.9920 C   0  0  0  0  0  0  0  0  0  0  0  0
  141.1620   76.2880  222.1240 O   0  0  0  0  0  0  0  0  0  0  0  0
  141.5980   76.1840  219.8060 N   0  0  0  0  0  0  0  0  0  0  0  0
  141.6530   77.5890  219.4570 C   0  0  0  0  0  0  0  0  0  0  0  0
  142.5860   77.8800  218.3290 C   0  0  0  0  0  0  0  0  0  0  0  0
  142.2520   76.9080  217.2180 C   0  0  0  0  0  0  0  0  0  0  0  0
  142.6670   75.5470  217.6640 C   0  0  0  0  0  0  0  0  0  0  0  0
  142.2000   75.1350  219.0190 C   0  0  1  0  0  0  0  0  0  0  0  0
  143.2430   74.3810  219.7710 C   0  0  0  0  0  0  0  0  0  0  0  0
  143.0630   73.0560  220.1180 C   0  0  0  0  0  0  0  0  0  0  0  0
  144.0320   72.3630  220.8150 C   0  0  0  0  0  0  0  0  0  0  0  0
  145.2240   72.9920  221.1850 C   0  0  0  0  0  0  0  0  0  0  0  0
  145.3960   74.3230  220.8310 C   0  0  0  0  0  0  0  0  0  0  0  0
  144.4180   75.0090  220.1320 C   0  0  0  0  0  0  0  0  0  0  0  0
  140.1490   71.7090  223.2040 C   0  0  0  0  0  0  0  0  0  0  0  0
  139.6200   70.4450  223.0360 C   0  0  0  0  0  0  0  0  0  0  0  0
  139.5650   69.5160  224.0500 C   0  0  0  0  0  0  0  0  0  0  0  0
  140.0780   69.9170  225.2790 C   0  0  0  0  0  0  0  0  0  0  0  0
  140.0450   69.0270  226.3160 C   0  0  0  0  0  0  0  0  0  0  0  0
  140.5380   69.3640  227.5630 C   0  0  0  0  0  0  0  0  0  0  0  0
  140.4590   68.1730  228.8320 Cl  0  0  0  0  0  0  0  0  0  0  0  0
  141.0680   70.6280  227.7370 C   0  0  0  0  0  0  0  0  0  0  0  0
  141.0960   71.5280  226.6660 C   0  0  0  0  0  0  0  0  0  0  0  0
  140.6040   71.1850  225.4310 C   0  0  0  0  0  0  0  0  0  0  0  0
  140.6400   72.0770  224.4020 N   0  0  0  0  0  0  0  0  0  0  0  0
  139.5680   74.3890  223.1030 H   0  0  0  0  0  0  0  0  0  0  0  0
  140.0238   74.0779  220.0917 H   0  0  0  0  0  0  0  0  0  0  0  0
  138.8625   75.2535  220.8187 H   0  0  0  0  0  0  0  0  0  0  0  0
  140.6434   77.9171  219.1688 H   0  0  0  0  0  0  0  0  0  0  0  0
  142.0282   78.1297  220.3384 H   0  0  0  0  0  0  0  0  0  0  0  0
  142.4471   78.9142  217.9808 H   0  0  0  0  0  0  0  0  0  0  0  0
  143.6333   77.7691  218.6466 H   0  0  0  0  0  0  0  0  0  0  0  0
  141.1701   76.9233  217.0199 H   0  0  0  0  0  0  0  0  0  0  0  0
  142.7776   77.1863  216.2926 H   0  0  0  0  0  0  0  0  0  0  0  0
  142.2754   74.8201  216.9371 H   0  0  0  0  0  0  0  0  0  0  0  0
  143.7650   75.5752  217.7234 H   0  0  0  0  0  0  0  0  0  0  0  0
  141.3693   74.4414  218.8220 H   0  0  0  0  0  0  0  0  0  0  0  0
  142.1315   72.5445  219.8339 H   0  0  0  0  0  0  0  0  0  0  0  0
  143.8650   71.3088  221.0810 H   0  0  0  0  0  0  0  0  0  0  0  0
  146.0026   72.4484  221.7402 H   0  0  0  0  0  0  0  0  0  0  0  0
  146.3251   74.8413  221.1106 H   0  0  0  0  0  0  0  0  0  0  0  0
  144.5784   76.0632  219.8620 H   0  0  0  0  0  0  0  0  0  0  0  0
  139.2248   70.1679  222.0475 H   0  0  0  0  0  0  0  0  0  0  0  0
  139.1395   68.5132  223.8971 H   0  0  0  0  0  0  0  0  0  0  0  0
  139.6190   68.0256  226.1556 H   0  0  0  0  0  0  0  0  0  0  0  0
  141.4678   70.9267  228.7172 H   0  0  0  0  0  0  0  0  0  0  0  0
  141.5211   72.5313  226.8167 H   0  0  0  0  0  0  0  0  0  0  0  0
  1  2  2  0
  2  3  1  0
  3  4  1  0
  4  5  1  0
  5  6  2  0
  5  7  1  0
  7  8  1  0
  8  9  1  0
  9 10  1  0
 10 11  1  0
 11 12  1  0
 12 13  1  0
 13 14  2  0
 14 15  1  0
 15 16  2  0
 16 17  1  0
 17 18  2  0
  2 19  1  0
 19 20  2  0
 20 21  1  0
 21 22  2  0
 22 23  1  0
 23 24  2  0
 24 25  1  0
 24 26  1  0
 26 27  2  0
 27 28  1  0
 28 29  2  0
 12  7  1  0
 18 13  1  0
 29 19  1  0
 28 22  1  0
  3 30  1  0
  4 31  1  0
  4 32  1  0
  8 33  1  0
  8 34  1  0
  9 35  1  0
  9 36  1  0
 10 37  1  0
 10 38  1  0
 11 39  1  0
 11 40  1  0
 12 41  1  6
 14 42  1  0
 15 43  1  0
 16 44  1  0
 17 45  1  0
 18 46  1  0
 20 47  1  0
 21 48  1  0
 23 49  1  0
 26 50  1  0
 27 51  1  0
M  END
>  <meeko>  (6) 
{"free_energy": -8.38, "intermolecular_energy": -9.87, "internal_energy": -2.02, "cluster_size": 13, "cluster_id": 2, "rank_in_cluster": 5}

$$$$

     RDKit          3D

 51 54  0  0  0  0  0  0  0  0999 V2000
  140.4660   71.9660  220.9320 O   0  0  0  0  0  0  0  0  0  0  0  0
  140.1840   72.3910  222.0830 C   0  0  0  0  0  0  0  0  0  0  0  0
  139.8650   73.7900  222.1670 N   0  0  0  0  0  0  0  0  0  0  0  0
  139.9100   74.5300  220.9260 C   0  0  0  0  0  0  0  0  0  0  0  0
  140.8790   75.6760  221.0240 C   0  0  0  0  0  0  0  0  0  0  0  0
  141.0190   76.1920  222.1630 O   0  0  0  0  0  0  0  0  0  0  0  0
  141.5820   76.1240  219.8720 N   0  0  0  0  0  0  0  0  0  0  0  0
  141.6220   77.5440  219.5840 C   0  0  0  0  0  0  0  0  0  0  0  0
  142.5750   77.8970  218.4910 C   0  0  0  0  0  0  0  0  0  0  0  0
  142.2800   76.9690  217.3330 C   0  0  0  0  0  0  0  0  0  0  0  0
  142.7080   75.5960  217.7290 C   0  0  0  0  0  0  0  0  0  0  0  0
  142.2180   75.1200  219.0540 C   0  0  1  0  0  0  0  0  0  0  0  0
  143.2560   74.3500  219.7960 C   0  0  0  0  0  0  0  0  0  0  0  0
  143.0640   73.0250  220.1360 C   0  0  0  0  0  0  0  0  0  0  0  0
  144.0280   72.3170  220.8230 C   0  0  0  0  0  0  0  0  0  0  0  0
  145.2290   72.9300  221.1920 C   0  0  0  0  0  0  0  0  0  0  0  0
  145.4130   74.2610  220.8450 C   0  0  0  0  0  0  0  0  0  0  0  0
  144.4390   74.9620  220.1560 C   0  0  0  0  0  0  0  0  0  0  0  0
  140.1720   71.5430  223.2690 C   0  0  0  0  0  0  0  0  0  0  0  0
  139.6180   70.2860  223.1320 C   0  0  0  0  0  0  0  0  0  0  0  0
  139.5430   69.3840  224.1690 C   0  0  0  0  0  0  0  0  0  0  0  0
  140.0600   69.8060  225.3890 C   0  0  0  0  0  0  0  0  0  0  0  0
  140.0060   68.9430  226.4480 C   0  0  0  0  0  0  0  0  0  0  0  0
  140.5020   69.3030  227.6880 C   0  0  0  0  0  0  0  0  0  0  0  0
  140.3950   68.1460  228.9860 Cl  0  0  0  0  0  0  0  0  0  0  0  0
  141.0560   70.5600  227.8310 C   0  0  0  0  0  0  0  0  0  0  0  0
  141.1040   71.4320  226.7390 C   0  0  0  0  0  0  0  0  0  0  0  0
  140.6090   71.0670  225.5110 C   0  0  0  0  0  0  0  0  0  0  0  0
  140.6660   71.9320  224.4590 N   0  0  0  0  0  0  0  0  0  0  0  0
  139.6180   74.2250  223.0940 H   0  0  0  0  0  0  0  0  0  0  0  0
  140.2277   73.8571  220.1159 H   0  0  0  0  0  0  0  0  0  0  0  0
  138.9074   74.9320  220.7179 H   0  0  0  0  0  0  0  0  0  0  0  0
  140.6139   77.8687  219.2869 H   0  0  0  0  0  0  0  0  0  0  0  0
  141.9686   78.0522  220.4959 H   0  0  0  0  0  0  0  0  0  0  0  0
  142.4279   78.9431  218.1842 H   0  0  0  0  0  0  0  0  0  0  0  0
  143.6168   77.7881  218.8269 H   0  0  0  0  0  0  0  0  0  0  0  0
  141.2023   76.9762  217.1128 H   0  0  0  0  0  0  0  0  0  0  0  0
  142.8201   77.2951  216.4319 H   0  0  0  0  0  0  0  0  0  0  0  0
  142.3443   74.8952  216.9631 H   0  0  0  0  0  0  0  0  0  0  0  0
  143.8040   75.6377  217.8134 H   0  0  0  0  0  0  0  0  0  0  0  0
  141.4023   74.4242  218.8083 H   0  0  0  0  0  0  0  0  0  0  0  0
  142.1254   72.5255  219.8538 H   0  0  0  0  0  0  0  0  0  0  0  0
  143.8506   71.2628  221.0823 H   0  0  0  0  0  0  0  0  0  0  0  0
  146.0041   72.3746  221.7404 H   0  0  0  0  0  0  0  0  0  0  0  0
  146.3492   74.7675  221.1224 H   0  0  0  0  0  0  0  0  0  0  0  0
  144.6094   76.0164  219.8930 H   0  0  0  0  0  0  0  0  0  0  0  0
  139.2186   69.9921  222.1501 H   0  0  0  0  0  0  0  0  0  0  0  0
  139.0992   68.3858  224.0400 H   0  0  0  0  0  0  0  0  0  0  0  0
  139.5609   67.9463  226.3117 H   0  0  0  0  0  0  0  0  0  0  0  0
  141.4597   70.8753  228.8044 H   0  0  0  0  0  0  0  0  0  0  0  0
  141.5473   72.4307  226.8661 H   0  0  0  0  0  0  0  0  0  0  0  0
  1  2  2  0
  2  3  1  0
  3  4  1  0
  4  5  1  0
  5  6  2  0
  5  7  1  0
  7  8  1  0
  8  9  1  0
  9 10  1  0
 10 11  1  0
 11 12  1  0
 12 13  1  0
 13 14  2  0
 14 15  1  0
 15 16  2  0
 16 17  1  0
 17 18  2  0
  2 19  1  0
 19 20  2  0
 20 21  1  0
 21 22  2  0
 22 23  1  0
 23 24  2  0
 24 25  1  0
 24 26  1  0
 26 27  2  0
 27 28  1  0
 28 29  2  0
 12  7  1  0
 18 13  1  0
 29 19  1  0
 28 22  1  0
  3 30  1  0
  4 31  1  0
  4 32  1  0
  8 33  1  0
  8 34  1  0
  9 35  1  0
  9 36  1  0
 10 37  1  0
 10 38  1  0
 11 39  1  0
 11 40  1  0
 12 41  1  6
 14 42  1  0
 15 43  1  0
 16 44  1  0
 17 45  1  0
 18 46  1  0
 20 47  1  0
 21 48  1  0
 23 49  1  0
 26 50  1  0
 27 51  1  0
M  END
>  <meeko>  (7) 
{"free_energy": -8.41, "intermolecular_energy": -9.9, "internal_energy": -2.03, "cluster_size": 13, "cluster_id": 2, "rank_in_cluster": 3}

$$$$

     RDKit          3D

 51 54  0  0  0  0  0  0  0  0999 V2000
  141.6240   73.0970  220.5450 O   0  0  0  0  0  0  0  0  0  0  0  0
  141.0480   73.8490  221.3740 C   0  0  0  0  0  0  0  0  0  0  0  0
  140.2290   73.1830  222.3500 N   0  0  0  0  0  0  0  0  0  0  0  0
  140.1690   71.7420  222.2570 C   0  0  0  0  0  0  0  0  0  0  0  0
  139.7730   71.1390  223.5770 C   0  0  0  0  0  0  0  0  0  0  0  0
  140.4620   71.4790  224.5740 O   0  0  0  0  0  0  0  0  0  0  0  0
  138.6750   70.2390  223.6560 N   0  0  0  0  0  0  0  0  0  0  0  0
  138.1520   69.6650  222.4330 C   0  0  0  0  0  0  0  0  0  0  0  0
  137.1640   68.5710  222.6700 C   0  0  0  0  0  0  0  0  0  0  0  0
  136.1570   69.0970  223.6700 C   0  0  0  0  0  0  0  0  0  0  0  0
  136.8460   69.2280  224.9860 C   0  0  0  0  0  0  0  0  0  0  0  0
  138.1480   69.9530  224.9690 C   0  0  1  0  0  0  0  0  0  0  0  0
  139.1570   69.3230  225.8660 C   0  0  0  0  0  0  0  0  0  0  0  0
  139.6220   68.0410  225.6400 C   0  0  0  0  0  0  0  0  0  0  0  0
  140.5560   67.4630  226.4750 C   0  0  0  0  0  0  0  0  0  0  0  0
  141.0570   68.1680  227.5740 C   0  0  0  0  0  0  0  0  0  0  0  0
  140.5840   69.4540  227.7920 C   0  0  0  0  0  0  0  0  0  0  0  0
  139.6470   70.0250  226.9490 C   0  0  0  0  0  0  0  0  0  0  0  0
  141.1850   75.3000  221.3690 C   0  0  0  0  0  0  0  0  0  0  0  0
  141.9440   75.8520  220.3560 C   0  0  0  0  0  0  0  0  0  0  0  0
  142.1550   77.2060  220.2320 C   0  0  0  0  0  0  0  0  0  0  0  0
  141.5560   78.0130  221.1930 C   0  0  0  0  0  0  0  0  0  0  0  0
  141.7390   79.3650  221.1100 C   0  0  0  0  0  0  0  0  0  0  0  0
  141.1710   80.2200  222.0360 C   0  0  0  0  0  0  0  0  0  0  0  0
  141.4510   81.9310  221.8590 Cl  0  0  0  0  0  0  0  0  0  0  0  0
  140.4110   79.6740  223.0520 C   0  0  0  0  0  0  0  0  0  0  0  0
  140.2330   78.2890  223.1240 C   0  0  0  0  0  0  0  0  0  0  0  0
  140.8000   77.4460  222.2010 C   0  0  0  0  0  0  0  0  0  0  0  0
  140.6140   76.0990  222.2900 N   0  0  0  0  0  0  0  0  0  0  0  0
  139.7120   73.7400  223.0800 H   0  0  0  0  0  0  0  0  0  0  0  0
  139.4279   71.4601  221.4946 H   0  0  0  0  0  0  0  0  0  0  0  0
  141.1644   71.3641  221.9805 H   0  0  0  0  0  0  0  0  0  0  0  0
  137.6593   70.4616  221.8561 H   0  0  0  0  0  0  0  0  0  0  0  0
  139.0015   69.2251  221.8900 H   0  0  0  0  0  0  0  0  0  0  0  0
  136.6597   68.3063  221.7289 H   0  0  0  0  0  0  0  0  0  0  0  0
  137.6615   67.6668  223.0507 H   0  0  0  0  0  0  0  0  0  0  0  0
  135.7838   70.0790  223.3438 H   0  0  0  0  0  0  0  0  0  0  0  0
  135.3017   68.4100  223.7511 H   0  0  0  0  0  0  0  0  0  0  0  0
  136.1703   69.7644  225.6684 H   0  0  0  0  0  0  0  0  0  0  0  0
  137.0808   68.2011  225.3029 H   0  0  0  0  0  0  0  0  0  0  0  0
  137.9126   70.9450  225.3821 H   0  0  0  0  0  0  0  0  0  0  0  0
  139.2407   67.4717  224.7794 H   0  0  0  0  0  0  0  0  0  0  0  0
  140.9090   66.4406  226.2749 H   0  0  0  0  0  0  0  0  0  0  0  0
  141.8030   67.7169  228.2448 H   0  0  0  0  0  0  0  0  0  0  0  0
  140.9606   70.0299  228.6502 H   0  0  0  0  0  0  0  0  0  0  0  0
  139.2895   71.0470  227.1434 H   0  0  0  0  0  0  0  0  0  0  0  0
  142.4003   75.1791  219.6151 H   0  0  0  0  0  0  0  0  0  0  0  0
  142.7636   77.6266  219.4180 H   0  0  0  0  0  0  0  0  0  0  0  0
  142.3481   79.7794  220.2932 H   0  0  0  0  0  0  0  0  0  0  0  0
  139.9460   80.3284  223.8040 H   0  0  0  0  0  0  0  0  0  0  0  0
  139.6256   77.8660  223.9377 H   0  0  0  0  0  0  0  0  0  0  0  0
  1  2  2  0
  2  3  1  0
  3  4  1  0
  4  5  1  0
  5  6  2  0
  5  7  1  0
  7  8  1  0
  8  9  1  0
  9 10  1  0
 10 11  1  0
 11 12  1  0
 12 13  1  0
 13 14  2  0
 14 15  1  0
 15 16  2  0
 16 17  1  0
 17 18  2  0
  2 19  1  0
 19 20  2  0
 20 21  1  0
 21 22  2  0
 22 23  1  0
 23 24  2  0
 24 25  1  0
 24 26  1  0
 26 27  2  0
 27 28  1  0
 28 29  2  0
 12  7  1  0
 18 13  1  0
 29 19  1  0
 28 22  1  0
  3 30  1  0
  4 31  1  0
  4 32  1  0
  8 33  1  0
  8 34  1  0
  9 35  1  0
  9 36  1  0
 10 37  1  0
 10 38  1  0
 11 39  1  0
 11 40  1  0
 12 41  1  1
 14 42  1  0
 15 43  1  0
 16 44  1  0
 17 45  1  0
 18 46  1  0
 20 47  1  0
 21 48  1  0
 23 49  1  0
 26 50  1  0
 27 51  1  0
M  END
>  <meeko>  (8) 
{"free_energy": -8.59, "intermolecular_energy": -10.08, "internal_energy": -1.45, "cluster_size": 4, "cluster_id": 1, "rank_in_cluster": 2}

$$$$

     RDKit          3D

 51 54  0  0  0  0  0  0  0  0999 V2000
  140.4770   71.9580  220.9440 O   0  0  0  0  0  0  0  0  0  0  0  0
  140.1900   72.3790  222.0950 C   0  0  0  0  0  0  0  0  0  0  0  0
  139.8540   73.7750  222.1770 N   0  0  0  0  0  0  0  0  0  0  0  0
  139.8900   74.5150  220.9360 C   0  0  0  0  0  0  0  0  0  0  0  0
  140.8730   75.6500  221.0200 C   0  0  0  0  0  0  0  0  0  0  0  0
  141.0310   76.1670  222.1560 O   0  0  0  0  0  0  0  0  0  0  0  0
  141.5670   76.0880  219.8590 N   0  0  0  0  0  0  0  0  0  0  0  0
  141.5970   77.5040  219.5540 C   0  0  0  0  0  0  0  0  0  0  0  0
  142.5420   77.8500  218.4520 C   0  0  0  0  0  0  0  0  0  0  0  0
  142.2470   76.9060  217.3060 C   0  0  0  0  0  0  0  0  0  0  0  0
  142.6850   75.5410  217.7170 C   0  0  0  0  0  0  0  0  0  0  0  0
  142.2050   75.0780  219.0500 C   0  0  1  0  0  0  0  0  0  0  0  0
  143.2520   74.3230  219.7960 C   0  0  0  0  0  0  0  0  0  0  0  0
  143.0720   72.9990  220.1470 C   0  0  0  0  0  0  0  0  0  0  0  0
  144.0440   72.3050  220.8380 C   0  0  0  0  0  0  0  0  0  0  0  0
  145.2400   72.9330  221.2000 C   0  0  0  0  0  0  0  0  0  0  0  0
  145.4110   74.2630  220.8430 C   0  0  0  0  0  0  0  0  0  0  0  0
  144.4290   74.9500  220.1500 C   0  0  0  0  0  0  0  0  0  0  0  0
  140.1880   71.5330  223.2810 C   0  0  0  0  0  0  0  0  0  0  0  0
  139.6570   70.2660  223.1430 C   0  0  0  0  0  0  0  0  0  0  0  0
  139.5930   69.3640  224.1810 C   0  0  0  0  0  0  0  0  0  0  0  0
  140.0980   69.7960  225.4020 C   0  0  0  0  0  0  0  0  0  0  0  0
  140.0550   68.9340  226.4620 C   0  0  0  0  0  0  0  0  0  0  0  0
  140.5400   69.3020  227.7030 C   0  0  0  0  0  0  0  0  0  0  0  0
  140.4490   68.1450  229.0020 Cl  0  0  0  0  0  0  0  0  0  0  0  0
  141.0720   70.5690  227.8470 C   0  0  0  0  0  0  0  0  0  0  0  0
  141.1100   71.4400  226.7540 C   0  0  0  0  0  0  0  0  0  0  0  0
  140.6250   71.0660  225.5250 C   0  0  0  0  0  0  0  0  0  0  0  0
  140.6720   71.9310  224.4730 N   0  0  0  0  0  0  0  0  0  0  0  0
  139.6020   74.2080  223.1040 H   0  0  0  0  0  0  0  0  0  0  0  0
  140.1885   73.8388  220.1213 H   0  0  0  0  0  0  0  0  0  0  0  0
  138.8892   74.9286  220.7427 H   0  0  0  0  0  0  0  0  0  0  0  0
  140.5854   77.8191  219.2584 H   0  0  0  0  0  0  0  0  0  0  0  0
  141.9455   78.0249  220.4580 H   0  0  0  0  0  0  0  0  0  0  0  0
  142.3866   78.8914  218.1336 H   0  0  0  0  0  0  0  0  0  0  0  0
  143.5862   77.7517  218.7838 H   0  0  0  0  0  0  0  0  0  0  0  0
  141.1683   76.9041  217.0907 H   0  0  0  0  0  0  0  0  0  0  0  0
  142.7807   77.2242  216.3983 H   0  0  0  0  0  0  0  0  0  0  0  0
  142.3217   74.8286  216.9617 H   0  0  0  0  0  0  0  0  0  0  0  0
  143.7811   75.5908  217.7957 H   0  0  0  0  0  0  0  0  0  0  0  0
  141.3924   74.3741  218.8172 H   0  0  0  0  0  0  0  0  0  0  0  0
  142.1373   72.4891  219.8707 H   0  0  0  0  0  0  0  0  0  0  0  0
  143.8771   71.2512  221.1058 H   0  0  0  0  0  0  0  0  0  0  0  0
  146.0214   72.3892  221.7510 H   0  0  0  0  0  0  0  0  0  0  0  0
  146.3428   74.7803  221.1153 H   0  0  0  0  0  0  0  0  0  0  0  0
  144.5884   76.0042  219.8794 H   0  0  0  0  0  0  0  0  0  0  0  0
  139.2676   69.9638  222.1596 H   0  0  0  0  0  0  0  0  0  0  0  0
  139.1664   68.3584  224.0516 H   0  0  0  0  0  0  0  0  0  0  0  0
  139.6270   67.9300  226.3251 H   0  0  0  0  0  0  0  0  0  0  0  0
  141.4658   70.8925  228.8218 H   0  0  0  0  0  0  0  0  0  0  0  0
  141.5372   72.4456  226.8812 H   0  0  0  0  0  0  0  0  0  0  0  0
  1  2  2  0
  2  3  1  0
  3  4  1  0
  4  5  1  0
  5  6  2  0
  5  7  1  0
  7  8  1  0
  8  9  1  0
  9 10  1  0
 10 11  1  0
 11 12  1  0
 12 13  1  0
 13 14  2  0
 14 15  1  0
 15 16  2  0
 16 17  1  0
 17 18  2  0
  2 19  1  0
 19 20  2  0
 20 21  1  0
 21 22  2  0
 22 23  1  0
 23 24  2  0
 24 25  1  0
 24 26  1  0
 26 27  2  0
 27 28  1  0
 28 29  2  0
 12  7  1  0
 18 13  1  0
 29 19  1  0
 28 22  1  0
  3 30  1  0
  4 31  1  0
  4 32  1  0
  8 33  1  0
  8 34  1  0
  9 35  1  0
  9 36  1  0
 10 37  1  0
 10 38  1  0
 11 39  1  0
 11 40  1  0
 12 41  1  6
 14 42  1  0
 15 43  1  0
 16 44  1  0
 17 45  1  0
 18 46  1  0
 20 47  1  0
 21 48  1  0
 23 49  1  0
 26 50  1  0
 27 51  1  0
M  END
>  <meeko>  (9) 
{"free_energy": -8.41, "intermolecular_energy": -9.91, "internal_energy": -2.03, "cluster_size": 13, "cluster_id": 2, "rank_in_cluster": 2}

$$$$

     RDKit          3D

 51 54  0  0  0  0  0  0  0  0999 V2000
  141.6190   73.1300  220.5390 O   0  0  0  0  0  0  0  0  0  0  0  0
  141.0510   73.8820  221.3730 C   0  0  0  0  0  0  0  0  0  0  0  0
  140.2410   73.2160  222.3570 N   0  0  0  0  0  0  0  0  0  0  0  0
  140.1820   71.7750  222.2650 C   0  0  0  0  0  0  0  0  0  0  0  0
  139.7800   71.1740  223.5840 C   0  0  0  0  0  0  0  0  0  0  0  0
  140.4610   71.5180  224.5850 O   0  0  0  0  0  0  0  0  0  0  0  0
  138.6850   70.2700  223.6580 N   0  0  0  0  0  0  0  0  0  0  0  0
  138.1770   69.6830  222.4350 C   0  0  0  0  0  0  0  0  0  0  0  0
  137.1920   68.5870  222.6700 C   0  0  0  0  0  0  0  0  0  0  0  0
  136.1710   69.1170  223.6540 C   0  0  0  0  0  0  0  0  0  0  0  0
  136.8450   69.2610  224.9760 C   0  0  0  0  0  0  0  0  0  0  0  0
  138.1440   69.9920  224.9670 C   0  0  1  0  0  0  0  0  0  0  0  0
  139.1460   69.3740  225.8810 C   0  0  0  0  0  0  0  0  0  0  0  0
  139.6280   70.0510  226.9850 C   0  0  0  0  0  0  0  0  0  0  0  0
  140.5550   69.4740  227.8280 C   0  0  0  0  0  0  0  0  0  0  0  0
  141.0290   68.1820  227.5810 C   0  0  0  0  0  0  0  0  0  0  0  0
  140.5400   67.5110  226.4700 C   0  0  0  0  0  0  0  0  0  0  0  0
  139.6090   68.0990  225.6310 C   0  0  0  0  0  0  0  0  0  0  0  0
  141.1860   75.3330  221.3660 C   0  0  0  0  0  0  0  0  0  0  0  0
  141.9600   75.8830  220.3620 C   0  0  0  0  0  0  0  0  0  0  0  0
  142.1710   77.2370  220.2370 C   0  0  0  0  0  0  0  0  0  0  0  0
  141.5580   78.0460  221.1880 C   0  0  0  0  0  0  0  0  0  0  0  0
  141.7410   79.3980  221.1040 C   0  0  0  0  0  0  0  0  0  0  0  0
  141.1580   80.2550  222.0180 C   0  0  0  0  0  0  0  0  0  0  0  0
  141.4400   81.9660  221.8410 Cl  0  0  0  0  0  0  0  0  0  0  0  0
  140.3840   79.7110  223.0250 C   0  0  0  0  0  0  0  0  0  0  0  0
  140.2060   78.3260  223.0980 C   0  0  0  0  0  0  0  0  0  0  0  0
  140.7880   77.4810  222.1860 C   0  0  0  0  0  0  0  0  0  0  0  0
  140.6010   76.1340  222.2760 N   0  0  0  0  0  0  0  0  0  0  0  0
  139.7310   73.7730  223.0910 H   0  0  0  0  0  0  0  0  0  0  0  0
  139.4445   71.4919  221.4995 H   0  0  0  0  0  0  0  0  0  0  0  0
  141.1786   71.3969  221.9932 H   0  0  0  0  0  0  0  0  0  0  0  0
  137.6868   70.4724  221.8464 H   0  0  0  0  0  0  0  0  0  0  0  0
  139.0342   69.2420  221.9052 H   0  0  0  0  0  0  0  0  0  0  0  0
  136.6998   68.3118  221.7255 H   0  0  0  0  0  0  0  0  0  0  0  0
  137.6893   67.6885  223.0642 H   0  0  0  0  0  0  0  0  0  0  0  0
  135.7976   70.0948  223.3157 H   0  0  0  0  0  0  0  0  0  0  0  0
  135.3172   68.4277  223.7308 H   0  0  0  0  0  0  0  0  0  0  0  0
  136.1597   69.7994  225.6471 H   0  0  0  0  0  0  0  0  0  0  0  0
  137.0809   68.2377  225.3035 H   0  0  0  0  0  0  0  0  0  0  0  0
  137.8989   70.9864  225.3684 H   0  0  0  0  0  0  0  0  0  0  0  0
  139.2660   71.0682  227.1954 H   0  0  0  0  0  0  0  0  0  0  0  0
  140.9236   70.0339  228.7001 H   0  0  0  0  0  0  0  0  0  0  0  0
  141.7672   67.7121  228.2475 H   0  0  0  0  0  0  0  0  0  0  0  0
  140.8981   66.4941  226.2518 H   0  0  0  0  0  0  0  0  0  0  0  0
  139.2353   67.5447  224.7575 H   0  0  0  0  0  0  0  0  0  0  0  0
  142.4283   75.2084  219.6301 H   0  0  0  0  0  0  0  0  0  0  0  0
  142.7899   77.6562  219.4300 H   0  0  0  0  0  0  0  0  0  0  0  0
  142.3625   79.8106  220.2956 H   0  0  0  0  0  0  0  0  0  0  0  0
  139.9081   80.3670  223.7688 H   0  0  0  0  0  0  0  0  0  0  0  0
  139.5864   77.9046  223.9033 H   0  0  0  0  0  0  0  0  0  0  0  0
  1  2  2  0
  2  3  1  0
  3  4  1  0
  4  5  1  0
  5  6  2  0
  5  7  1  0
  7  8  1  0
  8  9  1  0
  9 10  1  0
 10 11  1  0
 11 12  1  0
 12 13  1  0
 13 14  2  0
 14 15  1  0
 15 16  2  0
 16 17  1  0
 17 18  2  0
  2 19  1  0
 19 20  2  0
 20 21  1  0
 21 22  2  0
 22 23  1  0
 23 24  2  0
 24 25  1  0
 24 26  1  0
 26 27  2  0
 27 28  1  0
 28 29  2  0
 12  7  1  0
 18 13  1  0
 29 19  1  0
 28 22  1  0
  3 30  1  0
  4 31  1  0
  4 32  1  0
  8 33  1  0
  8 34  1  0
  9 35  1  0
  9 36  1  0
 10 37  1  0
 10 38  1  0
 11 39  1  0
 11 40  1  0
 12 41  1  1
 14 42  1  0
 15 43  1  0
 16 44  1  0
 17 45  1  0
 18 46  1  0
 20 47  1  0
 21 48  1  0
 23 49  1  0
 26 50  1  0
 27 51  1  0
M  END
>  <meeko>  (10) 
{"free_energy": -8.59, "intermolecular_energy": -10.08, "internal_energy": -1.47, "cluster_size": 4, "cluster_id": 1, "rank_in_cluster": 1}

$$$$

     RDKit          3D

 51 54  0  0  0  0  0  0  0  0999 V2000
  140.3740   72.2660  220.8310 O   0  0  0  0  0  0  0  0  0  0  0  0
  140.1150   72.6510  222.0020 C   0  0  0  0  0  0  0  0  0  0  0  0
  139.7910   74.0450  222.1390 N   0  0  0  0  0  0  0  0  0  0  0  0
  139.8020   74.8250  220.9220 C   0  0  0  0  0  0  0  0  0  0  0  0
  140.9240   75.8280  220.9430 C   0  0  0  0  0  0  0  0  0  0  0  0
  141.2130   76.3170  222.0660 O   0  0  0  0  0  0  0  0  0  0  0  0
  141.5980   76.1780  219.7410 N   0  0  0  0  0  0  0  0  0  0  0  0
  141.6430   77.5700  219.3440 C   0  0  0  0  0  0  0  0  0  0  0  0
  142.5680   77.8290  218.2010 C   0  0  0  0  0  0  0  0  0  0  0  0
  142.2330   76.8170  217.1270 C   0  0  0  0  0  0  0  0  0  0  0  0
  142.6600   75.4750  217.6160 C   0  0  0  0  0  0  0  0  0  0  0  0
  142.2030   75.1070  218.9870 C   0  0  1  0  0  0  0  0  0  0  0  0
  143.2550   74.3860  219.7580 C   0  0  0  0  0  0  0  0  0  0  0  0
  144.4290   75.0100  220.1320 C   0  0  0  0  0  0  0  0  0  0  0  0
  145.3990   74.3380  220.8460 C   0  0  0  0  0  0  0  0  0  0  0  0
  145.2120   73.0000  221.2090 C   0  0  0  0  0  0  0  0  0  0  0  0
  144.0300   72.3820  220.8290 C   0  0  0  0  0  0  0  0  0  0  0  0
  143.0630   73.0660  220.1120 C   0  0  0  0  0  0  0  0  0  0  0  0
  140.1360   71.7650  223.1590 C   0  0  0  0  0  0  0  0  0  0  0  0
  139.6250   70.4940  222.9810 C   0  0  0  0  0  0  0  0  0  0  0  0
  139.5830   69.5570  223.9880 C   0  0  0  0  0  0  0  0  0  0  0  0
  140.0880   69.9560  225.2210 C   0  0  0  0  0  0  0  0  0  0  0  0
  140.0660   69.0580  226.2510 C   0  0  0  0  0  0  0  0  0  0  0  0
  140.5520   69.3930  227.5010 C   0  0  0  0  0  0  0  0  0  0  0  0
  140.4890   68.1920  228.7610 Cl  0  0  0  0  0  0  0  0  0  0  0  0
  141.0630   70.6640  227.6860 C   0  0  0  0  0  0  0  0  0  0  0  0
  141.0790   71.5720  226.6220 C   0  0  0  0  0  0  0  0  0  0  0  0
  140.5940   71.2310  225.3830 C   0  0  0  0  0  0  0  0  0  0  0  0
  140.6190   72.1310  224.3610 N   0  0  0  0  0  0  0  0  0  0  0  0
  139.5620   74.4480  223.0850 H   0  0  0  0  0  0  0  0  0  0  0  0
  139.9358   74.1515  220.0627 H   0  0  0  0  0  0  0  0  0  0  0  0
  138.8470   75.3644  220.8391 H   0  0  0  0  0  0  0  0  0  0  0  0
  140.6298   77.8823  219.0508 H   0  0  0  0  0  0  0  0  0  0  0  0
  142.0206   78.1419  220.2044 H   0  0  0  0  0  0  0  0  0  0  0  0
  142.4202   78.8497  217.8184 H   0  0  0  0  0  0  0  0  0  0  0  0
  143.6181   77.7368  218.5154 H   0  0  0  0  0  0  0  0  0  0  0  0
  141.1497   76.8185  216.9363 H   0  0  0  0  0  0  0  0  0  0  0  0
  142.7506   77.0667  216.1891 H   0  0  0  0  0  0  0  0  0  0  0  0
  142.2694   74.7212  216.9166 H   0  0  0  0  0  0  0  0  0  0  0  0
  143.7582   75.5119  217.6675 H   0  0  0  0  0  0  0  0  0  0  0  0
  141.3756   74.4020  218.8187 H   0  0  0  0  0  0  0  0  0  0  0  0
  144.5934   76.0619  219.8555 H   0  0  0  0  0  0  0  0  0  0  0  0
  146.3255   74.8574  221.1318 H   0  0  0  0  0  0  0  0  0  0  0  0
  145.9791   72.4547  221.7785 H   0  0  0  0  0  0  0  0  0  0  0  0
  143.8578   71.3304  221.1019 H   0  0  0  0  0  0  0  0  0  0  0  0
  142.1341   72.5531  219.8221 H   0  0  0  0  0  0  0  0  0  0  0  0
  139.2343   70.2186  221.9903 H   0  0  0  0  0  0  0  0  0  0  0  0
  139.1730   68.5491  223.8268 H   0  0  0  0  0  0  0  0  0  0  0  0
  139.6547   68.0518  226.0825 H   0  0  0  0  0  0  0  0  0  0  0  0
  141.4568   70.9612  228.6692 H   0  0  0  0  0  0  0  0  0  0  0  0
  141.4886   72.5804  226.7809 H   0  0  0  0  0  0  0  0  0  0  0  0
  1  2  2  0
  2  3  1  0
  3  4  1  0
  4  5  1  0
  5  6  2  0
  5  7  1  0
  7  8  1  0
  8  9  1  0
  9 10  1  0
 10 11  1  0
 11 12  1  0
 12 13  1  0
 13 14  2  0
 14 15  1  0
 15 16  2  0
 16 17  1  0
 17 18  2  0
  2 19  1  0
 19 20  2  0
 20 21  1  0
 21 22  2  0
 22 23  1  0
 23 24  2  0
 24 25  1  0
 24 26  1  0
 26 27  2  0
 27 28  1  0
 28 29  2  0
 12  7  1  0
 18 13  1  0
 29 19  1  0
 28 22  1  0
  3 30  1  0
  4 31  1  0
  4 32  1  0
  8 33  1  0
  8 34  1  0
  9 35  1  0
  9 36  1  0
 10 37  1  0
 10 38  1  0
 11 39  1  0
 11 40  1  0
 12 41  1  6
 14 42  1  0
 15 43  1  0
 16 44  1  0
 17 45  1  0
 18 46  1  0
 20 47  1  0
 21 48  1  0
 23 49  1  0
 26 50  1  0
 27 51  1  0
M  END
>  <meeko>  (11) 
{"free_energy": -8.33, "intermolecular_energy": -9.82, "internal_energy": -2.03, "cluster_size": 13, "cluster_id": 2, "rank_in_cluster": 10}

$$$$

     RDKit          3D

 51 54  0  0  0  0  0  0  0  0999 V2000
  141.7310   73.0860  220.6360 O   0  0  0  0  0  0  0  0  0  0  0  0
  141.1020   73.8490  221.4160 C   0  0  0  0  0  0  0  0  0  0  0  0
  140.2360   73.1940  222.3590 N   0  0  0  0  0  0  0  0  0  0  0  0
  140.1970   71.7500  222.2930 C   0  0  0  0  0  0  0  0  0  0  0  0
  139.7600   71.1690  223.6100 C   0  0  0  0  0  0  0  0  0  0  0  0
  140.4130   71.5310  224.6230 O   0  0  0  0  0  0  0  0  0  0  0  0
  138.6640   70.2640  223.6690 N   0  0  0  0  0  0  0  0  0  0  0  0
  138.1520   69.7040  222.4340 C   0  0  0  0  0  0  0  0  0  0  0  0
  137.1670   68.6040  222.6490 C   0  0  0  0  0  0  0  0  0  0  0  0
  136.1500   69.1130  223.6480 C   0  0  0  0  0  0  0  0  0  0  0  0
  136.8290   69.2290  224.9710 C   0  0  0  0  0  0  0  0  0  0  0  0
  138.1280   69.9590  224.9730 C   0  0  1  0  0  0  0  0  0  0  0  0
  139.1320   69.3210  225.8700 C   0  0  0  0  0  0  0  0  0  0  0  0
  139.6130   69.9720  226.9910 C   0  0  0  0  0  0  0  0  0  0  0  0
  140.5430   69.3760  227.8180 C   0  0  0  0  0  0  0  0  0  0  0  0
  141.0210   68.0920  227.5380 C   0  0  0  0  0  0  0  0  0  0  0  0
  140.5320   67.4470  226.4110 C   0  0  0  0  0  0  0  0  0  0  0  0
  139.5990   68.0540  225.5880 C   0  0  0  0  0  0  0  0  0  0  0  0
  141.2230   75.3010  221.3880 C   0  0  0  0  0  0  0  0  0  0  0  0
  141.9520   75.8460  220.3490 C   0  0  0  0  0  0  0  0  0  0  0  0
  142.1450   77.2000  220.2010 C   0  0  0  0  0  0  0  0  0  0  0  0
  141.5620   78.0140  221.1660 C   0  0  0  0  0  0  0  0  0  0  0  0
  141.7290   79.3660  221.0600 C   0  0  0  0  0  0  0  0  0  0  0  0
  141.1750   80.2290  221.9870 C   0  0  0  0  0  0  0  0  0  0  0  0
  141.4330   81.9400  221.7800 Cl  0  0  0  0  0  0  0  0  0  0  0  0
  140.4450   79.6900  223.0290 C   0  0  0  0  0  0  0  0  0  0  0  0
  140.2830   78.3040  223.1240 C   0  0  0  0  0  0  0  0  0  0  0  0
  140.8370   77.4540  222.1990 C   0  0  0  0  0  0  0  0  0  0  0  0
  140.6670   76.1060  222.3110 N   0  0  0  0  0  0  0  0  0  0  0  0
  139.6730   73.7590  223.0470 H   0  0  0  0  0  0  0  0  0  0  0  0
  139.4879   71.4434  221.5100 H   0  0  0  0  0  0  0  0  0  0  0  0
  141.2062   71.3793  222.0604 H   0  0  0  0  0  0  0  0  0  0  0  0
  137.6606   70.5063  221.8640 H   0  0  0  0  0  0  0  0  0  0  0  0
  139.0072   69.2745  221.8916 H   0  0  0  0  0  0  0  0  0  0  0  0
  136.6711   68.3497  221.7006 H   0  0  0  0  0  0  0  0  0  0  0  0
  137.6652   67.6969  223.0219 H   0  0  0  0  0  0  0  0  0  0  0  0
  135.7755   70.0978  223.3320 H   0  0  0  0  0  0  0  0  0  0  0  0
  135.2965   68.4221  223.7134 H   0  0  0  0  0  0  0  0  0  0  0  0
  136.1463   69.7537  225.6556 H   0  0  0  0  0  0  0  0  0  0  0  0
  137.0655   68.1989  225.2760 H   0  0  0  0  0  0  0  0  0  0  0  0
  137.8857   70.9450  225.3962 H   0  0  0  0  0  0  0  0  0  0  0  0
  139.2480   70.9824  227.2276 H   0  0  0  0  0  0  0  0  0  0  0  0
  140.9109   69.9147  228.7037 H   0  0  0  0  0  0  0  0  0  0  0  0
  141.7620   67.6081  228.1912 H   0  0  0  0  0  0  0  0  0  0  0  0
  140.8917   66.4364  226.1675 H   0  0  0  0  0  0  0  0  0  0  0  0
  139.2265   67.5210  224.7008 H   0  0  0  0  0  0  0  0  0  0  0  0
  142.3979   75.1673  219.6071 H   0  0  0  0  0  0  0  0  0  0  0  0
  142.7280   77.6156  219.3659 H   0  0  0  0  0  0  0  0  0  0  0  0
  142.3141   79.7746  220.2229 H   0  0  0  0  0  0  0  0  0  0  0  0
  139.9917   80.3503  223.7831 H   0  0  0  0  0  0  0  0  0  0  0  0
  139.6993   77.8861  223.9575 H   0  0  0  0  0  0  0  0  0  0  0  0
  1  2  2  0
  2  3  1  0
  3  4  1  0
  4  5  1  0
  5  6  2  0
  5  7  1  0
  7  8  1  0
  8  9  1  0
  9 10  1  0
 10 11  1  0
 11 12  1  0
 12 13  1  0
 13 14  2  0
 14 15  1  0
 15 16  2  0
 16 17  1  0
 17 18  2  0
  2 19  1  0
 19 20  2  0
 20 21  1  0
 21 22  2  0
 22 23  1  0
 23 24  2  0
 24 25  1  0
 24 26  1  0
 26 27  2  0
 27 28  1  0
 28 29  2  0
 12  7  1  0
 18 13  1  0
 29 19  1  0
 28 22  1  0
  3 30  1  0
  4 31  1  0
  4 32  1  0
  8 33  1  0
  8 34  1  0
  9 35  1  0
  9 36  1  0
 10 37  1  0
 10 38  1  0
 11 39  1  0
 11 40  1  0
 12 41  1  1
 14 42  1  0
 15 43  1  0
 16 44  1  0
 17 45  1  0
 18 46  1  0
 20 47  1  0
 21 48  1  0
 23 49  1  0
 26 50  1  0
 27 51  1  0
M  END
>  <meeko>  (12) 
{"free_energy": -8.58, "intermolecular_energy": -10.07, "internal_energy": -1.47, "cluster_size": 4, "cluster_id": 1, "rank_in_cluster": 3}

$$$$

     RDKit          3D

 51 54  0  0  0  0  0  0  0  0999 V2000
  141.6560   73.0810  220.6120 O   0  0  0  0  0  0  0  0  0  0  0  0
  141.0500   73.8460  221.4070 C   0  0  0  0  0  0  0  0  0  0  0  0
  140.2000   73.1950  222.3660 N   0  0  0  0  0  0  0  0  0  0  0  0
  140.1490   71.7520  222.2980 C   0  0  0  0  0  0  0  0  0  0  0  0
  139.7180   71.1720  223.6180 C   0  0  0  0  0  0  0  0  0  0  0  0
  140.3740   71.5370  224.6280 O   0  0  0  0  0  0  0  0  0  0  0  0
  138.6260   70.2640  223.6820 N   0  0  0  0  0  0  0  0  0  0  0  0
  138.1030   69.7100  222.4500 C   0  0  0  0  0  0  0  0  0  0  0  0
  137.1230   68.6060  222.6680 C   0  0  0  0  0  0  0  0  0  0  0  0
  136.1150   69.1060  223.6800 C   0  0  0  0  0  0  0  0  0  0  0  0
  136.8070   69.2150  224.9970 C   0  0  0  0  0  0  0  0  0  0  0  0
  138.1050   69.9480  224.9900 C   0  0  1  0  0  0  0  0  0  0  0  0
  139.1200   69.3080  225.8730 C   0  0  0  0  0  0  0  0  0  0  0  0
  139.5910   68.0330  225.6220 C   0  0  0  0  0  0  0  0  0  0  0  0
  140.5310   67.4450  226.4420 C   0  0  0  0  0  0  0  0  0  0  0  0
  141.0310   68.1320  227.5530 C   0  0  0  0  0  0  0  0  0  0  0  0
  140.5520   69.4110  227.7960 C   0  0  0  0  0  0  0  0  0  0  0  0
  139.6090   69.9920  226.9670 C   0  0  0  0  0  0  0  0  0  0  0  0
  141.1810   75.2970  221.3790 C   0  0  0  0  0  0  0  0  0  0  0  0
  141.9310   75.8360  220.3520 C   0  0  0  0  0  0  0  0  0  0  0  0
  142.1360   77.1890  220.2060 C   0  0  0  0  0  0  0  0  0  0  0  0
  141.5430   78.0080  221.1610 C   0  0  0  0  0  0  0  0  0  0  0  0
  141.7200   79.3590  221.0560 C   0  0  0  0  0  0  0  0  0  0  0  0
  141.1560   80.2260  221.9730 C   0  0  0  0  0  0  0  0  0  0  0  0
  141.4300   81.9350  221.7690 Cl  0  0  0  0  0  0  0  0  0  0  0  0
  140.4060   79.6930  223.0030 C   0  0  0  0  0  0  0  0  0  0  0  0
  140.2330   78.3080  223.0980 C   0  0  0  0  0  0  0  0  0  0  0  0
  140.7960   77.4530  222.1820 C   0  0  0  0  0  0  0  0  0  0  0  0
  140.6150   76.1070  222.2930 N   0  0  0  0  0  0  0  0  0  0  0  0
  139.6570   73.7630  223.0680 H   0  0  0  0  0  0  0  0  0  0  0  0
  139.4311   71.4523  221.5203 H   0  0  0  0  0  0  0  0  0  0  0  0
  141.1533   71.3737  222.0566 H   0  0  0  0  0  0  0  0  0  0  0  0
  137.6038   70.5143  221.8898 H   0  0  0  0  0  0  0  0  0  0  0  0
  138.9538   69.2856  221.8968 H   0  0  0  0  0  0  0  0  0  0  0  0
  136.6183   68.3562  221.7231 H   0  0  0  0  0  0  0  0  0  0  0  0
  137.6272   67.6980  223.0303 H   0  0  0  0  0  0  0  0  0  0  0  0
  135.7351   70.0920  223.3741 H   0  0  0  0  0  0  0  0  0  0  0  0
  135.2638   68.4128  223.7493 H   0  0  0  0  0  0  0  0  0  0  0  0
  136.1302   69.7340  225.6917 H   0  0  0  0  0  0  0  0  0  0  0  0
  137.0484   68.1836  225.2935 H   0  0  0  0  0  0  0  0  0  0  0  0
  137.8649   70.9305  225.4224 H   0  0  0  0  0  0  0  0  0  0  0  0
  139.2093   67.4775  224.7527 H   0  0  0  0  0  0  0  0  0  0  0  0
  140.8899   66.4290  226.2209 H   0  0  0  0  0  0  0  0  0  0  0  0
  141.7809   67.6723  228.2136 H   0  0  0  0  0  0  0  0  0  0  0  0
  140.9286   69.9732  228.6632 H   0  0  0  0  0  0  0  0  0  0  0  0
  139.2460   71.0079  227.1819 H   0  0  0  0  0  0  0  0  0  0  0  0
  142.3846   75.1535  219.6182 H   0  0  0  0  0  0  0  0  0  0  0  0
  142.7354   77.5998  219.3801 H   0  0  0  0  0  0  0  0  0  0  0  0
  142.3211   79.7631  220.2282 H   0  0  0  0  0  0  0  0  0  0  0  0
  139.9448   80.3574  223.7485 H   0  0  0  0  0  0  0  0  0  0  0  0
  139.6339   77.8952  223.9230 H   0  0  0  0  0  0  0  0  0  0  0  0
  1  2  2  0
  2  3  1  0
  3  4  1  0
  4  5  1  0
  5  6  2  0
  5  7  1  0
  7  8  1  0
  8  9  1  0
  9 10  1  0
 10 11  1  0
 11 12  1  0
 12 13  1  0
 13 14  2  0
 14 15  1  0
 15 16  2  0
 16 17  1  0
 17 18  2  0
  2 19  1  0
 19 20  2  0
 20 21  1  0
 21 22  2  0
 22 23  1  0
 23 24  2  0
 24 25  1  0
 24 26  1  0
 26 27  2  0
 27 28  1  0
 28 29  2  0
 12  7  1  0
 18 13  1  0
 29 19  1  0
 28 22  1  0
  3 30  1  0
  4 31  1  0
  4 32  1  0
  8 33  1  0
  8 34  1  0
  9 35  1  0
  9 36  1  0
 10 37  1  0
 10 38  1  0
 11 39  1  0
 11 40  1  0
 12 41  1  1
 14 42  1  0
 15 43  1  0
 16 44  1  0
 17 45  1  0
 18 46  1  0
 20 47  1  0
 21 48  1  0
 23 49  1  0
 26 50  1  0
 27 51  1  0
M  END
>  <meeko>  (13) 
{"free_energy": -8.57, "intermolecular_energy": -10.07, "internal_energy": -1.47, "cluster_size": 4, "cluster_id": 1, "rank_in_cluster": 4}

$$$$

     RDKit          3D

 51 54  0  0  0  0  0  0  0  0999 V2000
  140.4710   71.9010  220.9400 O   0  0  0  0  0  0  0  0  0  0  0  0
  140.1990   72.3370  222.0890 C   0  0  0  0  0  0  0  0  0  0  0  0
  139.8940   73.7400  222.1640 N   0  0  0  0  0  0  0  0  0  0  0  0
  139.9380   74.4700  220.9170 C   0  0  0  0  0  0  0  0  0  0  0  0
  140.8370   75.6700  221.0340 C   0  0  0  0  0  0  0  0  0  0  0  0
  140.9090   76.2040  222.1710 O   0  0  0  0  0  0  0  0  0  0  0  0
  141.5510   76.1470  219.9000 N   0  0  0  0  0  0  0  0  0  0  0  0
  141.5930   77.5740  219.6490 C   0  0  0  0  0  0  0  0  0  0  0  0
  142.5570   77.9550  218.5750 C   0  0  0  0  0  0  0  0  0  0  0  0
  142.2750   77.0560  217.3910 C   0  0  0  0  0  0  0  0  0  0  0  0
  142.7000   75.6740  217.7570 C   0  0  0  0  0  0  0  0  0  0  0  0
  142.1980   75.1640  219.0650 C   0  0  1  0  0  0  0  0  0  0  0  0
  143.2290   74.3770  219.7980 C   0  0  0  0  0  0  0  0  0  0  0  0
  144.4410   74.9350  220.1550 C   0  0  0  0  0  0  0  0  0  0  0  0
  145.3920   74.2020  220.8350 C   0  0  0  0  0  0  0  0  0  0  0  0
  145.1460   72.8690  221.1780 C   0  0  0  0  0  0  0  0  0  0  0  0
  143.9260   72.3180  220.8150 C   0  0  0  0  0  0  0  0  0  0  0  0
  142.9790   73.0620  220.1340 C   0  0  0  0  0  0  0  0  0  0  0  0
  140.1860   71.5000  223.2820 C   0  0  0  0  0  0  0  0  0  0  0  0
  139.6350   70.2400  223.1540 C   0  0  0  0  0  0  0  0  0  0  0  0
  139.5590   69.3470  224.1980 C   0  0  0  0  0  0  0  0  0  0  0  0
  140.0720   69.7790  225.4160 C   0  0  0  0  0  0  0  0  0  0  0  0
  140.0170   68.9250  226.4820 C   0  0  0  0  0  0  0  0  0  0  0  0
  140.5090   69.2960  227.7200 C   0  0  0  0  0  0  0  0  0  0  0  0
  140.4010   68.1490  229.0270 Cl  0  0  0  0  0  0  0  0  0  0  0  0
  141.0610   70.5550  227.8540 C   0  0  0  0  0  0  0  0  0  0  0  0
  141.1100   71.4180  226.7550 C   0  0  0  0  0  0  0  0  0  0  0  0
  140.6190   71.0420  225.5290 C   0  0  0  0  0  0  0  0  0  0  0  0
  140.6770   71.8980  224.4700 N   0  0  0  0  0  0  0  0  0  0  0  0
  139.6560   74.1850  223.0890 H   0  0  0  0  0  0  0  0  0  0  0  0
  140.3197   73.8089  220.1250 H   0  0  0  0  0  0  0  0  0  0  0  0
  138.9218   74.8124  220.6720 H   0  0  0  0  0  0  0  0  0  0  0  0
  140.5878   77.9059  219.3501 H   0  0  0  0  0  0  0  0  0  0  0  0
  141.9299   78.0589  220.5771 H   0  0  0  0  0  0  0  0  0  0  0  0
  142.4120   79.0083  218.2930 H   0  0  0  0  0  0  0  0  0  0  0  0
  143.5953   77.8385  218.9189 H   0  0  0  0  0  0  0  0  0  0  0  0
  141.1996   77.0680  217.1597 H   0  0  0  0  0  0  0  0  0  0  0  0
  142.8242   77.4049  216.5040 H   0  0  0  0  0  0  0  0  0  0  0  0
  142.3442   74.9924  216.9704 H   0  0  0  0  0  0  0  0  0  0  0  0
  143.7950   75.7147  217.8534 H   0  0  0  0  0  0  0  0  0  0  0  0
  141.3868   74.4720  218.7947 H   0  0  0  0  0  0  0  0  0  0  0  0
  144.6519   75.9822  219.8926 H   0  0  0  0  0  0  0  0  0  0  0  0
  146.3494   74.6692  221.1089 H   0  0  0  0  0  0  0  0  0  0  0  0
  145.8973   72.2753  221.7193 H   0  0  0  0  0  0  0  0  0  0  0  0
  143.7076   71.2712  221.0731 H   0  0  0  0  0  0  0  0  0  0  0  0
  142.0189   72.6016  219.8581 H   0  0  0  0  0  0  0  0  0  0  0  0
  139.2392   69.9368  222.1735 H   0  0  0  0  0  0  0  0  0  0  0  0
  139.1171   68.3471  224.0759 H   0  0  0  0  0  0  0  0  0  0  0  0
  139.5741   67.9264  226.3529 H   0  0  0  0  0  0  0  0  0  0  0  0
  141.4622   70.8788  228.8257 H   0  0  0  0  0  0  0  0  0  0  0  0
  141.5509   72.4186  226.8750 H   0  0  0  0  0  0  0  0  0  0  0  0
  1  2  2  0
  2  3  1  0
  3  4  1  0
  4  5  1  0
  5  6  2  0
  5  7  1  0
  7  8  1  0
  8  9  1  0
  9 10  1  0
 10 11  1  0
 11 12  1  0
 12 13  1  0
 13 14  2  0
 14 15  1  0
 15 16  2  0
 16 17  1  0
 17 18  2  0
  2 19  1  0
 19 20  2  0
 20 21  1  0
 21 22  2  0
 22 23  1  0
 23 24  2  0
 24 25  1  0
 24 26  1  0
 26 27  2  0
 27 28  1  0
 28 29  2  0
 12  7  1  0
 18 13  1  0
 29 19  1  0
 28 22  1  0
  3 30  1  0
  4 31  1  0
  4 32  1  0
  8 33  1  0
  8 34  1  0
  9 35  1  0
  9 36  1  0
 10 37  1  0
 10 38  1  0
 11 39  1  0
 11 40  1  0
 12 41  1  6
 14 42  1  0
 15 43  1  0
 16 44  1  0
 17 45  1  0
 18 46  1  0
 20 47  1  0
 21 48  1  0
 23 49  1  0
 26 50  1  0
 27 51  1  0
M  END
>  <meeko>  (14) 
{"free_energy": -8.37, "intermolecular_energy": -9.86, "internal_energy": -2.04, "cluster_size": 13, "cluster_id": 2, "rank_in_cluster": 7}

$$$$

     RDKit          3D

 51 54  0  0  0  0  0  0  0  0999 V2000
  140.3840   72.2010  220.8460 O   0  0  0  0  0  0  0  0  0  0  0  0
  140.1350   72.5940  222.0160 C   0  0  0  0  0  0  0  0  0  0  0  0
  139.8290   73.9930  222.1480 N   0  0  0  0  0  0  0  0  0  0  0  0
  139.8460   74.7680  220.9280 C   0  0  0  0  0  0  0  0  0  0  0  0
  140.9280   75.8120  220.9760 C   0  0  0  0  0  0  0  0  0  0  0  0
  141.1730   76.3090  222.1050 O   0  0  0  0  0  0  0  0  0  0  0  0
  141.6140   76.1920  219.7900 N   0  0  0  0  0  0  0  0  0  0  0  0
  141.6710   77.5950  219.4320 C   0  0  0  0  0  0  0  0  0  0  0  0
  142.6060   77.8790  218.3050 C   0  0  0  0  0  0  0  0  0  0  0  0
  142.2740   76.9010  217.1990 C   0  0  0  0  0  0  0  0  0  0  0  0
  142.6880   75.5420  217.6540 C   0  0  0  0  0  0  0  0  0  0  0  0
  142.2180   75.1390  219.0100 C   0  0  1  0  0  0  0  0  0  0  0  0
  143.2580   74.3890  219.7680 C   0  0  0  0  0  0  0  0  0  0  0  0
  144.4430   74.9880  220.1500 C   0  0  0  0  0  0  0  0  0  0  0  0
  145.4030   74.2890  220.8520 C   0  0  0  0  0  0  0  0  0  0  0  0
  145.1950   72.9490  221.1950 C   0  0  0  0  0  0  0  0  0  0  0  0
  144.0020   72.3560  220.8070 C   0  0  0  0  0  0  0  0  0  0  0  0
  143.0450   73.0670  220.1030 C   0  0  0  0  0  0  0  0  0  0  0  0
  140.1480   71.7130  223.1770 C   0  0  0  0  0  0  0  0  0  0  0  0
  139.6290   70.4450  223.0040 C   0  0  0  0  0  0  0  0  0  0  0  0
  139.5800   69.5130  224.0150 C   0  0  0  0  0  0  0  0  0  0  0  0
  140.0850   69.9130  225.2460 C   0  0  0  0  0  0  0  0  0  0  0  0
  140.0560   69.0200  226.2810 C   0  0  0  0  0  0  0  0  0  0  0  0
  140.5430   69.3580  227.5300 C   0  0  0  0  0  0  0  0  0  0  0  0
  140.4700   68.1620  228.7950 Cl  0  0  0  0  0  0  0  0  0  0  0  0
  141.0610   70.6260  227.7090 C   0  0  0  0  0  0  0  0  0  0  0  0
  141.0850   71.5290  226.6420 C   0  0  0  0  0  0  0  0  0  0  0  0
  140.5990   71.1860  225.4040 C   0  0  0  0  0  0  0  0  0  0  0  0
  140.6310   72.0810  224.3780 N   0  0  0  0  0  0  0  0  0  0  0  0
  139.6090   74.4030  223.0930 H   0  0  0  0  0  0  0  0  0  0  0  0
  140.0297   74.0966  220.0763 H   0  0  0  0  0  0  0  0  0  0  0  0
  138.8742   75.2709  220.8150 H   0  0  0  0  0  0  0  0  0  0  0  0
  140.6622   77.9219  219.1396 H   0  0  0  0  0  0  0  0  0  0  0  0
  142.0451   78.1405  220.3109 H   0  0  0  0  0  0  0  0  0  0  0  0
  142.4684   78.9112  217.9507 H   0  0  0  0  0  0  0  0  0  0  0  0
  143.6526   77.7694  218.6255 H   0  0  0  0  0  0  0  0  0  0  0  0
  141.1925   76.9154  216.9987 H   0  0  0  0  0  0  0  0  0  0  0  0
  142.8014   77.1739  216.2731 H   0  0  0  0  0  0  0  0  0  0  0  0
  142.2977   74.8108  216.9308 H   0  0  0  0  0  0  0  0  0  0  0  0
  143.7859   75.5698  217.7152 H   0  0  0  0  0  0  0  0  0  0  0  0
  141.3870   74.4453  218.8147 H   0  0  0  0  0  0  0  0  0  0  0  0
  144.6242   76.0413  219.8896 H   0  0  0  0  0  0  0  0  0  0  0  0
  146.3384   74.7888  221.1440 H   0  0  0  0  0  0  0  0  0  0  0  0
  145.9538   72.3828  221.7551 H   0  0  0  0  0  0  0  0  0  0  0  0
  143.8133   71.3030  221.0631 H   0  0  0  0  0  0  0  0  0  0  0  0
  142.1069   72.5741  219.8081 H   0  0  0  0  0  0  0  0  0  0  0  0
  139.2374   70.1678  222.0141 H   0  0  0  0  0  0  0  0  0  0  0  0
  139.1641   68.5069  223.8574 H   0  0  0  0  0  0  0  0  0  0  0  0
  139.6381   68.0157  226.1172 H   0  0  0  0  0  0  0  0  0  0  0  0
  141.4548   70.9253  228.6915 H   0  0  0  0  0  0  0  0  0  0  0  0
  141.5018   72.5351  226.7972 H   0  0  0  0  0  0  0  0  0  0  0  0
  1  2  2  0
  2  3  1  0
  3  4  1  0
  4  5  1  0
  5  6  2  0
  5  7  1  0
  7  8  1  0
  8  9  1  0
  9 10  1  0
 10 11  1  0
 11 12  1  0
 12 13  1  0
 13 14  2  0
 14 15  1  0
 15 16  2  0
 16 17  1  0
 17 18  2  0
  2 19  1  0
 19 20  2  0
 20 21  1  0
 21 22  2  0
 22 23  1  0
 23 24  2  0
 24 25  1  0
 24 26  1  0
 26 27  2  0
 27 28  1  0
 28 29  2  0
 12  7  1  0
 18 13  1  0
 29 19  1  0
 28 22  1  0
  3 30  1  0
  4 31  1  0
  4 32  1  0
  8 33  1  0
  8 34  1  0
  9 35  1  0
  9 36  1  0
 10 37  1  0
 10 38  1  0
 11 39  1  0
 11 40  1  0
 12 41  1  6
 14 42  1  0
 15 43  1  0
 16 44  1  0
 17 45  1  0
 18 46  1  0
 20 47  1  0
 21 48  1  0
 23 49  1  0
 26 50  1  0
 27 51  1  0
M  END
>  <meeko>  (15) 
{"free_energy": -8.33, "intermolecular_energy": -9.82, "internal_energy": -2.04, "cluster_size": 13, "cluster_id": 2, "rank_in_cluster": 11}

$$$$

     RDKit          3D

 51 54  0  0  0  0  0  0  0  0999 V2000
  139.9270   72.4230  220.9060 O   0  0  0  0  0  0  0  0  0  0  0  0
  139.8320   72.7860  222.1070 C   0  0  0  0  0  0  0  0  0  0  0  0
  139.6050   74.1910  222.3140 N   0  0  0  0  0  0  0  0  0  0  0  0
  139.5160   75.0050  221.1230 C   0  0  0  0  0  0  0  0  0  0  0  0
  140.1570   76.3470  221.3460 C   0  0  0  0  0  0  0  0  0  0  0  0
  140.3460   76.6820  222.5450 O   0  0  0  0  0  0  0  0  0  0  0  0
  140.5180   77.1640  220.2400 N   0  0  0  0  0  0  0  0  0  0  0  0
  139.7110   77.1110  219.0380 C   0  0  0  0  0  0  0  0  0  0  0  0
  140.0550   78.1740  218.0490 C   0  0  0  0  0  0  0  0  0  0  0  0
  141.5570   78.1420  217.8710 C   0  0  0  0  0  0  0  0  0  0  0  0
  142.1760   78.6360  219.1350 C   0  0  0  0  0  0  0  0  0  0  0  0
  141.6800   78.0060  220.3910 C   0  0  1  0  0  0  0  0  0  0  0  0
  141.5330   78.9930  221.4980 C   0  0  0  0  0  0  0  0  0  0  0  0
  140.4150   79.8000  221.5990 C   0  0  0  0  0  0  0  0  0  0  0  0
  140.2840   80.7120  222.6260 C   0  0  0  0  0  0  0  0  0  0  0  0
  141.2860   80.8390  223.5920 C   0  0  0  0  0  0  0  0  0  0  0  0
  142.4040   80.0250  223.4820 C   0  0  0  0  0  0  0  0  0  0  0  0
  142.5260   79.1130  222.4480 C   0  0  0  0  0  0  0  0  0  0  0  0
  139.9400   71.8670  223.2340 C   0  0  0  0  0  0  0  0  0  0  0  0
  139.5030   70.5730  223.0270 C   0  0  0  0  0  0  0  0  0  0  0  0
  139.5470   69.6040  224.0030 C   0  0  0  0  0  0  0  0  0  0  0  0
  140.0630   69.9930  225.2340 C   0  0  0  0  0  0  0  0  0  0  0  0
  140.1260   69.0640  226.2340 C   0  0  0  0  0  0  0  0  0  0  0  0
  140.6280   69.3880  227.4800 C   0  0  0  0  0  0  0  0  0  0  0  0
  140.6750   68.1450  228.7000 Cl  0  0  0  0  0  0  0  0  0  0  0  0
  141.0660   70.6810  227.6930 C   0  0  0  0  0  0  0  0  0  0  0  0
  140.9960   71.6220  226.6600 C   0  0  0  0  0  0  0  0  0  0  0  0
  140.4960   71.2910  225.4250 C   0  0  0  0  0  0  0  0  0  0  0  0
  140.4360   72.2230  224.4330 N   0  0  0  0  0  0  0  0  0  0  0  0
  139.5140   74.5770  223.2900 H   0  0  0  0  0  0  0  0  0  0  0  0
  140.0298   74.4925  220.2964 H   0  0  0  0  0  0  0  0  0  0  0  0
  138.4546   75.1570  220.8775 H   0  0  0  0  0  0  0  0  0  0  0  0
  139.8578   76.1303  218.5618 H   0  0  0  0  0  0  0  0  0  0  0  0
  138.6657   77.2727  219.3399 H   0  0  0  0  0  0  0  0  0  0  0  0
  139.5563   77.9730  217.0893 H   0  0  0  0  0  0  0  0  0  0  0  0
  139.7221   79.1613  218.4016 H   0  0  0  0  0  0  0  0  0  0  0  0
  141.8882   77.1126  217.6694 H   0  0  0  0  0  0  0  0  0  0  0  0
  141.8572   78.7749  217.0229 H   0  0  0  0  0  0  0  0  0  0  0  0
  143.2594   78.4563  219.0726 H   0  0  0  0  0  0  0  0  0  0  0  0
  141.9013   79.6988  219.2059 H   0  0  0  0  0  0  0  0  0  0  0  0
  142.4781   77.3052  220.6772 H   0  0  0  0  0  0  0  0  0  0  0  0
  139.6162   79.7135  220.8477 H   0  0  0  0  0  0  0  0  0  0  0  0
  139.3851   81.3432  222.6849 H   0  0  0  0  0  0  0  0  0  0  0  0
  141.1910   81.5627  224.4149 H   0  0  0  0  0  0  0  0  0  0  0  0
  143.2072   80.1058  224.2292 H   0  0  0  0  0  0  0  0  0  0  0  0
  143.4223   78.4786  222.3832 H   0  0  0  0  0  0  0  0  0  0  0  0
  139.1021   70.3054  222.0382 H   0  0  0  0  0  0  0  0  0  0  0  0
  139.1936   68.5786  223.8195 H   0  0  0  0  0  0  0  0  0  0  0  0
  139.7709   68.0404  226.0439 H   0  0  0  0  0  0  0  0  0  0  0  0
  141.4696   70.9705  228.6745 H   0  0  0  0  0  0  0  0  0  0  0  0
  141.3488   72.6480  226.8411 H   0  0  0  0  0  0  0  0  0  0  0  0
  1  2  2  0
  2  3  1  0
  3  4  1  0
  4  5  1  0
  5  6  2  0
  5  7  1  0
  7  8  1  0
  8  9  1  0
  9 10  1  0
 10 11  1  0
 11 12  1  0
 12 13  1  0
 13 14  2  0
 14 15  1  0
 15 16  2  0
 16 17  1  0
 17 18  2  0
  2 19  1  0
 19 20  2  0
 20 21  1  0
 21 22  2  0
 22 23  1  0
 23 24  2  0
 24 25  1  0
 24 26  1  0
 26 27  2  0
 27 28  1  0
 28 29  2  0
 12  7  1  0
 18 13  1  0
 29 19  1  0
 28 22  1  0
  3 30  1  0
  4 31  1  0
  4 32  1  0
  8 33  1  0
  8 34  1  0
  9 35  1  0
  9 36  1  0
 10 37  1  0
 10 38  1  0
 11 39  1  0
 11 40  1  0
 12 41  1  1
 14 42  1  0
 15 43  1  0
 16 44  1  0
 17 45  1  0
 18 46  1  0
 20 47  1  0
 21 48  1  0
 23 49  1  0
 26 50  1  0
 27 51  1  0
M  END
>  <meeko>  (16) 
{"free_energy": -8.41, "intermolecular_energy": -9.91, "internal_energy": -1.74, "cluster_size": 2, "cluster_id": 3, "rank_in_cluster": 1}

$$$$

     RDKit          3D

 51 54  0  0  0  0  0  0  0  0999 V2000
  140.3000   75.2720  219.2930 O   0  0  0  0  0  0  0  0  0  0  0  0
  140.7180   74.9580  220.4380 C   0  0  0  0  0  0  0  0  0  0  0  0
  141.7970   75.7610  220.9460 N   0  0  0  0  0  0  0  0  0  0  0  0
  142.2630   76.8230  220.0830 C   0  0  0  0  0  0  0  0  0  0  0  0
  141.4310   78.0630  220.2670 C   0  0  0  0  0  0  0  0  0  0  0  0
  140.6200   78.3320  219.3430 O   0  0  0  0  0  0  0  0  0  0  0  0
  141.5800   78.8620  221.4340 N   0  0  0  0  0  0  0  0  0  0  0  0
  142.1350   80.1940  221.3040 C   0  0  0  0  0  0  0  0  0  0  0  0
  142.0230   81.0040  222.5520 C   0  0  0  0  0  0  0  0  0  0  0  0
  142.5510   80.1470  223.6820 C   0  0  0  0  0  0  0  0  0  0  0  0
  141.5790   79.0380  223.9040 C   0  0  0  0  0  0  0  0  0  0  0  0
  141.1620   78.2840  222.6880 C   0  0  1  0  0  0  0  0  0  0  0  0
  139.7120   77.9400  222.7060 C   0  0  0  0  0  0  0  0  0  0  0  0
  138.7400   78.9220  222.7090 C   0  0  0  0  0  0  0  0  0  0  0  0
  137.3990   78.5980  222.7250 C   0  0  0  0  0  0  0  0  0  0  0  0
  136.9940   77.2590  222.7380 C   0  0  0  0  0  0  0  0  0  0  0  0
  137.9780   76.2810  222.7350 C   0  0  0  0  0  0  0  0  0  0  0  0
  139.3200   76.6170  222.7180 C   0  0  0  0  0  0  0  0  0  0  0  0
  140.1650   73.8590  221.2200 C   0  0  0  0  0  0  0  0  0  0  0  0
  138.9940   73.2910  220.7570 C   0  0  0  0  0  0  0  0  0  0  0  0
  138.3650   72.2480  221.3970 C   0  0  0  0  0  0  0  0  0  0  0  0
  138.9740   71.7800  222.5560 C   0  0  0  0  0  0  0  0  0  0  0  0
  138.3840   70.7440  223.2250 C   0  0  0  0  0  0  0  0  0  0  0  0
  138.9390   70.2340  224.3840 C   0  0  0  0  0  0  0  0  0  0  0  0
  138.1250   68.9130  225.1770 Cl  0  0  0  0  0  0  0  0  0  0  0  0
  140.1100   70.7980  224.8520 C   0  0  0  0  0  0  0  0  0  0  0  0
  140.7020   71.8570  224.1570 C   0  0  0  0  0  0  0  0  0  0  0  0
  140.1440   72.3580  223.0060 C   0  0  0  0  0  0  0  0  0  0  0  0
  140.7380   73.3910  222.3440 N   0  0  0  0  0  0  0  0  0  0  0  0
  142.2050   75.5650  221.8970 H   0  0  0  0  0  0  0  0  0  0  0  0
  143.3110   77.0522  220.3264 H   0  0  0  0  0  0  0  0  0  0  0  0
  142.1770   76.4919  219.0375 H   0  0  0  0  0  0  0  0  0  0  0  0
  143.1991   80.1047  221.0400 H   0  0  0  0  0  0  0  0  0  0  0  0
  141.5571   80.7134  220.5253 H   0  0  0  0  0  0  0  0  0  0  0  0
  142.6221   81.9221  222.4620 H   0  0  0  0  0  0  0  0  0  0  0  0
  140.9797   81.2997  222.7368 H   0  0  0  0  0  0  0  0  0  0  0  0
  143.5342   79.7346  223.4113 H   0  0  0  0  0  0  0  0  0  0  0  0
  142.6669   80.7460  224.5973 H   0  0  0  0  0  0  0  0  0  0  0  0
  142.0375   78.3230  224.6030 H   0  0  0  0  0  0  0  0  0  0  0  0
  140.6647   79.5158  224.2857 H   0  0  0  0  0  0  0  0  0  0  0  0
  141.7250   77.3408  222.7455 H   0  0  0  0  0  0  0  0  0  0  0  0
  139.0405   79.9801  222.6985 H   0  0  0  0  0  0  0  0  0  0  0  0
  136.6435   79.3975  222.7276 H   0  0  0  0  0  0  0  0  0  0  0  0
  135.9275   76.9897  222.7502 H   0  0  0  0  0  0  0  0  0  0  0  0
  137.6863   75.2205  222.7463 H   0  0  0  0  0  0  0  0  0  0  0  0
  140.0810   75.8227  222.7140 H   0  0  0  0  0  0  0  0  0  0  0  0
  138.5445   73.6902  219.8358 H   0  0  0  0  0  0  0  0  0  0  0  0
  137.4324   71.8089  221.0131 H   0  0  0  0  0  0  0  0  0  0  0  0
  137.4522   70.3089  222.8346 H   0  0  0  0  0  0  0  0  0  0  0  0
  140.5766   70.4141  225.7712 H   0  0  0  0  0  0  0  0  0  0  0  0
  141.6341   72.2982  224.5399 H   0  0  0  0  0  0  0  0  0  0  0  0
  1  2  2  0
  2  3  1  0
  3  4  1  0
  4  5  1  0
  5  6  2  0
  5  7  1  0
  7  8  1  0
  8  9  1  0
  9 10  1  0
 10 11  1  0
 11 12  1  0
 12 13  1  0
 13 14  2  0
 14 15  1  0
 15 16  2  0
 16 17  1  0
 17 18  2  0
  2 19  1  0
 19 20  2  0
 20 21  1  0
 21 22  2  0
 22 23  1  0
 23 24  2  0
 24 25  1  0
 24 26  1  0
 26 27  2  0
 27 28  1  0
 28 29  2  0
 12  7  1  0
 18 13  1  0
 29 19  1  0
 28 22  1  0
  3 30  1  0
  4 31  1  0
  4 32  1  0
  8 33  1  0
  8 34  1  0
  9 35  1  0
  9 36  1  0
 10 37  1  0
 10 38  1  0
 11 39  1  0
 11 40  1  0
 12 41  1  1
 14 42  1  0
 15 43  1  0
 16 44  1  0
 17 45  1  0
 18 46  1  0
 20 47  1  0
 21 48  1  0
 23 49  1  0
 26 50  1  0
 27 51  1  0
M  END
>  <meeko>  (17) 
{"free_energy": -7.48, "intermolecular_energy": -8.97, "internal_energy": -2.32, "cluster_size": 1, "cluster_id": 4, "rank_in_cluster": 1}

$$$$

     RDKit          3D

 51 54  0  0  0  0  0  0  0  0999 V2000
  140.2650   72.2820  220.8140 O   0  0  0  0  0  0  0  0  0  0  0  0
  140.0790   72.6790  221.9950 C   0  0  0  0  0  0  0  0  0  0  0  0
  139.8230   74.0870  222.1430 N   0  0  0  0  0  0  0  0  0  0  0  0
  139.8130   74.8650  220.9240 C   0  0  0  0  0  0  0  0  0  0  0  0
  140.8800   75.9240  220.9600 C   0  0  0  0  0  0  0  0  0  0  0  0
  141.1040   76.4520  222.0800 O   0  0  0  0  0  0  0  0  0  0  0  0
  141.5760   76.2830  219.7730 N   0  0  0  0  0  0  0  0  0  0  0  0
  141.6670   77.6830  219.4120 C   0  0  0  0  0  0  0  0  0  0  0  0
  142.6110   77.9420  218.2850 C   0  0  0  0  0  0  0  0  0  0  0  0
  142.2560   76.9680  217.1820 C   0  0  0  0  0  0  0  0  0  0  0  0
  142.6370   75.6010  217.6410 C   0  0  0  0  0  0  0  0  0  0  0  0
  142.1560   75.2130  218.9970 C   0  0  1  0  0  0  0  0  0  0  0  0
  143.1770   74.4410  219.7590 C   0  0  0  0  0  0  0  0  0  0  0  0
  144.3820   75.0080  220.1280 C   0  0  0  0  0  0  0  0  0  0  0  0
  145.3240   74.2890  220.8330 C   0  0  0  0  0  0  0  0  0  0  0  0
  145.0760   72.9600  221.1940 C   0  0  0  0  0  0  0  0  0  0  0  0
  143.8630   72.4000  220.8190 C   0  0  0  0  0  0  0  0  0  0  0  0
  142.9250   73.1310  220.1120 C   0  0  0  0  0  0  0  0  0  0  0  0
  140.1140   71.7950  223.1520 C   0  0  0  0  0  0  0  0  0  0  0  0
  139.6170   70.5180  222.9770 C   0  0  0  0  0  0  0  0  0  0  0  0
  139.5900   69.5810  223.9850 C   0  0  0  0  0  0  0  0  0  0  0  0
  140.0960   69.9860  225.2150 C   0  0  0  0  0  0  0  0  0  0  0  0
  140.0890   69.0890  226.2460 C   0  0  0  0  0  0  0  0  0  0  0  0
  140.5770   69.4300  227.4940 C   0  0  0  0  0  0  0  0  0  0  0  0
  140.5320   68.2290  228.7550 Cl  0  0  0  0  0  0  0  0  0  0  0  0
  141.0740   70.7070  227.6750 C   0  0  0  0  0  0  0  0  0  0  0  0
  141.0750   71.6140  226.6110 C   0  0  0  0  0  0  0  0  0  0  0  0
  140.5890   71.2670  225.3750 C   0  0  0  0  0  0  0  0  0  0  0  0
  140.5990   72.1670  224.3520 N   0  0  0  0  0  0  0  0  0  0  0  0
  139.6570   74.5000  223.0970 H   0  0  0  0  0  0  0  0  0  0  0  0
  139.9952   74.1979  220.0685 H   0  0  0  0  0  0  0  0  0  0  0  0
  138.8327   75.3541  220.8249 H   0  0  0  0  0  0  0  0  0  0  0  0
  140.6668   78.0333  219.1172 H   0  0  0  0  0  0  0  0  0  0  0  0
  142.0526   78.2215  220.2903 H   0  0  0  0  0  0  0  0  0  0  0  0
  142.4985   78.9761  217.9273 H   0  0  0  0  0  0  0  0  0  0  0  0
  143.6545   77.8094  218.6068 H   0  0  0  0  0  0  0  0  0  0  0  0
  141.1752   77.0077  216.9813 H   0  0  0  0  0  0  0  0  0  0  0  0
  142.7904   77.2251  216.2556 H   0  0  0  0  0  0  0  0  0  0  0  0
  142.2304   74.8774  216.9192 H   0  0  0  0  0  0  0  0  0  0  0  0
  143.7352   75.6029  217.7036 H   0  0  0  0  0  0  0  0  0  0  0  0
  141.3094   74.5380  218.8027 H   0  0  0  0  0  0  0  0  0  0  0  0
  144.5936   76.0522  219.8543 H   0  0  0  0  0  0  0  0  0  0  0  0
  146.2762   74.7630  221.1133 H   0  0  0  0  0  0  0  0  0  0  0  0
  145.8195   72.3773  221.7576 H   0  0  0  0  0  0  0  0  0  0  0  0
  143.6434   71.3564  221.0886 H   0  0  0  0  0  0  0  0  0  0  0  0
  141.9702   72.6640  219.8288 H   0  0  0  0  0  0  0  0  0  0  0  0
  139.2254   70.2374  221.9881 H   0  0  0  0  0  0  0  0  0  0  0  0
  139.1905   68.5685  223.8262 H   0  0  0  0  0  0  0  0  0  0  0  0
  139.6882   68.0781  226.0802 H   0  0  0  0  0  0  0  0  0  0  0  0
  141.4687   71.0097  228.6561 H   0  0  0  0  0  0  0  0  0  0  0  0
  141.4737   72.6272  226.7676 H   0  0  0  0  0  0  0  0  0  0  0  0
  1  2  2  0
  2  3  1  0
  3  4  1  0
  4  5  1  0
  5  6  2  0
  5  7  1  0
  7  8  1  0
  8  9  1  0
  9 10  1  0
 10 11  1  0
 11 12  1  0
 12 13  1  0
 13 14  2  0
 14 15  1  0
 15 16  2  0
 16 17  1  0
 17 18  2  0
  2 19  1  0
 19 20  2  0
 20 21  1  0
 21 22  2  0
 22 23  1  0
 23 24  2  0
 24 25  1  0
 24 26  1  0
 26 27  2  0
 27 28  1  0
 28 29  2  0
 12  7  1  0
 18 13  1  0
 29 19  1  0
 28 22  1  0
  3 30  1  0
  4 31  1  0
  4 32  1  0
  8 33  1  0
  8 34  1  0
  9 35  1  0
  9 36  1  0
 10 37  1  0
 10 38  1  0
 11 39  1  0
 11 40  1  0
 12 41  1  6
 14 42  1  0
 15 43  1  0
 16 44  1  0
 17 45  1  0
 18 46  1  0
 20 47  1  0
 21 48  1  0
 23 49  1  0
 26 50  1  0
 27 51  1  0
M  END
>  <meeko>  (18) 
{"free_energy": -8.25, "intermolecular_energy": -9.74, "internal_energy": -2.07, "cluster_size": 13, "cluster_id": 2, "rank_in_cluster": 12}

$$$$

     RDKit          3D

 51 54  0  0  0  0  0  0  0  0999 V2000
  140.4150   72.0100  220.9160 O   0  0  0  0  0  0  0  0  0  0  0  0
  140.1600   72.4310  222.0740 C   0  0  0  0  0  0  0  0  0  0  0  0
  139.8600   73.8340  222.1720 N   0  0  0  0  0  0  0  0  0  0  0  0
  139.8880   74.5800  220.9340 C   0  0  0  0  0  0  0  0  0  0  0  0
  140.8930   75.6970  221.0090 C   0  0  0  0  0  0  0  0  0  0  0  0
  141.0660   76.2160  222.1420 O   0  0  0  0  0  0  0  0  0  0  0  0
  141.5910   76.1150  219.8430 N   0  0  0  0  0  0  0  0  0  0  0  0
  141.6410   77.5280  219.5260 C   0  0  0  0  0  0  0  0  0  0  0  0
  142.5890   77.8520  218.4190 C   0  0  0  0  0  0  0  0  0  0  0  0
  142.2780   76.9030  217.2820 C   0  0  0  0  0  0  0  0  0  0  0  0
  142.6980   75.5350  217.7030 C   0  0  0  0  0  0  0  0  0  0  0  0
  142.2140   75.0890  219.0410 C   0  0  1  0  0  0  0  0  0  0  0  0
  143.2510   74.3260  219.7910 C   0  0  0  0  0  0  0  0  0  0  0  0
  144.4470   74.9100  220.1620 C   0  0  0  0  0  0  0  0  0  0  0  0
  145.4030   74.1990  220.8570 C   0  0  0  0  0  0  0  0  0  0  0  0
  145.1800   72.8630  221.2030 C   0  0  0  0  0  0  0  0  0  0  0  0
  143.9760   72.2850  220.8260 C   0  0  0  0  0  0  0  0  0  0  0  0
  143.0230   73.0080  220.1290 C   0  0  0  0  0  0  0  0  0  0  0  0
  140.1620   71.5780  223.2560 C   0  0  0  0  0  0  0  0  0  0  0  0
  139.6270   70.3120  223.1120 C   0  0  0  0  0  0  0  0  0  0  0  0
  139.5660   69.4040  224.1440 C   0  0  0  0  0  0  0  0  0  0  0  0
  140.0770   69.8270  225.3660 C   0  0  0  0  0  0  0  0  0  0  0  0
  140.0360   68.9590  226.4210 C   0  0  0  0  0  0  0  0  0  0  0  0
  140.5270   69.3190  227.6620 C   0  0  0  0  0  0  0  0  0  0  0  0
  140.4380   68.1540  228.9550 Cl  0  0  0  0  0  0  0  0  0  0  0  0
  141.0620   70.5840  227.8120 C   0  0  0  0  0  0  0  0  0  0  0  0
  141.0970   71.4620  226.7240 C   0  0  0  0  0  0  0  0  0  0  0  0
  140.6070   71.0960  225.4950 C   0  0  0  0  0  0  0  0  0  0  0  0
  140.6510   71.9670  224.4480 N   0  0  0  0  0  0  0  0  0  0  0  0
  139.6360   74.2670  223.1060 H   0  0  0  0  0  0  0  0  0  0  0  0
  140.1609   73.9034  220.1108 H   0  0  0  0  0  0  0  0  0  0  0  0
  138.8916   75.0119  220.7587 H   0  0  0  0  0  0  0  0  0  0  0  0
  140.6334   77.8552  219.2297 H   0  0  0  0  0  0  0  0  0  0  0  0
  141.9992   78.0510  220.4250 H   0  0  0  0  0  0  0  0  0  0  0  0
  142.4476   78.8928  218.0924 H   0  0  0  0  0  0  0  0  0  0  0  0
  143.6324   77.7420  218.7494 H   0  0  0  0  0  0  0  0  0  0  0  0
  141.1988   76.9144  217.0694 H   0  0  0  0  0  0  0  0  0  0  0  0
  142.8139   77.2063  216.3705 H   0  0  0  0  0  0  0  0  0  0  0  0
  142.3234   74.8218  216.9540 H   0  0  0  0  0  0  0  0  0  0  0  0
  143.7948   75.5702  217.7793 H   0  0  0  0  0  0  0  0  0  0  0  0
  141.3917   74.3941  218.8154 H   0  0  0  0  0  0  0  0  0  0  0  0
  144.6401   75.9604  219.8985 H   0  0  0  0  0  0  0  0  0  0  0  0
  146.3473   74.6865  221.1409 H   0  0  0  0  0  0  0  0  0  0  0  0
  145.9359   72.2874  221.7573 H   0  0  0  0  0  0  0  0  0  0  0  0
  143.7755   71.2350  221.0853 H   0  0  0  0  0  0  0  0  0  0  0  0
  142.0760   72.5275  219.8423 H   0  0  0  0  0  0  0  0  0  0  0  0
  139.2323   70.0170  222.1285 H   0  0  0  0  0  0  0  0  0  0  0  0
  139.1371   68.4000  224.0098 H   0  0  0  0  0  0  0  0  0  0  0  0
  139.6049   67.9568  226.2801 H   0  0  0  0  0  0  0  0  0  0  0  0
  141.4604   70.9006  228.7872 H   0  0  0  0  0  0  0  0  0  0  0  0
  141.5259   72.4663  226.8557 H   0  0  0  0  0  0  0  0  0  0  0  0
  1  2  2  0
  2  3  1  0
  3  4  1  0
  4  5  1  0
  5  6  2  0
  5  7  1  0
  7  8  1  0
  8  9  1  0
  9 10  1  0
 10 11  1  0
 11 12  1  0
 12 13  1  0
 13 14  2  0
 14 15  1  0
 15 16  2  0
 16 17  1  0
 17 18  2  0
  2 19  1  0
 19 20  2  0
 20 21  1  0
 21 22  2  0
 22 23  1  0
 23 24  2  0
 24 25  1  0
 24 26  1  0
 26 27  2  0
 27 28  1  0
 28 29  2  0
 12  7  1  0
 18 13  1  0
 29 19  1  0
 28 22  1  0
  3 30  1  0
  4 31  1  0
  4 32  1  0
  8 33  1  0
  8 34  1  0
  9 35  1  0
  9 36  1  0
 10 37  1  0
 10 38  1  0
 11 39  1  0
 11 40  1  0
 12 41  1  6
 14 42  1  0
 15 43  1  0
 16 44  1  0
 17 45  1  0
 18 46  1  0
 20 47  1  0
 21 48  1  0
 23 49  1  0
 26 50  1  0
 27 51  1  0
M  END
>  <meeko>  (19) 
{"free_energy": -8.36, "intermolecular_energy": -9.85, "internal_energy": -2.04, "cluster_size": 13, "cluster_id": 2, "rank_in_cluster": 9}

$$$$

     RDKit          3D

 51 54  0  0  0  0  0  0  0  0999 V2000
  139.9700   72.4700  220.8900 O   0  0  0  0  0  0  0  0  0  0  0  0
  139.8760   72.8280  222.0940 C   0  0  0  0  0  0  0  0  0  0  0  0
  139.6580   74.2330  222.3080 N   0  0  0  0  0  0  0  0  0  0  0  0
  139.5740   75.0540  221.1210 C   0  0  0  0  0  0  0  0  0  0  0  0
  140.0430   76.4540  221.4070 C   0  0  0  0  0  0  0  0  0  0  0  0
  140.0440   76.8050  222.6160 O   0  0  0  0  0  0  0  0  0  0  0  0
  140.4550   77.3060  220.3460 N   0  0  0  0  0  0  0  0  0  0  0  0
  139.6650   77.3450  219.1320 C   0  0  0  0  0  0  0  0  0  0  0  0
  140.0690   78.4370  218.2000 C   0  0  0  0  0  0  0  0  0  0  0  0
  141.5710   78.3460  218.0400 C   0  0  0  0  0  0  0  0  0  0  0  0
  142.1920   78.7530  219.3330 C   0  0  0  0  0  0  0  0  0  0  0  0
  141.6510   78.0870  220.5520 C   0  0  1  0  0  0  0  0  0  0  0  0
  141.5300   79.0270  221.7020 C   0  0  0  0  0  0  0  0  0  0  0  0
  142.4870   79.0720  222.6980 C   0  0  0  0  0  0  0  0  0  0  0  0
  142.3700   79.9440  223.7610 C   0  0  0  0  0  0  0  0  0  0  0  0
  141.2730   80.8070  223.8520 C   0  0  0  0  0  0  0  0  0  0  0  0
  140.3180   80.7530  222.8470 C   0  0  0  0  0  0  0  0  0  0  0  0
  140.4450   79.8750  221.7850 C   0  0  0  0  0  0  0  0  0  0  0  0
  139.9790   71.9030  223.2150 C   0  0  0  0  0  0  0  0  0  0  0  0
  139.5520   70.6070  222.9950 C   0  0  0  0  0  0  0  0  0  0  0  0
  139.5930   69.6320  223.9650 C   0  0  0  0  0  0  0  0  0  0  0  0
  140.0920   70.0170  225.2050 C   0  0  0  0  0  0  0  0  0  0  0  0
  140.1510   69.0810  226.1990 C   0  0  0  0  0  0  0  0  0  0  0  0
  140.6370   69.4010  227.4530 C   0  0  0  0  0  0  0  0  0  0  0  0
  140.6790   68.1510  228.6660 Cl  0  0  0  0  0  0  0  0  0  0  0  0
  141.0640   70.6960  227.6790 C   0  0  0  0  0  0  0  0  0  0  0  0
  140.9980   71.6430  226.6510 C   0  0  0  0  0  0  0  0  0  0  0  0
  140.5140   71.3170  225.4090 C   0  0  0  0  0  0  0  0  0  0  0  0
  140.4590   72.2550  224.4220 N   0  0  0  0  0  0  0  0  0  0  0  0
  139.5680   74.6150  223.2850 H   0  0  0  0  0  0  0  0  0  0  0  0
  140.2051   74.6158  220.3338 H   0  0  0  0  0  0  0  0  0  0  0  0
  138.5250   75.0933  220.7924 H   0  0  0  0  0  0  0  0  0  0  0  0
  139.7770   76.3825  218.6115 H   0  0  0  0  0  0  0  0  0  0  0  0
  138.6231   77.5377  219.4274 H   0  0  0  0  0  0  0  0  0  0  0  0
  139.5762   78.3041  217.2256 H   0  0  0  0  0  0  0  0  0  0  0  0
  139.7743   79.4204  218.5949 H   0  0  0  0  0  0  0  0  0  0  0  0
  141.8594   77.3132  217.7950 H   0  0  0  0  0  0  0  0  0  0  0  0
  141.9115   79.0032  217.2263 H   0  0  0  0  0  0  0  0  0  0  0  0
  143.2675   78.5294  219.2757 H   0  0  0  0  0  0  0  0  0  0  0  0
  141.9622   79.8223  219.4506 H   0  0  0  0  0  0  0  0  0  0  0  0
  142.4136   77.3392  220.8152 H   0  0  0  0  0  0  0  0  0  0  0  0
  143.3570   78.4011  222.6424 H   0  0  0  0  0  0  0  0  0  0  0  0
  143.1445   79.9606  224.5419 H   0  0  0  0  0  0  0  0  0  0  0  0
  141.1706   81.5069  224.6944 H   0  0  0  0  0  0  0  0  0  0  0  0
  139.4445   81.4199  222.8953 H   0  0  0  0  0  0  0  0  0  0  0  0
  139.6744   79.8530  221.0004 H   0  0  0  0  0  0  0  0  0  0  0  0
  139.1622   70.3434  222.0007 H   0  0  0  0  0  0  0  0  0  0  0  0
  139.2502   68.6050  223.7706 H   0  0  0  0  0  0  0  0  0  0  0  0
  139.8061   68.0560  225.9980 H   0  0  0  0  0  0  0  0  0  0  0  0
  141.4555   70.9820  228.6664 H   0  0  0  0  0  0  0  0  0  0  0  0
  141.3413   72.6704  226.8425 H   0  0  0  0  0  0  0  0  0  0  0  0
  1  2  2  0
  2  3  1  0
  3  4  1  0
  4  5  1  0
  5  6  2  0
  5  7  1  0
  7  8  1  0
  8  9  1  0
  9 10  1  0
 10 11  1  0
 11 12  1  0
 12 13  1  0
 13 14  2  0
 14 15  1  0
 15 16  2  0
 16 17  1  0
 17 18  2  0
  2 19  1  0
 19 20  2  0
 20 21  1  0
 21 22  2  0
 22 23  1  0
 23 24  2  0
 24 25  1  0
 24 26  1  0
 26 27  2  0
 27 28  1  0
 28 29  2  0
 12  7  1  0
 18 13  1  0
 29 19  1  0
 28 22  1  0
  3 30  1  0
  4 31  1  0
  4 32  1  0
  8 33  1  0
  8 34  1  0
  9 35  1  0
  9 36  1  0
 10 37  1  0
 10 38  1  0
 11 39  1  0
 11 40  1  0
 12 41  1  1
 14 42  1  0
 15 43  1  0
 16 44  1  0
 17 45  1  0
 18 46  1  0
 20 47  1  0
 21 48  1  0
 23 49  1  0
 26 50  1  0
 27 51  1  0
M  END
>  <meeko>  (20) 
{"free_energy": -8.39, "intermolecular_energy": -9.88, "internal_energy": -1.79, "cluster_size": 2, "cluster_id": 3, "rank_in_cluster": 2}

$$$$
