
     RDKit          3D

 48 51  0  0  0  0  0  0  0  0999 V2000
  139.6790   72.0910  220.7270 O   0  0  0  0  0  0  0  0  0  0  0  0
  139.3350   72.4160  221.8950 C   0  0  0  0  0  0  0  0  0  0  0  0
  138.7270   73.6810  222.0970 N   0  0  0  0  0  0  0  0  0  0  0  0
  138.5290   74.5340  220.9690 C   0  0  0  0  0  0  0  0  0  0  0  0
  138.4820   75.9610  221.2950 C   0  0  0  0  0  0  0  0  0  0  0  0
  137.3380   76.4970  221.4440 O   0  0  0  0  0  0  0  0  0  0  0  0
  139.6910   76.6950  221.4320 N   0  0  0  0  0  0  0  0  0  0  0  0
  140.2260   77.2570  222.6580 C   0  0  0  0  0  0  0  0  0  0  0  0
  141.3520   78.1780  222.2450 C   0  0  0  0  0  0  0  0  0  0  0  0
  141.0220   78.4250  220.7900 C   0  0  0  0  0  0  0  0  0  0  0  0
  140.6380   77.0300  220.3560 C   0  0  1  0  0  0  0  0  0  0  0  0
  141.7680   76.0850  220.3140 C   0  0  0  0  0  0  0  0  0  0  0  0
  141.6420   74.8320  220.8710 C   0  0  0  0  0  0  0  0  0  0  0  0
  142.6780   73.9000  220.8590 C   0  0  0  0  0  0  0  0  0  0  0  0
  143.8650   74.2630  220.2630 C   0  0  0  0  0  0  0  0  0  0  0  0
  145.1670   73.0740  220.2550 Cl  0  0  0  0  0  0  0  0  0  0  0  0
  144.0420   75.5050  219.6910 C   0  0  0  0  0  0  0  0  0  0  0  0
  142.9890   76.4030  219.7240 C   0  0  0  0  0  0  0  0  0  0  0  0
  139.5620   71.4980  223.0110 C   0  0  0  0  0  0  0  0  0  0  0  0
  139.2410   70.1750  222.8900 C   0  0  0  0  0  0  0  0  0  0  0  0
  139.4440   69.2770  223.9300 C   0  0  0  0  0  0  0  0  0  0  0  0
  139.9830   69.7210  225.1160 C   0  0  0  0  0  0  0  0  0  0  0  0
  140.1940   68.8450  226.1650 C   0  0  0  0  0  0  0  0  0  0  0  0
  140.7380   69.2940  227.3640 C   0  0  0  0  0  0  0  0  0  0  0  0
  141.0150   68.2080  228.7040 Cl  0  0  0  0  0  0  0  0  0  0  0  0
  141.0500   70.6470  227.4430 C   0  0  0  0  0  0  0  0  0  0  0  0
  140.8330   71.5030  226.3910 C   0  0  0  0  0  0  0  0  0  0  0  0
  140.2960   71.0560  225.2110 C   0  0  0  0  0  0  0  0  0  0  0  0
  140.0930   71.9230  224.1890 N   0  0  0  0  0  0  0  0  0  0  0  0
  138.4540   73.9130  223.0840 H   0  0  0  0  0  0  0  0  0  0  0  0
  139.3558   74.3688  220.2625 H   0  0  0  0  0  0  0  0  0  0  0  0
  137.5475   74.2745  220.5455 H   0  0  0  0  0  0  0  0  0  0  0  0
  139.4467   77.8225  223.1899 H   0  0  0  0  0  0  0  0  0  0  0  0
  140.5822   76.4689  223.3377 H   0  0  0  0  0  0  0  0  0  0  0  0
  141.3391   79.1131  222.8242 H   0  0  0  0  0  0  0  0  0  0  0  0
  142.3562   77.7614  222.4124 H   0  0  0  0  0  0  0  0  0  0  0  0
  140.1856   79.1304  220.6771 H   0  0  0  0  0  0  0  0  0  0  0  0
  141.8353   78.8800  220.2056 H   0  0  0  0  0  0  0  0  0  0  0  0
  140.2464   76.9733  219.3296 H   0  0  0  0  0  0  0  0  0  0  0  0
  140.6876   74.5563  221.3433 H   0  0  0  0  0  0  0  0  0  0  0  0
  142.5514   72.9054  221.3115 H   0  0  0  0  0  0  0  0  0  0  0  0
  144.9980   75.7761  219.2192 H   0  0  0  0  0  0  0  0  0  0  0  0
  143.1204   77.3968  219.2710 H   0  0  0  0  0  0  0  0  0  0  0  0
  138.8109   69.8121  221.9448 H   0  0  0  0  0  0  0  0  0  0  0  0
  139.1756   68.2174  223.8065 H   0  0  0  0  0  0  0  0  0  0  0  0
  139.9293   67.7835  226.0503 H   0  0  0  0  0  0  0  0  0  0  0  0
  141.4826   71.0426  228.3738 H   0  0  0  0  0  0  0  0  0  0  0  0
  141.0946   72.5662  226.4969 H   0  0  0  0  0  0  0  0  0  0  0  0
  1  2  2  0
  2  3  1  0
  3  4  1  0
  4  5  1  0
  5  6  2  0
  5  7  1  0
  7  8  1  0
  8  9  1  0
  9 10  1  0
 10 11  1  0
 11 12  1  0
 12 13  2  0
 13 14  1  0
 14 15  2  0
 15 16  1  0
 15 17  1  0
 17 18  2  0
  2 19  1  0
 19 20  2  0
 20 21  1  0
 21 22  2  0
 22 23  1  0
 23 24  2  0
 24 25  1  0
 24 26  1  0
 26 27  2  0
 27 28  1  0
 28 29  2  0
 11  7  1  0
 18 12  1  0
 29 19  1  0
 28 22  1  0
  3 30  1  0
  4 31  1  0
  4 32  1  0
  8 33  1  0
  8 34  1  0
  9 35  1  0
  9 36  1  0
 10 37  1  0
 10 38  1  0
 11 39  1  6
 13 40  1  0
 14 41  1  0
 17 42  1  0
 18 43  1  0
 20 44  1  0
 21 45  1  0
 23 46  1  0
 26 47  1  0
 27 48  1  0
M  END
>  <meeko>  (1) 
{"free_energy": -8.49, "intermolecular_energy": -9.98, "internal_energy": -1.67, "cluster_size": 13, "cluster_id": 2, "rank_in_cluster": 5}

$$$$

     RDKit          3D

 48 51  0  0  0  0  0  0  0  0999 V2000
  140.3340   72.0680  220.9500 O   0  0  0  0  0  0  0  0  0  0  0  0
  139.8040   72.3770  222.0500 C   0  0  0  0  0  0  0  0  0  0  0  0
  139.1310   73.6200  222.1550 N   0  0  0  0  0  0  0  0  0  0  0  0
  139.0800   74.4700  221.0090 C   0  0  0  0  0  0  0  0  0  0  0  0
  140.2390   75.3520  220.8620 C   0  0  0  0  0  0  0  0  0  0  0  0
  141.3770   74.8950  221.2010 O   0  0  0  0  0  0  0  0  0  0  0  0
  140.0660   76.6680  220.3550 N   0  0  0  0  0  0  0  0  0  0  0  0
  138.8060   77.3510  220.1380 C   0  0  0  0  0  0  0  0  0  0  0  0
  139.1270   78.5860  219.3260 C   0  0  0  0  0  0  0  0  0  0  0  0
  140.4740   78.2210  218.7430 C   0  0  0  0  0  0  0  0  0  0  0  0
  141.1340   77.5970  219.9500 C   0  0  1  0  0  0  0  0  0  0  0  0
  141.4520   78.5580  221.0200 C   0  0  0  0  0  0  0  0  0  0  0  0
  141.8210   79.8470  220.7060 C   0  0  0  0  0  0  0  0  0  0  0  0
  142.1320   80.7950  221.6780 C   0  0  0  0  0  0  0  0  0  0  0  0
  142.0610   80.4120  222.9990 C   0  0  0  0  0  0  0  0  0  0  0  0
  142.4560   81.6220  224.2190 Cl  0  0  0  0  0  0  0  0  0  0  0  0
  141.6960   79.1340  223.3670 C   0  0  0  0  0  0  0  0  0  0  0  0
  141.3950   78.2210  222.3710 C   0  0  0  0  0  0  0  0  0  0  0  0
  139.8870   71.4620  223.1890 C   0  0  0  0  0  0  0  0  0  0  0  0
  139.4580   70.1700  223.0680 C   0  0  0  0  0  0  0  0  0  0  0  0
  139.5240   69.2780  224.1290 C   0  0  0  0  0  0  0  0  0  0  0  0
  140.0350   69.6940  225.3390 C   0  0  0  0  0  0  0  0  0  0  0  0
  140.1090   68.8230  226.4090 C   0  0  0  0  0  0  0  0  0  0  0  0
  140.6240   69.2440  227.6310 C   0  0  0  0  0  0  0  0  0  0  0  0
  140.7310   68.1620  228.9990 Cl  0  0  0  0  0  0  0  0  0  0  0  0
  141.0500   70.5660  227.7090 C   0  0  0  0  0  0  0  0  0  0  0  0
  140.9670   71.4180  226.6350 C   0  0  0  0  0  0  0  0  0  0  0  0
  140.4590   70.9980  225.4330 C   0  0  0  0  0  0  0  0  0  0  0  0
  140.3890   71.8600  224.3900 N   0  0  0  0  0  0  0  0  0  0  0  0
  138.7020   73.8400  223.0880 H   0  0  0  0  0  0  0  0  0  0  0  0
  139.0134   73.8361  220.1125 H   0  0  0  0  0  0  0  0  0  0  0  0
  138.2027   75.1210  221.1380 H   0  0  0  0  0  0  0  0  0  0  0  0
  138.1111   76.7017  219.5853 H   0  0  0  0  0  0  0  0  0  0  0  0
  138.3241   77.6134  221.0914 H   0  0  0  0  0  0  0  0  0  0  0  0
  138.3794   78.7536  218.5366 H   0  0  0  0  0  0  0  0  0  0  0  0
  139.1283   79.5187  219.9092 H   0  0  0  0  0  0  0  0  0  0  0  0
  140.3776   77.5026  217.9156 H   0  0  0  0  0  0  0  0  0  0  0  0
  141.0268   79.0633  218.3015 H   0  0  0  0  0  0  0  0  0  0  0  0
  142.1153   77.1464  219.7401 H   0  0  0  0  0  0  0  0  0  0  0  0
  141.8721   80.1393  219.6468 H   0  0  0  0  0  0  0  0  0  0  0  0
  142.4252   81.8179  221.3991 H   0  0  0  0  0  0  0  0  0  0  0  0
  141.6452   78.8468  224.4276 H   0  0  0  0  0  0  0  0  0  0  0  0
  141.1022   77.1992  222.6543 H   0  0  0  0  0  0  0  0  0  0  0  0
  139.0501   69.8286  222.1052 H   0  0  0  0  0  0  0  0  0  0  0  0
  139.1701   68.2439  224.0046 H   0  0  0  0  0  0  0  0  0  0  0  0
  139.7575   67.7871  226.2937 H   0  0  0  0  0  0  0  0  0  0  0  0
  141.4648   70.9392  228.6570 H   0  0  0  0  0  0  0  0  0  0  0  0
  141.3145   72.4563  226.7412 H   0  0  0  0  0  0  0  0  0  0  0  0
  1  2  2  0
  2  3  1  0
  3  4  1  0
  4  5  1  0
  5  6  2  0
  5  7  1  0
  7  8  1  0
  8  9  1  0
  9 10  1  0
 10 11  1  0
 11 12  1  0
 12 13  2  0
 13 14  1  0
 14 15  2  0
 15 16  1  0
 15 17  1  0
 17 18  2  0
  2 19  1  0
 19 20  2  0
 20 21  1  0
 21 22  2  0
 22 23  1  0
 23 24  2  0
 24 25  1  0
 24 26  1  0
 26 27  2  0
 27 28  1  0
 28 29  2  0
 11  7  1  0
 18 12  1  0
 29 19  1  0
 28 22  1  0
  3 30  1  0
  4 31  1  0
  4 32  1  0
  8 33  1  0
  8 34  1  0
  9 35  1  0
  9 36  1  0
 10 37  1  0
 10 38  1  0
 11 39  1  6
 13 40  1  0
 14 41  1  0
 17 42  1  0
 18 43  1  0
 20 44  1  0
 21 45  1  0
 23 46  1  0
 26 47  1  0
 27 48  1  0
M  END
>  <meeko>  (2) 
{"free_energy": -8.64, "intermolecular_energy": -10.13, "internal_energy": -1.27, "cluster_size": 6, "cluster_id": 1, "rank_in_cluster": 3}

$$$$

     RDKit          3D

 48 51  0  0  0  0  0  0  0  0999 V2000
  139.4150   72.0640  220.7990 O   0  0  0  0  0  0  0  0  0  0  0  0
  139.4960   72.4860  221.9830 C   0  0  0  0  0  0  0  0  0  0  0  0
  139.3830   73.8800  222.2170 N   0  0  0  0  0  0  0  0  0  0  0  0
  139.1810   74.7480  221.1020 C   0  0  0  0  0  0  0  0  0  0  0  0
  140.3940   75.4210  220.6360 C   0  0  0  0  0  0  0  0  0  0  0  0
  141.4990   74.8040  220.7610 O   0  0  0  0  0  0  0  0  0  0  0  0
  140.3060   76.7210  220.0680 N   0  0  0  0  0  0  0  0  0  0  0  0
  139.0940   77.4130  219.6760 C   0  0  0  0  0  0  0  0  0  0  0  0
  139.5330   78.6140  218.8690 C   0  0  0  0  0  0  0  0  0  0  0  0
  140.9340   78.2110  218.4660 C   0  0  0  0  0  0  0  0  0  0  0  0
  141.4320   77.6210  219.7650 C   0  0  1  0  0  0  0  0  0  0  0  0
  141.6340   78.6150  220.8340 C   0  0  0  0  0  0  0  0  0  0  0  0
  141.5090   78.2450  222.1550 C   0  0  0  0  0  0  0  0  0  0  0  0
  141.6900   79.1430  223.2040 C   0  0  0  0  0  0  0  0  0  0  0  0
  142.0070   80.4460  222.8900 C   0  0  0  0  0  0  0  0  0  0  0  0
  142.2340   81.5720  224.2280 Cl  0  0  0  0  0  0  0  0  0  0  0  0
  142.1450   80.8670  221.5840 C   0  0  0  0  0  0  0  0  0  0  0  0
  141.9570   79.9440  220.5700 C   0  0  0  0  0  0  0  0  0  0  0  0
  139.7020   71.5470  223.0860 C   0  0  0  0  0  0  0  0  0  0  0  0
  139.3810   70.2270  222.9350 C   0  0  0  0  0  0  0  0  0  0  0  0
  139.5650   69.3100  223.9620 C   0  0  0  0  0  0  0  0  0  0  0  0
  140.0830   69.7310  225.1660 C   0  0  0  0  0  0  0  0  0  0  0  0
  140.2740   68.8360  226.2020 C   0  0  0  0  0  0  0  0  0  0  0  0
  140.7980   69.2620  227.4190 C   0  0  0  0  0  0  0  0  0  0  0  0
  141.0500   68.1510  228.7440 Cl  0  0  0  0  0  0  0  0  0  0  0  0
  141.1110   70.6130  227.5280 C   0  0  0  0  0  0  0  0  0  0  0  0
  140.9140   71.4880  226.4880 C   0  0  0  0  0  0  0  0  0  0  0  0
  140.3970   71.0640  225.2900 C   0  0  0  0  0  0  0  0  0  0  0  0
  140.2130   71.9490  224.2810 N   0  0  0  0  0  0  0  0  0  0  0  0
  139.4550   74.1900  223.2180 H   0  0  0  0  0  0  0  0  0  0  0  0
  138.7763   74.1524  220.2705 H   0  0  0  0  0  0  0  0  0  0  0  0
  138.4918   75.5370  221.4375 H   0  0  0  0  0  0  0  0  0  0  0  0
  138.4601   76.7542  219.0643 H   0  0  0  0  0  0  0  0  0  0  0  0
  138.5044   77.7152  220.5541 H   0  0  0  0  0  0  0  0  0  0  0  0
  138.8895   78.7642  217.9896 H   0  0  0  0  0  0  0  0  0  0  0  0
  139.4805   79.5662  219.4173 H   0  0  0  0  0  0  0  0  0  0  0  0
  140.9258   77.4653  217.6574 H   0  0  0  0  0  0  0  0  0  0  0  0
  141.5508   79.0297  218.0668 H   0  0  0  0  0  0  0  0  0  0  0  0
  142.4236   77.1506  219.6909 H   0  0  0  0  0  0  0  0  0  0  0  0
  141.2566   77.2005  222.3903 H   0  0  0  0  0  0  0  0  0  0  0  0
  141.5831   78.8217  224.2506 H   0  0  0  0  0  0  0  0  0  0  0  0
  142.3986   81.9123  221.3535 H   0  0  0  0  0  0  0  0  0  0  0  0
  142.0658   80.2695  219.5249 H   0  0  0  0  0  0  0  0  0  0  0  0
  138.9666   69.8822  221.9762 H   0  0  0  0  0  0  0  0  0  0  0  0
  139.2983   68.2531  223.8141 H   0  0  0  0  0  0  0  0  0  0  0  0
  140.0094   67.7773  226.0633 H   0  0  0  0  0  0  0  0  0  0  0  0
  141.5278   70.9909  228.4733 H   0  0  0  0  0  0  0  0  0  0  0  0
  141.1756   72.5485  226.6179 H   0  0  0  0  0  0  0  0  0  0  0  0
  1  2  2  0
  2  3  1  0
  3  4  1  0
  4  5  1  0
  5  6  2  0
  5  7  1  0
  7  8  1  0
  8  9  1  0
  9 10  1  0
 10 11  1  0
 11 12  1  0
 12 13  2  0
 13 14  1  0
 14 15  2  0
 15 16  1  0
 15 17  1  0
 17 18  2  0
  2 19  1  0
 19 20  2  0
 20 21  1  0
 21 22  2  0
 22 23  1  0
 23 24  2  0
 24 25  1  0
 24 26  1  0
 26 27  2  0
 27 28  1  0
 28 29  2  0
 11  7  1  0
 18 12  1  0
 29 19  1  0
 28 22  1  0
  3 30  1  0
  4 31  1  0
  4 32  1  0
  8 33  1  0
  8 34  1  0
  9 35  1  0
  9 36  1  0
 10 37  1  0
 10 38  1  0
 11 39  1  6
 13 40  1  0
 14 41  1  0
 17 42  1  0
 18 43  1  0
 20 44  1  0
 21 45  1  0
 23 46  1  0
 26 47  1  0
 27 48  1  0
M  END
>  <meeko>  (3) 
{"free_energy": -8.34, "intermolecular_energy": -9.83, "internal_energy": -1.43, "cluster_size": 6, "cluster_id": 1, "rank_in_cluster": 6}

$$$$

     RDKit          3D

 48 51  0  0  0  0  0  0  0  0999 V2000
  139.9560   72.2420  220.8100 O   0  0  0  0  0  0  0  0  0  0  0  0
  139.4760   72.4920  221.9480 C   0  0  0  0  0  0  0  0  0  0  0  0
  138.7390   73.6890  222.1270 N   0  0  0  0  0  0  0  0  0  0  0  0
  138.5700   74.5630  221.0100 C   0  0  0  0  0  0  0  0  0  0  0  0
  138.5290   75.9840  221.3580 C   0  0  0  0  0  0  0  0  0  0  0  0
  137.3890   76.5120  221.5600 O   0  0  0  0  0  0  0  0  0  0  0  0
  139.7400   76.7210  221.4590 N   0  0  0  0  0  0  0  0  0  0  0  0
  140.2930   77.3140  222.6610 C   0  0  0  0  0  0  0  0  0  0  0  0
  141.4120   78.2250  222.2090 C   0  0  0  0  0  0  0  0  0  0  0  0
  141.0590   78.4360  220.7540 C   0  0  0  0  0  0  0  0  0  0  0  0
  140.6710   77.0300  220.3600 C   0  0  1  0  0  0  0  0  0  0  0  0
  141.8000   76.0850  220.3250 C   0  0  0  0  0  0  0  0  0  0  0  0
  141.6690   74.8290  220.8750 C   0  0  0  0  0  0  0  0  0  0  0  0
  142.7040   73.8970  220.8690 C   0  0  0  0  0  0  0  0  0  0  0  0
  143.8970   74.2620  220.2850 C   0  0  0  0  0  0  0  0  0  0  0  0
  145.1980   73.0720  220.2850 Cl  0  0  0  0  0  0  0  0  0  0  0  0
  144.0800   75.5060  219.7200 C   0  0  0  0  0  0  0  0  0  0  0  0
  143.0270   76.4040  219.7470 C   0  0  0  0  0  0  0  0  0  0  0  0
  139.6820   71.5560  223.0540 C   0  0  0  0  0  0  0  0  0  0  0  0
  139.3430   70.2390  222.9140 C   0  0  0  0  0  0  0  0  0  0  0  0
  139.5260   69.3260  223.9440 C   0  0  0  0  0  0  0  0  0  0  0  0
  140.0630   69.7470  225.1400 C   0  0  0  0  0  0  0  0  0  0  0  0
  140.2530   68.8560  226.1790 C   0  0  0  0  0  0  0  0  0  0  0  0
  140.7950   69.2820  227.3880 C   0  0  0  0  0  0  0  0  0  0  0  0
  141.0460   68.1760  228.7160 Cl  0  0  0  0  0  0  0  0  0  0  0  0
  141.1260   70.6300  227.4860 C   0  0  0  0  0  0  0  0  0  0  0  0
  140.9280   71.5010  226.4430 C   0  0  0  0  0  0  0  0  0  0  0  0
  140.3940   71.0760  225.2540 C   0  0  0  0  0  0  0  0  0  0  0  0
  140.2110   71.9590  224.2410 N   0  0  0  0  0  0  0  0  0  0  0  0
  138.3560   73.8600  223.0900 H   0  0  0  0  0  0  0  0  0  0  0  0
  139.4088   74.4022  220.3167 H   0  0  0  0  0  0  0  0  0  0  0  0
  137.5943   74.3195  220.5643 H   0  0  0  0  0  0  0  0  0  0  0  0
  139.5213   77.8924  223.1901 H   0  0  0  0  0  0  0  0  0  0  0  0
  140.6605   76.5432  223.3543 H   0  0  0  0  0  0  0  0  0  0  0  0
  141.4074   79.1739  222.7654 H   0  0  0  0  0  0  0  0  0  0  0  0
  142.4191   77.8133  222.3713 H   0  0  0  0  0  0  0  0  0  0  0  0
  140.2195   79.1371  220.6370 H   0  0  0  0  0  0  0  0  0  0  0  0
  141.8622   78.8780  220.1462 H   0  0  0  0  0  0  0  0  0  0  0  0
  140.2652   76.9479  219.3409 H   0  0  0  0  0  0  0  0  0  0  0  0
  140.7100   74.5513  221.3368 H   0  0  0  0  0  0  0  0  0  0  0  0
  142.5729   72.9008  221.3166 H   0  0  0  0  0  0  0  0  0  0  0  0
  145.0405   75.7787  219.2584 H   0  0  0  0  0  0  0  0  0  0  0  0
  143.1629   77.3993  219.2987 H   0  0  0  0  0  0  0  0  0  0  0  0
  138.9145   69.8940  221.9615 H   0  0  0  0  0  0  0  0  0  0  0  0
  139.2435   68.2720  223.8053 H   0  0  0  0  0  0  0  0  0  0  0  0
  139.9732   67.8001  226.0493 H   0  0  0  0  0  0  0  0  0  0  0  0
  141.5580   71.0081  228.4243 H   0  0  0  0  0  0  0  0  0  0  0  0
  141.2029   72.5592  226.5637 H   0  0  0  0  0  0  0  0  0  0  0  0
  1  2  2  0
  2  3  1  0
  3  4  1  0
  4  5  1  0
  5  6  2  0
  5  7  1  0
  7  8  1  0
  8  9  1  0
  9 10  1  0
 10 11  1  0
 11 12  1  0
 12 13  2  0
 13 14  1  0
 14 15  2  0
 15 16  1  0
 15 17  1  0
 17 18  2  0
  2 19  1  0
 19 20  2  0
 20 21  1  0
 21 22  2  0
 22 23  1  0
 23 24  2  0
 24 25  1  0
 24 26  1  0
 26 27  2  0
 27 28  1  0
 28 29  2  0
 11  7  1  0
 18 12  1  0
 29 19  1  0
 28 22  1  0
  3 30  1  0
  4 31  1  0
  4 32  1  0
  8 33  1  0
  8 34  1  0
  9 35  1  0
  9 36  1  0
 10 37  1  0
 10 38  1  0
 11 39  1  6
 13 40  1  0
 14 41  1  0
 17 42  1  0
 18 43  1  0
 20 44  1  0
 21 45  1  0
 23 46  1  0
 26 47  1  0
 27 48  1  0
M  END
>  <meeko>  (4) 
{"free_energy": -8.54, "intermolecular_energy": -10.03, "internal_energy": -1.66, "cluster_size": 13, "cluster_id": 2, "rank_in_cluster": 1}

$$$$

     RDKit          3D

 48 51  0  0  0  0  0  0  0  0999 V2000
  139.2410   71.8960  220.6860 O   0  0  0  0  0  0  0  0  0  0  0  0
  139.1300   72.3160  221.8690 C   0  0  0  0  0  0  0  0  0  0  0  0
  138.7360   73.6620  222.0780 N   0  0  0  0  0  0  0  0  0  0  0  0
  138.4810   74.4860  220.9400 C   0  0  0  0  0  0  0  0  0  0  0  0
  138.4700   75.9210  221.2260 C   0  0  0  0  0  0  0  0  0  0  0  0
  137.3420   76.4780  221.4170 O   0  0  0  0  0  0  0  0  0  0  0  0
  139.6950   76.6400  221.2820 N   0  0  0  0  0  0  0  0  0  0  0  0
  140.2450   77.3190  222.4380 C   0  0  0  0  0  0  0  0  0  0  0  0
  141.3890   78.1670  221.9270 C   0  0  0  0  0  0  0  0  0  0  0  0
  141.0580   78.2630  220.4550 C   0  0  0  0  0  0  0  0  0  0  0  0
  140.6440   76.8370  220.1740 C   0  0  1  0  0  0  0  0  0  0  0  0
  141.7540   75.8700  220.2330 C   0  0  0  0  0  0  0  0  0  0  0  0
  142.9920   76.2070  219.7320 C   0  0  0  0  0  0  0  0  0  0  0  0
  144.0760   75.3310  219.7620 C   0  0  0  0  0  0  0  0  0  0  0  0
  143.8830   74.0870  220.3190 C   0  0  0  0  0  0  0  0  0  0  0  0
  145.2630   72.9890  220.3510 Cl  0  0  0  0  0  0  0  0  0  0  0  0
  142.6640   73.7010  220.8350 C   0  0  0  0  0  0  0  0  0  0  0  0
  141.6120   74.5990  220.7860 C   0  0  0  0  0  0  0  0  0  0  0  0
  139.4030   71.4230  222.9950 C   0  0  0  0  0  0  0  0  0  0  0  0
  139.0800   70.0970  222.9170 C   0  0  0  0  0  0  0  0  0  0  0  0
  139.3270   69.2240  223.9680 C   0  0  0  0  0  0  0  0  0  0  0  0
  139.9130   69.6940  225.1210 C   0  0  0  0  0  0  0  0  0  0  0  0
  140.1670   68.8430  226.1800 C   0  0  0  0  0  0  0  0  0  0  0  0
  140.7580   69.3190  227.3460 C   0  0  0  0  0  0  0  0  0  0  0  0
  141.0910   68.2640  228.6980 Cl  0  0  0  0  0  0  0  0  0  0  0  0
  141.0710   70.6740  227.3810 C   0  0  0  0  0  0  0  0  0  0  0  0
  140.8100   71.5060  226.3200 C   0  0  0  0  0  0  0  0  0  0  0  0
  140.2270   71.0310  225.1730 C   0  0  0  0  0  0  0  0  0  0  0  0
  139.9810   71.8750  224.1410 N   0  0  0  0  0  0  0  0  0  0  0  0
  138.6540   73.9720  223.0780 H   0  0  0  0  0  0  0  0  0  0  0  0
  139.2622   74.2900  220.1908 H   0  0  0  0  0  0  0  0  0  0  0  0
  137.4727   74.2280  220.5838 H   0  0  0  0  0  0  0  0  0  0  0  0
  139.4792   77.9547  222.9066 H   0  0  0  0  0  0  0  0  0  0  0  0
  140.5873   76.6014  223.1982 H   0  0  0  0  0  0  0  0  0  0  0  0
  141.3978   79.1589  222.4025 H   0  0  0  0  0  0  0  0  0  0  0  0
  142.3851   77.7502  222.1367 H   0  0  0  0  0  0  0  0  0  0  0  0
  140.2355   78.9692  220.2687 H   0  0  0  0  0  0  0  0  0  0  0  0
  141.8779   78.6359  219.8235 H   0  0  0  0  0  0  0  0  0  0  0  0
  140.2476   76.6781  219.1603 H   0  0  0  0  0  0  0  0  0  0  0  0
  143.1306   77.2054  219.2915 H   0  0  0  0  0  0  0  0  0  0  0  0
  145.0543   75.6244  219.3536 H   0  0  0  0  0  0  0  0  0  0  0  0
  142.5307   72.7020  221.2756 H   0  0  0  0  0  0  0  0  0  0  0  0
  140.6356   74.3007  221.1954 H   0  0  0  0  0  0  0  0  0  0  0  0
  138.6127   69.7120  221.9986 H   0  0  0  0  0  0  0  0  0  0  0  0
  139.0556   68.1617  223.8794 H   0  0  0  0  0  0  0  0  0  0  0  0
  139.8993   67.7791  226.1001 H   0  0  0  0  0  0  0  0  0  0  0  0
  141.5408   71.0908  228.2840 H   0  0  0  0  0  0  0  0  0  0  0  0
  141.0730   72.5717  226.3913 H   0  0  0  0  0  0  0  0  0  0  0  0
  1  2  2  0
  2  3  1  0
  3  4  1  0
  4  5  1  0
  5  6  2  0
  5  7  1  0
  7  8  1  0
  8  9  1  0
  9 10  1  0
 10 11  1  0
 11 12  1  0
 12 13  2  0
 13 14  1  0
 14 15  2  0
 15 16  1  0
 15 17  1  0
 17 18  2  0
  2 19  1  0
 19 20  2  0
 20 21  1  0
 21 22  2  0
 22 23  1  0
 23 24  2  0
 24 25  1  0
 24 26  1  0
 26 27  2  0
 27 28  1  0
 28 29  2  0
 11  7  1  0
 18 12  1  0
 29 19  1  0
 28 22  1  0
  3 30  1  0
  4 31  1  0
  4 32  1  0
  8 33  1  0
  8 34  1  0
  9 35  1  0
  9 36  1  0
 10 37  1  0
 10 38  1  0
 11 39  1  6
 13 40  1  0
 14 41  1  0
 17 42  1  0
 18 43  1  0
 20 44  1  0
 21 45  1  0
 23 46  1  0
 26 47  1  0
 27 48  1  0
M  END
>  <meeko>  (5) 
{"free_energy": -8.47, "intermolecular_energy": -9.96, "internal_energy": -1.7, "cluster_size": 13, "cluster_id": 2, "rank_in_cluster": 6}

$$$$

     RDKit          3D

 48 51  0  0  0  0  0  0  0  0999 V2000
  139.9860   72.2960  220.8190 O   0  0  0  0  0  0  0  0  0  0  0  0
  139.4930   72.5330  221.9540 C   0  0  0  0  0  0  0  0  0  0  0  0
  138.7410   73.7220  222.1330 N   0  0  0  0  0  0  0  0  0  0  0  0
  138.5730   74.6000  221.0200 C   0  0  0  0  0  0  0  0  0  0  0  0
  138.5460   76.0200  221.3740 C   0  0  0  0  0  0  0  0  0  0  0  0
  137.4130   76.5520  221.6070 O   0  0  0  0  0  0  0  0  0  0  0  0
  139.7610   76.7540  221.4440 N   0  0  0  0  0  0  0  0  0  0  0  0
  140.3270   77.3760  222.6260 C   0  0  0  0  0  0  0  0  0  0  0  0
  141.4470   78.2690  222.1400 C   0  0  0  0  0  0  0  0  0  0  0  0
  141.0830   78.4430  220.6820 C   0  0  0  0  0  0  0  0  0  0  0  0
  140.6840   77.0290  220.3300 C   0  0  1  0  0  0  0  0  0  0  0  0
  141.8080   76.0770  220.3100 C   0  0  0  0  0  0  0  0  0  0  0  0
  141.6690   74.8300  220.8780 C   0  0  0  0  0  0  0  0  0  0  0  0
  142.6990   73.8920  220.8870 C   0  0  0  0  0  0  0  0  0  0  0  0
  143.8950   74.2430  220.3010 C   0  0  0  0  0  0  0  0  0  0  0  0
  145.1900   73.0460  220.3190 Cl  0  0  0  0  0  0  0  0  0  0  0  0
  144.0860   75.4780  219.7190 C   0  0  0  0  0  0  0  0  0  0  0  0
  143.0380   76.3820  219.7300 C   0  0  0  0  0  0  0  0  0  0  0  0
  139.6980   71.5930  223.0570 C   0  0  0  0  0  0  0  0  0  0  0  0
  139.3660   70.2760  222.9090 C   0  0  0  0  0  0  0  0  0  0  0  0
  139.5490   69.3590  223.9350 C   0  0  0  0  0  0  0  0  0  0  0  0
  140.0790   69.7760  225.1350 C   0  0  0  0  0  0  0  0  0  0  0  0
  140.2690   68.8810  226.1710 C   0  0  0  0  0  0  0  0  0  0  0  0
  140.8030   69.3030  227.3840 C   0  0  0  0  0  0  0  0  0  0  0  0
  141.0540   68.1910  228.7080 Cl  0  0  0  0  0  0  0  0  0  0  0  0
  141.1270   70.6520  227.4900 C   0  0  0  0  0  0  0  0  0  0  0  0
  140.9300   71.5280  226.4510 C   0  0  0  0  0  0  0  0  0  0  0  0
  140.4030   71.1060  225.2570 C   0  0  0  0  0  0  0  0  0  0  0  0
  140.2200   71.9930  224.2480 N   0  0  0  0  0  0  0  0  0  0  0  0
  138.3470   73.8820  223.0940 H   0  0  0  0  0  0  0  0  0  0  0  0
  139.4064   74.4345  220.3214 H   0  0  0  0  0  0  0  0  0  0  0  0
  137.5932   74.3660  220.5782 H   0  0  0  0  0  0  0  0  0  0  0  0
  139.5626   77.9722  223.1458 H   0  0  0  0  0  0  0  0  0  0  0  0
  140.6962   76.6221  223.3369 H   0  0  0  0  0  0  0  0  0  0  0  0
  141.4518   79.2325  222.6707 H   0  0  0  0  0  0  0  0  0  0  0  0
  142.4533   77.8563  222.3048 H   0  0  0  0  0  0  0  0  0  0  0  0
  140.2465   79.1456  220.5529 H   0  0  0  0  0  0  0  0  0  0  0  0
  141.8834   78.8639  220.0557 H   0  0  0  0  0  0  0  0  0  0  0  0
  140.2685   76.9222  219.3171 H   0  0  0  0  0  0  0  0  0  0  0  0
  140.7078   74.5645  221.3424 H   0  0  0  0  0  0  0  0  0  0  0  0
  142.5615   72.9025  221.3474 H   0  0  0  0  0  0  0  0  0  0  0  0
  145.0493   75.7390  219.2564 H   0  0  0  0  0  0  0  0  0  0  0  0
  143.1800   77.3699  219.2675 H   0  0  0  0  0  0  0  0  0  0  0  0
  138.9431   69.9337  221.9529 H   0  0  0  0  0  0  0  0  0  0  0  0
  139.2719   68.3044  223.7898 H   0  0  0  0  0  0  0  0  0  0  0  0
  139.9951   67.8244  226.0348 H   0  0  0  0  0  0  0  0  0  0  0  0
  141.5528   71.0272  228.4323 H   0  0  0  0  0  0  0  0  0  0  0  0
  141.1996   72.5868  226.5785 H   0  0  0  0  0  0  0  0  0  0  0  0
  1  2  2  0
  2  3  1  0
  3  4  1  0
  4  5  1  0
  5  6  2  0
  5  7  1  0
  7  8  1  0
  8  9  1  0
  9 10  1  0
 10 11  1  0
 11 12  1  0
 12 13  2  0
 13 14  1  0
 14 15  2  0
 15 16  1  0
 15 17  1  0
 17 18  2  0
  2 19  1  0
 19 20  2  0
 20 21  1  0
 21 22  2  0
 22 23  1  0
 23 24  2  0
 24 25  1  0
 24 26  1  0
 26 27  2  0
 27 28  1  0
 28 29  2  0
 11  7  1  0
 18 12  1  0
 29 19  1  0
 28 22  1  0
  3 30  1  0
  4 31  1  0
  4 32  1  0
  8 33  1  0
  8 34  1  0
  9 35  1  0
  9 36  1  0
 10 37  1  0
 10 38  1  0
 11 39  1  6
 13 40  1  0
 14 41  1  0
 17 42  1  0
 18 43  1  0
 20 44  1  0
 21 45  1  0
 23 46  1  0
 26 47  1  0
 27 48  1  0
M  END
>  <meeko>  (6) 
{"free_energy": -8.54, "intermolecular_energy": -10.03, "internal_energy": -1.66, "cluster_size": 13, "cluster_id": 2, "rank_in_cluster": 2}

$$$$

     RDKit          3D

 48 51  0  0  0  0  0  0  0  0999 V2000
  140.7700   73.2300  221.8240 O   0  0  0  0  0  0  0  0  0  0  0  0
  139.7850   72.8790  222.5280 C   0  0  0  0  0  0  0  0  0  0  0  0
  138.5250   73.4800  222.2800 N   0  0  0  0  0  0  0  0  0  0  0  0
  138.4230   74.4570  221.2440 C   0  0  0  0  0  0  0  0  0  0  0  0
  138.7580   75.8180  221.6650 C   0  0  0  0  0  0  0  0  0  0  0  0
  138.2550   76.2410  222.7550 O   0  0  0  0  0  0  0  0  0  0  0  0
  139.6160   76.6160  220.8610 N   0  0  0  0  0  0  0  0  0  0  0  0
  139.2220   77.4570  219.7480 C   0  0  0  0  0  0  0  0  0  0  0  0
  140.5000   77.8570  219.0440 C   0  0  0  0  0  0  0  0  0  0  0  0
  141.4600   76.7970  219.5390 C   0  0  0  0  0  0  0  0  0  0  0  0
  141.0770   76.7420  220.9990 C   0  0  1  0  0  0  0  0  0  0  0  0
  141.4460   77.9480  221.7600 C   0  0  0  0  0  0  0  0  0  0  0  0
  141.0850   78.0690  223.0840 C   0  0  0  0  0  0  0  0  0  0  0  0
  141.4090   79.1870  223.8500 C   0  0  0  0  0  0  0  0  0  0  0  0
  142.1190   80.1990  223.2440 C   0  0  0  0  0  0  0  0  0  0  0  0
  142.5220   81.6080  224.2250 Cl  0  0  0  0  0  0  0  0  0  0  0  0
  142.5050   80.1270  221.9220 C   0  0  0  0  0  0  0  0  0  0  0  0
  142.1640   79.0000  221.1950 C   0  0  0  0  0  0  0  0  0  0  0  0
  139.9510   71.8710  223.5750 C   0  0  0  0  0  0  0  0  0  0  0  0
  139.6510   70.5610  223.3240 C   0  0  0  0  0  0  0  0  0  0  0  0
  139.7980   69.5810  224.2960 C   0  0  0  0  0  0  0  0  0  0  0  0
  140.2590   69.9250  225.5460 C   0  0  0  0  0  0  0  0  0  0  0  0
  140.4120   68.9650  226.5300 C   0  0  0  0  0  0  0  0  0  0  0  0
  140.8770   69.3140  227.7930 C   0  0  0  0  0  0  0  0  0  0  0  0
  141.0810   68.1200  229.0530 Cl  0  0  0  0  0  0  0  0  0  0  0  0
  141.1710   70.6570  228.0040 C   0  0  0  0  0  0  0  0  0  0  0  0
  141.0120   71.5970  227.0160 C   0  0  0  0  0  0  0  0  0  0  0  0
  140.5530   71.2490  225.7720 C   0  0  0  0  0  0  0  0  0  0  0  0
  140.4050   72.1970  224.8150 N   0  0  0  0  0  0  0  0  0  0  0  0
  137.7300   73.1600  222.8880 H   0  0  0  0  0  0  0  0  0  0  0  0
  139.1062   74.1698  220.4311 H   0  0  0  0  0  0  0  0  0  0  0  0
  137.3689   74.4747  220.9302 H   0  0  0  0  0  0  0  0  0  0  0  0
  138.5680   76.8989  219.0619 H   0  0  0  0  0  0  0  0  0  0  0  0
  138.6625   78.3393  220.0923 H   0  0  0  0  0  0  0  0  0  0  0  0
  140.3861   77.8173  217.9506 H   0  0  0  0  0  0  0  0  0  0  0  0
  140.8233   78.8877  219.2516 H   0  0  0  0  0  0  0  0  0  0  0  0
  141.2932   75.8318  219.0384 H   0  0  0  0  0  0  0  0  0  0  0  0
  142.5216   77.0149  219.3507 H   0  0  0  0  0  0  0  0  0  0  0  0
  141.5827   75.9442  221.5626 H   0  0  0  0  0  0  0  0  0  0  0  0
  140.5192   77.2515  223.5546 H   0  0  0  0  0  0  0  0  0  0  0  0
  141.1071   79.2587  224.9053 H   0  0  0  0  0  0  0  0  0  0  0  0
  143.0712   80.9469  221.4559 H   0  0  0  0  0  0  0  0  0  0  0  0
  142.4687   78.9327  220.1402 H   0  0  0  0  0  0  0  0  0  0  0  0
  139.2839   70.2765  222.3269 H   0  0  0  0  0  0  0  0  0  0  0  0
  139.5472   68.5345  224.0681 H   0  0  0  0  0  0  0  0  0  0  0  0
  140.1636   67.9160  226.3113 H   0  0  0  0  0  0  0  0  0  0  0  0
  141.5412   70.9748  228.9899 H   0  0  0  0  0  0  0  0  0  0  0  0
  141.2573   72.6484  227.2264 H   0  0  0  0  0  0  0  0  0  0  0  0
  1  2  2  0
  2  3  1  0
  3  4  1  0
  4  5  1  0
  5  6  2  0
  5  7  1  0
  7  8  1  0
  8  9  1  0
  9 10  1  0
 10 11  1  0
 11 12  1  0
 12 13  2  0
 13 14  1  0
 14 15  2  0
 15 16  1  0
 15 17  1  0
 17 18  2  0
  2 19  1  0
 19 20  2  0
 20 21  1  0
 21 22  2  0
 22 23  1  0
 23 24  2  0
 24 25  1  0
 24 26  1  0
 26 27  2  0
 27 28  1  0
 28 29  2  0
 11  7  1  0
 18 12  1  0
 29 19  1  0
 28 22  1  0
  3 30  1  0
  4 31  1  0
  4 32  1  0
  8 33  1  0
  8 34  1  0
  9 35  1  0
  9 36  1  0
 10 37  1  0
 10 38  1  0
 11 39  1  1
 13 40  1  0
 14 41  1  0
 17 42  1  0
 18 43  1  0
 20 44  1  0
 21 45  1  0
 23 46  1  0
 26 47  1  0
 27 48  1  0
M  END
>  <meeko>  (7) 
{"free_energy": -8.71, "intermolecular_energy": -10.2, "internal_energy": -1.24, "cluster_size": 6, "cluster_id": 1, "rank_in_cluster": 2}

$$$$

     RDKit          3D

 48 51  0  0  0  0  0  0  0  0999 V2000
  141.0840   72.9720  220.3480 O   0  0  0  0  0  0  0  0  0  0  0  0
  141.6550   73.9860  220.8320 C   0  0  0  0  0  0  0  0  0  0  0  0
  143.0720   74.0280  220.8420 N   0  0  0  0  0  0  0  0  0  0  0  0
  143.7940   72.9210  220.3030 C   0  0  0  0  0  0  0  0  0  0  0  0
  144.4450   73.1940  219.0210 C   0  0  0  0  0  0  0  0  0  0  0  0
  145.6770   72.8990  218.9070 O   0  0  0  0  0  0  0  0  0  0  0  0
  143.6980   73.7720  217.9580 N   0  0  0  0  0  0  0  0  0  0  0  0
  142.4110   73.3240  217.4640 C   0  0  0  0  0  0  0  0  0  0  0  0
  142.1770   74.0590  216.1630 C   0  0  0  0  0  0  0  0  0  0  0  0
  143.5820   74.4830  215.7990 C   0  0  0  0  0  0  0  0  0  0  0  0
  144.0880   74.9390  217.1480 C   0  0  1  0  0  0  0  0  0  0  0  0
  143.4530   76.1740  217.6380 C   0  0  0  0  0  0  0  0  0  0  0  0
  143.1630   76.3190  218.9760 C   0  0  0  0  0  0  0  0  0  0  0  0
  142.5640   77.4660  219.4930 C   0  0  0  0  0  0  0  0  0  0  0  0
  142.2580   78.4840  218.6170 C   0  0  0  0  0  0  0  0  0  0  0  0
  141.5010   79.9300  219.2840 Cl  0  0  0  0  0  0  0  0  0  0  0  0
  142.5290   78.3890  217.2680 C   0  0  0  0  0  0  0  0  0  0  0  0
  143.1240   77.2330  216.7940 C   0  0  0  0  0  0  0  0  0  0  0  0
  140.8600   75.0910  221.3690 C   0  0  0  0  0  0  0  0  0  0  0  0
  139.4950   75.0480  221.3140 C   0  0  0  0  0  0  0  0  0  0  0  0
  138.7120   76.0800  221.8140 C   0  0  0  0  0  0  0  0  0  0  0  0
  139.3160   77.1780  222.3840 C   0  0  0  0  0  0  0  0  0  0  0  0
  138.5570   78.2180  222.8880 C   0  0  0  0  0  0  0  0  0  0  0  0
  139.1680   79.3270  223.4620 C   0  0  0  0  0  0  0  0  0  0  0  0
  138.2310   80.6540  224.1070 Cl  0  0  0  0  0  0  0  0  0  0  0  0
  140.5590   79.3290  223.4970 C   0  0  0  0  0  0  0  0  0  0  0  0
  141.2970   78.2880  222.9900 C   0  0  0  0  0  0  0  0  0  0  0  0
  140.6900   77.1960  222.4250 C   0  0  0  0  0  0  0  0  0  0  0  0
  141.4440   76.1830  221.9330 N   0  0  0  0  0  0  0  0  0  0  0  0
  143.5080   74.8910  221.2530 H   0  0  0  0  0  0  0  0  0  0  0  0
  144.5685   72.6290  221.0275 H   0  0  0  0  0  0  0  0  0  0  0  0
  143.0584   72.1240  220.1196 H   0  0  0  0  0  0  0  0  0  0  0  0
  142.4266   72.2379  217.2905 H   0  0  0  0  0  0  0  0  0  0  0  0
  141.6103   73.5301  218.1895 H   0  0  0  0  0  0  0  0  0  0  0  0
  141.7468   73.3954  215.3984 H   0  0  0  0  0  0  0  0  0  0  0  0
  141.4632   74.8923  216.2409 H   0  0  0  0  0  0  0  0  0  0  0  0
  144.1718   73.6413  215.4069 H   0  0  0  0  0  0  0  0  0  0  0  0
  143.6414   75.2426  215.0056 H   0  0  0  0  0  0  0  0  0  0  0  0
  145.1557   75.2034  217.1584 H   0  0  0  0  0  0  0  0  0  0  0  0
  143.4138   75.4977  219.6635 H   0  0  0  0  0  0  0  0  0  0  0  0
  142.3425   77.5557  220.5667 H   0  0  0  0  0  0  0  0  0  0  0  0
  142.2779   79.2134  216.5844 H   0  0  0  0  0  0  0  0  0  0  0  0
  143.3437   77.1475  215.7196 H   0  0  0  0  0  0  0  0  0  0  0  0
  139.0041   74.1735  220.8621 H   0  0  0  0  0  0  0  0  0  0  0  0
  137.6152   76.0206  221.7550 H   0  0  0  0  0  0  0  0  0  0  0  0
  137.4595   78.1674  222.8343 H   0  0  0  0  0  0  0  0  0  0  0  0
  141.0817   80.1880  223.9430 H   0  0  0  0  0  0  0  0  0  0  0  0
  142.3951   78.3309  223.0380 H   0  0  0  0  0  0  0  0  0  0  0  0
  1  2  2  0
  2  3  1  0
  3  4  1  0
  4  5  1  0
  5  6  2  0
  5  7  1  0
  7  8  1  0
  8  9  1  0
  9 10  1  0
 10 11  1  0
 11 12  1  0
 12 13  2  0
 13 14  1  0
 14 15  2  0
 15 16  1  0
 15 17  1  0
 17 18  2  0
  2 19  1  0
 19 20  2  0
 20 21  1  0
 21 22  2  0
 22 23  1  0
 23 24  2  0
 24 25  1  0
 24 26  1  0
 26 27  2  0
 27 28  1  0
 28 29  2  0
 11  7  1  0
 18 12  1  0
 29 19  1  0
 28 22  1  0
  3 30  1  0
  4 31  1  0
  4 32  1  0
  8 33  1  0
  8 34  1  0
  9 35  1  0
  9 36  1  0
 10 37  1  0
 10 38  1  0
 11 39  1  6
 13 40  1  0
 14 41  1  0
 17 42  1  0
 18 43  1  0
 20 44  1  0
 21 45  1  0
 23 46  1  0
 26 47  1  0
 27 48  1  0
M  END
>  <meeko>  (8) 
{"free_energy": -6.43, "intermolecular_energy": -7.92, "internal_energy": -2.7, "cluster_size": 1, "cluster_id": 3, "rank_in_cluster": 1}

$$$$

     RDKit          3D

 48 51  0  0  0  0  0  0  0  0999 V2000
  139.2220   71.8660  220.9490 O   0  0  0  0  0  0  0  0  0  0  0  0
  139.4070   72.3230  222.1090 C   0  0  0  0  0  0  0  0  0  0  0  0
  139.3920   73.7280  222.2970 N   0  0  0  0  0  0  0  0  0  0  0  0
  139.1680   74.5680  221.1640 C   0  0  0  0  0  0  0  0  0  0  0  0
  140.3330   75.3550  220.7580 C   0  0  0  0  0  0  0  0  0  0  0  0
  141.4790   74.8110  220.8590 O   0  0  0  0  0  0  0  0  0  0  0  0
  140.1580   76.6790  220.2740 N   0  0  0  0  0  0  0  0  0  0  0  0
  138.8950   77.3580  220.0530 C   0  0  0  0  0  0  0  0  0  0  0  0
  139.2180   78.6090  219.2680 C   0  0  0  0  0  0  0  0  0  0  0  0
  140.5740   78.2630  218.6940 C   0  0  0  0  0  0  0  0  0  0  0  0
  141.2240   77.6220  219.8970 C   0  0  1  0  0  0  0  0  0  0  0  0
  141.5240   78.5650  220.9890 C   0  0  0  0  0  0  0  0  0  0  0  0
  141.8940   79.8600  220.7020 C   0  0  0  0  0  0  0  0  0  0  0  0
  142.1870   80.7930  221.6940 C   0  0  0  0  0  0  0  0  0  0  0  0
  142.0970   80.3860  223.0070 C   0  0  0  0  0  0  0  0  0  0  0  0
  142.4710   81.5770  224.2530 Cl  0  0  0  0  0  0  0  0  0  0  0  0
  141.7310   79.1010  223.3480 C   0  0  0  0  0  0  0  0  0  0  0  0
  141.4480   78.2050  222.3320 C   0  0  0  0  0  0  0  0  0  0  0  0
  139.6300   71.4100  223.2310 C   0  0  0  0  0  0  0  0  0  0  0  0
  139.3240   70.0830  223.1110 C   0  0  0  0  0  0  0  0  0  0  0  0
  139.5240   69.1920  224.1560 C   0  0  0  0  0  0  0  0  0  0  0  0
  140.0440   69.6450  225.3480 C   0  0  0  0  0  0  0  0  0  0  0  0
  140.2520   68.7760  226.4020 C   0  0  0  0  0  0  0  0  0  0  0  0
  140.7770   69.2340  227.6060 C   0  0  0  0  0  0  0  0  0  0  0  0
  141.0490   68.1560  228.9530 Cl  0  0  0  0  0  0  0  0  0  0  0  0
  141.0740   70.5910  227.6830 C   0  0  0  0  0  0  0  0  0  0  0  0
  140.8610   71.4410  226.6260 C   0  0  0  0  0  0  0  0  0  0  0  0
  140.3430   70.9840  225.4410 C   0  0  0  0  0  0  0  0  0  0  0  0
  140.1430   71.8450  224.4140 N   0  0  0  0  0  0  0  0  0  0  0  0
  139.5490   74.0670  223.2780 H   0  0  0  0  0  0  0  0  0  0  0  0
  138.8698   73.9322  220.3174 H   0  0  0  0  0  0  0  0  0  0  0  0
  138.3878   75.2870  221.4544 H   0  0  0  0  0  0  0  0  0  0  0  0
  138.2117   76.7143  219.4797 H   0  0  0  0  0  0  0  0  0  0  0  0
  138.3990   77.5998  221.0046 H   0  0  0  0  0  0  0  0  0  0  0  0
  138.4787   78.7868  218.4732 H   0  0  0  0  0  0  0  0  0  0  0  0
  139.2070   79.5306  219.8684 H   0  0  0  0  0  0  0  0  0  0  0  0
  140.4917   77.5588  217.8530 H   0  0  0  0  0  0  0  0  0  0  0  0
  141.1263   79.1165  218.2738 H   0  0  0  0  0  0  0  0  0  0  0  0
  142.2106   77.1822  219.6890 H   0  0  0  0  0  0  0  0  0  0  0  0
  141.9608   80.1697  219.6486 H   0  0  0  0  0  0  0  0  0  0  0  0
  142.4807   81.8215  221.4372 H   0  0  0  0  0  0  0  0  0  0  0  0
  141.6655   78.7954  224.4027 H   0  0  0  0  0  0  0  0  0  0  0  0
  141.1542   77.1776  222.5932 H   0  0  0  0  0  0  0  0  0  0  0  0
  138.9088   69.7122  222.1623 H   0  0  0  0  0  0  0  0  0  0  0  0
  139.2684   68.1292  224.0328 H   0  0  0  0  0  0  0  0  0  0  0  0
  139.9999   67.7114  226.2878 H   0  0  0  0  0  0  0  0  0  0  0  0
  141.4914   70.9944  228.6174 H   0  0  0  0  0  0  0  0  0  0  0  0
  141.1101   72.5072  226.7314 H   0  0  0  0  0  0  0  0  0  0  0  0
  1  2  2  0
  2  3  1  0
  3  4  1  0
  4  5  1  0
  5  6  2  0
  5  7  1  0
  7  8  1  0
  8  9  1  0
  9 10  1  0
 10 11  1  0
 11 12  1  0
 12 13  2  0
 13 14  1  0
 14 15  2  0
 15 16  1  0
 15 17  1  0
 17 18  2  0
  2 19  1  0
 19 20  2  0
 20 21  1  0
 21 22  2  0
 22 23  1  0
 23 24  2  0
 24 25  1  0
 24 26  1  0
 26 27  2  0
 27 28  1  0
 28 29  2  0
 11  7  1  0
 18 12  1  0
 29 19  1  0
 28 22  1  0
  3 30  1  0
  4 31  1  0
  4 32  1  0
  8 33  1  0
  8 34  1  0
  9 35  1  0
  9 36  1  0
 10 37  1  0
 10 38  1  0
 11 39  1  6
 13 40  1  0
 14 41  1  0
 17 42  1  0
 18 43  1  0
 20 44  1  0
 21 45  1  0
 23 46  1  0
 26 47  1  0
 27 48  1  0
M  END
>  <meeko>  (9) 
{"free_energy": -8.41, "intermolecular_energy": -9.9, "internal_energy": -1.43, "cluster_size": 6, "cluster_id": 1, "rank_in_cluster": 5}

$$$$

     RDKit          3D

 48 51  0  0  0  0  0  0  0  0999 V2000
  138.5880   71.5900  221.1720 O   0  0  0  0  0  0  0  0  0  0  0  0
  139.0220   72.0760  222.2500 C   0  0  0  0  0  0  0  0  0  0  0  0
  139.1930   73.4810  222.3420 N   0  0  0  0  0  0  0  0  0  0  0  0
  138.8650   74.2860  221.2090 C   0  0  0  0  0  0  0  0  0  0  0  0
  138.8010   75.7210  221.4900 C   0  0  0  0  0  0  0  0  0  0  0  0
  138.0030   76.1110  222.4010 O   0  0  0  0  0  0  0  0  0  0  0  0
  139.6140   76.6230  220.7510 N   0  0  0  0  0  0  0  0  0  0  0  0
  139.1760   77.5150  219.6960 C   0  0  0  0  0  0  0  0  0  0  0  0
  140.4310   78.0390  219.0340 C   0  0  0  0  0  0  0  0  0  0  0  0
  141.4500   77.0070  219.4620 C   0  0  0  0  0  0  0  0  0  0  0  0
  141.0640   76.8270  220.9120 C   0  0  1  0  0  0  0  0  0  0  0  0
  141.3560   77.9960  221.7580 C   0  0  0  0  0  0  0  0  0  0  0  0
  142.1720   79.0020  221.2900 C   0  0  0  0  0  0  0  0  0  0  0  0
  142.4810   80.1300  222.0480 C   0  0  0  0  0  0  0  0  0  0  0  0
  141.9390   80.2260  223.3100 C   0  0  0  0  0  0  0  0  0  0  0  0
  142.3370   81.6590  224.2580 Cl  0  0  0  0  0  0  0  0  0  0  0  0
  141.1150   79.2470  223.8260 C   0  0  0  0  0  0  0  0  0  0  0  0
  140.8330   78.1420  223.0410 C   0  0  0  0  0  0  0  0  0  0  0  0
  139.3390   71.2000  223.3780 C   0  0  0  0  0  0  0  0  0  0  0  0
  139.0680   69.8620  223.3060 C   0  0  0  0  0  0  0  0  0  0  0  0
  139.3570   69.0030  224.3590 C   0  0  0  0  0  0  0  0  0  0  0  0
  139.9320   69.5010  225.5060 C   0  0  0  0  0  0  0  0  0  0  0  0
  140.2280   68.6640  226.5660 C   0  0  0  0  0  0  0  0  0  0  0  0
  140.8080   69.1680  227.7250 C   0  0  0  0  0  0  0  0  0  0  0  0
  141.1930   68.1320  229.0790 Cl  0  0  0  0  0  0  0  0  0  0  0  0
  141.0680   70.5340  227.7540 C   0  0  0  0  0  0  0  0  0  0  0  0
  140.7660   71.3510  226.6920 C   0  0  0  0  0  0  0  0  0  0  0  0
  140.1940   70.8490  225.5500 C   0  0  0  0  0  0  0  0  0  0  0  0
  139.9070   71.6780  224.5170 N   0  0  0  0  0  0  0  0  0  0  0  0
  139.5570   73.8460  223.2570 H   0  0  0  0  0  0  0  0  0  0  0  0
  139.6290   74.1199  220.4352 H   0  0  0  0  0  0  0  0  0  0  0  0
  137.8582   73.9822  220.8866 H   0  0  0  0  0  0  0  0  0  0  0  0
  138.5604   76.9685  218.9664 H   0  0  0  0  0  0  0  0  0  0  0  0
  138.5626   78.3359  220.0958 H   0  0  0  0  0  0  0  0  0  0  0  0
  140.3253   78.0697  217.9395 H   0  0  0  0  0  0  0  0  0  0  0  0
  140.6905   79.0700  219.3165 H   0  0  0  0  0  0  0  0  0  0  0  0
  141.3439   76.0710  218.8939 H   0  0  0  0  0  0  0  0  0  0  0  0
  142.4974   77.3006  219.2986 H   0  0  0  0  0  0  0  0  0  0  0  0
  141.6141   76.0239  221.4243 H   0  0  0  0  0  0  0  0  0  0  0  0
  142.5961   78.9117  220.2791 H   0  0  0  0  0  0  0  0  0  0  0  0
  143.1370   80.9185  221.6506 H   0  0  0  0  0  0  0  0  0  0  0  0
  140.6922   79.3422  224.8370 H   0  0  0  0  0  0  0  0  0  0  0  0
  140.1764   77.3559  223.4423 H   0  0  0  0  0  0  0  0  0  0  0  0
  138.6100   69.4556  222.3922 H   0  0  0  0  0  0  0  0  0  0  0  0
  139.1274   67.9304  224.2764 H   0  0  0  0  0  0  0  0  0  0  0  0
  140.0027   67.5899  226.4918 H   0  0  0  0  0  0  0  0  0  0  0  0
  141.5281   70.9720  228.6520 H   0  0  0  0  0  0  0  0  0  0  0  0
  140.9865   72.4266  226.7580 H   0  0  0  0  0  0  0  0  0  0  0  0
  1  2  2  0
  2  3  1  0
  3  4  1  0
  4  5  1  0
  5  6  2  0
  5  7  1  0
  7  8  1  0
  8  9  1  0
  9 10  1  0
 10 11  1  0
 11 12  1  0
 12 13  2  0
 13 14  1  0
 14 15  2  0
 15 16  1  0
 15 17  1  0
 17 18  2  0
  2 19  1  0
 19 20  2  0
 20 21  1  0
 21 22  2  0
 22 23  1  0
 23 24  2  0
 24 25  1  0
 24 26  1  0
 26 27  2  0
 27 28  1  0
 28 29  2  0
 11  7  1  0
 18 12  1  0
 29 19  1  0
 28 22  1  0
  3 30  1  0
  4 31  1  0
  4 32  1  0
  8 33  1  0
  8 34  1  0
  9 35  1  0
  9 36  1  0
 10 37  1  0
 10 38  1  0
 11 39  1  1
 13 40  1  0
 14 41  1  0
 17 42  1  0
 18 43  1  0
 20 44  1  0
 21 45  1  0
 23 46  1  0
 26 47  1  0
 27 48  1  0
M  END
>  <meeko>  (10) 
{"free_energy": -8.52, "intermolecular_energy": -10.01, "internal_energy": -1.39, "cluster_size": 6, "cluster_id": 1, "rank_in_cluster": 4}

$$$$

     RDKit          3D

 48 51  0  0  0  0  0  0  0  0999 V2000
  139.9480   72.0750  220.7760 O   0  0  0  0  0  0  0  0  0  0  0  0
  139.5650   72.4090  221.9290 C   0  0  0  0  0  0  0  0  0  0  0  0
  138.9820   73.6890  222.1070 N   0  0  0  0  0  0  0  0  0  0  0  0
  138.8520   74.5460  220.9730 C   0  0  0  0  0  0  0  0  0  0  0  0
  138.7680   75.9700  221.3010 C   0  0  0  0  0  0  0  0  0  0  0  0
  138.0350   76.3090  222.2850 O   0  0  0  0  0  0  0  0  0  0  0  0
  139.4910   76.9180  220.5270 N   0  0  0  0  0  0  0  0  0  0  0  0
  138.9340   77.8720  219.5880 C   0  0  0  0  0  0  0  0  0  0  0  0
  140.1030   78.4380  218.8140 C   0  0  0  0  0  0  0  0  0  0  0  0
  141.1620   77.3850  219.0540 C   0  0  0  0  0  0  0  0  0  0  0  0
  140.9500   77.1150  220.5260 C   0  0  1  0  0  0  0  0  0  0  0  0
  141.3470   78.2320  221.4010 C   0  0  0  0  0  0  0  0  0  0  0  0
  141.2310   78.1140  222.7680 C   0  0  0  0  0  0  0  0  0  0  0  0
  141.5920   79.1380  223.6420 C   0  0  0  0  0  0  0  0  0  0  0  0
  142.0810   80.3050  223.0990 C   0  0  0  0  0  0  0  0  0  0  0  0
  142.5340   81.5920  224.2160 Cl  0  0  0  0  0  0  0  0  0  0  0  0
  142.2170   80.4740  221.7370 C   0  0  0  0  0  0  0  0  0  0  0  0
  141.8480   79.4330  220.9030 C   0  0  0  0  0  0  0  0  0  0  0  0
  139.7230   71.4860  223.0530 C   0  0  0  0  0  0  0  0  0  0  0  0
  139.3440   70.1780  222.9280 C   0  0  0  0  0  0  0  0  0  0  0  0
  139.4820   69.2770  223.9760 C   0  0  0  0  0  0  0  0  0  0  0  0
  140.0120   69.7000  225.1740 C   0  0  0  0  0  0  0  0  0  0  0  0
  140.1570   68.8200  226.2300 C   0  0  0  0  0  0  0  0  0  0  0  0
  140.6920   69.2490  227.4400 C   0  0  0  0  0  0  0  0  0  0  0  0
  140.8870   68.1570  228.7900 Cl  0  0  0  0  0  0  0  0  0  0  0  0
  141.0640   70.5870  227.5230 C   0  0  0  0  0  0  0  0  0  0  0  0
  140.9120   71.4470  226.4630 C   0  0  0  0  0  0  0  0  0  0  0  0
  140.3830   71.0200  225.2720 C   0  0  0  0  0  0  0  0  0  0  0  0
  140.2450   71.8910  224.2430 N   0  0  0  0  0  0  0  0  0  0  0  0
  138.6750   73.9290  223.0830 H   0  0  0  0  0  0  0  0  0  0  0  0
  139.7265   74.3930  220.3235 H   0  0  0  0  0  0  0  0  0  0  0  0
  137.9039   74.2790  220.4832 H   0  0  0  0  0  0  0  0  0  0  0  0
  138.2328   77.3696  218.9055 H   0  0  0  0  0  0  0  0  0  0  0  0
  138.3768   78.6655  220.1075 H   0  0  0  0  0  0  0  0  0  0  0  0
  139.8675   78.5344  217.7438 H   0  0  0  0  0  0  0  0  0  0  0  0
  140.3989   79.4507  219.1254 H   0  0  0  0  0  0  0  0  0  0  0  0
  140.9857   76.4853  218.4462 H   0  0  0  0  0  0  0  0  0  0  0  0
  142.1838   77.6917  218.7858 H   0  0  0  0  0  0  0  0  0  0  0  0
  141.5525   76.2828  220.9191 H   0  0  0  0  0  0  0  0  0  0  0  0
  140.8383   77.1755  223.1864 H   0  0  0  0  0  0  0  0  0  0  0  0
  141.4895   79.0177  224.7306 H   0  0  0  0  0  0  0  0  0  0  0  0
  142.6097   81.4145  221.3231 H   0  0  0  0  0  0  0  0  0  0  0  0
  141.9533   79.5574  219.8151 H   0  0  0  0  0  0  0  0  0  0  0  0
  138.9195   69.8310  221.9743 H   0  0  0  0  0  0  0  0  0  0  0  0
  139.1692   68.2301  223.8493 H   0  0  0  0  0  0  0  0  0  0  0  0
  139.8466   67.7713  226.1124 H   0  0  0  0  0  0  0  0  0  0  0  0
  141.4914   70.9663  228.4629 H   0  0  0  0  0  0  0  0  0  0  0  0
  141.2202   72.4974  226.5713 H   0  0  0  0  0  0  0  0  0  0  0  0
  1  2  2  0
  2  3  1  0
  3  4  1  0
  4  5  1  0
  5  6  2  0
  5  7  1  0
  7  8  1  0
  8  9  1  0
  9 10  1  0
 10 11  1  0
 11 12  1  0
 12 13  2  0
 13 14  1  0
 14 15  2  0
 15 16  1  0
 15 17  1  0
 17 18  2  0
  2 19  1  0
 19 20  2  0
 20 21  1  0
 21 22  2  0
 22 23  1  0
 23 24  2  0
 24 25  1  0
 24 26  1  0
 26 27  2  0
 27 28  1  0
 28 29  2  0
 11  7  1  0
 18 12  1  0
 29 19  1  0
 28 22  1  0
  3 30  1  0
  4 31  1  0
  4 32  1  0
  8 33  1  0
  8 34  1  0
  9 35  1  0
  9 36  1  0
 10 37  1  0
 10 38  1  0
 11 39  1  1
 13 40  1  0
 14 41  1  0
 17 42  1  0
 18 43  1  0
 20 44  1  0
 21 45  1  0
 23 46  1  0
 26 47  1  0
 27 48  1  0
M  END
>  <meeko>  (11) 
{"free_energy": -8.73, "intermolecular_energy": -10.22, "internal_energy": -1.26, "cluster_size": 6, "cluster_id": 1, "rank_in_cluster": 1}

$$$$

     RDKit          3D

 48 51  0  0  0  0  0  0  0  0999 V2000
  139.3180   71.8860  220.6470 O   0  0  0  0  0  0  0  0  0  0  0  0
  139.1810   72.3060  221.8270 C   0  0  0  0  0  0  0  0  0  0  0  0
  138.7760   73.6500  222.0270 N   0  0  0  0  0  0  0  0  0  0  0  0
  138.5390   74.4720  220.8840 C   0  0  0  0  0  0  0  0  0  0  0  0
  138.4650   75.9040  221.1770 C   0  0  0  0  0  0  0  0  0  0  0  0
  137.3110   76.4370  221.2350 O   0  0  0  0  0  0  0  0  0  0  0  0
  139.6590   76.6450  221.3840 N   0  0  0  0  0  0  0  0  0  0  0  0
  140.1440   77.1680  222.6470 C   0  0  0  0  0  0  0  0  0  0  0  0
  141.2720   78.1170  222.3080 C   0  0  0  0  0  0  0  0  0  0  0  0
  140.9900   78.4140  220.8520 C   0  0  0  0  0  0  0  0  0  0  0  0
  140.6390   77.0310  220.3540 C   0  0  1  0  0  0  0  0  0  0  0  0
  141.7810   76.1010  220.3190 C   0  0  0  0  0  0  0  0  0  0  0  0
  141.6620   74.8370  220.8530 C   0  0  0  0  0  0  0  0  0  0  0  0
  142.7090   73.9180  220.8460 C   0  0  0  0  0  0  0  0  0  0  0  0
  143.9020   74.3060  220.2770 C   0  0  0  0  0  0  0  0  0  0  0  0
  145.2190   73.1330  220.2740 Cl  0  0  0  0  0  0  0  0  0  0  0  0
  144.0740   75.5590  219.7280 C   0  0  0  0  0  0  0  0  0  0  0  0
  143.0090   76.4430  219.7560 C   0  0  0  0  0  0  0  0  0  0  0  0
  139.4370   71.4150  222.9590 C   0  0  0  0  0  0  0  0  0  0  0  0
  139.0910   70.0950  222.8880 C   0  0  0  0  0  0  0  0  0  0  0  0
  139.3210   69.2230  223.9440 C   0  0  0  0  0  0  0  0  0  0  0  0
  139.9130   69.6900  225.0960 C   0  0  0  0  0  0  0  0  0  0  0  0
  140.1510   68.8410  226.1600 C   0  0  0  0  0  0  0  0  0  0  0  0
  140.7480   69.3130  227.3240 C   0  0  0  0  0  0  0  0  0  0  0  0
  141.0610   68.2610  228.6830 Cl  0  0  0  0  0  0  0  0  0  0  0  0
  141.0850   70.6630  227.3520 C   0  0  0  0  0  0  0  0  0  0  0  0
  140.8400   71.4930  226.2860 C   0  0  0  0  0  0  0  0  0  0  0  0
  140.2510   71.0220  225.1400 C   0  0  0  0  0  0  0  0  0  0  0  0
  140.0210   71.8640  224.1030 N   0  0  0  0  0  0  0  0  0  0  0  0
  138.6740   73.9600  223.0250 H   0  0  0  0  0  0  0  0  0  0  0  0
  139.3569   74.3089  220.1668 H   0  0  0  0  0  0  0  0  0  0  0  0
  137.5561   74.1809  220.4849 H   0  0  0  0  0  0  0  0  0  0  0  0
  139.3394   77.7045  223.1713 H   0  0  0  0  0  0  0  0  0  0  0  0
  140.4869   76.3595  223.3094 H   0  0  0  0  0  0  0  0  0  0  0  0
  141.2267   79.0298  222.9202 H   0  0  0  0  0  0  0  0  0  0  0  0
  142.2750   77.7061  222.4955 H   0  0  0  0  0  0  0  0  0  0  0  0
  140.1492   79.1136  220.7353 H   0  0  0  0  0  0  0  0  0  0  0  0
  141.8174   78.8996  220.3138 H   0  0  0  0  0  0  0  0  0  0  0  0
  140.2845   77.0084  219.3129 H   0  0  0  0  0  0  0  0  0  0  0  0
  140.7026   74.5415  221.3027 H   0  0  0  0  0  0  0  0  0  0  0  0
  142.5870   72.9150  221.2808 H   0  0  0  0  0  0  0  0  0  0  0  0
  145.0349   75.8494  219.2783 H   0  0  0  0  0  0  0  0  0  0  0  0
  143.1359   77.4453  219.3209 H   0  0  0  0  0  0  0  0  0  0  0  0
  138.6182   69.7134  221.9710 H   0  0  0  0  0  0  0  0  0  0  0  0
  139.0318   68.1650  223.8606 H   0  0  0  0  0  0  0  0  0  0  0  0
  139.8654   67.7813  226.0856 H   0  0  0  0  0  0  0  0  0  0  0  0
  141.5610   71.0767  228.2533 H   0  0  0  0  0  0  0  0  0  0  0  0
  141.1210   72.5545  226.3520 H   0  0  0  0  0  0  0  0  0  0  0  0
  1  2  2  0
  2  3  1  0
  3  4  1  0
  4  5  1  0
  5  6  2  0
  5  7  1  0
  7  8  1  0
  8  9  1  0
  9 10  1  0
 10 11  1  0
 11 12  1  0
 12 13  2  0
 13 14  1  0
 14 15  2  0
 15 16  1  0
 15 17  1  0
 17 18  2  0
  2 19  1  0
 19 20  2  0
 20 21  1  0
 21 22  2  0
 22 23  1  0
 23 24  2  0
 24 25  1  0
 24 26  1  0
 26 27  2  0
 27 28  1  0
 28 29  2  0
 11  7  1  0
 18 12  1  0
 29 19  1  0
 28 22  1  0
  3 30  1  0
  4 31  1  0
  4 32  1  0
  8 33  1  0
  8 34  1  0
  9 35  1  0
  9 36  1  0
 10 37  1  0
 10 38  1  0
 11 39  1  6
 13 40  1  0
 14 41  1  0
 17 42  1  0
 18 43  1  0
 20 44  1  0
 21 45  1  0
 23 46  1  0
 26 47  1  0
 27 48  1  0
M  END
>  <meeko>  (12) 
{"free_energy": -8.44, "intermolecular_energy": -9.93, "internal_energy": -1.67, "cluster_size": 13, "cluster_id": 2, "rank_in_cluster": 7}

$$$$

     RDKit          3D

 48 51  0  0  0  0  0  0  0  0999 V2000
  139.5640   72.0290  220.7100 O   0  0  0  0  0  0  0  0  0  0  0  0
  139.2800   72.3880  221.8840 C   0  0  0  0  0  0  0  0  0  0  0  0
  138.7390   73.6820  222.0870 N   0  0  0  0  0  0  0  0  0  0  0  0
  138.5360   74.5250  220.9530 C   0  0  0  0  0  0  0  0  0  0  0  0
  138.4830   75.9540  221.2670 C   0  0  0  0  0  0  0  0  0  0  0  0
  137.3360   76.4850  221.4170 O   0  0  0  0  0  0  0  0  0  0  0  0
  139.6890   76.6950  221.3930 N   0  0  0  0  0  0  0  0  0  0  0  0
  140.2130   77.2910  222.6070 C   0  0  0  0  0  0  0  0  0  0  0  0
  141.3390   78.2050  222.1780 C   0  0  0  0  0  0  0  0  0  0  0  0
  141.0180   78.4130  220.7150 C   0  0  0  0  0  0  0  0  0  0  0  0
  140.6420   77.0060  220.3150 C   0  0  1  0  0  0  0  0  0  0  0  0
  141.7750   76.0640  220.3060 C   0  0  0  0  0  0  0  0  0  0  0  0
  141.6320   74.8040  220.8430 C   0  0  0  0  0  0  0  0  0  0  0  0
  142.6700   73.8750  220.8600 C   0  0  0  0  0  0  0  0  0  0  0  0
  143.8770   74.2480  220.3140 C   0  0  0  0  0  0  0  0  0  0  0  0
  145.1820   73.0620  220.3420 Cl  0  0  0  0  0  0  0  0  0  0  0  0
  144.0730   75.4970  219.7640 C   0  0  0  0  0  0  0  0  0  0  0  0
  143.0170   76.3910  219.7660 C   0  0  0  0  0  0  0  0  0  0  0  0
  139.5090   71.4770  223.0070 C   0  0  0  0  0  0  0  0  0  0  0  0
  139.1710   70.1570  222.9020 C   0  0  0  0  0  0  0  0  0  0  0  0
  139.3760   69.2670  223.9480 C   0  0  0  0  0  0  0  0  0  0  0  0
  139.9320   69.7160  225.1250 C   0  0  0  0  0  0  0  0  0  0  0  0
  140.1440   68.8480  226.1800 C   0  0  0  0  0  0  0  0  0  0  0  0
  140.7060   69.3020  227.3680 C   0  0  0  0  0  0  0  0  0  0  0  0
  140.9850   68.2260  228.7160 Cl  0  0  0  0  0  0  0  0  0  0  0  0
  141.0350   70.6530  227.4310 C   0  0  0  0  0  0  0  0  0  0  0  0
  140.8160   71.5010  226.3730 C   0  0  0  0  0  0  0  0  0  0  0  0
  140.2620   71.0480  225.2030 C   0  0  0  0  0  0  0  0  0  0  0  0
  140.0580   71.9070  224.1750 N   0  0  0  0  0  0  0  0  0  0  0  0
  138.5150   73.9420  223.0800 H   0  0  0  0  0  0  0  0  0  0  0  0
  139.3627   74.3578  220.2469 H   0  0  0  0  0  0  0  0  0  0  0  0
  137.5550   74.2579  220.5332 H   0  0  0  0  0  0  0  0  0  0  0  0
  139.4279   77.8675  223.1181 H   0  0  0  0  0  0  0  0  0  0  0  0
  140.5670   76.5224  223.3098 H   0  0  0  0  0  0  0  0  0  0  0  0
  141.3191   79.1547  222.7327 H   0  0  0  0  0  0  0  0  0  0  0  0
  142.3434   77.7964  222.3630 H   0  0  0  0  0  0  0  0  0  0  0  0
  140.1799   79.1121  220.5782 H   0  0  0  0  0  0  0  0  0  0  0  0
  141.8336   78.8558  220.1244 H   0  0  0  0  0  0  0  0  0  0  0  0
  140.2579   76.9220  219.2877 H   0  0  0  0  0  0  0  0  0  0  0  0
  140.6610   74.5202  221.2751 H   0  0  0  0  0  0  0  0  0  0  0  0
  142.5293   72.8750  221.2960 H   0  0  0  0  0  0  0  0  0  0  0  0
  145.0461   75.7762  219.3337 H   0  0  0  0  0  0  0  0  0  0  0  0
  143.1624   77.3896  219.3282 H   0  0  0  0  0  0  0  0  0  0  0  0
  138.7254   69.7904  221.9655 H   0  0  0  0  0  0  0  0  0  0  0  0
  139.0958   68.2091  223.8370 H   0  0  0  0  0  0  0  0  0  0  0  0
  139.8656   67.7887  226.0786 H   0  0  0  0  0  0  0  0  0  0  0  0
  141.4825   71.0523  228.3531 H   0  0  0  0  0  0  0  0  0  0  0  0
  141.0898   72.5623  226.4657 H   0  0  0  0  0  0  0  0  0  0  0  0
  1  2  2  0
  2  3  1  0
  3  4  1  0
  4  5  1  0
  5  6  2  0
  5  7  1  0
  7  8  1  0
  8  9  1  0
  9 10  1  0
 10 11  1  0
 11 12  1  0
 12 13  2  0
 13 14  1  0
 14 15  2  0
 15 16  1  0
 15 17  1  0
 17 18  2  0
  2 19  1  0
 19 20  2  0
 20 21  1  0
 21 22  2  0
 22 23  1  0
 23 24  2  0
 24 25  1  0
 24 26  1  0
 26 27  2  0
 27 28  1  0
 28 29  2  0
 11  7  1  0
 18 12  1  0
 29 19  1  0
 28 22  1  0
  3 30  1  0
  4 31  1  0
  4 32  1  0
  8 33  1  0
  8 34  1  0
  9 35  1  0
  9 36  1  0
 10 37  1  0
 10 38  1  0
 11 39  1  6
 13 40  1  0
 14 41  1  0
 17 42  1  0
 18 43  1  0
 20 44  1  0
 21 45  1  0
 23 46  1  0
 26 47  1  0
 27 48  1  0
M  END
>  <meeko>  (13) 
{"free_energy": -8.5, "intermolecular_energy": -9.99, "internal_energy": -1.66, "cluster_size": 13, "cluster_id": 2, "rank_in_cluster": 4}

$$$$

     RDKit          3D

 48 51  0  0  0  0  0  0  0  0999 V2000
  138.9990   70.9340  221.1420 O   0  0  0  0  0  0  0  0  0  0  0  0
  139.1070   71.7140  222.1270 C   0  0  0  0  0  0  0  0  0  0  0  0
  138.7200   73.0680  221.9670 N   0  0  0  0  0  0  0  0  0  0  0  0
  138.2230   73.4930  220.6980 C   0  0  0  0  0  0  0  0  0  0  0  0
  138.2840   74.9400  220.4820 C   0  0  0  0  0  0  0  0  0  0  0  0
  137.3400   75.4800  219.8220 O   0  0  0  0  0  0  0  0  0  0  0  0
  139.3740   75.6870  221.0050 N   0  0  0  0  0  0  0  0  0  0  0  0
  139.5780   76.0640  222.3900 C   0  0  0  0  0  0  0  0  0  0  0  0
  140.6960   77.0820  222.3930 C   0  0  0  0  0  0  0  0  0  0  0  0
  140.6830   77.5480  220.9540 C   0  0  0  0  0  0  0  0  0  0  0  0
  140.5110   76.2270  220.2400 C   0  0  1  0  0  0  0  0  0  0  0  0
  141.6880   75.3450  220.3240 C   0  0  0  0  0  0  0  0  0  0  0  0
  142.9330   75.8190  219.9760 C   0  0  0  0  0  0  0  0  0  0  0  0
  144.0790   75.0280  220.0360 C   0  0  0  0  0  0  0  0  0  0  0  0
  143.9410   73.7260  220.4630 C   0  0  0  0  0  0  0  0  0  0  0  0
  145.4000   72.7370  220.5350 Cl  0  0  0  0  0  0  0  0  0  0  0  0
  142.7170   73.2030  220.8230 C   0  0  0  0  0  0  0  0  0  0  0  0
  141.6030   74.0210  220.7490 C   0  0  0  0  0  0  0  0  0  0  0  0
  139.6220   71.2180  223.4040 C   0  0  0  0  0  0  0  0  0  0  0  0
  140.5410   71.9480  224.1050 C   0  0  0  0  0  0  0  0  0  0  0  0
  141.0490   71.5070  225.3190 C   0  0  0  0  0  0  0  0  0  0  0  0
  140.6230   70.3050  225.8400 C   0  0  0  0  0  0  0  0  0  0  0  0
  141.1150   69.8460  227.0470 C   0  0  0  0  0  0  0  0  0  0  0  0
  140.6850   68.6320  227.5710 C   0  0  0  0  0  0  0  0  0  0  0  0
  141.2910   68.0290  229.0950 Cl  0  0  0  0  0  0  0  0  0  0  0  0
  139.7490   67.9230  226.8250 C   0  0  0  0  0  0  0  0  0  0  0  0
  139.2710   68.3940  225.6270 C   0  0  0  0  0  0  0  0  0  0  0  0
  139.6990   69.5920  225.1130 C   0  0  0  0  0  0  0  0  0  0  0  0
  139.2100   70.0330  223.9290 N   0  0  0  0  0  0  0  0  0  0  0  0
  138.8260   73.6840  222.8110 H   0  0  0  0  0  0  0  0  0  0  0  0
  138.8170   73.0020  219.9131 H   0  0  0  0  0  0  0  0  0  0  0  0
  137.1595   73.2138  220.6661 H   0  0  0  0  0  0  0  0  0  0  0  0
  138.6595   76.5059  222.8036 H   0  0  0  0  0  0  0  0  0  0  0  0
  139.8313   75.1905  223.0088 H   0  0  0  0  0  0  0  0  0  0  0  0
  140.4838   77.9099  223.0855 H   0  0  0  0  0  0  0  0  0  0  0  0
  141.6652   76.6829  222.7266 H   0  0  0  0  0  0  0  0  0  0  0  0
  139.8430   78.2298  220.7552 H   0  0  0  0  0  0  0  0  0  0  0  0
  141.5704   78.1223  220.6494 H   0  0  0  0  0  0  0  0  0  0  0  0
  140.3652   76.3215  219.1538 H   0  0  0  0  0  0  0  0  0  0  0  0
  143.0267   76.8615  219.6378 H   0  0  0  0  0  0  0  0  0  0  0  0
  145.0622   75.4308  219.7514 H   0  0  0  0  0  0  0  0  0  0  0  0
  142.6280   72.1600  221.1611 H   0  0  0  0  0  0  0  0  0  0  0  0
  140.6217   73.6138  221.0341 H   0  0  0  0  0  0  0  0  0  0  0  0
  140.8866   72.9091  223.6966 H   0  0  0  0  0  0  0  0  0  0  0  0
  141.7880   72.1142  225.8624 H   0  0  0  0  0  0  0  0  0  0  0  0
  141.8536   70.4465  227.5983 H   0  0  0  0  0  0  0  0  0  0  0  0
  139.3817   66.9584  227.2053 H   0  0  0  0  0  0  0  0  0  0  0  0
  138.5317   67.8002  225.0694 H   0  0  0  0  0  0  0  0  0  0  0  0
  1  2  2  0
  2  3  1  0
  3  4  1  0
  4  5  1  0
  5  6  2  0
  5  7  1  0
  7  8  1  0
  8  9  1  0
  9 10  1  0
 10 11  1  0
 11 12  1  0
 12 13  2  0
 13 14  1  0
 14 15  2  0
 15 16  1  0
 15 17  1  0
 17 18  2  0
  2 19  1  0
 19 20  2  0
 20 21  1  0
 21 22  2  0
 22 23  1  0
 23 24  2  0
 24 25  1  0
 24 26  1  0
 26 27  2  0
 27 28  1  0
 28 29  2  0
 11  7  1  0
 18 12  1  0
 29 19  1  0
 28 22  1  0
  3 30  1  0
  4 31  1  0
  4 32  1  0
  8 33  1  0
  8 34  1  0
  9 35  1  0
  9 36  1  0
 10 37  1  0
 10 38  1  0
 11 39  1  6
 13 40  1  0
 14 41  1  0
 17 42  1  0
 18 43  1  0
 20 44  1  0
 21 45  1  0
 23 46  1  0
 26 47  1  0
 27 48  1  0
M  END
>  <meeko>  (14) 
{"free_energy": -8.1, "intermolecular_energy": -9.59, "internal_energy": -1.7, "cluster_size": 13, "cluster_id": 2, "rank_in_cluster": 10}

$$$$

     RDKit          3D

 48 51  0  0  0  0  0  0  0  0999 V2000
  138.7830   71.5580  220.5790 O   0  0  0  0  0  0  0  0  0  0  0  0
  138.8670   72.0910  221.7170 C   0  0  0  0  0  0  0  0  0  0  0  0
  138.6380   73.4850  221.8340 N   0  0  0  0  0  0  0  0  0  0  0  0
  138.3200   74.2280  220.6560 C   0  0  0  0  0  0  0  0  0  0  0  0
  138.3410   75.6800  220.8370 C   0  0  0  0  0  0  0  0  0  0  0  0
  137.2740   76.3240  220.5800 O   0  0  0  0  0  0  0  0  0  0  0  0
  139.5290   76.3200  221.2850 N   0  0  0  0  0  0  0  0  0  0  0  0
  139.8640   76.6570  222.6540 C   0  0  0  0  0  0  0  0  0  0  0  0
  141.0670   77.5710  222.5840 C   0  0  0  0  0  0  0  0  0  0  0  0
  140.9920   78.0570  221.1530 C   0  0  0  0  0  0  0  0  0  0  0  0
  140.6520   76.7670  220.4440 C   0  0  1  0  0  0  0  0  0  0  0  0
  141.7470   75.7830  220.4340 C   0  0  0  0  0  0  0  0  0  0  0  0
  143.0030   76.1500  220.0050 C   0  0  0  0  0  0  0  0  0  0  0  0
  144.0750   75.2600  219.9760 C   0  0  0  0  0  0  0  0  0  0  0  0
  143.8510   73.9680  220.3970 C   0  0  0  0  0  0  0  0  0  0  0  0
  145.2160   72.8520  220.3550 Cl  0  0  0  0  0  0  0  0  0  0  0  0
  142.6120   73.5500  220.8360 C   0  0  0  0  0  0  0  0  0  0  0  0
  141.5740   74.4640  220.8500 C   0  0  0  0  0  0  0  0  0  0  0  0
  139.1950   71.2770  222.8880 C   0  0  0  0  0  0  0  0  0  0  0  0
  138.8880   69.9450  222.9080 C   0  0  0  0  0  0  0  0  0  0  0  0
  139.1850   69.1450  224.0040 C   0  0  0  0  0  0  0  0  0  0  0  0
  139.8070   69.6970  225.1010 C   0  0  0  0  0  0  0  0  0  0  0  0
  140.1120   68.9200  226.2030 C   0  0  0  0  0  0  0  0  0  0  0  0
  140.7390   69.4780  227.3120 C   0  0  0  0  0  0  0  0  0  0  0  0
  141.1370   68.5180  228.7160 Cl  0  0  0  0  0  0  0  0  0  0  0  0
  141.0340   70.8360  227.2480 C   0  0  0  0  0  0  0  0  0  0  0  0
  140.7220   71.5930  226.1460 C   0  0  0  0  0  0  0  0  0  0  0  0
  140.1040   71.0380  225.0540 C   0  0  0  0  0  0  0  0  0  0  0  0
  139.8080   71.8090  223.9800 N   0  0  0  0  0  0  0  0  0  0  0  0
  138.7170   73.8900  222.7990 H   0  0  0  0  0  0  0  0  0  0  0  0
  139.0508   73.9672  219.8763 H   0  0  0  0  0  0  0  0  0  0  0  0
  137.2891   73.9591  220.3822 H   0  0  0  0  0  0  0  0  0  0  0  0
  139.0209   77.1733  223.1364 H   0  0  0  0  0  0  0  0  0  0  0  0
  140.0807   75.7556  223.2461 H   0  0  0  0  0  0  0  0  0  0  0  0
  140.9807   78.4044  223.2967 H   0  0  0  0  0  0  0  0  0  0  0  0
  142.0179   77.0823  222.8430 H   0  0  0  0  0  0  0  0  0  0  0  0
  140.2040   78.8131  221.0213 H   0  0  0  0  0  0  0  0  0  0  0  0
  141.9027   78.5550  220.7888 H   0  0  0  0  0  0  0  0  0  0  0  0
  140.4381   76.8895  219.3720 H   0  0  0  0  0  0  0  0  0  0  0  0
  143.1665   77.1857  219.6724 H   0  0  0  0  0  0  0  0  0  0  0  0
  145.0684   75.5793  219.6279 H   0  0  0  0  0  0  0  0  0  0  0  0
  142.4530   72.5132  221.1674 H   0  0  0  0  0  0  0  0  0  0  0  0
  140.5826   74.1404  221.1998 H   0  0  0  0  0  0  0  0  0  0  0  0
  138.3934   69.4955  222.0343 H   0  0  0  0  0  0  0  0  0  0  0  0
  138.9246   68.0763  223.9954 H   0  0  0  0  0  0  0  0  0  0  0  0
  139.8563   67.8501  226.2027 H   0  0  0  0  0  0  0  0  0  0  0  0
  141.5308   71.3164  228.1038 H   0  0  0  0  0  0  0  0  0  0  0  0
  140.9721   72.6642  226.1384 H   0  0  0  0  0  0  0  0  0  0  0  0
  1  2  2  0
  2  3  1  0
  3  4  1  0
  4  5  1  0
  5  6  2  0
  5  7  1  0
  7  8  1  0
  8  9  1  0
  9 10  1  0
 10 11  1  0
 11 12  1  0
 12 13  2  0
 13 14  1  0
 14 15  2  0
 15 16  1  0
 15 17  1  0
 17 18  2  0
  2 19  1  0
 19 20  2  0
 20 21  1  0
 21 22  2  0
 22 23  1  0
 23 24  2  0
 24 25  1  0
 24 26  1  0
 26 27  2  0
 27 28  1  0
 28 29  2  0
 11  7  1  0
 18 12  1  0
 29 19  1  0
 28 22  1  0
  3 30  1  0
  4 31  1  0
  4 32  1  0
  8 33  1  0
  8 34  1  0
  9 35  1  0
  9 36  1  0
 10 37  1  0
 10 38  1  0
 11 39  1  6
 13 40  1  0
 14 41  1  0
 17 42  1  0
 18 43  1  0
 20 44  1  0
 21 45  1  0
 23 46  1  0
 26 47  1  0
 27 48  1  0
M  END
>  <meeko>  (15) 
{"free_energy": -8.1, "intermolecular_energy": -9.59, "internal_energy": -1.81, "cluster_size": 13, "cluster_id": 2, "rank_in_cluster": 11}

$$$$

     RDKit          3D

 48 51  0  0  0  0  0  0  0  0999 V2000
  139.5870   72.2230  220.7940 O   0  0  0  0  0  0  0  0  0  0  0  0
  139.5200   72.6190  221.9880 C   0  0  0  0  0  0  0  0  0  0  0  0
  139.2580   73.9910  222.2350 N   0  0  0  0  0  0  0  0  0  0  0  0
  139.0810   74.8660  221.1210 C   0  0  0  0  0  0  0  0  0  0  0  0
  139.6450   76.2030  221.3100 C   0  0  0  0  0  0  0  0  0  0  0  0
  139.1920   76.9070  222.2690 O   0  0  0  0  0  0  0  0  0  0  0  0
  140.6630   76.6700  220.4350 N   0  0  0  0  0  0  0  0  0  0  0  0
  141.4770   77.8570  220.6140 C   0  0  0  0  0  0  0  0  0  0  0  0
  142.1900   78.0830  219.2990 C   0  0  0  0  0  0  0  0  0  0  0  0
  141.3290   77.2840  218.3480 C   0  0  0  0  0  0  0  0  0  0  0  0
  141.0900   76.0410  219.1740 C   0  0  1  0  0  0  0  0  0  0  0  0
  142.2900   75.2080  219.3620 C   0  0  0  0  0  0  0  0  0  0  0  0
  142.5800   74.6850  220.6030 C   0  0  0  0  0  0  0  0  0  0  0  0
  143.7010   73.8910  220.8370 C   0  0  0  0  0  0  0  0  0  0  0  0
  144.5380   73.6290  219.7750 C   0  0  0  0  0  0  0  0  0  0  0  0
  145.9520   72.6220  220.0850 Cl  0  0  0  0  0  0  0  0  0  0  0  0
  144.2920   74.1280  218.5130 C   0  0  0  0  0  0  0  0  0  0  0  0
  143.1680   74.9130  218.3220 C   0  0  0  0  0  0  0  0  0  0  0  0
  139.7090   71.6740  223.0880 C   0  0  0  0  0  0  0  0  0  0  0  0
  139.3730   70.3580  222.9310 C   0  0  0  0  0  0  0  0  0  0  0  0
  139.5410   69.4360  223.9550 C   0  0  0  0  0  0  0  0  0  0  0  0
  140.0580   69.8460  225.1630 C   0  0  0  0  0  0  0  0  0  0  0  0
  140.2330   68.9450  226.1970 C   0  0  0  0  0  0  0  0  0  0  0  0
  140.7540   69.3600  227.4180 C   0  0  0  0  0  0  0  0  0  0  0  0
  140.9860   68.2420  228.7400 Cl  0  0  0  0  0  0  0  0  0  0  0  0
  141.0820   70.7070  227.5340 C   0  0  0  0  0  0  0  0  0  0  0  0
  140.9010   71.5880  226.4960 C   0  0  0  0  0  0  0  0  0  0  0  0
  140.3860   71.1740  225.2950 C   0  0  0  0  0  0  0  0  0  0  0  0
  140.2180   72.0650  224.2880 N   0  0  0  0  0  0  0  0  0  0  0  0
  139.2090   74.2800  223.2430 H   0  0  0  0  0  0  0  0  0  0  0  0
  139.5634   74.4094  220.2442 H   0  0  0  0  0  0  0  0  0  0  0  0
  137.9964   74.9969  220.9924 H   0  0  0  0  0  0  0  0  0  0  0  0
  140.8419   78.7217  220.8568 H   0  0  0  0  0  0  0  0  0  0  0  0
  142.1917   77.7316  221.4407 H   0  0  0  0  0  0  0  0  0  0  0  0
  142.2051   79.1490  219.0282 H   0  0  0  0  0  0  0  0  0  0  0  0
  143.2483   77.7831  219.3054 H   0  0  0  0  0  0  0  0  0  0  0  0
  140.3883   77.8049  218.1161 H   0  0  0  0  0  0  0  0  0  0  0  0
  141.7820   77.1003  217.3626 H   0  0  0  0  0  0  0  0  0  0  0  0
  140.3820   75.3318  218.7203 H   0  0  0  0  0  0  0  0  0  0  0  0
  141.9011   74.9023  221.4408 H   0  0  0  0  0  0  0  0  0  0  0  0
  143.9108   73.4863  221.8381 H   0  0  0  0  0  0  0  0  0  0  0  0
  144.9730   73.9074  217.6778 H   0  0  0  0  0  0  0  0  0  0  0  0
  142.9622   75.3157  217.3193 H   0  0  0  0  0  0  0  0  0  0  0  0
  138.9591   70.0214  221.9690 H   0  0  0  0  0  0  0  0  0  0  0  0
  139.2624   68.3830  223.8018 H   0  0  0  0  0  0  0  0  0  0  0  0
  139.9576   67.8899  226.0526 H   0  0  0  0  0  0  0  0  0  0  0  0
  141.4977   71.0766  228.4830 H   0  0  0  0  0  0  0  0  0  0  0  0
  141.1743   72.6449  226.6309 H   0  0  0  0  0  0  0  0  0  0  0  0
  1  2  2  0
  2  3  1  0
  3  4  1  0
  4  5  1  0
  5  6  2  0
  5  7  1  0
  7  8  1  0
  8  9  1  0
  9 10  1  0
 10 11  1  0
 11 12  1  0
 12 13  2  0
 13 14  1  0
 14 15  2  0
 15 16  1  0
 15 17  1  0
 17 18  2  0
  2 19  1  0
 19 20  2  0
 20 21  1  0
 21 22  2  0
 22 23  1  0
 23 24  2  0
 24 25  1  0
 24 26  1  0
 26 27  2  0
 27 28  1  0
 28 29  2  0
 11  7  1  0
 18 12  1  0
 29 19  1  0
 28 22  1  0
  3 30  1  0
  4 31  1  0
  4 32  1  0
  8 33  1  0
  8 34  1  0
  9 35  1  0
  9 36  1  0
 10 37  1  0
 10 38  1  0
 11 39  1  6
 13 40  1  0
 14 41  1  0
 17 42  1  0
 18 43  1  0
 20 44  1  0
 21 45  1  0
 23 46  1  0
 26 47  1  0
 27 48  1  0
M  END
>  <meeko>  (16) 
{"free_energy": -7.96, "intermolecular_energy": -9.45, "internal_energy": -1.8, "cluster_size": 13, "cluster_id": 2, "rank_in_cluster": 13}

$$$$

     RDKit          3D

 48 51  0  0  0  0  0  0  0  0999 V2000
  139.2000   71.7050  220.4900 O   0  0  0  0  0  0  0  0  0  0  0  0
  139.0350   72.1760  221.6470 C   0  0  0  0  0  0  0  0  0  0  0  0
  138.5740   73.5100  221.7790 N   0  0  0  0  0  0  0  0  0  0  0  0
  138.3140   74.2650  220.5950 C   0  0  0  0  0  0  0  0  0  0  0  0
  138.3660   75.7160  220.7830 C   0  0  0  0  0  0  0  0  0  0  0  0
  137.3300   76.3900  220.4810 O   0  0  0  0  0  0  0  0  0  0  0  0
  139.5500   76.3200  221.2870 N   0  0  0  0  0  0  0  0  0  0  0  0
  139.8600   76.5850  222.6790 C   0  0  0  0  0  0  0  0  0  0  0  0
  141.0720   77.4900  222.6790 C   0  0  0  0  0  0  0  0  0  0  0  0
  141.0310   78.0480  221.2740 C   0  0  0  0  0  0  0  0  0  0  0  0
  140.6940   76.7990  220.4930 C   0  0  1  0  0  0  0  0  0  0  0  0
  141.7810   75.8060  220.4560 C   0  0  0  0  0  0  0  0  0  0  0  0
  143.0290   76.1630  219.9960 C   0  0  0  0  0  0  0  0  0  0  0  0
  144.0920   75.2640  219.9390 C   0  0  0  0  0  0  0  0  0  0  0  0
  143.8680   73.9740  220.3660 C   0  0  0  0  0  0  0  0  0  0  0  0
  145.2230   72.8470  220.2900 Cl  0  0  0  0  0  0  0  0  0  0  0  0
  142.6380   73.5660  220.8360 C   0  0  0  0  0  0  0  0  0  0  0  0
  141.6080   74.4890  220.8760 C   0  0  0  0  0  0  0  0  0  0  0  0
  139.3170   71.3530  222.8240 C   0  0  0  0  0  0  0  0  0  0  0  0
  138.9730   70.0300  222.8360 C   0  0  0  0  0  0  0  0  0  0  0  0
  139.2270   69.2210  223.9360 C   0  0  0  0  0  0  0  0  0  0  0  0
  139.8420   69.7550  225.0460 C   0  0  0  0  0  0  0  0  0  0  0  0
  140.1040   68.9690  226.1530 C   0  0  0  0  0  0  0  0  0  0  0  0
  140.7240   69.5080  227.2740 C   0  0  0  0  0  0  0  0  0  0  0  0
  141.0670   68.5360  228.6850 Cl  0  0  0  0  0  0  0  0  0  0  0  0
  141.0570   70.8580  227.2180 C   0  0  0  0  0  0  0  0  0  0  0  0
  140.7880   71.6240  226.1100 C   0  0  0  0  0  0  0  0  0  0  0  0
  140.1770   71.0870  225.0070 C   0  0  0  0  0  0  0  0  0  0  0  0
  139.9230   71.8670  223.9280 N   0  0  0  0  0  0  0  0  0  0  0  0
  138.4490   73.8640  222.7600 H   0  0  0  0  0  0  0  0  0  0  0  0
  139.0631   73.9884  219.8385 H   0  0  0  0  0  0  0  0  0  0  0  0
  137.2861   74.0236  220.2865 H   0  0  0  0  0  0  0  0  0  0  0  0
  139.0117   77.0845  223.1698 H   0  0  0  0  0  0  0  0  0  0  0  0
  140.0568   75.6531  223.2293 H   0  0  0  0  0  0  0  0  0  0  0  0
  140.9782   78.2873  223.4310 H   0  0  0  0  0  0  0  0  0  0  0  0
  142.0131   76.9796  222.9318 H   0  0  0  0  0  0  0  0  0  0  0  0
  140.2528   78.8177  221.1650 H   0  0  0  0  0  0  0  0  0  0  0  0
  141.9537   78.5543  220.9542 H   0  0  0  0  0  0  0  0  0  0  0  0
  140.5031   76.9783  219.4246 H   0  0  0  0  0  0  0  0  0  0  0  0
  143.1930   77.1977  219.6607 H   0  0  0  0  0  0  0  0  0  0  0  0
  145.0786   75.5747  219.5649 H   0  0  0  0  0  0  0  0  0  0  0  0
  142.4790   72.5305  221.1715 H   0  0  0  0  0  0  0  0  0  0  0  0
  140.6231   74.1735  221.2507 H   0  0  0  0  0  0  0  0  0  0  0  0
  138.4828   69.5953  221.9524 H   0  0  0  0  0  0  0  0  0  0  0  0
  138.9384   68.1596  223.9204 H   0  0  0  0  0  0  0  0  0  0  0  0
  139.8189   67.9066  226.1463 H   0  0  0  0  0  0  0  0  0  0  0  0
  141.5489   71.3243  228.0844 H   0  0  0  0  0  0  0  0  0  0  0  0
  141.0680   72.6878  226.1080 H   0  0  0  0  0  0  0  0  0  0  0  0
  1  2  2  0
  2  3  1  0
  3  4  1  0
  4  5  1  0
  5  6  2  0
  5  7  1  0
  7  8  1  0
  8  9  1  0
  9 10  1  0
 10 11  1  0
 11 12  1  0
 12 13  2  0
 13 14  1  0
 14 15  2  0
 15 16  1  0
 15 17  1  0
 17 18  2  0
  2 19  1  0
 19 20  2  0
 20 21  1  0
 21 22  2  0
 22 23  1  0
 23 24  2  0
 24 25  1  0
 24 26  1  0
 26 27  2  0
 27 28  1  0
 28 29  2  0
 11  7  1  0
 18 12  1  0
 29 19  1  0
 28 22  1  0
  3 30  1  0
  4 31  1  0
  4 32  1  0
  8 33  1  0
  8 34  1  0
  9 35  1  0
  9 36  1  0
 10 37  1  0
 10 38  1  0
 11 39  1  6
 13 40  1  0
 14 41  1  0
 17 42  1  0
 18 43  1  0
 20 44  1  0
 21 45  1  0
 23 46  1  0
 26 47  1  0
 27 48  1  0
M  END
>  <meeko>  (17) 
{"free_energy": -8.11, "intermolecular_energy": -9.6, "internal_energy": -1.82, "cluster_size": 13, "cluster_id": 2, "rank_in_cluster": 9}

$$$$

     RDKit          3D

 48 51  0  0  0  0  0  0  0  0999 V2000
  138.9280   71.5410  220.5210 O   0  0  0  0  0  0  0  0  0  0  0  0
  138.9130   72.0630  221.6670 C   0  0  0  0  0  0  0  0  0  0  0  0
  138.5880   73.4380  221.7840 N   0  0  0  0  0  0  0  0  0  0  0  0
  138.2890   74.1740  220.5980 C   0  0  0  0  0  0  0  0  0  0  0  0
  138.3460   75.6270  220.7620 C   0  0  0  0  0  0  0  0  0  0  0  0
  137.3130   76.3000  220.4470 O   0  0  0  0  0  0  0  0  0  0  0  0
  139.5300   76.2370  221.2580 N   0  0  0  0  0  0  0  0  0  0  0  0
  139.8400   76.5200  222.6460 C   0  0  0  0  0  0  0  0  0  0  0  0
  141.0530   77.4230  222.6340 C   0  0  0  0  0  0  0  0  0  0  0  0
  141.0140   77.9610  221.2210 C   0  0  0  0  0  0  0  0  0  0  0  0
  140.6760   76.7020  220.4580 C   0  0  1  0  0  0  0  0  0  0  0  0
  141.7610   75.7060  220.4350 C   0  0  0  0  0  0  0  0  0  0  0  0
  143.0100   76.0550  219.9730 C   0  0  0  0  0  0  0  0  0  0  0  0
  144.0720   75.1540  219.9300 C   0  0  0  0  0  0  0  0  0  0  0  0
  143.8450   73.8700  220.3730 C   0  0  0  0  0  0  0  0  0  0  0  0
  145.1970   72.7400  220.3130 Cl  0  0  0  0  0  0  0  0  0  0  0  0
  142.6130   73.4700  220.8460 C   0  0  0  0  0  0  0  0  0  0  0  0
  141.5840   74.3950  220.8720 C   0  0  0  0  0  0  0  0  0  0  0  0
  139.2260   71.2550  222.8470 C   0  0  0  0  0  0  0  0  0  0  0  0
  138.8940   69.9300  222.8820 C   0  0  0  0  0  0  0  0  0  0  0  0
  139.1770   69.1370  223.9860 C   0  0  0  0  0  0  0  0  0  0  0  0
  139.8100   69.6880  225.0770 C   0  0  0  0  0  0  0  0  0  0  0  0
  140.1020   68.9180  226.1870 C   0  0  0  0  0  0  0  0  0  0  0  0
  140.7400   69.4760  227.2890 C   0  0  0  0  0  0  0  0  0  0  0  0
  141.1210   68.5240  228.7040 Cl  0  0  0  0  0  0  0  0  0  0  0  0
  141.0610   70.8280  227.2100 C   0  0  0  0  0  0  0  0  0  0  0  0
  140.7620   71.5780  226.0990 C   0  0  0  0  0  0  0  0  0  0  0  0
  140.1330   71.0230  225.0150 C   0  0  0  0  0  0  0  0  0  0  0  0
  139.8510   71.7880  223.9320 N   0  0  0  0  0  0  0  0  0  0  0  0
  138.5860   73.8340  222.7570 H   0  0  0  0  0  0  0  0  0  0  0  0
  139.0132   73.8860  219.8218 H   0  0  0  0  0  0  0  0  0  0  0  0
  137.2519   73.9275  220.3267 H   0  0  0  0  0  0  0  0  0  0  0  0
  138.9923   77.0272  223.1299 H   0  0  0  0  0  0  0  0  0  0  0  0
  140.0353   75.5953  223.2088 H   0  0  0  0  0  0  0  0  0  0  0  0
  140.9597   78.2311  223.3744 H   0  0  0  0  0  0  0  0  0  0  0  0
  141.9931   76.9149  222.8948 H   0  0  0  0  0  0  0  0  0  0  0  0
  140.2370   78.7302  221.1004 H   0  0  0  0  0  0  0  0  0  0  0  0
  141.9377   78.4614  220.8947 H   0  0  0  0  0  0  0  0  0  0  0  0
  140.4869   76.8662  219.3869 H   0  0  0  0  0  0  0  0  0  0  0  0
  143.1760   77.0850  219.6243 H   0  0  0  0  0  0  0  0  0  0  0  0
  145.0600   75.4585  219.5543 H   0  0  0  0  0  0  0  0  0  0  0  0
  142.4518   72.4392  221.1947 H   0  0  0  0  0  0  0  0  0  0  0  0
  140.5977   74.0862  221.2486 H   0  0  0  0  0  0  0  0  0  0  0  0
  138.3899   69.4804  222.0138 H   0  0  0  0  0  0  0  0  0  0  0  0
  138.8966   68.0733  223.9887 H   0  0  0  0  0  0  0  0  0  0  0  0
  139.8269   67.8530  226.1986 H   0  0  0  0  0  0  0  0  0  0  0  0
  141.5676   71.3086  228.0599 H   0  0  0  0  0  0  0  0  0  0  0  0
  141.0324   72.6441  226.0787 H   0  0  0  0  0  0  0  0  0  0  0  0
  1  2  2  0
  2  3  1  0
  3  4  1  0
  4  5  1  0
  5  6  2  0
  5  7  1  0
  7  8  1  0
  8  9  1  0
  9 10  1  0
 10 11  1  0
 11 12  1  0
 12 13  2  0
 13 14  1  0
 14 15  2  0
 15 16  1  0
 15 17  1  0
 17 18  2  0
  2 19  1  0
 19 20  2  0
 20 21  1  0
 21 22  2  0
 22 23  1  0
 23 24  2  0
 24 25  1  0
 24 26  1  0
 26 27  2  0
 27 28  1  0
 28 29  2  0
 11  7  1  0
 18 12  1  0
 29 19  1  0
 28 22  1  0
  3 30  1  0
  4 31  1  0
  4 32  1  0
  8 33  1  0
  8 34  1  0
  9 35  1  0
  9 36  1  0
 10 37  1  0
 10 38  1  0
 11 39  1  6
 13 40  1  0
 14 41  1  0
 17 42  1  0
 18 43  1  0
 20 44  1  0
 21 45  1  0
 23 46  1  0
 26 47  1  0
 27 48  1  0
M  END
>  <meeko>  (18) 
{"free_energy": -8.05, "intermolecular_energy": -9.55, "internal_energy": -1.82, "cluster_size": 13, "cluster_id": 2, "rank_in_cluster": 12}

$$$$

     RDKit          3D

 48 51  0  0  0  0  0  0  0  0999 V2000
  139.9390   72.2310  220.7590 O   0  0  0  0  0  0  0  0  0  0  0  0
  139.4680   72.4900  221.8990 C   0  0  0  0  0  0  0  0  0  0  0  0
  138.7350   73.6910  222.0740 N   0  0  0  0  0  0  0  0  0  0  0  0
  138.5610   74.5570  220.9520 C   0  0  0  0  0  0  0  0  0  0  0  0
  138.5200   75.9800  221.2920 C   0  0  0  0  0  0  0  0  0  0  0  0
  137.3790   76.5150  221.4670 O   0  0  0  0  0  0  0  0  0  0  0  0
  139.7320   76.7130  221.4130 N   0  0  0  0  0  0  0  0  0  0  0  0
  140.2710   77.2940  222.6270 C   0  0  0  0  0  0  0  0  0  0  0  0
  141.3990   78.2050  222.1960 C   0  0  0  0  0  0  0  0  0  0  0  0
  141.0660   78.4280  220.7370 C   0  0  0  0  0  0  0  0  0  0  0  0
  140.6770   77.0270  220.3290 C   0  0  1  0  0  0  0  0  0  0  0  0
  141.8040   76.0780  220.3010 C   0  0  0  0  0  0  0  0  0  0  0  0
  141.6650   74.8230  220.8510 C   0  0  0  0  0  0  0  0  0  0  0  0
  142.6980   73.8870  220.8520 C   0  0  0  0  0  0  0  0  0  0  0  0
  143.8940   74.2480  220.2740 C   0  0  0  0  0  0  0  0  0  0  0  0
  145.1920   73.0540  220.2820 Cl  0  0  0  0  0  0  0  0  0  0  0  0
  144.0840   75.4910  219.7090 C   0  0  0  0  0  0  0  0  0  0  0  0
  143.0350   76.3930  219.7290 C   0  0  0  0  0  0  0  0  0  0  0  0
  139.6780   71.5620  223.0100 C   0  0  0  0  0  0  0  0  0  0  0  0
  139.3510   70.2410  222.8750 C   0  0  0  0  0  0  0  0  0  0  0  0
  139.5390   69.3350  223.9100 C   0  0  0  0  0  0  0  0  0  0  0  0
  140.0670   69.7670  225.1060 C   0  0  0  0  0  0  0  0  0  0  0  0
  140.2620   68.8820  226.1510 C   0  0  0  0  0  0  0  0  0  0  0  0
  140.7950   69.3190  227.3590 C   0  0  0  0  0  0  0  0  0  0  0  0
  141.0520   68.2210  228.6940 Cl  0  0  0  0  0  0  0  0  0  0  0  0
  141.1130   70.6700  227.4520 C   0  0  0  0  0  0  0  0  0  0  0  0
  140.9120   71.5350  226.4040 C   0  0  0  0  0  0  0  0  0  0  0  0
  140.3860   71.0990  225.2150 C   0  0  0  0  0  0  0  0  0  0  0  0
  140.1980   71.9750  224.1970 N   0  0  0  0  0  0  0  0  0  0  0  0
  138.3580   73.8700  223.0380 H   0  0  0  0  0  0  0  0  0  0  0  0
  139.3973   74.3926  220.2566 H   0  0  0  0  0  0  0  0  0  0  0  0
  137.5842   74.3096  220.5107 H   0  0  0  0  0  0  0  0  0  0  0  0
  139.4944   77.8707  223.1509 H   0  0  0  0  0  0  0  0  0  0  0  0
  140.6267   76.5165  223.3191 H   0  0  0  0  0  0  0  0  0  0  0  0
  141.3899   79.1499  222.7592 H   0  0  0  0  0  0  0  0  0  0  0  0
  142.4025   77.7887  222.3684 H   0  0  0  0  0  0  0  0  0  0  0  0
  140.2314   79.1338  220.6138 H   0  0  0  0  0  0  0  0  0  0  0  0
  141.8790   78.8705  220.1427 H   0  0  0  0  0  0  0  0  0  0  0  0
  140.2825   76.9540  219.3048 H   0  0  0  0  0  0  0  0  0  0  0  0
  140.7022   74.5488  221.3068 H   0  0  0  0  0  0  0  0  0  0  0  0
  142.5618   72.8918  221.3003 H   0  0  0  0  0  0  0  0  0  0  0  0
  145.0480   75.7597  219.2525 H   0  0  0  0  0  0  0  0  0  0  0  0
  143.1769   77.3873  219.2805 H   0  0  0  0  0  0  0  0  0  0  0  0
  138.9286   69.8876  221.9228 H   0  0  0  0  0  0  0  0  0  0  0  0
  139.2676   68.2776  223.7753 H   0  0  0  0  0  0  0  0  0  0  0  0
  139.9930   67.8228  226.0255 H   0  0  0  0  0  0  0  0  0  0  0  0
  141.5371   71.0563  228.3906 H   0  0  0  0  0  0  0  0  0  0  0  0
  141.1776   72.5961  226.5206 H   0  0  0  0  0  0  0  0  0  0  0  0
  1  2  2  0
  2  3  1  0
  3  4  1  0
  4  5  1  0
  5  6  2  0
  5  7  1  0
  7  8  1  0
  8  9  1  0
  9 10  1  0
 10 11  1  0
 11 12  1  0
 12 13  2  0
 13 14  1  0
 14 15  2  0
 15 16  1  0
 15 17  1  0
 17 18  2  0
  2 19  1  0
 19 20  2  0
 20 21  1  0
 21 22  2  0
 22 23  1  0
 23 24  2  0
 24 25  1  0
 24 26  1  0
 26 27  2  0
 27 28  1  0
 28 29  2  0
 11  7  1  0
 18 12  1  0
 29 19  1  0
 28 22  1  0
  3 30  1  0
  4 31  1  0
  4 32  1  0
  8 33  1  0
  8 34  1  0
  9 35  1  0
  9 36  1  0
 10 37  1  0
 10 38  1  0
 11 39  1  6
 13 40  1  0
 14 41  1  0
 17 42  1  0
 18 43  1  0
 20 44  1  0
 21 45  1  0
 23 46  1  0
 26 47  1  0
 27 48  1  0
M  END
>  <meeko>  (19) 
{"free_energy": -8.51, "intermolecular_energy": -10.0, "internal_energy": -1.67, "cluster_size": 13, "cluster_id": 2, "rank_in_cluster": 3}

$$$$

     RDKit          3D

 48 51  0  0  0  0  0  0  0  0999 V2000
  138.7150   71.8660  220.9370 O   0  0  0  0  0  0  0  0  0  0  0  0
  138.9980   72.3240  222.0760 C   0  0  0  0  0  0  0  0  0  0  0  0
  139.0130   73.7300  222.2600 N   0  0  0  0  0  0  0  0  0  0  0  0
  138.7050   74.5690  221.1460 C   0  0  0  0  0  0  0  0  0  0  0  0
  138.7460   76.0020  221.4440 C   0  0  0  0  0  0  0  0  0  0  0  0
  137.6660   76.5590  221.8200 O   0  0  0  0  0  0  0  0  0  0  0  0
  139.9660   76.7180  221.3060 N   0  0  0  0  0  0  0  0  0  0  0  0
  140.6000   77.5450  222.3140 C   0  0  0  0  0  0  0  0  0  0  0  0
  141.6940   78.3130  221.6050 C   0  0  0  0  0  0  0  0  0  0  0  0
  141.2480   78.2100  220.1630 C   0  0  0  0  0  0  0  0  0  0  0  0
  140.8250   76.7610  220.1110 C   0  0  1  0  0  0  0  0  0  0  0  0
  141.9430   75.8070  220.2120 C   0  0  0  0  0  0  0  0  0  0  0  0
  143.1940   76.1570  219.7550 C   0  0  0  0  0  0  0  0  0  0  0  0
  144.2860   75.2950  219.8270 C   0  0  0  0  0  0  0  0  0  0  0  0
  144.0880   74.0500  220.3800 C   0  0  0  0  0  0  0  0  0  0  0  0
  145.4790   72.9680  220.4650 Cl  0  0  0  0  0  0  0  0  0  0  0  0
  142.8560   73.6510  220.8530 C   0  0  0  0  0  0  0  0  0  0  0  0
  141.7960   74.5360  220.7630 C   0  0  0  0  0  0  0  0  0  0  0  0
  139.3030   71.4130  223.1800 C   0  0  0  0  0  0  0  0  0  0  0  0
  138.9970   70.0840  223.0800 C   0  0  0  0  0  0  0  0  0  0  0  0
  139.2740   69.1940  224.1080 C   0  0  0  0  0  0  0  0  0  0  0  0
  139.8720   69.6490  225.2620 C   0  0  0  0  0  0  0  0  0  0  0  0
  140.1560   68.7810  226.2990 C   0  0  0  0  0  0  0  0  0  0  0  0
  140.7590   69.2420  227.4640 C   0  0  0  0  0  0  0  0  0  0  0  0
  141.1300   68.1650  228.7890 Cl  0  0  0  0  0  0  0  0  0  0  0  0
  141.0540   70.6000  227.5220 C   0  0  0  0  0  0  0  0  0  0  0  0
  140.7640   71.4490  226.4820 C   0  0  0  0  0  0  0  0  0  0  0  0
  140.1680   70.9890  225.3350 C   0  0  0  0  0  0  0  0  0  0  0  0
  139.8940   71.8500  224.3250 N   0  0  0  0  0  0  0  0  0  0  0  0
  139.2530   74.0700  223.2240 H   0  0  0  0  0  0  0  0  0  0  0  0
  139.4320   74.3620  220.3469 H   0  0  0  0  0  0  0  0  0  0  0  0
  137.6707   74.3369  220.8521 H   0  0  0  0  0  0  0  0  0  0  0  0
  139.8686   78.2403  222.7517 H   0  0  0  0  0  0  0  0  0  0  0  0
  141.0062   76.9352  223.1345 H   0  0  0  0  0  0  0  0  0  0  0  0
  141.7321   79.3600  221.9401 H   0  0  0  0  0  0  0  0  0  0  0  0
  142.7067   77.9256  221.7903 H   0  0  0  0  0  0  0  0  0  0  0  0
  140.4078   78.8867  219.9480 H   0  0  0  0  0  0  0  0  0  0  0  0
  142.0129   78.4919  219.4244 H   0  0  0  0  0  0  0  0  0  0  0  0
  140.3523   76.4678  219.1620 H   0  0  0  0  0  0  0  0  0  0  0  0
  143.3365   77.1556  219.3163 H   0  0  0  0  0  0  0  0  0  0  0  0
  145.2750   75.5995  219.4538 H   0  0  0  0  0  0  0  0  0  0  0  0
  142.7187   72.6518  221.2920 H   0  0  0  0  0  0  0  0  0  0  0  0
  140.8089   74.2270  221.1373 H   0  0  0  0  0  0  0  0  0  0  0  0
  138.5194   69.7112  222.1619 H   0  0  0  0  0  0  0  0  0  0  0  0
  139.0170   68.1297  224.0016 H   0  0  0  0  0  0  0  0  0  0  0  0
  139.9026   67.7150  226.2019 H   0  0  0  0  0  0  0  0  0  0  0  0
  141.5327   71.0052  228.4257 H   0  0  0  0  0  0  0  0  0  0  0  0
  141.0140   72.5166  226.5702 H   0  0  0  0  0  0  0  0  0  0  0  0
  1  2  2  0
  2  3  1  0
  3  4  1  0
  4  5  1  0
  5  6  2  0
  5  7  1  0
  7  8  1  0
  8  9  1  0
  9 10  1  0
 10 11  1  0
 11 12  1  0
 12 13  2  0
 13 14  1  0
 14 15  2  0
 15 16  1  0
 15 17  1  0
 17 18  2  0
  2 19  1  0
 19 20  2  0
 20 21  1  0
 21 22  2  0
 22 23  1  0
 23 24  2  0
 24 25  1  0
 24 26  1  0
 26 27  2  0
 27 28  1  0
 28 29  2  0
 11  7  1  0
 18 12  1  0
 29 19  1  0
 28 22  1  0
  3 30  1  0
  4 31  1  0
  4 32  1  0
  8 33  1  0
  8 34  1  0
  9 35  1  0
  9 36  1  0
 10 37  1  0
 10 38  1  0
 11 39  1  6
 13 40  1  0
 14 41  1  0
 17 42  1  0
 18 43  1  0
 20 44  1  0
 21 45  1  0
 23 46  1  0
 26 47  1  0
 27 48  1  0
M  END
>  <meeko>  (20) 
{"free_energy": -8.31, "intermolecular_energy": -9.81, "internal_energy": -1.66, "cluster_size": 13, "cluster_id": 2, "rank_in_cluster": 8}

$$$$
