
     RDKit          3D

 51 54  0  0  0  0  0  0  0  0999 V2000
  140.5000   71.4760  221.7830 O   0  0  0  0  0  0  0  0  0  0  0  0
  139.6470   71.5510  222.7080 C   0  0  0  0  0  0  0  0  0  0  0  0
  138.6270   72.5540  222.6680 N   0  0  0  0  0  0  0  0  0  0  0  0
  138.5860   73.4790  221.5530 C   0  0  0  0  0  0  0  0  0  0  0  0
  139.7070   74.4340  221.5750 C   0  0  0  0  0  0  0  0  0  0  0  0
  140.8230   74.1820  222.1320 O   0  0  0  0  0  0  0  0  0  0  0  0
  139.5830   75.7090  220.9590 N   0  0  0  0  0  0  0  0  0  0  0  0
  138.2490   76.2720  220.8780 C   0  0  0  0  0  0  0  0  0  0  0  0
  137.9790   76.8470  219.4950 C   0  0  0  0  0  0  0  0  0  0  0  0
  139.1660   77.7690  219.1730 C   0  0  0  0  0  0  0  0  0  0  0  0
  140.3610   76.8560  219.0340 C   0  0  0  0  0  0  0  0  0  0  0  0
  140.7370   76.4170  220.4350 C   0  0  1  0  0  0  0  0  0  0  0  0
  141.1530   77.5610  221.2850 C   0  0  0  0  0  0  0  0  0  0  0  0
  140.9850   77.5960  222.6510 C   0  0  0  0  0  0  0  0  0  0  0  0
  141.3790   78.6660  223.4320 C   0  0  0  0  0  0  0  0  0  0  0  0
  141.9670   79.7600  222.8520 C   0  0  0  0  0  0  0  0  0  0  0  0
  142.5060   81.2300  223.9370 Br  0  0  0  0  0  0  0  0  0  0  0  0
  142.1450   79.7480  221.4870 C   0  0  0  0  0  0  0  0  0  0  0  0
  141.7440   78.6610  220.7010 C   0  0  0  0  0  0  0  0  0  0  0  0
  139.6690   70.6190  223.8540 C   0  0  0  0  0  0  0  0  0  0  0  0
  139.0620   69.3940  223.7530 C   0  0  0  0  0  0  0  0  0  0  0  0
  139.0890   68.5220  224.8410 C   0  0  0  0  0  0  0  0  0  0  0  0
  139.7320   68.9240  226.0020 C   0  0  0  0  0  0  0  0  0  0  0  0
  139.8090   68.1290  227.1270 C   0  0  0  0  0  0  0  0  0  0  0  0
  140.4450   68.5170  228.2850 C   0  0  0  0  0  0  0  0  0  0  0  0
  141.0470   69.7730  228.3390 C   0  0  0  0  0  0  0  0  0  0  0  0
  140.9760   70.5750  227.2190 C   0  0  0  0  0  0  0  0  0  0  0  0
  140.3330   70.1620  226.0720 C   0  0  0  0  0  0  0  0  0  0  0  0
  140.2920   70.9740  225.0140 N   0  0  0  0  0  0  0  0  0  0  0  0
  137.9430   72.5730  223.4620 H   0  0  0  0  0  0  0  0  0  0  0  0
  138.6293   72.9048  220.6157 H   0  0  0  0  0  0  0  0  0  0  0  0
  137.6523   74.0556  221.6293 H   0  0  0  0  0  0  0  0  0  0  0  0
  137.5126   75.4825  221.0887 H   0  0  0  0  0  0  0  0  0  0  0  0
  138.1675   77.0840  221.6155 H   0  0  0  0  0  0  0  0  0  0  0  0
  137.9123   76.0382  218.7524 H   0  0  0  0  0  0  0  0  0  0  0  0
  137.0266   77.3968  219.4691 H   0  0  0  0  0  0  0  0  0  0  0  0
  138.9865   78.3128  218.2338 H   0  0  0  0  0  0  0  0  0  0  0  0
  139.3195   78.5250  219.9571 H   0  0  0  0  0  0  0  0  0  0  0  0
  140.1009   75.9816  218.4194 H   0  0  0  0  0  0  0  0  0  0  0  0
  141.1988   77.3719  218.5421 H   0  0  0  0  0  0  0  0  0  0  0  0
  141.6167   75.7567  220.4246 H   0  0  0  0  0  0  0  0  0  0  0  0
  140.5153   76.7320  223.1438 H   0  0  0  0  0  0  0  0  0  0  0  0
  141.2206   78.6397  224.5202 H   0  0  0  0  0  0  0  0  0  0  0  0
  142.6149   80.6157  221.0008 H   0  0  0  0  0  0  0  0  0  0  0  0
  141.9012   78.6848  219.6126 H   0  0  0  0  0  0  0  0  0  0  0  0
  138.5573   69.1010  222.8206 H   0  0  0  0  0  0  0  0  0  0  0  0
  138.6093   67.5340  224.7794 H   0  0  0  0  0  0  0  0  0  0  0  0
  139.3386   67.1351  227.0973 H   0  0  0  0  0  0  0  0  0  0  0  0
  140.4776   67.8451  229.1554 H   0  0  0  0  0  0  0  0  0  0  0  0
  141.5635   70.1146  229.2481 H   0  0  0  0  0  0  0  0  0  0  0  0
  141.4447   71.5699  227.2418 H   0  0  0  0  0  0  0  0  0  0  0  0
  1  2  2  0
  2  3  1  0
  3  4  1  0
  4  5  1  0
  5  6  2  0
  5  7  1  0
  7  8  1  0
  8  9  1  0
  9 10  1  0
 10 11  1  0
 11 12  1  0
 12 13  1  0
 13 14  2  0
 14 15  1  0
 15 16  2  0
 16 17  1  0
 16 18  1  0
 18 19  2  0
  2 20  1  0
 20 21  2  0
 21 22  1  0
 22 23  2  0
 23 24  1  0
 24 25  2  0
 25 26  1  0
 26 27  2  0
 27 28  1  0
 28 29  2  0
 12  7  1  0
 19 13  1  0
 29 20  1  0
 28 23  1  0
  3 30  1  0
  4 31  1  0
  4 32  1  0
  8 33  1  0
  8 34  1  0
  9 35  1  0
  9 36  1  0
 10 37  1  0
 10 38  1  0
 11 39  1  0
 11 40  1  0
 12 41  1  6
 14 42  1  0
 15 43  1  0
 18 44  1  0
 19 45  1  0
 21 46  1  0
 22 47  1  0
 24 48  1  0
 25 49  1  0
 26 50  1  0
 27 51  1  0
M  END
>  <meeko>  (1) 
{"free_energy": -9.11, "intermolecular_energy": -10.6, "internal_energy": -1.28, "cluster_size": 3, "cluster_id": 2, "rank_in_cluster": 1}

$$$$

     RDKit          3D

 51 54  0  0  0  0  0  0  0  0999 V2000
  138.7160   70.7350  221.4160 O   0  0  0  0  0  0  0  0  0  0  0  0
  138.9980   71.4370  222.4250 C   0  0  0  0  0  0  0  0  0  0  0  0
  138.9660   72.8650  222.3410 N   0  0  0  0  0  0  0  0  0  0  0  0
  138.6050   73.4930  221.0850 C   0  0  0  0  0  0  0  0  0  0  0  0
  138.3910   74.9430  221.2240 C   0  0  0  0  0  0  0  0  0  0  0  0
  137.2350   75.4730  221.2820 O   0  0  0  0  0  0  0  0  0  0  0  0
  139.4970   75.8340  221.3000 N   0  0  0  0  0  0  0  0  0  0  0  0
  139.7350   76.4770  222.5770 C   0  0  0  0  0  0  0  0  0  0  0  0
  140.0140   77.9630  222.3990 C   0  0  0  0  0  0  0  0  0  0  0  0
  141.1110   78.0700  221.3280 C   0  0  0  0  0  0  0  0  0  0  0  0
  140.4700   77.5960  220.0450 C   0  0  0  0  0  0  0  0  0  0  0  0
  140.3480   76.0890  220.1520 C   0  0  1  0  0  0  0  0  0  0  0  0
  141.6740   75.4280  220.2540 C   0  0  0  0  0  0  0  0  0  0  0  0
  141.8590   74.1670  220.7750 C   0  0  0  0  0  0  0  0  0  0  0  0
  143.0980   73.5610  220.8610 C   0  0  0  0  0  0  0  0  0  0  0  0
  144.2160   74.2180  220.4170 C   0  0  0  0  0  0  0  0  0  0  0  0
  145.9200   73.3740  220.5410 Br  0  0  0  0  0  0  0  0  0  0  0  0
  144.0560   75.4800  219.8910 C   0  0  0  0  0  0  0  0  0  0  0  0
  142.7980   76.0890  219.8060 C   0  0  0  0  0  0  0  0  0  0  0  0
  139.3690   70.8190  223.7150 C   0  0  0  0  0  0  0  0  0  0  0  0
  139.1580   69.4800  223.9200 C   0  0  0  0  0  0  0  0  0  0  0  0
  139.5120   68.9080  225.1410 C   0  0  0  0  0  0  0  0  0  0  0  0
  140.0710   69.7160  226.1200 C   0  0  0  0  0  0  0  0  0  0  0  0
  140.4510   69.2390  227.3560 C   0  0  0  0  0  0  0  0  0  0  0  0
  141.0060   70.0310  228.3360 C   0  0  0  0  0  0  0  0  0  0  0  0
  141.2010   71.3880  228.0800 C   0  0  0  0  0  0  0  0  0  0  0  0
  140.8240   71.8760  226.8460 C   0  0  0  0  0  0  0  0  0  0  0  0
  140.2700   71.0590  225.8830 C   0  0  0  0  0  0  0  0  0  0  0  0
  139.9220   71.5790  224.7040 N   0  0  0  0  0  0  0  0  0  0  0  0
  139.2100   73.4020  223.2070 H   0  0  0  0  0  0  0  0  0  0  0  0
  139.4143   73.3232  220.3596 H   0  0  0  0  0  0  0  0  0  0  0  0
  137.6593   73.0453  220.7456 H   0  0  0  0  0  0  0  0  0  0  0  0
  138.8464   76.3520  223.2133 H   0  0  0  0  0  0  0  0  0  0  0  0
  140.6143   76.0100  223.0447 H   0  0  0  0  0  0  0  0  0  0  0  0
  139.1044   78.4842  222.0661 H   0  0  0  0  0  0  0  0  0  0  0  0
  140.3316   78.4265  223.3447 H   0  0  0  0  0  0  0  0  0  0  0  0
  141.4491   79.1118  221.2268 H   0  0  0  0  0  0  0  0  0  0  0  0
  141.9954   77.4699  221.5883 H   0  0  0  0  0  0  0  0  0  0  0  0
  139.4749   78.0498  219.9278 H   0  0  0  0  0  0  0  0  0  0  0  0
  141.0726   77.8838  219.1709 H   0  0  0  0  0  0  0  0  0  0  0  0
  139.9021   75.6587  219.2431 H   0  0  0  0  0  0  0  0  0  0  0  0
  140.9795   73.6162  221.1398 H   0  0  0  0  0  0  0  0  0  0  0  0
  143.1871   72.5504  221.2862 H   0  0  0  0  0  0  0  0  0  0  0  0
  144.9400   76.0246  219.5278 H   0  0  0  0  0  0  0  0  0  0  0  0
  142.7061   77.0990  219.3800 H   0  0  0  0  0  0  0  0  0  0  0  0
  138.7126   68.8615  223.1268 H   0  0  0  0  0  0  0  0  0  0  0  0
  139.3509   67.8355  225.3247 H   0  0  0  0  0  0  0  0  0  0  0  0
  140.3032   68.1703  227.5706 H   0  0  0  0  0  0  0  0  0  0  0  0
  141.2915   69.5997  229.3068 H   0  0  0  0  0  0  0  0  0  0  0  0
  141.6425   72.0497  228.8397 H   0  0  0  0  0  0  0  0  0  0  0  0
  140.9689   72.9437  226.6246 H   0  0  0  0  0  0  0  0  0  0  0  0
  1  2  2  0
  2  3  1  0
  3  4  1  0
  4  5  1  0
  5  6  2  0
  5  7  1  0
  7  8  1  0
  8  9  1  0
  9 10  1  0
 10 11  1  0
 11 12  1  0
 12 13  1  0
 13 14  2  0
 14 15  1  0
 15 16  2  0
 16 17  1  0
 16 18  1  0
 18 19  2  0
  2 20  1  0
 20 21  2  0
 21 22  1  0
 22 23  2  0
 23 24  1  0
 24 25  2  0
 25 26  1  0
 26 27  2  0
 27 28  1  0
 28 29  2  0
 12  7  1  0
 19 13  1  0
 29 20  1  0
 28 23  1  0
  3 30  1  0
  4 31  1  0
  4 32  1  0
  8 33  1  0
  8 34  1  0
  9 35  1  0
  9 36  1  0
 10 37  1  0
 10 38  1  0
 11 39  1  0
 11 40  1  0
 12 41  1  6
 14 42  1  0
 15 43  1  0
 18 44  1  0
 19 45  1  0
 21 46  1  0
 22 47  1  0
 24 48  1  0
 25 49  1  0
 26 50  1  0
 27 51  1  0
M  END
>  <meeko>  (2) 
{"free_energy": -8.76, "intermolecular_energy": -10.25, "internal_energy": -1.77, "cluster_size": 16, "cluster_id": 3, "rank_in_cluster": 8}

$$$$

     RDKit          3D

 51 54  0  0  0  0  0  0  0  0999 V2000
  138.8770   70.7130  221.3710 O   0  0  0  0  0  0  0  0  0  0  0  0
  139.0710   71.4350  222.3860 C   0  0  0  0  0  0  0  0  0  0  0  0
  138.9450   72.8570  222.2930 N   0  0  0  0  0  0  0  0  0  0  0  0
  138.5910   73.4560  221.0220 C   0  0  0  0  0  0  0  0  0  0  0  0
  138.4050   74.9130  221.1200 C   0  0  0  0  0  0  0  0  0  0  0  0
  137.2610   75.4710  221.1070 O   0  0  0  0  0  0  0  0  0  0  0  0
  139.5270   75.7800  221.2360 N   0  0  0  0  0  0  0  0  0  0  0  0
  139.7500   76.3940  222.5300 C   0  0  0  0  0  0  0  0  0  0  0  0
  140.0630   77.8770  222.3860 C   0  0  0  0  0  0  0  0  0  0  0  0
  141.1850   77.9810  221.3400 C   0  0  0  0  0  0  0  0  0  0  0  0
  140.5620   77.5450  220.0360 C   0  0  0  0  0  0  0  0  0  0  0  0
  140.4070   76.0390  220.1110 C   0  0  1  0  0  0  0  0  0  0  0  0
  141.7170   75.3490  220.2280 C   0  0  0  0  0  0  0  0  0  0  0  0
  141.8720   74.0940  220.7720 C   0  0  0  0  0  0  0  0  0  0  0  0
  143.0960   73.4610  220.8730 C   0  0  0  0  0  0  0  0  0  0  0  0
  144.2300   74.0830  220.4180 C   0  0  0  0  0  0  0  0  0  0  0  0
  145.9130   73.2020  220.5610 Br  0  0  0  0  0  0  0  0  0  0  0  0
  144.1000   75.3390  219.8690 C   0  0  0  0  0  0  0  0  0  0  0  0
  142.8570   75.9750  219.7700 C   0  0  0  0  0  0  0  0  0  0  0  0
  139.4340   70.8470  223.6920 C   0  0  0  0  0  0  0  0  0  0  0  0
  139.2290   69.5110  223.9230 C   0  0  0  0  0  0  0  0  0  0  0  0
  139.5750   68.9680  225.1600 C   0  0  0  0  0  0  0  0  0  0  0  0
  140.1180   69.8000  226.1270 C   0  0  0  0  0  0  0  0  0  0  0  0
  140.4890   69.3510  227.3770 C   0  0  0  0  0  0  0  0  0  0  0  0
  141.0290   70.1680  228.3450 C   0  0  0  0  0  0  0  0  0  0  0  0
  141.2170   71.5200  228.0620 C   0  0  0  0  0  0  0  0  0  0  0  0
  140.8490   71.9800  226.8150 C   0  0  0  0  0  0  0  0  0  0  0  0
  140.3110   71.1390  225.8630 C   0  0  0  0  0  0  0  0  0  0  0  0
  139.9710   71.6310  224.6710 N   0  0  0  0  0  0  0  0  0  0  0  0
  139.1180   73.4110  223.1660 H   0  0  0  0  0  0  0  0  0  0  0  0
  139.3940   73.2504  220.2989 H   0  0  0  0  0  0  0  0  0  0  0  0
  137.6354   73.0171  220.6993 H   0  0  0  0  0  0  0  0  0  0  0  0
  138.8454   76.2757  223.1445 H   0  0  0  0  0  0  0  0  0  0  0  0
  140.6090   75.9002  223.0078 H   0  0  0  0  0  0  0  0  0  0  0  0
  139.1715   78.4231  222.0440 H   0  0  0  0  0  0  0  0  0  0  0  0
  140.3697   78.3162  223.3467 H   0  0  0  0  0  0  0  0  0  0  0  0
  141.5467   79.0172  221.2658 H   0  0  0  0  0  0  0  0  0  0  0  0
  142.0511   77.3578  221.6071 H   0  0  0  0  0  0  0  0  0  0  0  0
  139.5790   78.0216  219.9072 H   0  0  0  0  0  0  0  0  0  0  0  0
  141.1887   77.8367  219.1803 H   0  0  0  0  0  0  0  0  0  0  0  0
  139.9717   75.6354  219.1849 H   0  0  0  0  0  0  0  0  0  0  0  0
  140.9790   73.5703  221.1439 H   0  0  0  0  0  0  0  0  0  0  0  0
  143.1607   72.4574  221.3187 H   0  0  0  0  0  0  0  0  0  0  0  0
  144.9971   75.8565  219.4982 H   0  0  0  0  0  0  0  0  0  0  0  0
  142.7893   76.9786  219.3249 H   0  0  0  0  0  0  0  0  0  0  0  0
  138.7952   68.8728  223.1390 H   0  0  0  0  0  0  0  0  0  0  0  0
  139.4198   67.8985  225.3649 H   0  0  0  0  0  0  0  0  0  0  0  0
  140.3463   68.2861  227.6128 H   0  0  0  0  0  0  0  0  0  0  0  0
  141.3081   69.7597  229.3275 H   0  0  0  0  0  0  0  0  0  0  0  0
  141.6466   72.2005  228.8119 H   0  0  0  0  0  0  0  0  0  0  0  0
  140.9880   73.0441  226.5735 H   0  0  0  0  0  0  0  0  0  0  0  0
  1  2  2  0
  2  3  1  0
  3  4  1  0
  4  5  1  0
  5  6  2  0
  5  7  1  0
  7  8  1  0
  8  9  1  0
  9 10  1  0
 10 11  1  0
 11 12  1  0
 12 13  1  0
 13 14  2  0
 14 15  1  0
 15 16  2  0
 16 17  1  0
 16 18  1  0
 18 19  2  0
  2 20  1  0
 20 21  2  0
 21 22  1  0
 22 23  2  0
 23 24  1  0
 24 25  2  0
 25 26  1  0
 26 27  2  0
 27 28  1  0
 28 29  2  0
 12  7  1  0
 19 13  1  0
 29 20  1  0
 28 23  1  0
  3 30  1  0
  4 31  1  0
  4 32  1  0
  8 33  1  0
  8 34  1  0
  9 35  1  0
  9 36  1  0
 10 37  1  0
 10 38  1  0
 11 39  1  0
 11 40  1  0
 12 41  1  6
 14 42  1  0
 15 43  1  0
 18 44  1  0
 19 45  1  0
 21 46  1  0
 22 47  1  0
 24 48  1  0
 25 49  1  0
 26 50  1  0
 27 51  1  0
M  END
>  <meeko>  (3) 
{"free_energy": -8.72, "intermolecular_energy": -10.21, "internal_energy": -1.81, "cluster_size": 16, "cluster_id": 3, "rank_in_cluster": 11}

$$$$

     RDKit          3D

 51 54  0  0  0  0  0  0  0  0999 V2000
  139.1670   70.7570  221.2870 O   0  0  0  0  0  0  0  0  0  0  0  0
  139.2060   71.4450  222.3430 C   0  0  0  0  0  0  0  0  0  0  0  0
  138.9690   72.8550  222.2940 N   0  0  0  0  0  0  0  0  0  0  0  0
  138.6830   73.4820  221.0190 C   0  0  0  0  0  0  0  0  0  0  0  0
  138.5090   74.9390  221.1360 C   0  0  0  0  0  0  0  0  0  0  0  0
  137.3680   75.5030  221.1580 O   0  0  0  0  0  0  0  0  0  0  0  0
  139.6390   75.7980  221.2310 N   0  0  0  0  0  0  0  0  0  0  0  0
  139.8630   76.4480  222.5070 C   0  0  0  0  0  0  0  0  0  0  0  0
  140.1910   77.9230  222.3210 C   0  0  0  0  0  0  0  0  0  0  0  0
  141.3180   77.9850  221.2770 C   0  0  0  0  0  0  0  0  0  0  0  0
  140.6960   77.5160  219.9830 C   0  0  0  0  0  0  0  0  0  0  0  0
  140.5260   76.0150  220.1030 C   0  0  1  0  0  0  0  0  0  0  0  0
  141.8290   75.3160  220.2460 C   0  0  0  0  0  0  0  0  0  0  0  0
  143.0400   75.8870  219.9260 C   0  0  0  0  0  0  0  0  0  0  0  0
  144.2460   75.2270  220.0650 C   0  0  0  0  0  0  0  0  0  0  0  0
  144.2740   73.9420  220.5420 C   0  0  0  0  0  0  0  0  0  0  0  0
  145.9410   73.0400  220.7300 Br  0  0  0  0  0  0  0  0  0  0  0  0
  143.0750   73.3500  220.8680 C   0  0  0  0  0  0  0  0  0  0  0  0
  141.8560   74.0230  220.7250 C   0  0  0  0  0  0  0  0  0  0  0  0
  139.4960   70.8280  223.6540 C   0  0  0  0  0  0  0  0  0  0  0  0
  139.2380   69.4970  223.8580 C   0  0  0  0  0  0  0  0  0  0  0  0
  139.5160   68.9260  225.0990 C   0  0  0  0  0  0  0  0  0  0  0  0
  140.0470   69.7270  226.0980 C   0  0  0  0  0  0  0  0  0  0  0  0
  140.3520   69.2490  227.3560 C   0  0  0  0  0  0  0  0  0  0  0  0
  140.8790   70.0340  228.3570 C   0  0  0  0  0  0  0  0  0  0  0  0
  141.1230   71.3830  228.1010 C   0  0  0  0  0  0  0  0  0  0  0  0
  140.8210   71.8710  226.8460 C   0  0  0  0  0  0  0  0  0  0  0  0
  140.2940   71.0620  225.8620 C   0  0  0  0  0  0  0  0  0  0  0  0
  140.0190   71.5800  224.6650 N   0  0  0  0  0  0  0  0  0  0  0  0
  139.0140   73.3800  223.2000 H   0  0  0  0  0  0  0  0  0  0  0  0
  139.5173   73.2801  220.3311 H   0  0  0  0  0  0  0  0  0  0  0  0
  137.7390   73.0609  220.6427 H   0  0  0  0  0  0  0  0  0  0  0  0
  138.9549   76.3566  223.1210 H   0  0  0  0  0  0  0  0  0  0  0  0
  140.7156   75.9604  223.0024 H   0  0  0  0  0  0  0  0  0  0  0  0
  139.3062   78.4675  221.9594 H   0  0  0  0  0  0  0  0  0  0  0  0
  140.4982   78.3874  223.2696 H   0  0  0  0  0  0  0  0  0  0  0  0
  141.6899   79.0150  221.1736 H   0  0  0  0  0  0  0  0  0  0  0  0
  142.1769   77.3616  221.5663 H   0  0  0  0  0  0  0  0  0  0  0  0
  139.7183   77.9980  219.8353 H   0  0  0  0  0  0  0  0  0  0  0  0
  141.3290   77.7758  219.1217 H   0  0  0  0  0  0  0  0  0  0  0  0
  140.0903   75.5881  219.1876 H   0  0  0  0  0  0  0  0  0  0  0  0
  143.0480   76.9175  219.5414 H   0  0  0  0  0  0  0  0  0  0  0  0
  145.1841   75.7329  219.7928 H   0  0  0  0  0  0  0  0  0  0  0  0
  143.0747   72.3191  221.2517 H   0  0  0  0  0  0  0  0  0  0  0  0
  140.9165   73.5189  220.9956 H   0  0  0  0  0  0  0  0  0  0  0  0
  138.8148   68.8842  223.0484 H   0  0  0  0  0  0  0  0  0  0  0  0
  139.3177   67.8596  225.2821 H   0  0  0  0  0  0  0  0  0  0  0  0
  140.1645   68.1865  227.5701 H   0  0  0  0  0  0  0  0  0  0  0  0
  141.1042   69.6035  229.3439 H   0  0  0  0  0  0  0  0  0  0  0  0
  141.5440   72.0391  228.8770 H   0  0  0  0  0  0  0  0  0  0  0  0
  141.0055   72.9327  226.6251 H   0  0  0  0  0  0  0  0  0  0  0  0
  1  2  2  0
  2  3  1  0
  3  4  1  0
  4  5  1  0
  5  6  2  0
  5  7  1  0
  7  8  1  0
  8  9  1  0
  9 10  1  0
 10 11  1  0
 11 12  1  0
 12 13  1  0
 13 14  2  0
 14 15  1  0
 15 16  2  0
 16 17  1  0
 16 18  1  0
 18 19  2  0
  2 20  1  0
 20 21  2  0
 21 22  1  0
 22 23  2  0
 23 24  1  0
 24 25  2  0
 25 26  1  0
 26 27  2  0
 27 28  1  0
 28 29  2  0
 12  7  1  0
 19 13  1  0
 29 20  1  0
 28 23  1  0
  3 30  1  0
  4 31  1  0
  4 32  1  0
  8 33  1  0
  8 34  1  0
  9 35  1  0
  9 36  1  0
 10 37  1  0
 10 38  1  0
 11 39  1  0
 11 40  1  0
 12 41  1  6
 14 42  1  0
 15 43  1  0
 18 44  1  0
 19 45  1  0
 21 46  1  0
 22 47  1  0
 24 48  1  0
 25 49  1  0
 26 50  1  0
 27 51  1  0
M  END
>  <meeko>  (4) 
{"free_energy": -8.77, "intermolecular_energy": -10.27, "internal_energy": -1.75, "cluster_size": 16, "cluster_id": 3, "rank_in_cluster": 6}

$$$$

     RDKit          3D

 51 54  0  0  0  0  0  0  0  0999 V2000
  139.4480   70.7240  221.2440 O   0  0  0  0  0  0  0  0  0  0  0  0
  139.3170   71.4700  222.2520 C   0  0  0  0  0  0  0  0  0  0  0  0
  138.8830   72.8250  222.0930 N   0  0  0  0  0  0  0  0  0  0  0  0
  138.5970   73.3270  220.7630 C   0  0  0  0  0  0  0  0  0  0  0  0
  138.4360   74.7900  220.7380 C   0  0  0  0  0  0  0  0  0  0  0  0
  137.3460   75.3650  220.4200 O   0  0  0  0  0  0  0  0  0  0  0  0
  139.5230   75.6430  221.0750 N   0  0  0  0  0  0  0  0  0  0  0  0
  139.6140   76.0750  222.4560 C   0  0  0  0  0  0  0  0  0  0  0  0
  139.9060   77.5660  222.5470 C   0  0  0  0  0  0  0  0  0  0  0  0
  141.1150   77.8240  221.6340 C   0  0  0  0  0  0  0  0  0  0  0  0
  140.6240   77.5670  220.2300 C   0  0  0  0  0  0  0  0  0  0  0  0
  140.4970   76.0630  220.0840 C   0  0  1  0  0  0  0  0  0  0  0  0
  141.8050   75.3760  220.2270 C   0  0  0  0  0  0  0  0  0  0  0  0
  143.0120   75.9630  219.9180 C   0  0  0  0  0  0  0  0  0  0  0  0
  144.2240   75.3130  220.0570 C   0  0  0  0  0  0  0  0  0  0  0  0
  144.2630   74.0250  220.5220 C   0  0  0  0  0  0  0  0  0  0  0  0
  145.9380   73.1380  220.7110 Br  0  0  0  0  0  0  0  0  0  0  0  0
  143.0680   73.4170  220.8380 C   0  0  0  0  0  0  0  0  0  0  0  0
  141.8440   74.0800  220.6950 C   0  0  0  0  0  0  0  0  0  0  0  0
  139.6040   70.9820  223.6160 C   0  0  0  0  0  0  0  0  0  0  0  0
  139.2590   69.7040  223.9730 C   0  0  0  0  0  0  0  0  0  0  0  0
  139.5350   69.2530  225.2630 C   0  0  0  0  0  0  0  0  0  0  0  0
  140.1530   70.1180  226.1540 C   0  0  0  0  0  0  0  0  0  0  0  0
  140.4630   69.7600  227.4500 C   0  0  0  0  0  0  0  0  0  0  0  0
  141.0760   70.6090  228.3430 C   0  0  0  0  0  0  0  0  0  0  0  0
  141.4060   71.9000  227.9330 C   0  0  0  0  0  0  0  0  0  0  0  0
  141.1000   72.2680  226.6390 C   0  0  0  0  0  0  0  0  0  0  0  0
  140.4860   71.3970  225.7650 C   0  0  0  0  0  0  0  0  0  0  0  0
  140.2110   71.8000  224.5230 N   0  0  0  0  0  0  0  0  0  0  0  0
  138.7910   73.4040  222.9620 H   0  0  0  0  0  0  0  0  0  0  0  0
  139.4267   73.0515  220.0954 H   0  0  0  0  0  0  0  0  0  0  0  0
  137.6481   72.8795  220.4325 H   0  0  0  0  0  0  0  0  0  0  0  0
  138.6600   75.8645  222.9616 H   0  0  0  0  0  0  0  0  0  0  0  0
  140.4373   75.5282  222.9390 H   0  0  0  0  0  0  0  0  0  0  0  0
  139.0374   78.1462  222.2022 H   0  0  0  0  0  0  0  0  0  0  0  0
  140.1147   77.8705  223.5832 H   0  0  0  0  0  0  0  0  0  0  0  0
  141.4588   78.8638  221.7365 H   0  0  0  0  0  0  0  0  0  0  0  0
  141.9664   77.1773  221.8927 H   0  0  0  0  0  0  0  0  0  0  0  0
  139.6464   78.0472  220.0759 H   0  0  0  0  0  0  0  0  0  0  0  0
  141.3192   77.9806  219.4846 H   0  0  0  0  0  0  0  0  0  0  0  0
  140.1580   75.7867  219.0747 H   0  0  0  0  0  0  0  0  0  0  0  0
  143.0115   76.9972  219.5432 H   0  0  0  0  0  0  0  0  0  0  0  0
  145.1583   75.8306  219.7939 H   0  0  0  0  0  0  0  0  0  0  0  0
  143.0761   72.3828  221.2127 H   0  0  0  0  0  0  0  0  0  0  0  0
  140.9084   73.5645  220.9574 H   0  0  0  0  0  0  0  0  0  0  0  0
  138.7680   69.0394  223.2469 H   0  0  0  0  0  0  0  0  0  0  0  0
  139.2678   68.2306  225.5684 H   0  0  0  0  0  0  0  0  0  0  0  0
  140.2072   68.7445  227.7865 H   0  0  0  0  0  0  0  0  0  0  0  0
  141.3024   70.2737  229.3659 H   0  0  0  0  0  0  0  0  0  0  0  0
  141.8960   72.6046  228.6211 H   0  0  0  0  0  0  0  0  0  0  0  0
  141.3525   73.2823  226.2962 H   0  0  0  0  0  0  0  0  0  0  0  0
  1  2  2  0
  2  3  1  0
  3  4  1  0
  4  5  1  0
  5  6  2  0
  5  7  1  0
  7  8  1  0
  8  9  1  0
  9 10  1  0
 10 11  1  0
 11 12  1  0
 12 13  1  0
 13 14  2  0
 14 15  1  0
 15 16  2  0
 16 17  1  0
 16 18  1  0
 18 19  2  0
  2 20  1  0
 20 21  2  0
 21 22  1  0
 22 23  2  0
 23 24  1  0
 24 25  2  0
 25 26  1  0
 26 27  2  0
 27 28  1  0
 28 29  2  0
 12  7  1  0
 19 13  1  0
 29 20  1  0
 28 23  1  0
  3 30  1  0
  4 31  1  0
  4 32  1  0
  8 33  1  0
  8 34  1  0
  9 35  1  0
  9 36  1  0
 10 37  1  0
 10 38  1  0
 11 39  1  0
 11 40  1  0
 12 41  1  6
 14 42  1  0
 15 43  1  0
 18 44  1  0
 19 45  1  0
 21 46  1  0
 22 47  1  0
 24 48  1  0
 25 49  1  0
 26 50  1  0
 27 51  1  0
M  END
>  <meeko>  (5) 
{"free_energy": -8.72, "intermolecular_energy": -10.21, "internal_energy": -1.84, "cluster_size": 16, "cluster_id": 3, "rank_in_cluster": 12}

$$$$

     RDKit          3D

 51 54  0  0  0  0  0  0  0  0999 V2000
  140.3340   71.7480  221.2960 O   0  0  0  0  0  0  0  0  0  0  0  0
  139.6350   72.0300  222.3070 C   0  0  0  0  0  0  0  0  0  0  0  0
  138.6980   73.1100  222.2550 N   0  0  0  0  0  0  0  0  0  0  0  0
  138.5600   73.8720  221.0300 C   0  0  0  0  0  0  0  0  0  0  0  0
  138.4650   75.3200  221.2770 C   0  0  0  0  0  0  0  0  0  0  0  0
  137.3620   75.9180  221.4930 O   0  0  0  0  0  0  0  0  0  0  0  0
  139.6330   76.1310  221.2830 N   0  0  0  0  0  0  0  0  0  0  0  0
  139.9580   76.8030  222.5260 C   0  0  0  0  0  0  0  0  0  0  0  0
  140.3360   78.2570  222.2810 C   0  0  0  0  0  0  0  0  0  0  0  0
  141.4010   78.2450  221.1730 C   0  0  0  0  0  0  0  0  0  0  0  0
  140.6850   77.7710  219.9300 C   0  0  0  0  0  0  0  0  0  0  0  0
  140.4610   76.2820  220.1010 C   0  0  1  0  0  0  0  0  0  0  0  0
  141.7390   75.5310  220.1870 C   0  0  0  0  0  0  0  0  0  0  0  0
  142.9420   76.0180  219.7270 C   0  0  0  0  0  0  0  0  0  0  0  0
  144.1260   75.3100  219.8160 C   0  0  0  0  0  0  0  0  0  0  0  0
  144.1390   74.0620  220.3820 C   0  0  0  0  0  0  0  0  0  0  0  0
  145.7760   73.0950  220.5000 Br  0  0  0  0  0  0  0  0  0  0  0  0
  142.9480   73.5540  220.8500 C   0  0  0  0  0  0  0  0  0  0  0  0
  141.7520   74.2750  220.7570 C   0  0  0  0  0  0  0  0  0  0  0  0
  139.7580   71.2680  223.5660 C   0  0  0  0  0  0  0  0  0  0  0  0
  139.4040   69.9440  223.6040 C   0  0  0  0  0  0  0  0  0  0  0  0
  139.5240   69.2350  224.7990 C   0  0  0  0  0  0  0  0  0  0  0  0
  140.0010   69.8950  225.9210 C   0  0  0  0  0  0  0  0  0  0  0  0
  140.1530   69.2750  227.1440 C   0  0  0  0  0  0  0  0  0  0  0  0
  140.6260   69.9190  228.2660 C   0  0  0  0  0  0  0  0  0  0  0  0
  140.9730   71.2670  228.1770 C   0  0  0  0  0  0  0  0  0  0  0  0
  140.8250   71.8960  226.9580 C   0  0  0  0  0  0  0  0  0  0  0  0
  140.3490   71.2270  225.8500 C   0  0  0  0  0  0  0  0  0  0  0  0
  140.2240   71.8790  224.6940 N   0  0  0  0  0  0  0  0  0  0  0  0
  138.1420   73.3040  223.1230 H   0  0  0  0  0  0  0  0  0  0  0  0
  139.4361   73.6790  220.3935 H   0  0  0  0  0  0  0  0  0  0  0  0
  137.6278   73.5536  220.5404 H   0  0  0  0  0  0  0  0  0  0  0  0
  139.0841   76.7666  223.1931 H   0  0  0  0  0  0  0  0  0  0  0  0
  140.8169   76.2916  222.9852 H   0  0  0  0  0  0  0  0  0  0  0  0
  139.4550   78.8301  221.9563 H   0  0  0  0  0  0  0  0  0  0  0  0
  140.7178   78.7307  223.1974 H   0  0  0  0  0  0  0  0  0  0  0  0
  141.8083   79.2553  221.0203 H   0  0  0  0  0  0  0  0  0  0  0  0
  142.2490   77.5929  221.4292 H   0  0  0  0  0  0  0  0  0  0  0  0
  139.7210   78.2904  219.8259 H   0  0  0  0  0  0  0  0  0  0  0  0
  141.2761   77.9822  219.0267 H   0  0  0  0  0  0  0  0  0  0  0  0
  139.9554   75.8517  219.2239 H   0  0  0  0  0  0  0  0  0  0  0  0
  142.9618   77.0171  219.2672 H   0  0  0  0  0  0  0  0  0  0  0  0
  145.0587   75.7489  219.4321 H   0  0  0  0  0  0  0  0  0  0  0  0
  142.9361   72.5546  221.3094 H   0  0  0  0  0  0  0  0  0  0  0  0
  140.8181   73.8380  221.1402 H   0  0  0  0  0  0  0  0  0  0  0  0
  139.0282   69.4447  222.6988 H   0  0  0  0  0  0  0  0  0  0  0  0
  139.2454   68.1721  224.8503 H   0  0  0  0  0  0  0  0  0  0  0  0
  139.8826   68.2120  227.2274 H   0  0  0  0  0  0  0  0  0  0  0  0
  140.7286   69.3781  229.2183 H   0  0  0  0  0  0  0  0  0  0  0  0
  141.3535   71.8126  229.0531 H   0  0  0  0  0  0  0  0  0  0  0  0
  141.0937   72.9588  226.8675 H   0  0  0  0  0  0  0  0  0  0  0  0
  1  2  2  0
  2  3  1  0
  3  4  1  0
  4  5  1  0
  5  6  2  0
  5  7  1  0
  7  8  1  0
  8  9  1  0
  9 10  1  0
 10 11  1  0
 11 12  1  0
 12 13  1  0
 13 14  2  0
 14 15  1  0
 15 16  2  0
 16 17  1  0
 16 18  1  0
 18 19  2  0
  2 20  1  0
 20 21  2  0
 21 22  1  0
 22 23  2  0
 23 24  1  0
 24 25  2  0
 25 26  1  0
 26 27  2  0
 27 28  1  0
 28 29  2  0
 12  7  1  0
 19 13  1  0
 29 20  1  0
 28 23  1  0
  3 30  1  0
  4 31  1  0
  4 32  1  0
  8 33  1  0
  8 34  1  0
  9 35  1  0
  9 36  1  0
 10 37  1  0
 10 38  1  0
 11 39  1  0
 11 40  1  0
 12 41  1  6
 14 42  1  0
 15 43  1  0
 18 44  1  0
 19 45  1  0
 21 46  1  0
 22 47  1  0
 24 48  1  0
 25 49  1  0
 26 50  1  0
 27 51  1  0
M  END
>  <meeko>  (6) 
{"free_energy": -8.85, "intermolecular_energy": -10.35, "internal_energy": -1.69, "cluster_size": 16, "cluster_id": 3, "rank_in_cluster": 4}

$$$$

     RDKit          3D

 51 54  0  0  0  0  0  0  0  0999 V2000
  140.3810   71.6530  221.3150 O   0  0  0  0  0  0  0  0  0  0  0  0
  139.6820   71.9600  222.3180 C   0  0  0  0  0  0  0  0  0  0  0  0
  138.7270   73.0230  222.2330 N   0  0  0  0  0  0  0  0  0  0  0  0
  138.5730   73.7390  220.9820 C   0  0  0  0  0  0  0  0  0  0  0  0
  138.4440   75.1920  221.1790 C   0  0  0  0  0  0  0  0  0  0  0  0
  137.3220   75.7880  221.2450 O   0  0  0  0  0  0  0  0  0  0  0  0
  139.6000   76.0100  221.3060 N   0  0  0  0  0  0  0  0  0  0  0  0
  139.8610   76.5780  222.6140 C   0  0  0  0  0  0  0  0  0  0  0  0
  140.2310   78.0510  222.5090 C   0  0  0  0  0  0  0  0  0  0  0  0
  141.3450   78.1410  221.4530 C   0  0  0  0  0  0  0  0  0  0  0  0
  140.6910   77.7670  220.1440 C   0  0  0  0  0  0  0  0  0  0  0  0
  140.4790   76.2670  220.1790 C   0  0  1  0  0  0  0  0  0  0  0  0
  141.7610   75.5230  220.2610 C   0  0  0  0  0  0  0  0  0  0  0  0
  141.8770   74.2610  220.7980 C   0  0  0  0  0  0  0  0  0  0  0  0
  143.0770   73.5780  220.8660 C   0  0  0  0  0  0  0  0  0  0  0  0
  144.2240   74.1540  220.3860 C   0  0  0  0  0  0  0  0  0  0  0  0
  145.8720   73.2040  220.4840 Br  0  0  0  0  0  0  0  0  0  0  0  0
  144.1320   75.4160  219.8440 C   0  0  0  0  0  0  0  0  0  0  0  0
  142.9150   76.1040  219.7770 C   0  0  0  0  0  0  0  0  0  0  0  0
  139.8210   71.2450  223.6030 C   0  0  0  0  0  0  0  0  0  0  0  0
  139.4290   69.9360  223.7060 C   0  0  0  0  0  0  0  0  0  0  0  0
  139.5650   69.2710  224.9230 C   0  0  0  0  0  0  0  0  0  0  0  0
  140.0960   69.9590  226.0040 C   0  0  0  0  0  0  0  0  0  0  0  0
  140.2680   69.3840  227.2460 C   0  0  0  0  0  0  0  0  0  0  0  0
  140.7940   70.0570  228.3250 C   0  0  0  0  0  0  0  0  0  0  0  0
  141.1780   71.3880  228.1720 C   0  0  0  0  0  0  0  0  0  0  0  0
  141.0110   71.9730  226.9340 C   0  0  0  0  0  0  0  0  0  0  0  0
  140.4810   71.2760  225.8690 C   0  0  0  0  0  0  0  0  0  0  0  0
  140.3400   71.8850  224.6910 N   0  0  0  0  0  0  0  0  0  0  0  0
  138.1720   73.2380  223.0950 H   0  0  0  0  0  0  0  0  0  0  0  0
  139.4543   73.5447  220.3530 H   0  0  0  0  0  0  0  0  0  0  0  0
  137.6492   73.3823  220.5030 H   0  0  0  0  0  0  0  0  0  0  0  0
  138.9589   76.4778  223.2355 H   0  0  0  0  0  0  0  0  0  0  0  0
  140.7052   76.0376  223.0670 H   0  0  0  0  0  0  0  0  0  0  0  0
  139.3583   78.6415  222.1935 H   0  0  0  0  0  0  0  0  0  0  0  0
  140.5652   78.4497  223.4782 H   0  0  0  0  0  0  0  0  0  0  0  0
  141.7464   79.1640  221.4038 H   0  0  0  0  0  0  0  0  0  0  0  0
  142.1887   77.4770  221.6921 H   0  0  0  0  0  0  0  0  0  0  0  0
  139.7258   78.2844  220.0405 H   0  0  0  0  0  0  0  0  0  0  0  0
  141.3187   78.0591  219.2892 H   0  0  0  0  0  0  0  0  0  0  0  0
  140.0196   75.9073  219.2465 H   0  0  0  0  0  0  0  0  0  0  0  0
  140.9729   73.7733  221.1913 H   0  0  0  0  0  0  0  0  0  0  0  0
  143.1112   72.5705  221.3061 H   0  0  0  0  0  0  0  0  0  0  0  0
  145.0404   75.8972  219.4526 H   0  0  0  0  0  0  0  0  0  0  0  0
  142.8784   77.1115  219.3369 H   0  0  0  0  0  0  0  0  0  0  0  0
  139.0097   69.4135  222.8336 H   0  0  0  0  0  0  0  0  0  0  0  0
  139.2570   68.2199  225.0245 H   0  0  0  0  0  0  0  0  0  0  0  0
  139.9695   68.3339  227.3808 H   0  0  0  0  0  0  0  0  0  0  0  0
  140.9098   69.5513  229.2950 H   0  0  0  0  0  0  0  0  0  0  0  0
  141.6018   71.9553  229.0137 H   0  0  0  0  0  0  0  0  0  0  0  0
  141.3083   73.0226  226.7928 H   0  0  0  0  0  0  0  0  0  0  0  0
  1  2  2  0
  2  3  1  0
  3  4  1  0
  4  5  1  0
  5  6  2  0
  5  7  1  0
  7  8  1  0
  8  9  1  0
  9 10  1  0
 10 11  1  0
 11 12  1  0
 12 13  1  0
 13 14  2  0
 14 15  1  0
 15 16  2  0
 16 17  1  0
 16 18  1  0
 18 19  2  0
  2 20  1  0
 20 21  2  0
 21 22  1  0
 22 23  2  0
 23 24  1  0
 24 25  2  0
 25 26  1  0
 26 27  2  0
 27 28  1  0
 28 29  2  0
 12  7  1  0
 19 13  1  0
 29 20  1  0
 28 23  1  0
  3 30  1  0
  4 31  1  0
  4 32  1  0
  8 33  1  0
  8 34  1  0
  9 35  1  0
  9 36  1  0
 10 37  1  0
 10 38  1  0
 11 39  1  0
 11 40  1  0
 12 41  1  6
 14 42  1  0
 15 43  1  0
 18 44  1  0
 19 45  1  0
 21 46  1  0
 22 47  1  0
 24 48  1  0
 25 49  1  0
 26 50  1  0
 27 51  1  0
M  END
>  <meeko>  (7) 
{"free_energy": -8.9, "intermolecular_energy": -10.39, "internal_energy": -1.72, "cluster_size": 16, "cluster_id": 3, "rank_in_cluster": 2}

$$$$

     RDKit          3D

 51 54  0  0  0  0  0  0  0  0999 V2000
  139.4300   70.9260  221.2280 O   0  0  0  0  0  0  0  0  0  0  0  0
  139.3640   71.6360  222.2670 C   0  0  0  0  0  0  0  0  0  0  0  0
  138.9860   73.0140  222.1760 N   0  0  0  0  0  0  0  0  0  0  0  0
  138.6790   73.5800  220.8770 C   0  0  0  0  0  0  0  0  0  0  0  0
  138.5430   75.0450  220.9210 C   0  0  0  0  0  0  0  0  0  0  0  0
  137.4290   75.6450  220.7800 O   0  0  0  0  0  0  0  0  0  0  0  0
  139.6820   75.8710  221.1280 N   0  0  0  0  0  0  0  0  0  0  0  0
  139.8680   76.4090  222.4610 C   0  0  0  0  0  0  0  0  0  0  0  0
  140.2270   77.8880  222.4110 C   0  0  0  0  0  0  0  0  0  0  0  0
  141.3930   78.0140  221.4170 C   0  0  0  0  0  0  0  0  0  0  0  0
  140.8130   77.6660  220.0670 C   0  0  0  0  0  0  0  0  0  0  0  0
  140.6150   76.1640  220.0550 C   0  0  1  0  0  0  0  0  0  0  0  0
  141.8990   75.4300  220.1860 C   0  0  0  0  0  0  0  0  0  0  0  0
  143.1200   75.9610  219.8330 C   0  0  0  0  0  0  0  0  0  0  0  0
  144.3090   75.2690  219.9620 C   0  0  0  0  0  0  0  0  0  0  0  0
  144.3100   73.9930  220.4610 C   0  0  0  0  0  0  0  0  0  0  0  0
  145.9550   73.0470  220.6350 Br  0  0  0  0  0  0  0  0  0  0  0  0
  143.1010   73.4410  220.8210 C   0  0  0  0  0  0  0  0  0  0  0  0
  141.9000   74.1460  220.6890 C   0  0  0  0  0  0  0  0  0  0  0  0
  139.6730   71.0820  223.6010 C   0  0  0  0  0  0  0  0  0  0  0  0
  139.4160   69.7620  223.8710 C   0  0  0  0  0  0  0  0  0  0  0  0
  139.7120   69.2500  225.1340 C   0  0  0  0  0  0  0  0  0  0  0  0
  140.2590   70.0960  226.0860 C   0  0  0  0  0  0  0  0  0  0  0  0
  140.5820   69.6770  227.3600 C   0  0  0  0  0  0  0  0  0  0  0  0
  141.1270   70.5080  228.3140 C   0  0  0  0  0  0  0  0  0  0  0  0
  141.3690   71.8430  227.9920 C   0  0  0  0  0  0  0  0  0  0  0  0
  141.0480   72.2710  226.7200 C   0  0  0  0  0  0  0  0  0  0  0  0
  140.5050   71.4180  225.7840 C   0  0  0  0  0  0  0  0  0  0  0  0
  140.2130   71.8800  224.5670 N   0  0  0  0  0  0  0  0  0  0  0  0
  138.9470   73.5600  223.0690 H   0  0  0  0  0  0  0  0  0  0  0  0
  139.4886   73.3212  220.1787 H   0  0  0  0  0  0  0  0  0  0  0  0
  137.7152   73.1635  220.5490 H   0  0  0  0  0  0  0  0  0  0  0  0
  138.9358   76.2848  223.0317 H   0  0  0  0  0  0  0  0  0  0  0  0
  140.6932   75.8657  222.9446 H   0  0  0  0  0  0  0  0  0  0  0  0
  139.3655   78.4778  222.0647 H   0  0  0  0  0  0  0  0  0  0  0  0
  140.5060   78.2662  223.4055 H   0  0  0  0  0  0  0  0  0  0  0  0
  141.7854   79.0416  221.4133 H   0  0  0  0  0  0  0  0  0  0  0  0
  142.2298   77.3519  221.6842 H   0  0  0  0  0  0  0  0  0  0  0  0
  139.8493   78.1770  219.9248 H   0  0  0  0  0  0  0  0  0  0  0  0
  141.4819   77.9844  219.2539 H   0  0  0  0  0  0  0  0  0  0  0  0
  140.2080   75.8234  219.0915 H   0  0  0  0  0  0  0  0  0  0  0  0
  143.1499   76.9839  219.4295 H   0  0  0  0  0  0  0  0  0  0  0  0
  145.2558   75.7431  219.6638 H   0  0  0  0  0  0  0  0  0  0  0  0
  143.0790   72.4175  221.2235 H   0  0  0  0  0  0  0  0  0  0  0  0
  140.9523   73.6741  220.9877 H   0  0  0  0  0  0  0  0  0  0  0  0
  138.9800   69.1125  223.0976 H   0  0  0  0  0  0  0  0  0  0  0  0
  139.5150   68.1939  225.3704 H   0  0  0  0  0  0  0  0  0  0  0  0
  140.3950   68.6266  227.6276 H   0  0  0  0  0  0  0  0  0  0  0  0
  141.3680   70.1237  229.3161 H   0  0  0  0  0  0  0  0  0  0  0  0
  141.8027   72.5341  228.7297 H   0  0  0  0  0  0  0  0  0  0  0  0
  141.2304   73.3206  226.4461 H   0  0  0  0  0  0  0  0  0  0  0  0
  1  2  2  0
  2  3  1  0
  3  4  1  0
  4  5  1  0
  5  6  2  0
  5  7  1  0
  7  8  1  0
  8  9  1  0
  9 10  1  0
 10 11  1  0
 11 12  1  0
 12 13  1  0
 13 14  2  0
 14 15  1  0
 15 16  2  0
 16 17  1  0
 16 18  1  0
 18 19  2  0
  2 20  1  0
 20 21  2  0
 21 22  1  0
 22 23  2  0
 23 24  1  0
 24 25  2  0
 25 26  1  0
 26 27  2  0
 27 28  1  0
 28 29  2  0
 12  7  1  0
 19 13  1  0
 29 20  1  0
 28 23  1  0
  3 30  1  0
  4 31  1  0
  4 32  1  0
  8 33  1  0
  8 34  1  0
  9 35  1  0
  9 36  1  0
 10 37  1  0
 10 38  1  0
 11 39  1  0
 11 40  1  0
 12 41  1  6
 14 42  1  0
 15 43  1  0
 18 44  1  0
 19 45  1  0
 21 46  1  0
 22 47  1  0
 24 48  1  0
 25 49  1  0
 26 50  1  0
 27 51  1  0
M  END
>  <meeko>  (8) 
{"free_energy": -8.74, "intermolecular_energy": -10.23, "internal_energy": -1.85, "cluster_size": 16, "cluster_id": 3, "rank_in_cluster": 9}

$$$$

     RDKit          3D

 51 54  0  0  0  0  0  0  0  0999 V2000
  138.8420   70.5650  221.4000 O   0  0  0  0  0  0  0  0  0  0  0  0
  139.0600   71.3080  222.3940 C   0  0  0  0  0  0  0  0  0  0  0  0
  138.9550   72.7300  222.2670 N   0  0  0  0  0  0  0  0  0  0  0  0
  138.5950   73.3030  220.9850 C   0  0  0  0  0  0  0  0  0  0  0  0
  138.3720   74.7560  221.0620 C   0  0  0  0  0  0  0  0  0  0  0  0
  137.2190   75.2880  220.9830 O   0  0  0  0  0  0  0  0  0  0  0  0
  139.4670   75.6470  221.2310 N   0  0  0  0  0  0  0  0  0  0  0  0
  139.6540   76.2140  222.5520 C   0  0  0  0  0  0  0  0  0  0  0  0
  139.9270   77.7100  222.4730 C   0  0  0  0  0  0  0  0  0  0  0  0
  141.0600   77.8870  221.4510 C   0  0  0  0  0  0  0  0  0  0  0  0
  140.4700   77.4880  220.1200 C   0  0  0  0  0  0  0  0  0  0  0  0
  140.3570   75.9770  220.1320 C   0  0  1  0  0  0  0  0  0  0  0  0
  141.6830   75.3190  220.2410 C   0  0  0  0  0  0  0  0  0  0  0  0
  142.8640   75.9160  219.8600 C   0  0  0  0  0  0  0  0  0  0  0  0
  144.0940   75.2940  219.9690 C   0  0  0  0  0  0  0  0  0  0  0  0
  144.1780   74.0230  220.4760 C   0  0  0  0  0  0  0  0  0  0  0  0
  145.8760   73.1740  220.6220 Br  0  0  0  0  0  0  0  0  0  0  0  0
  143.0100   73.4060  220.8640 C   0  0  0  0  0  0  0  0  0  0  0  0
  141.7670   74.0410  220.7520 C   0  0  0  0  0  0  0  0  0  0  0  0
  139.4280   70.7480  223.7100 C   0  0  0  0  0  0  0  0  0  0  0  0
  139.2120   69.4200  223.9750 C   0  0  0  0  0  0  0  0  0  0  0  0
  139.5640   68.9020  225.2210 C   0  0  0  0  0  0  0  0  0  0  0  0
  140.1250   69.7510  226.1620 C   0  0  0  0  0  0  0  0  0  0  0  0
  140.5030   69.3280  227.4200 C   0  0  0  0  0  0  0  0  0  0  0  0
  141.0610   70.1620  228.3630 C   0  0  0  0  0  0  0  0  0  0  0  0
  141.2600   71.5050  228.0470 C   0  0  0  0  0  0  0  0  0  0  0  0
  140.8850   71.9390  226.7920 C   0  0  0  0  0  0  0  0  0  0  0  0
  140.3290   71.0820  225.8660 C   0  0  0  0  0  0  0  0  0  0  0  0
  139.9830   71.5490  224.6650 N   0  0  0  0  0  0  0  0  0  0  0  0
  139.1460   73.3030  223.1240 H   0  0  0  0  0  0  0  0  0  0  0  0
  139.4080   73.1079  220.2701 H   0  0  0  0  0  0  0  0  0  0  0  0
  137.6530   72.8360  220.6618 H   0  0  0  0  0  0  0  0  0  0  0  0
  138.7444   76.0458  223.1472 H   0  0  0  0  0  0  0  0  0  0  0  0
  140.5199   75.7253  223.0225 H   0  0  0  0  0  0  0  0  0  0  0  0
  139.0256   78.2447  222.1391 H   0  0  0  0  0  0  0  0  0  0  0  0
  140.2067   78.1182  223.4554 H   0  0  0  0  0  0  0  0  0  0  0  0
  141.3936   78.9349  221.4248 H   0  0  0  0  0  0  0  0  0  0  0  0
  141.9387   77.2767  221.7068 H   0  0  0  0  0  0  0  0  0  0  0  0
  139.4760   77.9419  219.9941 H   0  0  0  0  0  0  0  0  0  0  0  0
  141.1010   77.8320  219.2873 H   0  0  0  0  0  0  0  0  0  0  0  0
  139.9473   75.6001  219.1832 H   0  0  0  0  0  0  0  0  0  0  0  0
  142.8271   76.9359  219.4496 H   0  0  0  0  0  0  0  0  0  0  0  0
  145.0058   75.8193  219.6487 H   0  0  0  0  0  0  0  0  0  0  0  0
  143.0545   72.3860  221.2733 H   0  0  0  0  0  0  0  0  0  0  0  0
  140.8539   73.5183  221.0729 H   0  0  0  0  0  0  0  0  0  0  0  0
  138.7644   68.7681  223.2104 H   0  0  0  0  0  0  0  0  0  0  0  0
  139.3995   67.8393  225.4527 H   0  0  0  0  0  0  0  0  0  0  0  0
  140.3508   68.2708  227.6828 H   0  0  0  0  0  0  0  0  0  0  0  0
  141.3458   69.7738  229.3520 H   0  0  0  0  0  0  0  0  0  0  0  0
  141.7031   72.1986  228.7768 H   0  0  0  0  0  0  0  0  0  0  0  0
  141.0334   72.9954  226.5235 H   0  0  0  0  0  0  0  0  0  0  0  0
  1  2  2  0
  2  3  1  0
  3  4  1  0
  4  5  1  0
  5  6  2  0
  5  7  1  0
  7  8  1  0
  8  9  1  0
  9 10  1  0
 10 11  1  0
 11 12  1  0
 12 13  1  0
 13 14  2  0
 14 15  1  0
 15 16  2  0
 16 17  1  0
 16 18  1  0
 18 19  2  0
  2 20  1  0
 20 21  2  0
 21 22  1  0
 22 23  2  0
 23 24  1  0
 24 25  2  0
 25 26  1  0
 26 27  2  0
 27 28  1  0
 28 29  2  0
 12  7  1  0
 19 13  1  0
 29 20  1  0
 28 23  1  0
  3 30  1  0
  4 31  1  0
  4 32  1  0
  8 33  1  0
  8 34  1  0
  9 35  1  0
  9 36  1  0
 10 37  1  0
 10 38  1  0
 11 39  1  0
 11 40  1  0
 12 41  1  6
 14 42  1  0
 15 43  1  0
 18 44  1  0
 19 45  1  0
 21 46  1  0
 22 47  1  0
 24 48  1  0
 25 49  1  0
 26 50  1  0
 27 51  1  0
M  END
>  <meeko>  (9) 
{"free_energy": -8.69, "intermolecular_energy": -10.19, "internal_energy": -1.84, "cluster_size": 16, "cluster_id": 3, "rank_in_cluster": 15}

$$$$

     RDKit          3D

 51 54  0  0  0  0  0  0  0  0999 V2000
  140.5780   71.4690  221.9250 O   0  0  0  0  0  0  0  0  0  0  0  0
  139.6710   71.4510  222.8010 C   0  0  0  0  0  0  0  0  0  0  0  0
  138.5610   72.3490  222.7080 N   0  0  0  0  0  0  0  0  0  0  0  0
  138.4920   73.2780  221.5970 C   0  0  0  0  0  0  0  0  0  0  0  0
  139.4020   74.4220  221.7640 C   0  0  0  0  0  0  0  0  0  0  0  0
  140.6620   74.2950  221.8970 O   0  0  0  0  0  0  0  0  0  0  0  0
  138.8980   75.7510  221.7850 N   0  0  0  0  0  0  0  0  0  0  0  0
  137.8160   76.0280  222.7100 C   0  0  0  0  0  0  0  0  0  0  0  0
  136.7150   76.8380  222.0410 C   0  0  0  0  0  0  0  0  0  0  0  0
  137.4090   78.0350  221.3710 C   0  0  0  0  0  0  0  0  0  0  0  0
  138.2450   77.4470  220.2600 C   0  0  0  0  0  0  0  0  0  0  0  0
  139.4380   76.7850  220.9200 C   0  0  1  0  0  0  0  0  0  0  0  0
  140.2890   77.7620  221.6440 C   0  0  0  0  0  0  0  0  0  0  0  0
  140.9530   77.4740  222.8160 C   0  0  0  0  0  0  0  0  0  0  0  0
  141.7450   78.3920  223.4790 C   0  0  0  0  0  0  0  0  0  0  0  0
  141.8990   79.6570  222.9750 C   0  0  0  0  0  0  0  0  0  0  0  0
  142.9930   80.9150  223.8970 Br  0  0  0  0  0  0  0  0  0  0  0  0
  141.2450   79.9680  221.8040 C   0  0  0  0  0  0  0  0  0  0  0  0
  140.4450   79.0350  221.1360 C   0  0  0  0  0  0  0  0  0  0  0  0
  139.7210   70.5140  223.9430 C   0  0  0  0  0  0  0  0  0  0  0  0
  139.1240   69.2840  223.8460 C   0  0  0  0  0  0  0  0  0  0  0  0
  139.1770   68.4080  224.9300 C   0  0  0  0  0  0  0  0  0  0  0  0
  139.8350   68.8110  226.0820 C   0  0  0  0  0  0  0  0  0  0  0  0
  139.9380   68.0130  227.2020 C   0  0  0  0  0  0  0  0  0  0  0  0
  140.5890   68.4020  228.3520 C   0  0  0  0  0  0  0  0  0  0  0  0
  141.1790   69.6640  228.4010 C   0  0  0  0  0  0  0  0  0  0  0  0
  141.0820   70.4700  227.2860 C   0  0  0  0  0  0  0  0  0  0  0  0
  140.4250   70.0550  226.1470 C   0  0  0  0  0  0  0  0  0  0  0  0
  140.3580   70.8710  225.0940 N   0  0  0  0  0  0  0  0  0  0  0  0
  137.8350   72.2940  223.4620 H   0  0  0  0  0  0  0  0  0  0  0  0
  138.7612   72.7446  220.6734 H   0  0  0  0  0  0  0  0  0  0  0  0
  137.4654   73.6704  221.5517 H   0  0  0  0  0  0  0  0  0  0  0  0
  137.3954   75.0759  223.0659 H   0  0  0  0  0  0  0  0  0  0  0  0
  138.2172   76.6128  223.5509 H   0  0  0  0  0  0  0  0  0  0  0  0
  136.1966   76.2271  221.2873 H   0  0  0  0  0  0  0  0  0  0  0  0
  135.9614   77.1689  222.7708 H   0  0  0  0  0  0  0  0  0  0  0  0
  136.6629   78.7326  220.9627 H   0  0  0  0  0  0  0  0  0  0  0  0
  138.0221   78.6035  222.0858 H   0  0  0  0  0  0  0  0  0  0  0  0
  137.6608   76.7032  219.6983 H   0  0  0  0  0  0  0  0  0  0  0  0
  138.5648   78.2241  219.5502 H   0  0  0  0  0  0  0  0  0  0  0  0
  140.1135   76.3432  220.1726 H   0  0  0  0  0  0  0  0  0  0  0  0
  140.8479   76.4662  223.2441 H   0  0  0  0  0  0  0  0  0  0  0  0
  142.2524   78.1070  224.4124 H   0  0  0  0  0  0  0  0  0  0  0  0
  141.3546   80.9780  221.3821 H   0  0  0  0  0  0  0  0  0  0  0  0
  139.9381   79.3176  220.2016 H   0  0  0  0  0  0  0  0  0  0  0  0
  138.6072   68.9901  222.9205 H   0  0  0  0  0  0  0  0  0  0  0  0
  138.7056   67.4158  224.8721 H   0  0  0  0  0  0  0  0  0  0  0  0
  139.4767   67.0147  227.1757 H   0  0  0  0  0  0  0  0  0  0  0  0
  140.6425   67.7268  229.2188 H   0  0  0  0  0  0  0  0  0  0  0  0
  141.7068   70.0072  229.3030 H   0  0  0  0  0  0  0  0  0  0  0  0
  141.5406   71.4697  227.3059 H   0  0  0  0  0  0  0  0  0  0  0  0
  1  2  2  0
  2  3  1  0
  3  4  1  0
  4  5  1  0
  5  6  2  0
  5  7  1  0
  7  8  1  0
  8  9  1  0
  9 10  1  0
 10 11  1  0
 11 12  1  0
 12 13  1  0
 13 14  2  0
 14 15  1  0
 15 16  2  0
 16 17  1  0
 16 18  1  0
 18 19  2  0
  2 20  1  0
 20 21  2  0
 21 22  1  0
 22 23  2  0
 23 24  1  0
 24 25  2  0
 25 26  1  0
 26 27  2  0
 27 28  1  0
 28 29  2  0
 12  7  1  0
 19 13  1  0
 29 20  1  0
 28 23  1  0
  3 30  1  0
  4 31  1  0
  4 32  1  0
  8 33  1  0
  8 34  1  0
  9 35  1  0
  9 36  1  0
 10 37  1  0
 10 38  1  0
 11 39  1  0
 11 40  1  0
 12 41  1  6
 14 42  1  0
 15 43  1  0
 18 44  1  0
 19 45  1  0
 21 46  1  0
 22 47  1  0
 24 48  1  0
 25 49  1  0
 26 50  1  0
 27 51  1  0
M  END
>  <meeko>  (10) 
{"free_energy": -9.11, "intermolecular_energy": -10.6, "internal_energy": -1.32, "cluster_size": 3, "cluster_id": 2, "rank_in_cluster": 2}

$$$$

     RDKit          3D

 51 54  0  0  0  0  0  0  0  0999 V2000
  138.7650   70.5400  221.5530 O   0  0  0  0  0  0  0  0  0  0  0  0
  139.1210   71.0740  222.6390 C   0  0  0  0  0  0  0  0  0  0  0  0
  139.3140   72.4900  222.7160 N   0  0  0  0  0  0  0  0  0  0  0  0
  139.0940   73.3010  221.5350 C   0  0  0  0  0  0  0  0  0  0  0  0
  139.8730   74.5500  221.5590 C   0  0  0  0  0  0  0  0  0  0  0  0
  141.1450   74.5760  221.5760 O   0  0  0  0  0  0  0  0  0  0  0  0
  139.2170   75.8120  221.5660 N   0  0  0  0  0  0  0  0  0  0  0  0
  138.0530   75.9420  222.4200 C   0  0  0  0  0  0  0  0  0  0  0  0
  136.9110   76.6350  221.6910 C   0  0  0  0  0  0  0  0  0  0  0  0
  137.5030   77.9180  221.0860 C   0  0  0  0  0  0  0  0  0  0  0  0
  138.4720   77.4540  220.0250 C   0  0  0  0  0  0  0  0  0  0  0  0
  139.6880   76.9190  220.7540 C   0  0  1  0  0  0  0  0  0  0  0  0
  140.3720   77.9710  221.5470 C   0  0  0  0  0  0  0  0  0  0  0  0
  140.5070   79.2750  221.1270 C   0  0  0  0  0  0  0  0  0  0  0  0
  141.1440   80.2470  221.8760 C   0  0  0  0  0  0  0  0  0  0  0  0
  141.6770   79.9320  223.0990 C   0  0  0  0  0  0  0  0  0  0  0  0
  142.5530   81.2780  224.1240 Br  0  0  0  0  0  0  0  0  0  0  0  0
  141.5530   78.6330  223.5400 C   0  0  0  0  0  0  0  0  0  0  0  0
  140.9070   77.6540  222.7780 C   0  0  0  0  0  0  0  0  0  0  0  0
  139.3520   70.2680  223.8550 C   0  0  0  0  0  0  0  0  0  0  0  0
  138.9800   68.9480  223.8840 C   0  0  0  0  0  0  0  0  0  0  0  0
  139.2030   68.1970  225.0370 C   0  0  0  0  0  0  0  0  0  0  0  0
  139.7970   68.8110  226.1290 C   0  0  0  0  0  0  0  0  0  0  0  0
  140.0550   68.1480  227.3110 C   0  0  0  0  0  0  0  0  0  0  0  0
  140.6430   68.7470  228.4020 C   0  0  0  0  0  0  0  0  0  0  0  0
  141.0030   70.0920  228.3240 C   0  0  0  0  0  0  0  0  0  0  0  0
  140.7490   70.7650  227.1470 C   0  0  0  0  0  0  0  0  0  0  0  0
  140.1580   70.1400  226.0690 C   0  0  0  0  0  0  0  0  0  0  0  0
  139.9330   70.8330  224.9520 N   0  0  0  0  0  0  0  0  0  0  0  0
  139.6100   72.8830  223.6420 H   0  0  0  0  0  0  0  0  0  0  0  0
  139.3857   72.7197  220.6479 H   0  0  0  0  0  0  0  0  0  0  0  0
  138.0280   73.5710  221.5073 H   0  0  0  0  0  0  0  0  0  0  0  0
  137.7236   74.9402  222.7328 H   0  0  0  0  0  0  0  0  0  0  0  0
  138.3283   76.5500  223.2944 H   0  0  0  0  0  0  0  0  0  0  0  0
  136.5165   75.9854  220.8958 H   0  0  0  0  0  0  0  0  0  0  0  0
  136.0788   76.8612  222.3738 H   0  0  0  0  0  0  0  0  0  0  0  0
  136.7090   78.5339  220.6386 H   0  0  0  0  0  0  0  0  0  0  0  0
  137.9983   78.5377  221.8480 H   0  0  0  0  0  0  0  0  0  0  0  0
  138.0156   76.6606  219.4149 H   0  0  0  0  0  0  0  0  0  0  0  0
  138.7450   78.2779  219.3492 H   0  0  0  0  0  0  0  0  0  0  0  0
  140.4568   76.5739  220.0470 H   0  0  0  0  0  0  0  0  0  0  0  0
  140.0884   79.5569  220.1496 H   0  0  0  0  0  0  0  0  0  0  0  0
  141.2232   81.2741  221.4902 H   0  0  0  0  0  0  0  0  0  0  0  0
  141.9736   78.3579  224.5185 H   0  0  0  0  0  0  0  0  0  0  0  0
  140.8253   76.6266  223.1623 H   0  0  0  0  0  0  0  0  0  0  0  0
  138.5092   68.4855  223.0040 H   0  0  0  0  0  0  0  0  0  0  0  0
  138.9131   67.1368  225.0797 H   0  0  0  0  0  0  0  0  0  0  0  0
  139.7766   67.0864  227.3854 H   0  0  0  0  0  0  0  0  0  0  0  0
  140.8263   68.1729  229.3222 H   0  0  0  0  0  0  0  0  0  0  0  0
  141.4759   70.6016  229.1765 H   0  0  0  0  0  0  0  0  0  0  0  0
  141.0247   71.8268  227.0662 H   0  0  0  0  0  0  0  0  0  0  0  0
  1  2  2  0
  2  3  1  0
  3  4  1  0
  4  5  1  0
  5  6  2  0
  5  7  1  0
  7  8  1  0
  8  9  1  0
  9 10  1  0
 10 11  1  0
 11 12  1  0
 12 13  1  0
 13 14  2  0
 14 15  1  0
 15 16  2  0
 16 17  1  0
 16 18  1  0
 18 19  2  0
  2 20  1  0
 20 21  2  0
 21 22  1  0
 22 23  2  0
 23 24  1  0
 24 25  2  0
 25 26  1  0
 26 27  2  0
 27 28  1  0
 28 29  2  0
 12  7  1  0
 19 13  1  0
 29 20  1  0
 28 23  1  0
  3 30  1  0
  4 31  1  0
  4 32  1  0
  8 33  1  0
  8 34  1  0
  9 35  1  0
  9 36  1  0
 10 37  1  0
 10 38  1  0
 11 39  1  0
 11 40  1  0
 12 41  1  6
 14 42  1  0
 15 43  1  0
 18 44  1  0
 19 45  1  0
 21 46  1  0
 22 47  1  0
 24 48  1  0
 25 49  1  0
 26 50  1  0
 27 51  1  0
M  END
>  <meeko>  (11) 
{"free_energy": -8.72, "intermolecular_energy": -10.21, "internal_energy": -1.65, "cluster_size": 3, "cluster_id": 2, "rank_in_cluster": 3}

$$$$

     RDKit          3D

 51 54  0  0  0  0  0  0  0  0999 V2000
  140.5310   71.3720  221.5510 O   0  0  0  0  0  0  0  0  0  0  0  0
  139.8550   71.7370  222.5510 C   0  0  0  0  0  0  0  0  0  0  0  0
  138.8340   72.7300  222.4060 N   0  0  0  0  0  0  0  0  0  0  0  0
  138.5860   73.3060  221.1000 C   0  0  0  0  0  0  0  0  0  0  0  0
  138.3710   74.7620  221.1600 C   0  0  0  0  0  0  0  0  0  0  0  0
  137.2160   75.2940  221.1800 O   0  0  0  0  0  0  0  0  0  0  0  0
  139.4770   75.6550  221.1990 N   0  0  0  0  0  0  0  0  0  0  0  0
  139.7230   76.3400  222.4530 C   0  0  0  0  0  0  0  0  0  0  0  0
  140.0010   77.8190  222.2240 C   0  0  0  0  0  0  0  0  0  0  0  0
  141.0910   77.8910  221.1430 C   0  0  0  0  0  0  0  0  0  0  0  0
  140.4420   77.3750  219.8810 C   0  0  0  0  0  0  0  0  0  0  0  0
  140.3220   75.8720  220.0390 C   0  0  1  0  0  0  0  0  0  0  0  0
  141.6480   75.2150  220.1540 C   0  0  0  0  0  0  0  0  0  0  0  0
  141.8380   73.9760  220.7230 C   0  0  0  0  0  0  0  0  0  0  0  0
  143.0780   73.3740  220.8220 C   0  0  0  0  0  0  0  0  0  0  0  0
  144.1920   74.0110  220.3410 C   0  0  0  0  0  0  0  0  0  0  0  0
  145.8960   73.1730  220.4820 Br  0  0  0  0  0  0  0  0  0  0  0  0
  144.0260   75.2520  219.7670 C   0  0  0  0  0  0  0  0  0  0  0  0
  142.7680   75.8570  219.6690 C   0  0  0  0  0  0  0  0  0  0  0  0
  140.0900   71.1640  223.8920 C   0  0  0  0  0  0  0  0  0  0  0  0
  140.7230   71.9080  224.8540 C   0  0  0  0  0  0  0  0  0  0  0  0
  140.9390   71.3570  226.1160 C   0  0  0  0  0  0  0  0  0  0  0  0
  140.5070   70.0630  226.3630 C   0  0  0  0  0  0  0  0  0  0  0  0
  140.6780   69.4360  227.5790 C   0  0  0  0  0  0  0  0  0  0  0  0
  140.2530   68.1520  227.8360 C   0  0  0  0  0  0  0  0  0  0  0  0
  139.6160   67.4350  226.8240 C   0  0  0  0  0  0  0  0  0  0  0  0
  139.4390   68.0530  225.6030 C   0  0  0  0  0  0  0  0  0  0  0  0
  139.8740   69.3410  225.3740 C   0  0  0  0  0  0  0  0  0  0  0  0
  139.6800   69.8950  224.1760 N   0  0  0  0  0  0  0  0  0  0  0  0
  138.3020   72.9980  223.2680 H   0  0  0  0  0  0  0  0  0  0  0  0
  139.4530   73.1033  220.4541 H   0  0  0  0  0  0  0  0  0  0  0  0
  137.6694   72.8479  220.7000 H   0  0  0  0  0  0  0  0  0  0  0  0
  138.8384   76.2364  223.0985 H   0  0  0  0  0  0  0  0  0  0  0  0
  140.6051   75.8885  222.9306 H   0  0  0  0  0  0  0  0  0  0  0  0
  139.0892   78.3291  221.8799 H   0  0  0  0  0  0  0  0  0  0  0  0
  140.3250   78.3131  223.1518 H   0  0  0  0  0  0  0  0  0  0  0  0
  141.4280   78.9290  221.0053 H   0  0  0  0  0  0  0  0  0  0  0  0
  141.9774   77.3001  221.4171 H   0  0  0  0  0  0  0  0  0  0  0  0
  139.4458   77.8242  219.7555 H   0  0  0  0  0  0  0  0  0  0  0  0
  141.0383   77.6343  218.9937 H   0  0  0  0  0  0  0  0  0  0  0  0
  139.8715   75.4112  219.1475 H   0  0  0  0  0  0  0  0  0  0  0  0
  140.9620   73.4401  221.1173 H   0  0  0  0  0  0  0  0  0  0  0  0
  143.1710   72.3818  221.2877 H   0  0  0  0  0  0  0  0  0  0  0  0
  144.9065   75.7821  219.3748 H   0  0  0  0  0  0  0  0  0  0  0  0
  142.6721   76.8489  219.2032 H   0  0  0  0  0  0  0  0  0  0  0  0
  141.0579   72.9319  224.6316 H   0  0  0  0  0  0  0  0  0  0  0  0
  141.4432   71.9385  226.9019 H   0  0  0  0  0  0  0  0  0  0  0  0
  141.1800   69.9904  228.3856 H   0  0  0  0  0  0  0  0  0  0  0  0
  140.4136   67.6984  228.8252 H   0  0  0  0  0  0  0  0  0  0  0  0
  139.2647   66.4065  226.9940 H   0  0  0  0  0  0  0  0  0  0  0  0
  138.9382   67.5041  224.7919 H   0  0  0  0  0  0  0  0  0  0  0  0
  1  2  2  0
  2  3  1  0
  3  4  1  0
  4  5  1  0
  5  6  2  0
  5  7  1  0
  7  8  1  0
  8  9  1  0
  9 10  1  0
 10 11  1  0
 11 12  1  0
 12 13  1  0
 13 14  2  0
 14 15  1  0
 15 16  2  0
 16 17  1  0
 16 18  1  0
 18 19  2  0
  2 20  1  0
 20 21  2  0
 21 22  1  0
 22 23  2  0
 23 24  1  0
 24 25  2  0
 25 26  1  0
 26 27  2  0
 27 28  1  0
 28 29  2  0
 12  7  1  0
 19 13  1  0
 29 20  1  0
 28 23  1  0
  3 30  1  0
  4 31  1  0
  4 32  1  0
  8 33  1  0
  8 34  1  0
  9 35  1  0
  9 36  1  0
 10 37  1  0
 10 38  1  0
 11 39  1  0
 11 40  1  0
 12 41  1  6
 14 42  1  0
 15 43  1  0
 18 44  1  0
 19 45  1  0
 21 46  1  0
 22 47  1  0
 24 48  1  0
 25 49  1  0
 26 50  1  0
 27 51  1  0
M  END
>  <meeko>  (12) 
{"free_energy": -8.7, "intermolecular_energy": -10.2, "internal_energy": -1.64, "cluster_size": 16, "cluster_id": 3, "rank_in_cluster": 14}

$$$$

     RDKit          3D

 51 54  0  0  0  0  0  0  0  0999 V2000
  138.9740   70.6400  221.3170 O   0  0  0  0  0  0  0  0  0  0  0  0
  139.0930   71.3630  222.3440 C   0  0  0  0  0  0  0  0  0  0  0  0
  138.8970   72.7780  222.2560 N   0  0  0  0  0  0  0  0  0  0  0  0
  138.5600   73.3680  220.9750 C   0  0  0  0  0  0  0  0  0  0  0  0
  138.3780   74.8270  221.0610 C   0  0  0  0  0  0  0  0  0  0  0  0
  137.2380   75.3900  221.0020 O   0  0  0  0  0  0  0  0  0  0  0  0
  139.4990   75.6880  221.2150 N   0  0  0  0  0  0  0  0  0  0  0  0
  139.7020   76.2720  222.5260 C   0  0  0  0  0  0  0  0  0  0  0  0
  140.0200   77.7570  222.4220 C   0  0  0  0  0  0  0  0  0  0  0  0
  141.1590   77.8820  221.3980 C   0  0  0  0  0  0  0  0  0  0  0  0
  140.5570   77.4780  220.0740 C   0  0  0  0  0  0  0  0  0  0  0  0
  140.3990   75.9710  220.1120 C   0  0  1  0  0  0  0  0  0  0  0  0
  141.7050   75.2750  220.2340 C   0  0  0  0  0  0  0  0  0  0  0  0
  141.8510   74.0160  220.7720 C   0  0  0  0  0  0  0  0  0  0  0  0
  143.0730   73.3780  220.8780 C   0  0  0  0  0  0  0  0  0  0  0  0
  144.2120   73.9990  220.4370 C   0  0  0  0  0  0  0  0  0  0  0  0
  145.8910   73.1110  220.5880 Br  0  0  0  0  0  0  0  0  0  0  0  0
  144.0910   75.2590  219.8950 C   0  0  0  0  0  0  0  0  0  0  0  0
  142.8520   75.9000  219.7900 C   0  0  0  0  0  0  0  0  0  0  0  0
  139.4360   70.7840  223.6590 C   0  0  0  0  0  0  0  0  0  0  0  0
  139.2200   69.4510  223.8980 C   0  0  0  0  0  0  0  0  0  0  0  0
  139.5480   68.9150  225.1430 C   0  0  0  0  0  0  0  0  0  0  0  0
  140.0860   69.7520  226.1090 C   0  0  0  0  0  0  0  0  0  0  0  0
  140.4390   69.3110  227.3670 C   0  0  0  0  0  0  0  0  0  0  0  0
  140.9730   70.1320  228.3350 C   0  0  0  0  0  0  0  0  0  0  0  0
  141.1730   71.4810  228.0430 C   0  0  0  0  0  0  0  0  0  0  0  0
  140.8230   71.9320  226.7880 C   0  0  0  0  0  0  0  0  0  0  0  0
  140.2900   71.0880  225.8370 C   0  0  0  0  0  0  0  0  0  0  0  0
  139.9670   71.5720  224.6370 N   0  0  0  0  0  0  0  0  0  0  0  0
  139.0080   73.3320  223.1380 H   0  0  0  0  0  0  0  0  0  0  0  0
  139.3708   73.1542  220.2630 H   0  0  0  0  0  0  0  0  0  0  0  0
  137.6073   72.9295  220.6433 H   0  0  0  0  0  0  0  0  0  0  0  0
  138.7872   76.1416  223.1228 H   0  0  0  0  0  0  0  0  0  0  0  0
  140.5526   75.7657  223.0058 H   0  0  0  0  0  0  0  0  0  0  0  0
  139.1354   78.3130  222.0779 H   0  0  0  0  0  0  0  0  0  0  0  0
  140.3112   78.1734  223.3976 H   0  0  0  0  0  0  0  0  0  0  0  0
  141.5243   78.9186  221.3539 H   0  0  0  0  0  0  0  0  0  0  0  0
  142.0190   77.2503  221.6650 H   0  0  0  0  0  0  0  0  0  0  0  0
  139.5769   77.9591  219.9401 H   0  0  0  0  0  0  0  0  0  0  0  0
  141.1977   77.7887  219.2356 H   0  0  0  0  0  0  0  0  0  0  0  0
  139.9794   75.5896  219.1694 H   0  0  0  0  0  0  0  0  0  0  0  0
  140.9535   73.4934  221.1344 H   0  0  0  0  0  0  0  0  0  0  0  0
  143.1309   72.3710  221.3168 H   0  0  0  0  0  0  0  0  0  0  0  0
  144.9930   75.7755  219.5349 H   0  0  0  0  0  0  0  0  0  0  0  0
  142.7920   76.9070  219.3514 H   0  0  0  0  0  0  0  0  0  0  0  0
  138.7914   68.8096  223.1139 H   0  0  0  0  0  0  0  0  0  0  0  0
  139.3831   67.8483  225.3548 H   0  0  0  0  0  0  0  0  0  0  0  0
  140.2862   68.2490  227.6097 H   0  0  0  0  0  0  0  0  0  0  0  0
  141.2379   69.7298  229.3240 H   0  0  0  0  0  0  0  0  0  0  0  0
  141.5977   72.1653  228.7922 H   0  0  0  0  0  0  0  0  0  0  0  0
  140.9729   72.9929  226.5390 H   0  0  0  0  0  0  0  0  0  0  0  0
  1  2  2  0
  2  3  1  0
  3  4  1  0
  4  5  1  0
  5  6  2  0
  5  7  1  0
  7  8  1  0
  8  9  1  0
  9 10  1  0
 10 11  1  0
 11 12  1  0
 12 13  1  0
 13 14  2  0
 14 15  1  0
 15 16  2  0
 16 17  1  0
 16 18  1  0
 18 19  2  0
  2 20  1  0
 20 21  2  0
 21 22  1  0
 22 23  2  0
 23 24  1  0
 24 25  2  0
 25 26  1  0
 26 27  2  0
 27 28  1  0
 28 29  2  0
 12  7  1  0
 19 13  1  0
 29 20  1  0
 28 23  1  0
  3 30  1  0
  4 31  1  0
  4 32  1  0
  8 33  1  0
  8 34  1  0
  9 35  1  0
  9 36  1  0
 10 37  1  0
 10 38  1  0
 11 39  1  0
 11 40  1  0
 12 41  1  6
 14 42  1  0
 15 43  1  0
 18 44  1  0
 19 45  1  0
 21 46  1  0
 22 47  1  0
 24 48  1  0
 25 49  1  0
 26 50  1  0
 27 51  1  0
M  END
>  <meeko>  (13) 
{"free_energy": -8.71, "intermolecular_energy": -10.2, "internal_energy": -1.82, "cluster_size": 16, "cluster_id": 3, "rank_in_cluster": 13}

$$$$

     RDKit          3D

 51 54  0  0  0  0  0  0  0  0999 V2000
  139.8800   71.0790  221.2040 O   0  0  0  0  0  0  0  0  0  0  0  0
  139.5410   71.6830  222.2580 C   0  0  0  0  0  0  0  0  0  0  0  0
  138.9180   72.9700  222.1810 N   0  0  0  0  0  0  0  0  0  0  0  0
  138.6810   73.5660  220.8820 C   0  0  0  0  0  0  0  0  0  0  0  0
  138.5460   75.0310  220.9530 C   0  0  0  0  0  0  0  0  0  0  0  0
  137.4340   75.6340  220.8170 O   0  0  0  0  0  0  0  0  0  0  0  0
  139.6850   75.8520  221.1800 N   0  0  0  0  0  0  0  0  0  0  0  0
  139.8590   76.3740  222.5210 C   0  0  0  0  0  0  0  0  0  0  0  0
  140.2210   77.8520  222.4910 C   0  0  0  0  0  0  0  0  0  0  0  0
  141.3970   77.9880  221.5110 C   0  0  0  0  0  0  0  0  0  0  0  0
  140.8300   77.6560  220.1520 C   0  0  0  0  0  0  0  0  0  0  0  0
  140.6290   76.1540  220.1210 C   0  0  1  0  0  0  0  0  0  0  0  0
  141.9110   75.4170  220.2560 C   0  0  0  0  0  0  0  0  0  0  0  0
  143.1390   75.9610  219.9570 C   0  0  0  0  0  0  0  0  0  0  0  0
  144.3260   75.2650  220.0890 C   0  0  0  0  0  0  0  0  0  0  0  0
  144.3150   73.9700  220.5380 C   0  0  0  0  0  0  0  0  0  0  0  0
  145.9560   73.0190  220.7170 Br  0  0  0  0  0  0  0  0  0  0  0  0
  143.0980   73.4040  220.8440 C   0  0  0  0  0  0  0  0  0  0  0  0
  141.9000   74.1140  220.7080 C   0  0  0  0  0  0  0  0  0  0  0  0
  139.7740   71.0960  223.5930 C   0  0  0  0  0  0  0  0  0  0  0  0
  139.4540   69.7830  223.8290 C   0  0  0  0  0  0  0  0  0  0  0  0
  139.6780   69.2390  225.0930 C   0  0  0  0  0  0  0  0  0  0  0  0
  140.2190   70.0470  226.0810 C   0  0  0  0  0  0  0  0  0  0  0  0
  140.4740   69.5960  227.3600 C   0  0  0  0  0  0  0  0  0  0  0  0
  141.0120   70.3880  228.3490 C   0  0  0  0  0  0  0  0  0  0  0  0
  141.3190   71.7170  228.0600 C   0  0  0  0  0  0  0  0  0  0  0  0
  141.0680   72.1790  226.7840 C   0  0  0  0  0  0  0  0  0  0  0  0
  140.5300   71.3630  225.8120 C   0  0  0  0  0  0  0  0  0  0  0  0
  140.3050   71.8550  224.5930 N   0  0  0  0  0  0  0  0  0  0  0  0
  138.6570   73.4290  223.0860 H   0  0  0  0  0  0  0  0  0  0  0  0
  139.5255   73.3206  220.2213 H   0  0  0  0  0  0  0  0  0  0  0  0
  137.7350   73.1603  220.4942 H   0  0  0  0  0  0  0  0  0  0  0  0
  138.9211   76.2451  223.0812 H   0  0  0  0  0  0  0  0  0  0  0  0
  140.6782   75.8235  223.0066 H   0  0  0  0  0  0  0  0  0  0  0  0
  139.3640   78.4471  222.1425 H   0  0  0  0  0  0  0  0  0  0  0  0
  140.4907   78.2181  223.4926 H   0  0  0  0  0  0  0  0  0  0  0  0
  141.7905   79.0151  221.5229 H   0  0  0  0  0  0  0  0  0  0  0  0
  142.2307   77.3223  221.7791 H   0  0  0  0  0  0  0  0  0  0  0  0
  139.8688   78.1705  220.0059 H   0  0  0  0  0  0  0  0  0  0  0  0
  141.5078   77.9819  219.3493 H   0  0  0  0  0  0  0  0  0  0  0  0
  140.2308   75.8236  219.1503 H   0  0  0  0  0  0  0  0  0  0  0  0
  143.1780   76.9992  219.5957 H   0  0  0  0  0  0  0  0  0  0  0  0
  145.2795   75.7505  219.8337 H   0  0  0  0  0  0  0  0  0  0  0  0
  143.0665   72.3655  221.2052 H   0  0  0  0  0  0  0  0  0  0  0  0
  140.9452   73.6308  220.9627 H   0  0  0  0  0  0  0  0  0  0  0  0
  139.0241   69.1644  223.0274 H   0  0  0  0  0  0  0  0  0  0  0  0
  139.4300   68.1880  225.3024 H   0  0  0  0  0  0  0  0  0  0  0  0
  140.2351   68.5498  227.6016 H   0  0  0  0  0  0  0  0  0  0  0  0
  141.1970   69.9783  229.3529 H   0  0  0  0  0  0  0  0  0  0  0  0
  141.7489   72.3782  228.8269 H   0  0  0  0  0  0  0  0  0  0  0  0
  141.3032   73.2247  226.5364 H   0  0  0  0  0  0  0  0  0  0  0  0
  1  2  2  0
  2  3  1  0
  3  4  1  0
  4  5  1  0
  5  6  2  0
  5  7  1  0
  7  8  1  0
  8  9  1  0
  9 10  1  0
 10 11  1  0
 11 12  1  0
 12 13  1  0
 13 14  2  0
 14 15  1  0
 15 16  2  0
 16 17  1  0
 16 18  1  0
 18 19  2  0
  2 20  1  0
 20 21  2  0
 21 22  1  0
 22 23  2  0
 23 24  1  0
 24 25  2  0
 25 26  1  0
 26 27  2  0
 27 28  1  0
 28 29  2  0
 12  7  1  0
 19 13  1  0
 29 20  1  0
 28 23  1  0
  3 30  1  0
  4 31  1  0
  4 32  1  0
  8 33  1  0
  8 34  1  0
  9 35  1  0
  9 36  1  0
 10 37  1  0
 10 38  1  0
 11 39  1  0
 11 40  1  0
 12 41  1  6
 14 42  1  0
 15 43  1  0
 18 44  1  0
 19 45  1  0
 21 46  1  0
 22 47  1  0
 24 48  1  0
 25 49  1  0
 26 50  1  0
 27 51  1  0
M  END
>  <meeko>  (14) 
{"free_energy": -8.86, "intermolecular_energy": -10.36, "internal_energy": -1.79, "cluster_size": 16, "cluster_id": 3, "rank_in_cluster": 3}

$$$$

     RDKit          3D

 51 54  0  0  0  0  0  0  0  0999 V2000
  140.3670   71.6190  221.2100 O   0  0  0  0  0  0  0  0  0  0  0  0
  139.7250   71.9680  222.2370 C   0  0  0  0  0  0  0  0  0  0  0  0
  138.8590   73.1070  222.1940 N   0  0  0  0  0  0  0  0  0  0  0  0
  138.7280   73.8510  220.9570 C   0  0  0  0  0  0  0  0  0  0  0  0
  138.6330   75.3030  221.1820 C   0  0  0  0  0  0  0  0  0  0  0  0
  137.5260   75.9130  221.3290 O   0  0  0  0  0  0  0  0  0  0  0  0
  139.8070   76.1030  221.2450 N   0  0  0  0  0  0  0  0  0  0  0  0
  140.0830   76.7640  222.5060 C   0  0  0  0  0  0  0  0  0  0  0  0
  140.4840   78.2160  222.2870 C   0  0  0  0  0  0  0  0  0  0  0  0
  141.5970   78.2010  221.2270 C   0  0  0  0  0  0  0  0  0  0  0  0
  140.9330   77.7420  219.9510 C   0  0  0  0  0  0  0  0  0  0  0  0
  140.6880   76.2540  220.1020 C   0  0  1  0  0  0  0  0  0  0  0  0
  141.9540   75.4910  220.2400 C   0  0  0  0  0  0  0  0  0  0  0  0
  143.1920   76.0050  219.9250 C   0  0  0  0  0  0  0  0  0  0  0  0
  144.3640   75.2850  220.0600 C   0  0  0  0  0  0  0  0  0  0  0  0
  144.3290   73.9970  220.5260 C   0  0  0  0  0  0  0  0  0  0  0  0
  145.9500   73.0140  220.7090 Br  0  0  0  0  0  0  0  0  0  0  0  0
  143.1020   73.4610  220.8470 C   0  0  0  0  0  0  0  0  0  0  0  0
  141.9180   74.1940  220.7090 C   0  0  0  0  0  0  0  0  0  0  0  0
  139.8420   71.2260  223.5090 C   0  0  0  0  0  0  0  0  0  0  0  0
  139.4720   69.9070  223.5700 C   0  0  0  0  0  0  0  0  0  0  0  0
  139.5880   69.2160  224.7750 C   0  0  0  0  0  0  0  0  0  0  0  0
  140.0760   69.8890  225.8860 C   0  0  0  0  0  0  0  0  0  0  0  0
  140.2240   69.2870  227.1180 C   0  0  0  0  0  0  0  0  0  0  0  0
  140.7070   69.9440  228.2280 C   0  0  0  0  0  0  0  0  0  0  0  0
  141.0700   71.2860  228.1160 C   0  0  0  0  0  0  0  0  0  0  0  0
  140.9250   71.8970  226.8870 C   0  0  0  0  0  0  0  0  0  0  0  0
  140.4390   71.2150  225.7920 C   0  0  0  0  0  0  0  0  0  0  0  0
  140.3180   71.8490  224.6250 N   0  0  0  0  0  0  0  0  0  0  0  0
  138.3490   73.3550  223.0750 H   0  0  0  0  0  0  0  0  0  0  0  0
  139.6072   73.6479  220.3279 H   0  0  0  0  0  0  0  0  0  0  0  0
  137.7980   73.5262  220.4674 H   0  0  0  0  0  0  0  0  0  0  0  0
  139.1804   76.7313  223.1339 H   0  0  0  0  0  0  0  0  0  0  0  0
  140.9161   76.2419  222.9993 H   0  0  0  0  0  0  0  0  0  0  0  0
  139.6232   78.7988  221.9272 H   0  0  0  0  0  0  0  0  0  0  0  0
  140.8289   78.6810  223.2223 H   0  0  0  0  0  0  0  0  0  0  0  0
  142.0199   79.2084  221.0994 H   0  0  0  0  0  0  0  0  0  0  0  0
  142.4268   77.5392  221.5160 H   0  0  0  0  0  0  0  0  0  0  0  0
  139.9793   78.2711  219.8077 H   0  0  0  0  0  0  0  0  0  0  0  0
  141.5655   77.9533  219.0762 H   0  0  0  0  0  0  0  0  0  0  0  0
  140.2179   75.8341  219.2005 H   0  0  0  0  0  0  0  0  0  0  0  0
  143.2509   77.0368  219.5483 H   0  0  0  0  0  0  0  0  0  0  0  0
  145.3261   75.7466  219.7930 H   0  0  0  0  0  0  0  0  0  0  0  0
  143.0511   72.4282  221.2222 H   0  0  0  0  0  0  0  0  0  0  0  0
  140.9548   73.7343  220.9755 H   0  0  0  0  0  0  0  0  0  0  0  0
  139.0864   69.3979  222.6744 H   0  0  0  0  0  0  0  0  0  0  0  0
  139.2981   68.1571  224.8439 H   0  0  0  0  0  0  0  0  0  0  0  0
  139.9420   68.2286  227.2192 H   0  0  0  0  0  0  0  0  0  0  0  0
  140.8050   69.4179  229.1890 H   0  0  0  0  0  0  0  0  0  0  0  0
  141.4604   71.8411  228.9817 H   0  0  0  0  0  0  0  0  0  0  0  0
  141.2044   72.9554  226.7784 H   0  0  0  0  0  0  0  0  0  0  0  0
  1  2  2  0
  2  3  1  0
  3  4  1  0
  4  5  1  0
  5  6  2  0
  5  7  1  0
  7  8  1  0
  8  9  1  0
  9 10  1  0
 10 11  1  0
 11 12  1  0
 12 13  1  0
 13 14  2  0
 14 15  1  0
 15 16  2  0
 16 17  1  0
 16 18  1  0
 18 19  2  0
  2 20  1  0
 20 21  2  0
 21 22  1  0
 22 23  2  0
 23 24  1  0
 24 25  2  0
 25 26  1  0
 26 27  2  0
 27 28  1  0
 28 29  2  0
 12  7  1  0
 19 13  1  0
 29 20  1  0
 28 23  1  0
  3 30  1  0
  4 31  1  0
  4 32  1  0
  8 33  1  0
  8 34  1  0
  9 35  1  0
  9 36  1  0
 10 37  1  0
 10 38  1  0
 11 39  1  0
 11 40  1  0
 12 41  1  6
 14 42  1  0
 15 43  1  0
 18 44  1  0
 19 45  1  0
 21 46  1  0
 22 47  1  0
 24 48  1  0
 25 49  1  0
 26 50  1  0
 27 51  1  0
M  END
>  <meeko>  (15) 
{"free_energy": -8.98, "intermolecular_energy": -10.47, "internal_energy": -1.67, "cluster_size": 16, "cluster_id": 3, "rank_in_cluster": 1}

$$$$

     RDKit          3D

 51 54  0  0  0  0  0  0  0  0999 V2000
  140.2210   71.3950  221.2410 O   0  0  0  0  0  0  0  0  0  0  0  0
  139.5760   71.8090  222.2430 C   0  0  0  0  0  0  0  0  0  0  0  0
  138.6590   72.8990  222.1080 N   0  0  0  0  0  0  0  0  0  0  0  0
  138.4790   73.5180  220.8090 C   0  0  0  0  0  0  0  0  0  0  0  0
  138.3310   74.9800  220.9000 C   0  0  0  0  0  0  0  0  0  0  0  0
  137.2180   75.5770  220.7460 O   0  0  0  0  0  0  0  0  0  0  0  0
  139.4580   75.8050  221.1700 N   0  0  0  0  0  0  0  0  0  0  0  0
  139.6200   76.2680  222.5340 C   0  0  0  0  0  0  0  0  0  0  0  0
  139.9620   77.7500  222.5740 C   0  0  0  0  0  0  0  0  0  0  0  0
  141.1390   77.9470  221.6060 C   0  0  0  0  0  0  0  0  0  0  0  0
  140.5810   77.6710  220.2300 C   0  0  0  0  0  0  0  0  0  0  0  0
  140.4010   76.1700  220.1290 C   0  0  1  0  0  0  0  0  0  0  0  0
  141.6920   75.4440  220.2350 C   0  0  0  0  0  0  0  0  0  0  0  0
  141.8160   74.1800  220.7670 C   0  0  0  0  0  0  0  0  0  0  0  0
  143.0230   73.5150  220.8580 C   0  0  0  0  0  0  0  0  0  0  0  0
  144.1720   74.1110  220.4070 C   0  0  0  0  0  0  0  0  0  0  0  0
  145.8320   73.1860  220.5380 Br  0  0  0  0  0  0  0  0  0  0  0  0
  144.0730   75.3750  219.8710 C   0  0  0  0  0  0  0  0  0  0  0  0
  142.8480   76.0450  219.7810 C   0  0  0  0  0  0  0  0  0  0  0  0
  139.7440   71.1940  223.5760 C   0  0  0  0  0  0  0  0  0  0  0  0
  139.3110   69.9130  223.7990 C   0  0  0  0  0  0  0  0  0  0  0  0
  139.4740   69.3430  225.0600 C   0  0  0  0  0  0  0  0  0  0  0  0
  140.0720   70.0950  226.0600 C   0  0  0  0  0  0  0  0  0  0  0  0
  140.2740   69.6150  227.3380 C   0  0  0  0  0  0  0  0  0  0  0  0
  140.8660   70.3520  228.3390 C   0  0  0  0  0  0  0  0  0  0  0  0
  141.2890   71.6520  228.0630 C   0  0  0  0  0  0  0  0  0  0  0  0
  141.0910   72.1420  226.7880 C   0  0  0  0  0  0  0  0  0  0  0  0
  140.4960   71.3810  225.8040 C   0  0  0  0  0  0  0  0  0  0  0  0
  140.3270   71.9000  224.5870 N   0  0  0  0  0  0  0  0  0  0  0  0
  138.1490   73.2050  222.9710 H   0  0  0  0  0  0  0  0  0  0  0  0
  139.3552   73.2898  220.1844 H   0  0  0  0  0  0  0  0  0  0  0  0
  137.5550   73.1139  220.3699 H   0  0  0  0  0  0  0  0  0  0  0  0
  138.6818   76.1011  223.0836 H   0  0  0  0  0  0  0  0  0  0  0  0
  140.4452   75.7070  222.9970 H   0  0  0  0  0  0  0  0  0  0  0  0
  139.0982   78.3492  222.2503 H   0  0  0  0  0  0  0  0  0  0  0  0
  140.2236   78.0727  223.5926 H   0  0  0  0  0  0  0  0  0  0  0  0
  141.5186   78.9776  221.6672 H   0  0  0  0  0  0  0  0  0  0  0  0
  141.9805   77.2805  221.8461 H   0  0  0  0  0  0  0  0  0  0  0  0
  139.6133   78.1786  220.1040 H   0  0  0  0  0  0  0  0  0  0  0  0
  141.2568   78.0432  219.4459 H   0  0  0  0  0  0  0  0  0  0  0  0
  140.0105   75.8812  219.1420 H   0  0  0  0  0  0  0  0  0  0  0  0
  140.9109   73.6761  221.1370 H   0  0  0  0  0  0  0  0  0  0  0  0
  143.0623   72.5055  221.2931 H   0  0  0  0  0  0  0  0  0  0  0  0
  144.9826   75.8723  219.5031 H   0  0  0  0  0  0  0  0  0  0  0  0
  142.8064   77.0547  219.3466 H   0  0  0  0  0  0  0  0  0  0  0  0
  138.8382   69.3390  222.9884 H   0  0  0  0  0  0  0  0  0  0  0  0
  139.1346   68.3157  225.2586 H   0  0  0  0  0  0  0  0  0  0  0  0
  139.9452   68.5910  227.5688 H   0  0  0  0  0  0  0  0  0  0  0  0
  141.0034   69.9217  229.3420 H   0  0  0  0  0  0  0  0  0  0  0  0
  141.7664   72.2687  228.8387 H   0  0  0  0  0  0  0  0  0  0  0  0
  141.4161   73.1657  226.5507 H   0  0  0  0  0  0  0  0  0  0  0  0
  1  2  2  0
  2  3  1  0
  3  4  1  0
  4  5  1  0
  5  6  2  0
  5  7  1  0
  7  8  1  0
  8  9  1  0
  9 10  1  0
 10 11  1  0
 11 12  1  0
 12 13  1  0
 13 14  2  0
 14 15  1  0
 15 16  2  0
 16 17  1  0
 16 18  1  0
 18 19  2  0
  2 20  1  0
 20 21  2  0
 21 22  1  0
 22 23  2  0
 23 24  1  0
 24 25  2  0
 25 26  1  0
 26 27  2  0
 27 28  1  0
 28 29  2  0
 12  7  1  0
 19 13  1  0
 29 20  1  0
 28 23  1  0
  3 30  1  0
  4 31  1  0
  4 32  1  0
  8 33  1  0
  8 34  1  0
  9 35  1  0
  9 36  1  0
 10 37  1  0
 10 38  1  0
 11 39  1  0
 11 40  1  0
 12 41  1  6
 14 42  1  0
 15 43  1  0
 18 44  1  0
 19 45  1  0
 21 46  1  0
 22 47  1  0
 24 48  1  0
 25 49  1  0
 26 50  1  0
 27 51  1  0
M  END
>  <meeko>  (16) 
{"free_energy": -8.79, "intermolecular_energy": -10.28, "internal_energy": -1.8, "cluster_size": 16, "cluster_id": 3, "rank_in_cluster": 5}

$$$$

     RDKit          3D

 51 54  0  0  0  0  0  0  0  0999 V2000
  139.2640   70.7950  221.2780 O   0  0  0  0  0  0  0  0  0  0  0  0
  139.2290   71.5290  222.3030 C   0  0  0  0  0  0  0  0  0  0  0  0
  138.8490   72.9040  222.1910 N   0  0  0  0  0  0  0  0  0  0  0  0
  138.5060   73.4410  220.8890 C   0  0  0  0  0  0  0  0  0  0  0  0
  138.3560   74.9060  220.9080 C   0  0  0  0  0  0  0  0  0  0  0  0
  137.2440   75.4930  220.7120 O   0  0  0  0  0  0  0  0  0  0  0  0
  139.4780   75.7450  221.1510 N   0  0  0  0  0  0  0  0  0  0  0  0
  139.6520   76.2310  222.5050 C   0  0  0  0  0  0  0  0  0  0  0  0
  139.9810   77.7170  222.5170 C   0  0  0  0  0  0  0  0  0  0  0  0
  141.1450   77.9080  221.5320 C   0  0  0  0  0  0  0  0  0  0  0  0
  140.5730   77.6050  220.1680 C   0  0  0  0  0  0  0  0  0  0  0  0
  140.4060   76.1010  220.0930 C   0  0  1  0  0  0  0  0  0  0  0  0
  141.7040   75.3890  220.1950 C   0  0  0  0  0  0  0  0  0  0  0  0
  141.8440   74.1320  220.7400 C   0  0  0  0  0  0  0  0  0  0  0  0
  143.0590   73.4780  220.8270 C   0  0  0  0  0  0  0  0  0  0  0  0
  144.1980   74.0800  220.3600 C   0  0  0  0  0  0  0  0  0  0  0  0
  145.8670   73.1710  220.4850 Br  0  0  0  0  0  0  0  0  0  0  0  0
  144.0830   75.3380  219.8110 C   0  0  0  0  0  0  0  0  0  0  0  0
  142.8500   75.9950  219.7240 C   0  0  0  0  0  0  0  0  0  0  0  0
  139.5750   71.0040  223.6400 C   0  0  0  0  0  0  0  0  0  0  0  0
  139.3160   69.6940  223.9500 C   0  0  0  0  0  0  0  0  0  0  0  0
  139.6470   69.2090  225.2150 C   0  0  0  0  0  0  0  0  0  0  0  0
  140.2310   70.0740  226.1290 C   0  0  0  0  0  0  0  0  0  0  0  0
  140.5900   69.6840  227.4020 C   0  0  0  0  0  0  0  0  0  0  0  0
  141.1700   70.5320  228.3180 C   0  0  0  0  0  0  0  0  0  0  0  0
  141.4130   71.8570  227.9560 C   0  0  0  0  0  0  0  0  0  0  0  0
  141.0560   72.2570  226.6840 C   0  0  0  0  0  0  0  0  0  0  0  0
  140.4770   71.3860  225.7860 C   0  0  0  0  0  0  0  0  0  0  0  0
  140.1510   71.8210  224.5680 N   0  0  0  0  0  0  0  0  0  0  0  0
  138.8360   73.4710  223.0720 H   0  0  0  0  0  0  0  0  0  0  0  0
  139.3016   73.1765  220.1770 H   0  0  0  0  0  0  0  0  0  0  0  0
  137.5392   73.0086  220.5918 H   0  0  0  0  0  0  0  0  0  0  0  0
  138.7220   76.0646  223.0685 H   0  0  0  0  0  0  0  0  0  0  0  0
  140.4877   75.6849  222.9670 H   0  0  0  0  0  0  0  0  0  0  0  0
  139.1081   78.3032  222.1937 H   0  0  0  0  0  0  0  0  0  0  0  0
  140.2512   78.0589  223.5270 H   0  0  0  0  0  0  0  0  0  0  0  0
  141.5166   78.9426  221.5719 H   0  0  0  0  0  0  0  0  0  0  0  0
  141.9951   77.2527  221.7728 H   0  0  0  0  0  0  0  0  0  0  0  0
  139.5991   78.1016  220.0460 H   0  0  0  0  0  0  0  0  0  0  0  0
  141.2356   77.9709  219.3698 H   0  0  0  0  0  0  0  0  0  0  0  0
  140.0072   75.7921  219.1155 H   0  0  0  0  0  0  0  0  0  0  0  0
  140.9469   73.6244  221.1242 H   0  0  0  0  0  0  0  0  0  0  0  0
  143.1114   72.4732  221.2716 H   0  0  0  0  0  0  0  0  0  0  0  0
  144.9847   75.8401  219.4305 H   0  0  0  0  0  0  0  0  0  0  0  0
  142.7948   76.9990  219.2780 H   0  0  0  0  0  0  0  0  0  0  0  0
  138.8505   69.0303  223.2065 H   0  0  0  0  0  0  0  0  0  0  0  0
  139.4488   68.1607  225.4829 H   0  0  0  0  0  0  0  0  0  0  0  0
  140.4033   68.6419  227.7007 H   0  0  0  0  0  0  0  0  0  0  0  0
  141.4381   70.1699  229.3215 H   0  0  0  0  0  0  0  0  0  0  0  0
  141.8752   72.5618  228.6628 H   0  0  0  0  0  0  0  0  0  0  0  0
  141.2383   73.2980  226.3790 H   0  0  0  0  0  0  0  0  0  0  0  0
  1  2  2  0
  2  3  1  0
  3  4  1  0
  4  5  1  0
  5  6  2  0
  5  7  1  0
  7  8  1  0
  8  9  1  0
  9 10  1  0
 10 11  1  0
 11 12  1  0
 12 13  1  0
 13 14  2  0
 14 15  1  0
 15 16  2  0
 16 17  1  0
 16 18  1  0
 18 19  2  0
  2 20  1  0
 20 21  2  0
 21 22  1  0
 22 23  2  0
 23 24  1  0
 24 25  2  0
 25 26  1  0
 26 27  2  0
 27 28  1  0
 28 29  2  0
 12  7  1  0
 19 13  1  0
 29 20  1  0
 28 23  1  0
  3 30  1  0
  4 31  1  0
  4 32  1  0
  8 33  1  0
  8 34  1  0
  9 35  1  0
  9 36  1  0
 10 37  1  0
 10 38  1  0
 11 39  1  0
 11 40  1  0
 12 41  1  6
 14 42  1  0
 15 43  1  0
 18 44  1  0
 19 45  1  0
 21 46  1  0
 22 47  1  0
 24 48  1  0
 25 49  1  0
 26 50  1  0
 27 51  1  0
M  END
>  <meeko>  (17) 
{"free_energy": -8.69, "intermolecular_energy": -10.18, "internal_energy": -1.85, "cluster_size": 16, "cluster_id": 3, "rank_in_cluster": 16}

$$$$

     RDKit          3D

 51 54  0  0  0  0  0  0  0  0999 V2000
  138.8230   70.8110  221.3870 O   0  0  0  0  0  0  0  0  0  0  0  0
  139.0740   71.4920  222.4190 C   0  0  0  0  0  0  0  0  0  0  0  0
  139.0340   72.9210  222.3660 N   0  0  0  0  0  0  0  0  0  0  0  0
  138.7020   73.5760  221.1160 C   0  0  0  0  0  0  0  0  0  0  0  0
  138.5480   75.0320  221.2680 C   0  0  0  0  0  0  0  0  0  0  0  0
  137.4160   75.6060  221.3610 O   0  0  0  0  0  0  0  0  0  0  0  0
  139.6890   75.8780  221.3180 N   0  0  0  0  0  0  0  0  0  0  0  0
  139.9560   76.5480  222.5760 C   0  0  0  0  0  0  0  0  0  0  0  0
  140.2950   78.0150  222.3560 C   0  0  0  0  0  0  0  0  0  0  0  0
  141.3940   78.0460  221.2810 C   0  0  0  0  0  0  0  0  0  0  0  0
  140.7320   77.5630  220.0130 C   0  0  0  0  0  0  0  0  0  0  0  0
  140.5490   76.0660  220.1630 C   0  0  1  0  0  0  0  0  0  0  0  0
  141.8460   75.3540  220.2830 C   0  0  0  0  0  0  0  0  0  0  0  0
  143.0580   75.9150  219.9450 C   0  0  0  0  0  0  0  0  0  0  0  0
  144.2590   75.2430  220.0630 C   0  0  0  0  0  0  0  0  0  0  0  0
  144.2830   73.9560  220.5350 C   0  0  0  0  0  0  0  0  0  0  0  0
  145.9440   73.0380  220.6940 Br  0  0  0  0  0  0  0  0  0  0  0  0
  143.0840   73.3740  220.8790 C   0  0  0  0  0  0  0  0  0  0  0  0
  141.8700   74.0600  220.7580 C   0  0  0  0  0  0  0  0  0  0  0  0
  139.4160   70.8470  223.7040 C   0  0  0  0  0  0  0  0  0  0  0  0
  139.1990   69.5040  223.8760 C   0  0  0  0  0  0  0  0  0  0  0  0
  139.5260   68.9070  225.0930 C   0  0  0  0  0  0  0  0  0  0  0  0
  140.0630   69.6940  226.1000 C   0  0  0  0  0  0  0  0  0  0  0  0
  140.4150   69.1900  227.3350 C   0  0  0  0  0  0  0  0  0  0  0  0
  140.9490   69.9620  228.3430 C   0  0  0  0  0  0  0  0  0  0  0  0
  141.1500   71.3230  228.1190 C   0  0  0  0  0  0  0  0  0  0  0  0
  140.8010   71.8370  226.8870 C   0  0  0  0  0  0  0  0  0  0  0  0
  140.2680   71.0410  225.8950 C   0  0  0  0  0  0  0  0  0  0  0  0
  139.9470   71.5850  224.7200 N   0  0  0  0  0  0  0  0  0  0  0  0
  139.2520   73.4390  223.2510 H   0  0  0  0  0  0  0  0  0  0  0  0
  139.5051   73.3797  220.3904 H   0  0  0  0  0  0  0  0  0  0  0  0
  137.7389   73.1715  220.7713 H   0  0  0  0  0  0  0  0  0  0  0  0
  139.0644   76.4777  223.2164 H   0  0  0  0  0  0  0  0  0  0  0  0
  140.8169   76.0593  223.0555 H   0  0  0  0  0  0  0  0  0  0  0  0
  139.4069   78.5635  222.0090 H   0  0  0  0  0  0  0  0  0  0  0  0
  140.6329   78.4920  223.2879 H   0  0  0  0  0  0  0  0  0  0  0  0
  141.7748   79.0696  221.1500 H   0  0  0  0  0  0  0  0  0  0  0  0
  142.2532   77.4173  221.5577 H   0  0  0  0  0  0  0  0  0  0  0  0
  139.7560   78.0536  219.8838 H   0  0  0  0  0  0  0  0  0  0  0  0
  141.3439   77.8013  219.1305 H   0  0  0  0  0  0  0  0  0  0  0  0
  140.0849   75.6292  219.2664 H   0  0  0  0  0  0  0  0  0  0  0  0
  143.0699   76.9466  219.5632 H   0  0  0  0  0  0  0  0  0  0  0  0
  145.1974   75.7411  219.7779 H   0  0  0  0  0  0  0  0  0  0  0  0
  143.0798   72.3418  221.2593 H   0  0  0  0  0  0  0  0  0  0  0  0
  140.9304   73.5642  221.0433 H   0  0  0  0  0  0  0  0  0  0  0  0
  138.7705   68.9026  223.0607 H   0  0  0  0  0  0  0  0  0  0  0  0
  139.3608   67.8310  225.2511 H   0  0  0  0  0  0  0  0  0  0  0  0
  140.2614   68.1174  227.5243 H   0  0  0  0  0  0  0  0  0  0  0  0
  141.2131   69.5109  229.3109 H   0  0  0  0  0  0  0  0  0  0  0  0
  141.5746   71.9687  228.9018 H   0  0  0  0  0  0  0  0  0  0  0  0
  140.9517   72.9089  226.6911 H   0  0  0  0  0  0  0  0  0  0  0  0
  1  2  2  0
  2  3  1  0
  3  4  1  0
  4  5  1  0
  5  6  2  0
  5  7  1  0
  7  8  1  0
  8  9  1  0
  9 10  1  0
 10 11  1  0
 11 12  1  0
 12 13  1  0
 13 14  2  0
 14 15  1  0
 15 16  2  0
 16 17  1  0
 16 18  1  0
 18 19  2  0
  2 20  1  0
 20 21  2  0
 21 22  1  0
 22 23  2  0
 23 24  1  0
 24 25  2  0
 25 26  1  0
 26 27  2  0
 27 28  1  0
 28 29  2  0
 12  7  1  0
 19 13  1  0
 29 20  1  0
 28 23  1  0
  3 30  1  0
  4 31  1  0
  4 32  1  0
  8 33  1  0
  8 34  1  0
  9 35  1  0
  9 36  1  0
 10 37  1  0
 10 38  1  0
 11 39  1  0
 11 40  1  0
 12 41  1  6
 14 42  1  0
 15 43  1  0
 18 44  1  0
 19 45  1  0
 21 46  1  0
 22 47  1  0
 24 48  1  0
 25 49  1  0
 26 50  1  0
 27 51  1  0
M  END
>  <meeko>  (18) 
{"free_energy": -8.77, "intermolecular_energy": -10.26, "internal_energy": -1.77, "cluster_size": 16, "cluster_id": 3, "rank_in_cluster": 7}

$$$$

     RDKit          3D

 51 54  0  0  0  0  0  0  0  0999 V2000
  138.7510   70.8290  221.3740 O   0  0  0  0  0  0  0  0  0  0  0  0
  139.0290   71.5020  222.4040 C   0  0  0  0  0  0  0  0  0  0  0  0
  139.0070   72.9320  222.3580 N   0  0  0  0  0  0  0  0  0  0  0  0
  138.6610   73.5960  221.1160 C   0  0  0  0  0  0  0  0  0  0  0  0
  138.5190   75.0520  221.2790 C   0  0  0  0  0  0  0  0  0  0  0  0
  137.3930   75.6320  221.3960 O   0  0  0  0  0  0  0  0  0  0  0  0
  139.6670   75.8920  221.3130 N   0  0  0  0  0  0  0  0  0  0  0  0
  139.9560   76.5570  222.5680 C   0  0  0  0  0  0  0  0  0  0  0  0
  140.3020   78.0220  222.3450 C   0  0  0  0  0  0  0  0  0  0  0  0
  141.3840   78.0490  221.2540 C   0  0  0  0  0  0  0  0  0  0  0  0
  140.7000   77.5720  219.9960 C   0  0  0  0  0  0  0  0  0  0  0  0
  140.5090   76.0760  220.1460 C   0  0  1  0  0  0  0  0  0  0  0  0
  141.8040   75.3560  220.2440 C   0  0  0  0  0  0  0  0  0  0  0  0
  143.0080   75.8930  219.8450 C   0  0  0  0  0  0  0  0  0  0  0  0
  144.2070   75.2130  219.9450 C   0  0  0  0  0  0  0  0  0  0  0  0
  144.2360   73.9430  220.4600 C   0  0  0  0  0  0  0  0  0  0  0  0
  145.8940   73.0150  220.5920 Br  0  0  0  0  0  0  0  0  0  0  0  0
  143.0440   73.3850  220.8650 C   0  0  0  0  0  0  0  0  0  0  0  0
  141.8330   74.0780  220.7630 C   0  0  0  0  0  0  0  0  0  0  0  0
  139.3840   70.8470  223.6800 C   0  0  0  0  0  0  0  0  0  0  0  0
  139.1940   69.4990  223.8350 C   0  0  0  0  0  0  0  0  0  0  0  0
  139.5330   68.8920  225.0430 C   0  0  0  0  0  0  0  0  0  0  0  0
  140.0560   69.6760  226.0610 C   0  0  0  0  0  0  0  0  0  0  0  0
  140.4190   69.1630  227.2890 C   0  0  0  0  0  0  0  0  0  0  0  0
  140.9390   69.9320  228.3060 C   0  0  0  0  0  0  0  0  0  0  0  0
  141.1130   71.3000  228.1000 C   0  0  0  0  0  0  0  0  0  0  0  0
  140.7530   71.8230  226.8760 C   0  0  0  0  0  0  0  0  0  0  0  0
  140.2350   71.0300  225.8740 C   0  0  0  0  0  0  0  0  0  0  0  0
  139.9020   71.5820  224.7060 N   0  0  0  0  0  0  0  0  0  0  0  0
  139.2460   73.4430  223.2410 H   0  0  0  0  0  0  0  0  0  0  0  0
  139.4521   73.3987  220.3776 H   0  0  0  0  0  0  0  0  0  0  0  0
  137.6906   73.1995  220.7826 H   0  0  0  0  0  0  0  0  0  0  0  0
  139.0730   76.4918  223.2207 H   0  0  0  0  0  0  0  0  0  0  0  0
  140.8197   76.0613  223.0351 H   0  0  0  0  0  0  0  0  0  0  0  0
  139.4123   78.5771  222.0128 H   0  0  0  0  0  0  0  0  0  0  0  0
  140.6580   78.4942  223.2726 H   0  0  0  0  0  0  0  0  0  0  0  0
  141.7683   79.0708  221.1189 H   0  0  0  0  0  0  0  0  0  0  0  0
  142.2440   77.4153  221.5163 H   0  0  0  0  0  0  0  0  0  0  0  0
  139.7254   78.0693  219.8823 H   0  0  0  0  0  0  0  0  0  0  0  0
  141.3006   77.8073  219.1050 H   0  0  0  0  0  0  0  0  0  0  0  0
  140.0275   75.6433  219.2567 H   0  0  0  0  0  0  0  0  0  0  0  0
  143.0156   76.9106  219.4273 H   0  0  0  0  0  0  0  0  0  0  0  0
  145.1394   75.6916  219.6109 H   0  0  0  0  0  0  0  0  0  0  0  0
  143.0440   72.3663  221.2802 H   0  0  0  0  0  0  0  0  0  0  0  0
  140.8997   73.6018  221.0981 H   0  0  0  0  0  0  0  0  0  0  0  0
  138.7769   68.9001  223.0120 H   0  0  0  0  0  0  0  0  0  0  0  0
  139.3885   67.8110  225.1866 H   0  0  0  0  0  0  0  0  0  0  0  0
  140.2864   68.0852  227.4646 H   0  0  0  0  0  0  0  0  0  0  0  0
  141.2133   69.4735  229.2675 H   0  0  0  0  0  0  0  0  0  0  0  0
  141.5256   71.9434  228.8911 H   0  0  0  0  0  0  0  0  0  0  0  0
  140.8823   72.9002  226.6943 H   0  0  0  0  0  0  0  0  0  0  0  0
  1  2  2  0
  2  3  1  0
  3  4  1  0
  4  5  1  0
  5  6  2  0
  5  7  1  0
  7  8  1  0
  8  9  1  0
  9 10  1  0
 10 11  1  0
 11 12  1  0
 12 13  1  0
 13 14  2  0
 14 15  1  0
 15 16  2  0
 16 17  1  0
 16 18  1  0
 18 19  2  0
  2 20  1  0
 20 21  2  0
 21 22  1  0
 22 23  2  0
 23 24  1  0
 24 25  2  0
 25 26  1  0
 26 27  2  0
 27 28  1  0
 28 29  2  0
 12  7  1  0
 19 13  1  0
 29 20  1  0
 28 23  1  0
  3 30  1  0
  4 31  1  0
  4 32  1  0
  8 33  1  0
  8 34  1  0
  9 35  1  0
  9 36  1  0
 10 37  1  0
 10 38  1  0
 11 39  1  0
 11 40  1  0
 12 41  1  6
 14 42  1  0
 15 43  1  0
 18 44  1  0
 19 45  1  0
 21 46  1  0
 22 47  1  0
 24 48  1  0
 25 49  1  0
 26 50  1  0
 27 51  1  0
M  END
>  <meeko>  (19) 
{"free_energy": -8.73, "intermolecular_energy": -10.22, "internal_energy": -1.79, "cluster_size": 16, "cluster_id": 3, "rank_in_cluster": 10}

$$$$

     RDKit          3D

 51 54  0  0  0  0  0  0  0  0999 V2000
  140.4600   75.3820  220.7700 O   0  0  0  0  0  0  0  0  0  0  0  0
  139.7640   75.8070  221.7320 C   0  0  0  0  0  0  0  0  0  0  0  0
  138.7550   74.9750  222.3140 N   0  0  0  0  0  0  0  0  0  0  0  0
  138.5460   73.6410  221.7870 C   0  0  0  0  0  0  0  0  0  0  0  0
  139.6090   72.7050  222.1890 C   0  0  0  0  0  0  0  0  0  0  0  0
  140.8200   73.0600  222.3580 O   0  0  0  0  0  0  0  0  0  0  0  0
  139.3190   71.3310  222.4080 N   0  0  0  0  0  0  0  0  0  0  0  0
  140.0270   70.3710  221.5840 C   0  0  0  0  0  0  0  0  0  0  0  0
  139.0820   69.3070  221.0440 C   0  0  0  0  0  0  0  0  0  0  0  0
  138.3000   68.7730  222.2540 C   0  0  0  0  0  0  0  0  0  0  0  0
  137.4350   69.9220  222.7160 C   0  0  0  0  0  0  0  0  0  0  0  0
  138.3570   70.9060  223.4080 C   0  0  1  0  0  0  0  0  0  0  0  0
  138.9940   70.3200  224.6150 C   0  0  0  0  0  0  0  0  0  0  0  0
  138.5440   69.1760  225.2350 C   0  0  0  0  0  0  0  0  0  0  0  0
  139.1470   68.6400  226.3570 C   0  0  0  0  0  0  0  0  0  0  0  0
  140.2470   69.2490  226.9030 C   0  0  0  0  0  0  0  0  0  0  0  0
  141.0710   68.5010  228.4490 Br  0  0  0  0  0  0  0  0  0  0  0  0
  140.7150   70.3940  226.3000 C   0  0  0  0  0  0  0  0  0  0  0  0
  140.1000   70.9340  225.1640 C   0  0  0  0  0  0  0  0  0  0  0  0
  139.9590   77.1630  222.2850 C   0  0  0  0  0  0  0  0  0  0  0  0
  138.8790   77.8910  222.7130 C   0  0  0  0  0  0  0  0  0  0  0  0
  139.0750   79.1690  223.2330 C   0  0  0  0  0  0  0  0  0  0  0  0
  140.3660   79.6710  223.3030 C   0  0  0  0  0  0  0  0  0  0  0  0
  140.6550   80.9240  223.8010 C   0  0  0  0  0  0  0  0  0  0  0  0
  141.9320   81.4330  223.8750 C   0  0  0  0  0  0  0  0  0  0  0  0
  142.9980   80.6540  223.4270 C   0  0  0  0  0  0  0  0  0  0  0  0
  142.7200   79.3990  222.9270 C   0  0  0  0  0  0  0  0  0  0  0  0
  141.4310   78.9140  222.8640 C   0  0  0  0  0  0  0  0  0  0  0  0
  141.2130   77.6940  222.3720 N   0  0  0  0  0  0  0  0  0  0  0  0
  138.2040   75.3760  223.1100 H   0  0  0  0  0  0  0  0  0  0  0  0
  137.5825   73.2616  222.1582 H   0  0  0  0  0  0  0  0  0  0  0  0
  138.5569   73.7089  220.6892 H   0  0  0  0  0  0  0  0  0  0  0  0
  140.4939   70.8985  220.7392 H   0  0  0  0  0  0  0  0  0  0  0  0
  140.7909   69.8772  222.2025 H   0  0  0  0  0  0  0  0  0  0  0  0
  138.3925   69.7473  220.3087 H   0  0  0  0  0  0  0  0  0  0  0  0
  139.6335   68.5018  220.5365 H   0  0  0  0  0  0  0  0  0  0  0  0
  137.6759   67.9161  221.9604 H   0  0  0  0  0  0  0  0  0  0  0  0
  138.9720   68.4225  223.0512 H   0  0  0  0  0  0  0  0  0  0  0  0
  136.9471   70.4005  221.8540 H   0  0  0  0  0  0  0  0  0  0  0  0
  136.6430   69.5745  223.3957 H   0  0  0  0  0  0  0  0  0  0  0  0
  137.7990   71.7726  223.7923 H   0  0  0  0  0  0  0  0  0  0  0  0
  137.6637   68.6650  224.8179 H   0  0  0  0  0  0  0  0  0  0  0  0
  138.7438   67.7235  226.8125 H   0  0  0  0  0  0  0  0  0  0  0  0
  141.5965   70.8989  226.7221 H   0  0  0  0  0  0  0  0  0  0  0  0
  140.5005   71.8513  224.7078 H   0  0  0  0  0  0  0  0  0  0  0  0
  137.8652   77.4694  222.6464 H   0  0  0  0  0  0  0  0  0  0  0  0
  138.2213   79.7687  223.5816 H   0  0  0  0  0  0  0  0  0  0  0  0
  139.8227   81.5487  224.1573 H   0  0  0  0  0  0  0  0  0  0  0  0
  142.1088   82.4397  224.2817 H   0  0  0  0  0  0  0  0  0  0  0  0
  144.0310   81.0295  223.4710 H   0  0  0  0  0  0  0  0  0  0  0  0
  143.5478   78.7690  222.5694 H   0  0  0  0  0  0  0  0  0  0  0  0
  1  2  2  0
  2  3  1  0
  3  4  1  0
  4  5  1  0
  5  6  2  0
  5  7  1  0
  7  8  1  0
  8  9  1  0
  9 10  1  0
 10 11  1  0
 11 12  1  0
 12 13  1  0
 13 14  2  0
 14 15  1  0
 15 16  2  0
 16 17  1  0
 16 18  1  0
 18 19  2  0
  2 20  1  0
 20 21  2  0
 21 22  1  0
 22 23  2  0
 23 24  1  0
 24 25  2  0
 25 26  1  0
 26 27  2  0
 27 28  1  0
 28 29  2  0
 12  7  1  0
 19 13  1  0
 29 20  1  0
 28 23  1  0
  3 30  1  0
  4 31  1  0
  4 32  1  0
  8 33  1  0
  8 34  1  0
  9 35  1  0
  9 36  1  0
 10 37  1  0
 10 38  1  0
 11 39  1  0
 11 40  1  0
 12 41  1  1
 14 42  1  0
 15 43  1  0
 18 44  1  0
 19 45  1  0
 21 46  1  0
 22 47  1  0
 24 48  1  0
 25 49  1  0
 26 50  1  0
 27 51  1  0
M  END
>  <meeko>  (20) 
{"free_energy": -9.31, "intermolecular_energy": -10.8, "internal_energy": -1.21, "cluster_size": 1, "cluster_id": 1, "rank_in_cluster": 1}

$$$$
