
     RDKit          3D

 51 54  0  0  0  0  0  0  0  0999 V2000
  140.0910   71.3270  221.2970 O   0  0  0  0  0  0  0  0  0  0  0  0
  139.9130   71.9440  222.3820 C   0  0  0  0  0  0  0  0  0  0  0  0
  139.6300   73.3480  222.3260 N   0  0  0  0  0  0  0  0  0  0  0  0
  139.5670   73.9660  221.0250 C   0  0  0  0  0  0  0  0  0  0  0  0
  139.9810   75.4020  221.1220 C   0  0  0  0  0  0  0  0  0  0  0  0
  139.3230   76.2680  221.7260 O   0  0  0  0  0  0  0  0  0  0  0  0
  141.1920   75.8160  220.4960 N   0  0  0  0  0  0  0  0  0  0  0  0
  142.2970   74.8700  220.5350 C   0  0  0  0  0  0  0  0  0  0  0  0
  143.3320   75.0990  219.4840 C   0  0  0  0  0  0  0  0  0  0  0  0
  142.6080   75.7650  218.3070 C   0  0  0  0  0  0  0  0  0  0  0  0
  142.3420   77.1920  218.7990 C   0  0  0  0  0  0  0  0  0  0  0  0
  141.2930   77.1160  219.8600 C   0  0  2  0  0  0  0  0  0  0  0  0
  141.5280   78.1910  220.8600 C   0  0  0  0  0  0  0  0  0  0  0  0
  141.8250   79.4890  220.5070 C   0  0  0  0  0  0  0  0  0  0  0  0
  142.0420   80.4870  221.4320 C   0  0  0  0  0  0  0  0  0  0  0  0
  141.9670   80.2030  222.7790 C   0  0  0  0  0  0  0  0  0  0  0  0
  142.2580   81.5440  224.1140 Br  0  0  0  0  0  0  0  0  0  0  0  0
  141.6700   78.9110  223.1750 C   0  0  0  0  0  0  0  0  0  0  0  0
  141.4570   77.9320  222.2300 C   0  0  0  0  0  0  0  0  0  0  0  0
  139.9900   71.2620  223.6660 C   0  0  0  0  0  0  0  0  0  0  0  0
  139.5400   69.9650  223.7540 C   0  0  0  0  0  0  0  0  0  0  0  0
  139.5690   69.2350  224.9200 C   0  0  0  0  0  0  0  0  0  0  0  0
  140.0800   69.8540  226.0380 C   0  0  0  0  0  0  0  0  0  0  0  0
  140.1270   69.1650  227.2190 C   0  0  0  0  0  0  0  0  0  0  0  0
  140.6230   69.7340  228.3520 C   0  0  0  0  0  0  0  0  0  0  0  0
  141.0860   71.0510  228.2820 C   0  0  0  0  0  0  0  0  0  0  0  0
  141.0400   71.7580  227.0850 C   0  0  0  0  0  0  0  0  0  0  0  0
  140.5330   71.1660  225.9390 C   0  0  0  0  0  0  0  0  0  0  0  0
  140.4770   71.8290  224.7680 N   0  0  0  0  0  0  0  0  0  0  0  0
  139.4850   73.8480  223.2290 H   0  0  0  0  0  0  0  0  0  0  0  0
  140.2430   73.4372  220.3369 H   0  0  0  0  0  0  0  0  0  0  0  0
  138.5351   73.9114  220.6478 H   0  0  0  0  0  0  0  0  0  0  0  0
  142.7817   74.9453  221.5196 H   0  0  0  0  0  0  0  0  0  0  0  0
  141.8691   73.8741  220.3475 H   0  0  0  0  0  0  0  0  0  0  0  0
  144.1244   75.7590  219.8668 H   0  0  0  0  0  0  0  0  0  0  0  0
  143.8086   74.1557  219.1790 H   0  0  0  0  0  0  0  0  0  0  0  0
  143.2441   75.7724  217.4096 H   0  0  0  0  0  0  0  0  0  0  0  0
  141.6870   75.2360  218.0208 H   0  0  0  0  0  0  0  0  0  0  0  0
  143.2647   77.6237  219.2141 H   0  0  0  0  0  0  0  0  0  0  0  0
  142.0060   77.8305  217.9687 H   0  0  0  0  0  0  0  0  0  0  0  0
  140.3210   77.2663  219.3673 H   0  0  0  0  0  0  0  0  0  0  0  0
  141.8920   79.7402  219.4382 H   0  0  0  0  0  0  0  0  0  0  0  0
  142.2747   81.5084  221.0963 H   0  0  0  0  0  0  0  0  0  0  0  0
  141.6040   78.6656  224.2452 H   0  0  0  0  0  0  0  0  0  0  0  0
  141.2229   76.9111  222.5662 H   0  0  0  0  0  0  0  0  0  0  0  0
  139.1374   69.4883  222.8481 H   0  0  0  0  0  0  0  0  0  0  0  0
  139.1991   68.1997  224.9570 H   0  0  0  0  0  0  0  0  0  0  0  0
  139.7564   68.1299  227.2538 H   0  0  0  0  0  0  0  0  0  0  0  0
  140.6584   69.1724  229.2972 H   0  0  0  0  0  0  0  0  0  0  0  0
  141.4913   71.5337  229.1835 H   0  0  0  0  0  0  0  0  0  0  0  0
  141.4084   72.7938  227.0477 H   0  0  0  0  0  0  0  0  0  0  0  0
  1  2  2  0
  2  3  1  0
  3  4  1  0
  4  5  1  0
  5  6  2  0
  5  7  1  0
  7  8  1  0
  8  9  1  0
  9 10  1  0
 10 11  1  0
 11 12  1  0
 12 13  1  0
 13 14  2  0
 14 15  1  0
 15 16  2  0
 16 17  1  0
 16 18  1  0
 18 19  2  0
  2 20  1  0
 20 21  2  0
 21 22  1  0
 22 23  2  0
 23 24  1  0
 24 25  2  0
 25 26  1  0
 26 27  2  0
 27 28  1  0
 28 29  2  0
 12  7  1  0
 19 13  1  0
 29 20  1  0
 28 23  1  0
  3 30  1  0
  4 31  1  0
  4 32  1  0
  8 33  1  0
  8 34  1  0
  9 35  1  0
  9 36  1  0
 10 37  1  0
 10 38  1  0
 11 39  1  0
 11 40  1  0
 12 41  1  6
 14 42  1  0
 15 43  1  0
 18 44  1  0
 19 45  1  0
 21 46  1  0
 22 47  1  0
 24 48  1  0
 25 49  1  0
 26 50  1  0
 27 51  1  0
M  END
>  <meeko>  (1) 
{"free_energy": -9.4, "intermolecular_energy": -10.89, "internal_energy": -1.41, "cluster_size": 14, "cluster_id": 1, "rank_in_cluster": 5}

$$$$

     RDKit          3D

 51 54  0  0  0  0  0  0  0  0999 V2000
  139.1750   71.1380  221.3800 O   0  0  0  0  0  0  0  0  0  0  0  0
  139.4070   71.8350  222.4040 C   0  0  0  0  0  0  0  0  0  0  0  0
  139.3860   73.2620  222.2750 N   0  0  0  0  0  0  0  0  0  0  0  0
  139.0980   73.8110  220.9740 C   0  0  0  0  0  0  0  0  0  0  0  0
  140.1490   73.3840  219.9960 C   0  0  0  0  0  0  0  0  0  0  0  0
  139.9030   72.7460  218.9570 O   0  0  0  0  0  0  0  0  0  0  0  0
  141.5090   73.7180  220.2550 N   0  0  0  0  0  0  0  0  0  0  0  0
  142.2830   72.7420  221.0090 C   0  0  0  0  0  0  0  0  0  0  0  0
  143.7590   72.8670  220.8330 C   0  0  0  0  0  0  0  0  0  0  0  0
  143.9750   73.4760  219.4410 C   0  0  0  0  0  0  0  0  0  0  0  0
  143.5560   74.9400  219.6100 C   0  0  0  0  0  0  0  0  0  0  0  0
  142.0720   74.9680  219.7810 C   0  0  2  0  0  0  0  0  0  0  0  0
  141.7020   76.1000  220.6710 C   0  0  0  0  0  0  0  0  0  0  0  0
  141.0730   75.9230  221.8840 C   0  0  0  0  0  0  0  0  0  0  0  0
  140.7290   76.9690  222.7100 C   0  0  0  0  0  0  0  0  0  0  0  0
  141.0140   78.2650  222.3330 C   0  0  0  0  0  0  0  0  0  0  0  0
  140.5620   79.7630  223.4360 Br  0  0  0  0  0  0  0  0  0  0  0  0
  141.6460   78.4860  221.1220 C   0  0  0  0  0  0  0  0  0  0  0  0
  141.9790   77.4210  220.3150 C   0  0  0  0  0  0  0  0  0  0  0  0
  139.6930   71.2190  223.6930 C   0  0  0  0  0  0  0  0  0  0  0  0
  139.4110   69.8830  223.8650 C   0  0  0  0  0  0  0  0  0  0  0  0
  139.6420   69.2100  225.0420 C   0  0  0  0  0  0  0  0  0  0  0  0
  140.1850   69.9290  226.0820 C   0  0  0  0  0  0  0  0  0  0  0  0
  140.4320   69.2990  227.2710 C   0  0  0  0  0  0  0  0  0  0  0  0
  140.9670   69.9670  228.3300 C   0  0  0  0  0  0  0  0  0  0  0  0
  141.2610   71.3250  228.1740 C   0  0  0  0  0  0  0  0  0  0  0  0
  141.0120   71.9720  226.9690 C   0  0  0  0  0  0  0  0  0  0  0  0
  140.4670   71.2790  225.8990 C   0  0  0  0  0  0  0  0  0  0  0  0
  140.2170   71.8830  224.7210 N   0  0  0  0  0  0  0  0  0  0  0  0
  139.5810   73.8280  223.1290 H   0  0  0  0  0  0  0  0  0  0  0  0
  138.1160   73.4496  220.6349 H   0  0  0  0  0  0  0  0  0  0  0  0
  139.0883   74.9091  221.0385 H   0  0  0  0  0  0  0  0  0  0  0  0
  142.0507   72.8675  222.0768 H   0  0  0  0  0  0  0  0  0  0  0  0
  142.0011   71.7500  220.6263 H   0  0  0  0  0  0  0  0  0  0  0  0
  144.1807   73.5254  221.6067 H   0  0  0  0  0  0  0  0  0  0  0  0
  144.2574   71.8907  220.9247 H   0  0  0  0  0  0  0  0  0  0  0  0
  145.0310   73.4032  219.1416 H   0  0  0  0  0  0  0  0  0  0  0  0
  143.4015   72.9584  218.6579 H   0  0  0  0  0  0  0  0  0  0  0  0
  144.0440   75.3699  220.4972 H   0  0  0  0  0  0  0  0  0  0  0  0
  143.8550   75.5314  218.7320 H   0  0  0  0  0  0  0  0  0  0  0  0
  141.6335   75.1146  218.7829 H   0  0  0  0  0  0  0  0  0  0  0  0
  140.8348   74.8989  222.2071 H   0  0  0  0  0  0  0  0  0  0  0  0
  140.2277   76.7718  223.6691 H   0  0  0  0  0  0  0  0  0  0  0  0
  141.8823   79.5122  220.8040 H   0  0  0  0  0  0  0  0  0  0  0  0
  142.4809   77.6182  219.3562 H   0  0  0  0  0  0  0  0  0  0  0  0
  138.9798   69.3263  223.0199 H   0  0  0  0  0  0  0  0  0  0  0  0
  139.4027   68.1416  225.1476 H   0  0  0  0  0  0  0  0  0  0  0  0
  140.1933   68.2301  227.3736 H   0  0  0  0  0  0  0  0  0  0  0  0
  141.1626   69.4523  229.2823 H   0  0  0  0  0  0  0  0  0  0  0  0
  141.6942   71.8877  229.0141 H   0  0  0  0  0  0  0  0  0  0  0  0
  141.2490   73.0410  226.8638 H   0  0  0  0  0  0  0  0  0  0  0  0
  1  2  2  0
  2  3  1  0
  3  4  1  0
  4  5  1  0
  5  6  2  0
  5  7  1  0
  7  8  1  0
  8  9  1  0
  9 10  1  0
 10 11  1  0
 11 12  1  0
 12 13  1  0
 13 14  2  0
 14 15  1  0
 15 16  2  0
 16 17  1  0
 16 18  1  0
 18 19  2  0
  2 20  1  0
 20 21  2  0
 21 22  1  0
 22 23  2  0
 23 24  1  0
 24 25  2  0
 25 26  1  0
 26 27  2  0
 27 28  1  0
 28 29  2  0
 12  7  1  0
 19 13  1  0
 29 20  1  0
 28 23  1  0
  3 30  1  0
  4 31  1  0
  4 32  1  0
  8 33  1  0
  8 34  1  0
  9 35  1  0
  9 36  1  0
 10 37  1  0
 10 38  1  0
 11 39  1  0
 11 40  1  0
 12 41  1  6
 14 42  1  0
 15 43  1  0
 18 44  1  0
 19 45  1  0
 21 46  1  0
 22 47  1  0
 24 48  1  0
 25 49  1  0
 26 50  1  0
 27 51  1  0
M  END
>  <meeko>  (2) 
{"free_energy": -8.73, "intermolecular_energy": -10.22, "internal_energy": -1.79, "cluster_size": 14, "cluster_id": 1, "rank_in_cluster": 10}

$$$$

     RDKit          3D

 51 54  0  0  0  0  0  0  0  0999 V2000
  139.3590   71.1050  221.2900 O   0  0  0  0  0  0  0  0  0  0  0  0
  139.5210   71.8230  222.3140 C   0  0  0  0  0  0  0  0  0  0  0  0
  139.4610   73.2470  222.1630 N   0  0  0  0  0  0  0  0  0  0  0  0
  139.2170   73.7680  220.8410 C   0  0  0  0  0  0  0  0  0  0  0  0
  140.3240   73.3600  219.9200 C   0  0  0  0  0  0  0  0  0  0  0  0
  140.1490   72.6820  218.8910 O   0  0  0  0  0  0  0  0  0  0  0  0
  141.6580   73.7590  220.2220 N   0  0  0  0  0  0  0  0  0  0  0  0
  142.4590   72.8130  220.9860 C   0  0  0  0  0  0  0  0  0  0  0  0
  143.9320   73.0170  220.8540 C   0  0  0  0  0  0  0  0  0  0  0  0
  144.1550   73.6560  219.4770 C   0  0  0  0  0  0  0  0  0  0  0  0
  143.6560   75.0940  219.6540 C   0  0  0  0  0  0  0  0  0  0  0  0
  142.1690   75.0440  219.7820 C   0  0  2  0  0  0  0  0  0  0  0  0
  141.7150   76.1410  220.6760 C   0  0  0  0  0  0  0  0  0  0  0  0
  141.1010   75.9130  221.8880 C   0  0  0  0  0  0  0  0  0  0  0  0
  140.6800   76.9280  222.7180 C   0  0  0  0  0  0  0  0  0  0  0  0
  140.8670   78.2430  222.3460 C   0  0  0  0  0  0  0  0  0  0  0  0
  140.3050   79.6990  223.4540 Br  0  0  0  0  0  0  0  0  0  0  0  0
  141.4820   78.5150  221.1360 C   0  0  0  0  0  0  0  0  0  0  0  0
  141.8930   77.4810  220.3250 C   0  0  0  0  0  0  0  0  0  0  0  0
  139.7650   71.2330  223.6240 C   0  0  0  0  0  0  0  0  0  0  0  0
  139.4350   69.9130  223.8270 C   0  0  0  0  0  0  0  0  0  0  0  0
  139.6250   69.2660  225.0260 C   0  0  0  0  0  0  0  0  0  0  0  0
  140.1740   69.9950  226.0560 C   0  0  0  0  0  0  0  0  0  0  0  0
  140.3800   69.3910  227.2650 C   0  0  0  0  0  0  0  0  0  0  0  0
  140.9190   70.0690  228.3150 C   0  0  0  0  0  0  0  0  0  0  0  0
  141.2600   71.4120  228.1270 C   0  0  0  0  0  0  0  0  0  0  0  0
  141.0530   72.0340  226.9010 C   0  0  0  0  0  0  0  0  0  0  0  0
  140.5030   71.3300  225.8410 C   0  0  0  0  0  0  0  0  0  0  0  0
  140.2930   71.9090  224.6430 N   0  0  0  0  0  0  0  0  0  0  0  0
  139.5960   73.8290  223.0160 H   0  0  0  0  0  0  0  0  0  0  0  0
  138.2632   73.3713  220.4630 H   0  0  0  0  0  0  0  0  0  0  0  0
  139.1709   74.8660  220.8874 H   0  0  0  0  0  0  0  0  0  0  0  0
  142.1903   72.9112  222.0481 H   0  0  0  0  0  0  0  0  0  0  0  0
  142.2395   71.8131  220.5835 H   0  0  0  0  0  0  0  0  0  0  0  0
  144.2969   73.6853  221.6479 H   0  0  0  0  0  0  0  0  0  0  0  0
  144.4779   72.0666  220.9475 H   0  0  0  0  0  0  0  0  0  0  0  0
  145.2212   73.6420  219.2069 H   0  0  0  0  0  0  0  0  0  0  0  0
  143.6315   73.1211  218.6709 H   0  0  0  0  0  0  0  0  0  0  0  0
  144.0958   75.5346  220.5609 H   0  0  0  0  0  0  0  0  0  0  0  0
  143.9488   75.7130  218.7931 H   0  0  0  0  0  0  0  0  0  0  0  0
  141.7527   75.1842  218.7735 H   0  0  0  0  0  0  0  0  0  0  0  0
  140.9397   74.8728  222.2073 H   0  0  0  0  0  0  0  0  0  0  0  0
  140.1952   76.6904  223.6764 H   0  0  0  0  0  0  0  0  0  0  0  0
  141.6423   79.5571  220.8225 H   0  0  0  0  0  0  0  0  0  0  0  0
  142.3786   77.7187  219.3670 H   0  0  0  0  0  0  0  0  0  0  0  0
  138.9983   69.3478  222.9904 H   0  0  0  0  0  0  0  0  0  0  0  0
  139.3494   68.2091  225.1561 H   0  0  0  0  0  0  0  0  0  0  0  0
  140.1041   68.3338  227.3920 H   0  0  0  0  0  0  0  0  0  0  0  0
  141.0817   69.5744  229.2840 H   0  0  0  0  0  0  0  0  0  0  0  0
  141.6973   71.9832  228.9592 H   0  0  0  0  0  0  0  0  0  0  0  0
  141.3273   73.0913  226.7713 H   0  0  0  0  0  0  0  0  0  0  0  0
  1  2  2  0
  2  3  1  0
  3  4  1  0
  4  5  1  0
  5  6  2  0
  5  7  1  0
  7  8  1  0
  8  9  1  0
  9 10  1  0
 10 11  1  0
 11 12  1  0
 12 13  1  0
 13 14  2  0
 14 15  1  0
 15 16  2  0
 16 17  1  0
 16 18  1  0
 18 19  2  0
  2 20  1  0
 20 21  2  0
 21 22  1  0
 22 23  2  0
 23 24  1  0
 24 25  2  0
 25 26  1  0
 26 27  2  0
 27 28  1  0
 28 29  2  0
 12  7  1  0
 19 13  1  0
 29 20  1  0
 28 23  1  0
  3 30  1  0
  4 31  1  0
  4 32  1  0
  8 33  1  0
  8 34  1  0
  9 35  1  0
  9 36  1  0
 10 37  1  0
 10 38  1  0
 11 39  1  0
 11 40  1  0
 12 41  1  6
 14 42  1  0
 15 43  1  0
 18 44  1  0
 19 45  1  0
 21 46  1  0
 22 47  1  0
 24 48  1  0
 25 49  1  0
 26 50  1  0
 27 51  1  0
M  END
>  <meeko>  (3) 
{"free_energy": -8.69, "intermolecular_energy": -10.18, "internal_energy": -1.8, "cluster_size": 14, "cluster_id": 1, "rank_in_cluster": 12}

$$$$

     RDKit          3D

 51 54  0  0  0  0  0  0  0  0999 V2000
  141.3500   72.1710  221.7240 O   0  0  0  0  0  0  0  0  0  0  0  0
  140.3630   72.3130  222.4950 C   0  0  0  0  0  0  0  0  0  0  0  0
  139.3750   73.2950  222.1600 N   0  0  0  0  0  0  0  0  0  0  0  0
  139.5750   74.0600  220.9550 C   0  0  0  0  0  0  0  0  0  0  0  0
  140.6220   75.1070  221.1840 C   0  0  0  0  0  0  0  0  0  0  0  0
  140.9100   75.5570  222.3070 O   0  0  0  0  0  0  0  0  0  0  0  0
  141.3360   75.6270  220.0660 N   0  0  0  0  0  0  0  0  0  0  0  0
  140.5370   76.0300  218.9180 C   0  0  0  0  0  0  0  0  0  0  0  0
  141.2190   76.9980  218.0110 C   0  0  0  0  0  0  0  0  0  0  0  0
  142.2080   77.7810  218.8850 C   0  0  0  0  0  0  0  0  0  0  0  0
  143.3280   76.7750  219.1660 C   0  0  0  0  0  0  0  0  0  0  0  0
  142.7820   75.7390  220.0940 C   0  0  2  0  0  0  0  0  0  0  0  0
  143.4320   74.4320  219.8080 C   0  0  0  0  0  0  0  0  0  0  0  0
  142.8960   73.5040  218.9420 C   0  0  0  0  0  0  0  0  0  0  0  0
  143.4960   72.2940  218.6760 C   0  0  0  0  0  0  0  0  0  0  0  0
  144.6870   71.9670  219.2900 C   0  0  0  0  0  0  0  0  0  0  0  0
  145.5710   70.3010  218.9620 Br  0  0  0  0  0  0  0  0  0  0  0  0
  145.2590   72.8730  220.1660 C   0  0  0  0  0  0  0  0  0  0  0  0
  144.6380   74.0770  220.4140 C   0  0  0  0  0  0  0  0  0  0  0  0
  140.2190   71.5080  223.7000 C   0  0  0  0  0  0  0  0  0  0  0  0
  139.5530   70.3060  223.6170 C   0  0  0  0  0  0  0  0  0  0  0  0
  139.3630   69.4750  224.6960 C   0  0  0  0  0  0  0  0  0  0  0  0
  139.8750   69.8860  225.9060 C   0  0  0  0  0  0  0  0  0  0  0  0
  139.7080   69.0890  227.0060 C   0  0  0  0  0  0  0  0  0  0  0  0
  140.1950   69.4520  228.2250 C   0  0  0  0  0  0  0  0  0  0  0  0
  140.8740   70.6690  228.3280 C   0  0  0  0  0  0  0  0  0  0  0  0
  141.0470   71.4850  227.2150 C   0  0  0  0  0  0  0  0  0  0  0  0
  140.5460   71.1020  225.9810 C   0  0  0  0  0  0  0  0  0  0  0  0
  140.6990   71.8740  224.8870 N   0  0  0  0  0  0  0  0  0  0  0  0
  138.5640   73.4040  222.8050 H   0  0  0  0  0  0  0  0  0  0  0  0
  139.9009   73.3889  220.1467 H   0  0  0  0  0  0  0  0  0  0  0  0
  138.6299   74.5480  220.6746 H   0  0  0  0  0  0  0  0  0  0  0  0
  140.2876   75.1295  218.3375 H   0  0  0  0  0  0  0  0  0  0  0  0
  139.6467   76.5400  219.3145 H   0  0  0  0  0  0  0  0  0  0  0  0
  141.7559   76.4613  217.2150 H   0  0  0  0  0  0  0  0  0  0  0  0
  140.4957   77.6692  217.5248 H   0  0  0  0  0  0  0  0  0  0  0  0
  142.5960   78.6584  218.3469 H   0  0  0  0  0  0  0  0  0  0  0  0
  141.7460   78.1692  219.8047 H   0  0  0  0  0  0  0  0  0  0  0  0
  143.6531   76.3035  218.2268 H   0  0  0  0  0  0  0  0  0  0  0  0
  144.1958   77.2788  219.6168 H   0  0  0  0  0  0  0  0  0  0  0  0
  143.0211   76.0619  221.1180 H   0  0  0  0  0  0  0  0  0  0  0  0
  141.9459   73.7407  218.4407 H   0  0  0  0  0  0  0  0  0  0  0  0
  143.0262   71.5887  217.9746 H   0  0  0  0  0  0  0  0  0  0  0  0
  146.2095   72.6315  220.6641 H   0  0  0  0  0  0  0  0  0  0  0  0
  145.1088   74.7831  221.1138 H   0  0  0  0  0  0  0  0  0  0  0  0
  139.1535   69.9953  222.6403 H   0  0  0  0  0  0  0  0  0  0  0  0
  138.8242   68.5212  224.5964 H   0  0  0  0  0  0  0  0  0  0  0  0
  139.1693   68.1355  226.9034 H   0  0  0  0  0  0  0  0  0  0  0  0
  140.0577   68.8052  229.1041 H   0  0  0  0  0  0  0  0  0  0  0  0
  141.2767   70.9856  229.3015 H   0  0  0  0  0  0  0  0  0  0  0  0
  141.5844   72.4396  227.3148 H   0  0  0  0  0  0  0  0  0  0  0  0
  1  2  2  0
  2  3  1  0
  3  4  1  0
  4  5  1  0
  5  6  2  0
  5  7  1  0
  7  8  1  0
  8  9  1  0
  9 10  1  0
 10 11  1  0
 11 12  1  0
 12 13  1  0
 13 14  2  0
 14 15  1  0
 15 16  2  0
 16 17  1  0
 16 18  1  0
 18 19  2  0
  2 20  1  0
 20 21  2  0
 21 22  1  0
 22 23  2  0
 23 24  1  0
 24 25  2  0
 25 26  1  0
 26 27  2  0
 27 28  1  0
 28 29  2  0
 12  7  1  0
 19 13  1  0
 29 20  1  0
 28 23  1  0
  3 30  1  0
  4 31  1  0
  4 32  1  0
  8 33  1  0
  8 34  1  0
  9 35  1  0
  9 36  1  0
 10 37  1  0
 10 38  1  0
 11 39  1  0
 11 40  1  0
 12 41  1  1
 14 42  1  0
 15 43  1  0
 18 44  1  0
 19 45  1  0
 21 46  1  0
 22 47  1  0
 24 48  1  0
 25 49  1  0
 26 50  1  0
 27 51  1  0
M  END
>  <meeko>  (4) 
{"free_energy": -8.84, "intermolecular_energy": -10.33, "internal_energy": -1.77, "cluster_size": 4, "cluster_id": 2, "rank_in_cluster": 2}

$$$$

     RDKit          3D

 51 54  0  0  0  0  0  0  0  0999 V2000
  138.2640   70.8520  221.8370 O   0  0  0  0  0  0  0  0  0  0  0  0
  138.9450   71.3210  222.7890 C   0  0  0  0  0  0  0  0  0  0  0  0
  139.4070   72.6750  222.6910 N   0  0  0  0  0  0  0  0  0  0  0  0
  139.0580   73.4150  221.5040 C   0  0  0  0  0  0  0  0  0  0  0  0
  139.9340   74.6240  221.3830 C   0  0  0  0  0  0  0  0  0  0  0  0
  141.0170   74.7520  221.9820 O   0  0  0  0  0  0  0  0  0  0  0  0
  139.5210   75.6960  220.5400 N   0  0  0  0  0  0  0  0  0  0  0  0
  139.8920   75.5950  219.1360 C   0  0  0  0  0  0  0  0  0  0  0  0
  139.0530   76.4240  218.2230 C   0  0  0  0  0  0  0  0  0  0  0  0
  137.6840   76.5600  218.9030 C   0  0  0  0  0  0  0  0  0  0  0  0
  137.9420   77.5320  220.0590 C   0  0  0  0  0  0  0  0  0  0  0  0
  138.7710   76.8170  221.0750 C   0  0  2  0  0  0  0  0  0  0  0  0
  139.6660   77.7920  221.7530 C   0  0  0  0  0  0  0  0  0  0  0  0
  139.2560   78.5720  222.8110 C   0  0  0  0  0  0  0  0  0  0  0  0
  140.0830   79.4760  223.4410 C   0  0  0  0  0  0  0  0  0  0  0  0
  141.3860   79.6280  223.0150 C   0  0  0  0  0  0  0  0  0  0  0  0
  142.5850   80.8660  223.8480 Br  0  0  0  0  0  0  0  0  0  0  0  0
  141.8370   78.8610  221.9550 C   0  0  0  0  0  0  0  0  0  0  0  0
  140.9890   77.9650  221.3430 C   0  0  0  0  0  0  0  0  0  0  0  0
  139.2640   70.5200  223.9630 C   0  0  0  0  0  0  0  0  0  0  0  0
  138.9480   69.1810  223.9550 C   0  0  0  0  0  0  0  0  0  0  0  0
  139.2070   68.3410  225.0130 C   0  0  0  0  0  0  0  0  0  0  0  0
  139.8140   68.8900  226.1200 C   0  0  0  0  0  0  0  0  0  0  0  0
  140.0890   68.0900  227.1950 C   0  0  0  0  0  0  0  0  0  0  0  0
  140.6870   68.5860  228.3130 C   0  0  0  0  0  0  0  0  0  0  0  0
  141.0160   69.9450  228.3390 C   0  0  0  0  0  0  0  0  0  0  0  0
  140.7380   70.7640  227.2500 C   0  0  0  0  0  0  0  0  0  0  0  0
  140.1290   70.2450  226.1180 C   0  0  0  0  0  0  0  0  0  0  0  0
  139.8490   71.0180  225.0500 N   0  0  0  0  0  0  0  0  0  0  0  0
  139.9700   73.0520  223.4830 H   0  0  0  0  0  0  0  0  0  0  0  0
  139.1961   72.7743  220.6206 H   0  0  0  0  0  0  0  0  0  0  0  0
  138.0072   73.7335  221.5708 H   0  0  0  0  0  0  0  0  0  0  0  0
  140.9385   75.9173  219.0312 H   0  0  0  0  0  0  0  0  0  0  0  0
  139.7389   74.5461  218.8422 H   0  0  0  0  0  0  0  0  0  0  0  0
  139.5085   77.4152  218.0818 H   0  0  0  0  0  0  0  0  0  0  0  0
  138.9624   75.9592  217.2302 H   0  0  0  0  0  0  0  0  0  0  0  0
  136.9394   76.9706  218.2052 H   0  0  0  0  0  0  0  0  0  0  0  0
  137.2810   75.5944  219.2424 H   0  0  0  0  0  0  0  0  0  0  0  0
  138.4811   78.4174  219.6911 H   0  0  0  0  0  0  0  0  0  0  0  0
  136.9920   77.8659  220.5018 H   0  0  0  0  0  0  0  0  0  0  0  0
  138.0779   76.3721  221.8042 H   0  0  0  0  0  0  0  0  0  0  0  0
  138.2212   78.4687  223.1695 H   0  0  0  0  0  0  0  0  0  0  0  0
  139.7048   80.0755  224.2822 H   0  0  0  0  0  0  0  0  0  0  0  0
  142.8731   78.9671  221.6012 H   0  0  0  0  0  0  0  0  0  0  0  0
  141.3672   77.3650  220.5022 H   0  0  0  0  0  0  0  0  0  0  0  0
  138.4652   68.7622  223.0598 H   0  0  0  0  0  0  0  0  0  0  0  0
  138.9401   67.2745  224.9761 H   0  0  0  0  0  0  0  0  0  0  0  0
  139.8214   67.0238  227.1553 H   0  0  0  0  0  0  0  0  0  0  0  0
  140.9055   67.9354  229.1726 H   0  0  0  0  0  0  0  0  0  0  0  0
  141.4999   70.3707  229.2304 H   0  0  0  0  0  0  0  0  0  0  0  0
  141.0032   71.8309  227.2871 H   0  0  0  0  0  0  0  0  0  0  0  0
  1  2  2  0
  2  3  1  0
  3  4  1  0
  4  5  1  0
  5  6  2  0
  5  7  1  0
  7  8  1  0
  8  9  1  0
  9 10  1  0
 10 11  1  0
 11 12  1  0
 12 13  1  0
 13 14  2  0
 14 15  1  0
 15 16  2  0
 16 17  1  0
 16 18  1  0
 18 19  2  0
  2 20  1  0
 20 21  2  0
 21 22  1  0
 22 23  2  0
 23 24  1  0
 24 25  2  0
 25 26  1  0
 26 27  2  0
 27 28  1  0
 28 29  2  0
 12  7  1  0
 19 13  1  0
 29 20  1  0
 28 23  1  0
  3 30  1  0
  4 31  1  0
  4 32  1  0
  8 33  1  0
  8 34  1  0
  9 35  1  0
  9 36  1  0
 10 37  1  0
 10 38  1  0
 11 39  1  0
 11 40  1  0
 12 41  1  1
 14 42  1  0
 15 43  1  0
 18 44  1  0
 19 45  1  0
 21 46  1  0
 22 47  1  0
 24 48  1  0
 25 49  1  0
 26 50  1  0
 27 51  1  0
M  END
>  <meeko>  (5) 
{"free_energy": -8.55, "intermolecular_energy": -10.04, "internal_energy": -1.78, "cluster_size": 14, "cluster_id": 1, "rank_in_cluster": 14}

$$$$

     RDKit          3D

 51 54  0  0  0  0  0  0  0  0999 V2000
  139.9730   71.3000  221.2340 O   0  0  0  0  0  0  0  0  0  0  0  0
  139.6290   71.8840  222.2970 C   0  0  0  0  0  0  0  0  0  0  0  0
  139.0560   73.1940  222.1990 N   0  0  0  0  0  0  0  0  0  0  0  0
  138.9090   73.7620  220.8820 C   0  0  0  0  0  0  0  0  0  0  0  0
  139.5020   75.1370  220.8510 C   0  0  0  0  0  0  0  0  0  0  0  0
  138.8370   76.1760  221.0160 O   0  0  0  0  0  0  0  0  0  0  0  0
  140.9000   75.2830  220.6210 N   0  0  0  0  0  0  0  0  0  0  0  0
  141.7520   74.2120  221.1180 C   0  0  0  0  0  0  0  0  0  0  0  0
  143.0850   74.1350  220.4510 C   0  0  0  0  0  0  0  0  0  0  0  0
  142.8910   74.7060  219.0400 C   0  0  0  0  0  0  0  0  0  0  0  0
  142.7440   76.2140  219.2700 C   0  0  0  0  0  0  0  0  0  0  0  0
  141.4230   76.4440  219.9270 C   0  0  2  0  0  0  0  0  0  0  0  0
  141.5240   77.6170  220.8350 C   0  0  0  0  0  0  0  0  0  0  0  0
  141.8260   78.8850  220.3880 C   0  0  0  0  0  0  0  0  0  0  0  0
  141.9190   79.9730  221.2280 C   0  0  0  0  0  0  0  0  0  0  0  0
  141.7060   79.8170  222.5820 C   0  0  0  0  0  0  0  0  0  0  0  0
  141.8210   81.2890  223.8000 Br  0  0  0  0  0  0  0  0  0  0  0  0
  141.3990   78.5600  223.0700 C   0  0  0  0  0  0  0  0  0  0  0  0
  141.3120   77.4890  222.2090 C   0  0  0  0  0  0  0  0  0  0  0  0
  139.8040   71.2550  223.5990 C   0  0  0  0  0  0  0  0  0  0  0  0
  139.4460   69.9360  223.7500 C   0  0  0  0  0  0  0  0  0  0  0  0
  139.5710   69.2530  224.9380 C   0  0  0  0  0  0  0  0  0  0  0  0
  140.0840   69.9450  226.0110 C   0  0  0  0  0  0  0  0  0  0  0  0
  140.2260   69.3040  227.2120 C   0  0  0  0  0  0  0  0  0  0  0  0
  140.7280   69.9450  228.3030 C   0  0  0  0  0  0  0  0  0  0  0  0
  141.0980   71.2870  228.1680 C   0  0  0  0  0  0  0  0  0  0  0  0
  140.9560   71.9450  226.9510 C   0  0  0  0  0  0  0  0  0  0  0  0
  140.4440   71.2790  225.8490 C   0  0  0  0  0  0  0  0  0  0  0  0
  140.2960   71.8940  224.6590 N   0  0  0  0  0  0  0  0  0  0  0  0
  138.7760   73.6670  223.0840 H   0  0  0  0  0  0  0  0  0  0  0  0
  139.4269   73.1248  220.1501 H   0  0  0  0  0  0  0  0  0  0  0  0
  137.8397   73.8229  220.6311 H   0  0  0  0  0  0  0  0  0  0  0  0
  141.9130   74.3699  222.1946 H   0  0  0  0  0  0  0  0  0  0  0  0
  141.2331   73.2668  220.9004 H   0  0  0  0  0  0  0  0  0  0  0  0
  143.8240   74.7318  221.0057 H   0  0  0  0  0  0  0  0  0  0  0  0
  143.4573   73.1005  220.4172 H   0  0  0  0  0  0  0  0  0  0  0  0
  143.7642   74.4899  218.4068 H   0  0  0  0  0  0  0  0  0  0  0  0
  142.0250   74.2695  218.5209 H   0  0  0  0  0  0  0  0  0  0  0  0
  143.5543   76.5749  219.9205 H   0  0  0  0  0  0  0  0  0  0  0  0
  142.8005   76.7576  218.3154 H   0  0  0  0  0  0  0  0  0  0  0  0
  140.6947   76.6478  219.1282 H   0  0  0  0  0  0  0  0  0  0  0  0
  142.0006   79.0352  219.3124 H   0  0  0  0  0  0  0  0  0  0  0  0
  142.1628   80.9648  220.8195 H   0  0  0  0  0  0  0  0  0  0  0  0
  141.2243   78.4157  224.1464 H   0  0  0  0  0  0  0  0  0  0  0  0
  141.0668   76.4978  222.6181 H   0  0  0  0  0  0  0  0  0  0  0  0
  139.0400   69.4009  222.8789 H   0  0  0  0  0  0  0  0  0  0  0  0
  139.2732   68.1978  225.0262 H   0  0  0  0  0  0  0  0  0  0  0  0
  139.9282   68.2485  227.2974 H   0  0  0  0  0  0  0  0  0  0  0  0
  140.8395   69.4219  229.2642 H   0  0  0  0  0  0  0  0  0  0  0  0
  141.5060   71.8283  229.0343 H   0  0  0  0  0  0  0  0  0  0  0  0
  141.2520   73.0007  226.8627 H   0  0  0  0  0  0  0  0  0  0  0  0
  1  2  2  0
  2  3  1  0
  3  4  1  0
  4  5  1  0
  5  6  2  0
  5  7  1  0
  7  8  1  0
  8  9  1  0
  9 10  1  0
 10 11  1  0
 11 12  1  0
 12 13  1  0
 13 14  2  0
 14 15  1  0
 15 16  2  0
 16 17  1  0
 16 18  1  0
 18 19  2  0
  2 20  1  0
 20 21  2  0
 21 22  1  0
 22 23  2  0
 23 24  1  0
 24 25  2  0
 25 26  1  0
 26 27  2  0
 27 28  1  0
 28 29  2  0
 12  7  1  0
 19 13  1  0
 29 20  1  0
 28 23  1  0
  3 30  1  0
  4 31  1  0
  4 32  1  0
  8 33  1  0
  8 34  1  0
  9 35  1  0
  9 36  1  0
 10 37  1  0
 10 38  1  0
 11 39  1  0
 11 40  1  0
 12 41  1  6
 14 42  1  0
 15 43  1  0
 18 44  1  0
 19 45  1  0
 21 46  1  0
 22 47  1  0
 24 48  1  0
 25 49  1  0
 26 50  1  0
 27 51  1  0
M  END
>  <meeko>  (6) 
{"free_energy": -9.21, "intermolecular_energy": -10.7, "internal_energy": -1.6, "cluster_size": 14, "cluster_id": 1, "rank_in_cluster": 6}

$$$$

     RDKit          3D

 51 54  0  0  0  0  0  0  0  0999 V2000
  141.3300   72.2020  221.7120 O   0  0  0  0  0  0  0  0  0  0  0  0
  140.3530   72.3380  222.4970 C   0  0  0  0  0  0  0  0  0  0  0  0
  139.3650   73.3290  222.1880 N   0  0  0  0  0  0  0  0  0  0  0  0
  139.5540   74.1100  220.9910 C   0  0  0  0  0  0  0  0  0  0  0  0
  140.6620   75.0960  221.1950 C   0  0  0  0  0  0  0  0  0  0  0  0
  141.0180   75.5080  222.3140 O   0  0  0  0  0  0  0  0  0  0  0  0
  141.3580   75.6000  220.0590 N   0  0  0  0  0  0  0  0  0  0  0  0
  140.5400   75.9830  218.9170 C   0  0  0  0  0  0  0  0  0  0  0  0
  141.2060   76.9380  217.9840 C   0  0  0  0  0  0  0  0  0  0  0  0
  142.2060   77.7370  218.8300 C   0  0  0  0  0  0  0  0  0  0  0  0
  143.3330   76.7380  219.1110 C   0  0  0  0  0  0  0  0  0  0  0  0
  142.8040   75.7160  220.0630 C   0  0  2  0  0  0  0  0  0  0  0  0
  143.4530   74.4070  219.7890 C   0  0  0  0  0  0  0  0  0  0  0  0
  142.9210   73.4760  218.9240 C   0  0  0  0  0  0  0  0  0  0  0  0
  143.5210   72.2620  218.6680 C   0  0  0  0  0  0  0  0  0  0  0  0
  144.7070   71.9360  219.2920 C   0  0  0  0  0  0  0  0  0  0  0  0
  145.5900   70.2670  218.9790 Br  0  0  0  0  0  0  0  0  0  0  0  0
  145.2740   72.8450  220.1670 C   0  0  0  0  0  0  0  0  0  0  0  0
  144.6550   74.0520  220.4050 C   0  0  0  0  0  0  0  0  0  0  0  0
  140.2200   71.5160  223.6920 C   0  0  0  0  0  0  0  0  0  0  0  0
  139.5830   70.3010  223.5920 C   0  0  0  0  0  0  0  0  0  0  0  0
  139.4050   69.4540  224.6610 C   0  0  0  0  0  0  0  0  0  0  0  0
  139.9000   69.8630  225.8790 C   0  0  0  0  0  0  0  0  0  0  0  0
  139.7460   69.0510  226.9680 C   0  0  0  0  0  0  0  0  0  0  0  0
  140.2160   69.4120  228.1940 C   0  0  0  0  0  0  0  0  0  0  0  0
  140.8670   70.6430  228.3150 C   0  0  0  0  0  0  0  0  0  0  0  0
  141.0270   71.4750  227.2120 C   0  0  0  0  0  0  0  0  0  0  0  0
  140.5430   71.0940  225.9700 C   0  0  0  0  0  0  0  0  0  0  0  0
  140.6850   71.8810  224.8860 N   0  0  0  0  0  0  0  0  0  0  0  0
  138.5620   73.4320  222.8440 H   0  0  0  0  0  0  0  0  0  0  0  0
  139.8101   73.4413  220.1560 H   0  0  0  0  0  0  0  0  0  0  0  0
  138.6247   74.6521  220.7620 H   0  0  0  0  0  0  0  0  0  0  0  0
  140.2836   75.0729  218.3549 H   0  0  0  0  0  0  0  0  0  0  0  0
  139.6547   76.4974  219.3191 H   0  0  0  0  0  0  0  0  0  0  0  0
  141.7321   76.3897  217.1887 H   0  0  0  0  0  0  0  0  0  0  0  0
  140.4738   77.5997  217.4981 H   0  0  0  0  0  0  0  0  0  0  0  0
  142.5839   78.6063  218.2719 H   0  0  0  0  0  0  0  0  0  0  0  0
  141.7568   78.1391  219.7501 H   0  0  0  0  0  0  0  0  0  0  0  0
  143.6456   76.2522  218.1749 H   0  0  0  0  0  0  0  0  0  0  0  0
  144.2057   77.2513  219.5411 H   0  0  0  0  0  0  0  0  0  0  0  0
  143.0576   76.0561  221.0779 H   0  0  0  0  0  0  0  0  0  0  0  0
  141.9750   73.7122  218.4149 H   0  0  0  0  0  0  0  0  0  0  0  0
  143.0547   71.5541  217.9670 H   0  0  0  0  0  0  0  0  0  0  0  0
  146.2203   72.6036  220.6733 H   0  0  0  0  0  0  0  0  0  0  0  0
  145.1233   74.7605  221.1041 H   0  0  0  0  0  0  0  0  0  0  0  0
  139.1972   69.9917  222.6094 H   0  0  0  0  0  0  0  0  0  0  0  0
  138.8884   68.4895  224.5475 H   0  0  0  0  0  0  0  0  0  0  0  0
  139.2316   68.0857  226.8514 H   0  0  0  0  0  0  0  0  0  0  0  0
  140.0869   68.7530  229.0652 H   0  0  0  0  0  0  0  0  0  0  0  0
  141.2574   70.9574  229.2941 H   0  0  0  0  0  0  0  0  0  0  0  0
  141.5406   72.4411  227.3258 H   0  0  0  0  0  0  0  0  0  0  0  0
  1  2  2  0
  2  3  1  0
  3  4  1  0
  4  5  1  0
  5  6  2  0
  5  7  1  0
  7  8  1  0
  8  9  1  0
  9 10  1  0
 10 11  1  0
 11 12  1  0
 12 13  1  0
 13 14  2  0
 14 15  1  0
 15 16  2  0
 16 17  1  0
 16 18  1  0
 18 19  2  0
  2 20  1  0
 20 21  2  0
 21 22  1  0
 22 23  2  0
 23 24  1  0
 24 25  2  0
 25 26  1  0
 26 27  2  0
 27 28  1  0
 28 29  2  0
 12  7  1  0
 19 13  1  0
 29 20  1  0
 28 23  1  0
  3 30  1  0
  4 31  1  0
  4 32  1  0
  8 33  1  0
  8 34  1  0
  9 35  1  0
  9 36  1  0
 10 37  1  0
 10 38  1  0
 11 39  1  0
 11 40  1  0
 12 41  1  1
 14 42  1  0
 15 43  1  0
 18 44  1  0
 19 45  1  0
 21 46  1  0
 22 47  1  0
 24 48  1  0
 25 49  1  0
 26 50  1  0
 27 51  1  0
M  END
>  <meeko>  (7) 
{"free_energy": -8.81, "intermolecular_energy": -10.3, "internal_energy": -1.77, "cluster_size": 4, "cluster_id": 2, "rank_in_cluster": 4}

$$$$

     RDKit          3D

 51 54  0  0  0  0  0  0  0  0999 V2000
  140.8180   71.3030  221.2790 O   0  0  0  0  0  0  0  0  0  0  0  0
  140.2120   71.8800  222.2230 C   0  0  0  0  0  0  0  0  0  0  0  0
  139.5770   73.1370  221.9550 N   0  0  0  0  0  0  0  0  0  0  0  0
  139.6740   73.6620  220.6160 C   0  0  0  0  0  0  0  0  0  0  0  0
  139.8710   75.1460  220.6640 C   0  0  0  0  0  0  0  0  0  0  0  0
  140.9530   75.7050  220.4070 O   0  0  0  0  0  0  0  0  0  0  0  0
  138.7720   75.9780  221.0230 N   0  0  0  0  0  0  0  0  0  0  0  0
  137.8660   76.3520  219.9470 C   0  0  0  0  0  0  0  0  0  0  0  0
  136.5110   76.7740  220.4100 C   0  0  0  0  0  0  0  0  0  0  0  0
  136.2650   76.0420  221.7360 C   0  0  0  0  0  0  0  0  0  0  0  0
  137.1750   76.7680  222.7320 C   0  0  0  0  0  0  0  0  0  0  0  0
  138.5870   76.4170  222.3930 C   0  0  2  0  0  0  0  0  0  0  0  0
  139.4710   77.5680  222.7170 C   0  0  0  0  0  0  0  0  0  0  0  0
  140.8450   77.4770  222.7240 C   0  0  0  0  0  0  0  0  0  0  0  0
  141.6660   78.5420  223.0230 C   0  0  0  0  0  0  0  0  0  0  0  0
  141.1160   79.7680  223.3340 C   0  0  0  0  0  0  0  0  0  0  0  0
  142.2010   81.2860  223.7580 Br  0  0  0  0  0  0  0  0  0  0  0  0
  139.7390   79.9010  223.3370 C   0  0  0  0  0  0  0  0  0  0  0  0
  138.9410   78.8210  223.0340 C   0  0  0  0  0  0  0  0  0  0  0  0
  140.1500   71.2950  223.5560 C   0  0  0  0  0  0  0  0  0  0  0  0
  139.5340   70.0760  223.7150 C   0  0  0  0  0  0  0  0  0  0  0  0
  139.4230   69.4420  224.9310 C   0  0  0  0  0  0  0  0  0  0  0  0
  139.9650   70.0780  226.0250 C   0  0  0  0  0  0  0  0  0  0  0  0
  139.8770   69.4830  227.2540 C   0  0  0  0  0  0  0  0  0  0  0  0
  140.3970   70.0720  228.3660 C   0  0  0  0  0  0  0  0  0  0  0  0
  141.0280   71.3120  228.2220 C   0  0  0  0  0  0  0  0  0  0  0  0
  141.1210   71.9230  226.9760 C   0  0  0  0  0  0  0  0  0  0  0  0
  140.5870   71.3110  225.8530 C   0  0  0  0  0  0  0  0  0  0  0  0
  140.6630   71.8820  224.6350 N   0  0  0  0  0  0  0  0  0  0  0  0
  139.0790   73.6040  222.7420 H   0  0  0  0  0  0  0  0  0  0  0  0
  140.5286   73.1969  220.1028 H   0  0  0  0  0  0  0  0  0  0  0  0
  138.7457   73.4371  220.0704 H   0  0  0  0  0  0  0  0  0  0  0  0
  138.3166   77.1872  219.3907 H   0  0  0  0  0  0  0  0  0  0  0  0
  137.7239   75.4553  219.3260 H   0  0  0  0  0  0  0  0  0  0  0  0
  136.4826   77.8627  220.5644 H   0  0  0  0  0  0  0  0  0  0  0  0
  135.7385   76.5277  219.6667 H   0  0  0  0  0  0  0  0  0  0  0  0
  135.2105   76.1234  222.0382 H   0  0  0  0  0  0  0  0  0  0  0  0
  136.4798   74.9651  221.6722 H   0  0  0  0  0  0  0  0  0  0  0  0
  137.0288   77.8552  222.6500 H   0  0  0  0  0  0  0  0  0  0  0  0
  136.9386   76.4652  223.7627 H   0  0  0  0  0  0  0  0  0  0  0  0
  138.8617   75.5475  223.0082 H   0  0  0  0  0  0  0  0  0  0  0  0
  141.3082   76.5096  222.4797 H   0  0  0  0  0  0  0  0  0  0  0  0
  142.7586   78.4148  223.0137 H   0  0  0  0  0  0  0  0  0  0  0  0
  139.2813   80.8708  223.5818 H   0  0  0  0  0  0  0  0  0  0  0  0
  137.8485   78.9491  223.0418 H   0  0  0  0  0  0  0  0  0  0  0  0
  139.1096   69.5841  222.8274 H   0  0  0  0  0  0  0  0  0  0  0  0
  138.9219   68.4673  225.0251 H   0  0  0  0  0  0  0  0  0  0  0  0
  139.3756   68.5082  227.3456 H   0  0  0  0  0  0  0  0  0  0  0  0
  140.3229   69.5862  229.3502 H   0  0  0  0  0  0  0  0  0  0  0  0
  141.4558   71.8099  229.1047 H   0  0  0  0  0  0  0  0  0  0  0  0
  141.6215   72.8980  226.8813 H   0  0  0  0  0  0  0  0  0  0  0  0
  1  2  2  0
  2  3  1  0
  3  4  1  0
  4  5  1  0
  5  6  2  0
  5  7  1  0
  7  8  1  0
  8  9  1  0
  9 10  1  0
 10 11  1  0
 11 12  1  0
 12 13  1  0
 13 14  2  0
 14 15  1  0
 15 16  2  0
 16 17  1  0
 16 18  1  0
 18 19  2  0
  2 20  1  0
 20 21  2  0
 21 22  1  0
 22 23  2  0
 23 24  1  0
 24 25  2  0
 25 26  1  0
 26 27  2  0
 27 28  1  0
 28 29  2  0
 12  7  1  0
 19 13  1  0
 29 20  1  0
 28 23  1  0
  3 30  1  0
  4 31  1  0
  4 32  1  0
  8 33  1  0
  8 34  1  0
  9 35  1  0
  9 36  1  0
 10 37  1  0
 10 38  1  0
 11 39  1  0
 11 40  1  0
 12 41  1  1
 14 42  1  0
 15 43  1  0
 18 44  1  0
 19 45  1  0
 21 46  1  0
 22 47  1  0
 24 48  1  0
 25 49  1  0
 26 50  1  0
 27 51  1  0
M  END
>  <meeko>  (8) 
{"free_energy": -8.9, "intermolecular_energy": -10.39, "internal_energy": -1.46, "cluster_size": 14, "cluster_id": 1, "rank_in_cluster": 8}

$$$$

     RDKit          3D

 51 54  0  0  0  0  0  0  0  0999 V2000
  141.2950   71.8870  221.6090 O   0  0  0  0  0  0  0  0  0  0  0  0
  140.3920   72.1490  222.4480 C   0  0  0  0  0  0  0  0  0  0  0  0
  139.4930   73.2290  222.1660 N   0  0  0  0  0  0  0  0  0  0  0  0
  139.6810   73.9490  220.9310 C   0  0  0  0  0  0  0  0  0  0  0  0
  140.6230   75.0930  221.1480 C   0  0  0  0  0  0  0  0  0  0  0  0
  140.8100   75.6300  222.2540 O   0  0  0  0  0  0  0  0  0  0  0  0
  141.3540   75.6060  220.0380 N   0  0  0  0  0  0  0  0  0  0  0  0
  140.5750   75.9790  218.8660 C   0  0  0  0  0  0  0  0  0  0  0  0
  141.2620   76.9430  217.9580 C   0  0  0  0  0  0  0  0  0  0  0  0
  142.2190   77.7550  218.8410 C   0  0  0  0  0  0  0  0  0  0  0  0
  143.3480   76.7710  219.1640 C   0  0  0  0  0  0  0  0  0  0  0  0
  142.7980   75.7420  220.0960 C   0  0  2  0  0  0  0  0  0  0  0  0
  143.4740   74.4410  219.8460 C   0  0  0  0  0  0  0  0  0  0  0  0
  144.6400   74.0710  220.4790 C   0  0  0  0  0  0  0  0  0  0  0  0
  145.2680   72.8670  220.2490 C   0  0  0  0  0  0  0  0  0  0  0  0
  144.7280   71.9710  219.3500 C   0  0  0  0  0  0  0  0  0  0  0  0
  145.5520   70.2820  218.9870 Br  0  0  0  0  0  0  0  0  0  0  0  0
  143.5570   72.3050  218.6940 C   0  0  0  0  0  0  0  0  0  0  0  0
  142.9490   73.5150  218.9430 C   0  0  0  0  0  0  0  0  0  0  0  0
  140.2540   71.3820  223.6790 C   0  0  0  0  0  0  0  0  0  0  0  0
  139.6230   70.1600  223.6300 C   0  0  0  0  0  0  0  0  0  0  0  0
  139.4420   69.3620  224.7360 C   0  0  0  0  0  0  0  0  0  0  0  0
  139.9270   69.8290  225.9370 C   0  0  0  0  0  0  0  0  0  0  0  0
  139.7680   69.0670  227.0620 C   0  0  0  0  0  0  0  0  0  0  0  0
  140.2290   69.4860  228.2720 C   0  0  0  0  0  0  0  0  0  0  0  0
  140.8730   70.7250  228.3410 C   0  0  0  0  0  0  0  0  0  0  0  0
  141.0370   71.5060  227.2020 C   0  0  0  0  0  0  0  0  0  0  0  0
  140.5630   71.0660  225.9760 C   0  0  0  0  0  0  0  0  0  0  0  0
  140.7090   71.8030  224.8580 N   0  0  0  0  0  0  0  0  0  0  0  0
  138.7500   73.4360  222.8670 H   0  0  0  0  0  0  0  0  0  0  0  0
  140.0993   73.2705  220.1729 H   0  0  0  0  0  0  0  0  0  0  0  0
  138.7114   74.3378  220.5865 H   0  0  0  0  0  0  0  0  0  0  0  0
  140.3519   75.0658  218.2948 H   0  0  0  0  0  0  0  0  0  0  0  0
  139.6690   76.4821  219.2350 H   0  0  0  0  0  0  0  0  0  0  0  0
  141.8246   76.4021  217.1829 H   0  0  0  0  0  0  0  0  0  0  0  0
  140.5397   77.5948  217.4447 H   0  0  0  0  0  0  0  0  0  0  0  0
  142.6058   78.6296  218.2974 H   0  0  0  0  0  0  0  0  0  0  0  0
  141.7303   78.1506  219.7436 H   0  0  0  0  0  0  0  0  0  0  0  0
  143.7016   76.2896  218.2403 H   0  0  0  0  0  0  0  0  0  0  0  0
  144.1972   77.2959  219.6260 H   0  0  0  0  0  0  0  0  0  0  0  0
  143.0095   76.0855  221.1194 H   0  0  0  0  0  0  0  0  0  0  0  0
  145.0899   74.7686  221.2008 H   0  0  0  0  0  0  0  0  0  0  0  0
  146.1985   72.6204  220.7812 H   0  0  0  0  0  0  0  0  0  0  0  0
  143.1114   71.6037  217.9732 H   0  0  0  0  0  0  0  0  0  0  0  0
  142.0174   73.7604  218.4120 H   0  0  0  0  0  0  0  0  0  0  0  0
  139.2453   69.8042  222.6601 H   0  0  0  0  0  0  0  0  0  0  0  0
  138.9308   68.3907  224.6637 H   0  0  0  0  0  0  0  0  0  0  0  0
  139.2571   68.0957  226.9870 H   0  0  0  0  0  0  0  0  0  0  0  0
  140.0984   68.8665  229.1715 H   0  0  0  0  0  0  0  0  0  0  0  0
  141.2544   71.0863  229.3074 H   0  0  0  0  0  0  0  0  0  0  0  0
  141.5458   72.4785  227.2745 H   0  0  0  0  0  0  0  0  0  0  0  0
  1  2  2  0
  2  3  1  0
  3  4  1  0
  4  5  1  0
  5  6  2  0
  5  7  1  0
  7  8  1  0
  8  9  1  0
  9 10  1  0
 10 11  1  0
 11 12  1  0
 12 13  1  0
 13 14  2  0
 14 15  1  0
 15 16  2  0
 16 17  1  0
 16 18  1  0
 18 19  2  0
  2 20  1  0
 20 21  2  0
 21 22  1  0
 22 23  2  0
 23 24  1  0
 24 25  2  0
 25 26  1  0
 26 27  2  0
 27 28  1  0
 28 29  2  0
 12  7  1  0
 19 13  1  0
 29 20  1  0
 28 23  1  0
  3 30  1  0
  4 31  1  0
  4 32  1  0
  8 33  1  0
  8 34  1  0
  9 35  1  0
  9 36  1  0
 10 37  1  0
 10 38  1  0
 11 39  1  0
 11 40  1  0
 12 41  1  1
 14 42  1  0
 15 43  1  0
 18 44  1  0
 19 45  1  0
 21 46  1  0
 22 47  1  0
 24 48  1  0
 25 49  1  0
 26 50  1  0
 27 51  1  0
M  END
>  <meeko>  (9) 
{"free_energy": -8.83, "intermolecular_energy": -10.32, "internal_energy": -1.78, "cluster_size": 4, "cluster_id": 2, "rank_in_cluster": 3}

$$$$

     RDKit          3D

 51 54  0  0  0  0  0  0  0  0999 V2000
  139.2520   71.1700  221.3390 O   0  0  0  0  0  0  0  0  0  0  0  0
  139.4490   71.8610  222.3750 C   0  0  0  0  0  0  0  0  0  0  0  0
  139.4190   73.2890  222.2560 N   0  0  0  0  0  0  0  0  0  0  0  0
  139.1640   73.8450  220.9500 C   0  0  0  0  0  0  0  0  0  0  0  0
  140.2310   73.4100  219.9940 C   0  0  0  0  0  0  0  0  0  0  0  0
  140.0060   72.7370  218.9720 O   0  0  0  0  0  0  0  0  0  0  0  0
  141.5830   73.7770  220.2530 N   0  0  0  0  0  0  0  0  0  0  0  0
  142.3810   72.8200  221.0040 C   0  0  0  0  0  0  0  0  0  0  0  0
  143.8530   72.9830  220.8280 C   0  0  0  0  0  0  0  0  0  0  0  0
  144.0530   73.6000  219.4380 C   0  0  0  0  0  0  0  0  0  0  0  0
  143.5970   75.0520  219.6100 C   0  0  0  0  0  0  0  0  0  0  0  0
  142.1130   75.0430  219.7820 C   0  0  2  0  0  0  0  0  0  0  0  0
  141.7150   76.1630  220.6750 C   0  0  0  0  0  0  0  0  0  0  0  0
  141.0850   75.9660  221.8850 C   0  0  0  0  0  0  0  0  0  0  0  0
  140.7150   77.0020  222.7140 C   0  0  0  0  0  0  0  0  0  0  0  0
  140.9730   78.3050  222.3440 C   0  0  0  0  0  0  0  0  0  0  0  0
  140.4840   79.7880  223.4510 Br  0  0  0  0  0  0  0  0  0  0  0  0
  141.6050   78.5450  221.1360 C   0  0  0  0  0  0  0  0  0  0  0  0
  141.9650   77.4910  220.3260 C   0  0  0  0  0  0  0  0  0  0  0  0
  139.7020   71.2380  223.6670 C   0  0  0  0  0  0  0  0  0  0  0  0
  139.3810   69.9110  223.8350 C   0  0  0  0  0  0  0  0  0  0  0  0
  139.5800   69.2320  225.0150 C   0  0  0  0  0  0  0  0  0  0  0  0
  140.1300   69.9370  226.0620 C   0  0  0  0  0  0  0  0  0  0  0  0
  140.3440   69.3000  227.2540 C   0  0  0  0  0  0  0  0  0  0  0  0
  140.8850   69.9530  228.3200 C   0  0  0  0  0  0  0  0  0  0  0  0
  141.2170   71.3030  228.1670 C   0  0  0  0  0  0  0  0  0  0  0  0
  141.0010   71.9570  226.9590 C   0  0  0  0  0  0  0  0  0  0  0  0
  140.4500   71.2780  225.8830 C   0  0  0  0  0  0  0  0  0  0  0  0
  140.2310   71.8880  224.7020 N   0  0  0  0  0  0  0  0  0  0  0  0
  139.5830   73.8500  223.1190 H   0  0  0  0  0  0  0  0  0  0  0  0
  138.1858   73.4945  220.5890 H   0  0  0  0  0  0  0  0  0  0  0  0
  139.1638   74.9429  221.0175 H   0  0  0  0  0  0  0  0  0  0  0  0
  142.1458   72.9371  222.0722 H   0  0  0  0  0  0  0  0  0  0  0  0
  142.1243   71.8220  220.6191 H   0  0  0  0  0  0  0  0  0  0  0  0
  144.2580   73.6503  221.6031 H   0  0  0  0  0  0  0  0  0  0  0  0
  144.3761   72.0195  220.9175 H   0  0  0  0  0  0  0  0  0  0  0  0
  145.1104   73.5548  219.1383 H   0  0  0  0  0  0  0  0  0  0  0  0
  143.4927   73.0696  218.6540 H   0  0  0  0  0  0  0  0  0  0  0  0
  144.0747   75.4923  220.4977 H   0  0  0  0  0  0  0  0  0  0  0  0
  143.8802   75.6520  218.7326 H   0  0  0  0  0  0  0  0  0  0  0  0
  141.6695   75.1822  218.7850 H   0  0  0  0  0  0  0  0  0  0  0  0
  140.8680   74.9355  222.2028 H   0  0  0  0  0  0  0  0  0  0  0  0
  140.2142   76.7901  223.6702 H   0  0  0  0  0  0  0  0  0  0  0  0
  141.8196   79.5775  220.8231 H   0  0  0  0  0  0  0  0  0  0  0  0
  142.4671   77.7032  219.3706 H   0  0  0  0  0  0  0  0  0  0  0  0
  138.9441   69.3664  222.9850 H   0  0  0  0  0  0  0  0  0  0  0  0
  139.3110   68.1704  225.1176 H   0  0  0  0  0  0  0  0  0  0  0  0
  140.0735   68.2384  227.3535 H   0  0  0  0  0  0  0  0  0  0  0  0
  141.0559   69.4332  229.2743 H   0  0  0  0  0  0  0  0  0  0  0  0
  141.6543   71.8541  229.0126 H   0  0  0  0  0  0  0  0  0  0  0  0
  141.2688   73.0190  226.8565 H   0  0  0  0  0  0  0  0  0  0  0  0
  1  2  2  0
  2  3  1  0
  3  4  1  0
  4  5  1  0
  5  6  2  0
  5  7  1  0
  7  8  1  0
  8  9  1  0
  9 10  1  0
 10 11  1  0
 11 12  1  0
 12 13  1  0
 13 14  2  0
 14 15  1  0
 15 16  2  0
 16 17  1  0
 16 18  1  0
 18 19  2  0
  2 20  1  0
 20 21  2  0
 21 22  1  0
 22 23  2  0
 23 24  1  0
 24 25  2  0
 25 26  1  0
 26 27  2  0
 27 28  1  0
 28 29  2  0
 12  7  1  0
 19 13  1  0
 29 20  1  0
 28 23  1  0
  3 30  1  0
  4 31  1  0
  4 32  1  0
  8 33  1  0
  8 34  1  0
  9 35  1  0
  9 36  1  0
 10 37  1  0
 10 38  1  0
 11 39  1  0
 11 40  1  0
 12 41  1  6
 14 42  1  0
 15 43  1  0
 18 44  1  0
 19 45  1  0
 21 46  1  0
 22 47  1  0
 24 48  1  0
 25 49  1  0
 26 50  1  0
 27 51  1  0
M  END
>  <meeko>  (10) 
{"free_energy": -8.76, "intermolecular_energy": -10.25, "internal_energy": -1.75, "cluster_size": 14, "cluster_id": 1, "rank_in_cluster": 9}

$$$$

     RDKit          3D

 51 54  0  0  0  0  0  0  0  0999 V2000
  140.7020   71.5550  221.3190 O   0  0  0  0  0  0  0  0  0  0  0  0
  140.2820   72.1300  222.3590 C   0  0  0  0  0  0  0  0  0  0  0  0
  139.9070   73.5110  222.2670 N   0  0  0  0  0  0  0  0  0  0  0  0
  140.0350   74.1540  220.9830 C   0  0  0  0  0  0  0  0  0  0  0  0
  141.4800   74.4060  220.6820 C   0  0  0  0  0  0  0  0  0  0  0  0
  142.4140   73.7910  221.2280 O   0  0  0  0  0  0  0  0  0  0  0  0
  141.8220   75.4000  219.7200 N   0  0  0  0  0  0  0  0  0  0  0  0
  143.0290   75.1590  218.9430 C   0  0  0  0  0  0  0  0  0  0  0  0
  143.0860   75.9130  217.6560 C   0  0  0  0  0  0  0  0  0  0  0  0
  141.6300   76.1370  217.2270 C   0  0  0  0  0  0  0  0  0  0  0  0
  141.1210   77.2100  218.1950 C   0  0  0  0  0  0  0  0  0  0  0  0
  140.9970   76.5800  219.5440 C   0  0  2  0  0  0  0  0  0  0  0  0
  141.2790   77.5990  220.5900 C   0  0  0  0  0  0  0  0  0  0  0  0
  141.1050   77.3570  221.9350 C   0  0  0  0  0  0  0  0  0  0  0  0
  141.3650   78.2980  222.9050 C   0  0  0  0  0  0  0  0  0  0  0  0
  141.8210   79.5490  222.5450 C   0  0  0  0  0  0  0  0  0  0  0  0
  142.2010   80.9010  223.8460 Br  0  0  0  0  0  0  0  0  0  0  0  0
  142.0100   79.8320  221.2040 C   0  0  0  0  0  0  0  0  0  0  0  0
  141.7420   78.8720  220.2530 C   0  0  0  0  0  0  0  0  0  0  0  0
  140.1760   71.4240  223.6290 C   0  0  0  0  0  0  0  0  0  0  0  0
  139.5410   70.2040  223.6560 C   0  0  0  0  0  0  0  0  0  0  0  0
  139.3880   69.4600  224.8020 C   0  0  0  0  0  0  0  0  0  0  0  0
  139.9070   69.9820  225.9660 C   0  0  0  0  0  0  0  0  0  0  0  0
  139.7780   69.2750  227.1300 C   0  0  0  0  0  0  0  0  0  0  0  0
  140.2730   69.7480  228.3060 C   0  0  0  0  0  0  0  0  0  0  0  0
  140.9220   70.9870  228.2980 C   0  0  0  0  0  0  0  0  0  0  0  0
  141.0570   71.7120  227.1180 C   0  0  0  0  0  0  0  0  0  0  0  0
  140.5480   71.2160  225.9280 C   0  0  0  0  0  0  0  0  0  0  0  0
  140.6650   71.8990  224.7730 N   0  0  0  0  0  0  0  0  0  0  0  0
  139.5610   73.9760  223.1330 H   0  0  0  0  0  0  0  0  0  0  0  0
  139.6082   73.5038  220.2051 H   0  0  0  0  0  0  0  0  0  0  0  0
  139.4962   75.1128  221.0024 H   0  0  0  0  0  0  0  0  0  0  0  0
  143.8966   75.4508  219.5530 H   0  0  0  0  0  0  0  0  0  0  0  0
  143.0317   74.0898  218.6846 H   0  0  0  0  0  0  0  0  0  0  0  0
  143.5935   76.8780  217.8015 H   0  0  0  0  0  0  0  0  0  0  0  0
  143.6488   75.3583  216.8908 H   0  0  0  0  0  0  0  0  0  0  0  0
  141.5787   76.4921  216.1871 H   0  0  0  0  0  0  0  0  0  0  0  0
  141.0309   75.2152  217.2627 H   0  0  0  0  0  0  0  0  0  0  0  0
  141.8339   78.0467  218.2360 H   0  0  0  0  0  0  0  0  0  0  0  0
  140.1488   77.6015  217.8609 H   0  0  0  0  0  0  0  0  0  0  0  0
  139.9623   76.2193  219.6403 H   0  0  0  0  0  0  0  0  0  0  0  0
  140.7418   76.3669  222.2478 H   0  0  0  0  0  0  0  0  0  0  0  0
  141.2094   78.0528  223.9660 H   0  0  0  0  0  0  0  0  0  0  0  0
  142.3742   80.8235  220.8971 H   0  0  0  0  0  0  0  0  0  0  0  0
  141.8982   79.1169  219.1921 H   0  0  0  0  0  0  0  0  0  0  0  0
  139.1359   69.8042  222.7147 H   0  0  0  0  0  0  0  0  0  0  0  0
  138.8726   68.4883  224.7897 H   0  0  0  0  0  0  0  0  0  0  0  0
  139.2630   68.3031  227.1150 H   0  0  0  0  0  0  0  0  0  0  0  0
  140.1657   69.1720  229.2370 H   0  0  0  0  0  0  0  0  0  0  0  0
  141.3304   71.3929  229.2353 H   0  0  0  0  0  0  0  0  0  0  0  0
  141.5708   72.6846  227.1296 H   0  0  0  0  0  0  0  0  0  0  0  0
  1  2  2  0
  2  3  1  0
  3  4  1  0
  4  5  1  0
  5  6  2  0
  5  7  1  0
  7  8  1  0
  8  9  1  0
  9 10  1  0
 10 11  1  0
 11 12  1  0
 12 13  1  0
 13 14  2  0
 14 15  1  0
 15 16  2  0
 16 17  1  0
 16 18  1  0
 18 19  2  0
  2 20  1  0
 20 21  2  0
 21 22  1  0
 22 23  2  0
 23 24  1  0
 24 25  2  0
 25 26  1  0
 26 27  2  0
 27 28  1  0
 28 29  2  0
 12  7  1  0
 19 13  1  0
 29 20  1  0
 28 23  1  0
  3 30  1  0
  4 31  1  0
  4 32  1  0
  8 33  1  0
  8 34  1  0
  9 35  1  0
  9 36  1  0
 10 37  1  0
 10 38  1  0
 11 39  1  0
 11 40  1  0
 12 41  1  1
 14 42  1  0
 15 43  1  0
 18 44  1  0
 19 45  1  0
 21 46  1  0
 22 47  1  0
 24 48  1  0
 25 49  1  0
 26 50  1  0
 27 51  1  0
M  END
>  <meeko>  (11) 
{"free_energy": -9.09, "intermolecular_energy": -10.58, "internal_energy": -1.44, "cluster_size": 14, "cluster_id": 1, "rank_in_cluster": 7}

$$$$

     RDKit          3D

 51 54  0  0  0  0  0  0  0  0999 V2000
  141.2530   72.1960  221.9540 O   0  0  0  0  0  0  0  0  0  0  0  0
  140.2290   72.1610  222.6890 C   0  0  0  0  0  0  0  0  0  0  0  0
  139.1450   73.0490  222.3870 N   0  0  0  0  0  0  0  0  0  0  0  0
  139.2970   73.9280  221.2540 C   0  0  0  0  0  0  0  0  0  0  0  0
  139.9820   75.1910  221.6780 C   0  0  0  0  0  0  0  0  0  0  0  0
  139.6310   75.8670  222.6620 O   0  0  0  0  0  0  0  0  0  0  0  0
  141.0970   75.6590  220.9250 N   0  0  0  0  0  0  0  0  0  0  0  0
  142.2520   74.7750  220.8630 C   0  0  0  0  0  0  0  0  0  0  0  0
  143.1600   75.0410  219.7080 C   0  0  0  0  0  0  0  0  0  0  0  0
  142.2840   75.6450  218.6040 C   0  0  0  0  0  0  0  0  0  0  0  0
  141.9900   77.0640  219.1020 C   0  0  0  0  0  0  0  0  0  0  0  0
  141.0610   76.9510  220.2660 C   0  0  2  0  0  0  0  0  0  0  0  0
  141.3350   78.0550  221.2230 C   0  0  0  0  0  0  0  0  0  0  0  0
  141.3660   77.8710  222.5880 C   0  0  0  0  0  0  0  0  0  0  0  0
  141.6210   78.8920  223.4760 C   0  0  0  0  0  0  0  0  0  0  0  0
  141.8590   80.1670  223.0090 C   0  0  0  0  0  0  0  0  0  0  0  0
  142.2190   81.6290  224.1910 Br  0  0  0  0  0  0  0  0  0  0  0  0
  141.8380   80.3940  221.6440 C   0  0  0  0  0  0  0  0  0  0  0  0
  141.5810   79.3550  220.7770 C   0  0  0  0  0  0  0  0  0  0  0  0
  140.1360   71.2490  223.8210 C   0  0  0  0  0  0  0  0  0  0  0  0
  139.4900   70.0460  223.6500 C   0  0  0  0  0  0  0  0  0  0  0  0
  139.3480   69.1180  224.6550 C   0  0  0  0  0  0  0  0  0  0  0  0
  139.8900   69.4300  225.8810 C   0  0  0  0  0  0  0  0  0  0  0  0
  139.7720   68.5360  226.9090 C   0  0  0  0  0  0  0  0  0  0  0  0
  140.2900   68.7980  228.1410 C   0  0  0  0  0  0  0  0  0  0  0  0
  140.9500   70.0150  228.3340 C   0  0  0  0  0  0  0  0  0  0  0  0
  141.0730   70.9300  227.2930 C   0  0  0  0  0  0  0  0  0  0  0  0
  140.5410   70.6490  226.0450 C   0  0  0  0  0  0  0  0  0  0  0  0
  140.6470   71.5180  225.0210 N   0  0  0  0  0  0  0  0  0  0  0  0
  138.3040   73.0120  223.0010 H   0  0  0  0  0  0  0  0  0  0  0  0
  139.8999   73.4274  220.4820 H   0  0  0  0  0  0  0  0  0  0  0  0
  138.3039   74.1725  220.8491 H   0  0  0  0  0  0  0  0  0  0  0  0
  142.8294   74.8950  221.7915 H   0  0  0  0  0  0  0  0  0  0  0  0
  141.8641   73.7538  220.7339 H   0  0  0  0  0  0  0  0  0  0  0  0
  143.9492   75.7499  219.9990 H   0  0  0  0  0  0  0  0  0  0  0  0
  143.6549   74.1196  219.3673 H   0  0  0  0  0  0  0  0  0  0  0  0
  142.8239   75.6704  217.6459 H   0  0  0  0  0  0  0  0  0  0  0  0
  141.3696   75.0616  218.4211 H   0  0  0  0  0  0  0  0  0  0  0  0
  142.9246   77.5531  219.4141 H   0  0  0  0  0  0  0  0  0  0  0  0
  141.5356   77.6675  218.3024 H   0  0  0  0  0  0  0  0  0  0  0  0
  140.0373   77.0399  219.8735 H   0  0  0  0  0  0  0  0  0  0  0  0
  141.1786   76.8630  222.9864 H   0  0  0  0  0  0  0  0  0  0  0  0
  141.6348   78.6904  224.5573 H   0  0  0  0  0  0  0  0  0  0  0  0
  142.0265   81.4041  221.2514 H   0  0  0  0  0  0  0  0  0  0  0  0
  141.5691   79.5565  219.6957 H   0  0  0  0  0  0  0  0  0  0  0  0
  139.0666   69.8154  222.6613 H   0  0  0  0  0  0  0  0  0  0  0  0
  138.8232   68.1662  224.4860 H   0  0  0  0  0  0  0  0  0  0  0  0
  139.2473   67.5846  226.7371 H   0  0  0  0  0  0  0  0  0  0  0  0
  140.1917   68.0720  228.9615 H   0  0  0  0  0  0  0  0  0  0  0  0
  141.3768   70.2519  229.3197 H   0  0  0  0  0  0  0  0  0  0  0  0
  141.5961   71.8828  227.4620 H   0  0  0  0  0  0  0  0  0  0  0  0
  1  2  2  0
  2  3  1  0
  3  4  1  0
  4  5  1  0
  5  6  2  0
  5  7  1  0
  7  8  1  0
  8  9  1  0
  9 10  1  0
 10 11  1  0
 11 12  1  0
 12 13  1  0
 13 14  2  0
 14 15  1  0
 15 16  2  0
 16 17  1  0
 16 18  1  0
 18 19  2  0
  2 20  1  0
 20 21  2  0
 21 22  1  0
 22 23  2  0
 23 24  1  0
 24 25  2  0
 25 26  1  0
 26 27  2  0
 27 28  1  0
 28 29  2  0
 12  7  1  0
 19 13  1  0
 29 20  1  0
 28 23  1  0
  3 30  1  0
  4 31  1  0
  4 32  1  0
  8 33  1  0
  8 34  1  0
  9 35  1  0
  9 36  1  0
 10 37  1  0
 10 38  1  0
 11 39  1  0
 11 40  1  0
 12 41  1  6
 14 42  1  0
 15 43  1  0
 18 44  1  0
 19 45  1  0
 21 46  1  0
 22 47  1  0
 24 48  1  0
 25 49  1  0
 26 50  1  0
 27 51  1  0
M  END
>  <meeko>  (12) 
{"free_energy": -9.61, "intermolecular_energy": -11.1, "internal_energy": -1.25, "cluster_size": 14, "cluster_id": 1, "rank_in_cluster": 1}

$$$$

     RDKit          3D

 51 54  0  0  0  0  0  0  0  0999 V2000
  140.4730   77.4910  218.3230 O   0  0  0  0  0  0  0  0  0  0  0  0
  141.6060   77.3910  218.8680 C   0  0  0  0  0  0  0  0  0  0  0  0
  142.2850   78.5940  219.2500 N   0  0  0  0  0  0  0  0  0  0  0  0
  141.6240   79.8470  218.9850 C   0  0  0  0  0  0  0  0  0  0  0  0
  140.6580   80.1560  220.0880 C   0  0  0  0  0  0  0  0  0  0  0  0
  139.5290   80.6430  219.8970 O   0  0  0  0  0  0  0  0  0  0  0  0
  141.0360   79.8850  221.4340 N   0  0  0  0  0  0  0  0  0  0  0  0
  142.4110   80.1980  221.7960 C   0  0  0  0  0  0  0  0  0  0  0  0
  142.6290   80.3810  223.2610 C   0  0  0  0  0  0  0  0  0  0  0  0
  141.2920   80.8680  223.8350 C   0  0  0  0  0  0  0  0  0  0  0  0
  140.4020   79.6220  223.8060 C   0  0  0  0  0  0  0  0  0  0  0  0
  140.0840   79.3270  222.3760 C   0  0  2  0  0  0  0  0  0  0  0  0
  139.9430   77.8580  222.1970 C   0  0  0  0  0  0  0  0  0  0  0  0
  138.7210   77.2330  222.0780 C   0  0  0  0  0  0  0  0  0  0  0  0
  138.5880   75.8730  221.9110 C   0  0  0  0  0  0  0  0  0  0  0  0
  139.7110   75.0730  221.8580 C   0  0  0  0  0  0  0  0  0  0  0  0
  139.5930   73.1770  221.6280 Br  0  0  0  0  0  0  0  0  0  0  0  0
  140.9570   75.6630  221.9720 C   0  0  0  0  0  0  0  0  0  0  0  0
  141.0630   77.0250  222.1380 C   0  0  0  0  0  0  0  0  0  0  0  0
  142.2210   76.0930  219.1080 C   0  0  0  0  0  0  0  0  0  0  0  0
  141.5680   74.9610  218.6770 C   0  0  0  0  0  0  0  0  0  0  0  0
  142.0650   73.6910  218.8570 C   0  0  0  0  0  0  0  0  0  0  0  0
  143.2760   73.5730  219.5000 C   0  0  0  0  0  0  0  0  0  0  0  0
  143.8060   72.3280  219.6990 C   0  0  0  0  0  0  0  0  0  0  0  0
  145.0010   72.1590  220.3300 C   0  0  0  0  0  0  0  0  0  0  0  0
  145.6790   73.2980  220.7750 C   0  0  0  0  0  0  0  0  0  0  0  0
  145.1460   74.5670  220.5770 C   0  0  0  0  0  0  0  0  0  0  0  0
  143.9290   74.7230  219.9320 C   0  0  0  0  0  0  0  0  0  0  0  0
  143.3910   75.9410  219.7270 N   0  0  0  0  0  0  0  0  0  0  0  0
  143.2210   78.4990  219.6990 H   0  0  0  0  0  0  0  0  0  0  0  0
  142.3741   80.6491  218.9215 H   0  0  0  0  0  0  0  0  0  0  0  0
  141.0768   79.7742  218.0335 H   0  0  0  0  0  0  0  0  0  0  0  0
  143.0548   79.3755  221.4511 H   0  0  0  0  0  0  0  0  0  0  0  0
  142.6544   81.1578  221.3168 H   0  0  0  0  0  0  0  0  0  0  0  0
  142.9186   79.4269  223.7256 H   0  0  0  0  0  0  0  0  0  0  0  0
  143.4365   81.1011  223.4593 H   0  0  0  0  0  0  0  0  0  0  0  0
  141.4185   81.2345  224.8644 H   0  0  0  0  0  0  0  0  0  0  0  0
  140.8661   81.7065  223.2645 H   0  0  0  0  0  0  0  0  0  0  0  0
  140.9340   78.7705  224.2553 H   0  0  0  0  0  0  0  0  0  0  0  0
  139.4791   79.7931  224.3796 H   0  0  0  0  0  0  0  0  0  0  0  0
  139.1316   79.8268  222.1456 H   0  0  0  0  0  0  0  0  0  0  0  0
  137.8103   77.8486  222.1183 H   0  0  0  0  0  0  0  0  0  0  0  0
  137.5877   75.4246  221.8199 H   0  0  0  0  0  0  0  0  0  0  0  0
  141.8644   75.0426  221.9299 H   0  0  0  0  0  0  0  0  0  0  0  0
  142.0636   77.4731  222.2273 H   0  0  0  0  0  0  0  0  0  0  0  0
  140.6020   75.0773  218.1638 H   0  0  0  0  0  0  0  0  0  0  0  0
  141.5169   72.8060  218.5015 H   0  0  0  0  0  0  0  0  0  0  0  0
  143.2557   71.4450  219.3420 H   0  0  0  0  0  0  0  0  0  0  0  0
  145.4212   71.1543  220.4853 H   0  0  0  0  0  0  0  0  0  0  0  0
  146.6459   73.1889  221.2880 H   0  0  0  0  0  0  0  0  0  0  0  0
  145.6931   75.4519  220.9342 H   0  0  0  0  0  0  0  0  0  0  0  0
  1  2  2  0
  2  3  1  0
  3  4  1  0
  4  5  1  0
  5  6  2  0
  5  7  1  0
  7  8  1  0
  8  9  1  0
  9 10  1  0
 10 11  1  0
 11 12  1  0
 12 13  1  0
 13 14  2  0
 14 15  1  0
 15 16  2  0
 16 17  1  0
 16 18  1  0
 18 19  2  0
  2 20  1  0
 20 21  2  0
 21 22  1  0
 22 23  2  0
 23 24  1  0
 24 25  2  0
 25 26  1  0
 26 27  2  0
 27 28  1  0
 28 29  2  0
 12  7  1  0
 19 13  1  0
 29 20  1  0
 28 23  1  0
  3 30  1  0
  4 31  1  0
  4 32  1  0
  8 33  1  0
  8 34  1  0
  9 35  1  0
  9 36  1  0
 10 37  1  0
 10 38  1  0
 11 39  1  0
 11 40  1  0
 12 41  1  6
 14 42  1  0
 15 43  1  0
 18 44  1  0
 19 45  1  0
 21 46  1  0
 22 47  1  0
 24 48  1  0
 25 49  1  0
 26 50  1  0
 27 51  1  0
M  END
>  <meeko>  (13) 
{"free_energy": -7.04, "intermolecular_energy": -8.53, "internal_energy": -3.13, "cluster_size": 1, "cluster_id": 4, "rank_in_cluster": 1}

$$$$

     RDKit          3D

 51 54  0  0  0  0  0  0  0  0999 V2000
  139.1900   71.1580  221.3590 O   0  0  0  0  0  0  0  0  0  0  0  0
  139.4220   71.8540  222.3840 C   0  0  0  0  0  0  0  0  0  0  0  0
  139.4000   73.2810  222.2570 N   0  0  0  0  0  0  0  0  0  0  0  0
  139.1110   73.8320  220.9570 C   0  0  0  0  0  0  0  0  0  0  0  0
  140.1650   73.4110  219.9800 C   0  0  0  0  0  0  0  0  0  0  0  0
  139.9220   72.7830  218.9340 O   0  0  0  0  0  0  0  0  0  0  0  0
  141.5260   73.7400  220.2460 N   0  0  0  0  0  0  0  0  0  0  0  0
  142.2930   72.7590  221.0000 C   0  0  0  0  0  0  0  0  0  0  0  0
  143.7700   72.8810  220.8320 C   0  0  0  0  0  0  0  0  0  0  0  0
  143.9940   73.4950  219.4440 C   0  0  0  0  0  0  0  0  0  0  0  0
  143.5780   74.9600  219.6170 C   0  0  0  0  0  0  0  0  0  0  0  0
  142.0940   74.9910  219.7810 C   0  0  2  0  0  0  0  0  0  0  0  0
  141.7220   76.1200  220.6740 C   0  0  0  0  0  0  0  0  0  0  0  0
  141.0910   75.9380  221.8850 C   0  0  0  0  0  0  0  0  0  0  0  0
  140.7450   76.9820  222.7140 C   0  0  0  0  0  0  0  0  0  0  0  0
  141.0310   78.2790  222.3430 C   0  0  0  0  0  0  0  0  0  0  0  0
  140.5780   79.7730  223.4500 Br  0  0  0  0  0  0  0  0  0  0  0  0
  141.6660   78.5040  221.1340 C   0  0  0  0  0  0  0  0  0  0  0  0
  142.0010   77.4420  220.3240 C   0  0  0  0  0  0  0  0  0  0  0  0
  139.7090   71.2360  223.6720 C   0  0  0  0  0  0  0  0  0  0  0  0
  139.4190   69.9020  223.8450 C   0  0  0  0  0  0  0  0  0  0  0  0
  139.6500   69.2280  225.0210 C   0  0  0  0  0  0  0  0  0  0  0  0
  140.2010   69.9430  226.0600 C   0  0  0  0  0  0  0  0  0  0  0  0
  140.4480   69.3120  227.2480 C   0  0  0  0  0  0  0  0  0  0  0  0
  140.9910   69.9760  228.3050 C   0  0  0  0  0  0  0  0  0  0  0  0
  141.2930   71.3320  228.1480 C   0  0  0  0  0  0  0  0  0  0  0  0
  141.0440   71.9810  226.9430 C   0  0  0  0  0  0  0  0  0  0  0  0
  140.4910   71.2910  225.8750 C   0  0  0  0  0  0  0  0  0  0  0  0
  140.2400   71.8970  224.6980 N   0  0  0  0  0  0  0  0  0  0  0  0
  139.5940   73.8450  223.1120 H   0  0  0  0  0  0  0  0  0  0  0  0
  138.1308   73.4675  220.6159 H   0  0  0  0  0  0  0  0  0  0  0  0
  139.0964   74.9299  221.0237 H   0  0  0  0  0  0  0  0  0  0  0  0
  142.0555   72.8809  222.0671 H   0  0  0  0  0  0  0  0  0  0  0  0
  142.0103   71.7692  220.6122 H   0  0  0  0  0  0  0  0  0  0  0  0
  144.1895   73.5352  221.6105 H   0  0  0  0  0  0  0  0  0  0  0  0
  144.2657   71.9032  220.9223 H   0  0  0  0  0  0  0  0  0  0  0  0
  145.0512   73.4206  219.1492 H   0  0  0  0  0  0  0  0  0  0  0  0
  143.4227   72.9822  218.6562 H   0  0  0  0  0  0  0  0  0  0  0  0
  144.0629   75.3850  220.5082 H   0  0  0  0  0  0  0  0  0  0  0  0
  143.8828   75.5542  218.7429 H   0  0  0  0  0  0  0  0  0  0  0  0
  141.6605   75.1436  218.7816 H   0  0  0  0  0  0  0  0  0  0  0  0
  140.8528   74.9127  222.2042 H   0  0  0  0  0  0  0  0  0  0  0  0
  140.2411   76.7815  223.6710 H   0  0  0  0  0  0  0  0  0  0  0  0
  141.9031   79.5313  220.8201 H   0  0  0  0  0  0  0  0  0  0  0  0
  142.5062   77.6426  219.3677 H   0  0  0  0  0  0  0  0  0  0  0  0
  138.9812   69.3480  223.0016 H   0  0  0  0  0  0  0  0  0  0  0  0
  139.4045   68.1610  225.1271 H   0  0  0  0  0  0  0  0  0  0  0  0
  140.2025   68.2448  227.3516 H   0  0  0  0  0  0  0  0  0  0  0  0
  141.1868   69.4599  229.2565 H   0  0  0  0  0  0  0  0  0  0  0  0
  141.7324   71.8920  228.9867 H   0  0  0  0  0  0  0  0  0  0  0  0
  141.2874   73.0485  226.8368 H   0  0  0  0  0  0  0  0  0  0  0  0
  1  2  2  0
  2  3  1  0
  3  4  1  0
  4  5  1  0
  5  6  2  0
  5  7  1  0
  7  8  1  0
  8  9  1  0
  9 10  1  0
 10 11  1  0
 11 12  1  0
 12 13  1  0
 13 14  2  0
 14 15  1  0
 15 16  2  0
 16 17  1  0
 16 18  1  0
 18 19  2  0
  2 20  1  0
 20 21  2  0
 21 22  1  0
 22 23  2  0
 23 24  1  0
 24 25  2  0
 25 26  1  0
 26 27  2  0
 27 28  1  0
 28 29  2  0
 12  7  1  0
 19 13  1  0
 29 20  1  0
 28 23  1  0
  3 30  1  0
  4 31  1  0
  4 32  1  0
  8 33  1  0
  8 34  1  0
  9 35  1  0
  9 36  1  0
 10 37  1  0
 10 38  1  0
 11 39  1  0
 11 40  1  0
 12 41  1  6
 14 42  1  0
 15 43  1  0
 18 44  1  0
 19 45  1  0
 21 46  1  0
 22 47  1  0
 24 48  1  0
 25 49  1  0
 26 50  1  0
 27 51  1  0
M  END
>  <meeko>  (14) 
{"free_energy": -8.72, "intermolecular_energy": -10.21, "internal_energy": -1.81, "cluster_size": 14, "cluster_id": 1, "rank_in_cluster": 11}

$$$$

     RDKit          3D

 51 54  0  0  0  0  0  0  0  0999 V2000
  139.1000   71.1220  221.3730 O   0  0  0  0  0  0  0  0  0  0  0  0
  139.3680   71.8200  222.3880 C   0  0  0  0  0  0  0  0  0  0  0  0
  139.3620   73.2470  222.2530 N   0  0  0  0  0  0  0  0  0  0  0  0
  139.0470   73.7940  220.9570 C   0  0  0  0  0  0  0  0  0  0  0  0
  140.0860   73.3780  219.9620 C   0  0  0  0  0  0  0  0  0  0  0  0
  139.8230   72.7880  218.8990 O   0  0  0  0  0  0  0  0  0  0  0  0
  141.4550   73.6640  220.2310 N   0  0  0  0  0  0  0  0  0  0  0  0
  142.1840   72.6690  221.0050 C   0  0  0  0  0  0  0  0  0  0  0  0
  143.6660   72.7380  220.8430 C   0  0  0  0  0  0  0  0  0  0  0  0
  143.9180   73.3230  219.4470 C   0  0  0  0  0  0  0  0  0  0  0  0
  143.5520   74.8030  219.5950 C   0  0  0  0  0  0  0  0  0  0  0  0
  142.0690   74.8880  219.7500 C   0  0  2  0  0  0  0  0  0  0  0  0
  141.7310   76.0420  220.6240 C   0  0  0  0  0  0  0  0  0  0  0  0
  141.9800   77.3490  220.2660 C   0  0  0  0  0  0  0  0  0  0  0  0
  141.6680   78.4200  221.0730 C   0  0  0  0  0  0  0  0  0  0  0  0
  141.0780   78.2060  222.3020 C   0  0  0  0  0  0  0  0  0  0  0  0
  140.6200   79.6510  223.4700 Br  0  0  0  0  0  0  0  0  0  0  0  0
  140.8100   76.9080  222.6980 C   0  0  0  0  0  0  0  0  0  0  0  0
  141.1330   75.8550  221.8710 C   0  0  0  0  0  0  0  0  0  0  0  0
  139.6790   71.2050  223.6720 C   0  0  0  0  0  0  0  0  0  0  0  0
  139.3940   69.8710  223.8530 C   0  0  0  0  0  0  0  0  0  0  0  0
  139.6480   69.2000  225.0260 C   0  0  0  0  0  0  0  0  0  0  0  0
  140.2170   69.9190  226.0530 C   0  0  0  0  0  0  0  0  0  0  0  0
  140.4860   69.2900  227.2370 C   0  0  0  0  0  0  0  0  0  0  0  0
  141.0480   69.9570  228.2830 C   0  0  0  0  0  0  0  0  0  0  0  0
  141.3450   71.3140  228.1170 C   0  0  0  0  0  0  0  0  0  0  0  0
  141.0730   71.9600  226.9160 C   0  0  0  0  0  0  0  0  0  0  0  0
  140.5010   71.2670  225.8600 C   0  0  0  0  0  0  0  0  0  0  0  0
  140.2280   71.8700  224.6870 N   0  0  0  0  0  0  0  0  0  0  0  0
  139.5860   73.8130  223.0990 H   0  0  0  0  0  0  0  0  0  0  0  0
  138.0632   73.4229  220.6338 H   0  0  0  0  0  0  0  0  0  0  0  0
  139.0272   74.8919  221.0224 H   0  0  0  0  0  0  0  0  0  0  0  0
  141.9454   72.8159  222.0687 H   0  0  0  0  0  0  0  0  0  0  0  0
  141.8693   71.6833  220.6316 H   0  0  0  0  0  0  0  0  0  0  0  0
  144.1038   73.3892  221.6139 H   0  0  0  0  0  0  0  0  0  0  0  0
  144.1273   71.7452  220.9505 H   0  0  0  0  0  0  0  0  0  0  0  0
  144.9735   73.2079  219.1593 H   0  0  0  0  0  0  0  0  0  0  0  0
  143.3332   72.8181  218.6640 H   0  0  0  0  0  0  0  0  0  0  0  0
  144.0467   75.2248  220.4823 H   0  0  0  0  0  0  0  0  0  0  0  0
  143.8816   75.3725  218.7135 H   0  0  0  0  0  0  0  0  0  0  0  0
  141.6471   75.0406  218.7456 H   0  0  0  0  0  0  0  0  0  0  0  0
  142.4495   77.5458  219.2909 H   0  0  0  0  0  0  0  0  0  0  0  0
  141.8886   79.4445  220.7387 H   0  0  0  0  0  0  0  0  0  0  0  0
  140.3389   76.7168  223.6734 H   0  0  0  0  0  0  0  0  0  0  0  0
  140.9118   74.8306  222.2052 H   0  0  0  0  0  0  0  0  0  0  0  0
  138.9412   69.3146  223.0191 H   0  0  0  0  0  0  0  0  0  0  0  0
  139.4065   68.1328  225.1392 H   0  0  0  0  0  0  0  0  0  0  0  0
  140.2433   68.2227  227.3469 H   0  0  0  0  0  0  0  0  0  0  0  0
  141.2624   69.4432  229.2317 H   0  0  0  0  0  0  0  0  0  0  0  0
  141.7990   71.8765  228.9462 H   0  0  0  0  0  0  0  0  0  0  0  0
  141.3131   73.0275  226.8030 H   0  0  0  0  0  0  0  0  0  0  0  0
  1  2  2  0
  2  3  1  0
  3  4  1  0
  4  5  1  0
  5  6  2  0
  5  7  1  0
  7  8  1  0
  8  9  1  0
  9 10  1  0
 10 11  1  0
 11 12  1  0
 12 13  1  0
 13 14  2  0
 14 15  1  0
 15 16  2  0
 16 17  1  0
 16 18  1  0
 18 19  2  0
  2 20  1  0
 20 21  2  0
 21 22  1  0
 22 23  2  0
 23 24  1  0
 24 25  2  0
 25 26  1  0
 26 27  2  0
 27 28  1  0
 28 29  2  0
 12  7  1  0
 19 13  1  0
 29 20  1  0
 28 23  1  0
  3 30  1  0
  4 31  1  0
  4 32  1  0
  8 33  1  0
  8 34  1  0
  9 35  1  0
  9 36  1  0
 10 37  1  0
 10 38  1  0
 11 39  1  0
 11 40  1  0
 12 41  1  6
 14 42  1  0
 15 43  1  0
 18 44  1  0
 19 45  1  0
 21 46  1  0
 22 47  1  0
 24 48  1  0
 25 49  1  0
 26 50  1  0
 27 51  1  0
M  END
>  <meeko>  (15) 
{"free_energy": -8.63, "intermolecular_energy": -10.13, "internal_energy": -1.84, "cluster_size": 14, "cluster_id": 1, "rank_in_cluster": 13}

$$$$

     RDKit          3D

 51 54  0  0  0  0  0  0  0  0999 V2000
  141.2520   71.9630  221.5970 O   0  0  0  0  0  0  0  0  0  0  0  0
  140.3730   72.2340  222.4590 C   0  0  0  0  0  0  0  0  0  0  0  0
  139.4860   73.3310  222.2050 N   0  0  0  0  0  0  0  0  0  0  0  0
  139.6580   74.0570  220.9710 C   0  0  0  0  0  0  0  0  0  0  0  0
  140.6390   75.1710  221.1680 C   0  0  0  0  0  0  0  0  0  0  0  0
  140.8720   75.6950  222.2730 O   0  0  0  0  0  0  0  0  0  0  0  0
  141.3530   75.6710  220.0420 N   0  0  0  0  0  0  0  0  0  0  0  0
  140.5550   76.0340  218.8790 C   0  0  0  0  0  0  0  0  0  0  0  0
  141.2310   76.9870  217.9510 C   0  0  0  0  0  0  0  0  0  0  0  0
  142.2040   77.8050  218.8100 C   0  0  0  0  0  0  0  0  0  0  0  0
  143.3360   76.8210  219.1230 C   0  0  0  0  0  0  0  0  0  0  0  0
  142.7980   75.8030  220.0740 C   0  0  2  0  0  0  0  0  0  0  0  0
  143.4660   74.4980  219.8270 C   0  0  0  0  0  0  0  0  0  0  0  0
  144.6250   74.1180  220.4660 C   0  0  0  0  0  0  0  0  0  0  0  0
  145.2450   72.9090  220.2390 C   0  0  0  0  0  0  0  0  0  0  0  0
  144.7050   72.0180  219.3350 C   0  0  0  0  0  0  0  0  0  0  0  0
  145.5180   70.3240  218.9740 Br  0  0  0  0  0  0  0  0  0  0  0  0
  143.5400   72.3620  218.6720 C   0  0  0  0  0  0  0  0  0  0  0  0
  142.9400   73.5770  218.9180 C   0  0  0  0  0  0  0  0  0  0  0  0
  140.2510   71.4610  223.6880 C   0  0  0  0  0  0  0  0  0  0  0  0
  139.6460   70.2260  223.6350 C   0  0  0  0  0  0  0  0  0  0  0  0
  139.4820   69.4210  224.7380 C   0  0  0  0  0  0  0  0  0  0  0  0
  139.9550   69.8950  225.9400 C   0  0  0  0  0  0  0  0  0  0  0  0
  139.8130   69.1260  227.0630 C   0  0  0  0  0  0  0  0  0  0  0  0
  140.2640   69.5510  228.2750 C   0  0  0  0  0  0  0  0  0  0  0  0
  140.8810   70.8030  228.3480 C   0  0  0  0  0  0  0  0  0  0  0  0
  141.0290   71.5900  227.2110 C   0  0  0  0  0  0  0  0  0  0  0  0
  140.5650   71.1440  225.9840 C   0  0  0  0  0  0  0  0  0  0  0  0
  140.6960   71.8880  224.8680 N   0  0  0  0  0  0  0  0  0  0  0  0
  138.7640   73.5460  222.9250 H   0  0  0  0  0  0  0  0  0  0  0  0
  140.0331   73.3736  220.1949 H   0  0  0  0  0  0  0  0  0  0  0  0
  138.6902   74.4773  220.6600 H   0  0  0  0  0  0  0  0  0  0  0  0
  140.3201   75.1158  218.3207 H   0  0  0  0  0  0  0  0  0  0  0  0
  139.6558   76.5425  219.2569 H   0  0  0  0  0  0  0  0  0  0  0  0
  141.7799   76.4365  217.1727 H   0  0  0  0  0  0  0  0  0  0  0  0
  140.5025   77.6360  217.4430 H   0  0  0  0  0  0  0  0  0  0  0  0
  142.5836   78.6736  218.2519 H   0  0  0  0  0  0  0  0  0  0  0  0
  141.7315   78.2104  219.7168 H   0  0  0  0  0  0  0  0  0  0  0  0
  143.6726   76.3297  218.1982 H   0  0  0  0  0  0  0  0  0  0  0  0
  144.1948   77.3474  219.5650 H   0  0  0  0  0  0  0  0  0  0  0  0
  143.0271   76.1566  221.0901 H   0  0  0  0  0  0  0  0  0  0  0  0
  145.0764   74.8115  221.1908 H   0  0  0  0  0  0  0  0  0  0  0  0
  146.1695   72.6544  220.7779 H   0  0  0  0  0  0  0  0  0  0  0  0
  143.0930   71.6647  217.9482 H   0  0  0  0  0  0  0  0  0  0  0  0
  142.0147   73.8309  218.3801 H   0  0  0  0  0  0  0  0  0  0  0  0
  139.2759   69.8655  222.6639 H   0  0  0  0  0  0  0  0  0  0  0  0
  138.9928   68.4387  224.6624 H   0  0  0  0  0  0  0  0  0  0  0  0
  139.3241   68.1437  226.9847 H   0  0  0  0  0  0  0  0  0  0  0  0
  140.1461   68.9261  229.1725 H   0  0  0  0  0  0  0  0  0  0  0  0
  141.2537   71.1700  229.3157 H   0  0  0  0  0  0  0  0  0  0  0  0
  141.5175   72.5727  227.2863 H   0  0  0  0  0  0  0  0  0  0  0  0
  1  2  2  0
  2  3  1  0
  3  4  1  0
  4  5  1  0
  5  6  2  0
  5  7  1  0
  7  8  1  0
  8  9  1  0
  9 10  1  0
 10 11  1  0
 11 12  1  0
 12 13  1  0
 13 14  2  0
 14 15  1  0
 15 16  2  0
 16 17  1  0
 16 18  1  0
 18 19  2  0
  2 20  1  0
 20 21  2  0
 21 22  1  0
 22 23  2  0
 23 24  1  0
 24 25  2  0
 25 26  1  0
 26 27  2  0
 27 28  1  0
 28 29  2  0
 12  7  1  0
 19 13  1  0
 29 20  1  0
 28 23  1  0
  3 30  1  0
  4 31  1  0
  4 32  1  0
  8 33  1  0
  8 34  1  0
  9 35  1  0
  9 36  1  0
 10 37  1  0
 10 38  1  0
 11 39  1  0
 11 40  1  0
 12 41  1  1
 14 42  1  0
 15 43  1  0
 18 44  1  0
 19 45  1  0
 21 46  1  0
 22 47  1  0
 24 48  1  0
 25 49  1  0
 26 50  1  0
 27 51  1  0
M  END
>  <meeko>  (16) 
{"free_energy": -8.85, "intermolecular_energy": -10.34, "internal_energy": -1.78, "cluster_size": 4, "cluster_id": 2, "rank_in_cluster": 1}

$$$$

     RDKit          3D

 51 54  0  0  0  0  0  0  0  0999 V2000
  138.8960   75.1510  221.7610 O   0  0  0  0  0  0  0  0  0  0  0  0
  140.0490   75.6370  221.9130 C   0  0  0  0  0  0  0  0  0  0  0  0
  141.1800   74.8100  221.6120 N   0  0  0  0  0  0  0  0  0  0  0  0
  140.9220   73.4680  221.1510 C   0  0  0  0  0  0  0  0  0  0  0  0
  142.2100   72.7110  221.0420 C   0  0  0  0  0  0  0  0  0  0  0  0
  142.4040   71.6030  221.5750 O   0  0  0  0  0  0  0  0  0  0  0  0
  143.2820   73.2740  220.2920 N   0  0  0  0  0  0  0  0  0  0  0  0
  144.5900   73.2710  220.9290 C   0  0  0  0  0  0  0  0  0  0  0  0
  145.7330   73.3870  219.9760 C   0  0  0  0  0  0  0  0  0  0  0  0
  145.2480   72.7850  218.6510 C   0  0  0  0  0  0  0  0  0  0  0  0
  144.2760   73.8350  218.1020 C   0  0  0  0  0  0  0  0  0  0  0  0
  143.0570   73.8160  218.9640 C   0  0  2  0  0  0  0  0  0  0  0  0
  142.4800   75.1850  219.0300 C   0  0  0  0  0  0  0  0  0  0  0  0
  143.1210   76.2380  219.6430 C   0  0  0  0  0  0  0  0  0  0  0  0
  142.5890   77.5070  219.7040 C   0  0  0  0  0  0  0  0  0  0  0  0
  141.3590   77.7650  219.1360 C   0  0  0  0  0  0  0  0  0  0  0  0
  140.5640   79.5050  219.1870 Br  0  0  0  0  0  0  0  0  0  0  0  0
  140.6820   76.7330  218.5090 C   0  0  0  0  0  0  0  0  0  0  0  0
  141.2370   75.4740  218.4610 C   0  0  0  0  0  0  0  0  0  0  0  0
  140.2430   77.0020  222.3820 C   0  0  0  0  0  0  0  0  0  0  0  0
  139.1370   77.7540  222.7060 C   0  0  0  0  0  0  0  0  0  0  0  0
  139.2140   79.0510  223.1560 C   0  0  0  0  0  0  0  0  0  0  0  0
  140.4700   79.6010  223.2830 C   0  0  0  0  0  0  0  0  0  0  0  0
  140.5920   80.8880  223.7270 C   0  0  0  0  0  0  0  0  0  0  0  0
  141.8120   81.4770  223.8680 C   0  0  0  0  0  0  0  0  0  0  0  0
  142.9470   80.7290  223.5440 C   0  0  0  0  0  0  0  0  0  0  0  0
  142.8310   79.4190  223.0910 C   0  0  0  0  0  0  0  0  0  0  0  0
  141.5820   78.8330  222.9520 C   0  0  0  0  0  0  0  0  0  0  0  0
  141.4420   77.5660  222.5150 N   0  0  0  0  0  0  0  0  0  0  0  0
  142.1280   75.2220  221.7410 H   0  0  0  0  0  0  0  0  0  0  0  0
  140.2584   72.9582  221.8649 H   0  0  0  0  0  0  0  0  0  0  0  0
  140.4415   73.5103  220.1624 H   0  0  0  0  0  0  0  0  0  0  0  0
  144.6357   74.1192  221.6279 H   0  0  0  0  0  0  0  0  0  0  0  0
  144.6949   72.2988  221.4328 H   0  0  0  0  0  0  0  0  0  0  0  0
  146.0080   74.4430  219.8371 H   0  0  0  0  0  0  0  0  0  0  0  0
  146.6237   72.8626  220.3524 H   0  0  0  0  0  0  0  0  0  0  0  0
  146.0897   72.6317  217.9596 H   0  0  0  0  0  0  0  0  0  0  0  0
  144.7780   71.7989  218.7803 H   0  0  0  0  0  0  0  0  0  0  0  0
  144.7423   74.8308  218.1337 H   0  0  0  0  0  0  0  0  0  0  0  0
  144.0141   73.6104  217.0575 H   0  0  0  0  0  0  0  0  0  0  0  0
  142.3394   73.1271  218.4944 H   0  0  0  0  0  0  0  0  0  0  0  0
  144.1028   76.0576  220.1051 H   0  0  0  0  0  0  0  0  0  0  0  0
  143.1444   78.3136  220.2050 H   0  0  0  0  0  0  0  0  0  0  0  0
  139.7003   76.9190  218.0490 H   0  0  0  0  0  0  0  0  0  0  0  0
  140.6830   74.6681  217.9575 H   0  0  0  0  0  0  0  0  0  0  0  0
  138.1429   77.2952  222.5998 H   0  0  0  0  0  0  0  0  0  0  0  0
  138.3095   79.6256  223.4043 H   0  0  0  0  0  0  0  0  0  0  0  0
  139.6859   81.4600  223.9757 H   0  0  0  0  0  0  0  0  0  0  0  0
  141.9014   82.5129  224.2270 H   0  0  0  0  0  0  0  0  0  0  0  0
  143.9441   81.1816  223.6485 H   0  0  0  0  0  0  0  0  0  0  0  0
  143.7353   78.8446  222.8416 H   0  0  0  0  0  0  0  0  0  0  0  0
  1  2  2  0
  2  3  1  0
  3  4  1  0
  4  5  1  0
  5  6  2  0
  5  7  1  0
  7  8  1  0
  8  9  1  0
  9 10  1  0
 10 11  1  0
 11 12  1  0
 12 13  1  0
 13 14  2  0
 14 15  1  0
 15 16  2  0
 16 17  1  0
 16 18  1  0
 18 19  2  0
  2 20  1  0
 20 21  2  0
 21 22  1  0
 22 23  2  0
 23 24  1  0
 24 25  2  0
 25 26  1  0
 26 27  2  0
 27 28  1  0
 28 29  2  0
 12  7  1  0
 19 13  1  0
 29 20  1  0
 28 23  1  0
  3 30  1  0
  4 31  1  0
  4 32  1  0
  8 33  1  0
  8 34  1  0
  9 35  1  0
  9 36  1  0
 10 37  1  0
 10 38  1  0
 11 39  1  0
 11 40  1  0
 12 41  1  6
 14 42  1  0
 15 43  1  0
 18 44  1  0
 19 45  1  0
 21 46  1  0
 22 47  1  0
 24 48  1  0
 25 49  1  0
 26 50  1  0
 27 51  1  0
M  END
>  <meeko>  (17) 
{"free_energy": -7.18, "intermolecular_energy": -8.67, "internal_energy": -2.99, "cluster_size": 1, "cluster_id": 3, "rank_in_cluster": 1}

$$$$

     RDKit          3D

 51 54  0  0  0  0  0  0  0  0999 V2000
  140.9740   71.9270  221.5340 O   0  0  0  0  0  0  0  0  0  0  0  0
  140.1680   72.1970  222.4640 C   0  0  0  0  0  0  0  0  0  0  0  0
  139.2600   73.2910  222.2810 N   0  0  0  0  0  0  0  0  0  0  0  0
  139.3280   74.0140  221.0360 C   0  0  0  0  0  0  0  0  0  0  0  0
  139.8550   75.3950  221.2780 C   0  0  0  0  0  0  0  0  0  0  0  0
  139.2570   76.2500  221.9550 O   0  0  0  0  0  0  0  0  0  0  0  0
  141.1070   75.7670  220.7090 N   0  0  0  0  0  0  0  0  0  0  0  0
  142.1780   74.7850  220.8030 C   0  0  0  0  0  0  0  0  0  0  0  0
  143.2680   74.9750  219.8030 C   0  0  0  0  0  0  0  0  0  0  0  0
  142.6230   75.6610  218.5910 C   0  0  0  0  0  0  0  0  0  0  0  0
  142.3810   77.0970  219.0650 C   0  0  0  0  0  0  0  0  0  0  0  0
  141.2820   77.0600  220.0750 C   0  0  2  0  0  0  0  0  0  0  0  0
  141.5030   78.1310  221.0820 C   0  0  0  0  0  0  0  0  0  0  0  0
  141.4240   77.9090  222.4400 C   0  0  0  0  0  0  0  0  0  0  0  0
  141.6300   78.8990  223.3740 C   0  0  0  0  0  0  0  0  0  0  0  0
  141.9290   80.1810  222.9640 C   0  0  0  0  0  0  0  0  0  0  0  0
  142.2260   81.6010  224.2130 Br  0  0  0  0  0  0  0  0  0  0  0  0
  142.0190   80.4460  221.6080 C   0  0  0  0  0  0  0  0  0  0  0  0
  141.8090   79.4370  220.6950 C   0  0  0  0  0  0  0  0  0  0  0  0
  140.1490   71.4260  223.7010 C   0  0  0  0  0  0  0  0  0  0  0  0
  139.5940   70.1680  223.6870 C   0  0  0  0  0  0  0  0  0  0  0  0
  139.5270   69.3620  224.8000 C   0  0  0  0  0  0  0  0  0  0  0  0
  140.0490   69.8620  225.9710 C   0  0  0  0  0  0  0  0  0  0  0  0
  140.0040   69.0950  227.1030 C   0  0  0  0  0  0  0  0  0  0  0  0
  140.5060   69.5440  228.2850 C   0  0  0  0  0  0  0  0  0  0  0  0
  141.0750   70.8210  228.3180 C   0  0  0  0  0  0  0  0  0  0  0  0
  141.1250   71.6070  227.1720 C   0  0  0  0  0  0  0  0  0  0  0  0
  140.6090   71.1360  225.9750 C   0  0  0  0  0  0  0  0  0  0  0  0
  140.6440   71.8780  224.8510 N   0  0  0  0  0  0  0  0  0  0  0  0
  138.5980   73.5050  223.0580 H   0  0  0  0  0  0  0  0  0  0  0  0
  139.9975   73.4842  220.3424 H   0  0  0  0  0  0  0  0  0  0  0  0
  138.3202   74.0816  220.6003 H   0  0  0  0  0  0  0  0  0  0  0  0
  142.6176   74.8486  221.8093 H   0  0  0  0  0  0  0  0  0  0  0  0
  141.7268   73.8030  220.5976 H   0  0  0  0  0  0  0  0  0  0  0  0
  144.0632   75.6094  220.2217 H   0  0  0  0  0  0  0  0  0  0  0  0
  143.7266   74.0152  219.5230 H   0  0  0  0  0  0  0  0  0  0  0  0
  143.3011   75.6439  217.7250 H   0  0  0  0  0  0  0  0  0  0  0  0
  141.6994   75.1616  218.2631 H   0  0  0  0  0  0  0  0  0  0  0  0
  143.2967   77.5006  219.5217 H   0  0  0  0  0  0  0  0  0  0  0  0
  142.1054   77.7421  218.2178 H   0  0  0  0  0  0  0  0  0  0  0  0
  140.3405   77.2400  219.5353 H   0  0  0  0  0  0  0  0  0  0  0  0
  141.1856   76.8950  222.7934 H   0  0  0  0  0  0  0  0  0  0  0  0
  141.5561   78.6675  224.4468 H   0  0  0  0  0  0  0  0  0  0  0  0
  142.2581   81.4619  221.2604 H   0  0  0  0  0  0  0  0  0  0  0  0
  141.8851   79.6682  219.6223 H   0  0  0  0  0  0  0  0  0  0  0  0
  139.1837   69.7876  222.7399 H   0  0  0  0  0  0  0  0  0  0  0  0
  139.0752   68.3601  224.7557 H   0  0  0  0  0  0  0  0  0  0  0  0
  139.5520   68.0932  227.0564 H   0  0  0  0  0  0  0  0  0  0  0  0
  140.4654   68.9198  229.1898 H   0  0  0  0  0  0  0  0  0  0  0  0
  141.4877   71.2081  229.2613 H   0  0  0  0  0  0  0  0  0  0  0  0
  141.5769   72.6089  227.2157 H   0  0  0  0  0  0  0  0  0  0  0  0
  1  2  2  0
  2  3  1  0
  3  4  1  0
  4  5  1  0
  5  6  2  0
  5  7  1  0
  7  8  1  0
  8  9  1  0
  9 10  1  0
 10 11  1  0
 11 12  1  0
 12 13  1  0
 13 14  2  0
 14 15  1  0
 15 16  2  0
 16 17  1  0
 16 18  1  0
 18 19  2  0
  2 20  1  0
 20 21  2  0
 21 22  1  0
 22 23  2  0
 23 24  1  0
 24 25  2  0
 25 26  1  0
 26 27  2  0
 27 28  1  0
 28 29  2  0
 12  7  1  0
 19 13  1  0
 29 20  1  0
 28 23  1  0
  3 30  1  0
  4 31  1  0
  4 32  1  0
  8 33  1  0
  8 34  1  0
  9 35  1  0
  9 36  1  0
 10 37  1  0
 10 38  1  0
 11 39  1  0
 11 40  1  0
 12 41  1  6
 14 42  1  0
 15 43  1  0
 18 44  1  0
 19 45  1  0
 21 46  1  0
 22 47  1  0
 24 48  1  0
 25 49  1  0
 26 50  1  0
 27 51  1  0
M  END
>  <meeko>  (18) 
{"free_energy": -9.61, "intermolecular_energy": -11.1, "internal_energy": -1.4, "cluster_size": 14, "cluster_id": 1, "rank_in_cluster": 2}

$$$$

     RDKit          3D

 51 54  0  0  0  0  0  0  0  0999 V2000
  141.4400   71.5130  222.0150 O   0  0  0  0  0  0  0  0  0  0  0  0
  140.6490   71.9030  222.9150 C   0  0  0  0  0  0  0  0  0  0  0  0
  139.8310   73.0500  222.6520 N   0  0  0  0  0  0  0  0  0  0  0  0
  139.9680   73.6870  221.3660 C   0  0  0  0  0  0  0  0  0  0  0  0
  140.3440   75.1250  221.5470 C   0  0  0  0  0  0  0  0  0  0  0  0
  139.8250   75.8690  222.3990 O   0  0  0  0  0  0  0  0  0  0  0  0
  141.3470   75.6890  220.7080 N   0  0  0  0  0  0  0  0  0  0  0  0
  142.5620   74.9060  220.5370 C   0  0  0  0  0  0  0  0  0  0  0  0
  143.3420   75.2520  219.3130 C   0  0  0  0  0  0  0  0  0  0  0  0
  142.3260   75.7860  218.2940 C   0  0  0  0  0  0  0  0  0  0  0  0
  141.9590   77.1720  218.8310 C   0  0  0  0  0  0  0  0  0  0  0  0
  141.1460   76.9760  220.0690 C   0  0  2  0  0  0  0  0  0  0  0  0
  141.4080   78.0950  221.0120 C   0  0  0  0  0  0  0  0  0  0  0  0
  141.6380   79.3880  220.5930 C   0  0  0  0  0  0  0  0  0  0  0  0
  141.8810   80.4260  221.4650 C   0  0  0  0  0  0  0  0  0  0  0  0
  141.9020   80.1920  222.8240 C   0  0  0  0  0  0  0  0  0  0  0  0
  142.2330   81.5920  224.0870 Br  0  0  0  0  0  0  0  0  0  0  0  0
  141.6740   78.9080  223.2850 C   0  0  0  0  0  0  0  0  0  0  0  0
  141.4340   77.8870  222.3920 C   0  0  0  0  0  0  0  0  0  0  0  0
  140.5570   71.2140  224.1960 C   0  0  0  0  0  0  0  0  0  0  0  0
  140.9250   71.8890  225.3370 C   0  0  0  0  0  0  0  0  0  0  0  0
  140.8760   71.3280  226.5920 C   0  0  0  0  0  0  0  0  0  0  0  0
  140.4320   70.0280  226.6840 C   0  0  0  0  0  0  0  0  0  0  0  0
  140.3680   69.4310  227.9130 C   0  0  0  0  0  0  0  0  0  0  0  0
  139.9360   68.1480  228.0560 C   0  0  0  0  0  0  0  0  0  0  0  0
  139.5590   67.4460  226.9070 C   0  0  0  0  0  0  0  0  0  0  0  0
  139.6220   68.0460  225.6540 C   0  0  0  0  0  0  0  0  0  0  0  0
  140.0630   69.3540  225.5240 C   0  0  0  0  0  0  0  0  0  0  0  0
  140.1340   69.9580  224.3220 N   0  0  0  0  0  0  0  0  0  0  0  0
  139.1810   73.3630  223.4040 H   0  0  0  0  0  0  0  0  0  0  0  0
  140.7510   73.1754  220.7871 H   0  0  0  0  0  0  0  0  0  0  0  0
  139.0099   73.6281  220.8288 H   0  0  0  0  0  0  0  0  0  0  0  0
  143.2050   75.0699  221.4143 H   0  0  0  0  0  0  0  0  0  0  0  0
  142.2507   73.8565  220.4289 H   0  0  0  0  0  0  0  0  0  0  0  0
  144.0916   76.0232  219.5440 H   0  0  0  0  0  0  0  0  0  0  0  0
  143.8809   74.3770  218.9206 H   0  0  0  0  0  0  0  0  0  0  0  0
  142.7775   75.8609  217.2937 H   0  0  0  0  0  0  0  0  0  0  0  0
  141.4509   75.1287  218.1833 H   0  0  0  0  0  0  0  0  0  0  0  0
  142.8729   77.7366  219.0679 H   0  0  0  0  0  0  0  0  0  0  0  0
  141.3889   77.7387  218.0801 H   0  0  0  0  0  0  0  0  0  0  0  0
  140.0885   76.9799  219.7661 H   0  0  0  0  0  0  0  0  0  0  0  0
  141.6270   79.6003  219.5137 H   0  0  0  0  0  0  0  0  0  0  0  0
  142.0581   81.4403  221.0780 H   0  0  0  0  0  0  0  0  0  0  0  0
  141.6843   78.7020  224.3655 H   0  0  0  0  0  0  0  0  0  0  0  0
  141.2568   76.8730  222.7797 H   0  0  0  0  0  0  0  0  0  0  0  0
  141.2753   72.9273  225.2410 H   0  0  0  0  0  0  0  0  0  0  0  0
  141.1790   71.8945  227.4849 H   0  0  0  0  0  0  0  0  0  0  0  0
  140.6719   69.9994  228.8043 H   0  0  0  0  0  0  0  0  0  0  0  0
  139.8849   67.6764  229.0484 H   0  0  0  0  0  0  0  0  0  0  0  0
  139.2085   66.4071  226.9952 H   0  0  0  0  0  0  0  0  0  0  0  0
  139.3201   67.4795  224.7607 H   0  0  0  0  0  0  0  0  0  0  0  0
  1  2  2  0
  2  3  1  0
  3  4  1  0
  4  5  1  0
  5  6  2  0
  5  7  1  0
  7  8  1  0
  8  9  1  0
  9 10  1  0
 10 11  1  0
 11 12  1  0
 12 13  1  0
 13 14  2  0
 14 15  1  0
 15 16  2  0
 16 17  1  0
 16 18  1  0
 18 19  2  0
  2 20  1  0
 20 21  2  0
 21 22  1  0
 22 23  2  0
 23 24  1  0
 24 25  2  0
 25 26  1  0
 26 27  2  0
 27 28  1  0
 28 29  2  0
 12  7  1  0
 19 13  1  0
 29 20  1  0
 28 23  1  0
  3 30  1  0
  4 31  1  0
  4 32  1  0
  8 33  1  0
  8 34  1  0
  9 35  1  0
  9 36  1  0
 10 37  1  0
 10 38  1  0
 11 39  1  0
 11 40  1  0
 12 41  1  6
 14 42  1  0
 15 43  1  0
 18 44  1  0
 19 45  1  0
 21 46  1  0
 22 47  1  0
 24 48  1  0
 25 49  1  0
 26 50  1  0
 27 51  1  0
M  END
>  <meeko>  (19) 
{"free_energy": -9.53, "intermolecular_energy": -11.02, "internal_energy": -1.11, "cluster_size": 14, "cluster_id": 1, "rank_in_cluster": 3}

$$$$

     RDKit          3D

 51 54  0  0  0  0  0  0  0  0999 V2000
  140.7080   71.7730  221.4770 O   0  0  0  0  0  0  0  0  0  0  0  0
  139.9610   72.0880  222.4430 C   0  0  0  0  0  0  0  0  0  0  0  0
  139.0520   73.1830  222.2700 N   0  0  0  0  0  0  0  0  0  0  0  0
  139.0500   73.8550  220.9950 C   0  0  0  0  0  0  0  0  0  0  0  0
  139.6450   75.2210  221.1390 C   0  0  0  0  0  0  0  0  0  0  0  0
  139.0450   76.1830  221.6530 O   0  0  0  0  0  0  0  0  0  0  0  0
  140.9690   75.4520  220.6660 N   0  0  0  0  0  0  0  0  0  0  0  0
  141.9500   74.4180  220.9590 C   0  0  0  0  0  0  0  0  0  0  0  0
  143.1400   74.4350  220.0590 C   0  0  0  0  0  0  0  0  0  0  0  0
  142.6640   75.0360  218.7300 C   0  0  0  0  0  0  0  0  0  0  0  0
  142.4870   76.5250  219.0410 C   0  0  0  0  0  0  0  0  0  0  0  0
  141.2980   76.6620  219.9340 C   0  0  2  0  0  0  0  0  0  0  0  0
  141.5030   77.8110  220.8540 C   0  0  0  0  0  0  0  0  0  0  0  0
  141.8050   79.0800  220.4100 C   0  0  0  0  0  0  0  0  0  0  0  0
  141.9960   80.1460  221.2600 C   0  0  0  0  0  0  0  0  0  0  0  0
  141.8860   79.9670  222.6230 C   0  0  0  0  0  0  0  0  0  0  0  0
  142.1390   81.4090  223.8570 Br  0  0  0  0  0  0  0  0  0  0  0  0
  141.5830   78.7080  223.1100 C   0  0  0  0  0  0  0  0  0  0  0  0
  141.3970   77.6590  222.2380 C   0  0  0  0  0  0  0  0  0  0  0  0
  140.0120   71.3680  223.7080 C   0  0  0  0  0  0  0  0  0  0  0  0
  139.5300   70.0810  223.7560 C   0  0  0  0  0  0  0  0  0  0  0  0
  139.5320   69.3180  224.9010 C   0  0  0  0  0  0  0  0  0  0  0  0
  140.0490   69.8940  226.0400 C   0  0  0  0  0  0  0  0  0  0  0  0
  140.0700   69.1710  227.2010 C   0  0  0  0  0  0  0  0  0  0  0  0
  140.5700   69.6950  228.3540 C   0  0  0  0  0  0  0  0  0  0  0  0
  141.0640   71.0030  228.3240 C   0  0  0  0  0  0  0  0  0  0  0  0
  141.0450   71.7440  227.1470 C   0  0  0  0  0  0  0  0  0  0  0  0
  140.5330   71.1960  225.9810 C   0  0  0  0  0  0  0  0  0  0  0  0
  140.5030   71.8930  224.8290 N   0  0  0  0  0  0  0  0  0  0  0  0
  138.4400   73.4340  223.0760 H   0  0  0  0  0  0  0  0  0  0  0  0
  139.6433   73.2727  220.2747 H   0  0  0  0  0  0  0  0  0  0  0  0
  138.0146   73.9467  220.6352 H   0  0  0  0  0  0  0  0  0  0  0  0
  142.2974   74.5546  221.9937 H   0  0  0  0  0  0  0  0  0  0  0  0
  141.4483   73.4515  220.8035 H   0  0  0  0  0  0  0  0  0  0  0  0
  143.9379   75.0550  220.4937 H   0  0  0  0  0  0  0  0  0  0  0  0
  143.5496   73.4240  219.9175 H   0  0  0  0  0  0  0  0  0  0  0  0
  143.4167   74.8877  217.9416 H   0  0  0  0  0  0  0  0  0  0  0  0
  141.7403   74.5675  218.3594 H   0  0  0  0  0  0  0  0  0  0  0  0
  143.3834   76.9113  219.5482 H   0  0  0  0  0  0  0  0  0  0  0  0
  142.3415   77.0985  218.1137 H   0  0  0  0  0  0  0  0  0  0  0  0
  140.4276   76.8489  219.2879 H   0  0  0  0  0  0  0  0  0  0  0  0
  141.8977   79.2490  219.3270 H   0  0  0  0  0  0  0  0  0  0  0  0
  142.2360   81.1392  220.8525 H   0  0  0  0  0  0  0  0  0  0  0  0
  141.4907   78.5451  224.1940 H   0  0  0  0  0  0  0  0  0  0  0  0
  141.1564   76.6662  222.6459 H   0  0  0  0  0  0  0  0  0  0  0  0
  139.1230   69.6400  222.8341 H   0  0  0  0  0  0  0  0  0  0  0  0
  139.1373   68.2913  224.9063 H   0  0  0  0  0  0  0  0  0  0  0  0
  139.6746   68.1445  227.2032 H   0  0  0  0  0  0  0  0  0  0  0  0
  140.5850   69.1061  229.2829 H   0  0  0  0  0  0  0  0  0  0  0  0
  141.4723   71.4510  229.2419 H   0  0  0  0  0  0  0  0  0  0  0  0
  141.4386   72.7711  227.1413 H   0  0  0  0  0  0  0  0  0  0  0  0
  1  2  2  0
  2  3  1  0
  3  4  1  0
  4  5  1  0
  5  6  2  0
  5  7  1  0
  7  8  1  0
  8  9  1  0
  9 10  1  0
 10 11  1  0
 11 12  1  0
 12 13  1  0
 13 14  2  0
 14 15  1  0
 15 16  2  0
 16 17  1  0
 16 18  1  0
 18 19  2  0
  2 20  1  0
 20 21  2  0
 21 22  1  0
 22 23  2  0
 23 24  1  0
 24 25  2  0
 25 26  1  0
 26 27  2  0
 27 28  1  0
 28 29  2  0
 12  7  1  0
 19 13  1  0
 29 20  1  0
 28 23  1  0
  3 30  1  0
  4 31  1  0
  4 32  1  0
  8 33  1  0
  8 34  1  0
  9 35  1  0
  9 36  1  0
 10 37  1  0
 10 38  1  0
 11 39  1  0
 11 40  1  0
 12 41  1  6
 14 42  1  0
 15 43  1  0
 18 44  1  0
 19 45  1  0
 21 46  1  0
 22 47  1  0
 24 48  1  0
 25 49  1  0
 26 50  1  0
 27 51  1  0
M  END
>  <meeko>  (20) 
{"free_energy": -9.43, "intermolecular_energy": -10.92, "internal_energy": -1.47, "cluster_size": 14, "cluster_id": 1, "rank_in_cluster": 4}

$$$$
