
     RDKit          3D

 57 60  0  0  0  0  0  0  0  0999 V2000
  140.0150   71.9110  220.8920 O   0  0  0  0  0  0  0  0  0  0  0  0
  139.8850   72.3720  222.0750 C   0  0  0  0  0  0  0  0  0  0  0  0
  139.6600   73.7720  222.3000 N   0  0  0  0  0  0  0  0  0  0  0  0
  139.5800   74.6570  221.1810 C   0  0  0  0  0  0  0  0  0  0  0  0
  140.5690   75.7720  221.2690 C   0  0  0  0  0  0  0  0  0  0  0  0
  140.6800   76.3160  222.3940 O   0  0  0  0  0  0  0  0  0  0  0  0
  141.2960   76.1350  220.1130 N   0  0  0  0  0  0  0  0  0  0  0  0
  140.8570   77.3300  219.3620 C   0  0  0  0  0  0  0  0  0  0  0  0
  141.2130   77.1010  217.8890 C   0  0  0  0  0  0  0  0  0  0  0  0
  142.7210   77.0100  217.7280 C   0  0  0  0  0  0  0  0  0  0  0  0
  143.3560   76.5350  219.0430 C   0  0  0  0  0  0  0  0  0  0  0  0
  142.4410   75.4510  219.5780 C   0  0  1  0  0  0  0  0  0  0  0  0
  143.0950   74.4560  220.4560 C   0  0  0  0  0  0  0  0  0  0  0  0
  144.5980   74.5060  220.4930 C   0  0  0  0  0  0  0  0  0  0  0  0
  145.2220   73.4110  219.6510 C   0  0  0  0  0  0  0  0  0  0  0  0
  144.7930   72.0390  220.1150 C   0  0  0  0  0  0  0  0  0  0  0  0
  143.4560   72.0400  220.8240 C   0  0  0  0  0  0  0  0  0  0  0  0
  142.6050   73.0700  220.1070 C   0  0  0  0  0  0  0  0  0  0  0  0
  139.9640   71.4760  223.2440 C   0  0  0  0  0  0  0  0  0  0  0  0
  139.5010   70.1830  223.1020 C   0  0  0  0  0  0  0  0  0  0  0  0
  139.5270   69.2650  224.1280 C   0  0  0  0  0  0  0  0  0  0  0  0
  140.0540   69.7100  225.3380 C   0  0  0  0  0  0  0  0  0  0  0  0
  140.0990   68.8250  226.3900 C   0  0  0  0  0  0  0  0  0  0  0  0
  140.6160   69.2450  227.5950 C   0  0  0  0  0  0  0  0  0  0  0  0
  140.6880   68.1430  228.9530 Cl  0  0  0  0  0  0  0  0  0  0  0  0
  141.0790   70.5460  227.7240 C   0  0  0  0  0  0  0  0  0  0  0  0
  141.0300   71.4340  226.6620 C   0  0  0  0  0  0  0  0  0  0  0  0
  140.5140   71.0110  225.4640 C   0  0  0  0  0  0  0  0  0  0  0  0
  140.4690   71.8840  224.4240 N   0  0  0  0  0  0  0  0  0  0  0  0
  139.5610   74.0990  223.2820 H   0  0  0  0  0  0  0  0  0  0  0  0
  139.7736   74.0840  220.2622 H   0  0  0  0  0  0  0  0  0  0  0  0
  138.5731   75.0999  221.1734 H   0  0  0  0  0  0  0  0  0  0  0  0
  139.7705   77.4639  219.4699 H   0  0  0  0  0  0  0  0  0  0  0  0
  141.3526   78.2340  219.7457 H   0  0  0  0  0  0  0  0  0  0  0  0
  140.7524   76.1634  217.5443 H   0  0  0  0  0  0  0  0  0  0  0  0
  140.8357   77.9435  217.2907 H   0  0  0  0  0  0  0  0  0  0  0  0
  142.9604   76.2947  216.9274 H   0  0  0  0  0  0  0  0  0  0  0  0
  143.1195   78.0021  217.4694 H   0  0  0  0  0  0  0  0  0  0  0  0
  144.3618   76.1299  218.8579 H   0  0  0  0  0  0  0  0  0  0  0  0
  143.4657   77.3616  219.7604 H   0  0  0  0  0  0  0  0  0  0  0  0
  142.1153   74.7725  218.7758 H   0  0  0  0  0  0  0  0  0  0  0  0
  142.7971   74.7267  221.4797 H   0  0  0  0  0  0  0  0  0  0  0  0
  144.9307   75.4820  220.1100 H   0  0  0  0  0  0  0  0  0  0  0  0
  144.9180   74.3582  221.5350 H   0  0  0  0  0  0  0  0  0  0  0  0
  144.9133   73.5463  218.6039 H   0  0  0  0  0  0  0  0  0  0  0  0
  146.3152   73.4814  219.7509 H   0  0  0  0  0  0  0  0  0  0  0  0
  144.7228   71.3794  219.2375 H   0  0  0  0  0  0  0  0  0  0  0  0
  145.5453   71.6882  220.8368 H   0  0  0  0  0  0  0  0  0  0  0  0
  142.9885   71.0463  220.7602 H   0  0  0  0  0  0  0  0  0  0  0  0
  143.5658   72.2801  221.8918 H   0  0  0  0  0  0  0  0  0  0  0  0
  142.6809   72.9166  219.0204 H   0  0  0  0  0  0  0  0  0  0  0  0
  141.5558   72.9616  220.4191 H   0  0  0  0  0  0  0  0  0  0  0  0
  139.0942   69.8731  222.1281 H   0  0  0  0  0  0  0  0  0  0  0  0
  139.1528   68.2386  223.9993 H   0  0  0  0  0  0  0  0  0  0  0  0
  139.7273   67.7966  226.2703 H   0  0  0  0  0  0  0  0  0  0  0  0
  141.4927   70.8788  228.6874 H   0  0  0  0  0  0  0  0  0  0  0  0
  141.3996   72.4635  226.7780 H   0  0  0  0  0  0  0  0  0  0  0  0
  1  2  2  0
  2  3  1  0
  3  4  1  0
  4  5  1  0
  5  6  2  0
  5  7  1  0
  7  8  1  0
  8  9  1  0
  9 10  1  0
 10 11  1  0
 11 12  1  0
 12 13  1  0
 13 14  1  0
 14 15  1  0
 15 16  1  0
 16 17  1  0
 17 18  1  0
  2 19  1  0
 19 20  2  0
 20 21  1  0
 21 22  2  0
 22 23  1  0
 23 24  2  0
 24 25  1  0
 24 26  1  0
 26 27  2  0
 27 28  1  0
 28 29  2  0
 12  7  1  0
 18 13  1  0
 29 19  1  0
 28 22  1  0
  3 30  1  0
  4 31  1  0
  4 32  1  0
  8 33  1  0
  8 34  1  0
  9 35  1  0
  9 36  1  0
 10 37  1  0
 10 38  1  0
 11 39  1  0
 11 40  1  0
 12 41  1  6
 13 42  1  0
 14 43  1  0
 14 44  1  0
 15 45  1  0
 15 46  1  0
 16 47  1  0
 16 48  1  0
 17 49  1  0
 17 50  1  0
 18 51  1  0
 18 52  1  0
 20 53  1  0
 21 54  1  0
 23 55  1  0
 26 56  1  0
 27 57  1  0
M  END
>  <meeko>  (1) 
{"free_energy": -8.35, "intermolecular_energy": -9.84, "internal_energy": -2.16, "cluster_size": 16, "cluster_id": 1, "rank_in_cluster": 15}

$$$$

     RDKit          3D

 57 60  0  0  0  0  0  0  0  0999 V2000
  134.7080   68.2990  224.8930 O   0  0  0  0  0  0  0  0  0  0  0  0
  135.1580   69.4630  224.6220 C   0  0  0  0  0  0  0  0  0  0  0  0
  136.2450   69.6360  223.7000 N   0  0  0  0  0  0  0  0  0  0  0  0
  136.8280   68.4880  223.0790 C   0  0  0  0  0  0  0  0  0  0  0  0
  138.2900   68.3750  223.3560 C   0  0  0  0  0  0  0  0  0  0  0  0
  138.7460   67.2080  223.4170 O   0  0  0  0  0  0  0  0  0  0  0  0
  139.0470   69.5550  223.5260 N   0  0  0  0  0  0  0  0  0  0  0  0
  138.9540   70.5990  222.4830 C   0  0  0  0  0  0  0  0  0  0  0  0
  140.2990   71.3310  222.4470 C   0  0  0  0  0  0  0  0  0  0  0  0
  140.5350   72.0490  223.7650 C   0  0  0  0  0  0  0  0  0  0  0  0
  139.7590   71.3420  224.8860 C   0  0  0  0  0  0  0  0  0  0  0  0
  139.9180   69.8570  224.6290 C   0  0  1  0  0  0  0  0  0  0  0  0
  139.8000   68.9970  225.8270 C   0  0  0  0  0  0  0  0  0  0  0  0
  139.1540   69.6350  227.0270 C   0  0  0  0  0  0  0  0  0  0  0  0
  140.1750   70.0570  228.0630 C   0  0  0  0  0  0  0  0  0  0  0  0
  140.9950   68.8840  228.5480 C   0  0  0  0  0  0  0  0  0  0  0  0
  141.0810   67.7590  227.5390 C   0  0  0  0  0  0  0  0  0  0  0  0
  141.1530   68.4250  226.1790 C   0  0  0  0  0  0  0  0  0  0  0  0
  134.5720   70.6610  225.2500 C   0  0  0  0  0  0  0  0  0  0  0  0
  133.6260   70.4780  226.2400 C   0  0  0  0  0  0  0  0  0  0  0  0
  133.0160   71.5260  226.8920 C   0  0  0  0  0  0  0  0  0  0  0  0
  133.4050   72.8050  226.4990 C   0  0  0  0  0  0  0  0  0  0  0  0
  132.8210   73.8810  227.1250 C   0  0  0  0  0  0  0  0  0  0  0  0
  133.1920   75.1530  226.7520 C   0  0  0  0  0  0  0  0  0  0  0  0
  132.4670   76.5440  227.5280 Cl  0  0  0  0  0  0  0  0  0  0  0  0
  134.1430   75.3240  225.7560 C   0  0  0  0  0  0  0  0  0  0  0  0
  134.7290   74.2360  225.1290 C   0  0  0  0  0  0  0  0  0  0  0  0
  134.3560   72.9710  225.5040 C   0  0  0  0  0  0  0  0  0  0  0  0
  134.9320   71.9070  224.8870 N   0  0  0  0  0  0  0  0  0  0  0  0
  136.5770   70.6040  223.5120 H   0  0  0  0  0  0  0  0  0  0  0  0
  136.3253   67.5866  223.4593 H   0  0  0  0  0  0  0  0  0  0  0  0
  136.6987   68.5917  221.9916 H   0  0  0  0  0  0  0  0  0  0  0  0
  138.7510   70.1370  221.5056 H   0  0  0  0  0  0  0  0  0  0  0  0
  138.1361   71.2998  222.7065 H   0  0  0  0  0  0  0  0  0  0  0  0
  141.1059   70.6024  222.2794 H   0  0  0  0  0  0  0  0  0  0  0  0
  140.2871   72.0686  221.6310 H   0  0  0  0  0  0  0  0  0  0  0  0
  141.6094   72.0373  224.0005 H   0  0  0  0  0  0  0  0  0  0  0  0
  140.1866   73.0890  223.6807 H   0  0  0  0  0  0  0  0  0  0  0  0
  140.1783   71.6074  225.8677 H   0  0  0  0  0  0  0  0  0  0  0  0
  138.7000   71.6393  224.8935 H   0  0  0  0  0  0  0  0  0  0  0  0
  140.9533   69.6101  224.3513 H   0  0  0  0  0  0  0  0  0  0  0  0
  139.1014   68.1956  225.5447 H   0  0  0  0  0  0  0  0  0  0  0  0
  138.5933   70.5226  226.6987 H   0  0  0  0  0  0  0  0  0  0  0  0
  138.4874   68.8922  227.4894 H   0  0  0  0  0  0  0  0  0  0  0  0
  140.8489   70.8030  227.6165 H   0  0  0  0  0  0  0  0  0  0  0  0
  139.6362   70.4789  228.9242 H   0  0  0  0  0  0  0  0  0  0  0  0
  142.0139   69.2362  228.7666 H   0  0  0  0  0  0  0  0  0  0  0  0
  140.4955   68.4835  229.4425 H   0  0  0  0  0  0  0  0  0  0  0  0
  141.9821   67.1537  227.7168 H   0  0  0  0  0  0  0  0  0  0  0  0
  140.2159   67.0836  227.6126 H   0  0  0  0  0  0  0  0  0  0  0  0
  141.8976   69.2342  226.2058 H   0  0  0  0  0  0  0  0  0  0  0  0
  141.4458   67.6827  225.4219 H   0  0  0  0  0  0  0  0  0  0  0  0
  133.3482   69.4510  226.5193 H   0  0  0  0  0  0  0  0  0  0  0  0
  132.2643   71.3629  227.6784 H   0  0  0  0  0  0  0  0  0  0  0  0
  132.0683   73.7275  227.9124 H   0  0  0  0  0  0  0  0  0  0  0  0
  134.4370   76.3415  225.4589 H   0  0  0  0  0  0  0  0  0  0  0  0
  135.4826   74.3851  224.3417 H   0  0  0  0  0  0  0  0  0  0  0  0
  1  2  2  0
  2  3  1  0
  3  4  1  0
  4  5  1  0
  5  6  2  0
  5  7  1  0
  7  8  1  0
  8  9  1  0
  9 10  1  0
 10 11  1  0
 11 12  1  0
 12 13  1  0
 13 14  1  0
 14 15  1  0
 15 16  1  0
 16 17  1  0
 17 18  1  0
  2 19  1  0
 19 20  2  0
 20 21  1  0
 21 22  2  0
 22 23  1  0
 23 24  2  0
 24 25  1  0
 24 26  1  0
 26 27  2  0
 27 28  1  0
 28 29  2  0
 12  7  1  0
 18 13  1  0
 29 19  1  0
 28 22  1  0
  3 30  1  0
  4 31  1  0
  4 32  1  0
  8 33  1  0
  8 34  1  0
  9 35  1  0
  9 36  1  0
 10 37  1  0
 10 38  1  0
 11 39  1  0
 11 40  1  0
 12 41  1  6
 13 42  1  0
 14 43  1  0
 14 44  1  0
 15 45  1  0
 15 46  1  0
 16 47  1  0
 16 48  1  0
 17 49  1  0
 17 50  1  0
 18 51  1  0
 18 52  1  0
 20 53  1  0
 21 54  1  0
 23 55  1  0
 26 56  1  0
 27 57  1  0
M  END
>  <meeko>  (2) 
{"free_energy": -7.98, "intermolecular_energy": -9.48, "internal_energy": -2.06, "cluster_size": 3, "cluster_id": 3, "rank_in_cluster": 1}

$$$$

     RDKit          3D

 57 60  0  0  0  0  0  0  0  0999 V2000
  140.4690   72.3610  220.6770 O   0  0  0  0  0  0  0  0  0  0  0  0
  140.1620   72.8020  221.8360 C   0  0  0  0  0  0  0  0  0  0  0  0
  139.8380   74.1860  222.0350 N   0  0  0  0  0  0  0  0  0  0  0  0
  139.8610   75.0790  220.9190 C   0  0  0  0  0  0  0  0  0  0  0  0
  140.0610   76.4990  221.3340 C   0  0  0  0  0  0  0  0  0  0  0  0
  139.5680   76.8200  222.4420 O   0  0  0  0  0  0  0  0  0  0  0  0
  140.7710   77.3690  220.4760 N   0  0  0  0  0  0  0  0  0  0  0  0
  140.6410   77.1680  219.0180 C   0  0  0  0  0  0  0  0  0  0  0  0
  141.9570   77.6170  218.3740 C   0  0  0  0  0  0  0  0  0  0  0  0
  142.1610   79.1060  218.5960 C   0  0  0  0  0  0  0  0  0  0  0  0
  141.4100   79.5510  219.8590 C   0  0  0  0  0  0  0  0  0  0  0  0
  141.6270   78.4510  220.8790 C   0  0  1  0  0  0  0  0  0  0  0  0
  141.5390   78.8810  222.2930 C   0  0  0  0  0  0  0  0  0  0  0  0
  140.3610   79.7500  222.6380 C   0  0  0  0  0  0  0  0  0  0  0  0
  140.7480   81.2100  222.7550 C   0  0  0  0  0  0  0  0  0  0  0  0
  141.8060   81.4230  223.8120 C   0  0  0  0  0  0  0  0  0  0  0  0
  142.6570   80.1960  224.0600 C   0  0  0  0  0  0  0  0  0  0  0  0
  142.8360   79.5340  222.7080 C   0  0  0  0  0  0  0  0  0  0  0  0
  140.1320   71.8980  223.0000 C   0  0  0  0  0  0  0  0  0  0  0  0
  139.5700   70.6470  222.8370 C   0  0  0  0  0  0  0  0  0  0  0  0
  139.4910   69.7260  223.8570 C   0  0  0  0  0  0  0  0  0  0  0  0
  140.0150   70.1230  225.0850 C   0  0  0  0  0  0  0  0  0  0  0  0
  139.9570   69.2320  226.1320 C   0  0  0  0  0  0  0  0  0  0  0  0
  140.4700   69.6040  227.3540 C   0  0  0  0  0  0  0  0  0  0  0  0
  140.4110   68.4950  228.7070 Cl  0  0  0  0  0  0  0  0  0  0  0  0
  141.0330   70.8630  227.5060 C   0  0  0  0  0  0  0  0  0  0  0  0
  141.0880   71.7560  226.4480 C   0  0  0  0  0  0  0  0  0  0  0  0
  140.5760   71.3810  225.2320 C   0  0  0  0  0  0  0  0  0  0  0  0
  140.6330   72.2590  224.1970 N   0  0  0  0  0  0  0  0  0  0  0  0
  139.5960   74.4970  222.9970 H   0  0  0  0  0  0  0  0  0  0  0  0
  140.6832   74.7870  220.2491 H   0  0  0  0  0  0  0  0  0  0  0  0
  138.8868   75.0103  220.4128 H   0  0  0  0  0  0  0  0  0  0  0  0
  140.4591   76.1053  218.7998 H   0  0  0  0  0  0  0  0  0  0  0  0
  139.7959   77.7488  218.6199 H   0  0  0  0  0  0  0  0  0  0  0  0
  142.7923   77.0631  218.8273 H   0  0  0  0  0  0  0  0  0  0  0  0
  141.9185   77.4143  217.2935 H   0  0  0  0  0  0  0  0  0  0  0  0
  143.2344   79.3135  218.7172 H   0  0  0  0  0  0  0  0  0  0  0  0
  141.7723   79.6593  217.7283 H   0  0  0  0  0  0  0  0  0  0  0  0
  141.8164   80.5032  220.2305 H   0  0  0  0  0  0  0  0  0  0  0  0
  140.3404   79.7110  219.6582 H   0  0  0  0  0  0  0  0  0  0  0  0
  142.6716   78.1063  220.8767 H   0  0  0  0  0  0  0  0  0  0  0  0
  141.3664   77.9603  222.8697 H   0  0  0  0  0  0  0  0  0  0  0  0
  139.6003   79.6462  221.8502 H   0  0  0  0  0  0  0  0  0  0  0  0
  139.9711   79.4226  223.6131 H   0  0  0  0  0  0  0  0  0  0  0  0
  141.1376   81.5546  221.7857 H   0  0  0  0  0  0  0  0  0  0  0  0
  139.8532   81.7805  223.0447 H   0  0  0  0  0  0  0  0  0  0  0  0
  142.4626   82.2443  223.4889 H   0  0  0  0  0  0  0  0  0  0  0  0
  141.2858   81.6555  224.7529 H   0  0  0  0  0  0  0  0  0  0  0  0
  143.6331   80.4852  224.4766 H   0  0  0  0  0  0  0  0  0  0  0  0
  142.1835   79.5157  224.7832 H   0  0  0  0  0  0  0  0  0  0  0  0
  143.1200   80.2919  221.9631 H   0  0  0  0  0  0  0  0  0  0  0  0
  143.6262   78.7717  222.7741 H   0  0  0  0  0  0  0  0  0  0  0  0
  139.1683   70.3749  221.8498 H   0  0  0  0  0  0  0  0  0  0  0  0
  139.0399   68.7335  223.7107 H   0  0  0  0  0  0  0  0  0  0  0  0
  139.5075   68.2375  225.9945 H   0  0  0  0  0  0  0  0  0  0  0  0
  141.4428   71.1573  228.4835 H   0  0  0  0  0  0  0  0  0  0  0  0
  141.5360   72.7517  226.5814 H   0  0  0  0  0  0  0  0  0  0  0  0
  1  2  2  0
  2  3  1  0
  3  4  1  0
  4  5  1  0
  5  6  2  0
  5  7  1  0
  7  8  1  0
  8  9  1  0
  9 10  1  0
 10 11  1  0
 11 12  1  0
 12 13  1  0
 13 14  1  0
 14 15  1  0
 15 16  1  0
 16 17  1  0
 17 18  1  0
  2 19  1  0
 19 20  2  0
 20 21  1  0
 21 22  2  0
 22 23  1  0
 23 24  2  0
 24 25  1  0
 24 26  1  0
 26 27  2  0
 27 28  1  0
 28 29  2  0
 12  7  1  0
 18 13  1  0
 29 19  1  0
 28 22  1  0
  3 30  1  0
  4 31  1  0
  4 32  1  0
  8 33  1  0
  8 34  1  0
  9 35  1  0
  9 36  1  0
 10 37  1  0
 10 38  1  0
 11 39  1  0
 11 40  1  0
 12 41  1  1
 13 42  1  0
 14 43  1  0
 14 44  1  0
 15 45  1  0
 15 46  1  0
 16 47  1  0
 16 48  1  0
 17 49  1  0
 17 50  1  0
 18 51  1  0
 18 52  1  0
 20 53  1  0
 21 54  1  0
 23 55  1  0
 26 56  1  0
 27 57  1  0
M  END
>  <meeko>  (3) 
{"free_energy": -9.07, "intermolecular_energy": -10.56, "internal_energy": -1.76, "cluster_size": 16, "cluster_id": 1, "rank_in_cluster": 12}

$$$$

     RDKit          3D

 57 60  0  0  0  0  0  0  0  0999 V2000
  140.1950   72.0860  220.7880 O   0  0  0  0  0  0  0  0  0  0  0  0
  139.7670   72.4360  221.9390 C   0  0  0  0  0  0  0  0  0  0  0  0
  139.1510   73.7170  222.1380 N   0  0  0  0  0  0  0  0  0  0  0  0
  139.0160   74.6090  221.0290 C   0  0  0  0  0  0  0  0  0  0  0  0
  139.6710   75.9270  221.2790 C   0  0  0  0  0  0  0  0  0  0  0  0
  139.0900   76.6800  222.0970 O   0  0  0  0  0  0  0  0  0  0  0  0
  140.8700   76.2350  220.5990 N   0  0  0  0  0  0  0  0  0  0  0  0
  141.3350   75.3020  219.5510 C   0  0  0  0  0  0  0  0  0  0  0  0
  142.8660   75.3720  219.5210 C   0  0  0  0  0  0  0  0  0  0  0  0
  143.3120   76.7620  219.1000 C   0  0  0  0  0  0  0  0  0  0  0  0
  142.2250   77.7870  219.4560 C   0  0  0  0  0  0  0  0  0  0  0  0
  141.7050   77.3830  220.8220 C   0  0  1  0  0  0  0  0  0  0  0  0
  141.1260   78.4840  221.6230 C   0  0  0  0  0  0  0  0  0  0  0  0
  141.4900   79.8750  221.1790 C   0  0  0  0  0  0  0  0  0  0  0  0
  142.5620   80.4880  222.0570 C   0  0  0  0  0  0  0  0  0  0  0  0
  142.1240   80.5630  223.5010 C   0  0  0  0  0  0  0  0  0  0  0  0
  141.0840   79.5240  223.8640 C   0  0  0  0  0  0  0  0  0  0  0  0
  141.4530   78.2770  223.0830 C   0  0  0  0  0  0  0  0  0  0  0  0
  139.8960   71.5310  223.0960 C   0  0  0  0  0  0  0  0  0  0  0  0
  139.4920   70.2190  222.9420 C   0  0  0  0  0  0  0  0  0  0  0  0
  139.5680   69.2910  223.9560 C   0  0  0  0  0  0  0  0  0  0  0  0
  140.0840   69.7460  225.1680 C   0  0  0  0  0  0  0  0  0  0  0  0
  140.1780   68.8510  226.2080 C   0  0  0  0  0  0  0  0  0  0  0  0
  140.6860   69.2810  227.4140 C   0  0  0  0  0  0  0  0  0  0  0  0
  140.8190   68.1680  228.7590 Cl  0  0  0  0  0  0  0  0  0  0  0  0
  141.0890   70.6010  227.5560 C   0  0  0  0  0  0  0  0  0  0  0  0
  140.9920   71.4970  226.5050 C   0  0  0  0  0  0  0  0  0  0  0  0
  140.4860   71.0650  225.3050 C   0  0  0  0  0  0  0  0  0  0  0  0
  140.3920   71.9470  224.2760 N   0  0  0  0  0  0  0  0  0  0  0  0
  138.8200   73.9560  223.0940 H   0  0  0  0  0  0  0  0  0  0  0  0
  139.4783   74.1463  220.1446 H   0  0  0  0  0  0  0  0  0  0  0  0
  137.9426   74.7910  220.8723 H   0  0  0  0  0  0  0  0  0  0  0  0
  141.0101   74.2782  219.7881 H   0  0  0  0  0  0  0  0  0  0  0  0
  140.9145   75.5766  218.5723 H   0  0  0  0  0  0  0  0  0  0  0  0
  143.2609   75.1502  220.5234 H   0  0  0  0  0  0  0  0  0  0  0  0
  143.2481   74.6350  218.7993 H   0  0  0  0  0  0  0  0  0  0  0  0
  144.2438   77.0209  219.6241 H   0  0  0  0  0  0  0  0  0  0  0  0
  143.4820   76.7754  218.0133 H   0  0  0  0  0  0  0  0  0  0  0  0
  142.6518   78.8001  219.4932 H   0  0  0  0  0  0  0  0  0  0  0  0
  141.4210   77.8006  218.7054 H   0  0  0  0  0  0  0  0  0  0  0  0
  142.5292   77.1059  221.4958 H   0  0  0  0  0  0  0  0  0  0  0  0
  140.0401   78.4288  221.4566 H   0  0  0  0  0  0  0  0  0  0  0  0
  141.8601   79.8321  220.1440 H   0  0  0  0  0  0  0  0  0  0  0  0
  140.5895   80.5024  221.2535 H   0  0  0  0  0  0  0  0  0  0  0  0
  143.4716   79.8729  221.9916 H   0  0  0  0  0  0  0  0  0  0  0  0
  142.7529   81.5116  221.7022 H   0  0  0  0  0  0  0  0  0  0  0  0
  143.0055   80.4139  224.1419 H   0  0  0  0  0  0  0  0  0  0  0  0
  141.6652   81.5512  223.6524 H   0  0  0  0  0  0  0  0  0  0  0  0
  141.1078   79.3199  224.9446 H   0  0  0  0  0  0  0  0  0  0  0  0
  140.0677   79.8673  223.6207 H   0  0  0  0  0  0  0  0  0  0  0  0
  142.5295   78.0799  223.1936 H   0  0  0  0  0  0  0  0  0  0  0  0
  140.8825   77.4195  223.4692 H   0  0  0  0  0  0  0  0  0  0  0  0
  139.0924   69.9022  221.9673 H   0  0  0  0  0  0  0  0  0  0  0  0
  139.2403   68.2501  223.8175 H   0  0  0  0  0  0  0  0  0  0  0  0
  139.8526   67.8082  226.0788 H   0  0  0  0  0  0  0  0  0  0  0  0
  141.4928   70.9417  228.5208 H   0  0  0  0  0  0  0  0  0  0  0  0
  141.3161   72.5407  226.6303 H   0  0  0  0  0  0  0  0  0  0  0  0
  1  2  2  0
  2  3  1  0
  3  4  1  0
  4  5  1  0
  5  6  2  0
  5  7  1  0
  7  8  1  0
  8  9  1  0
  9 10  1  0
 10 11  1  0
 11 12  1  0
 12 13  1  0
 13 14  1  0
 14 15  1  0
 15 16  1  0
 16 17  1  0
 17 18  1  0
  2 19  1  0
 19 20  2  0
 20 21  1  0
 21 22  2  0
 22 23  1  0
 23 24  2  0
 24 25  1  0
 24 26  1  0
 26 27  2  0
 27 28  1  0
 28 29  2  0
 12  7  1  0
 18 13  1  0
 29 19  1  0
 28 22  1  0
  3 30  1  0
  4 31  1  0
  4 32  1  0
  8 33  1  0
  8 34  1  0
  9 35  1  0
  9 36  1  0
 10 37  1  0
 10 38  1  0
 11 39  1  0
 11 40  1  0
 12 41  1  1
 13 42  1  0
 14 43  1  0
 14 44  1  0
 15 45  1  0
 15 46  1  0
 16 47  1  0
 16 48  1  0
 17 49  1  0
 17 50  1  0
 18 51  1  0
 18 52  1  0
 20 53  1  0
 21 54  1  0
 23 55  1  0
 26 56  1  0
 27 57  1  0
M  END
>  <meeko>  (4) 
{"free_energy": -9.33, "intermolecular_energy": -10.83, "internal_energy": -1.51, "cluster_size": 16, "cluster_id": 1, "rank_in_cluster": 3}

$$$$

     RDKit          3D

 57 60  0  0  0  0  0  0  0  0999 V2000
  140.3900   72.2660  220.8740 O   0  0  0  0  0  0  0  0  0  0  0  0
  139.8170   72.5330  221.9830 C   0  0  0  0  0  0  0  0  0  0  0  0
  139.0540   73.7400  222.1460 N   0  0  0  0  0  0  0  0  0  0  0  0
  138.9380   74.6490  221.0490 C   0  0  0  0  0  0  0  0  0  0  0  0
  139.6290   75.9460  221.3130 C   0  0  0  0  0  0  0  0  0  0  0  0
  139.0700   76.7040  222.1410 O   0  0  0  0  0  0  0  0  0  0  0  0
  140.8340   76.2300  220.6320 N   0  0  0  0  0  0  0  0  0  0  0  0
  141.2880   75.2790  219.5950 C   0  0  0  0  0  0  0  0  0  0  0  0
  142.8190   75.3290  219.5680 C   0  0  0  0  0  0  0  0  0  0  0  0
  143.2860   76.7080  219.1330 C   0  0  0  0  0  0  0  0  0  0  0  0
  142.2120   77.7510  219.4760 C   0  0  0  0  0  0  0  0  0  0  0  0
  141.6840   77.3690  220.8440 C   0  0  1  0  0  0  0  0  0  0  0  0
  141.1180   78.4860  221.6320 C   0  0  0  0  0  0  0  0  0  0  0  0
  141.4930   79.8670  221.1680 C   0  0  0  0  0  0  0  0  0  0  0  0
  142.5740   80.4820  222.0340 C   0  0  0  0  0  0  0  0  0  0  0  0
  142.1420   80.5810  223.4780 C   0  0  0  0  0  0  0  0  0  0  0  0
  141.0940   79.5570  223.8590 C   0  0  0  0  0  0  0  0  0  0  0  0
  141.4480   78.2960  223.0940 C   0  0  0  0  0  0  0  0  0  0  0  0
  139.9230   71.6090  223.1270 C   0  0  0  0  0  0  0  0  0  0  0  0
  139.4920   70.3090  222.9530 C   0  0  0  0  0  0  0  0  0  0  0  0
  139.5470   69.3650  223.9540 C   0  0  0  0  0  0  0  0  0  0  0  0
  140.0680   69.7920  225.1740 C   0  0  0  0  0  0  0  0  0  0  0  0
  140.1400   68.8800  226.2010 C   0  0  0  0  0  0  0  0  0  0  0  0
  140.6520   69.2810  227.4140 C   0  0  0  0  0  0  0  0  0  0  0  0
  140.7580   68.1470  228.7430 Cl  0  0  0  0  0  0  0  0  0  0  0  0
  141.0820   70.5910  227.5770 C   0  0  0  0  0  0  0  0  0  0  0  0
  141.0060   71.5040  226.5380 C   0  0  0  0  0  0  0  0  0  0  0  0
  140.4960   71.1000  225.3310 C   0  0  0  0  0  0  0  0  0  0  0  0
  140.4230   71.9990  224.3150 N   0  0  0  0  0  0  0  0  0  0  0  0
  138.6070   73.9130  223.0690 H   0  0  0  0  0  0  0  0  0  0  0  0
  139.3842   74.1856  220.1567 H   0  0  0  0  0  0  0  0  0  0  0  0
  137.8691   74.8613  220.8991 H   0  0  0  0  0  0  0  0  0  0  0  0
  140.9491   74.2622  219.8427 H   0  0  0  0  0  0  0  0  0  0  0  0
  140.8727   75.5476  218.6124 H   0  0  0  0  0  0  0  0  0  0  0  0
  143.2084   75.1130  220.5738 H   0  0  0  0  0  0  0  0  0  0  0  0
  143.1924   74.5795  218.8547 H   0  0  0  0  0  0  0  0  0  0  0  0
  144.2202   76.9595  219.6564 H   0  0  0  0  0  0  0  0  0  0  0  0
  143.4594   76.7077  218.0468 H   0  0  0  0  0  0  0  0  0  0  0  0
  142.6522   78.7587  219.5035 H   0  0  0  0  0  0  0  0  0  0  0  0
  141.4098   77.7671  218.7235 H   0  0  0  0  0  0  0  0  0  0  0  0
  142.5034   77.0882  221.5220 H   0  0  0  0  0  0  0  0  0  0  0  0
  140.0310   78.4384  221.4701 H   0  0  0  0  0  0  0  0  0  0  0  0
  141.8589   79.8067  220.1324 H   0  0  0  0  0  0  0  0  0  0  0  0
  140.5986   80.5036  221.2372 H   0  0  0  0  0  0  0  0  0  0  0  0
  143.4776   79.8575  221.9739 H   0  0  0  0  0  0  0  0  0  0  0  0
  142.7732   81.4988  221.6645 H   0  0  0  0  0  0  0  0  0  0  0  0
  143.0244   80.4327  224.1178 H   0  0  0  0  0  0  0  0  0  0  0  0
  141.6929   81.5754  223.6172 H   0  0  0  0  0  0  0  0  0  0  0  0
  141.1201   79.3675  224.9422 H   0  0  0  0  0  0  0  0  0  0  0  0
  140.0800   79.9065  223.6147 H   0  0  0  0  0  0  0  0  0  0  0  0
  142.5229   78.0899  223.2037 H   0  0  0  0  0  0  0  0  0  0  0  0
  140.8703   77.4496  223.4938 H   0  0  0  0  0  0  0  0  0  0  0  0
  139.0875   70.0149  221.9733 H   0  0  0  0  0  0  0  0  0  0  0  0
  139.1995   68.3328  223.7995 H   0  0  0  0  0  0  0  0  0  0  0  0
  139.7938   67.8461  226.0552 H   0  0  0  0  0  0  0  0  0  0  0  0
  141.4900   70.9093  228.5477 H   0  0  0  0  0  0  0  0  0  0  0  0
  141.3501   72.5392  226.6793 H   0  0  0  0  0  0  0  0  0  0  0  0
  1  2  2  0
  2  3  1  0
  3  4  1  0
  4  5  1  0
  5  6  2  0
  5  7  1  0
  7  8  1  0
  8  9  1  0
  9 10  1  0
 10 11  1  0
 11 12  1  0
 12 13  1  0
 13 14  1  0
 14 15  1  0
 15 16  1  0
 16 17  1  0
 17 18  1  0
  2 19  1  0
 19 20  2  0
 20 21  1  0
 21 22  2  0
 22 23  1  0
 23 24  2  0
 24 25  1  0
 24 26  1  0
 26 27  2  0
 27 28  1  0
 28 29  2  0
 12  7  1  0
 18 13  1  0
 29 19  1  0
 28 22  1  0
  3 30  1  0
  4 31  1  0
  4 32  1  0
  8 33  1  0
  8 34  1  0
  9 35  1  0
  9 36  1  0
 10 37  1  0
 10 38  1  0
 11 39  1  0
 11 40  1  0
 12 41  1  1
 13 42  1  0
 14 43  1  0
 14 44  1  0
 15 45  1  0
 15 46  1  0
 16 47  1  0
 16 48  1  0
 17 49  1  0
 17 50  1  0
 18 51  1  0
 18 52  1  0
 20 53  1  0
 21 54  1  0
 23 55  1  0
 26 56  1  0
 27 57  1  0
M  END
>  <meeko>  (5) 
{"free_energy": -9.36, "intermolecular_energy": -10.85, "internal_energy": -1.5, "cluster_size": 16, "cluster_id": 1, "rank_in_cluster": 1}

$$$$

     RDKit          3D

 57 60  0  0  0  0  0  0  0  0999 V2000
  136.5180   77.7660  222.5350 O   0  0  0  0  0  0  0  0  0  0  0  0
  136.6890   76.5810  222.9780 C   0  0  0  0  0  0  0  0  0  0  0  0
  137.8640   75.8300  222.6370 N   0  0  0  0  0  0  0  0  0  0  0  0
  138.8530   76.4210  221.7900 C   0  0  0  0  0  0  0  0  0  0  0  0
  140.0730   75.5710  221.6640 C   0  0  0  0  0  0  0  0  0  0  0  0
  140.0760   74.5150  222.3410 O   0  0  0  0  0  0  0  0  0  0  0  0
  141.1180   75.9960  220.8140 N   0  0  0  0  0  0  0  0  0  0  0  0
  141.6030   75.0540  219.7820 C   0  0  0  0  0  0  0  0  0  0  0  0
  143.0870   75.3550  219.5490 C   0  0  0  0  0  0  0  0  0  0  0  0
  143.2500   76.7530  218.9780 C   0  0  0  0  0  0  0  0  0  0  0  0
  142.0590   77.6280  219.3990 C   0  0  0  0  0  0  0  0  0  0  0  0
  141.7750   77.2730  220.8450 C   0  0  1  0  0  0  0  0  0  0  0  0
  141.1220   78.3400  221.6360 C   0  0  0  0  0  0  0  0  0  0  0  0
  141.3950   79.7480  221.1810 C   0  0  0  0  0  0  0  0  0  0  0  0
  142.4210   80.4380  222.0580 C   0  0  0  0  0  0  0  0  0  0  0  0
  141.9740   80.4950  223.5000 C   0  0  0  0  0  0  0  0  0  0  0  0
  141.0040   79.3930  223.8680 C   0  0  0  0  0  0  0  0  0  0  0  0
  141.4570   78.1670  223.0990 C   0  0  0  0  0  0  0  0  0  0  0  0
  135.6820   75.9520  223.8530 C   0  0  0  0  0  0  0  0  0  0  0  0
  134.7400   76.7680  224.4480 C   0  0  0  0  0  0  0  0  0  0  0  0
  133.7560   76.2850  225.2810 C   0  0  0  0  0  0  0  0  0  0  0  0
  133.7560   74.9090  225.5000 C   0  0  0  0  0  0  0  0  0  0  0  0
  132.7890   74.3850  226.3270 C   0  0  0  0  0  0  0  0  0  0  0  0
  132.7710   73.0280  226.5560 C   0  0  0  0  0  0  0  0  0  0  0  0
  131.5550   72.3280  227.6030 Cl  0  0  0  0  0  0  0  0  0  0  0  0
  133.7230   72.2190  225.9520 C   0  0  0  0  0  0  0  0  0  0  0  0
  134.6950   72.7530  225.1200 C   0  0  0  0  0  0  0  0  0  0  0  0
  134.7090   74.1050  224.8950 C   0  0  0  0  0  0  0  0  0  0  0  0
  135.6620   74.6250  224.0790 N   0  0  0  0  0  0  0  0  0  0  0  0
  137.9580   74.8680  223.0210 H   0  0  0  0  0  0  0  0  0  0  0  0
  138.4197   76.5681  220.7897 H   0  0  0  0  0  0  0  0  0  0  0  0
  139.1548   77.3773  222.2421 H   0  0  0  0  0  0  0  0  0  0  0  0
  141.4796   74.0180  220.1306 H   0  0  0  0  0  0  0  0  0  0  0  0
  141.0316   75.1712  218.8494 H   0  0  0  0  0  0  0  0  0  0  0  0
  143.6270   75.2867  220.5049 H   0  0  0  0  0  0  0  0  0  0  0  0
  143.4962   74.6238  218.8363 H   0  0  0  0  0  0  0  0  0  0  0  0
  144.1819   77.1967  219.3584 H   0  0  0  0  0  0  0  0  0  0  0  0
  143.2888   76.6953  217.8802 H   0  0  0  0  0  0  0  0  0  0  0  0
  142.3165   78.6937  219.3099 H   0  0  0  0  0  0  0  0  0  0  0  0
  141.1816   77.4516  218.7595 H   0  0  0  0  0  0  0  0  0  0  0  0
  142.7069   77.1864  221.4230 H   0  0  0  0  0  0  0  0  0  0  0  0
  140.0425   78.2117  221.4679 H   0  0  0  0  0  0  0  0  0  0  0  0
  141.7714   79.7209  220.1478 H   0  0  0  0  0  0  0  0  0  0  0  0
  140.4548   80.3152  221.2465 H   0  0  0  0  0  0  0  0  0  0  0  0
  143.3697   79.8843  222.0003 H   0  0  0  0  0  0  0  0  0  0  0  0
  142.5445   81.4693  221.6957 H   0  0  0  0  0  0  0  0  0  0  0  0
  142.8612   80.4094  224.1446 H   0  0  0  0  0  0  0  0  0  0  0  0
  141.4505   81.4519  223.6422 H   0  0  0  0  0  0  0  0  0  0  0  0
  141.0372   79.1997  224.9504 H   0  0  0  0  0  0  0  0  0  0  0  0
  139.9682   79.6665  223.6184 H   0  0  0  0  0  0  0  0  0  0  0  0
  142.5438   78.0423  223.2143 H   0  0  0  0  0  0  0  0  0  0  0  0
  140.9430   77.2769  223.4908 H   0  0  0  0  0  0  0  0  0  0  0  0
  134.7775   77.8490  224.2480 H   0  0  0  0  0  0  0  0  0  0  0  0
  133.0121   76.9478  225.7472 H   0  0  0  0  0  0  0  0  0  0  0  0
  132.0418   75.0407  226.7979 H   0  0  0  0  0  0  0  0  0  0  0  0
  133.7062   71.1347  226.1366 H   0  0  0  0  0  0  0  0  0  0  0  0
  135.4442   72.1010  224.6472 H   0  0  0  0  0  0  0  0  0  0  0  0
  1  2  2  0
  2  3  1  0
  3  4  1  0
  4  5  1  0
  5  6  2  0
  5  7  1  0
  7  8  1  0
  8  9  1  0
  9 10  1  0
 10 11  1  0
 11 12  1  0
 12 13  1  0
 13 14  1  0
 14 15  1  0
 15 16  1  0
 16 17  1  0
 17 18  1  0
  2 19  1  0
 19 20  2  0
 20 21  1  0
 21 22  2  0
 22 23  1  0
 23 24  2  0
 24 25  1  0
 24 26  1  0
 26 27  2  0
 27 28  1  0
 28 29  2  0
 12  7  1  0
 18 13  1  0
 29 19  1  0
 28 22  1  0
  3 30  1  0
  4 31  1  0
  4 32  1  0
  8 33  1  0
  8 34  1  0
  9 35  1  0
  9 36  1  0
 10 37  1  0
 10 38  1  0
 11 39  1  0
 11 40  1  0
 12 41  1  1
 13 42  1  0
 14 43  1  0
 14 44  1  0
 15 45  1  0
 15 46  1  0
 16 47  1  0
 16 48  1  0
 17 49  1  0
 17 50  1  0
 18 51  1  0
 18 52  1  0
 20 53  1  0
 21 54  1  0
 23 55  1  0
 26 56  1  0
 27 57  1  0
M  END
>  <meeko>  (6) 
{"free_energy": -8.15, "intermolecular_energy": -9.64, "internal_energy": -2.06, "cluster_size": 1, "cluster_id": 2, "rank_in_cluster": 1}

$$$$

     RDKit          3D

 57 60  0  0  0  0  0  0  0  0999 V2000
  140.5120   72.4410  220.7900 O   0  0  0  0  0  0  0  0  0  0  0  0
  140.1790   72.8430  221.9550 C   0  0  0  0  0  0  0  0  0  0  0  0
  139.8150   74.2130  222.1850 N   0  0  0  0  0  0  0  0  0  0  0  0
  139.8260   75.1340  221.0930 C   0  0  0  0  0  0  0  0  0  0  0  0
  140.2170   76.5110  221.5160 C   0  0  0  0  0  0  0  0  0  0  0  0
  139.8860   76.8390  222.6810 O   0  0  0  0  0  0  0  0  0  0  0  0
  140.9160   77.3350  220.6060 N   0  0  0  0  0  0  0  0  0  0  0  0
  140.8110   77.0240  219.1640 C   0  0  0  0  0  0  0  0  0  0  0  0
  142.1230   77.4610  218.5050 C   0  0  0  0  0  0  0  0  0  0  0  0
  142.2830   78.9680  218.6180 C   0  0  0  0  0  0  0  0  0  0  0  0
  141.5030   79.4830  219.8370 C   0  0  0  0  0  0  0  0  0  0  0  0
  141.7360   78.4680  220.9380 C   0  0  1  0  0  0  0  0  0  0  0  0
  141.6170   78.9970  222.3140 C   0  0  0  0  0  0  0  0  0  0  0  0
  140.4380   79.8960  222.5670 C   0  0  0  0  0  0  0  0  0  0  0  0
  140.8340   81.3580  222.5900 C   0  0  0  0  0  0  0  0  0  0  0  0
  141.8670   81.6390  223.6560 C   0  0  0  0  0  0  0  0  0  0  0  0
  142.7020   80.4280  224.0110 C   0  0  0  0  0  0  0  0  0  0  0  0
  142.9090   79.6700  222.7140 C   0  0  0  0  0  0  0  0  0  0  0  0
  140.1600   71.9090  223.0960 C   0  0  0  0  0  0  0  0  0  0  0  0
  139.6200   70.6540  222.8980 C   0  0  0  0  0  0  0  0  0  0  0  0
  139.5530   69.7050  223.8930 C   0  0  0  0  0  0  0  0  0  0  0  0
  140.0660   70.0790  225.1340 C   0  0  0  0  0  0  0  0  0  0  0  0
  140.0180   69.1610  226.1570 C   0  0  0  0  0  0  0  0  0  0  0  0
  140.5200   69.5100  227.3910 C   0  0  0  0  0  0  0  0  0  0  0  0
  140.4750   68.3660  228.7150 Cl  0  0  0  0  0  0  0  0  0  0  0  0
  141.0600   70.7750  227.5770 C   0  0  0  0  0  0  0  0  0  0  0  0
  141.1050   71.6950  226.5430 C   0  0  0  0  0  0  0  0  0  0  0  0
  140.6040   71.3430  225.3160 C   0  0  0  0  0  0  0  0  0  0  0  0
  140.6500   72.2480  224.3040 N   0  0  0  0  0  0  0  0  0  0  0  0
  139.5520   74.4920  223.1520 H   0  0  0  0  0  0  0  0  0  0  0  0
  140.5432   74.7790  220.3383 H   0  0  0  0  0  0  0  0  0  0  0  0
  138.8054   75.1846  220.6857 H   0  0  0  0  0  0  0  0  0  0  0  0
  140.6606   75.9436  219.0223 H   0  0  0  0  0  0  0  0  0  0  0  0
  139.9561   77.5501  218.7142 H   0  0  0  0  0  0  0  0  0  0  0  0
  142.9664   76.9661  219.0087 H   0  0  0  0  0  0  0  0  0  0  0  0
  142.1058   77.1778  217.4422 H   0  0  0  0  0  0  0  0  0  0  0  0
  143.3486   79.2145  218.7353 H   0  0  0  0  0  0  0  0  0  0  0  0
  141.8909   79.4446  217.7075 H   0  0  0  0  0  0  0  0  0  0  0  0
  141.8782   80.4711  220.1418 H   0  0  0  0  0  0  0  0  0  0  0  0
  140.4322   79.5970  219.6127 H   0  0  0  0  0  0  0  0  0  0  0  0
  142.7898   78.1547  220.9735 H   0  0  0  0  0  0  0  0  0  0  0  0
  141.4229   78.1206  222.9498 H   0  0  0  0  0  0  0  0  0  0  0  0
  139.6960   79.7415  221.7698 H   0  0  0  0  0  0  0  0  0  0  0  0
  140.0217   79.6411  223.5528 H   0  0  0  0  0  0  0  0  0  0  0  0
  141.2506   81.6302  221.6090 H   0  0  0  0  0  0  0  0  0  0  0  0
  139.9369   81.9533  222.8155 H   0  0  0  0  0  0  0  0  0  0  0  0
  142.5376   82.4317  223.2927 H   0  0  0  0  0  0  0  0  0  0  0  0
  141.3253   81.9403  224.5647 H   0  0  0  0  0  0  0  0  0  0  0  0
  143.6699   80.7403  224.4301 H   0  0  0  0  0  0  0  0  0  0  0  0
  142.2056   79.8036  224.7684 H   0  0  0  0  0  0  0  0  0  0  0  0
  143.2173   80.3711  221.9244 H   0  0  0  0  0  0  0  0  0  0  0  0
  143.6913   78.9094  222.8539 H   0  0  0  0  0  0  0  0  0  0  0  0
  139.2263   70.4015  221.9024 H   0  0  0  0  0  0  0  0  0  0  0  0
  139.1197   68.7091  223.7188 H   0  0  0  0  0  0  0  0  0  0  0  0
  139.5853   68.1632  225.9921 H   0  0  0  0  0  0  0  0  0  0  0  0
  141.4595   71.0518  228.5638 H   0  0  0  0  0  0  0  0  0  0  0  0
  141.5365   72.6940  226.7036 H   0  0  0  0  0  0  0  0  0  0  0  0
  1  2  2  0
  2  3  1  0
  3  4  1  0
  4  5  1  0
  5  6  2  0
  5  7  1  0
  7  8  1  0
  8  9  1  0
  9 10  1  0
 10 11  1  0
 11 12  1  0
 12 13  1  0
 13 14  1  0
 14 15  1  0
 15 16  1  0
 16 17  1  0
 17 18  1  0
  2 19  1  0
 19 20  2  0
 20 21  1  0
 21 22  2  0
 22 23  1  0
 23 24  2  0
 24 25  1  0
 24 26  1  0
 26 27  2  0
 27 28  1  0
 28 29  2  0
 12  7  1  0
 18 13  1  0
 29 19  1  0
 28 22  1  0
  3 30  1  0
  4 31  1  0
  4 32  1  0
  8 33  1  0
  8 34  1  0
  9 35  1  0
  9 36  1  0
 10 37  1  0
 10 38  1  0
 11 39  1  0
 11 40  1  0
 12 41  1  6
 13 42  1  0
 14 43  1  0
 14 44  1  0
 15 45  1  0
 15 46  1  0
 16 47  1  0
 16 48  1  0
 17 49  1  0
 17 50  1  0
 18 51  1  0
 18 52  1  0
 20 53  1  0
 21 54  1  0
 23 55  1  0
 26 56  1  0
 27 57  1  0
M  END
>  <meeko>  (7) 
{"free_energy": -9.21, "intermolecular_energy": -10.7, "internal_energy": -1.7, "cluster_size": 16, "cluster_id": 1, "rank_in_cluster": 7}

$$$$

     RDKit          3D

 57 60  0  0  0  0  0  0  0  0999 V2000
  140.2870   72.1200  220.8280 O   0  0  0  0  0  0  0  0  0  0  0  0
  139.8050   72.4460  221.9640 C   0  0  0  0  0  0  0  0  0  0  0  0
  139.1410   73.7070  222.1480 N   0  0  0  0  0  0  0  0  0  0  0  0
  139.0220   74.6040  221.0420 C   0  0  0  0  0  0  0  0  0  0  0  0
  139.6850   75.9150  221.3020 C   0  0  0  0  0  0  0  0  0  0  0  0
  139.1180   76.6590  222.1370 O   0  0  0  0  0  0  0  0  0  0  0  0
  140.8770   76.2280  220.6100 N   0  0  0  0  0  0  0  0  0  0  0  0
  141.3360   75.2970  219.5580 C   0  0  0  0  0  0  0  0  0  0  0  0
  142.8660   75.3750  219.5140 C   0  0  0  0  0  0  0  0  0  0  0  0
  143.3020   76.7660  219.0880 C   0  0  0  0  0  0  0  0  0  0  0  0
  142.2130   77.7860  219.4530 C   0  0  0  0  0  0  0  0  0  0  0  0
  141.7080   77.3810  220.8240 C   0  0  1  0  0  0  0  0  0  0  0  0
  141.1310   78.4800  221.6290 C   0  0  0  0  0  0  0  0  0  0  0  0
  141.4930   79.8710  221.1880 C   0  0  0  0  0  0  0  0  0  0  0  0
  142.5670   80.4830  222.0650 C   0  0  0  0  0  0  0  0  0  0  0  0
  142.1340   80.5540  223.5100 C   0  0  0  0  0  0  0  0  0  0  0  0
  141.0960   79.5140  223.8730 C   0  0  0  0  0  0  0  0  0  0  0  0
  141.4620   78.2690  223.0880 C   0  0  0  0  0  0  0  0  0  0  0  0
  139.9170   71.5360  223.1190 C   0  0  0  0  0  0  0  0  0  0  0  0
  139.4890   70.2320  222.9610 C   0  0  0  0  0  0  0  0  0  0  0  0
  139.5490   69.3000  223.9720 C   0  0  0  0  0  0  0  0  0  0  0  0
  140.0720   69.7420  225.1850 C   0  0  0  0  0  0  0  0  0  0  0  0
  140.1500   68.8430  226.2230 C   0  0  0  0  0  0  0  0  0  0  0  0
  140.6640   69.2590  227.4300 C   0  0  0  0  0  0  0  0  0  0  0  0
  140.7760   68.1400  228.7720 Cl  0  0  0  0  0  0  0  0  0  0  0  0
  141.0900   70.5710  227.5770 C   0  0  0  0  0  0  0  0  0  0  0  0
  141.0090   71.4730  226.5280 C   0  0  0  0  0  0  0  0  0  0  0  0
  140.4970   71.0540  225.3270 C   0  0  0  0  0  0  0  0  0  0  0  0
  140.4190   71.9400  224.3010 N   0  0  0  0  0  0  0  0  0  0  0  0
  138.7660   73.9270  223.0920 H   0  0  0  0  0  0  0  0  0  0  0  0
  139.4876   74.1410  220.1595 H   0  0  0  0  0  0  0  0  0  0  0  0
  137.9513   74.7952  220.8777 H   0  0  0  0  0  0  0  0  0  0  0  0
  141.0184   74.2717  219.7984 H   0  0  0  0  0  0  0  0  0  0  0  0
  140.9047   75.5686  218.5832 H   0  0  0  0  0  0  0  0  0  0  0  0
  143.2710   75.1561  220.5130 H   0  0  0  0  0  0  0  0  0  0  0  0
  143.2448   74.6395  218.7891 H   0  0  0  0  0  0  0  0  0  0  0  0
  144.2372   77.0297  219.6036 H   0  0  0  0  0  0  0  0  0  0  0  0
  143.4628   76.7794  217.9999 H   0  0  0  0  0  0  0  0  0  0  0  0
  142.6349   78.8014  219.4851 H   0  0  0  0  0  0  0  0  0  0  0  0
  141.4020   77.7947  218.7099 H   0  0  0  0  0  0  0  0  0  0  0  0
  142.5396   77.1089  221.4906 H   0  0  0  0  0  0  0  0  0  0  0  0
  140.0446   78.4254  221.4651 H   0  0  0  0  0  0  0  0  0  0  0  0
  141.8606   79.8308  220.1520 H   0  0  0  0  0  0  0  0  0  0  0  0
  140.5923   80.4976  221.2664 H   0  0  0  0  0  0  0  0  0  0  0  0
  143.4771   79.8691  221.9952 H   0  0  0  0  0  0  0  0  0  0  0  0
  142.7552   81.5078  221.7124 H   0  0  0  0  0  0  0  0  0  0  0  0
  143.0176   80.4034  224.1476 H   0  0  0  0  0  0  0  0  0  0  0  0
  141.6756   81.5417  223.6658 H   0  0  0  0  0  0  0  0  0  0  0  0
  141.1233   79.3070  224.9530 H   0  0  0  0  0  0  0  0  0  0  0  0
  140.0790   79.8579  223.6333 H   0  0  0  0  0  0  0  0  0  0  0  0
  142.5387   78.0710  223.1951 H   0  0  0  0  0  0  0  0  0  0  0  0
  140.8920   77.4108  223.4736 H   0  0  0  0  0  0  0  0  0  0  0  0
  139.0830   69.9255  221.9857 H   0  0  0  0  0  0  0  0  0  0  0  0
  139.2037   68.2653  223.8302 H   0  0  0  0  0  0  0  0  0  0  0  0
  139.8065   67.8065  226.0904 H   0  0  0  0  0  0  0  0  0  0  0  0
  141.4993   70.9012  228.5432 H   0  0  0  0  0  0  0  0  0  0  0  0
  141.3507   72.5106  226.6570 H   0  0  0  0  0  0  0  0  0  0  0  0
  1  2  2  0
  2  3  1  0
  3  4  1  0
  4  5  1  0
  5  6  2  0
  5  7  1  0
  7  8  1  0
  8  9  1  0
  9 10  1  0
 10 11  1  0
 11 12  1  0
 12 13  1  0
 13 14  1  0
 14 15  1  0
 15 16  1  0
 16 17  1  0
 17 18  1  0
  2 19  1  0
 19 20  2  0
 20 21  1  0
 21 22  2  0
 22 23  1  0
 23 24  2  0
 24 25  1  0
 24 26  1  0
 26 27  2  0
 27 28  1  0
 28 29  2  0
 12  7  1  0
 18 13  1  0
 29 19  1  0
 28 22  1  0
  3 30  1  0
  4 31  1  0
  4 32  1  0
  8 33  1  0
  8 34  1  0
  9 35  1  0
  9 36  1  0
 10 37  1  0
 10 38  1  0
 11 39  1  0
 11 40  1  0
 12 41  1  1
 13 42  1  0
 14 43  1  0
 14 44  1  0
 15 45  1  0
 15 46  1  0
 16 47  1  0
 16 48  1  0
 17 49  1  0
 17 50  1  0
 18 51  1  0
 18 52  1  0
 20 53  1  0
 21 54  1  0
 23 55  1  0
 26 56  1  0
 27 57  1  0
M  END
>  <meeko>  (8) 
{"free_energy": -9.35, "intermolecular_energy": -10.84, "internal_energy": -1.5, "cluster_size": 16, "cluster_id": 1, "rank_in_cluster": 2}

$$$$

     RDKit          3D

 57 60  0  0  0  0  0  0  0  0999 V2000
  139.3300   71.7040  220.9580 O   0  0  0  0  0  0  0  0  0  0  0  0
  139.4620   72.2020  222.1260 C   0  0  0  0  0  0  0  0  0  0  0  0
  139.4030   73.6220  222.3320 N   0  0  0  0  0  0  0  0  0  0  0  0
  139.1940   74.4850  221.2120 C   0  0  0  0  0  0  0  0  0  0  0  0
  139.8030   75.8330  221.4130 C   0  0  0  0  0  0  0  0  0  0  0  0
  139.2280   76.5730  222.2460 O   0  0  0  0  0  0  0  0  0  0  0  0
  140.9550   76.1800  220.6740 N   0  0  0  0  0  0  0  0  0  0  0  0
  141.4180   75.2450  219.6260 C   0  0  0  0  0  0  0  0  0  0  0  0
  142.9400   75.3860  219.5260 C   0  0  0  0  0  0  0  0  0  0  0  0
  143.3020   76.7850  219.0570 C   0  0  0  0  0  0  0  0  0  0  0  0
  142.1840   77.7660  219.4390 C   0  0  0  0  0  0  0  0  0  0  0  0
  141.7440   77.3700  220.8340 C   0  0  1  0  0  0  0  0  0  0  0  0
  141.1490   78.4620  221.6370 C   0  0  0  0  0  0  0  0  0  0  0  0
  141.5140   79.8580  221.2120 C   0  0  0  0  0  0  0  0  0  0  0  0
  142.5700   80.4660  222.1120 C   0  0  0  0  0  0  0  0  0  0  0  0
  142.1090   80.5260  223.5500 C   0  0  0  0  0  0  0  0  0  0  0  0
  141.0690   79.4800  223.8870 C   0  0  0  0  0  0  0  0  0  0  0  0
  141.4530   78.2420  223.1000 C   0  0  0  0  0  0  0  0  0  0  0  0
  139.6780   71.3300  223.2950 C   0  0  0  0  0  0  0  0  0  0  0  0
  139.3530   69.9930  223.1760 C   0  0  0  0  0  0  0  0  0  0  0  0
  139.5160   69.0920  224.2040 C   0  0  0  0  0  0  0  0  0  0  0  0
  140.0330   69.6030  225.3930 C   0  0  0  0  0  0  0  0  0  0  0  0
  140.2110   68.7360  226.4470 C   0  0  0  0  0  0  0  0  0  0  0  0
  140.7220   69.2200  227.6300 C   0  0  0  0  0  0  0  0  0  0  0  0
  140.9610   68.1450  228.9900 Cl  0  0  0  0  0  0  0  0  0  0  0  0
  141.0450   70.5660  227.7370 C   0  0  0  0  0  0  0  0  0  0  0  0
  140.8630   71.4340  226.6720 C   0  0  0  0  0  0  0  0  0  0  0  0
  140.3540   70.9470  225.4950 C   0  0  0  0  0  0  0  0  0  0  0  0
  140.1770   71.8010  224.4540 N   0  0  0  0  0  0  0  0  0  0  0  0
  139.5160   73.9790  223.3020 H   0  0  0  0  0  0  0  0  0  0  0  0
  139.6440   74.0230  220.3209 H   0  0  0  0  0  0  0  0  0  0  0  0
  138.1092   74.6210  221.0902 H   0  0  0  0  0  0  0  0  0  0  0  0
  141.1532   74.2129  219.8993 H   0  0  0  0  0  0  0  0  0  0  0  0
  140.9424   75.4764  218.6615 H   0  0  0  0  0  0  0  0  0  0  0  0
  143.3884   75.2055  220.5141 H   0  0  0  0  0  0  0  0  0  0  0  0
  143.3241   74.6517  218.8026 H   0  0  0  0  0  0  0  0  0  0  0  0
  144.2421   77.0986  219.5344 H   0  0  0  0  0  0  0  0  0  0  0  0
  143.4251   76.7816  217.9639 H   0  0  0  0  0  0  0  0  0  0  0  0
  142.5632   78.7986  219.4359 H   0  0  0  0  0  0  0  0  0  0  0  0
  141.3485   77.7248  218.7246 H   0  0  0  0  0  0  0  0  0  0  0  0
  142.6094   77.1464  221.4751 H   0  0  0  0  0  0  0  0  0  0  0  0
  140.0660   78.4048  221.4531 H   0  0  0  0  0  0  0  0  0  0  0  0
  141.8998   79.8266  220.1824 H   0  0  0  0  0  0  0  0  0  0  0  0
  140.6101   80.4813  221.2787 H   0  0  0  0  0  0  0  0  0  0  0  0
  143.4826   79.8544  222.0550 H   0  0  0  0  0  0  0  0  0  0  0  0
  142.7632   81.4934  221.7698 H   0  0  0  0  0  0  0  0  0  0  0  0
  142.9811   80.3750  224.2032 H   0  0  0  0  0  0  0  0  0  0  0  0
  141.6434   81.5108  223.7030 H   0  0  0  0  0  0  0  0  0  0  0  0
  141.0780   79.2654  224.9658 H   0  0  0  0  0  0  0  0  0  0  0  0
  140.0552   79.8221  223.6316 H   0  0  0  0  0  0  0  0  0  0  0  0
  142.5281   78.0462  223.2258 H   0  0  0  0  0  0  0  0  0  0  0  0
  140.8780   77.3798  223.4687 H   0  0  0  0  0  0  0  0  0  0  0  0
  138.9467   69.6328  222.2193 H   0  0  0  0  0  0  0  0  0  0  0  0
  139.2532   68.0296  224.0933 H   0  0  0  0  0  0  0  0  0  0  0  0
  139.9489   67.6725  226.3456 H   0  0  0  0  0  0  0  0  0  0  0  0
  141.4525   70.9503  228.6837 H   0  0  0  0  0  0  0  0  0  0  0  0
  141.1231   72.4984  226.7692 H   0  0  0  0  0  0  0  0  0  0  0  0
  1  2  2  0
  2  3  1  0
  3  4  1  0
  4  5  1  0
  5  6  2  0
  5  7  1  0
  7  8  1  0
  8  9  1  0
  9 10  1  0
 10 11  1  0
 11 12  1  0
 12 13  1  0
 13 14  1  0
 14 15  1  0
 15 16  1  0
 16 17  1  0
 17 18  1  0
  2 19  1  0
 19 20  2  0
 20 21  1  0
 21 22  2  0
 22 23  1  0
 23 24  2  0
 24 25  1  0
 24 26  1  0
 26 27  2  0
 27 28  1  0
 28 29  2  0
 12  7  1  0
 18 13  1  0
 29 19  1  0
 28 22  1  0
  3 30  1  0
  4 31  1  0
  4 32  1  0
  8 33  1  0
  8 34  1  0
  9 35  1  0
  9 36  1  0
 10 37  1  0
 10 38  1  0
 11 39  1  0
 11 40  1  0
 12 41  1  1
 13 42  1  0
 14 43  1  0
 14 44  1  0
 15 45  1  0
 15 46  1  0
 16 47  1  0
 16 48  1  0
 17 49  1  0
 17 50  1  0
 18 51  1  0
 18 52  1  0
 20 53  1  0
 21 54  1  0
 23 55  1  0
 26 56  1  0
 27 57  1  0
M  END
>  <meeko>  (9) 
{"free_energy": -9.26, "intermolecular_energy": -10.75, "internal_energy": -1.57, "cluster_size": 16, "cluster_id": 1, "rank_in_cluster": 4}

$$$$

     RDKit          3D

 57 60  0  0  0  0  0  0  0  0999 V2000
  139.5800   72.5380  220.5210 O   0  0  0  0  0  0  0  0  0  0  0  0
  140.1260   72.8560  221.6310 C   0  0  0  0  0  0  0  0  0  0  0  0
  140.7810   74.1240  221.7930 N   0  0  0  0  0  0  0  0  0  0  0  0
  140.8190   75.0380  220.6950 C   0  0  0  0  0  0  0  0  0  0  0  0
  141.0980   76.4380  221.1320 C   0  0  0  0  0  0  0  0  0  0  0  0
  140.9560   76.6660  222.3580 O   0  0  0  0  0  0  0  0  0  0  0  0
  141.4930   77.3910  220.1670 N   0  0  0  0  0  0  0  0  0  0  0  0
  141.6230   76.9460  218.7630 C   0  0  0  0  0  0  0  0  0  0  0  0
  142.7130   77.8030  218.1100 C   0  0  0  0  0  0  0  0  0  0  0  0
  142.2750   79.2580  218.0720 C   0  0  0  0  0  0  0  0  0  0  0  0
  141.2680   79.5270  219.2000 C   0  0  0  0  0  0  0  0  0  0  0  0
  141.7900   78.7760  220.4090 C   0  0  1  0  0  0  0  0  0  0  0  0
  141.3750   79.3280  221.7180 C   0  0  0  0  0  0  0  0  0  0  0  0
  140.6570   80.6490  221.6700 C   0  0  0  0  0  0  0  0  0  0  0  0
  141.5640   81.8020  222.0500 C   0  0  0  0  0  0  0  0  0  0  0  0
  142.1270   81.6320  223.4410 C   0  0  0  0  0  0  0  0  0  0  0  0
  142.2010   80.1860  223.8830 C   0  0  0  0  0  0  0  0  0  0  0  0
  142.5670   79.3910  222.6440 C   0  0  0  0  0  0  0  0  0  0  0  0
  140.0980   71.9280  222.7760 C   0  0  0  0  0  0  0  0  0  0  0  0
  139.5260   70.6850  222.5900 C   0  0  0  0  0  0  0  0  0  0  0  0
  139.4480   69.7430  223.5900 C   0  0  0  0  0  0  0  0  0  0  0  0
  139.9840   70.1090  224.8230 C   0  0  0  0  0  0  0  0  0  0  0  0
  139.9260   69.1970  225.8510 C   0  0  0  0  0  0  0  0  0  0  0  0
  140.4510   69.5390  227.0770 C   0  0  0  0  0  0  0  0  0  0  0  0
  140.3940   68.4020  228.4070 Cl  0  0  0  0  0  0  0  0  0  0  0  0
  141.0240   70.7910  227.2520 C   0  0  0  0  0  0  0  0  0  0  0  0
  141.0780   71.7050  226.2130 C   0  0  0  0  0  0  0  0  0  0  0  0
  140.5550   71.3600  224.9930 C   0  0  0  0  0  0  0  0  0  0  0  0
  140.6100   72.2590  223.9760 N   0  0  0  0  0  0  0  0  0  0  0  0
  141.2110   74.3360  222.7150 H   0  0  0  0  0  0  0  0  0  0  0  0
  141.6089   74.7210  219.9981 H   0  0  0  0  0  0  0  0  0  0  0  0
  139.8300   75.0267  220.2137 H   0  0  0  0  0  0  0  0  0  0  0  0
  141.9092   75.8844  218.7300 H   0  0  0  0  0  0  0  0  0  0  0  0
  140.6678   77.0595  218.2294 H   0  0  0  0  0  0  0  0  0  0  0  0
  143.6421   77.7171  218.6925 H   0  0  0  0  0  0  0  0  0  0  0  0
  142.8838   77.4497  217.0824 H   0  0  0  0  0  0  0  0  0  0  0  0
  143.1530   79.9074  218.2036 H   0  0  0  0  0  0  0  0  0  0  0  0
  141.8000   79.4695  217.1026 H   0  0  0  0  0  0  0  0  0  0  0  0
  141.2114   80.6045  219.4137 H   0  0  0  0  0  0  0  0  0  0  0  0
  140.2553   79.1970  218.9252 H   0  0  0  0  0  0  0  0  0  0  0  0
  142.8777   78.9009  220.5156 H   0  0  0  0  0  0  0  0  0  0  0  0
  140.6187   78.6295  222.1055 H   0  0  0  0  0  0  0  0  0  0  0  0
  140.2830   80.8130  220.6486 H   0  0  0  0  0  0  0  0  0  0  0  0
  139.8307   80.6133  222.3953 H   0  0  0  0  0  0  0  0  0  0  0  0
  142.3959   81.8533  221.3321 H   0  0  0  0  0  0  0  0  0  0  0  0
  140.9700   82.7277  222.0302 H   0  0  0  0  0  0  0  0  0  0  0  0
  143.1418   82.0560  223.4614 H   0  0  0  0  0  0  0  0  0  0  0  0
  141.4479   82.1507  224.1336 H   0  0  0  0  0  0  0  0  0  0  0  0
  142.9711   80.0619  224.6586 H   0  0  0  0  0  0  0  0  0  0  0  0
  141.2478   79.8461  224.3141 H   0  0  0  0  0  0  0  0  0  0  0  0
  143.4066   79.8804  222.1287 H   0  0  0  0  0  0  0  0  0  0  0  0
  142.8606   78.3716  222.9349 H   0  0  0  0  0  0  0  0  0  0  0  0
  139.1151   70.4373  221.6001 H   0  0  0  0  0  0  0  0  0  0  0  0
  138.9887   68.7571  223.4254 H   0  0  0  0  0  0  0  0  0  0  0  0
  139.4671   68.2094  225.6960 H   0  0  0  0  0  0  0  0  0  0  0  0
  141.4423   71.0618  228.2326 H   0  0  0  0  0  0  0  0  0  0  0  0
  141.5343   72.6944  226.3642 H   0  0  0  0  0  0  0  0  0  0  0  0
  1  2  2  0
  2  3  1  0
  3  4  1  0
  4  5  1  0
  5  6  2  0
  5  7  1  0
  7  8  1  0
  8  9  1  0
  9 10  1  0
 10 11  1  0
 11 12  1  0
 12 13  1  0
 13 14  1  0
 14 15  1  0
 15 16  1  0
 16 17  1  0
 17 18  1  0
  2 19  1  0
 19 20  2  0
 20 21  1  0
 21 22  2  0
 22 23  1  0
 23 24  2  0
 24 25  1  0
 24 26  1  0
 26 27  2  0
 27 28  1  0
 28 29  2  0
 12  7  1  0
 18 13  1  0
 29 19  1  0
 28 22  1  0
  3 30  1  0
  4 31  1  0
  4 32  1  0
  8 33  1  0
  8 34  1  0
  9 35  1  0
  9 36  1  0
 10 37  1  0
 10 38  1  0
 11 39  1  0
 11 40  1  0
 12 41  1  1
 13 42  1  0
 14 43  1  0
 14 44  1  0
 15 45  1  0
 15 46  1  0
 16 47  1  0
 16 48  1  0
 17 49  1  0
 17 50  1  0
 18 51  1  0
 18 52  1  0
 20 53  1  0
 21 54  1  0
 23 55  1  0
 26 56  1  0
 27 57  1  0
M  END
>  <meeko>  (10) 
{"free_energy": -8.44, "intermolecular_energy": -9.93, "internal_energy": -1.9, "cluster_size": 16, "cluster_id": 1, "rank_in_cluster": 14}

$$$$

     RDKit          3D

 57 60  0  0  0  0  0  0  0  0999 V2000
  139.6130   71.9290  220.8810 O   0  0  0  0  0  0  0  0  0  0  0  0
  139.6470   72.3940  222.0700 C   0  0  0  0  0  0  0  0  0  0  0  0
  139.5270   73.8040  222.3130 N   0  0  0  0  0  0  0  0  0  0  0  0
  139.3670   74.6950  221.2060 C   0  0  0  0  0  0  0  0  0  0  0  0
  139.9620   76.0380  221.4700 C   0  0  0  0  0  0  0  0  0  0  0  0
  139.5330   76.6360  222.4850 O   0  0  0  0  0  0  0  0  0  0  0  0
  140.9430   76.5380  220.5840 N   0  0  0  0  0  0  0  0  0  0  0  0
  141.3210   75.7050  219.4230 C   0  0  0  0  0  0  0  0  0  0  0  0
  142.7880   76.0100  219.0990 C   0  0  0  0  0  0  0  0  0  0  0  0
  142.9330   77.4580  218.6660 C   0  0  0  0  0  0  0  0  0  0  0  0
  141.8000   78.2980  219.2740 C   0  0  0  0  0  0  0  0  0  0  0  0
  141.6280   77.7960  220.6940 C   0  0  1  0  0  0  0  0  0  0  0  0
  141.0650   78.7820  221.6440 C   0  0  0  0  0  0  0  0  0  0  0  0
  141.0760   80.2130  221.1810 C   0  0  0  0  0  0  0  0  0  0  0  0
  142.1970   81.0070  221.8190 C   0  0  0  0  0  0  0  0  0  0  0  0
  142.0900   81.0090  223.3260 C   0  0  0  0  0  0  0  0  0  0  0  0
  141.3540   79.8060  223.8740 C   0  0  0  0  0  0  0  0  0  0  0  0
  141.7440   78.6400  222.9860 C   0  0  0  0  0  0  0  0  0  0  0  0
  139.8110   71.4930  223.2250 C   0  0  0  0  0  0  0  0  0  0  0  0
  139.4330   70.1730  223.0770 C   0  0  0  0  0  0  0  0  0  0  0  0
  139.5430   69.2470  224.0900 C   0  0  0  0  0  0  0  0  0  0  0  0
  140.0650   69.7140  225.2950 C   0  0  0  0  0  0  0  0  0  0  0  0
  140.1930   68.8220  226.3340 C   0  0  0  0  0  0  0  0  0  0  0  0
  140.7070   69.2630  227.5330 C   0  0  0  0  0  0  0  0  0  0  0  0
  140.8820   68.1540  228.8760 Cl  0  0  0  0  0  0  0  0  0  0  0  0
  141.0830   70.5920  227.6690 C   0  0  0  0  0  0  0  0  0  0  0  0
  140.9520   71.4850  226.6190 C   0  0  0  0  0  0  0  0  0  0  0  0
  140.4400   71.0420  225.4270 C   0  0  0  0  0  0  0  0  0  0  0  0
  140.3130   71.9210  224.3990 N   0  0  0  0  0  0  0  0  0  0  0  0
  139.5620   74.1340  223.2980 H   0  0  0  0  0  0  0  0  0  0  0  0
  139.8591   74.2569  220.3252 H   0  0  0  0  0  0  0  0  0  0  0  0
  138.2887   74.8317  221.0369 H   0  0  0  0  0  0  0  0  0  0  0  0
  141.2042   74.6396  219.6706 H   0  0  0  0  0  0  0  0  0  0  0  0
  140.6777   75.9277  218.5590 H   0  0  0  0  0  0  0  0  0  0  0  0
  143.4031   75.8338  219.9938 H   0  0  0  0  0  0  0  0  0  0  0  0
  143.1218   75.3533  218.2821 H   0  0  0  0  0  0  0  0  0  0  0  0
  143.9021   77.8473  219.0113 H   0  0  0  0  0  0  0  0  0  0  0  0
  142.8802   77.5163  217.5688 H   0  0  0  0  0  0  0  0  0  0  0  0
  142.0719   79.3639  219.2751 H   0  0  0  0  0  0  0  0  0  0  0  0
  140.8695   78.2009  218.6954 H   0  0  0  0  0  0  0  0  0  0  0  0
  142.6017   77.6369  221.1805 H   0  0  0  0  0  0  0  0  0  0  0  0
  139.9954   78.5374  221.7222 H   0  0  0  0  0  0  0  0  0  0  0  0
  141.2044   80.2319  220.0887 H   0  0  0  0  0  0  0  0  0  0  0  0
  140.1220   80.6734  221.4774 H   0  0  0  0  0  0  0  0  0  0  0  0
  143.1599   80.5604  221.5302 H   0  0  0  0  0  0  0  0  0  0  0  0
  142.1249   82.0469  221.4678 H   0  0  0  0  0  0  0  0  0  0  0  0
  143.1056   81.0195  223.7484 H   0  0  0  0  0  0  0  0  0  0  0  0
  141.5140   81.9017  223.6111 H   0  0  0  0  0  0  0  0  0  0  0  0
  141.6569   79.6131  224.9137 H   0  0  0  0  0  0  0  0  0  0  0  0
  140.2656   79.9652  223.8766 H   0  0  0  0  0  0  0  0  0  0  0  0
  142.8351   78.6340  222.8464 H   0  0  0  0  0  0  0  0  0  0  0  0
  141.4304   77.6975  223.4585 H   0  0  0  0  0  0  0  0  0  0  0  0
  139.0265   69.8474  222.1081 H   0  0  0  0  0  0  0  0  0  0  0  0
  139.2366   68.1991  223.9560 H   0  0  0  0  0  0  0  0  0  0  0  0
  139.8893   67.7721  226.2091 H   0  0  0  0  0  0  0  0  0  0  0  0
  141.4924   70.9422  228.6281 H   0  0  0  0  0  0  0  0  0  0  0  0
  141.2546   72.5356  226.7397 H   0  0  0  0  0  0  0  0  0  0  0  0
  1  2  2  0
  2  3  1  0
  3  4  1  0
  4  5  1  0
  5  6  2  0
  5  7  1  0
  7  8  1  0
  8  9  1  0
  9 10  1  0
 10 11  1  0
 11 12  1  0
 12 13  1  0
 13 14  1  0
 14 15  1  0
 15 16  1  0
 16 17  1  0
 17 18  1  0
  2 19  1  0
 19 20  2  0
 20 21  1  0
 21 22  2  0
 22 23  1  0
 23 24  2  0
 24 25  1  0
 24 26  1  0
 26 27  2  0
 27 28  1  0
 28 29  2  0
 12  7  1  0
 18 13  1  0
 29 19  1  0
 28 22  1  0
  3 30  1  0
  4 31  1  0
  4 32  1  0
  8 33  1  0
  8 34  1  0
  9 35  1  0
  9 36  1  0
 10 37  1  0
 10 38  1  0
 11 39  1  0
 11 40  1  0
 12 41  1  1
 13 42  1  0
 14 43  1  0
 14 44  1  0
 15 45  1  0
 15 46  1  0
 16 47  1  0
 16 48  1  0
 17 49  1  0
 17 50  1  0
 18 51  1  0
 18 52  1  0
 20 53  1  0
 21 54  1  0
 23 55  1  0
 26 56  1  0
 27 57  1  0
M  END
>  <meeko>  (11) 
{"free_energy": -9.19, "intermolecular_energy": -10.69, "internal_energy": -1.64, "cluster_size": 16, "cluster_id": 1, "rank_in_cluster": 9}

$$$$

     RDKit          3D

 57 60  0  0  0  0  0  0  0  0999 V2000
  139.4810   71.8480  220.6610 O   0  0  0  0  0  0  0  0  0  0  0  0
  139.3930   72.3090  221.8480 C   0  0  0  0  0  0  0  0  0  0  0  0
  139.0700   73.6890  222.0800 N   0  0  0  0  0  0  0  0  0  0  0  0
  138.8430   74.5530  220.9650 C   0  0  0  0  0  0  0  0  0  0  0  0
  139.4860   75.8880  221.1420 C   0  0  0  0  0  0  0  0  0  0  0  0
  138.8420   76.7180  221.8270 O   0  0  0  0  0  0  0  0  0  0  0  0
  140.7430   76.1270  220.5440 N   0  0  0  0  0  0  0  0  0  0  0  0
  141.2150   75.1790  219.5130 C   0  0  0  0  0  0  0  0  0  0  0  0
  142.7450   75.1510  219.5810 C   0  0  0  0  0  0  0  0  0  0  0  0
  143.3050   76.5150  219.2130 C   0  0  0  0  0  0  0  0  0  0  0  0
  142.2640   77.6030  219.5160 C   0  0  0  0  0  0  0  0  0  0  0  0
  141.6330   77.2160  220.8390 C   0  0  1  0  0  0  0  0  0  0  0  0
  141.0750   78.3420  221.6200 C   0  0  0  0  0  0  0  0  0  0  0  0
  141.4660   79.7170  221.1520 C   0  0  0  0  0  0  0  0  0  0  0  0
  142.5480   80.3250  222.0210 C   0  0  0  0  0  0  0  0  0  0  0  0
  142.1100   80.4330  223.4630 C   0  0  0  0  0  0  0  0  0  0  0  0
  141.0510   79.4210  223.8420 C   0  0  0  0  0  0  0  0  0  0  0  0
  141.3960   78.1540  223.0840 C   0  0  0  0  0  0  0  0  0  0  0  0
  139.6230   71.4350  223.0130 C   0  0  0  0  0  0  0  0  0  0  0  0
  139.2600   70.1070  222.9090 C   0  0  0  0  0  0  0  0  0  0  0  0
  139.4300   69.2050  223.9350 C   0  0  0  0  0  0  0  0  0  0  0  0
  139.9980   69.7050  225.1050 C   0  0  0  0  0  0  0  0  0  0  0  0
  140.1870   68.8370  226.1560 C   0  0  0  0  0  0  0  0  0  0  0  0
  140.7470   69.3110  227.3210 C   0  0  0  0  0  0  0  0  0  0  0  0
  141.0000   68.2330  228.6770 Cl  0  0  0  0  0  0  0  0  0  0  0  0
  141.1080   70.6470  227.4120 C   0  0  0  0  0  0  0  0  0  0  0  0
  140.9160   71.5170  226.3510 C   0  0  0  0  0  0  0  0  0  0  0  0
  140.3580   71.0400  225.1930 C   0  0  0  0  0  0  0  0  0  0  0  0
  140.1710   71.8950  224.1540 N   0  0  0  0  0  0  0  0  0  0  0  0
  139.0110   74.0170  223.0650 H   0  0  0  0  0  0  0  0  0  0  0  0
  139.2542   74.0795  220.0613 H   0  0  0  0  0  0  0  0  0  0  0  0
  137.7580   74.7113  220.8778 H   0  0  0  0  0  0  0  0  0  0  0  0
  140.8115   74.1753  219.7125 H   0  0  0  0  0  0  0  0  0  0  0  0
  140.8767   75.4920  218.5142 H   0  0  0  0  0  0  0  0  0  0  0  0
  143.0598   74.8911  220.6024 H   0  0  0  0  0  0  0  0  0  0  0  0
  143.1250   74.4006  218.8721 H   0  0  0  0  0  0  0  0  0  0  0  0
  144.2153   76.7067  219.8001 H   0  0  0  0  0  0  0  0  0  0  0  0
  143.5462   76.5315  218.1399 H   0  0  0  0  0  0  0  0  0  0  0  0
  142.7505   78.5863  219.5970 H   0  0  0  0  0  0  0  0  0  0  0  0
  141.5126   77.6775  218.7162 H   0  0  0  0  0  0  0  0  0  0  0  0
  142.3925   76.8776  221.5591 H   0  0  0  0  0  0  0  0  0  0  0  0
  139.9883   78.3054  221.4534 H   0  0  0  0  0  0  0  0  0  0  0  0
  141.8369   79.6485  220.1187 H   0  0  0  0  0  0  0  0  0  0  0  0
  140.5776   80.3627  221.2134 H   0  0  0  0  0  0  0  0  0  0  0  0
  143.4461   79.6921  221.9674 H   0  0  0  0  0  0  0  0  0  0  0  0
  142.7581   81.3387  221.6490 H   0  0  0  0  0  0  0  0  0  0  0  0
  142.9879   80.2783  224.1075 H   0  0  0  0  0  0  0  0  0  0  0  0
  141.6699   81.4322  223.5968 H   0  0  0  0  0  0  0  0  0  0  0  0
  141.0698   79.2353  224.9261 H   0  0  0  0  0  0  0  0  0  0  0  0
  140.0418   79.7795  223.5908 H   0  0  0  0  0  0  0  0  0  0  0  0
  142.4683   77.9376  223.1997 H   0  0  0  0  0  0  0  0  0  0  0  0
  140.8081   77.3148  223.4842 H   0  0  0  0  0  0  0  0  0  0  0  0
  138.8161   69.7547  221.9662 H   0  0  0  0  0  0  0  0  0  0  0  0
  139.1344   68.1500  223.8368 H   0  0  0  0  0  0  0  0  0  0  0  0
  139.8950   67.7802  226.0666 H   0  0  0  0  0  0  0  0  0  0  0  0
  141.5552   71.0229  228.3441 H   0  0  0  0  0  0  0  0  0  0  0  0
  141.2068   72.5744  226.4364 H   0  0  0  0  0  0  0  0  0  0  0  0
  1  2  2  0
  2  3  1  0
  3  4  1  0
  4  5  1  0
  5  6  2  0
  5  7  1  0
  7  8  1  0
  8  9  1  0
  9 10  1  0
 10 11  1  0
 11 12  1  0
 12 13  1  0
 13 14  1  0
 14 15  1  0
 15 16  1  0
 16 17  1  0
 17 18  1  0
  2 19  1  0
 19 20  2  0
 20 21  1  0
 21 22  2  0
 22 23  1  0
 23 24  2  0
 24 25  1  0
 24 26  1  0
 26 27  2  0
 27 28  1  0
 28 29  2  0
 12  7  1  0
 18 13  1  0
 29 19  1  0
 28 22  1  0
  3 30  1  0
  4 31  1  0
  4 32  1  0
  8 33  1  0
  8 34  1  0
  9 35  1  0
  9 36  1  0
 10 37  1  0
 10 38  1  0
 11 39  1  0
 11 40  1  0
 12 41  1  1
 13 42  1  0
 14 43  1  0
 14 44  1  0
 15 45  1  0
 15 46  1  0
 16 47  1  0
 16 48  1  0
 17 49  1  0
 17 50  1  0
 18 51  1  0
 18 52  1  0
 20 53  1  0
 21 54  1  0
 23 55  1  0
 26 56  1  0
 27 57  1  0
M  END
>  <meeko>  (12) 
{"free_energy": -9.1, "intermolecular_energy": -10.59, "internal_energy": -1.58, "cluster_size": 16, "cluster_id": 1, "rank_in_cluster": 11}

$$$$

     RDKit          3D

 57 60  0  0  0  0  0  0  0  0999 V2000
  140.5510   72.3770  220.7250 O   0  0  0  0  0  0  0  0  0  0  0  0
  140.2050   72.8060  221.8770 C   0  0  0  0  0  0  0  0  0  0  0  0
  139.8500   74.1830  222.0750 N   0  0  0  0  0  0  0  0  0  0  0  0
  139.8870   75.0830  220.9640 C   0  0  0  0  0  0  0  0  0  0  0  0
  141.2620   75.6020  220.7000 C   0  0  0  0  0  0  0  0  0  0  0  0
  142.2030   74.9220  221.1750 O   0  0  0  0  0  0  0  0  0  0  0  0
  141.4120   76.7920  219.9540 N   0  0  0  0  0  0  0  0  0  0  0  0
  141.2870   76.7110  218.4830 C   0  0  0  0  0  0  0  0  0  0  0  0
  142.1840   77.8020  217.8870 C   0  0  0  0  0  0  0  0  0  0  0  0
  141.6740   79.1730  218.2970 C   0  0  0  0  0  0  0  0  0  0  0  0
  140.8950   79.0650  219.6160 C   0  0  0  0  0  0  0  0  0  0  0  0
  141.6800   78.1010  220.4830 C   0  0  1  0  0  0  0  0  0  0  0  0
  141.5020   78.2810  221.9410 C   0  0  0  0  0  0  0  0  0  0  0  0
  140.0770   78.3180  222.4240 C   0  0  0  0  0  0  0  0  0  0  0  0
  139.6130   79.7310  222.7130 C   0  0  0  0  0  0  0  0  0  0  0  0
  140.4750   80.3970  223.7600 C   0  0  0  0  0  0  0  0  0  0  0  0
  141.8760   79.8300  223.8290 C   0  0  0  0  0  0  0  0  0  0  0  0
  142.2630   79.5020  222.4000 C   0  0  0  0  0  0  0  0  0  0  0  0
  140.1600   71.8950  223.0360 C   0  0  0  0  0  0  0  0  0  0  0  0
  139.5760   70.6560  222.8650 C   0  0  0  0  0  0  0  0  0  0  0  0
  139.4820   69.7290  223.8790 C   0  0  0  0  0  0  0  0  0  0  0  0
  140.0130   70.1090  225.1100 C   0  0  0  0  0  0  0  0  0  0  0  0
  139.9390   69.2130  226.1510 C   0  0  0  0  0  0  0  0  0  0  0  0
  140.4590   69.5690  227.3750 C   0  0  0  0  0  0  0  0  0  0  0  0
  140.3810   68.4530  228.7220 Cl  0  0  0  0  0  0  0  0  0  0  0  0
  141.0430   70.8170  227.5350 C   0  0  0  0  0  0  0  0  0  0  0  0
  141.1140   71.7160  226.4830 C   0  0  0  0  0  0  0  0  0  0  0  0
  140.5950   71.3570  225.2650 C   0  0  0  0  0  0  0  0  0  0  0  0
  140.6670   72.2400  224.2350 N   0  0  0  0  0  0  0  0  0  0  0  0
  139.5760   74.4840  223.0310 H   0  0  0  0  0  0  0  0  0  0  0  0
  139.5307   74.5536  220.0680 H   0  0  0  0  0  0  0  0  0  0  0  0
  139.2439   75.9421  221.2056 H   0  0  0  0  0  0  0  0  0  0  0  0
  141.6143   75.7214  218.1316 H   0  0  0  0  0  0  0  0  0  0  0  0
  140.2414   76.8550  218.1731 H   0  0  0  0  0  0  0  0  0  0  0  0
  143.2121   77.6703  218.2554 H   0  0  0  0  0  0  0  0  0  0  0  0
  142.1688   77.7235  216.7899 H   0  0  0  0  0  0  0  0  0  0  0  0
  142.5268   79.8547  218.4313 H   0  0  0  0  0  0  0  0  0  0  0  0
  141.0082   79.5624  217.5127 H   0  0  0  0  0  0  0  0  0  0  0  0
  140.8274   80.0493  220.1024 H   0  0  0  0  0  0  0  0  0  0  0  0
  139.8659   78.7136  219.4502 H   0  0  0  0  0  0  0  0  0  0  0  0
  142.7599   78.3016  220.4239 H   0  0  0  0  0  0  0  0  0  0  0  0
  141.9145   77.3713  222.4018 H   0  0  0  0  0  0  0  0  0  0  0  0
  139.4281   77.8823  221.6500 H   0  0  0  0  0  0  0  0  0  0  0  0
  140.0202   77.7432  223.3601 H   0  0  0  0  0  0  0  0  0  0  0  0
  139.6607   80.3192  221.7847 H   0  0  0  0  0  0  0  0  0  0  0  0
  138.5828   79.6830  223.0956 H   0  0  0  0  0  0  0  0  0  0  0  0
  140.5433   81.4696  223.5257 H   0  0  0  0  0  0  0  0  0  0  0  0
  140.0013   80.2160  224.7361 H   0  0  0  0  0  0  0  0  0  0  0  0
  142.5687   80.5724  224.2521 H   0  0  0  0  0  0  0  0  0  0  0  0
  141.9199   78.9397  224.4736 H   0  0  0  0  0  0  0  0  0  0  0  0
  142.0173   80.3537  221.7487 H   0  0  0  0  0  0  0  0  0  0  0  0
  143.3434   79.3018  222.3490 H   0  0  0  0  0  0  0  0  0  0  0  0
  139.1683   70.3981  221.8765 H   0  0  0  0  0  0  0  0  0  0  0  0
  139.0146   68.7451  223.7260 H   0  0  0  0  0  0  0  0  0  0  0  0
  139.4717   68.2275  226.0078 H   0  0  0  0  0  0  0  0  0  0  0  0
  141.4572   71.0980  228.5146 H   0  0  0  0  0  0  0  0  0  0  0  0
  141.5796   72.7028  226.6225 H   0  0  0  0  0  0  0  0  0  0  0  0
  1  2  2  0
  2  3  1  0
  3  4  1  0
  4  5  1  0
  5  6  2  0
  5  7  1  0
  7  8  1  0
  8  9  1  0
  9 10  1  0
 10 11  1  0
 11 12  1  0
 12 13  1  0
 13 14  1  0
 14 15  1  0
 15 16  1  0
 16 17  1  0
 17 18  1  0
  2 19  1  0
 19 20  2  0
 20 21  1  0
 21 22  2  0
 22 23  1  0
 23 24  2  0
 24 25  1  0
 24 26  1  0
 26 27  2  0
 27 28  1  0
 28 29  2  0
 12  7  1  0
 18 13  1  0
 29 19  1  0
 28 22  1  0
  3 30  1  0
  4 31  1  0
  4 32  1  0
  8 33  1  0
  8 34  1  0
  9 35  1  0
  9 36  1  0
 10 37  1  0
 10 38  1  0
 11 39  1  0
 11 40  1  0
 12 41  1  1
 13 42  1  0
 14 43  1  0
 14 44  1  0
 15 45  1  0
 15 46  1  0
 16 47  1  0
 16 48  1  0
 17 49  1  0
 17 50  1  0
 18 51  1  0
 18 52  1  0
 20 53  1  0
 21 54  1  0
 23 55  1  0
 26 56  1  0
 27 57  1  0
M  END
>  <meeko>  (13) 
{"free_energy": -8.7, "intermolecular_energy": -10.19, "internal_energy": -1.55, "cluster_size": 16, "cluster_id": 1, "rank_in_cluster": 13}

$$$$

     RDKit          3D

 57 60  0  0  0  0  0  0  0  0999 V2000
  140.4340   72.4360  220.7800 O   0  0  0  0  0  0  0  0  0  0  0  0
  140.1420   72.8410  221.9550 C   0  0  0  0  0  0  0  0  0  0  0  0
  139.8060   74.2160  222.1980 N   0  0  0  0  0  0  0  0  0  0  0  0
  139.7990   75.1390  221.1070 C   0  0  0  0  0  0  0  0  0  0  0  0
  140.1990   76.5150  221.5260 C   0  0  0  0  0  0  0  0  0  0  0  0
  139.8710   76.8480  222.6900 O   0  0  0  0  0  0  0  0  0  0  0  0
  140.9010   77.3320  220.6120 N   0  0  0  0  0  0  0  0  0  0  0  0
  140.7800   77.0260  219.1710 C   0  0  0  0  0  0  0  0  0  0  0  0
  142.0930   77.4480  218.5020 C   0  0  0  0  0  0  0  0  0  0  0  0
  142.2740   78.9510  218.6180 C   0  0  0  0  0  0  0  0  0  0  0  0
  141.5110   79.4730  219.8440 C   0  0  0  0  0  0  0  0  0  0  0  0
  141.7390   78.4520  220.9410 C   0  0  1  0  0  0  0  0  0  0  0  0
  141.6380   78.9790  222.3190 C   0  0  0  0  0  0  0  0  0  0  0  0
  140.4340   79.8350  222.6040 C   0  0  0  0  0  0  0  0  0  0  0  0
  140.7780   81.3110  222.6150 C   0  0  0  0  0  0  0  0  0  0  0  0
  141.8280   81.6310  223.6520 C   0  0  0  0  0  0  0  0  0  0  0  0
  142.7160   80.4510  223.9860 C   0  0  0  0  0  0  0  0  0  0  0  0
  142.9150   79.6990  222.6840 C   0  0  0  0  0  0  0  0  0  0  0  0
  140.1420   71.9050  223.0950 C   0  0  0  0  0  0  0  0  0  0  0  0
  139.6340   70.6370  222.8940 C   0  0  0  0  0  0  0  0  0  0  0  0
  139.5870   69.6860  223.8880 C   0  0  0  0  0  0  0  0  0  0  0  0
  140.0860   70.0710  225.1300 C   0  0  0  0  0  0  0  0  0  0  0  0
  140.0580   69.1500  226.1520 C   0  0  0  0  0  0  0  0  0  0  0  0
  140.5480   69.5100  227.3880 C   0  0  0  0  0  0  0  0  0  0  0  0
  140.5270   68.3630  228.7100 Cl  0  0  0  0  0  0  0  0  0  0  0  0
  141.0570   70.7870  227.5780 C   0  0  0  0  0  0  0  0  0  0  0  0
  141.0820   71.7090  226.5440 C   0  0  0  0  0  0  0  0  0  0  0  0
  140.5940   71.3470  225.3150 C   0  0  0  0  0  0  0  0  0  0  0  0
  140.6200   72.2540  224.3040 N   0  0  0  0  0  0  0  0  0  0  0  0
  139.5760   74.4970  223.1730 H   0  0  0  0  0  0  0  0  0  0  0  0
  140.5025   74.7845  220.3393 H   0  0  0  0  0  0  0  0  0  0  0  0
  138.7717   75.1913  220.7172 H   0  0  0  0  0  0  0  0  0  0  0  0
  140.6145   75.9480  219.0280 H   0  0  0  0  0  0  0  0  0  0  0  0
  139.9282   77.5640  218.7295 H   0  0  0  0  0  0  0  0  0  0  0  0
  142.9339   76.9403  218.9971 H   0  0  0  0  0  0  0  0  0  0  0  0
  142.0631   77.1685  217.4385 H   0  0  0  0  0  0  0  0  0  0  0  0
  143.3437   79.1827  218.7275 H   0  0  0  0  0  0  0  0  0  0  0  0
  141.8810   79.4354  217.7120 H   0  0  0  0  0  0  0  0  0  0  0  0
  141.9018   80.4552  220.1482 H   0  0  0  0  0  0  0  0  0  0  0  0
  140.4400   79.6018  219.6284 H   0  0  0  0  0  0  0  0  0  0  0  0
  142.7886   78.1241  220.9682 H   0  0  0  0  0  0  0  0  0  0  0  0
  141.4930   78.0969  222.9600 H   0  0  0  0  0  0  0  0  0  0  0  0
  139.6764   79.6525  221.8277 H   0  0  0  0  0  0  0  0  0  0  0  0
  140.0540   79.5667  223.6008 H   0  0  0  0  0  0  0  0  0  0  0  0
  141.1580   81.5961  221.6229 H   0  0  0  0  0  0  0  0  0  0  0  0
  139.8665   81.8741  222.8642 H   0  0  0  0  0  0  0  0  0  0  0  0
  142.4595   82.4466  223.2699 H   0  0  0  0  0  0  0  0  0  0  0  0
  141.3003   81.9143  224.5747 H   0  0  0  0  0  0  0  0  0  0  0  0
  143.6829   80.7988  224.3786 H   0  0  0  0  0  0  0  0  0  0  0  0
  142.2634   79.8105  224.7573 H   0  0  0  0  0  0  0  0  0  0  0  0
  143.1763   80.4097  221.8861 H   0  0  0  0  0  0  0  0  0  0  0  0
  143.7276   78.9673  222.8033 H   0  0  0  0  0  0  0  0  0  0  0  0
  139.2504   70.3756  221.8968 H   0  0  0  0  0  0  0  0  0  0  0  0
  139.1789   68.6799  223.7116 H   0  0  0  0  0  0  0  0  0  0  0  0
  139.6507   68.1420  225.9845 H   0  0  0  0  0  0  0  0  0  0  0  0
  141.4472   71.0721  228.5662 H   0  0  0  0  0  0  0  0  0  0  0  0
  141.4881   72.7182  226.7071 H   0  0  0  0  0  0  0  0  0  0  0  0
  1  2  2  0
  2  3  1  0
  3  4  1  0
  4  5  1  0
  5  6  2  0
  5  7  1  0
  7  8  1  0
  8  9  1  0
  9 10  1  0
 10 11  1  0
 11 12  1  0
 12 13  1  0
 13 14  1  0
 14 15  1  0
 15 16  1  0
 16 17  1  0
 17 18  1  0
  2 19  1  0
 19 20  2  0
 20 21  1  0
 21 22  2  0
 22 23  1  0
 23 24  2  0
 24 25  1  0
 24 26  1  0
 26 27  2  0
 27 28  1  0
 28 29  2  0
 12  7  1  0
 18 13  1  0
 29 19  1  0
 28 22  1  0
  3 30  1  0
  4 31  1  0
  4 32  1  0
  8 33  1  0
  8 34  1  0
  9 35  1  0
  9 36  1  0
 10 37  1  0
 10 38  1  0
 11 39  1  0
 11 40  1  0
 12 41  1  6
 13 42  1  0
 14 43  1  0
 14 44  1  0
 15 45  1  0
 15 46  1  0
 16 47  1  0
 16 48  1  0
 17 49  1  0
 17 50  1  0
 18 51  1  0
 18 52  1  0
 20 53  1  0
 21 54  1  0
 23 55  1  0
 26 56  1  0
 27 57  1  0
M  END
>  <meeko>  (14) 
{"free_energy": -9.21, "intermolecular_energy": -10.7, "internal_energy": -1.71, "cluster_size": 16, "cluster_id": 1, "rank_in_cluster": 8}

$$$$

     RDKit          3D

 57 60  0  0  0  0  0  0  0  0999 V2000
  134.9240   68.2260  224.9410 O   0  0  0  0  0  0  0  0  0  0  0  0
  135.2530   69.4110  224.5970 C   0  0  0  0  0  0  0  0  0  0  0  0
  136.2380   69.6360  223.5770 N   0  0  0  0  0  0  0  0  0  0  0  0
  136.8560   68.5150  222.9410 C   0  0  0  0  0  0  0  0  0  0  0  0
  138.2960   68.3770  223.3090 C   0  0  0  0  0  0  0  0  0  0  0  0
  138.7130   67.2020  223.4520 O   0  0  0  0  0  0  0  0  0  0  0  0
  139.0760   69.5430  223.4710 N   0  0  0  0  0  0  0  0  0  0  0  0
  139.0030   70.5810  222.4200 C   0  0  0  0  0  0  0  0  0  0  0  0
  140.3620   71.2870  222.3780 C   0  0  0  0  0  0  0  0  0  0  0  0
  140.6120   72.0090  223.6910 C   0  0  0  0  0  0  0  0  0  0  0  0
  139.8240   71.3260  224.8180 C   0  0  0  0  0  0  0  0  0  0  0  0
  139.9530   69.8360  224.5710 C   0  0  1  0  0  0  0  0  0  0  0  0
  139.8190   68.9870  225.7750 C   0  0  0  0  0  0  0  0  0  0  0  0
  139.1630   69.6380  226.9620 C   0  0  0  0  0  0  0  0  0  0  0  0
  140.1740   70.0660  228.0060 C   0  0  0  0  0  0  0  0  0  0  0  0
  140.9850   68.8940  228.5100 C   0  0  0  0  0  0  0  0  0  0  0  0
  141.0780   67.7600  227.5120 C   0  0  0  0  0  0  0  0  0  0  0  0
  141.1670   68.4140  226.1470 C   0  0  0  0  0  0  0  0  0  0  0  0
  134.6280   70.5820  225.2410 C   0  0  0  0  0  0  0  0  0  0  0  0
  133.7290   70.3560  226.2650 C   0  0  0  0  0  0  0  0  0  0  0  0
  133.0890   71.3740  226.9340 C   0  0  0  0  0  0  0  0  0  0  0  0
  133.3970   72.6690  226.5210 C   0  0  0  0  0  0  0  0  0  0  0  0
  132.7800   73.7170  227.1630 C   0  0  0  0  0  0  0  0  0  0  0  0
  133.0710   75.0050  226.7720 C   0  0  0  0  0  0  0  0  0  0  0  0
  132.3030   76.3620  227.5670 Cl  0  0  0  0  0  0  0  0  0  0  0  0
  133.9770   75.2190  225.7420 C   0  0  0  0  0  0  0  0  0  0  0  0
  134.5950   74.1590  225.0990 C   0  0  0  0  0  0  0  0  0  0  0  0
  134.3020   72.8780  225.4930 C   0  0  0  0  0  0  0  0  0  0  0  0
  134.9100   71.8410  224.8600 N   0  0  0  0  0  0  0  0  0  0  0  0
  136.4730   70.6190  223.3340 H   0  0  0  0  0  0  0  0  0  0  0  0
  136.3247   67.6002  223.2424 H   0  0  0  0  0  0  0  0  0  0  0  0
  136.8004   68.6725  221.8537 H   0  0  0  0  0  0  0  0  0  0  0  0
  138.7908   70.1157  221.4461 H   0  0  0  0  0  0  0  0  0  0  0  0
  138.1989   71.2991  222.6386 H   0  0  0  0  0  0  0  0  0  0  0  0
  141.1548   70.5421  222.2150 H   0  0  0  0  0  0  0  0  0  0  0  0
  140.3639   72.0189  221.5569 H   0  0  0  0  0  0  0  0  0  0  0  0
  141.6862   71.9784  223.9259 H   0  0  0  0  0  0  0  0  0  0  0  0
  140.2825   73.0545  223.5992 H   0  0  0  0  0  0  0  0  0  0  0  0
  140.2501   71.5899  225.7972 H   0  0  0  0  0  0  0  0  0  0  0  0
  138.7712   71.6446  224.8252 H   0  0  0  0  0  0  0  0  0  0  0  0
  140.9831   69.5671  224.2940 H   0  0  0  0  0  0  0  0  0  0  0  0
  139.1208   68.1854  225.4923 H   0  0  0  0  0  0  0  0  0  0  0  0
  138.6092   70.5246  226.6196 H   0  0  0  0  0  0  0  0  0  0  0  0
  138.4891   68.9014  227.4239 H   0  0  0  0  0  0  0  0  0  0  0  0
  140.8552   70.8061  227.5607 H   0  0  0  0  0  0  0  0  0  0  0  0
  139.6271   70.4971  228.8576 H   0  0  0  0  0  0  0  0  0  0  0  0
  142.0027   69.2447  228.7365 H   0  0  0  0  0  0  0  0  0  0  0  0
  140.4745   68.5029  229.4024 H   0  0  0  0  0  0  0  0  0  0  0  0
  141.9750   67.1532  227.7048 H   0  0  0  0  0  0  0  0  0  0  0  0
  140.2099   67.0881  227.5821 H   0  0  0  0  0  0  0  0  0  0  0  0
  141.9137   69.2213  226.1750 H   0  0  0  0  0  0  0  0  0  0  0  0
  141.4660   67.6643  225.3996 H   0  0  0  0  0  0  0  0  0  0  0  0
  133.5155   69.3176  226.5583 H   0  0  0  0  0  0  0  0  0  0  0  0
  132.3755   71.1771  227.7478 H   0  0  0  0  0  0  0  0  0  0  0  0
  132.0644   73.5292  227.9770 H   0  0  0  0  0  0  0  0  0  0  0  0
  134.2082   76.2485  225.4310 H   0  0  0  0  0  0  0  0  0  0  0  0
  135.3107   74.3419  224.2839 H   0  0  0  0  0  0  0  0  0  0  0  0
  1  2  2  0
  2  3  1  0
  3  4  1  0
  4  5  1  0
  5  6  2  0
  5  7  1  0
  7  8  1  0
  8  9  1  0
  9 10  1  0
 10 11  1  0
 11 12  1  0
 12 13  1  0
 13 14  1  0
 14 15  1  0
 15 16  1  0
 16 17  1  0
 17 18  1  0
  2 19  1  0
 19 20  2  0
 20 21  1  0
 21 22  2  0
 22 23  1  0
 23 24  2  0
 24 25  1  0
 24 26  1  0
 26 27  2  0
 27 28  1  0
 28 29  2  0
 12  7  1  0
 18 13  1  0
 29 19  1  0
 28 22  1  0
  3 30  1  0
  4 31  1  0
  4 32  1  0
  8 33  1  0
  8 34  1  0
  9 35  1  0
  9 36  1  0
 10 37  1  0
 10 38  1  0
 11 39  1  0
 11 40  1  0
 12 41  1  6
 13 42  1  0
 14 43  1  0
 14 44  1  0
 15 45  1  0
 15 46  1  0
 16 47  1  0
 16 48  1  0
 17 49  1  0
 17 50  1  0
 18 51  1  0
 18 52  1  0
 20 53  1  0
 21 54  1  0
 23 55  1  0
 26 56  1  0
 27 57  1  0
M  END
>  <meeko>  (15) 
{"free_energy": -7.97, "intermolecular_energy": -9.46, "internal_energy": -2.09, "cluster_size": 3, "cluster_id": 3, "rank_in_cluster": 2}

$$$$

     RDKit          3D

 57 60  0  0  0  0  0  0  0  0999 V2000
  139.9940   71.9100  220.8420 O   0  0  0  0  0  0  0  0  0  0  0  0
  139.8730   72.3720  222.0260 C   0  0  0  0  0  0  0  0  0  0  0  0
  139.6560   73.7740  222.2510 N   0  0  0  0  0  0  0  0  0  0  0  0
  139.5740   74.6590  221.1310 C   0  0  0  0  0  0  0  0  0  0  0  0
  140.5470   75.7860  221.2270 C   0  0  0  0  0  0  0  0  0  0  0  0
  140.6390   76.3350  222.3520 O   0  0  0  0  0  0  0  0  0  0  0  0
  141.2830   76.1540  220.0790 N   0  0  0  0  0  0  0  0  0  0  0  0
  140.8620   77.3640  219.3400 C   0  0  0  0  0  0  0  0  0  0  0  0
  141.2210   77.1480  217.8660 C   0  0  0  0  0  0  0  0  0  0  0  0
  142.7280   77.0420  217.7100 C   0  0  0  0  0  0  0  0  0  0  0  0
  143.3520   76.5430  219.0220 C   0  0  0  0  0  0  0  0  0  0  0  0
  142.4230   75.4640  219.5400 C   0  0  1  0  0  0  0  0  0  0  0  0
  143.0610   74.4510  220.4090 C   0  0  0  0  0  0  0  0  0  0  0  0
  144.5630   74.4970  220.4690 C   0  0  0  0  0  0  0  0  0  0  0  0
  145.1990   73.4180  219.6160 C   0  0  0  0  0  0  0  0  0  0  0  0
  144.7610   72.0380  220.0460 C   0  0  0  0  0  0  0  0  0  0  0  0
  143.4130   72.0270  220.7350 C   0  0  0  0  0  0  0  0  0  0  0  0
  142.5750   73.0730  220.0250 C   0  0  0  0  0  0  0  0  0  0  0  0
  139.9540   71.4770  223.1950 C   0  0  0  0  0  0  0  0  0  0  0  0
  139.4890   70.1840  223.0550 C   0  0  0  0  0  0  0  0  0  0  0  0
  139.5170   69.2670  224.0810 C   0  0  0  0  0  0  0  0  0  0  0  0
  140.0490   69.7120  225.2890 C   0  0  0  0  0  0  0  0  0  0  0  0
  140.0970   68.8270  226.3410 C   0  0  0  0  0  0  0  0  0  0  0  0
  140.6190   69.2470  227.5440 C   0  0  0  0  0  0  0  0  0  0  0  0
  140.6940   68.1460  228.9030 Cl  0  0  0  0  0  0  0  0  0  0  0  0
  141.0850   70.5480  227.6710 C   0  0  0  0  0  0  0  0  0  0  0  0
  141.0330   71.4350  226.6080 C   0  0  0  0  0  0  0  0  0  0  0  0
  140.5130   71.0120  225.4120 C   0  0  0  0  0  0  0  0  0  0  0  0
  140.4650   71.8850  224.3720 N   0  0  0  0  0  0  0  0  0  0  0  0
  139.5650   74.1020  223.2330 H   0  0  0  0  0  0  0  0  0  0  0  0
  139.7826   74.0888  220.2137 H   0  0  0  0  0  0  0  0  0  0  0  0
  138.5617   75.0890  221.1155 H   0  0  0  0  0  0  0  0  0  0  0  0
  139.7769   77.5104  219.4452 H   0  0  0  0  0  0  0  0  0  0  0  0
  141.3675   78.2570  219.7363 H   0  0  0  0  0  0  0  0  0  0  0  0
  140.7513   76.2197  217.5087 H   0  0  0  0  0  0  0  0  0  0  0  0
  140.8554   78.0013  217.2759 H   0  0  0  0  0  0  0  0  0  0  0  0
  142.9627   76.3342  216.9014 H   0  0  0  0  0  0  0  0  0  0  0  0
  143.1389   78.0327  217.4656 H   0  0  0  0  0  0  0  0  0  0  0  0
  144.3537   76.1284  218.8358 H   0  0  0  0  0  0  0  0  0  0  0  0
  143.4682   77.3594  219.7500 H   0  0  0  0  0  0  0  0  0  0  0  0
  142.0939   74.7996  218.7274 H   0  0  0  0  0  0  0  0  0  0  0  0
  142.7471   74.7022  221.4329 H   0  0  0  0  0  0  0  0  0  0  0  0
  144.9027   75.4797  220.1100 H   0  0  0  0  0  0  0  0  0  0  0  0
  144.8665   74.3277  221.5127 H   0  0  0  0  0  0  0  0  0  0  0  0
  144.9073   73.5742  218.5669 H   0  0  0  0  0  0  0  0  0  0  0  0
  146.2905   73.4848  219.7348 H   0  0  0  0  0  0  0  0  0  0  0  0
  144.7031   71.3961  219.1546 H   0  0  0  0  0  0  0  0  0  0  0  0
  145.5018   71.6717  220.7720 H   0  0  0  0  0  0  0  0  0  0  0  0
  142.9450   71.0357  220.6444 H   0  0  0  0  0  0  0  0  0  0  0  0
  143.5065   72.2452  221.8091 H   0  0  0  0  0  0  0  0  0  0  0  0
  142.6681   72.9411  218.9369 H   0  0  0  0  0  0  0  0  0  0  0  0
  141.5209   72.9603  220.3184 H   0  0  0  0  0  0  0  0  0  0  0  0
  139.0790   69.8740  222.0825 H   0  0  0  0  0  0  0  0  0  0  0  0
  139.1407   68.2412  223.9543 H   0  0  0  0  0  0  0  0  0  0  0  0
  139.7239   67.7990  226.2230 H   0  0  0  0  0  0  0  0  0  0  0  0
  141.5030   70.8808  228.6325 H   0  0  0  0  0  0  0  0  0  0  0  0
  141.4038   72.4643  226.7220 H   0  0  0  0  0  0  0  0  0  0  0  0
  1  2  2  0
  2  3  1  0
  3  4  1  0
  4  5  1  0
  5  6  2  0
  5  7  1  0
  7  8  1  0
  8  9  1  0
  9 10  1  0
 10 11  1  0
 11 12  1  0
 12 13  1  0
 13 14  1  0
 14 15  1  0
 15 16  1  0
 16 17  1  0
 17 18  1  0
  2 19  1  0
 19 20  2  0
 20 21  1  0
 21 22  2  0
 22 23  1  0
 23 24  2  0
 24 25  1  0
 24 26  1  0
 26 27  2  0
 27 28  1  0
 28 29  2  0
 12  7  1  0
 18 13  1  0
 29 19  1  0
 28 22  1  0
  3 30  1  0
  4 31  1  0
  4 32  1  0
  8 33  1  0
  8 34  1  0
  9 35  1  0
  9 36  1  0
 10 37  1  0
 10 38  1  0
 11 39  1  0
 11 40  1  0
 12 41  1  6
 13 42  1  0
 14 43  1  0
 14 44  1  0
 15 45  1  0
 15 46  1  0
 16 47  1  0
 16 48  1  0
 17 49  1  0
 17 50  1  0
 18 51  1  0
 18 52  1  0
 20 53  1  0
 21 54  1  0
 23 55  1  0
 26 56  1  0
 27 57  1  0
M  END
>  <meeko>  (16) 
{"free_energy": -8.34, "intermolecular_energy": -9.83, "internal_energy": -2.17, "cluster_size": 16, "cluster_id": 1, "rank_in_cluster": 16}

$$$$

     RDKit          3D

 57 60  0  0  0  0  0  0  0  0999 V2000
  139.5080   71.8680  220.6920 O   0  0  0  0  0  0  0  0  0  0  0  0
  139.4430   72.3370  221.8780 C   0  0  0  0  0  0  0  0  0  0  0  0
  139.1810   73.7300  222.1070 N   0  0  0  0  0  0  0  0  0  0  0  0
  138.9900   74.6000  220.9880 C   0  0  0  0  0  0  0  0  0  0  0  0
  139.6110   75.9410  221.2000 C   0  0  0  0  0  0  0  0  0  0  0  0
  138.9860   76.7190  221.9600 O   0  0  0  0  0  0  0  0  0  0  0  0
  140.8290   76.2410  220.5510 N   0  0  0  0  0  0  0  0  0  0  0  0
  141.3020   75.3190  219.4960 C   0  0  0  0  0  0  0  0  0  0  0  0
  142.8330   75.3650  219.5000 C   0  0  0  0  0  0  0  0  0  0  0  0
  143.3110   76.7540  219.1140 C   0  0  0  0  0  0  0  0  0  0  0  0
  142.2330   77.7900  219.4660 C   0  0  0  0  0  0  0  0  0  0  0  0
  141.6780   77.3710  220.8120 C   0  0  1  0  0  0  0  0  0  0  0  0
  141.0990   78.4670  221.6210 C   0  0  0  0  0  0  0  0  0  0  0  0
  141.4700   79.8600  221.1910 C   0  0  0  0  0  0  0  0  0  0  0  0
  142.5400   80.4620  222.0780 C   0  0  0  0  0  0  0  0  0  0  0  0
  142.0970   80.5250  223.5210 C   0  0  0  0  0  0  0  0  0  0  0  0
  141.0520   79.4870  223.8710 C   0  0  0  0  0  0  0  0  0  0  0  0
  141.4190   78.2460  223.0810 C   0  0  0  0  0  0  0  0  0  0  0  0
  139.6370   71.4580  223.0460 C   0  0  0  0  0  0  0  0  0  0  0  0
  139.2380   70.1400  222.9390 C   0  0  0  0  0  0  0  0  0  0  0  0
  139.3720   69.2340  223.9670 C   0  0  0  0  0  0  0  0  0  0  0  0
  139.9420   69.7190  225.1430 C   0  0  0  0  0  0  0  0  0  0  0  0
  140.0960   68.8470  226.1950 C   0  0  0  0  0  0  0  0  0  0  0  0
  140.6570   69.3060  227.3660 C   0  0  0  0  0  0  0  0  0  0  0  0
  140.8660   68.2220  228.7250 Cl  0  0  0  0  0  0  0  0  0  0  0  0
  141.0550   70.6320  227.4600 C   0  0  0  0  0  0  0  0  0  0  0  0
  140.8980   71.5050  226.3970 C   0  0  0  0  0  0  0  0  0  0  0  0
  140.3380   71.0440  225.2330 C   0  0  0  0  0  0  0  0  0  0  0  0
  140.1860   71.9030  224.1920 N   0  0  0  0  0  0  0  0  0  0  0  0
  139.1390   74.0640  223.0900 H   0  0  0  0  0  0  0  0  0  0  0  0
  139.4428   74.1371  220.0988 H   0  0  0  0  0  0  0  0  0  0  0  0
  137.9078   74.7473  220.8574 H   0  0  0  0  0  0  0  0  0  0  0  0
  140.9560   74.2965  219.7075 H   0  0  0  0  0  0  0  0  0  0  0  0
  140.9071   75.6175  218.5137 H   0  0  0  0  0  0  0  0  0  0  0  0
  143.2024   75.1191  220.5065 H   0  0  0  0  0  0  0  0  0  0  0  0
  143.2185   74.6350  218.7730 H   0  0  0  0  0  0  0  0  0  0  0  0
  144.2355   76.9878  219.6623 H   0  0  0  0  0  0  0  0  0  0  0  0
  143.5051   76.7843  218.0317 H   0  0  0  0  0  0  0  0  0  0  0  0
  142.6750   78.7952  219.5305 H   0  0  0  0  0  0  0  0  0  0  0  0
  141.4454   77.8297  218.6991 H   0  0  0  0  0  0  0  0  0  0  0  0
  142.4837   77.0689  221.4972 H   0  0  0  0  0  0  0  0  0  0  0  0
  140.0135   78.4168  221.4499 H   0  0  0  0  0  0  0  0  0  0  0  0
  141.8443   79.8246  220.1572 H   0  0  0  0  0  0  0  0  0  0  0  0
  140.5714   80.4898  221.2677 H   0  0  0  0  0  0  0  0  0  0  0  0
  143.4483   79.8452  222.0102 H   0  0  0  0  0  0  0  0  0  0  0  0
  142.7348   81.4883  221.7332 H   0  0  0  0  0  0  0  0  0  0  0  0
  142.9757   80.3666  224.1635 H   0  0  0  0  0  0  0  0  0  0  0  0
  141.6412   81.5135  223.6797 H   0  0  0  0  0  0  0  0  0  0  0  0
  141.0710   79.2734  224.9499 H   0  0  0  0  0  0  0  0  0  0  0  0
  140.0379   79.8362  223.6269 H   0  0  0  0  0  0  0  0  0  0  0  0
  142.4943   78.0436  223.1944 H   0  0  0  0  0  0  0  0  0  0  0  0
  140.8432   77.3876  223.4573 H   0  0  0  0  0  0  0  0  0  0  0  0
  138.7942   69.7996  221.9918 H   0  0  0  0  0  0  0  0  0  0  0  0
  139.0479   68.1877  223.8661 H   0  0  0  0  0  0  0  0  0  0  0  0
  139.7759   67.7987  226.1027 H   0  0  0  0  0  0  0  0  0  0  0  0
  141.5034   70.9962  228.3961 H   0  0  0  0  0  0  0  0  0  0  0  0
  141.2179   72.5538  226.4848 H   0  0  0  0  0  0  0  0  0  0  0  0
  1  2  2  0
  2  3  1  0
  3  4  1  0
  4  5  1  0
  5  6  2  0
  5  7  1  0
  7  8  1  0
  8  9  1  0
  9 10  1  0
 10 11  1  0
 11 12  1  0
 12 13  1  0
 13 14  1  0
 14 15  1  0
 15 16  1  0
 16 17  1  0
 17 18  1  0
  2 19  1  0
 19 20  2  0
 20 21  1  0
 21 22  2  0
 22 23  1  0
 23 24  2  0
 24 25  1  0
 24 26  1  0
 26 27  2  0
 27 28  1  0
 28 29  2  0
 12  7  1  0
 18 13  1  0
 29 19  1  0
 28 22  1  0
  3 30  1  0
  4 31  1  0
  4 32  1  0
  8 33  1  0
  8 34  1  0
  9 35  1  0
  9 36  1  0
 10 37  1  0
 10 38  1  0
 11 39  1  0
 11 40  1  0
 12 41  1  1
 13 42  1  0
 14 43  1  0
 14 44  1  0
 15 45  1  0
 15 46  1  0
 16 47  1  0
 16 48  1  0
 17 49  1  0
 17 50  1  0
 18 51  1  0
 18 52  1  0
 20 53  1  0
 21 54  1  0
 23 55  1  0
 26 56  1  0
 27 57  1  0
M  END
>  <meeko>  (17) 
{"free_energy": -9.21, "intermolecular_energy": -10.71, "internal_energy": -1.56, "cluster_size": 16, "cluster_id": 1, "rank_in_cluster": 6}

$$$$

     RDKit          3D

 57 60  0  0  0  0  0  0  0  0999 V2000
  138.9560   71.8230  220.8510 O   0  0  0  0  0  0  0  0  0  0  0  0
  139.2440   72.3070  221.9970 C   0  0  0  0  0  0  0  0  0  0  0  0
  139.3100   73.7270  222.2010 N   0  0  0  0  0  0  0  0  0  0  0  0
  139.0500   74.6060  221.1040 C   0  0  0  0  0  0  0  0  0  0  0  0
  139.6720   75.9490  221.2930 C   0  0  0  0  0  0  0  0  0  0  0  0
  139.0720   76.7240  222.0760 O   0  0  0  0  0  0  0  0  0  0  0  0
  140.8640   76.2550  220.5990 N   0  0  0  0  0  0  0  0  0  0  0  0
  141.3230   75.3140  219.5560 C   0  0  0  0  0  0  0  0  0  0  0  0
  142.8530   75.3900  219.5120 C   0  0  0  0  0  0  0  0  0  0  0  0
  143.2910   76.7770  219.0740 C   0  0  0  0  0  0  0  0  0  0  0  0
  142.2030   77.8010  219.4300 C   0  0  0  0  0  0  0  0  0  0  0  0
  141.6970   77.4090  220.8040 C   0  0  1  0  0  0  0  0  0  0  0  0
  141.1200   78.5150  221.5990 C   0  0  0  0  0  0  0  0  0  0  0  0
  141.4970   79.9020  221.1550 C   0  0  0  0  0  0  0  0  0  0  0  0
  142.5670   80.5100  222.0390 C   0  0  0  0  0  0  0  0  0  0  0  0
  142.1210   80.5900  223.4800 C   0  0  0  0  0  0  0  0  0  0  0  0
  141.0720   79.5590  223.8380 C   0  0  0  0  0  0  0  0  0  0  0  0
  141.4360   78.3090  223.0620 C   0  0  0  0  0  0  0  0  0  0  0  0
  139.5160   71.4190  223.1420 C   0  0  0  0  0  0  0  0  0  0  0  0
  139.1830   70.0840  223.0210 C   0  0  0  0  0  0  0  0  0  0  0  0
  139.3940   69.1690  224.0270 C   0  0  0  0  0  0  0  0  0  0  0  0
  139.9700   69.6620  225.1960 C   0  0  0  0  0  0  0  0  0  0  0  0
  140.1980   68.7810  226.2270 C   0  0  0  0  0  0  0  0  0  0  0  0
  140.7670   69.2480  227.3900 C   0  0  0  0  0  0  0  0  0  0  0  0
  141.0710   68.1540  228.7220 Cl  0  0  0  0  0  0  0  0  0  0  0  0
  141.0980   70.5920  227.5000 C   0  0  0  0  0  0  0  0  0  0  0  0
  140.8650   71.4740  226.4580 C   0  0  0  0  0  0  0  0  0  0  0  0
  140.2980   71.0050  225.3010 C   0  0  0  0  0  0  0  0  0  0  0  0
  140.0720   71.8730  224.2810 N   0  0  0  0  0  0  0  0  0  0  0  0
  139.5490   74.0730  223.1520 H   0  0  0  0  0  0  0  0  0  0  0  0
  139.4548   74.1550  220.1860 H   0  0  0  0  0  0  0  0  0  0  0  0
  137.9611   74.7466  221.0370 H   0  0  0  0  0  0  0  0  0  0  0  0
  141.0043   74.2912  219.8057 H   0  0  0  0  0  0  0  0  0  0  0  0
  140.8926   75.5773  218.5785 H   0  0  0  0  0  0  0  0  0  0  0  0
  143.2573   75.1793  220.5131 H   0  0  0  0  0  0  0  0  0  0  0  0
  143.2312   74.6478  218.7936 H   0  0  0  0  0  0  0  0  0  0  0  0
  144.2263   77.0441  219.5876 H   0  0  0  0  0  0  0  0  0  0  0  0
  143.4524   76.7810  217.9859 H   0  0  0  0  0  0  0  0  0  0  0  0
  142.6260   78.8162  219.4533 H   0  0  0  0  0  0  0  0  0  0  0  0
  141.3922   77.8036  218.6867 H   0  0  0  0  0  0  0  0  0  0  0  0
  142.5284   77.1425  221.4732 H   0  0  0  0  0  0  0  0  0  0  0  0
  140.0348   78.4665  221.4257 H   0  0  0  0  0  0  0  0  0  0  0  0
  141.8741   79.8542  220.1228 H   0  0  0  0  0  0  0  0  0  0  0  0
  140.6004   80.5357  221.2222 H   0  0  0  0  0  0  0  0  0  0  0  0
  143.4733   79.8894  221.9801 H   0  0  0  0  0  0  0  0  0  0  0  0
  142.7658   81.5320  221.6839 H   0  0  0  0  0  0  0  0  0  0  0  0
  142.9976   80.4357  224.1263 H   0  0  0  0  0  0  0  0  0  0  0  0
  141.6682   81.5816  223.6273 H   0  0  0  0  0  0  0  0  0  0  0  0
  141.0880   79.3564  224.9191 H   0  0  0  0  0  0  0  0  0  0  0  0
  140.0597   79.9092  223.5877 H   0  0  0  0  0  0  0  0  0  0  0  0
  142.5103   78.1040  223.1798 H   0  0  0  0  0  0  0  0  0  0  0  0
  140.8560   77.4569  223.4461 H   0  0  0  0  0  0  0  0  0  0  0  0
  138.7299   69.7375  222.0805 H   0  0  0  0  0  0  0  0  0  0  0  0
  139.1233   68.1088  223.9146 H   0  0  0  0  0  0  0  0  0  0  0  0
  139.9297   67.7192  226.1238 H   0  0  0  0  0  0  0  0  0  0  0  0
  141.5530   70.9624  228.4305 H   0  0  0  0  0  0  0  0  0  0  0  0
  141.1313   72.5367  226.5572 H   0  0  0  0  0  0  0  0  0  0  0  0
  1  2  2  0
  2  3  1  0
  3  4  1  0
  4  5  1  0
  5  6  2  0
  5  7  1  0
  7  8  1  0
  8  9  1  0
  9 10  1  0
 10 11  1  0
 11 12  1  0
 12 13  1  0
 13 14  1  0
 14 15  1  0
 15 16  1  0
 16 17  1  0
 17 18  1  0
  2 19  1  0
 19 20  2  0
 20 21  1  0
 21 22  2  0
 22 23  1  0
 23 24  2  0
 24 25  1  0
 24 26  1  0
 26 27  2  0
 27 28  1  0
 28 29  2  0
 12  7  1  0
 18 13  1  0
 29 19  1  0
 28 22  1  0
  3 30  1  0
  4 31  1  0
  4 32  1  0
  8 33  1  0
  8 34  1  0
  9 35  1  0
  9 36  1  0
 10 37  1  0
 10 38  1  0
 11 39  1  0
 11 40  1  0
 12 41  1  1
 13 42  1  0
 14 43  1  0
 14 44  1  0
 15 45  1  0
 15 46  1  0
 16 47  1  0
 16 48  1  0
 17 49  1  0
 17 50  1  0
 18 51  1  0
 18 52  1  0
 20 53  1  0
 21 54  1  0
 23 55  1  0
 26 56  1  0
 27 57  1  0
M  END
>  <meeko>  (18) 
{"free_energy": -9.22, "intermolecular_energy": -10.71, "internal_energy": -1.59, "cluster_size": 16, "cluster_id": 1, "rank_in_cluster": 5}

$$$$

     RDKit          3D

 57 60  0  0  0  0  0  0  0  0999 V2000
  134.6980   68.3010  224.8090 O   0  0  0  0  0  0  0  0  0  0  0  0
  135.1460   69.4690  224.5550 C   0  0  0  0  0  0  0  0  0  0  0  0
  136.2300   69.6580  223.6320 N   0  0  0  0  0  0  0  0  0  0  0  0
  136.8110   68.5200  222.9920 C   0  0  0  0  0  0  0  0  0  0  0  0
  138.2640   68.3750  223.3040 C   0  0  0  0  0  0  0  0  0  0  0  0
  138.6880   67.1990  223.3940 O   0  0  0  0  0  0  0  0  0  0  0  0
  139.0470   69.5390  223.4730 N   0  0  0  0  0  0  0  0  0  0  0  0
  138.9660   70.5900  222.4360 C   0  0  0  0  0  0  0  0  0  0  0  0
  140.3250   71.2950  222.3920 C   0  0  0  0  0  0  0  0  0  0  0  0
  140.5870   72.0000  223.7120 C   0  0  0  0  0  0  0  0  0  0  0  0
  139.8070   71.3030  224.8360 C   0  0  0  0  0  0  0  0  0  0  0  0
  139.9330   69.8170  224.5700 C   0  0  1  0  0  0  0  0  0  0  0  0
  139.8080   68.9530  225.7640 C   0  0  0  0  0  0  0  0  0  0  0  0
  139.0510   69.5450  226.9210 C   0  0  0  0  0  0  0  0  0  0  0  0
  139.9780   70.0410  228.0120 C   0  0  0  0  0  0  0  0  0  0  0  0
  140.8500   68.9310  228.5500 C   0  0  0  0  0  0  0  0  0  0  0  0
  141.0740   67.8130  227.5540 C   0  0  0  0  0  0  0  0  0  0  0  0
  141.1770   68.4800  226.1960 C   0  0  0  0  0  0  0  0  0  0  0  0
  134.5600   70.6570  225.2050 C   0  0  0  0  0  0  0  0  0  0  0  0
  133.6430   70.4560  226.2170 C   0  0  0  0  0  0  0  0  0  0  0  0
  133.0370   71.4920  226.8900 C   0  0  0  0  0  0  0  0  0  0  0  0
  133.3990   72.7780  226.4940 C   0  0  0  0  0  0  0  0  0  0  0  0
  132.8160   73.8430  227.1410 C   0  0  0  0  0  0  0  0  0  0  0  0
  133.1610   75.1220  226.7650 C   0  0  0  0  0  0  0  0  0  0  0  0
  132.4380   76.5000  227.5660 Cl  0  0  0  0  0  0  0  0  0  0  0  0
  134.0840   75.3110  225.7460 C   0  0  0  0  0  0  0  0  0  0  0  0
  134.6670   74.2340  225.0980 C   0  0  0  0  0  0  0  0  0  0  0  0
  134.3210   72.9620  225.4760 C   0  0  0  0  0  0  0  0  0  0  0  0
  134.8950   71.9080  224.8390 N   0  0  0  0  0  0  0  0  0  0  0  0
  136.5600   70.6290  223.4600 H   0  0  0  0  0  0  0  0  0  0  0  0
  136.2843   67.6159  223.3315 H   0  0  0  0  0  0  0  0  0  0  0  0
  136.7122   68.6581  221.9052 H   0  0  0  0  0  0  0  0  0  0  0  0
  138.7454   70.1372  221.4581 H   0  0  0  0  0  0  0  0  0  0  0  0
  138.1643   71.3059  222.6700 H   0  0  0  0  0  0  0  0  0  0  0  0
  141.1156   70.5514  222.2128 H   0  0  0  0  0  0  0  0  0  0  0  0
  140.3207   72.0375  221.5804 H   0  0  0  0  0  0  0  0  0  0  0  0
  141.6630   71.9649  223.9378 H   0  0  0  0  0  0  0  0  0  0  0  0
  140.2588   73.0472  223.6366 H   0  0  0  0  0  0  0  0  0  0  0  0
  140.2405   71.5544  225.8152 H   0  0  0  0  0  0  0  0  0  0  0  0
  138.7544   71.6219  224.8546 H   0  0  0  0  0  0  0  0  0  0  0  0
  140.9607   69.5504  224.2822 H   0  0  0  0  0  0  0  0  0  0  0  0
  139.1855   68.1032  225.4472 H   0  0  0  0  0  0  0  0  0  0  0  0
  138.4482   70.3897  226.5560 H   0  0  0  0  0  0  0  0  0  0  0  0
  138.4140   68.7569  227.3489 H   0  0  0  0  0  0  0  0  0  0  0  0
  140.6215   70.8326  227.6007 H   0  0  0  0  0  0  0  0  0  0  0  0
  139.3615   70.4246  228.8383 H   0  0  0  0  0  0  0  0  0  0  0  0
  141.8269   69.3556  228.8246 H   0  0  0  0  0  0  0  0  0  0  0  0
  140.3298   68.4974  229.4168 H   0  0  0  0  0  0  0  0  0  0  0  0
  142.0041   67.2738  227.7869 H   0  0  0  0  0  0  0  0  0  0  0  0
  140.2562   67.0779  227.5817 H   0  0  0  0  0  0  0  0  0  0  0  0
  141.8592   69.3405  226.2606 H   0  0  0  0  0  0  0  0  0  0  0  0
  141.5656   67.7595  225.4612 H   0  0  0  0  0  0  0  0  0  0  0  0
  133.3858   69.4239  226.4973 H   0  0  0  0  0  0  0  0  0  0  0  0
  132.3083   71.3151  227.6948 H   0  0  0  0  0  0  0  0  0  0  0  0
  132.0856   73.6754  227.9462 H   0  0  0  0  0  0  0  0  0  0  0  0
  134.3575   76.3338  225.4475 H   0  0  0  0  0  0  0  0  0  0  0  0
  135.3972   74.3970  224.2916 H   0  0  0  0  0  0  0  0  0  0  0  0
  1  2  2  0
  2  3  1  0
  3  4  1  0
  4  5  1  0
  5  6  2  0
  5  7  1  0
  7  8  1  0
  8  9  1  0
  9 10  1  0
 10 11  1  0
 11 12  1  0
 12 13  1  0
 13 14  1  0
 14 15  1  0
 15 16  1  0
 16 17  1  0
 17 18  1  0
  2 19  1  0
 19 20  2  0
 20 21  1  0
 21 22  2  0
 22 23  1  0
 23 24  2  0
 24 25  1  0
 24 26  1  0
 26 27  2  0
 27 28  1  0
 28 29  2  0
 12  7  1  0
 18 13  1  0
 29 19  1  0
 28 22  1  0
  3 30  1  0
  4 31  1  0
  4 32  1  0
  8 33  1  0
  8 34  1  0
  9 35  1  0
  9 36  1  0
 10 37  1  0
 10 38  1  0
 11 39  1  0
 11 40  1  0
 12 41  1  6
 13 42  1  0
 14 43  1  0
 14 44  1  0
 15 45  1  0
 15 46  1  0
 16 47  1  0
 16 48  1  0
 17 49  1  0
 17 50  1  0
 18 51  1  0
 18 52  1  0
 20 53  1  0
 21 54  1  0
 23 55  1  0
 26 56  1  0
 27 57  1  0
M  END
>  <meeko>  (19) 
{"free_energy": -7.95, "intermolecular_energy": -9.44, "internal_energy": -2.06, "cluster_size": 3, "cluster_id": 3, "rank_in_cluster": 3}

$$$$

     RDKit          3D

 57 60  0  0  0  0  0  0  0  0999 V2000
  140.1870   72.3110  220.7020 O   0  0  0  0  0  0  0  0  0  0  0  0
  139.9960   72.7520  221.8850 C   0  0  0  0  0  0  0  0  0  0  0  0
  139.7290   74.1440  222.1180 N   0  0  0  0  0  0  0  0  0  0  0  0
  139.6760   75.0420  221.0080 C   0  0  0  0  0  0  0  0  0  0  0  0
  139.9610   76.4530  221.4060 C   0  0  0  0  0  0  0  0  0  0  0  0
  139.4880   76.8140  222.5110 O   0  0  0  0  0  0  0  0  0  0  0  0
  140.7220   77.2680  220.5400 N   0  0  0  0  0  0  0  0  0  0  0  0
  140.6050   77.0370  219.0850 C   0  0  0  0  0  0  0  0  0  0  0  0
  141.9500   77.4110  218.4520 C   0  0  0  0  0  0  0  0  0  0  0  0
  142.2160   78.8950  218.6400 C   0  0  0  0  0  0  0  0  0  0  0  0
  141.4660   79.4040  219.8800 C   0  0  0  0  0  0  0  0  0  0  0  0
  141.6190   78.3210  220.9300 C   0  0  1  0  0  0  0  0  0  0  0  0
  141.5280   78.7900  222.3310 C   0  0  0  0  0  0  0  0  0  0  0  0
  140.3190   79.6200  222.6640 C   0  0  0  0  0  0  0  0  0  0  0  0
  140.6460   81.0980  222.7330 C   0  0  0  0  0  0  0  0  0  0  0  0
  141.7060   81.3860  223.7700 C   0  0  0  0  0  0  0  0  0  0  0  0
  142.6100   80.2030  224.0450 C   0  0  0  0  0  0  0  0  0  0  0  0
  142.8020   79.5080  222.7110 C   0  0  0  0  0  0  0  0  0  0  0  0
  140.0460   71.8420  223.0440 C   0  0  0  0  0  0  0  0  0  0  0  0
  139.5730   70.5550  222.8790 C   0  0  0  0  0  0  0  0  0  0  0  0
  139.5730   69.6250  223.8940 C   0  0  0  0  0  0  0  0  0  0  0  0
  140.0820   70.0510  225.1190 C   0  0  0  0  0  0  0  0  0  0  0  0
  140.1010   69.1530  226.1600 C   0  0  0  0  0  0  0  0  0  0  0  0
  140.6000   69.5540  227.3790 C   0  0  0  0  0  0  0  0  0  0  0  0
  140.6380   68.4370  228.7260 Cl  0  0  0  0  0  0  0  0  0  0  0  0
  141.0730   70.8500  227.5320 C   0  0  0  0  0  0  0  0  0  0  0  0
  141.0520   71.7500  226.4790 C   0  0  0  0  0  0  0  0  0  0  0  0
  140.5530   71.3460  225.2670 C   0  0  0  0  0  0  0  0  0  0  0  0
  140.5340   72.2310  224.2370 N   0  0  0  0  0  0  0  0  0  0  0  0
  139.5810   74.4540  223.0990 H   0  0  0  0  0  0  0  0  0  0  0  0
  140.4212   74.7274  220.2626 H   0  0  0  0  0  0  0  0  0  0  0  0
  138.6566   75.0080  220.5962 H   0  0  0  0  0  0  0  0  0  0  0  0
  140.3787   75.9785  218.8894 H   0  0  0  0  0  0  0  0  0  0  0  0
  139.7930   77.6447  218.6593 H   0  0  0  0  0  0  0  0  0  0  0  0
  142.7527   76.8329  218.9331 H   0  0  0  0  0  0  0  0  0  0  0  0
  141.9198   77.1822  217.3765 H   0  0  0  0  0  0  0  0  0  0  0  0
  143.2956   79.0587  218.7732 H   0  0  0  0  0  0  0  0  0  0  0  0
  141.8653   79.4425  217.7527 H   0  0  0  0  0  0  0  0  0  0  0  0
  141.9083   80.3466  220.2349 H   0  0  0  0  0  0  0  0  0  0  0  0
  140.4076   79.6056  219.6581 H   0  0  0  0  0  0  0  0  0  0  0  0
  142.6472   77.9308  220.9527 H   0  0  0  0  0  0  0  0  0  0  0  0
  141.3991   77.8811  222.9370 H   0  0  0  0  0  0  0  0  0  0  0  0
  139.5549   79.4612  221.8888 H   0  0  0  0  0  0  0  0  0  0  0  0
  139.9539   79.3065  223.6531 H   0  0  0  0  0  0  0  0  0  0  0  0
  141.0099   81.4292  221.7492 H   0  0  0  0  0  0  0  0  0  0  0  0
  139.7315   81.6395  223.0167 H   0  0  0  0  0  0  0  0  0  0  0  0
  142.3246   82.2231  223.4142 H   0  0  0  0  0  0  0  0  0  0  0  0
  141.1867   81.6254  224.7097 H   0  0  0  0  0  0  0  0  0  0  0  0
  143.5776   80.5448  224.4412 H   0  0  0  0  0  0  0  0  0  0  0  0
  142.1730   79.5261  224.7939 H   0  0  0  0  0  0  0  0  0  0  0  0
  143.0467   80.2539  221.9405 H   0  0  0  0  0  0  0  0  0  0  0  0
  143.6237   78.7810  222.7905 H   0  0  0  0  0  0  0  0  0  0  0  0
  139.1796   70.2606  221.8949 H   0  0  0  0  0  0  0  0  0  0  0  0
  139.1927   68.6035  223.7463 H   0  0  0  0  0  0  0  0  0  0  0  0
  139.7231   68.1293  226.0210 H   0  0  0  0  0  0  0  0  0  0  0  0
  141.4716   71.1681  228.5067 H   0  0  0  0  0  0  0  0  0  0  0  0
  141.4302   72.7742  226.6131 H   0  0  0  0  0  0  0  0  0  0  0  0
  1  2  2  0
  2  3  1  0
  3  4  1  0
  4  5  1  0
  5  6  2  0
  5  7  1  0
  7  8  1  0
  8  9  1  0
  9 10  1  0
 10 11  1  0
 11 12  1  0
 12 13  1  0
 13 14  1  0
 14 15  1  0
 15 16  1  0
 16 17  1  0
 17 18  1  0
  2 19  1  0
 19 20  2  0
 20 21  1  0
 21 22  2  0
 22 23  1  0
 23 24  2  0
 24 25  1  0
 24 26  1  0
 26 27  2  0
 27 28  1  0
 28 29  2  0
 12  7  1  0
 18 13  1  0
 29 19  1  0
 28 22  1  0
  3 30  1  0
  4 31  1  0
  4 32  1  0
  8 33  1  0
  8 34  1  0
  9 35  1  0
  9 36  1  0
 10 37  1  0
 10 38  1  0
 11 39  1  0
 11 40  1  0
 12 41  1  1
 13 42  1  0
 14 43  1  0
 14 44  1  0
 15 45  1  0
 15 46  1  0
 16 47  1  0
 16 48  1  0
 17 49  1  0
 17 50  1  0
 18 51  1  0
 18 52  1  0
 20 53  1  0
 21 54  1  0
 23 55  1  0
 26 56  1  0
 27 57  1  0
M  END
>  <meeko>  (20) 
{"free_energy": -9.14, "intermolecular_energy": -10.64, "internal_energy": -1.73, "cluster_size": 16, "cluster_id": 1, "rank_in_cluster": 10}

$$$$
