
     RDKit          3D

 49 51  0  0  0  0  0  0  0  0999 V2000
  138.5280   78.1070  221.0070 C   0  0  0  0  0  0  0  0  0  0  0  0
  139.4560   77.1000  220.6350 N   0  0  0  0  0  0  0  0  0  0  0  0
  140.2960   77.0290  219.4670 C   0  0  0  0  0  0  0  0  0  0  0  0
  141.6500   77.5880  219.7720 C   0  0  0  0  0  0  0  0  0  0  0  0
  141.5810   79.0580  220.0530 C   0  0  0  0  0  0  0  0  0  0  0  0
  141.7680   79.2720  221.5060 C   0  0  0  0  0  0  0  0  0  0  0  0
  142.2180   80.5530  221.8700 C   0  0  0  0  0  0  0  0  0  0  0  0
  142.4330   80.8850  223.1900 C   0  0  0  0  0  0  0  0  0  0  0  0
  142.1980   79.9330  224.1540 C   0  0  0  0  0  0  0  0  0  0  0  0
  141.7570   78.6770  223.7890 C   0  0  0  0  0  0  0  0  0  0  0  0
  141.5670   78.4170  222.4850 N   0  0  0  0  0  0  0  0  0  0  0  0
  139.5590   75.9620  221.5350 C   0  0  0  0  0  0  0  0  0  0  0  0
  139.9420   76.0900  222.7210 O   0  0  0  0  0  0  0  0  0  0  0  0
  139.2120   74.5880  221.0870 C   0  0  0  0  0  0  0  0  0  0  0  0
  139.3910   73.6290  222.1670 N   0  0  0  0  0  0  0  0  0  0  0  0
  139.3280   72.2360  221.9040 C   0  0  0  0  0  0  0  0  0  0  0  0
  139.1160   71.7940  220.7260 O   0  0  0  0  0  0  0  0  0  0  0  0
  139.5080   71.2860  222.9990 C   0  0  0  0  0  0  0  0  0  0  0  0
  139.0920   69.9770  222.8650 C   0  0  0  0  0  0  0  0  0  0  0  0
  139.2800   69.1010  223.9270 C   0  0  0  0  0  0  0  0  0  0  0  0
  139.8750   69.5440  225.0940 C   0  0  0  0  0  0  0  0  0  0  0  0
  140.0910   68.7290  226.1860 C   0  0  0  0  0  0  0  0  0  0  0  0
  140.6870   69.1870  227.3450 C   0  0  0  0  0  0  0  0  0  0  0  0
  140.9710   68.1760  228.7350 Cl  0  0  0  0  0  0  0  0  0  0  0  0
  141.0800   70.5080  227.4140 C   0  0  0  0  0  0  0  0  0  0  0  0
  140.8830   71.3590  226.3460 C   0  0  0  0  0  0  0  0  0  0  0  0
  140.2840   70.8590  225.2070 C   0  0  0  0  0  0  0  0  0  0  0  0
  140.0840   71.6740  224.1550 N   0  0  0  0  0  0  0  0  0  0  0  0
  138.4725   78.1673  222.1039 H   0  0  0  0  0  0  0  0  0  0  0  0
  138.8566   79.0758  220.6027 H   0  0  0  0  0  0  0  0  0  0  0  0
  137.5356   77.8585  220.6027 H   0  0  0  0  0  0  0  0  0  0  0  0
  140.3978   75.9790  219.1554 H   0  0  0  0  0  0  0  0  0  0  0  0
  139.8379   77.6170  218.6581 H   0  0  0  0  0  0  0  0  0  0  0  0
  142.0599   77.0735  220.6536 H   0  0  0  0  0  0  0  0  0  0  0  0
  142.2958   77.4319  218.8953 H   0  0  0  0  0  0  0  0  0  0  0  0
  142.3743   79.5789  219.4968 H   0  0  0  0  0  0  0  0  0  0  0  0
  140.6046   79.4547  219.7380 H   0  0  0  0  0  0  0  0  0  0  0  0
  142.4018   81.3037  221.0873 H   0  0  0  0  0  0  0  0  0  0  0  0
  142.7850   81.8898  223.4666 H   0  0  0  0  0  0  0  0  0  0  0  0
  142.3613   80.1722  225.2152 H   0  0  0  0  0  0  0  0  0  0  0  0
  141.5653   77.9057  224.5495 H   0  0  0  0  0  0  0  0  0  0  0  0
  138.1619   74.5702  220.7599 H   0  0  0  0  0  0  0  0  0  0  0  0
  139.8778   74.3104  220.2565 H   0  0  0  0  0  0  0  0  0  0  0  0
  139.5680   73.9180  223.1600 H   0  0  0  0  0  0  0  0  0  0  0  0
  138.6195   69.6329  221.9331 H   0  0  0  0  0  0  0  0  0  0  0  0
  138.9551   68.0537  223.8393 H   0  0  0  0  0  0  0  0  0  0  0  0
  139.7772   67.6761  226.1318 H   0  0  0  0  0  0  0  0  0  0  0  0
  141.5556   70.8868  228.3307 H   0  0  0  0  0  0  0  0  0  0  0  0
  141.1961   72.4121  226.4008 H   0  0  0  0  0  0  0  0  0  0  0  0
  1  2  1  0
  2  3  1  0
  3  4  1  0
  4  5  1  0
  5  6  1  0
  6  7  2  0
  7  8  1  0
  8  9  2  0
  9 10  1  0
 10 11  2  0
  2 12  1  0
 12 13  2  0
 12 14  1  0
 14 15  1  0
 15 16  1  0
 16 17  2  0
 16 18  1  0
 18 19  2  0
 19 20  1  0
 20 21  2  0
 21 22  1  0
 22 23  2  0
 23 24  1  0
 23 25  1  0
 25 26  2  0
 26 27  1  0
 27 28  2  0
 11  6  1  0
 28 18  1  0
 27 21  1  0
  1 29  1  0
  1 30  1  0
  1 31  1  0
  3 32  1  0
  3 33  1  0
  4 34  1  0
  4 35  1  0
  5 36  1  0
  5 37  1  0
  7 38  1  0
  8 39  1  0
  9 40  1  0
 10 41  1  0
 14 42  1  0
 14 43  1  0
 15 44  1  0
 19 45  1  0
 20 46  1  0
 22 47  1  0
 25 48  1  0
 26 49  1  0
M  END
>  <meeko>  (1) 
{"free_energy": -7.56, "intermolecular_energy": -9.94, "internal_energy": -2.01, "cluster_size": 7, "cluster_id": 3, "rank_in_cluster": 2}

$$$$

     RDKit          3D

 49 51  0  0  0  0  0  0  0  0999 V2000
  138.7440   76.0190  219.1390 C   0  0  0  0  0  0  0  0  0  0  0  0
  139.3420   76.3920  220.3710 N   0  0  0  0  0  0  0  0  0  0  0  0
  139.8420   77.6800  220.7810 C   0  0  0  0  0  0  0  0  0  0  0  0
  138.8430   78.3620  221.6610 C   0  0  0  0  0  0  0  0  0  0  0  0
  139.2960   78.3810  223.0880 C   0  0  0  0  0  0  0  0  0  0  0  0
  140.5730   79.1240  223.1700 C   0  0  0  0  0  0  0  0  0  0  0  0
  140.4530   80.4920  223.4680 C   0  0  0  0  0  0  0  0  0  0  0  0
  141.5650   81.3000  223.5730 C   0  0  0  0  0  0  0  0  0  0  0  0
  142.8050   80.7400  223.3800 C   0  0  0  0  0  0  0  0  0  0  0  0
  142.9160   79.3960  223.0870 C   0  0  0  0  0  0  0  0  0  0  0  0
  141.7930   78.6640  222.9980 N   0  0  0  0  0  0  0  0  0  0  0  0
  139.5090   75.3290  221.3480 C   0  0  0  0  0  0  0  0  0  0  0  0
  140.2830   75.4470  222.3260 O   0  0  0  0  0  0  0  0  0  0  0  0
  138.7660   74.0480  221.2320 C   0  0  0  0  0  0  0  0  0  0  0  0
  139.1080   73.1480  222.3230 N   0  0  0  0  0  0  0  0  0  0  0  0
  138.7480   71.7770  222.2590 C   0  0  0  0  0  0  0  0  0  0  0  0
  138.1230   71.3030  221.2530 O   0  0  0  0  0  0  0  0  0  0  0  0
  139.0970   70.8870  223.3640 C   0  0  0  0  0  0  0  0  0  0  0  0
  138.7890   69.5430  223.3030 C   0  0  0  0  0  0  0  0  0  0  0  0
  139.1360   68.7260  224.3720 C   0  0  0  0  0  0  0  0  0  0  0  0
  139.7800   69.2610  225.4730 C   0  0  0  0  0  0  0  0  0  0  0  0
  140.1530   68.5080  226.5670 C   0  0  0  0  0  0  0  0  0  0  0  0
  140.7950   69.0570  227.6590 C   0  0  0  0  0  0  0  0  0  0  0  0
  141.2760   68.1260  229.0510 Cl  0  0  0  0  0  0  0  0  0  0  0  0
  141.0750   70.4090  227.6570 C   0  0  0  0  0  0  0  0  0  0  0  0
  140.7210   71.2000  226.5830 C   0  0  0  0  0  0  0  0  0  0  0  0
  140.0800   70.6090  225.5130 C   0  0  0  0  0  0  0  0  0  0  0  0
  139.7260   71.3650  224.4560 N   0  0  0  0  0  0  0  0  0  0  0  0
  137.8257   75.4462  219.3357 H   0  0  0  0  0  0  0  0  0  0  0  0
  138.4961   76.9229  218.5632 H   0  0  0  0  0  0  0  0  0  0  0  0
  139.4468   75.3988  218.5632 H   0  0  0  0  0  0  0  0  0  0  0  0
  140.7830   77.5457  221.3346 H   0  0  0  0  0  0  0  0  0  0  0  0
  140.0181   78.2988  219.8888 H   0  0  0  0  0  0  0  0  0  0  0  0
  138.7083   79.3972  221.3143 H   0  0  0  0  0  0  0  0  0  0  0  0
  137.8956   77.8058  221.6056 H   0  0  0  0  0  0  0  0  0  0  0  0
  138.5377   78.8783  223.7106 H   0  0  0  0  0  0  0  0  0  0  0  0
  139.4369   77.3520  223.4504 H   0  0  0  0  0  0  0  0  0  0  0  0
  139.4538   80.9260  223.6202 H   0  0  0  0  0  0  0  0  0  0  0  0
  141.4619   82.3700  223.8063 H   0  0  0  0  0  0  0  0  0  0  0  0
  143.7084   81.3626  223.4590 H   0  0  0  0  0  0  0  0  0  0  0  0
  143.9020   78.9344  222.9298 H   0  0  0  0  0  0  0  0  0  0  0  0
  137.6859   74.2544  221.2607 H   0  0  0  0  0  0  0  0  0  0  0  0
  139.0406   73.5676  220.2813 H   0  0  0  0  0  0  0  0  0  0  0  0
  139.6200   73.4660  223.1820 H   0  0  0  0  0  0  0  0  0  0  0  0
  138.2775   69.1257  222.4231 H   0  0  0  0  0  0  0  0  0  0  0  0
  138.8983   67.6524  224.3426 H   0  0  0  0  0  0  0  0  0  0  0  0
  139.9308   67.4307  226.5694 H   0  0  0  0  0  0  0  0  0  0  0  0
  141.5856   70.8604  228.5205 H   0  0  0  0  0  0  0  0  0  0  0  0
  140.9446   72.2770  226.5797 H   0  0  0  0  0  0  0  0  0  0  0  0
  1  2  1  0
  2  3  1  0
  3  4  1  0
  4  5  1  0
  5  6  1  0
  6  7  2  0
  7  8  1  0
  8  9  2  0
  9 10  1  0
 10 11  2  0
  2 12  1  0
 12 13  2  0
 12 14  1  0
 14 15  1  0
 15 16  1  0
 16 17  2  0
 16 18  1  0
 18 19  2  0
 19 20  1  0
 20 21  2  0
 21 22  1  0
 22 23  2  0
 23 24  1  0
 23 25  1  0
 25 26  2  0
 26 27  1  0
 27 28  2  0
 11  6  1  0
 28 18  1  0
 27 21  1  0
  1 29  1  0
  1 30  1  0
  1 31  1  0
  3 32  1  0
  3 33  1  0
  4 34  1  0
  4 35  1  0
  5 36  1  0
  5 37  1  0
  7 38  1  0
  8 39  1  0
  9 40  1  0
 10 41  1  0
 14 42  1  0
 14 43  1  0
 15 44  1  0
 19 45  1  0
 20 46  1  0
 22 47  1  0
 25 48  1  0
 26 49  1  0
M  END
>  <meeko>  (2) 
{"free_energy": -7.54, "intermolecular_energy": -9.93, "internal_energy": -1.94, "cluster_size": 7, "cluster_id": 3, "rank_in_cluster": 3}

$$$$

     RDKit          3D

 49 51  0  0  0  0  0  0  0  0999 V2000
  138.1490   68.1540  223.0300 C   0  0  0  0  0  0  0  0  0  0  0  0
  138.4130   69.0800  224.0730 N   0  0  0  0  0  0  0  0  0  0  0  0
  138.4120   68.8640  225.4980 C   0  0  0  0  0  0  0  0  0  0  0  0
  139.5550   67.9770  225.8830 C   0  0  0  0  0  0  0  0  0  0  0  0
  140.0210   68.2650  227.2770 C   0  0  0  0  0  0  0  0  0  0  0  0
  140.3440   69.7060  227.3810 C   0  0  0  0  0  0  0  0  0  0  0  0
  141.0870   70.2320  226.3110 C   0  0  0  0  0  0  0  0  0  0  0  0
  141.4550   71.5600  226.2830 C   0  0  0  0  0  0  0  0  0  0  0  0
  141.0800   72.3690  227.3290 C   0  0  0  0  0  0  0  0  0  0  0  0
  140.3500   71.8450  228.3770 C   0  0  0  0  0  0  0  0  0  0  0  0
  140.0230   70.5420  228.3440 N   0  0  0  0  0  0  0  0  0  0  0  0
  138.6910   70.4450  223.6600 C   0  0  0  0  0  0  0  0  0  0  0  0
  138.2130   71.4300  224.2690 O   0  0  0  0  0  0  0  0  0  0  0  0
  139.5600   70.7380  222.4900 C   0  0  0  0  0  0  0  0  0  0  0  0
  139.8200   72.1650  222.3790 N   0  0  0  0  0  0  0  0  0  0  0  0
  140.7480   72.6520  221.4230 C   0  0  0  0  0  0  0  0  0  0  0  0
  141.3710   71.8580  220.6420 O   0  0  0  0  0  0  0  0  0  0  0  0
  140.9990   74.0880  221.3260 C   0  0  0  0  0  0  0  0  0  0  0  0
  142.0180   74.5670  220.5280 C   0  0  0  0  0  0  0  0  0  0  0  0
  142.2270   75.9390  220.4590 C   0  0  0  0  0  0  0  0  0  0  0  0
  141.4220   76.8010  221.1820 C   0  0  0  0  0  0  0  0  0  0  0  0
  141.5750   78.1710  221.1600 C   0  0  0  0  0  0  0  0  0  0  0  0
  140.7630   79.0180  221.8880 C   0  0  0  0  0  0  0  0  0  0  0  0
  140.9370   80.7510  221.8750 Cl  0  0  0  0  0  0  0  0  0  0  0  0
  139.7610   78.4740  222.6670 C   0  0  0  0  0  0  0  0  0  0  0  0
  139.5720   77.1080  222.7190 C   0  0  0  0  0  0  0  0  0  0  0  0
  140.4080   76.2990  221.9740 C   0  0  0  0  0  0  0  0  0  0  0  0
  140.2390   74.9640  222.0120 N   0  0  0  0  0  0  0  0  0  0  0  0
  137.8719   67.1820  223.4641 H   0  0  0  0  0  0  0  0  0  0  0  0
  137.3215   68.5275  222.4088 H   0  0  0  0  0  0  0  0  0  0  0  0
  139.0490   68.0350  222.4088 H   0  0  0  0  0  0  0  0  0  0  0  0
  138.5119   69.8309  226.0129 H   0  0  0  0  0  0  0  0  0  0  0  0
  137.4672   68.3818  225.7891 H   0  0  0  0  0  0  0  0  0  0  0  0
  139.2303   66.9277  225.8232 H   0  0  0  0  0  0  0  0  0  0  0  0
  140.3895   68.1659  225.1917 H   0  0  0  0  0  0  0  0  0  0  0  0
  139.2255   68.0113  227.9931 H   0  0  0  0  0  0  0  0  0  0  0  0
  140.9130   67.6634  227.5059 H   0  0  0  0  0  0  0  0  0  0  0  0
  141.3802   69.5724  225.4810 H   0  0  0  0  0  0  0  0  0  0  0  0
  142.0366   71.9639  225.4412 H   0  0  0  0  0  0  0  0  0  0  0  0
  141.3612   73.4325  227.3310 H   0  0  0  0  0  0  0  0  0  0  0  0
  140.0427   72.4803  229.2208 H   0  0  0  0  0  0  0  0  0  0  0  0
  140.5155   70.2063  222.6094 H   0  0  0  0  0  0  0  0  0  0  0  0
  139.0446   70.4034  221.5777 H   0  0  0  0  0  0  0  0  0  0  0  0
  139.3460   72.8780  222.9870 H   0  0  0  0  0  0  0  0  0  0  0  0
  142.6537   73.8747  219.9565 H   0  0  0  0  0  0  0  0  0  0  0  0
  143.0340   76.3404  219.8284 H   0  0  0  0  0  0  0  0  0  0  0  0
  142.3731   78.6052  220.5399 H   0  0  0  0  0  0  0  0  0  0  0  0
  139.1065   79.1366  223.2524 H   0  0  0  0  0  0  0  0  0  0  0  0
  138.7742   76.6734  223.3392 H   0  0  0  0  0  0  0  0  0  0  0  0
  1  2  1  0
  2  3  1  0
  3  4  1  0
  4  5  1  0
  5  6  1  0
  6  7  2  0
  7  8  1  0
  8  9  2  0
  9 10  1  0
 10 11  2  0
  2 12  1  0
 12 13  2  0
 12 14  1  0
 14 15  1  0
 15 16  1  0
 16 17  2  0
 16 18  1  0
 18 19  2  0
 19 20  1  0
 20 21  2  0
 21 22  1  0
 22 23  2  0
 23 24  1  0
 23 25  1  0
 25 26  2  0
 26 27  1  0
 27 28  2  0
 11  6  1  0
 28 18  1  0
 27 21  1  0
  1 29  1  0
  1 30  1  0
  1 31  1  0
  3 32  1  0
  3 33  1  0
  4 34  1  0
  4 35  1  0
  5 36  1  0
  5 37  1  0
  7 38  1  0
  8 39  1  0
  9 40  1  0
 10 41  1  0
 14 42  1  0
 14 43  1  0
 15 44  1  0
 19 45  1  0
 20 46  1  0
 22 47  1  0
 25 48  1  0
 26 49  1  0
M  END
>  <meeko>  (3) 
{"free_energy": -8.0, "intermolecular_energy": -10.39, "internal_energy": -2.21, "cluster_size": 8, "cluster_id": 1, "rank_in_cluster": 4}

$$$$

     RDKit          3D

 49 51  0  0  0  0  0  0  0  0999 V2000
  141.7720   77.1180  220.1340 C   0  0  0  0  0  0  0  0  0  0  0  0
  140.4000   77.1380  220.4950 N   0  0  0  0  0  0  0  0  0  0  0  0
  139.3560   78.0200  220.0380 C   0  0  0  0  0  0  0  0  0  0  0  0
  138.5970   78.5670  221.2060 C   0  0  0  0  0  0  0  0  0  0  0  0
  138.9830   79.9850  221.4920 C   0  0  0  0  0  0  0  0  0  0  0  0
  140.3150   79.9930  222.1380 C   0  0  0  0  0  0  0  0  0  0  0  0
  140.4120   79.2380  223.3200 C   0  0  0  0  0  0  0  0  0  0  0  0
  141.5960   79.1610  224.0220 C   0  0  0  0  0  0  0  0  0  0  0  0
  142.6900   79.8400  223.5430 C   0  0  0  0  0  0  0  0  0  0  0  0
  142.5880   80.5800  222.3810 C   0  0  0  0  0  0  0  0  0  0  0  0
  141.4050   80.6140  221.7450 N   0  0  0  0  0  0  0  0  0  0  0  0
  139.9860   76.1600  221.4880 C   0  0  0  0  0  0  0  0  0  0  0  0
  140.1070   76.3740  222.7160 O   0  0  0  0  0  0  0  0  0  0  0  0
  139.3970   74.8550  221.0900 C   0  0  0  0  0  0  0  0  0  0  0  0
  139.5140   73.8830  222.1660 N   0  0  0  0  0  0  0  0  0  0  0  0
  139.5500   72.4940  221.8740 C   0  0  0  0  0  0  0  0  0  0  0  0
  139.4820   72.0690  220.6730 O   0  0  0  0  0  0  0  0  0  0  0  0
  139.6660   71.5310  222.9660 C   0  0  0  0  0  0  0  0  0  0  0  0
  139.2400   70.2290  222.7970 C   0  0  0  0  0  0  0  0  0  0  0  0
  139.3660   69.3390  223.8570 C   0  0  0  0  0  0  0  0  0  0  0  0
  139.9110   69.7610  225.0560 C   0  0  0  0  0  0  0  0  0  0  0  0
  140.0660   68.9320  226.1480 C   0  0  0  0  0  0  0  0  0  0  0  0
  140.6110   69.3690  227.3380 C   0  0  0  0  0  0  0  0  0  0  0  0
  140.8160   68.3400  228.7290 Cl  0  0  0  0  0  0  0  0  0  0  0  0
  141.0180   70.6850  227.4410 C   0  0  0  0  0  0  0  0  0  0  0  0
  140.8830   71.5500  226.3740 C   0  0  0  0  0  0  0  0  0  0  0  0
  140.3320   71.0700  225.2030 C   0  0  0  0  0  0  0  0  0  0  0  0
  140.1920   71.8980  224.1520 N   0  0  0  0  0  0  0  0  0  0  0  0
  142.3904   77.1090  221.0437 H   0  0  0  0  0  0  0  0  0  0  0  0
  141.9816   76.2167  219.5392 H   0  0  0  0  0  0  0  0  0  0  0  0
  142.0077   78.0128  219.5392 H   0  0  0  0  0  0  0  0  0  0  0  0
  139.8033   78.8512  219.4732 H   0  0  0  0  0  0  0  0  0  0  0  0
  138.6662   77.4570  219.3921 H   0  0  0  0  0  0  0  0  0  0  0  0
  137.5204   78.5269  220.9838 H   0  0  0  0  0  0  0  0  0  0  0  0
  138.8358   77.9579  222.0903 H   0  0  0  0  0  0  0  0  0  0  0  0
  139.0242   80.5543  220.5517 H   0  0  0  0  0  0  0  0  0  0  0  0
  138.2405   80.4486  222.1582 H   0  0  0  0  0  0  0  0  0  0  0  0
  139.5277   78.6993  223.6912 H   0  0  0  0  0  0  0  0  0  0  0  0
  141.6633   78.5684  224.9462 H   0  0  0  0  0  0  0  0  0  0  0  0
  143.6465   79.7944  224.0844 H   0  0  0  0  0  0  0  0  0  0  0  0
  143.4554   81.1288  221.9855 H   0  0  0  0  0  0  0  0  0  0  0  0
  138.3335   74.9986  220.8484 H   0  0  0  0  0  0  0  0  0  0  0  0
  139.9424   74.4760  220.2131 H   0  0  0  0  0  0  0  0  0  0  0  0
  139.5730   74.1580  223.1760 H   0  0  0  0  0  0  0  0  0  0  0  0
  138.8082   69.9014  221.8398 H   0  0  0  0  0  0  0  0  0  0  0  0
  139.0317   68.2973  223.7421 H   0  0  0  0  0  0  0  0  0  0  0  0
  139.7431   67.8836  226.0669 H   0  0  0  0  0  0  0  0  0  0  0  0
  141.4544   71.0474  228.3835 H   0  0  0  0  0  0  0  0  0  0  0  0
  141.2071   72.5980  226.4550 H   0  0  0  0  0  0  0  0  0  0  0  0
  1  2  1  0
  2  3  1  0
  3  4  1  0
  4  5  1  0
  5  6  1  0
  6  7  2  0
  7  8  1  0
  8  9  2  0
  9 10  1  0
 10 11  2  0
  2 12  1  0
 12 13  2  0
 12 14  1  0
 14 15  1  0
 15 16  1  0
 16 17  2  0
 16 18  1  0
 18 19  2  0
 19 20  1  0
 20 21  2  0
 21 22  1  0
 22 23  2  0
 23 24  1  0
 23 25  1  0
 25 26  2  0
 26 27  1  0
 27 28  2  0
 11  6  1  0
 28 18  1  0
 27 21  1  0
  1 29  1  0
  1 30  1  0
  1 31  1  0
  3 32  1  0
  3 33  1  0
  4 34  1  0
  4 35  1  0
  5 36  1  0
  5 37  1  0
  7 38  1  0
  8 39  1  0
  9 40  1  0
 10 41  1  0
 14 42  1  0
 14 43  1  0
 15 44  1  0
 19 45  1  0
 20 46  1  0
 22 47  1  0
 25 48  1  0
 26 49  1  0
M  END
>  <meeko>  (4) 
{"free_energy": -7.38, "intermolecular_energy": -9.77, "internal_energy": -2.07, "cluster_size": 7, "cluster_id": 3, "rank_in_cluster": 6}

$$$$

     RDKit          3D

 49 51  0  0  0  0  0  0  0  0999 V2000
  137.1840   68.2340  222.7940 C   0  0  0  0  0  0  0  0  0  0  0  0
  137.7000   69.3910  223.4320 N   0  0  0  0  0  0  0  0  0  0  0  0
  139.0630   69.7000  223.7830 C   0  0  0  0  0  0  0  0  0  0  0  0
  139.5580   68.7380  224.8160 C   0  0  0  0  0  0  0  0  0  0  0  0
  138.9940   69.0510  226.1680 C   0  0  0  0  0  0  0  0  0  0  0  0
  139.7630   70.1710  226.7550 C   0  0  0  0  0  0  0  0  0  0  0  0
  140.7240   70.7480  225.9070 C   0  0  0  0  0  0  0  0  0  0  0  0
  141.5100   71.7990  226.3290 C   0  0  0  0  0  0  0  0  0  0  0  0
  141.3360   72.2790  227.6050 C   0  0  0  0  0  0  0  0  0  0  0  0
  140.3900   71.7080  228.4330 C   0  0  0  0  0  0  0  0  0  0  0  0
  139.6570   70.6860  227.9610 N   0  0  0  0  0  0  0  0  0  0  0  0
  136.7240   70.3960  223.8210 C   0  0  0  0  0  0  0  0  0  0  0  0
  136.8680   71.6050  223.5270 O   0  0  0  0  0  0  0  0  0  0  0  0
  135.5030   70.0330  224.5880 C   0  0  0  0  0  0  0  0  0  0  0  0
  134.8480   71.2210  225.1130 N   0  0  0  0  0  0  0  0  0  0  0  0
  133.8050   71.1000  226.0680 C   0  0  0  0  0  0  0  0  0  0  0  0
  133.4210   69.9570  226.4870 O   0  0  0  0  0  0  0  0  0  0  0  0
  133.1560   72.3020  226.5840 C   0  0  0  0  0  0  0  0  0  0  0  0
  131.9610   72.2120  227.2680 C   0  0  0  0  0  0  0  0  0  0  0  0
  131.3720   73.3770  227.7460 C   0  0  0  0  0  0  0  0  0  0  0  0
  131.9820   74.6000  227.5340 C   0  0  0  0  0  0  0  0  0  0  0  0
  131.4530   75.7930  227.9800 C   0  0  0  0  0  0  0  0  0  0  0  0
  132.0740   77.0060  227.7600 C   0  0  0  0  0  0  0  0  0  0  0  0
  131.4260   78.5250  228.3140 Cl  0  0  0  0  0  0  0  0  0  0  0  0
  133.2690   77.0270  227.0680 C   0  0  0  0  0  0  0  0  0  0  0  0
  133.8350   75.8570  226.6040 C   0  0  0  0  0  0  0  0  0  0  0  0
  133.1790   74.6670  226.8470 C   0  0  0  0  0  0  0  0  0  0  0  0
  133.7150   73.5150  226.4010 N   0  0  0  0  0  0  0  0  0  0  0  0
  136.8606   67.5089  223.5553 H   0  0  0  0  0  0  0  0  0  0  0  0
  136.3254   68.5137  222.1660 H   0  0  0  0  0  0  0  0  0  0  0  0
  137.9659   67.7821  222.1660 H   0  0  0  0  0  0  0  0  0  0  0  0
  139.6952   69.6277  222.8857 H   0  0  0  0  0  0  0  0  0  0  0  0
  139.1075   70.7207  224.1906 H   0  0  0  0  0  0  0  0  0  0  0  0
  139.2575   67.7193  224.5298 H   0  0  0  0  0  0  0  0  0  0  0  0
  140.6536   68.8207  224.8699 H   0  0  0  0  0  0  0  0  0  0  0  0
  137.9368   69.3388  226.0705 H   0  0  0  0  0  0  0  0  0  0  0  0
  139.0650   68.1663  226.8178 H   0  0  0  0  0  0  0  0  0  0  0  0
  140.8512   70.3537  224.8880 H   0  0  0  0  0  0  0  0  0  0  0  0
  142.2603   72.2439  225.6588 H   0  0  0  0  0  0  0  0  0  0  0  0
  141.9498   73.1173  227.9663 H   0  0  0  0  0  0  0  0  0  0  0  0
  140.2399   72.0818  229.4566 H   0  0  0  0  0  0  0  0  0  0  0  0
  134.8057   69.5007  223.9243 H   0  0  0  0  0  0  0  0  0  0  0  0
  135.7957   69.3909  225.4318 H   0  0  0  0  0  0  0  0  0  0  0  0
  135.1090   72.1930  224.8150 H   0  0  0  0  0  0  0  0  0  0  0  0
  131.4826   71.2352  227.4322 H   0  0  0  0  0  0  0  0  0  0  0  0
  130.4194   73.3260  228.2936 H   0  0  0  0  0  0  0  0  0  0  0  0
  130.5013   75.7773  228.5313 H   0  0  0  0  0  0  0  0  0  0  0  0
  133.7750   77.9864  226.8847 H   0  0  0  0  0  0  0  0  0  0  0  0
  134.7870   75.8724  226.0532 H   0  0  0  0  0  0  0  0  0  0  0  0
  1  2  1  0
  2  3  1  0
  3  4  1  0
  4  5  1  0
  5  6  1  0
  6  7  2  0
  7  8  1  0
  8  9  2  0
  9 10  1  0
 10 11  2  0
  2 12  1  0
 12 13  2  0
 12 14  1  0
 14 15  1  0
 15 16  1  0
 16 17  2  0
 16 18  1  0
 18 19  2  0
 19 20  1  0
 20 21  2  0
 21 22  1  0
 22 23  2  0
 23 24  1  0
 23 25  1  0
 25 26  2  0
 26 27  1  0
 27 28  2  0
 11  6  1  0
 28 18  1  0
 27 21  1  0
  1 29  1  0
  1 30  1  0
  1 31  1  0
  3 32  1  0
  3 33  1  0
  4 34  1  0
  4 35  1  0
  5 36  1  0
  5 37  1  0
  7 38  1  0
  8 39  1  0
  9 40  1  0
 10 41  1  0
 14 42  1  0
 14 43  1  0
 15 44  1  0
 19 45  1  0
 20 46  1  0
 22 47  1  0
 25 48  1  0
 26 49  1  0
M  END
>  <meeko>  (5) 
{"free_energy": -7.53, "intermolecular_energy": -9.91, "internal_energy": -1.72, "cluster_size": 3, "cluster_id": 2, "rank_in_cluster": 3}

$$$$

     RDKit          3D

 49 51  0  0  0  0  0  0  0  0999 V2000
  137.8430   77.6730  221.1560 C   0  0  0  0  0  0  0  0  0  0  0  0
  138.9810   76.9310  220.7430 N   0  0  0  0  0  0  0  0  0  0  0  0
  139.8230   77.1310  219.5910 C   0  0  0  0  0  0  0  0  0  0  0  0
  140.4530   78.4870  219.6440 C   0  0  0  0  0  0  0  0  0  0  0  0
  141.8190   78.4290  220.2560 C   0  0  0  0  0  0  0  0  0  0  0  0
  141.8370   79.2940  221.4580 C   0  0  0  0  0  0  0  0  0  0  0  0
  141.8050   78.6130  222.6870 C   0  0  0  0  0  0  0  0  0  0  0  0
  141.8170   79.2990  223.8820 C   0  0  0  0  0  0  0  0  0  0  0  0
  141.8610   80.6720  223.8530 C   0  0  0  0  0  0  0  0  0  0  0  0
  141.8920   81.3340  222.6420 C   0  0  0  0  0  0  0  0  0  0  0  0
  141.8780   80.6070  221.5130 N   0  0  0  0  0  0  0  0  0  0  0  0
  139.3360   75.7910  221.5720 C   0  0  0  0  0  0  0  0  0  0  0  0
  139.9160   75.9300  222.6740 O   0  0  0  0  0  0  0  0  0  0  0  0
  139.0270   74.4000  221.1480 C   0  0  0  0  0  0  0  0  0  0  0  0
  139.2760   73.4600  222.2300 N   0  0  0  0  0  0  0  0  0  0  0  0
  139.0570   72.0710  222.0360 C   0  0  0  0  0  0  0  0  0  0  0  0
  138.6420   71.6170  220.9180 O   0  0  0  0  0  0  0  0  0  0  0  0
  139.3110   71.1410  223.1330 C   0  0  0  0  0  0  0  0  0  0  0  0
  138.9430   69.8150  223.0240 C   0  0  0  0  0  0  0  0  0  0  0  0
  139.2000   68.9580  224.0870 C   0  0  0  0  0  0  0  0  0  0  0  0
  139.8140   69.4350  225.2300 C   0  0  0  0  0  0  0  0  0  0  0  0
  140.0980   68.6410  226.3210 C   0  0  0  0  0  0  0  0  0  0  0  0
  140.7120   69.1330  227.4560 C   0  0  0  0  0  0  0  0  0  0  0  0
  141.0810   68.1490  228.8450 Cl  0  0  0  0  0  0  0  0  0  0  0  0
  141.0550   70.4700  227.5010 C   0  0  0  0  0  0  0  0  0  0  0  0
  140.7900   71.3010  226.4320 C   0  0  0  0  0  0  0  0  0  0  0  0
  140.1740   70.7670  225.3180 C   0  0  0  0  0  0  0  0  0  0  0  0
  139.9070   71.5630  224.2660 N   0  0  0  0  0  0  0  0  0  0  0  0
  137.8018   77.6998  222.2549 H   0  0  0  0  0  0  0  0  0  0  0  0
  137.9133   78.6993  220.7665 H   0  0  0  0  0  0  0  0  0  0  0  0
  136.9322   77.1946  220.7665 H   0  0  0  0  0  0  0  0  0  0  0  0
  140.6112   76.3638  219.5788 H   0  0  0  0  0  0  0  0  0  0  0  0
  139.2113   77.0535  218.6801 H   0  0  0  0  0  0  0  0  0  0  0  0
  140.5350   78.8842  218.6215 H   0  0  0  0  0  0  0  0  0  0  0  0
  139.8216   79.1391  220.2653 H   0  0  0  0  0  0  0  0  0  0  0  0
  142.0530   77.3929  220.5419 H   0  0  0  0  0  0  0  0  0  0  0  0
  142.5697   78.7777  219.5316 H   0  0  0  0  0  0  0  0  0  0  0  0
  141.7697   77.5136  222.6951 H   0  0  0  0  0  0  0  0  0  0  0  0
  141.7919   78.7584  224.8397 H   0  0  0  0  0  0  0  0  0  0  0  0
  141.8715   81.2428  224.7933 H   0  0  0  0  0  0  0  0  0  0  0  0
  141.9274   82.4327  222.6027 H   0  0  0  0  0  0  0  0  0  0  0  0
  137.9685   74.3396  220.8549 H   0  0  0  0  0  0  0  0  0  0  0  0
  139.6762   74.1389  220.2993 H   0  0  0  0  0  0  0  0  0  0  0  0
  139.6170   73.7600  223.1760 H   0  0  0  0  0  0  0  0  0  0  0  0
  138.4546   69.4432  222.1112 H   0  0  0  0  0  0  0  0  0  0  0  0
  138.9143   67.8979  224.0189 H   0  0  0  0  0  0  0  0  0  0  0  0
  139.8253   67.5759  226.2860 H   0  0  0  0  0  0  0  0  0  0  0  0
  141.5445   70.8765  228.3983 H   0  0  0  0  0  0  0  0  0  0  0  0
  141.0636   72.3659  226.4667 H   0  0  0  0  0  0  0  0  0  0  0  0
  1  2  1  0
  2  3  1  0
  3  4  1  0
  4  5  1  0
  5  6  1  0
  6  7  2  0
  7  8  1  0
  8  9  2  0
  9 10  1  0
 10 11  2  0
  2 12  1  0
 12 13  2  0
 12 14  1  0
 14 15  1  0
 15 16  1  0
 16 17  2  0
 16 18  1  0
 18 19  2  0
 19 20  1  0
 20 21  2  0
 21 22  1  0
 22 23  2  0
 23 24  1  0
 23 25  1  0
 25 26  2  0
 26 27  1  0
 27 28  2  0
 11  6  1  0
 28 18  1  0
 27 21  1  0
  1 29  1  0
  1 30  1  0
  1 31  1  0
  3 32  1  0
  3 33  1  0
  4 34  1  0
  4 35  1  0
  5 36  1  0
  5 37  1  0
  7 38  1  0
  8 39  1  0
  9 40  1  0
 10 41  1  0
 14 42  1  0
 14 43  1  0
 15 44  1  0
 19 45  1  0
 20 46  1  0
 22 47  1  0
 25 48  1  0
 26 49  1  0
M  END
>  <meeko>  (6) 
{"free_energy": -7.4, "intermolecular_energy": -9.78, "internal_energy": -2.05, "cluster_size": 7, "cluster_id": 3, "rank_in_cluster": 5}

$$$$

     RDKit          3D

 49 51  0  0  0  0  0  0  0  0999 V2000
  139.2080   78.0070  220.0080 C   0  0  0  0  0  0  0  0  0  0  0  0
  140.3210   77.3130  220.5510 N   0  0  0  0  0  0  0  0  0  0  0  0
  141.7240   77.4960  220.2750 C   0  0  0  0  0  0  0  0  0  0  0  0
  142.2020   76.4380  219.3300 C   0  0  0  0  0  0  0  0  0  0  0  0
  143.6890   76.2710  219.4070 C   0  0  0  0  0  0  0  0  0  0  0  0
  143.9870   74.9270  219.9500 C   0  0  0  0  0  0  0  0  0  0  0  0
  142.9080   74.0270  219.9500 C   0  0  0  0  0  0  0  0  0  0  0  0
  143.0500   72.7430  220.4290 C   0  0  0  0  0  0  0  0  0  0  0  0
  144.2760   72.3520  220.9110 C   0  0  0  0  0  0  0  0  0  0  0  0
  145.3320   73.2410  220.9080 C   0  0  0  0  0  0  0  0  0  0  0  0
  145.1280   74.4790  220.4280 N   0  0  0  0  0  0  0  0  0  0  0  0
  140.0140   76.2480  221.4910 C   0  0  0  0  0  0  0  0  0  0  0  0
  140.1180   76.4110  222.7290 O   0  0  0  0  0  0  0  0  0  0  0  0
  139.5610   74.9120  221.0260 C   0  0  0  0  0  0  0  0  0  0  0  0
  139.6240   73.9370  222.1050 N   0  0  0  0  0  0  0  0  0  0  0  0
  139.7900   72.5580  221.8140 C   0  0  0  0  0  0  0  0  0  0  0  0
  139.8880   72.1420  220.6120 O   0  0  0  0  0  0  0  0  0  0  0  0
  139.8500   71.5920  222.9090 C   0  0  0  0  0  0  0  0  0  0  0  0
  139.4210   70.2940  222.7200 C   0  0  0  0  0  0  0  0  0  0  0  0
  139.4930   69.4020  223.7830 C   0  0  0  0  0  0  0  0  0  0  0  0
  139.9880   69.8190  225.0050 C   0  0  0  0  0  0  0  0  0  0  0  0
  140.0870   68.9870  226.1010 C   0  0  0  0  0  0  0  0  0  0  0  0
  140.5840   69.4180  227.3150 C   0  0  0  0  0  0  0  0  0  0  0  0
  140.7190   68.3860  228.7120 Cl  0  0  0  0  0  0  0  0  0  0  0  0
  140.9970   70.7300  227.4380 C   0  0  0  0  0  0  0  0  0  0  0  0
  140.9160   71.5970  226.3670 C   0  0  0  0  0  0  0  0  0  0  0  0
  140.4130   71.1230  225.1720 C   0  0  0  0  0  0  0  0  0  0  0  0
  140.3260   71.9540  224.1170 N   0  0  0  0  0  0  0  0  0  0  0  0
  138.5839   78.3961  220.8260 H   0  0  0  0  0  0  0  0  0  0  0  0
  139.5640   78.8434  219.3886 H   0  0  0  0  0  0  0  0  0  0  0  0
  138.6136   77.3192  219.3886 H   0  0  0  0  0  0  0  0  0  0  0  0
  141.8801   78.4863  219.8223 H   0  0  0  0  0  0  0  0  0  0  0  0
  142.2897   77.4225  221.2155 H   0  0  0  0  0  0  0  0  0  0  0  0
  141.7203   75.4832  219.5877 H   0  0  0  0  0  0  0  0  0  0  0  0
  141.9393   76.7425  218.3061 H   0  0  0  0  0  0  0  0  0  0  0  0
  144.1252   76.3695  218.4020 H   0  0  0  0  0  0  0  0  0  0  0  0
  144.1200   77.0438  220.0605 H   0  0  0  0  0  0  0  0  0  0  0  0
  141.9324   74.3534  219.5606 H   0  0  0  0  0  0  0  0  0  0  0  0
  142.1996   72.0453  220.4257 H   0  0  0  0  0  0  0  0  0  0  0  0
  144.4157   71.3321  221.2986 H   0  0  0  0  0  0  0  0  0  0  0  0
  146.3192   72.9422  221.2904 H   0  0  0  0  0  0  0  0  0  0  0  0
  138.5232   74.9877  220.6693 H   0  0  0  0  0  0  0  0  0  0  0  0
  140.2236   74.5797  220.2133 H   0  0  0  0  0  0  0  0  0  0  0  0
  139.5510   74.2040  223.1170 H   0  0  0  0  0  0  0  0  0  0  0  0
  139.0287   69.9710  221.7444 H   0  0  0  0  0  0  0  0  0  0  0  0
  139.1559   68.3631  223.6523 H   0  0  0  0  0  0  0  0  0  0  0  0
  139.7579   67.9419  226.0042 H   0  0  0  0  0  0  0  0  0  0  0  0
  141.3945   71.0878  228.3992 H   0  0  0  0  0  0  0  0  0  0  0  0
  141.2449   72.6422  226.4636 H   0  0  0  0  0  0  0  0  0  0  0  0
  1  2  1  0
  2  3  1  0
  3  4  1  0
  4  5  1  0
  5  6  1  0
  6  7  2  0
  7  8  1  0
  8  9  2  0
  9 10  1  0
 10 11  2  0
  2 12  1  0
 12 13  2  0
 12 14  1  0
 14 15  1  0
 15 16  1  0
 16 17  2  0
 16 18  1  0
 18 19  2  0
 19 20  1  0
 20 21  2  0
 21 22  1  0
 22 23  2  0
 23 24  1  0
 23 25  1  0
 25 26  2  0
 26 27  1  0
 27 28  2  0
 11  6  1  0
 28 18  1  0
 27 21  1  0
  1 29  1  0
  1 30  1  0
  1 31  1  0
  3 32  1  0
  3 33  1  0
  4 34  1  0
  4 35  1  0
  5 36  1  0
  5 37  1  0
  7 38  1  0
  8 39  1  0
  9 40  1  0
 10 41  1  0
 14 42  1  0
 14 43  1  0
 15 44  1  0
 19 45  1  0
 20 46  1  0
 22 47  1  0
 25 48  1  0
 26 49  1  0
M  END
>  <meeko>  (7) 
{"free_energy": -7.24, "intermolecular_energy": -9.63, "internal_energy": -2.25, "cluster_size": 1, "cluster_id": 4, "rank_in_cluster": 1}

$$$$

     RDKit          3D

 49 51  0  0  0  0  0  0  0  0999 V2000
  138.3830   67.9690  223.1650 C   0  0  0  0  0  0  0  0  0  0  0  0
  138.6810   68.8600  224.2290 N   0  0  0  0  0  0  0  0  0  0  0  0
  138.7780   68.5850  225.6400 C   0  0  0  0  0  0  0  0  0  0  0  0
  140.0220   67.8050  225.9270 C   0  0  0  0  0  0  0  0  0  0  0  0
  140.6490   68.2350  227.2170 C   0  0  0  0  0  0  0  0  0  0  0  0
  140.8710   69.6980  227.1710 C   0  0  0  0  0  0  0  0  0  0  0  0
  140.4450   70.4050  228.3080 C   0  0  0  0  0  0  0  0  0  0  0  0
  140.5920   71.7730  228.3950 C   0  0  0  0  0  0  0  0  0  0  0  0
  141.1670   72.4410  227.3400 C   0  0  0  0  0  0  0  0  0  0  0  0
  141.5830   71.7400  226.2260 C   0  0  0  0  0  0  0  0  0  0  0  0
  141.4110   70.4080  226.2040 N   0  0  0  0  0  0  0  0  0  0  0  0
  138.8860   70.2500  223.8590 C   0  0  0  0  0  0  0  0  0  0  0  0
  138.8690   71.1700  224.7100 O   0  0  0  0  0  0  0  0  0  0  0  0
  139.1260   70.6480  222.4470 C   0  0  0  0  0  0  0  0  0  0  0  0
  139.5070   72.0500  222.3600 N   0  0  0  0  0  0  0  0  0  0  0  0
  140.4170   72.4840  221.3610 C   0  0  0  0  0  0  0  0  0  0  0  0
  140.9180   71.6640  220.5220 O   0  0  0  0  0  0  0  0  0  0  0  0
  140.7900   73.8940  221.2880 C   0  0  0  0  0  0  0  0  0  0  0  0
  141.8540   74.2960  220.5060 C   0  0  0  0  0  0  0  0  0  0  0  0
  142.1810   75.6460  220.4600 C   0  0  0  0  0  0  0  0  0  0  0  0
  141.4450   76.5630  221.1890 C   0  0  0  0  0  0  0  0  0  0  0  0
  141.7140   77.9160  221.1890 C   0  0  0  0  0  0  0  0  0  0  0  0
  140.9700   78.8180  221.9220 C   0  0  0  0  0  0  0  0  0  0  0  0
  141.2900   80.5300  221.9370 Cl  0  0  0  0  0  0  0  0  0  0  0  0
  139.9170   78.3510  222.6840 C   0  0  0  0  0  0  0  0  0  0  0  0
  139.6120   77.0050  222.7130 C   0  0  0  0  0  0  0  0  0  0  0  0
  140.3830   76.1380  221.9650 C   0  0  0  0  0  0  0  0  0  0  0  0
  140.1010   74.8220  221.9810 N   0  0  0  0  0  0  0  0  0  0  0  0
  138.0594   67.0016  223.5766 H   0  0  0  0  0  0  0  0  0  0  0  0
  137.5775   68.3924  222.5469 H   0  0  0  0  0  0  0  0  0  0  0  0
  139.2811   67.8226  222.5469 H   0  0  0  0  0  0  0  0  0  0  0  0
  138.8077   69.5345  226.1946 H   0  0  0  0  0  0  0  0  0  0  0  0
  137.9033   67.9961  225.9532 H   0  0  0  0  0  0  0  0  0  0  0  0
  139.7682   66.7366  225.9907 H   0  0  0  0  0  0  0  0  0  0  0  0
  140.7407   67.9868  225.1144 H   0  0  0  0  0  0  0  0  0  0  0  0
  139.9799   67.9881  228.0544 H   0  0  0  0  0  0  0  0  0  0  0  0
  141.6073   67.7143  227.3604 H   0  0  0  0  0  0  0  0  0  0  0  0
  139.9858   69.8570  229.1440 H   0  0  0  0  0  0  0  0  0  0  0  0
  140.2564   72.3183  229.2894 H   0  0  0  0  0  0  0  0  0  0  0  0
  141.2954   73.5326  227.3835 H   0  0  0  0  0  0  0  0  0  0  0  0
  142.0454   72.2609  225.3746 H   0  0  0  0  0  0  0  0  0  0  0  0
  139.9342   70.0287  222.0307 H   0  0  0  0  0  0  0  0  0  0  0  0
  138.1965   70.5005  221.8775 H   0  0  0  0  0  0  0  0  0  0  0  0
  139.1370   72.7810  223.0150 H   0  0  0  0  0  0  0  0  0  0  0  0
  142.4334   73.5603  219.9289 H   0  0  0  0  0  0  0  0  0  0  0  0
  143.0260   75.9858  219.8432 H   0  0  0  0  0  0  0  0  0  0  0  0
  142.5522   78.2896  220.5825 H   0  0  0  0  0  0  0  0  0  0  0  0
  139.3155   79.0585  223.2736 H   0  0  0  0  0  0  0  0  0  0  0  0
  138.7732   76.6316  223.3187 H   0  0  0  0  0  0  0  0  0  0  0  0
  1  2  1  0
  2  3  1  0
  3  4  1  0
  4  5  1  0
  5  6  1  0
  6  7  2  0
  7  8  1  0
  8  9  2  0
  9 10  1  0
 10 11  2  0
  2 12  1  0
 12 13  2  0
 12 14  1  0
 14 15  1  0
 15 16  1  0
 16 17  2  0
 16 18  1  0
 18 19  2  0
 19 20  1  0
 20 21  2  0
 21 22  1  0
 22 23  2  0
 23 24  1  0
 23 25  1  0
 25 26  2  0
 26 27  1  0
 27 28  2  0
 11  6  1  0
 28 18  1  0
 27 21  1  0
  1 29  1  0
  1 30  1  0
  1 31  1  0
  3 32  1  0
  3 33  1  0
  4 34  1  0
  4 35  1  0
  5 36  1  0
  5 37  1  0
  7 38  1  0
  8 39  1  0
  9 40  1  0
 10 41  1  0
 14 42  1  0
 14 43  1  0
 15 44  1  0
 19 45  1  0
 20 46  1  0
 22 47  1  0
 25 48  1  0
 26 49  1  0
M  END
>  <meeko>  (8) 
{"free_energy": -8.04, "intermolecular_energy": -10.42, "internal_energy": -2.16, "cluster_size": 8, "cluster_id": 1, "rank_in_cluster": 3}

$$$$

     RDKit          3D

 49 51  0  0  0  0  0  0  0  0999 V2000
  140.9610   77.5680  219.9120 C   0  0  0  0  0  0  0  0  0  0  0  0
  139.7750   77.3320  220.6550 N   0  0  0  0  0  0  0  0  0  0  0  0
  138.5490   78.0890  220.6690 C   0  0  0  0  0  0  0  0  0  0  0  0
  138.2510   78.5560  222.0590 C   0  0  0  0  0  0  0  0  0  0  0  0
  138.6300   79.9930  222.2440 C   0  0  0  0  0  0  0  0  0  0  0  0
  140.0680   80.0630  222.5880 C   0  0  0  0  0  0  0  0  0  0  0  0
  140.5130   79.0970  223.5070 C   0  0  0  0  0  0  0  0  0  0  0  0
  141.8290   79.0510  223.9120 C   0  0  0  0  0  0  0  0  0  0  0  0
  142.7090   79.9740  223.3990 C   0  0  0  0  0  0  0  0  0  0  0  0
  142.2650   80.9210  222.4980 C   0  0  0  0  0  0  0  0  0  0  0  0
  140.9690   80.9120  222.1440 N   0  0  0  0  0  0  0  0  0  0  0  0
  139.8010   76.1890  221.5540 C   0  0  0  0  0  0  0  0  0  0  0  0
  140.2560   76.2750  222.7180 O   0  0  0  0  0  0  0  0  0  0  0  0
  139.2870   74.8610  221.1310 C   0  0  0  0  0  0  0  0  0  0  0  0
  139.4390   73.8820  222.1970 N   0  0  0  0  0  0  0  0  0  0  0  0
  139.4010   72.4940  221.9050 C   0  0  0  0  0  0  0  0  0  0  0  0
  139.2360   72.0730  220.7110 O   0  0  0  0  0  0  0  0  0  0  0  0
  139.5550   71.5240  222.9860 C   0  0  0  0  0  0  0  0  0  0  0  0
  139.1040   70.2290  222.8330 C   0  0  0  0  0  0  0  0  0  0  0  0
  139.2670   69.3330  223.8820 C   0  0  0  0  0  0  0  0  0  0  0  0
  139.8720   69.7430  225.0570 C   0  0  0  0  0  0  0  0  0  0  0  0
  140.0650   68.9070  226.1370 C   0  0  0  0  0  0  0  0  0  0  0  0
  140.6700   69.3320  227.3030 C   0  0  0  0  0  0  0  0  0  0  0  0
  140.9250   68.2940  228.6790 Cl  0  0  0  0  0  0  0  0  0  0  0  0
  141.0980   70.6410  227.3920 C   0  0  0  0  0  0  0  0  0  0  0  0
  140.9260   71.5120  226.3360 C   0  0  0  0  0  0  0  0  0  0  0  0
  140.3160   71.0450  225.1890 C   0  0  0  0  0  0  0  0  0  0  0  0
  140.1390   71.8800  224.1480 N   0  0  0  0  0  0  0  0  0  0  0  0
  141.7999   77.7349  220.6037 H   0  0  0  0  0  0  0  0  0  0  0  0
  141.1764   76.6951  219.2782 H   0  0  0  0  0  0  0  0  0  0  0  0
  140.8259   78.4569  219.2782 H   0  0  0  0  0  0  0  0  0  0  0  0
  138.6517   78.9608  220.0061 H   0  0  0  0  0  0  0  0  0  0  0  0
  137.7257   77.4489  220.3192 H   0  0  0  0  0  0  0  0  0  0  0  0
  137.1741   78.4419  222.2521 H   0  0  0  0  0  0  0  0  0  0  0  0
  138.8394   77.9487  222.7626 H   0  0  0  0  0  0  0  0  0  0  0  0
  138.4446   80.5478  221.3124 H   0  0  0  0  0  0  0  0  0  0  0  0
  138.0292   80.4387  223.0504 H   0  0  0  0  0  0  0  0  0  0  0  0
  139.7978   78.3648  223.9100 H   0  0  0  0  0  0  0  0  0  0  0  0
  142.1686   78.2912  224.6312 H   0  0  0  0  0  0  0  0  0  0  0  0
  143.7652   79.9581  223.7059 H   0  0  0  0  0  0  0  0  0  0  0  0
  142.9570   81.6665  222.0792 H   0  0  0  0  0  0  0  0  0  0  0  0
  138.2211   74.9522  220.8750 H   0  0  0  0  0  0  0  0  0  0  0  0
  139.8641   74.5225  220.2579 H   0  0  0  0  0  0  0  0  0  0  0  0
  139.5780   74.1530  223.2010 H   0  0  0  0  0  0  0  0  0  0  0  0
  138.6234   69.9113  221.8959 H   0  0  0  0  0  0  0  0  0  0  0  0
  138.9146   68.2961  223.7784 H   0  0  0  0  0  0  0  0  0  0  0  0
  139.7244   67.8634  226.0667 H   0  0  0  0  0  0  0  0  0  0  0  0
  141.5815   70.9937  228.3149 H   0  0  0  0  0  0  0  0  0  0  0  0
  141.2673   72.5553  226.4064 H   0  0  0  0  0  0  0  0  0  0  0  0
  1  2  1  0
  2  3  1  0
  3  4  1  0
  4  5  1  0
  5  6  1  0
  6  7  2  0
  7  8  1  0
  8  9  2  0
  9 10  1  0
 10 11  2  0
  2 12  1  0
 12 13  2  0
 12 14  1  0
 14 15  1  0
 15 16  1  0
 16 17  2  0
 16 18  1  0
 18 19  2  0
 19 20  1  0
 20 21  2  0
 21 22  1  0
 22 23  2  0
 23 24  1  0
 23 25  1  0
 25 26  2  0
 26 27  1  0
 27 28  2  0
 11  6  1  0
 28 18  1  0
 27 21  1  0
  1 29  1  0
  1 30  1  0
  1 31  1  0
  3 32  1  0
  3 33  1  0
  4 34  1  0
  4 35  1  0
  5 36  1  0
  5 37  1  0
  7 38  1  0
  8 39  1  0
  9 40  1  0
 10 41  1  0
 14 42  1  0
 14 43  1  0
 15 44  1  0
 19 45  1  0
 20 46  1  0
 22 47  1  0
 25 48  1  0
 26 49  1  0
M  END
>  <meeko>  (9) 
{"free_energy": -7.49, "intermolecular_energy": -9.87, "internal_energy": -2.1, "cluster_size": 7, "cluster_id": 3, "rank_in_cluster": 4}

$$$$

     RDKit          3D

 49 51  0  0  0  0  0  0  0  0999 V2000
  135.7030   69.4780  224.4230 C   0  0  0  0  0  0  0  0  0  0  0  0
  137.0810   69.5520  224.0920 N   0  0  0  0  0  0  0  0  0  0  0  0
  138.1040   68.5490  224.2430 C   0  0  0  0  0  0  0  0  0  0  0  0
  138.5790   68.5100  225.6620 C   0  0  0  0  0  0  0  0  0  0  0  0
  140.0680   68.6500  225.7420 C   0  0  0  0  0  0  0  0  0  0  0  0
  140.3880   69.8800  226.5010 C   0  0  0  0  0  0  0  0  0  0  0  0
  141.2010   70.8070  225.8260 C   0  0  0  0  0  0  0  0  0  0  0  0
  141.5730   71.9940  226.4190 C   0  0  0  0  0  0  0  0  0  0  0  0
  141.1340   72.2590  227.6940 C   0  0  0  0  0  0  0  0  0  0  0  0
  140.3360   71.3440  228.3510 C   0  0  0  0  0  0  0  0  0  0  0  0
  140.0090   70.2050  227.7170 N   0  0  0  0  0  0  0  0  0  0  0  0
  137.5420   70.8230  223.5580 C   0  0  0  0  0  0  0  0  0  0  0  0
  136.9900   71.9060  223.8610 O   0  0  0  0  0  0  0  0  0  0  0  0
  138.6950   70.8970  222.6230 C   0  0  0  0  0  0  0  0  0  0  0  0
  139.1240   72.2750  222.4350 N   0  0  0  0  0  0  0  0  0  0  0  0
  140.2710   72.5660  221.6520 C   0  0  0  0  0  0  0  0  0  0  0  0
  140.9470   71.6370  221.0970 O   0  0  0  0  0  0  0  0  0  0  0  0
  140.6900   73.9540  221.4740 C   0  0  0  0  0  0  0  0  0  0  0  0
  141.7470   74.2650  220.6430 C   0  0  0  0  0  0  0  0  0  0  0  0
  142.1180   75.5960  220.4980 C   0  0  0  0  0  0  0  0  0  0  0  0
  141.4320   76.5850  221.1790 C   0  0  0  0  0  0  0  0  0  0  0  0
  141.7470   77.9250  221.0810 C   0  0  0  0  0  0  0  0  0  0  0  0
  141.0530   78.9000  221.7680 C   0  0  0  0  0  0  0  0  0  0  0  0
  141.4320   80.5970  221.6590 Cl  0  0  0  0  0  0  0  0  0  0  0  0
  140.0050   78.5230  222.5840 C   0  0  0  0  0  0  0  0  0  0  0  0
  139.6550   77.1940  222.7110 C   0  0  0  0  0  0  0  0  0  0  0  0
  140.3760   76.2520  222.0060 C   0  0  0  0  0  0  0  0  0  0  0  0
  140.0500   74.9510  222.1180 N   0  0  0  0  0  0  0  0  0  0  0  0
  135.5885   69.4718  225.5170 H   0  0  0  0  0  0  0  0  0  0  0  0
  135.1780   70.3492  224.0043 H   0  0  0  0  0  0  0  0  0  0  0  0
  135.2744   68.5555  224.0043 H   0  0  0  0  0  0  0  0  0  0  0  0
  137.6932   67.5659  223.9695 H   0  0  0  0  0  0  0  0  0  0  0  0
  138.9509   68.7960  223.5860 H   0  0  0  0  0  0  0  0  0  0  0  0
  138.1112   69.3350  226.2192 H   0  0  0  0  0  0  0  0  0  0  0  0
  138.2980   67.5388  226.0954 H   0  0  0  0  0  0  0  0  0  0  0  0
  140.4950   67.7761  226.2558 H   0  0  0  0  0  0  0  0  0  0  0  0
  140.4939   68.7123  224.7297 H   0  0  0  0  0  0  0  0  0  0  0  0
  141.5464   70.5809  224.8064 H   0  0  0  0  0  0  0  0  0  0  0  0
  142.2082   72.7145  225.8829 H   0  0  0  0  0  0  0  0  0  0  0  0
  141.4180   73.1987  228.1902 H   0  0  0  0  0  0  0  0  0  0  0  0
  139.9756   71.5428  229.3711 H   0  0  0  0  0  0  0  0  0  0  0  0
  139.5309   70.3127  223.0351 H   0  0  0  0  0  0  0  0  0  0  0  0
  138.3845   70.4898  221.6495 H   0  0  0  0  0  0  0  0  0  0  0  0
  138.6190   73.0900  222.8610 H   0  0  0  0  0  0  0  0  0  0  0  0
  142.2868   73.4722  220.1044 H   0  0  0  0  0  0  0  0  0  0  0  0
  142.9585   75.8635  219.8407 H   0  0  0  0  0  0  0  0  0  0  0  0
  142.5818   78.2270  220.4315 H   0  0  0  0  0  0  0  0  0  0  0  0
  139.4435   79.2894  223.1384 H   0  0  0  0  0  0  0  0  0  0  0  0
  138.8196   76.8923  223.3600 H   0  0  0  0  0  0  0  0  0  0  0  0
  1  2  1  0
  2  3  1  0
  3  4  1  0
  4  5  1  0
  5  6  1  0
  6  7  2  0
  7  8  1  0
  8  9  2  0
  9 10  1  0
 10 11  2  0
  2 12  1  0
 12 13  2  0
 12 14  1  0
 14 15  1  0
 15 16  1  0
 16 17  2  0
 16 18  1  0
 18 19  2  0
 19 20  1  0
 20 21  2  0
 21 22  1  0
 22 23  2  0
 23 24  1  0
 23 25  1  0
 25 26  2  0
 26 27  1  0
 27 28  2  0
 11  6  1  0
 28 18  1  0
 27 21  1  0
  1 29  1  0
  1 30  1  0
  1 31  1  0
  3 32  1  0
  3 33  1  0
  4 34  1  0
  4 35  1  0
  5 36  1  0
  5 37  1  0
  7 38  1  0
  8 39  1  0
  9 40  1  0
 10 41  1  0
 14 42  1  0
 14 43  1  0
 15 44  1  0
 19 45  1  0
 20 46  1  0
 22 47  1  0
 25 48  1  0
 26 49  1  0
M  END
>  <meeko>  (10) 
{"free_energy": -7.44, "intermolecular_energy": -9.83, "internal_energy": -2.21, "cluster_size": 8, "cluster_id": 1, "rank_in_cluster": 8}

$$$$

     RDKit          3D

 49 51  0  0  0  0  0  0  0  0999 V2000
  139.3840   70.4860  223.4610 C   0  0  0  0  0  0  0  0  0  0  0  0
  138.2510   69.8320  224.0120 N   0  0  0  0  0  0  0  0  0  0  0  0
  138.1730   68.5480  224.6600 C   0  0  0  0  0  0  0  0  0  0  0  0
  139.4930   68.2020  225.2730 C   0  0  0  0  0  0  0  0  0  0  0  0
  139.5300   68.5620  226.7260 C   0  0  0  0  0  0  0  0  0  0  0  0
  140.1720   69.8880  226.8700 C   0  0  0  0  0  0  0  0  0  0  0  0
  139.9450   70.5350  228.0960 C   0  0  0  0  0  0  0  0  0  0  0  0
  140.4850   71.7750  228.3590 C   0  0  0  0  0  0  0  0  0  0  0  0
  141.2570   72.3750  227.3930 C   0  0  0  0  0  0  0  0  0  0  0  0
  141.4760   71.7340  226.1910 C   0  0  0  0  0  0  0  0  0  0  0  0
  140.9210   70.5270  225.9970 N   0  0  0  0  0  0  0  0  0  0  0  0
  136.9830   70.5310  223.8800 C   0  0  0  0  0  0  0  0  0  0  0  0
  136.8460   71.5100  223.1100 O   0  0  0  0  0  0  0  0  0  0  0  0
  135.7860   70.1150  224.6550 C   0  0  0  0  0  0  0  0  0  0  0  0
  135.0510   71.2740  225.1390 N   0  0  0  0  0  0  0  0  0  0  0  0
  134.0250   71.1190  226.1070 C   0  0  0  0  0  0  0  0  0  0  0  0
  133.7250   69.9700  226.5740 O   0  0  0  0  0  0  0  0  0  0  0  0
  133.2960   72.2920  226.5810 C   0  0  0  0  0  0  0  0  0  0  0  0
  132.0680   72.1520  227.1940 C   0  0  0  0  0  0  0  0  0  0  0  0
  131.4020   73.2900  227.6330 C   0  0  0  0  0  0  0  0  0  0  0  0
  131.9710   74.5380  227.4530 C   0  0  0  0  0  0  0  0  0  0  0  0
  131.3660   75.7080  227.8640 C   0  0  0  0  0  0  0  0  0  0  0  0
  131.9470   76.9460  227.6770 C   0  0  0  0  0  0  0  0  0  0  0  0
  131.2020   78.4360  228.1880 Cl  0  0  0  0  0  0  0  0  0  0  0  0
  133.1780   77.0180  227.0570 C   0  0  0  0  0  0  0  0  0  0  0  0
  133.8200   75.8730  226.6300 C   0  0  0  0  0  0  0  0  0  0  0  0
  133.2020   74.6560  226.8370 C   0  0  0  0  0  0  0  0  0  0  0  0
  133.8120   73.5280  226.4270 N   0  0  0  0  0  0  0  0  0  0  0  0
  140.0253   70.8562  224.2744 H   0  0  0  0  0  0  0  0  0  0  0  0
  139.9513   69.7765  222.8408 H   0  0  0  0  0  0  0  0  0  0  0  0
  139.0533   71.3322  222.8408 H   0  0  0  0  0  0  0  0  0  0  0  0
  137.4045   68.5831  225.4462 H   0  0  0  0  0  0  0  0  0  0  0  0
  137.9101   67.7832  223.9144 H   0  0  0  0  0  0  0  0  0  0  0  0
  139.6645   67.1206  225.1674 H   0  0  0  0  0  0  0  0  0  0  0  0
  140.2768   68.7732  224.7540 H   0  0  0  0  0  0  0  0  0  0  0  0
  138.5052   68.6017  227.1238 H   0  0  0  0  0  0  0  0  0  0  0  0
  140.1012   67.8062  227.2850 H   0  0  0  0  0  0  0  0  0  0  0  0
  139.3250   70.0428  228.8598 H   0  0  0  0  0  0  0  0  0  0  0  0
  140.3021   72.2743  229.3219 H   0  0  0  0  0  0  0  0  0  0  0  0
  141.6997   73.3649  227.5780 H   0  0  0  0  0  0  0  0  0  0  0  0
  142.0919   72.2017  225.4087 H   0  0  0  0  0  0  0  0  0  0  0  0
  135.1283   69.5162  224.0077 H   0  0  0  0  0  0  0  0  0  0  0  0
  136.1168   69.5225  225.5207 H   0  0  0  0  0  0  0  0  0  0  0  0
  135.2410   72.2490  224.8010 H   0  0  0  0  0  0  0  0  0  0  0  0
  131.6232   71.1556  227.3331 H   0  0  0  0  0  0  0  0  0  0  0  0
  130.4219   73.1983  228.1239 H   0  0  0  0  0  0  0  0  0  0  0  0
  130.3851   75.6521  228.3586 H   0  0  0  0  0  0  0  0  0  0  0  0
  133.6525   77.9981  226.9015 H   0  0  0  0  0  0  0  0  0  0  0  0
  134.8014   75.9290  226.1362 H   0  0  0  0  0  0  0  0  0  0  0  0
  1  2  1  0
  2  3  1  0
  3  4  1  0
  4  5  1  0
  5  6  1  0
  6  7  2  0
  7  8  1  0
  8  9  2  0
  9 10  1  0
 10 11  2  0
  2 12  1  0
 12 13  2  0
 12 14  1  0
 14 15  1  0
 15 16  1  0
 16 17  2  0
 16 18  1  0
 18 19  2  0
 19 20  1  0
 20 21  2  0
 21 22  1  0
 22 23  2  0
 23 24  1  0
 23 25  1  0
 25 26  2  0
 26 27  1  0
 27 28  2  0
 11  6  1  0
 28 18  1  0
 27 21  1  0
  1 29  1  0
  1 30  1  0
  1 31  1  0
  3 32  1  0
  3 33  1  0
  4 34  1  0
  4 35  1  0
  5 36  1  0
  5 37  1  0
  7 38  1  0
  8 39  1  0
  9 40  1  0
 10 41  1  0
 14 42  1  0
 14 43  1  0
 15 44  1  0
 19 45  1  0
 20 46  1  0
 22 47  1  0
 25 48  1  0
 26 49  1  0
M  END
>  <meeko>  (11) 
{"free_energy": -7.97, "intermolecular_energy": -10.36, "internal_energy": -1.75, "cluster_size": 3, "cluster_id": 2, "rank_in_cluster": 1}

$$$$

     RDKit          3D

 49 51  0  0  0  0  0  0  0  0999 V2000
  136.3510   68.8910  223.7560 C   0  0  0  0  0  0  0  0  0  0  0  0
  137.4210   69.5940  224.3700 N   0  0  0  0  0  0  0  0  0  0  0  0
  138.1370   69.2760  225.5800 C   0  0  0  0  0  0  0  0  0  0  0  0
  139.2120   68.2760  225.2920 C   0  0  0  0  0  0  0  0  0  0  0  0
  140.2330   68.2430  226.3880 C   0  0  0  0  0  0  0  0  0  0  0  0
  140.4940   69.6300  226.8350 C   0  0  0  0  0  0  0  0  0  0  0  0
  141.1440   70.4500  225.8970 C   0  0  0  0  0  0  0  0  0  0  0  0
  141.4470   71.7620  226.1860 C   0  0  0  0  0  0  0  0  0  0  0  0
  141.0990   72.2620  227.4190 C   0  0  0  0  0  0  0  0  0  0  0  0
  140.4610   71.4510  228.3350 C   0  0  0  0  0  0  0  0  0  0  0  0
  140.1950   70.1800  227.9910 N   0  0  0  0  0  0  0  0  0  0  0  0
  137.8370   70.8230  223.7150 C   0  0  0  0  0  0  0  0  0  0  0  0
  137.1360   71.8610  223.7520 O   0  0  0  0  0  0  0  0  0  0  0  0
  139.1190   70.9060  222.9680 C   0  0  0  0  0  0  0  0  0  0  0  0
  139.4660   72.2900  222.6830 N   0  0  0  0  0  0  0  0  0  0  0  0
  140.5390   72.5930  221.8050 C   0  0  0  0  0  0  0  0  0  0  0  0
  141.2190   71.6680  221.2480 O   0  0  0  0  0  0  0  0  0  0  0  0
  140.8750   73.9880  221.5310 C   0  0  0  0  0  0  0  0  0  0  0  0
  141.8570   74.3020  220.6130 C   0  0  0  0  0  0  0  0  0  0  0  0
  142.1510   75.6400  220.3770 C   0  0  0  0  0  0  0  0  0  0  0  0
  141.4640   76.6310  221.0540 C   0  0  0  0  0  0  0  0  0  0  0  0
  141.7040   77.9760  220.8680 C   0  0  0  0  0  0  0  0  0  0  0  0
  141.0100   78.9540  221.5530 C   0  0  0  0  0  0  0  0  0  0  0  0
  141.2960   80.6580  221.3340 Cl  0  0  0  0  0  0  0  0  0  0  0  0
  140.0390   78.5720  222.4570 C   0  0  0  0  0  0  0  0  0  0  0  0
  139.7650   77.2370  222.6750 C   0  0  0  0  0  0  0  0  0  0  0  0
  140.4840   76.2930  221.9680 C   0  0  0  0  0  0  0  0  0  0  0  0
  140.2310   74.9860  222.1670 N   0  0  0  0  0  0  0  0  0  0  0  0
  135.6999   68.4632  224.5326 H   0  0  0  0  0  0  0  0  0  0  0  0
  135.7689   69.5832  223.1299 H   0  0  0  0  0  0  0  0  0  0  0  0
  136.7553   68.0820  223.1299 H   0  0  0  0  0  0  0  0  0  0  0  0
  138.5911   70.1920  225.9858 H   0  0  0  0  0  0  0  0  0  0  0  0
  137.4356   68.8505  226.3128 H   0  0  0  0  0  0  0  0  0  0  0  0
  138.7574   67.2790  225.1957 H   0  0  0  0  0  0  0  0  0  0  0  0
  139.7149   68.5664  224.3578 H   0  0  0  0  0  0  0  0  0  0  0  0
  139.8521   67.6478  227.2310 H   0  0  0  0  0  0  0  0  0  0  0  0
  141.1636   67.7863  226.0199 H   0  0  0  0  0  0  0  0  0  0  0  0
  141.4156   70.0366  224.9145 H   0  0  0  0  0  0  0  0  0  0  0  0
  141.9567   72.3967  225.4462 H   0  0  0  0  0  0  0  0  0  0  0  0
  141.3289   73.3069  227.6746 H   0  0  0  0  0  0  0  0  0  0  0  0
  140.1765   71.8367  229.3251 H   0  0  0  0  0  0  0  0  0  0  0  0
  139.9179   70.4517  223.5724 H   0  0  0  0  0  0  0  0  0  0  0  0
  139.0053   70.3690  222.0147 H   0  0  0  0  0  0  0  0  0  0  0  0
  138.9520   73.1030  223.1040 H   0  0  0  0  0  0  0  0  0  0  0  0
  142.3974   73.5074  220.0777 H   0  0  0  0  0  0  0  0  0  0  0  0
  142.9313   75.9109  219.6506 H   0  0  0  0  0  0  0  0  0  0  0  0
  142.4769   78.2814  220.1473 H   0  0  0  0  0  0  0  0  0  0  0  0
  139.4777   79.3399  223.0095 H   0  0  0  0  0  0  0  0  0  0  0  0
  138.9917   76.9317  223.3953 H   0  0  0  0  0  0  0  0  0  0  0  0
  1  2  1  0
  2  3  1  0
  3  4  1  0
  4  5  1  0
  5  6  1  0
  6  7  2  0
  7  8  1  0
  8  9  2  0
  9 10  1  0
 10 11  2  0
  2 12  1  0
 12 13  2  0
 12 14  1  0
 14 15  1  0
 15 16  1  0
 16 17  2  0
 16 18  1  0
 18 19  2  0
 19 20  1  0
 20 21  2  0
 21 22  1  0
 22 23  2  0
 23 24  1  0
 23 25  1  0
 25 26  2  0
 26 27  1  0
 27 28  2  0
 11  6  1  0
 28 18  1  0
 27 21  1  0
  1 29  1  0
  1 30  1  0
  1 31  1  0
  3 32  1  0
  3 33  1  0
  4 34  1  0
  4 35  1  0
  5 36  1  0
  5 37  1  0
  7 38  1  0
  8 39  1  0
  9 40  1  0
 10 41  1  0
 14 42  1  0
 14 43  1  0
 15 44  1  0
 19 45  1  0
 20 46  1  0
 22 47  1  0
 25 48  1  0
 26 49  1  0
M  END
>  <meeko>  (12) 
{"free_energy": -7.86, "intermolecular_energy": -10.24, "internal_energy": -2.22, "cluster_size": 8, "cluster_id": 1, "rank_in_cluster": 5}

$$$$

     RDKit          3D

 49 51  0  0  0  0  0  0  0  0999 V2000
  138.9470   70.8470  224.0260 C   0  0  0  0  0  0  0  0  0  0  0  0
  138.3510   69.5590  224.0510 N   0  0  0  0  0  0  0  0  0  0  0  0
  138.9770   68.2750  224.2370 C   0  0  0  0  0  0  0  0  0  0  0  0
  139.1970   68.0170  225.6950 C   0  0  0  0  0  0  0  0  0  0  0  0
  140.6000   68.3490  226.1010 C   0  0  0  0  0  0  0  0  0  0  0  0
  140.6060   69.6860  226.7370 C   0  0  0  0  0  0  0  0  0  0  0  0
  141.3910   70.6550  226.0880 C   0  0  0  0  0  0  0  0  0  0  0  0
  141.4840   71.9410  226.5760 C   0  0  0  0  0  0  0  0  0  0  0  0
  140.7900   72.2630  227.7180 C   0  0  0  0  0  0  0  0  0  0  0  0
  140.0220   71.3060  228.3500 C   0  0  0  0  0  0  0  0  0  0  0  0
  139.9730   70.0710  227.8240 N   0  0  0  0  0  0  0  0  0  0  0  0
  136.9150   69.5160  223.8270 C   0  0  0  0  0  0  0  0  0  0  0  0
  136.4200   69.6710  222.6860 O   0  0  0  0  0  0  0  0  0  0  0  0
  135.9630   69.2840  224.9440 C   0  0  0  0  0  0  0  0  0  0  0  0
  135.3120   70.5240  225.3380 N   0  0  0  0  0  0  0  0  0  0  0  0
  134.1110   70.4930  226.0920 C   0  0  0  0  0  0  0  0  0  0  0  0
  133.5770   69.3880  226.4420 O   0  0  0  0  0  0  0  0  0  0  0  0
  133.4690   71.7470  226.4780 C   0  0  0  0  0  0  0  0  0  0  0  0
  132.2810   71.7370  227.1820 C   0  0  0  0  0  0  0  0  0  0  0  0
  131.6990   72.9490  227.5330 C   0  0  0  0  0  0  0  0  0  0  0  0
  132.3080   74.1390  227.1790 C   0  0  0  0  0  0  0  0  0  0  0  0
  131.7850   75.3760  227.4950 C   0  0  0  0  0  0  0  0  0  0  0  0
  132.4050   76.5550  227.1340 C   0  0  0  0  0  0  0  0  0  0  0  0
  131.7640   78.1280  227.5220 Cl  0  0  0  0  0  0  0  0  0  0  0  0
  133.5920   76.4960  226.4310 C   0  0  0  0  0  0  0  0  0  0  0  0
  134.1510   75.2810  226.0940 C   0  0  0  0  0  0  0  0  0  0  0  0
  133.4970   74.1260  226.4750 C   0  0  0  0  0  0  0  0  0  0  0  0
  134.0270   72.9310  226.1550 N   0  0  0  0  0  0  0  0  0  0  0  0
  139.1086   71.1963  225.0565 H   0  0  0  0  0  0  0  0  0  0  0  0
  139.9122   70.7942  223.5011 H   0  0  0  0  0  0  0  0  0  0  0  0
  138.2820   71.5486  223.5011 H   0  0  0  0  0  0  0  0  0  0  0  0
  138.3275   67.4900  223.8225 H   0  0  0  0  0  0  0  0  0  0  0  0
  139.9477   68.2691  223.7196 H   0  0  0  0  0  0  0  0  0  0  0  0
  138.4993   68.6364  226.2777 H   0  0  0  0  0  0  0  0  0  0  0  0
  139.0234   66.9481  225.8884 H   0  0  0  0  0  0  0  0  0  0  0  0
  140.9663   67.5974  226.8158 H   0  0  0  0  0  0  0  0  0  0  0  0
  141.2554   68.3511  225.2176 H   0  0  0  0  0  0  0  0  0  0  0  0
  141.9406   70.3824  225.1750 H   0  0  0  0  0  0  0  0  0  0  0  0
  142.1005   72.6935  226.0624 H   0  0  0  0  0  0  0  0  0  0  0  0
  140.8466   73.2823  228.1278 H   0  0  0  0  0  0  0  0  0  0  0  0
  139.4620   71.5495  229.2649 H   0  0  0  0  0  0  0  0  0  0  0  0
  135.1980   68.5625  224.6211 H   0  0  0  0  0  0  0  0  0  0  0  0
  136.5221   68.8915  225.8062 H   0  0  0  0  0  0  0  0  0  0  0  0
  135.6920   71.4700  225.0870 H   0  0  0  0  0  0  0  0  0  0  0  0
  131.8036   70.7858  227.4602 H   0  0  0  0  0  0  0  0  0  0  0  0
  130.7525   72.9619  228.0933 H   0  0  0  0  0  0  0  0  0  0  0  0
  130.8395   75.4243  228.0550 H   0  0  0  0  0  0  0  0  0  0  0  0
  134.0971   77.4278  226.1367 H   0  0  0  0  0  0  0  0  0  0  0  0
  135.0967   75.2331  225.5342 H   0  0  0  0  0  0  0  0  0  0  0  0
  1  2  1  0
  2  3  1  0
  3  4  1  0
  4  5  1  0
  5  6  1  0
  6  7  2  0
  7  8  1  0
  8  9  2  0
  9 10  1  0
 10 11  2  0
  2 12  1  0
 12 13  2  0
 12 14  1  0
 14 15  1  0
 15 16  1  0
 16 17  2  0
 16 18  1  0
 18 19  2  0
 19 20  1  0
 20 21  2  0
 21 22  1  0
 22 23  2  0
 23 24  1  0
 23 25  1  0
 25 26  2  0
 26 27  1  0
 27 28  2  0
 11  6  1  0
 28 18  1  0
 27 21  1  0
  1 29  1  0
  1 30  1  0
  1 31  1  0
  3 32  1  0
  3 33  1  0
  4 34  1  0
  4 35  1  0
  5 36  1  0
  5 37  1  0
  7 38  1  0
  8 39  1  0
  9 40  1  0
 10 41  1  0
 14 42  1  0
 14 43  1  0
 15 44  1  0
 19 45  1  0
 20 46  1  0
 22 47  1  0
 25 48  1  0
 26 49  1  0
M  END
>  <meeko>  (13) 
{"free_energy": -7.9, "intermolecular_energy": -10.28, "internal_energy": -1.49, "cluster_size": 3, "cluster_id": 2, "rank_in_cluster": 2}

$$$$

     RDKit          3D

 49 51  0  0  0  0  0  0  0  0999 V2000
  140.1540   77.9970  220.1400 C   0  0  0  0  0  0  0  0  0  0  0  0
  139.2660   77.4400  221.0970 N   0  0  0  0  0  0  0  0  0  0  0  0
  137.9910   77.9390  221.5470 C   0  0  0  0  0  0  0  0  0  0  0  0
  138.1280   79.3550  222.0100 C   0  0  0  0  0  0  0  0  0  0  0  0
  138.6460   79.4210  223.4140 C   0  0  0  0  0  0  0  0  0  0  0  0
  140.1050   79.6720  223.3700 C   0  0  0  0  0  0  0  0  0  0  0  0
  140.4770   81.0110  223.1600 C   0  0  0  0  0  0  0  0  0  0  0  0
  141.8030   81.3810  223.0980 C   0  0  0  0  0  0  0  0  0  0  0  0
  142.7650   80.4110  223.2450 C   0  0  0  0  0  0  0  0  0  0  0  0
  142.3920   79.0970  223.4500 C   0  0  0  0  0  0  0  0  0  0  0  0
  141.0830   78.8020  223.5000 N   0  0  0  0  0  0  0  0  0  0  0  0
  139.7080   76.2150  221.7420 C   0  0  0  0  0  0  0  0  0  0  0  0
  140.5200   76.2270  222.6960 O   0  0  0  0  0  0  0  0  0  0  0  0
  139.2150   74.8850  221.2990 C   0  0  0  0  0  0  0  0  0  0  0  0
  139.3940   73.8890  222.3440 N   0  0  0  0  0  0  0  0  0  0  0  0
  139.3250   72.5060  222.0350 C   0  0  0  0  0  0  0  0  0  0  0  0
  139.1080   72.1050  220.8430 O   0  0  0  0  0  0  0  0  0  0  0  0
  139.5070   71.5190  223.0960 C   0  0  0  0  0  0  0  0  0  0  0  0
  139.0960   70.2140  222.9140 C   0  0  0  0  0  0  0  0  0  0  0  0
  139.2840   69.3020  223.9460 C   0  0  0  0  0  0  0  0  0  0  0  0
  139.8740   69.7050  225.1290 C   0  0  0  0  0  0  0  0  0  0  0  0
  140.0910   68.8530  226.1920 C   0  0  0  0  0  0  0  0  0  0  0  0
  140.6820   69.2720  227.3680 C   0  0  0  0  0  0  0  0  0  0  0  0
  140.9660   68.2140  228.7220 Cl  0  0  0  0  0  0  0  0  0  0  0  0
  141.0700   70.5910  227.4850 C   0  0  0  0  0  0  0  0  0  0  0  0
  140.8730   71.4790  226.4470 C   0  0  0  0  0  0  0  0  0  0  0  0
  140.2790   71.0170  225.2900 C   0  0  0  0  0  0  0  0  0  0  0  0
  140.0780   71.8680  224.2660 N   0  0  0  0  0  0  0  0  0  0  0  0
  140.9758   78.5124  220.6587 H   0  0  0  0  0  0  0  0  0  0  0  0
  140.5645   77.1943  219.5098 H   0  0  0  0  0  0  0  0  0  0  0  0
  139.6100   78.7160  219.5098 H   0  0  0  0  0  0  0  0  0  0  0  0
  137.2699   77.8955  220.7175 H   0  0  0  0  0  0  0  0  0  0  0  0
  137.6365   77.3191  222.3837 H   0  0  0  0  0  0  0  0  0  0  0  0
  138.8270   79.8834  221.3450 H   0  0  0  0  0  0  0  0  0  0  0  0
  137.1345   79.8264  221.9840 H   0  0  0  0  0  0  0  0  0  0  0  0
  138.1459   80.2378  223.9551 H   0  0  0  0  0  0  0  0  0  0  0  0
  138.4441   78.4725  223.9332 H   0  0  0  0  0  0  0  0  0  0  0  0
  139.6962   81.7769  223.0431 H   0  0  0  0  0  0  0  0  0  0  0  0
  142.0855   82.4314  222.9342 H   0  0  0  0  0  0  0  0  0  0  0  0
  143.8305   80.6805  223.1995 H   0  0  0  0  0  0  0  0  0  0  0  0
  143.1506   78.3095  223.5697 H   0  0  0  0  0  0  0  0  0  0  0  0
  138.1454   74.9611  221.0538 H   0  0  0  0  0  0  0  0  0  0  0  0
  139.7914   74.5738  220.4153 H   0  0  0  0  0  0  0  0  0  0  0  0
  139.5760   74.1440  223.3460 H   0  0  0  0  0  0  0  0  0  0  0  0
  138.6279   69.9012  221.9690 H   0  0  0  0  0  0  0  0  0  0  0  0
  138.9626   68.2575  223.8209 H   0  0  0  0  0  0  0  0  0  0  0  0
  139.7820   67.8013  226.0997 H   0  0  0  0  0  0  0  0  0  0  0  0
  141.5416   70.9386  228.4160 H   0  0  0  0  0  0  0  0  0  0  0  0
  141.1822   72.5306  226.5397 H   0  0  0  0  0  0  0  0  0  0  0  0
  1  2  1  0
  2  3  1  0
  3  4  1  0
  4  5  1  0
  5  6  1  0
  6  7  2  0
  7  8  1  0
  8  9  2  0
  9 10  1  0
 10 11  2  0
  2 12  1  0
 12 13  2  0
 12 14  1  0
 14 15  1  0
 15 16  1  0
 16 17  2  0
 16 18  1  0
 18 19  2  0
 19 20  1  0
 20 21  2  0
 21 22  1  0
 22 23  2  0
 23 24  1  0
 23 25  1  0
 25 26  2  0
 26 27  1  0
 27 28  2  0
 11  6  1  0
 28 18  1  0
 27 21  1  0
  1 29  1  0
  1 30  1  0
  1 31  1  0
  3 32  1  0
  3 33  1  0
  4 34  1  0
  4 35  1  0
  5 36  1  0
  5 37  1  0
  7 38  1  0
  8 39  1  0
  9 40  1  0
 10 41  1  0
 14 42  1  0
 14 43  1  0
 15 44  1  0
 19 45  1  0
 20 46  1  0
 22 47  1  0
 25 48  1  0
 26 49  1  0
M  END
>  <meeko>  (14) 
{"free_energy": -7.64, "intermolecular_energy": -10.03, "internal_energy": -1.91, "cluster_size": 7, "cluster_id": 3, "rank_in_cluster": 1}

$$$$

     RDKit          3D

 49 51  0  0  0  0  0  0  0  0999 V2000
  138.7980   78.5600  220.3730 C   0  0  0  0  0  0  0  0  0  0  0  0
  139.7630   77.8850  221.1660 N   0  0  0  0  0  0  0  0  0  0  0  0
  141.1510   78.2090  221.3750 C   0  0  0  0  0  0  0  0  0  0  0  0
  141.4480   78.2740  222.8400 C   0  0  0  0  0  0  0  0  0  0  0  0
  141.6150   79.6890  223.3010 C   0  0  0  0  0  0  0  0  0  0  0  0
  140.3170   80.3870  223.1670 C   0  0  0  0  0  0  0  0  0  0  0  0
  139.2660   79.8510  223.9310 C   0  0  0  0  0  0  0  0  0  0  0  0
  138.0050   80.4060  223.8980 C   0  0  0  0  0  0  0  0  0  0  0  0
  137.7890   81.5030  223.0990 C   0  0  0  0  0  0  0  0  0  0  0  0
  138.8250   82.0240  222.3510 C   0  0  0  0  0  0  0  0  0  0  0  0
  140.0310   81.4360  222.4270 N   0  0  0  0  0  0  0  0  0  0  0  0
  139.3070   76.6780  221.8370 C   0  0  0  0  0  0  0  0  0  0  0  0
  138.7130   76.7200  222.9390 O   0  0  0  0  0  0  0  0  0  0  0  0
  139.5240   75.3330  221.2430 C   0  0  0  0  0  0  0  0  0  0  0  0
  139.5540   74.3090  222.2760 N   0  0  0  0  0  0  0  0  0  0  0  0
  139.9670   72.9870  221.9610 C   0  0  0  0  0  0  0  0  0  0  0  0
  140.3190   72.6690  220.7770 O   0  0  0  0  0  0  0  0  0  0  0  0
  139.9900   71.9700  223.0090 C   0  0  0  0  0  0  0  0  0  0  0  0
  139.5320   70.6940  222.7540 C   0  0  0  0  0  0  0  0  0  0  0  0
  139.5690   69.7510  223.7750 C   0  0  0  0  0  0  0  0  0  0  0  0
  140.0600   70.0970  225.0210 C   0  0  0  0  0  0  0  0  0  0  0  0
  140.1260   69.2130  226.0770 C   0  0  0  0  0  0  0  0  0  0  0  0
  140.6180   69.5740  227.3150 C   0  0  0  0  0  0  0  0  0  0  0  0
  140.7110   68.4740  228.6630 Cl  0  0  0  0  0  0  0  0  0  0  0  0
  141.0610   70.8670  227.5050 C   0  0  0  0  0  0  0  0  0  0  0  0
  141.0140   71.7860  226.4760 C   0  0  0  0  0  0  0  0  0  0  0  0
  140.5140   71.3810  225.2540 C   0  0  0  0  0  0  0  0  0  0  0  0
  140.4600   72.2630  224.2380 N   0  0  0  0  0  0  0  0  0  0  0  0
  138.0741   79.0663  221.0284 H   0  0  0  0  0  0  0  0  0  0  0  0
  139.3009   79.3043  219.7381 H   0  0  0  0  0  0  0  0  0  0  0  0
  138.2713   77.8323  219.7381 H   0  0  0  0  0  0  0  0  0  0  0  0
  141.7794   77.4350  220.9102 H   0  0  0  0  0  0  0  0  0  0  0  0
  141.3651   79.1874  220.9201 H   0  0  0  0  0  0  0  0  0  0  0  0
  140.6175   77.8125  223.3944 H   0  0  0  0  0  0  0  0  0  0  0  0
  142.3888   77.7355  223.0269 H   0  0  0  0  0  0  0  0  0  0  0  0
  141.9346   79.7003  224.3535 H   0  0  0  0  0  0  0  0  0  0  0  0
  142.3778   80.1948  222.6908 H   0  0  0  0  0  0  0  0  0  0  0  0
  139.4533   78.9729  224.5665 H   0  0  0  0  0  0  0  0  0  0  0  0
  137.1882   79.9797  224.4989 H   0  0  0  0  0  0  0  0  0  0  0  0
  136.7917   81.9651  223.0558 H   0  0  0  0  0  0  0  0  0  0  0  0
  138.6671   82.9014  221.7066 H   0  0  0  0  0  0  0  0  0  0  0  0
  138.7062   75.1129  220.5411 H   0  0  0  0  0  0  0  0  0  0  0  0
  140.4908   75.3319  220.7183 H   0  0  0  0  0  0  0  0  0  0  0  0
  139.2790   74.4960  223.2710 H   0  0  0  0  0  0  0  0  0  0  0  0
  139.1441   70.4271  221.7598 H   0  0  0  0  0  0  0  0  0  0  0  0
  139.2073   68.7285  223.5917 H   0  0  0  0  0  0  0  0  0  0  0  0
  139.7735   68.1818  225.9273 H   0  0  0  0  0  0  0  0  0  0  0  0
  141.4557   71.1685  228.4865 H   0  0  0  0  0  0  0  0  0  0  0  0
  141.3667   72.8171  226.6259 H   0  0  0  0  0  0  0  0  0  0  0  0
  1  2  1  0
  2  3  1  0
  3  4  1  0
  4  5  1  0
  5  6  1  0
  6  7  2  0
  7  8  1  0
  8  9  2  0
  9 10  1  0
 10 11  2  0
  2 12  1  0
 12 13  2  0
 12 14  1  0
 14 15  1  0
 15 16  1  0
 16 17  2  0
 16 18  1  0
 18 19  2  0
 19 20  1  0
 20 21  2  0
 21 22  1  0
 22 23  2  0
 23 24  1  0
 23 25  1  0
 25 26  2  0
 26 27  1  0
 27 28  2  0
 11  6  1  0
 28 18  1  0
 27 21  1  0
  1 29  1  0
  1 30  1  0
  1 31  1  0
  3 32  1  0
  3 33  1  0
  4 34  1  0
  4 35  1  0
  5 36  1  0
  5 37  1  0
  7 38  1  0
  8 39  1  0
  9 40  1  0
 10 41  1  0
 14 42  1  0
 14 43  1  0
 15 44  1  0
 19 45  1  0
 20 46  1  0
 22 47  1  0
 25 48  1  0
 26 49  1  0
M  END
>  <meeko>  (15) 
{"free_energy": -7.28, "intermolecular_energy": -9.66, "internal_energy": -2.0, "cluster_size": 7, "cluster_id": 3, "rank_in_cluster": 7}

$$$$

     RDKit          3D

 49 51  0  0  0  0  0  0  0  0999 V2000
  136.5080   68.9190  223.2060 C   0  0  0  0  0  0  0  0  0  0  0  0
  137.4840   69.4620  224.0830 N   0  0  0  0  0  0  0  0  0  0  0  0
  137.9720   68.9350  225.3320 C   0  0  0  0  0  0  0  0  0  0  0  0
  139.2760   68.2330  225.1180 C   0  0  0  0  0  0  0  0  0  0  0  0
  140.1180   68.2590  226.3570 C   0  0  0  0  0  0  0  0  0  0  0  0
  140.4930   69.6620  226.6450 C   0  0  0  0  0  0  0  0  0  0  0  0
  140.1220   70.1330  227.9150 C   0  0  0  0  0  0  0  0  0  0  0  0
  140.4110   71.4210  228.3110 C   0  0  0  0  0  0  0  0  0  0  0  0
  141.0750   72.2450  227.4330 C   0  0  0  0  0  0  0  0  0  0  0  0
  141.4370   71.7760  226.1870 C   0  0  0  0  0  0  0  0  0  0  0  0
  141.1250   70.5100  225.8620 N   0  0  0  0  0  0  0  0  0  0  0  0
  138.0520   70.7420  223.6930 C   0  0  0  0  0  0  0  0  0  0  0  0
  137.4190   71.8150  223.8320 O   0  0  0  0  0  0  0  0  0  0  0  0
  139.4140   70.8380  223.1080 C   0  0  0  0  0  0  0  0  0  0  0  0
  139.7240   72.2110  222.7370 N   0  0  0  0  0  0  0  0  0  0  0  0
  140.7710   72.4840  221.8180 C   0  0  0  0  0  0  0  0  0  0  0  0
  141.4590   71.5430  221.3000 O   0  0  0  0  0  0  0  0  0  0  0  0
  141.0710   73.8670  221.4570 C   0  0  0  0  0  0  0  0  0  0  0  0
  142.0160   74.1480  220.4910 C   0  0  0  0  0  0  0  0  0  0  0  0
  142.2750   75.4760  220.1720 C   0  0  0  0  0  0  0  0  0  0  0  0
  141.5920   76.4900  220.8170 C   0  0  0  0  0  0  0  0  0  0  0  0
  141.7990   77.8280  220.5500 C   0  0  0  0  0  0  0  0  0  0  0  0
  141.1090   78.8290  221.2030 C   0  0  0  0  0  0  0  0  0  0  0  0
  141.3540   80.5230  220.8820 Cl  0  0  0  0  0  0  0  0  0  0  0  0
  140.1760   78.4800  222.1600 C   0  0  0  0  0  0  0  0  0  0  0  0
  139.9350   77.1550  222.4590 C   0  0  0  0  0  0  0  0  0  0  0  0
  140.6490   76.1860  221.7810 C   0  0  0  0  0  0  0  0  0  0  0  0
  140.4290   74.8880  222.0600 N   0  0  0  0  0  0  0  0  0  0  0  0
  135.6963   68.4674  223.7952 H   0  0  0  0  0  0  0  0  0  0  0  0
  136.0992   69.7193  222.5717 H   0  0  0  0  0  0  0  0  0  0  0  0
  136.9725   68.1496  222.5717 H   0  0  0  0  0  0  0  0  0  0  0  0
  138.1157   69.7608  226.0443 H   0  0  0  0  0  0  0  0  0  0  0  0
  137.2388   68.2195  225.7325 H   0  0  0  0  0  0  0  0  0  0  0  0
  139.0786   67.1870  224.8408 H   0  0  0  0  0  0  0  0  0  0  0  0
  139.8220   68.7516  224.3162 H   0  0  0  0  0  0  0  0  0  0  0  0
  139.5465   67.8474  227.2020 H   0  0  0  0  0  0  0  0  0  0  0  0
  141.0229   67.6514  226.2087 H   0  0  0  0  0  0  0  0  0  0  0  0
  139.5912   69.4618  228.6061 H   0  0  0  0  0  0  0  0  0  0  0  0
  140.1169   71.7820  229.3076 H   0  0  0  0  0  0  0  0  0  0  0  0
  141.3175   73.2777  227.7239 H   0  0  0  0  0  0  0  0  0  0  0  0
  141.9693   72.4242  225.4753 H   0  0  0  0  0  0  0  0  0  0  0  0
  140.1494   70.4901  223.8484 H   0  0  0  0  0  0  0  0  0  0  0  0
  139.4534   70.2121  222.2043 H   0  0  0  0  0  0  0  0  0  0  0  0
  139.2030   73.0350  223.1220 H   0  0  0  0  0  0  0  0  0  0  0  0
  142.5549   73.3351  219.9823 H   0  0  0  0  0  0  0  0  0  0  0  0
  143.0247   75.7203  219.4050 H   0  0  0  0  0  0  0  0  0  0  0  0
  142.5418   78.1071  219.7882 H   0  0  0  0  0  0  0  0  0  0  0  0
  139.6191   79.2672  222.6894 H   0  0  0  0  0  0  0  0  0  0  0  0
  139.1912   76.8764  223.2200 H   0  0  0  0  0  0  0  0  0  0  0  0
  1  2  1  0
  2  3  1  0
  3  4  1  0
  4  5  1  0
  5  6  1  0
  6  7  2  0
  7  8  1  0
  8  9  2  0
  9 10  1  0
 10 11  2  0
  2 12  1  0
 12 13  2  0
 12 14  1  0
 14 15  1  0
 15 16  1  0
 16 17  2  0
 16 18  1  0
 18 19  2  0
 19 20  1  0
 20 21  2  0
 21 22  1  0
 22 23  2  0
 23 24  1  0
 23 25  1  0
 25 26  2  0
 26 27  1  0
 27 28  2  0
 11  6  1  0
 28 18  1  0
 27 21  1  0
  1 29  1  0
  1 30  1  0
  1 31  1  0
  3 32  1  0
  3 33  1  0
  4 34  1  0
  4 35  1  0
  5 36  1  0
  5 37  1  0
  7 38  1  0
  8 39  1  0
  9 40  1  0
 10 41  1  0
 14 42  1  0
 14 43  1  0
 15 44  1  0
 19 45  1  0
 20 46  1  0
 22 47  1  0
 25 48  1  0
 26 49  1  0
M  END
>  <meeko>  (16) 
{"free_energy": -7.83, "intermolecular_energy": -10.22, "internal_energy": -2.27, "cluster_size": 8, "cluster_id": 1, "rank_in_cluster": 6}

$$$$

     RDKit          3D

 49 51  0  0  0  0  0  0  0  0999 V2000
  138.4060   68.1640  223.1640 C   0  0  0  0  0  0  0  0  0  0  0  0
  138.6340   69.0670  224.2350 N   0  0  0  0  0  0  0  0  0  0  0  0
  138.5680   68.8240  225.6540 C   0  0  0  0  0  0  0  0  0  0  0  0
  139.6170   67.8350  226.0550 C   0  0  0  0  0  0  0  0  0  0  0  0
  140.2130   68.1820  227.3840 C   0  0  0  0  0  0  0  0  0  0  0  0
  140.4760   69.6390  227.4190 C   0  0  0  0  0  0  0  0  0  0  0  0
  141.2400   70.1360  226.3500 C   0  0  0  0  0  0  0  0  0  0  0  0
  141.5570   71.4740  226.2620 C   0  0  0  0  0  0  0  0  0  0  0  0
  141.1090   72.3230  227.2460 C   0  0  0  0  0  0  0  0  0  0  0  0
  140.3590   71.8280  228.2940 C   0  0  0  0  0  0  0  0  0  0  0  0
  140.0850   70.5130  228.3210 N   0  0  0  0  0  0  0  0  0  0  0  0
  138.9460   70.4370  223.8610 C   0  0  0  0  0  0  0  0  0  0  0  0
  138.7720   71.3930  224.6520 O   0  0  0  0  0  0  0  0  0  0  0  0
  139.4880   70.7680  222.5180 C   0  0  0  0  0  0  0  0  0  0  0  0
  139.7760   72.1900  222.4100 N   0  0  0  0  0  0  0  0  0  0  0  0
  140.6580   72.6670  221.4050 C   0  0  0  0  0  0  0  0  0  0  0  0
  141.2130   71.8690  220.5790 O   0  0  0  0  0  0  0  0  0  0  0  0
  140.9370   74.0980  221.3110 C   0  0  0  0  0  0  0  0  0  0  0  0
  141.9560   74.5590  220.5030 C   0  0  0  0  0  0  0  0  0  0  0  0
  142.1940   75.9270  220.4370 C   0  0  0  0  0  0  0  0  0  0  0  0
  141.4170   76.8020  221.1740 C   0  0  0  0  0  0  0  0  0  0  0  0
  141.5980   78.1690  221.1560 C   0  0  0  0  0  0  0  0  0  0  0  0
  140.8140   79.0300  221.8970 C   0  0  0  0  0  0  0  0  0  0  0  0
  141.0240   80.7590  221.8900 Cl  0  0  0  0  0  0  0  0  0  0  0  0
  139.8100   78.5030  222.6870 C   0  0  0  0  0  0  0  0  0  0  0  0
  139.5930   77.1420  222.7350 C   0  0  0  0  0  0  0  0  0  0  0  0
  140.4010   76.3180  221.9770 C   0  0  0  0  0  0  0  0  0  0  0  0
  140.2050   74.9870  222.0110 N   0  0  0  0  0  0  0  0  0  0  0  0
  138.1555   67.1720  223.5679 H   0  0  0  0  0  0  0  0  0  0  0  0
  137.5721   68.5300  222.5470 H   0  0  0  0  0  0  0  0  0  0  0  0
  139.3137   68.0902  222.5470 H   0  0  0  0  0  0  0  0  0  0  0  0
  138.7332   69.7685  226.1931 H   0  0  0  0  0  0  0  0  0  0  0  0
  137.5764   68.4190  225.9045 H   0  0  0  0  0  0  0  0  0  0  0  0
  139.1621   66.8354  226.1164 H   0  0  0  0  0  0  0  0  0  0  0  0
  140.4173   67.8530  225.3005 H   0  0  0  0  0  0  0  0  0  0  0  0
  139.5105   67.9130  228.1866 H   0  0  0  0  0  0  0  0  0  0  0  0
  141.1516   67.6275  227.5308 H   0  0  0  0  0  0  0  0  0  0  0  0
  141.5913   69.4449  225.5696 H   0  0  0  0  0  0  0  0  0  0  0  0
  142.1561   71.8549  225.4218 H   0  0  0  0  0  0  0  0  0  0  0  0
  141.3479   73.3957  227.1984 H   0  0  0  0  0  0  0  0  0  0  0  0
  139.9940   72.4951  229.0889 H   0  0  0  0  0  0  0  0  0  0  0  0
  140.4152   70.1993  222.3537 H   0  0  0  0  0  0  0  0  0  0  0  0
  138.7355   70.5035  221.7605 H   0  0  0  0  0  0  0  0  0  0  0  0
  139.3570   72.9050  223.0540 H   0  0  0  0  0  0  0  0  0  0  0  0
  142.5697   73.8558  219.9209 H   0  0  0  0  0  0  0  0  0  0  0  0
  143.0013   76.3140  219.7978 H   0  0  0  0  0  0  0  0  0  0  0  0
  142.3972   78.5890  220.5275 H   0  0  0  0  0  0  0  0  0  0  0  0
  139.1772   79.1763  223.2839 H   0  0  0  0  0  0  0  0  0  0  0  0
  138.7937   76.7221  223.3634 H   0  0  0  0  0  0  0  0  0  0  0  0
  1  2  1  0
  2  3  1  0
  3  4  1  0
  4  5  1  0
  5  6  1  0
  6  7  2  0
  7  8  1  0
  8  9  2  0
  9 10  1  0
 10 11  2  0
  2 12  1  0
 12 13  2  0
 12 14  1  0
 14 15  1  0
 15 16  1  0
 16 17  2  0
 16 18  1  0
 18 19  2  0
 19 20  1  0
 20 21  2  0
 21 22  1  0
 22 23  2  0
 23 24  1  0
 23 25  1  0
 25 26  2  0
 26 27  1  0
 27 28  2  0
 11  6  1  0
 28 18  1  0
 27 21  1  0
  1 29  1  0
  1 30  1  0
  1 31  1  0
  3 32  1  0
  3 33  1  0
  4 34  1  0
  4 35  1  0
  5 36  1  0
  5 37  1  0
  7 38  1  0
  8 39  1  0
  9 40  1  0
 10 41  1  0
 14 42  1  0
 14 43  1  0
 15 44  1  0
 19 45  1  0
 20 46  1  0
 22 47  1  0
 25 48  1  0
 26 49  1  0
M  END
>  <meeko>  (17) 
{"free_energy": -8.11, "intermolecular_energy": -10.5, "internal_energy": -2.18, "cluster_size": 8, "cluster_id": 1, "rank_in_cluster": 2}

$$$$

     RDKit          3D

 49 51  0  0  0  0  0  0  0  0999 V2000
  135.8250   74.9880  223.5400 C   0  0  0  0  0  0  0  0  0  0  0  0
  136.8640   75.5040  222.7220 N   0  0  0  0  0  0  0  0  0  0  0  0
  137.9390   76.3940  223.0780 C   0  0  0  0  0  0  0  0  0  0  0  0
  138.7610   76.7160  221.8700 C   0  0  0  0  0  0  0  0  0  0  0  0
  140.2260   76.6560  222.1750 C   0  0  0  0  0  0  0  0  0  0  0  0
  140.7250   75.3030  221.8390 C   0  0  0  0  0  0  0  0  0  0  0  0
  141.7440   75.2630  220.8720 C   0  0  0  0  0  0  0  0  0  0  0  0
  142.2970   74.0670  220.4680 C   0  0  0  0  0  0  0  0  0  0  0  0
  141.8310   72.9030  221.0310 C   0  0  0  0  0  0  0  0  0  0  0  0
  140.8290   72.9500  221.9800 C   0  0  0  0  0  0  0  0  0  0  0  0
  140.3320   74.1480  222.3300 N   0  0  0  0  0  0  0  0  0  0  0  0
  136.8280   75.1140  221.3220 C   0  0  0  0  0  0  0  0  0  0  0  0
  136.3350   75.8570  220.4420 O   0  0  0  0  0  0  0  0  0  0  0  0
  137.3760   73.8090  220.8680 C   0  0  0  0  0  0  0  0  0  0  0  0
  137.8430   73.0200  221.9980 N   0  0  0  0  0  0  0  0  0  0  0  0
  137.6130   71.6200  222.0360 C   0  0  0  0  0  0  0  0  0  0  0  0
  136.9990   71.0240  221.0900 O   0  0  0  0  0  0  0  0  0  0  0  0
  138.0870   70.8420  223.1780 C   0  0  0  0  0  0  0  0  0  0  0  0
  137.6190   69.5620  223.3940 C   0  0  0  0  0  0  0  0  0  0  0  0
  138.0920   68.8510  224.4900 C   0  0  0  0  0  0  0  0  0  0  0  0
  139.0150   69.4260  225.3440 C   0  0  0  0  0  0  0  0  0  0  0  0
  139.5260   68.7780  226.4500 C   0  0  0  0  0  0  0  0  0  0  0  0
  140.4470   69.3660  227.2930 C   0  0  0  0  0  0  0  0  0  0  0  0
  141.1060   68.5670  228.6940 Cl  0  0  0  0  0  0  0  0  0  0  0  0
  140.8740   70.6500  227.0210 C   0  0  0  0  0  0  0  0  0  0  0  0
  140.3910   71.3360  225.9260 C   0  0  0  0  0  0  0  0  0  0  0  0
  139.4700   70.7090  225.1090 C   0  0  0  0  0  0  0  0  0  0  0  0
  138.9870   71.3630  224.0360 N   0  0  0  0  0  0  0  0  0  0  0  0
  136.0919   75.1205  224.5989 H   0  0  0  0  0  0  0  0  0  0  0  0
  134.8895   75.5262  223.3275 H   0  0  0  0  0  0  0  0  0  0  0  0
  135.6885   73.9174  223.3275 H   0  0  0  0  0  0  0  0  0  0  0  0
  137.5202   77.3233  223.4914 H   0  0  0  0  0  0  0  0  0  0  0  0
  138.5777   75.9052  223.8284 H   0  0  0  0  0  0  0  0  0  0  0  0
  138.5305   75.9902  221.0762 H   0  0  0  0  0  0  0  0  0  0  0  0
  138.5160   77.7384  221.5466 H   0  0  0  0  0  0  0  0  0  0  0  0
  140.7603   77.4073  221.5749 H   0  0  0  0  0  0  0  0  0  0  0  0
  140.3960   76.8643  223.2416 H   0  0  0  0  0  0  0  0  0  0  0  0
  142.1066   76.2027  220.4298 H   0  0  0  0  0  0  0  0  0  0  0  0
  143.0946   74.0445  219.7108 H   0  0  0  0  0  0  0  0  0  0  0  0
  142.2557   71.9352  220.7260 H   0  0  0  0  0  0  0  0  0  0  0  0
  140.4461   72.0267  222.4393 H   0  0  0  0  0  0  0  0  0  0  0  0
  136.5879   73.2514  220.3407 H   0  0  0  0  0  0  0  0  0  0  0  0
  138.2267   73.9995  220.1972 H   0  0  0  0  0  0  0  0  0  0  0  0
  138.3540   73.4400  222.8120 H   0  0  0  0  0  0  0  0  0  0  0  0
  136.8841   69.1122  222.7102 H   0  0  0  0  0  0  0  0  0  0  0  0
  137.7316   67.8290  224.6786 H   0  0  0  0  0  0  0  0  0  0  0  0
  139.1866   67.7546  226.6678 H   0  0  0  0  0  0  0  0  0  0  0  0
  141.6074   71.1315  227.6846 H   0  0  0  0  0  0  0  0  0  0  0  0
  140.7314   72.3591  225.7082 H   0  0  0  0  0  0  0  0  0  0  0  0
  1  2  1  0
  2  3  1  0
  3  4  1  0
  4  5  1  0
  5  6  1  0
  6  7  2  0
  7  8  1  0
  8  9  2  0
  9 10  1  0
 10 11  2  0
  2 12  1  0
 12 13  2  0
 12 14  1  0
 14 15  1  0
 15 16  1  0
 16 17  2  0
 16 18  1  0
 18 19  2  0
 19 20  1  0
 20 21  2  0
 21 22  1  0
 22 23  2  0
 23 24  1  0
 23 25  1  0
 25 26  2  0
 26 27  1  0
 27 28  2  0
 11  6  1  0
 28 18  1  0
 27 21  1  0
  1 29  1  0
  1 30  1  0
  1 31  1  0
  3 32  1  0
  3 33  1  0
  4 34  1  0
  4 35  1  0
  5 36  1  0
  5 37  1  0
  7 38  1  0
  8 39  1  0
  9 40  1  0
 10 41  1  0
 14 42  1  0
 14 43  1  0
 15 44  1  0
 19 45  1  0
 20 46  1  0
 22 47  1  0
 25 48  1  0
 26 49  1  0
M  END
>  <meeko>  (18) 
{"free_energy": -6.36, "intermolecular_energy": -8.74, "internal_energy": -2.8, "cluster_size": 1, "cluster_id": 5, "rank_in_cluster": 1}

$$$$

     RDKit          3D

 49 51  0  0  0  0  0  0  0  0999 V2000
  136.1960   69.5830  224.9380 C   0  0  0  0  0  0  0  0  0  0  0  0
  137.4310   69.5730  224.2380 N   0  0  0  0  0  0  0  0  0  0  0  0
  138.3390   68.4760  224.0200 C   0  0  0  0  0  0  0  0  0  0  0  0
  139.5840   68.6710  224.8270 C   0  0  0  0  0  0  0  0  0  0  0  0
  139.2670   68.8660  226.2780 C   0  0  0  0  0  0  0  0  0  0  0  0
  139.9800   70.0710  226.7600 C   0  0  0  0  0  0  0  0  0  0  0  0
  140.7590   70.7330  225.7960 C   0  0  0  0  0  0  0  0  0  0  0  0
  141.4730   71.8680  226.1130 C   0  0  0  0  0  0  0  0  0  0  0  0
  141.4110   72.3470  227.4000 C   0  0  0  0  0  0  0  0  0  0  0  0
  140.6440   71.6910  228.3420 C   0  0  0  0  0  0  0  0  0  0  0  0
  139.9720   70.5900  227.9690 N   0  0  0  0  0  0  0  0  0  0  0  0
  137.8660   70.8480  223.6910 C   0  0  0  0  0  0  0  0  0  0  0  0
  137.2530   71.9130  223.9340 O   0  0  0  0  0  0  0  0  0  0  0  0
  139.0620   70.9460  222.8150 C   0  0  0  0  0  0  0  0  0  0  0  0
  139.4090   72.3370  222.5640 N   0  0  0  0  0  0  0  0  0  0  0  0
  140.5390   72.6600  221.7690 C   0  0  0  0  0  0  0  0  0  0  0  0
  141.2710   71.7490  221.2580 O   0  0  0  0  0  0  0  0  0  0  0  0
  140.8750   74.0610  221.5280 C   0  0  0  0  0  0  0  0  0  0  0  0
  141.8740   74.3970  220.6370 C   0  0  0  0  0  0  0  0  0  0  0  0
  142.1670   75.7400  220.4330 C   0  0  0  0  0  0  0  0  0  0  0  0
  141.4620   76.7160  221.1150 C   0  0  0  0  0  0  0  0  0  0  0  0
  141.7000   78.0650  220.9600 C   0  0  0  0  0  0  0  0  0  0  0  0
  140.9890   79.0270  221.6490 C   0  0  0  0  0  0  0  0  0  0  0  0
  141.2720   80.7360  221.4690 Cl  0  0  0  0  0  0  0  0  0  0  0  0
  140.0010   78.6230  222.5260 C   0  0  0  0  0  0  0  0  0  0  0  0
  139.7280   77.2840  222.7120 C   0  0  0  0  0  0  0  0  0  0  0  0
  140.4650   76.3570  222.0020 C   0  0  0  0  0  0  0  0  0  0  0  0
  140.2140   75.0450  222.1710 N   0  0  0  0  0  0  0  0  0  0  0  0
  136.3884   69.5814  226.0210 H   0  0  0  0  0  0  0  0  0  0  0  0
  135.6286   70.4858  224.6677 H   0  0  0  0  0  0  0  0  0  0  0  0
  135.6141   68.6895  224.6677 H   0  0  0  0  0  0  0  0  0  0  0  0
  137.8533   67.5362  224.3217 H   0  0  0  0  0  0  0  0  0  0  0  0
  138.6042   68.4346  222.9532 H   0  0  0  0  0  0  0  0  0  0  0  0
  140.2253   67.7842  224.7163 H   0  0  0  0  0  0  0  0  0  0  0  0
  140.0983   69.5714  224.4599 H   0  0  0  0  0  0  0  0  0  0  0  0
  138.1828   69.0012  226.4055 H   0  0  0  0  0  0  0  0  0  0  0  0
  139.5865   67.9850  226.8540 H   0  0  0  0  0  0  0  0  0  0  0  0
  140.7995   70.3382  224.7701 H   0  0  0  0  0  0  0  0  0  0  0  0
  142.0801   72.3802  225.3520 H   0  0  0  0  0  0  0  0  0  0  0  0
  141.9715   73.2515  227.6788 H   0  0  0  0  0  0  0  0  0  0  0  0
  140.5847   72.0623  229.3758 H   0  0  0  0  0  0  0  0  0  0  0  0
  139.9100   70.4462  223.3060 H   0  0  0  0  0  0  0  0  0  0  0  0
  138.8346   70.4615  221.8540 H   0  0  0  0  0  0  0  0  0  0  0  0
  138.8550   73.1400  222.9510 H   0  0  0  0  0  0  0  0  0  0  0  0
  142.4287   73.6152  220.0976 H   0  0  0  0  0  0  0  0  0  0  0  0
  142.9609   76.0277  219.7280 H   0  0  0  0  0  0  0  0  0  0  0  0
  142.4860   78.3870  220.2610 H   0  0  0  0  0  0  0  0  0  0  0  0
  139.4256   79.3777  223.0822 H   0  0  0  0  0  0  0  0  0  0  0  0
  138.9412   76.9619  223.4100 H   0  0  0  0  0  0  0  0  0  0  0  0
  1  2  1  0
  2  3  1  0
  3  4  1  0
  4  5  1  0
  5  6  1  0
  6  7  2  0
  7  8  1  0
  8  9  2  0
  9 10  1  0
 10 11  2  0
  2 12  1  0
 12 13  2  0
 12 14  1  0
 14 15  1  0
 15 16  1  0
 16 17  2  0
 16 18  1  0
 18 19  2  0
 19 20  1  0
 20 21  2  0
 21 22  1  0
 22 23  2  0
 23 24  1  0
 23 25  1  0
 25 26  2  0
 26 27  1  0
 27 28  2  0
 11  6  1  0
 28 18  1  0
 27 21  1  0
  1 29  1  0
  1 30  1  0
  1 31  1  0
  3 32  1  0
  3 33  1  0
  4 34  1  0
  4 35  1  0
  5 36  1  0
  5 37  1  0
  7 38  1  0
  8 39  1  0
  9 40  1  0
 10 41  1  0
 14 42  1  0
 14 43  1  0
 15 44  1  0
 19 45  1  0
 20 46  1  0
 22 47  1  0
 25 48  1  0
 26 49  1  0
M  END
>  <meeko>  (19) 
{"free_energy": -7.52, "intermolecular_energy": -9.9, "internal_energy": -2.25, "cluster_size": 8, "cluster_id": 1, "rank_in_cluster": 7}

$$$$

     RDKit          3D

 49 51  0  0  0  0  0  0  0  0999 V2000
  138.8130   68.0170  223.3260 C   0  0  0  0  0  0  0  0  0  0  0  0
  138.8410   68.9460  224.3980 N   0  0  0  0  0  0  0  0  0  0  0  0
  138.8180   68.6930  225.8170 C   0  0  0  0  0  0  0  0  0  0  0  0
  139.7750   67.5940  226.1570 C   0  0  0  0  0  0  0  0  0  0  0  0
  140.7400   68.0230  227.2190 C   0  0  0  0  0  0  0  0  0  0  0  0
  140.9050   69.4920  227.1450 C   0  0  0  0  0  0  0  0  0  0  0  0
  140.4420   70.2050  228.2640 C   0  0  0  0  0  0  0  0  0  0  0  0
  140.5350   71.5780  228.3240 C   0  0  0  0  0  0  0  0  0  0  0  0
  141.0940   72.2460  227.2610 C   0  0  0  0  0  0  0  0  0  0  0  0
  141.5480   71.5400  226.1650 C   0  0  0  0  0  0  0  0  0  0  0  0
  141.4270   70.2020  226.1690 N   0  0  0  0  0  0  0  0  0  0  0  0
  138.8610   70.3510  224.0260 C   0  0  0  0  0  0  0  0  0  0  0  0
  138.9000   71.2620  224.8860 O   0  0  0  0  0  0  0  0  0  0  0  0
  138.8370   70.7750  222.6020 C   0  0  0  0  0  0  0  0  0  0  0  0
  139.2740   72.1560  222.4630 N   0  0  0  0  0  0  0  0  0  0  0  0
  140.2430   72.5050  221.4860 C   0  0  0  0  0  0  0  0  0  0  0  0
  140.7480   71.6250  220.7110 O   0  0  0  0  0  0  0  0  0  0  0  0
  140.6720   73.8950  221.3600 C   0  0  0  0  0  0  0  0  0  0  0  0
  141.7330   74.2280  220.5430 C   0  0  0  0  0  0  0  0  0  0  0  0
  142.1150   75.5600  220.4470 C   0  0  0  0  0  0  0  0  0  0  0  0
  141.4350   76.5290  221.1620 C   0  0  0  0  0  0  0  0  0  0  0  0
  141.7600   77.8690  221.1140 C   0  0  0  0  0  0  0  0  0  0  0  0
  141.0710   78.8240  221.8340 C   0  0  0  0  0  0  0  0  0  0  0  0
  141.4630   80.5210  221.7880 Cl  0  0  0  0  0  0  0  0  0  0  0  0
  140.0180   78.4250  222.6330 C   0  0  0  0  0  0  0  0  0  0  0  0
  139.6580   77.0960  222.7120 C   0  0  0  0  0  0  0  0  0  0  0  0
  140.3740   76.1740  221.9740 C   0  0  0  0  0  0  0  0  0  0  0  0
  140.0380   74.8720  222.0380 N   0  0  0  0  0  0  0  0  0  0  0  0
  138.7822   66.9937  223.7283 H   0  0  0  0  0  0  0  0  0  0  0  0
  137.9198   68.1956  222.7093 H   0  0  0  0  0  0  0  0  0  0  0  0
  139.7153   68.1415  222.7093 H   0  0  0  0  0  0  0  0  0  0  0  0
  139.1079   69.6077  226.3548 H   0  0  0  0  0  0  0  0  0  0  0  0
  137.8024   68.3917  226.1134 H   0  0  0  0  0  0  0  0  0  0  0  0
  139.2076   66.7237  226.5185 H   0  0  0  0  0  0  0  0  0  0  0  0
  140.3454   67.3376  225.2521 H   0  0  0  0  0  0  0  0  0  0  0  0
  140.3494   67.7438  228.2087 H   0  0  0  0  0  0  0  0  0  0  0  0
  141.7106   67.5287  227.0653 H   0  0  0  0  0  0  0  0  0  0  0  0
  139.9972   69.6566  229.1074 H   0  0  0  0  0  0  0  0  0  0  0  0
  140.1697   72.1279  229.2038 H   0  0  0  0  0  0  0  0  0  0  0  0
  141.1796   73.3424  227.2835 H   0  0  0  0  0  0  0  0  0  0  0  0
  141.9987   72.0613  225.3076 H   0  0  0  0  0  0  0  0  0  0  0  0
  139.5081   70.1249  222.0215 H   0  0  0  0  0  0  0  0  0  0  0  0
  137.8054   70.6940  222.2290 H   0  0  0  0  0  0  0  0  0  0  0  0
  138.9040   72.9320  223.0640 H   0  0  0  0  0  0  0  0  0  0  0  0
  142.2677   73.4511  219.9768 H   0  0  0  0  0  0  0  0  0  0  0  0
  142.9592   75.8444  219.8017 H   0  0  0  0  0  0  0  0  0  0  0  0
  142.5992   78.1881  220.4784 H   0  0  0  0  0  0  0  0  0  0  0  0
  139.4602   79.1752  223.2128 H   0  0  0  0  0  0  0  0  0  0  0  0
  138.8194   76.7775  223.3486 H   0  0  0  0  0  0  0  0  0  0  0  0
  1  2  1  0
  2  3  1  0
  3  4  1  0
  4  5  1  0
  5  6  1  0
  6  7  2  0
  7  8  1  0
  8  9  2  0
  9 10  1  0
 10 11  2  0
  2 12  1  0
 12 13  2  0
 12 14  1  0
 14 15  1  0
 15 16  1  0
 16 17  2  0
 16 18  1  0
 18 19  2  0
 19 20  1  0
 20 21  2  0
 21 22  1  0
 22 23  2  0
 23 24  1  0
 23 25  1  0
 25 26  2  0
 26 27  1  0
 27 28  2  0
 11  6  1  0
 28 18  1  0
 27 21  1  0
  1 29  1  0
  1 30  1  0
  1 31  1  0
  3 32  1  0
  3 33  1  0
  4 34  1  0
  4 35  1  0
  5 36  1  0
  5 37  1  0
  7 38  1  0
  8 39  1  0
  9 40  1  0
 10 41  1  0
 14 42  1  0
 14 43  1  0
 15 44  1  0
 19 45  1  0
 20 46  1  0
 22 47  1  0
 25 48  1  0
 26 49  1  0
M  END
>  <meeko>  (20) 
{"free_energy": -8.33, "intermolecular_energy": -10.72, "internal_energy": -2.04, "cluster_size": 8, "cluster_id": 1, "rank_in_cluster": 1}

$$$$
