
     RDKit          3D

 49 52  0  0  0  0  0  0  0  0999 V2000
  139.8790   72.0840  220.6670 O   0  0  0  0  0  0  0  0  0  0  0  0
  139.7930   72.4870  221.8690 C   0  0  0  0  0  0  0  0  0  0  0  0
  139.6390   73.8640  222.1690 N   0  0  0  0  0  0  0  0  0  0  0  0
  139.5740   74.8380  221.1270 C   0  0  0  0  0  0  0  0  0  0  0  0
  140.7250   75.7920  221.1580 C   0  0  0  0  0  0  0  0  0  0  0  0
  141.0960   76.1740  222.2920 O   0  0  0  0  0  0  0  0  0  0  0  0
  141.2980   76.1840  219.9300 N   0  0  0  0  0  0  0  0  0  0  0  0
  140.8130   77.2710  219.0410 C   0  0  0  0  0  0  0  0  0  0  0  0
  142.1380   78.0010  218.8780 C   0  0  1  0  0  0  0  0  0  0  0  0
  142.1430   78.9670  219.9110 O   0  0  0  0  0  0  0  0  0  0  0  0
  143.2460   76.9790  219.1560 C   0  0  0  0  0  0  0  0  0  0  0  0
  142.4640   75.6990  219.2100 C   0  0  1  0  0  0  0  0  0  0  0  0
  143.1300   74.5390  219.7580 C   0  0  0  0  0  0  0  0  0  0  0  0
  142.4870   73.3290  219.8440 C   0  0  0  0  0  0  0  0  0  0  0  0
  143.1580   72.2310  220.3920 C   0  0  0  0  0  0  0  0  0  0  0  0
  144.4630   72.3490  220.8470 C   0  0  0  0  0  0  0  0  0  0  0  0
  145.1100   73.5600  220.7620 C   0  0  0  0  0  0  0  0  0  0  0  0
  144.4320   74.6360  220.2190 C   0  0  0  0  0  0  0  0  0  0  0  0
  139.8560   71.5170  222.9570 C   0  0  0  0  0  0  0  0  0  0  0  0
  139.4010   70.2270  222.7860 C   0  0  0  0  0  0  0  0  0  0  0  0
  139.4630   69.3120  223.8250 C   0  0  0  0  0  0  0  0  0  0  0  0
  139.9960   69.7170  225.0520 C   0  0  0  0  0  0  0  0  0  0  0  0
  140.0890   68.8660  226.1230 C   0  0  0  0  0  0  0  0  0  0  0  0
  140.6250   69.3160  227.3240 C   0  0  0  0  0  0  0  0  0  0  0  0
  140.7620   68.2550  228.7200 Cl  0  0  0  0  0  0  0  0  0  0  0  0
  141.0780   70.6120  227.4860 C   0  0  0  0  0  0  0  0  0  0  0  0
  140.9770   71.4530  226.3970 C   0  0  0  0  0  0  0  0  0  0  0  0
  140.4420   71.0130  225.1920 C   0  0  0  0  0  0  0  0  0  0  0  0
  140.3680   71.8760  224.1680 N   0  0  0  0  0  0  0  0  0  0  0  0
  139.5730   74.1280  223.1970 H   0  0  0  0  0  0  0  0  0  0  0  0
  139.5740   74.3175  220.1579 H   0  0  0  0  0  0  0  0  0  0  0  0
  138.6536   75.4220  221.2743 H   0  0  0  0  0  0  0  0  0  0  0  0
  140.4254   76.8886  218.0852 H   0  0  0  0  0  0  0  0  0  0  0  0
  139.9702   77.8691  219.4177 H   0  0  0  0  0  0  0  0  0  0  0  0
  142.2788   78.4528  217.8850 H   0  0  0  0  0  0  0  0  0  0  0  0
  142.6830   78.6600  220.6800 H   0  0  0  0  0  0  0  0  0  0  0  0
  143.9897   76.9619  218.3457 H   0  0  0  0  0  0  0  0  0  0  0  0
  143.8307   77.1866  220.0643 H   0  0  0  0  0  0  0  0  0  0  0  0
  142.2537   75.2495  218.2283 H   0  0  0  0  0  0  0  0  0  0  0  0
  141.4526   73.2240  219.4849 H   0  0  0  0  0  0  0  0  0  0  0  0
  142.6440   71.2611  220.4631 H   0  0  0  0  0  0  0  0  0  0  0  0
  144.9791   71.4767  221.2746 H   0  0  0  0  0  0  0  0  0  0  0  0
  146.1448   73.6701  221.1184 H   0  0  0  0  0  0  0  0  0  0  0  0
  144.9466   75.6058  220.1507 H   0  0  0  0  0  0  0  0  0  0  0  0
  138.9845   69.9208  221.8150 H   0  0  0  0  0  0  0  0  0  0  0  0
  139.0986   68.2834  223.6863 H   0  0  0  0  0  0  0  0  0  0  0  0
  139.7394   67.8270  226.0318 H   0  0  0  0  0  0  0  0  0  0  0  0
  141.5004   70.9575  228.4411 H   0  0  0  0  0  0  0  0  0  0  0  0
  141.3268   72.4923  226.4841 H   0  0  0  0  0  0  0  0  0  0  0  0
  1  2  2  0
  2  3  1  0
  3  4  1  0
  4  5  1  0
  5  6  2  0
  5  7  1  0
  7  8  1  0
  8  9  1  0
  9 10  1  0
  9 11  1  0
 11 12  1  0
 12 13  1  0
 13 14  2  0
 14 15  1  0
 15 16  2  0
 16 17  1  0
 17 18  2  0
  2 19  1  0
 19 20  2  0
 20 21  1  0
 21 22  2  0
 22 23  1  0
 23 24  2  0
 24 25  1  0
 24 26  1  0
 26 27  2  0
 27 28  1  0
 28 29  2  0
 12  7  1  0
 18 13  1  0
 29 19  1  0
 28 22  1  0
  3 30  1  0
  4 31  1  0
  4 32  1  0
  8 33  1  0
  8 34  1  0
  9 35  1  6
 10 36  1  0
 11 37  1  0
 11 38  1  0
 12 39  1  6
 14 40  1  0
 15 41  1  0
 16 42  1  0
 17 43  1  0
 18 44  1  0
 20 45  1  0
 21 46  1  0
 23 47  1  0
 26 48  1  0
 27 49  1  0
M  END
>  <meeko>  (1) 
{"free_energy": -8.33, "intermolecular_energy": -10.12, "internal_energy": -2.09, "cluster_size": 5, "cluster_id": 1, "rank_in_cluster": 1}

$$$$

     RDKit          3D

 49 52  0  0  0  0  0  0  0  0999 V2000
  135.2120   74.8240  222.9630 O   0  0  0  0  0  0  0  0  0  0  0  0
  136.4740   74.8080  222.8180 C   0  0  0  0  0  0  0  0  0  0  0  0
  137.1830   73.5830  222.7200 N   0  0  0  0  0  0  0  0  0  0  0  0
  136.4960   72.3330  222.7800 C   0  0  0  0  0  0  0  0  0  0  0  0
  137.3660   71.2220  223.2760 C   0  0  0  0  0  0  0  0  0  0  0  0
  136.8260   70.4040  224.0570 O   0  0  0  0  0  0  0  0  0  0  0  0
  138.7060   71.1780  222.8360 N   0  0  0  0  0  0  0  0  0  0  0  0
  139.2130   71.6370  221.5170 C   0  0  0  0  0  0  0  0  0  0  0  0
  140.3420   72.5170  222.0340 C   0  0  1  0  0  0  0  0  0  0  0  0
  139.7650   73.8010  222.1600 O   0  0  0  0  0  0  0  0  0  0  0  0
  140.7040   72.0010  223.4310 C   0  0  0  0  0  0  0  0  0  0  0  0
  139.9210   70.7210  223.4890 C   0  0  1  0  0  0  0  0  0  0  0  0
  139.7690   70.0970  224.7830 C   0  0  0  0  0  0  0  0  0  0  0  0
  139.3100   68.8070  224.8960 C   0  0  0  0  0  0  0  0  0  0  0  0
  139.1630   68.2390  226.1660 C   0  0  0  0  0  0  0  0  0  0  0  0
  139.4770   68.9590  227.3090 C   0  0  0  0  0  0  0  0  0  0  0  0
  139.9370   70.2510  227.1980 C   0  0  0  0  0  0  0  0  0  0  0  0
  140.0760   70.7980  225.9360 C   0  0  0  0  0  0  0  0  0  0  0  0
  137.2060   76.0680  222.7520 C   0  0  0  0  0  0  0  0  0  0  0  0
  136.5400   77.2740  222.7000 C   0  0  0  0  0  0  0  0  0  0  0  0
  137.2420   78.4680  222.6370 C   0  0  0  0  0  0  0  0  0  0  0  0
  138.6400   78.4300  222.6270 C   0  0  0  0  0  0  0  0  0  0  0  0
  139.3980   79.5710  222.5660 C   0  0  0  0  0  0  0  0  0  0  0  0
  140.7850   79.4820  222.5570 C   0  0  0  0  0  0  0  0  0  0  0  0
  141.7940   80.9200  222.4810 Cl  0  0  0  0  0  0  0  0  0  0  0  0
  141.4440   78.2680  222.6100 C   0  0  0  0  0  0  0  0  0  0  0  0
  140.6640   77.1320  222.6710 C   0  0  0  0  0  0  0  0  0  0  0  0
  139.2770   77.2090  222.6790 C   0  0  0  0  0  0  0  0  0  0  0  0
  138.5690   76.0710  222.7400 N   0  0  0  0  0  0  0  0  0  0  0  0
  138.2370   73.6460  222.5990 H   0  0  0  0  0  0  0  0  0  0  0  0
  135.6355   72.4360  223.4575 H   0  0  0  0  0  0  0  0  0  0  0  0
  136.1793   72.0774  221.7581 H   0  0  0  0  0  0  0  0  0  0  0  0
  139.5802   70.8058  220.8971 H   0  0  0  0  0  0  0  0  0  0  0  0
  138.4806   72.1221  220.8549 H   0  0  0  0  0  0  0  0  0  0  0  0
  141.2333   72.5232  221.3894 H   0  0  0  0  0  0  0  0  0  0  0  0
  139.5380   73.9960  223.1020 H   0  0  0  0  0  0  0  0  0  0  0  0
  141.7843   71.8158  223.5236 H   0  0  0  0  0  0  0  0  0  0  0  0
  140.4728   72.7056  224.2434 H   0  0  0  0  0  0  0  0  0  0  0  0
  140.4127   69.8605  223.0116 H   0  0  0  0  0  0  0  0  0  0  0  0
  139.0603   68.2260  223.9959 H   0  0  0  0  0  0  0  0  0  0  0  0
  138.7933   67.2072  226.2593 H   0  0  0  0  0  0  0  0  0  0  0  0
  139.3587   68.4987  228.3010 H   0  0  0  0  0  0  0  0  0  0  0  0
  140.1889   70.8364  228.0946 H   0  0  0  0  0  0  0  0  0  0  0  0
  140.4449   71.8303  225.8448 H   0  0  0  0  0  0  0  0  0  0  0  0
  135.4401   77.2891  222.7086 H   0  0  0  0  0  0  0  0  0  0  0  0
  136.7084   79.4290  222.5956 H   0  0  0  0  0  0  0  0  0  0  0  0
  138.9090   80.5555  222.5242 H   0  0  0  0  0  0  0  0  0  0  0  0
  142.5425   78.2104  222.6038 H   0  0  0  0  0  0  0  0  0  0  0  0
  141.1497   76.1460  222.7142 H   0  0  0  0  0  0  0  0  0  0  0  0
  1  2  2  0
  2  3  1  0
  3  4  1  0
  4  5  1  0
  5  6  2  0
  5  7  1  0
  7  8  1  0
  8  9  1  0
  9 10  1  0
  9 11  1  0
 11 12  1  0
 12 13  1  0
 13 14  2  0
 14 15  1  0
 15 16  2  0
 16 17  1  0
 17 18  2  0
  2 19  1  0
 19 20  2  0
 20 21  1  0
 21 22  2  0
 22 23  1  0
 23 24  2  0
 24 25  1  0
 24 26  1  0
 26 27  2  0
 27 28  1  0
 28 29  2  0
 12  7  1  0
 18 13  1  0
 29 19  1  0
 28 22  1  0
  3 30  1  0
  4 31  1  0
  4 32  1  0
  8 33  1  0
  8 34  1  0
  9 35  1  6
 10 36  1  0
 11 37  1  0
 11 38  1  0
 12 39  1  6
 14 40  1  0
 15 41  1  0
 16 42  1  0
 17 43  1  0
 18 44  1  0
 20 45  1  0
 21 46  1  0
 23 47  1  0
 26 48  1  0
 27 49  1  0
M  END
>  <meeko>  (2) 
{"free_energy": -7.71, "intermolecular_energy": -9.5, "internal_energy": -2.97, "cluster_size": 3, "cluster_id": 3, "rank_in_cluster": 3}

$$$$

     RDKit          3D

 49 52  0  0  0  0  0  0  0  0999 V2000
  135.0670   68.5310  225.0660 O   0  0  0  0  0  0  0  0  0  0  0  0
  135.5880   69.6320  224.7040 C   0  0  0  0  0  0  0  0  0  0  0  0
  136.7280   69.6590  223.8610 N   0  0  0  0  0  0  0  0  0  0  0  0
  137.3220   68.4480  223.3940 C   0  0  0  0  0  0  0  0  0  0  0  0
  138.7730   68.3470  223.7410 C   0  0  0  0  0  0  0  0  0  0  0  0
  139.1980   67.2000  224.0110 O   0  0  0  0  0  0  0  0  0  0  0  0
  139.5420   69.5300  223.7390 N   0  0  0  0  0  0  0  0  0  0  0  0
  139.7510   70.4400  222.5820 C   0  0  0  0  0  0  0  0  0  0  0  0
  139.3770   71.7390  223.2830 C   0  0  1  0  0  0  0  0  0  0  0  0
  137.9920   71.8890  223.0380 O   0  0  0  0  0  0  0  0  0  0  0  0
  139.5900   71.5120  224.7830 C   0  0  0  0  0  0  0  0  0  0  0  0
  140.3010   70.1900  224.7880 C   0  0  1  0  0  0  0  0  0  0  0  0
  140.4000   69.4980  226.0520 C   0  0  0  0  0  0  0  0  0  0  0  0
  141.1230   68.3350  226.1660 C   0  0  0  0  0  0  0  0  0  0  0  0
  141.1870   67.6840  227.4030 C   0  0  0  0  0  0  0  0  0  0  0  0
  140.5330   68.1990  228.5130 C   0  0  0  0  0  0  0  0  0  0  0  0
  139.8100   69.3630  228.4010 C   0  0  0  0  0  0  0  0  0  0  0  0
  139.7550   69.9930  227.1720 C   0  0  0  0  0  0  0  0  0  0  0  0
  135.0050   70.8880  225.1640 C   0  0  0  0  0  0  0  0  0  0  0  0
  133.9980   70.9010  226.1050 C   0  0  0  0  0  0  0  0  0  0  0  0
  133.4480   72.0990  226.5360 C   0  0  0  0  0  0  0  0  0  0  0  0
  133.9330   73.2960  226.0020 C   0  0  0  0  0  0  0  0  0  0  0  0
  133.4370   74.5160  226.3820 C   0  0  0  0  0  0  0  0  0  0  0  0
  133.9500   75.6800  225.8210 C   0  0  0  0  0  0  0  0  0  0  0  0
  133.3420   77.2640  226.2820 Cl  0  0  0  0  0  0  0  0  0  0  0  0
  134.9610   75.6570  224.8780 C   0  0  0  0  0  0  0  0  0  0  0  0
  135.4470   74.4200  224.5090 C   0  0  0  0  0  0  0  0  0  0  0  0
  134.9400   73.2500  225.0630 C   0  0  0  0  0  0  0  0  0  0  0  0
  135.4520   72.0760  224.6650 N   0  0  0  0  0  0  0  0  0  0  0  0
  137.1100   70.6160  223.5990 H   0  0  0  0  0  0  0  0  0  0  0  0
  136.7915   67.5978  223.8476 H   0  0  0  0  0  0  0  0  0  0  0  0
  137.2408   68.4390  222.2970 H   0  0  0  0  0  0  0  0  0  0  0  0
  140.7934   70.4385  222.2307 H   0  0  0  0  0  0  0  0  0  0  0  0
  139.1913   70.2011  221.6657 H   0  0  0  0  0  0  0  0  0  0  0  0
  139.9563   72.6113  222.9463 H   0  0  0  0  0  0  0  0  0  0  0  0
  137.5320   72.2610  223.8300 H   0  0  0  0  0  0  0  0  0  0  0  0
  140.2120   72.3044  225.2249 H   0  0  0  0  0  0  0  0  0  0  0  0
  138.6626   71.5246  225.3745 H   0  0  0  0  0  0  0  0  0  0  0  0
  141.3852   70.2514  224.6127 H   0  0  0  0  0  0  0  0  0  0  0  0
  141.6468   67.9194  225.2926 H   0  0  0  0  0  0  0  0  0  0  0  0
  141.7633   66.7518  227.4966 H   0  0  0  0  0  0  0  0  0  0  0  0
  140.5928   67.6776  229.4797 H   0  0  0  0  0  0  0  0  0  0  0  0
  139.2860   69.7843  229.2716 H   0  0  0  0  0  0  0  0  0  0  0  0
  139.1762   70.9239  227.0805 H   0  0  0  0  0  0  0  0  0  0  0  0
  133.6268   69.9516  226.5183 H   0  0  0  0  0  0  0  0  0  0  0  0
  132.6432   72.1069  227.2858 H   0  0  0  0  0  0  0  0  0  0  0  0
  132.6332   74.5741  227.1307 H   0  0  0  0  0  0  0  0  0  0  0  0
  135.3601   76.5844  224.4413 H   0  0  0  0  0  0  0  0  0  0  0  0
  136.2517   74.3580  223.7616 H   0  0  0  0  0  0  0  0  0  0  0  0
  1  2  2  0
  2  3  1  0
  3  4  1  0
  4  5  1  0
  5  6  2  0
  5  7  1  0
  7  8  1  0
  8  9  1  0
  9 10  1  0
  9 11  1  0
 11 12  1  0
 12 13  1  0
 13 14  2  0
 14 15  1  0
 15 16  2  0
 16 17  1  0
 17 18  2  0
  2 19  1  0
 19 20  2  0
 20 21  1  0
 21 22  2  0
 22 23  1  0
 23 24  2  0
 24 25  1  0
 24 26  1  0
 26 27  2  0
 27 28  1  0
 28 29  2  0
 12  7  1  0
 18 13  1  0
 29 19  1  0
 28 22  1  0
  3 30  1  0
  4 31  1  0
  4 32  1  0
  8 33  1  0
  8 34  1  0
  9 35  1  6
 10 36  1  0
 11 37  1  0
 11 38  1  0
 12 39  1  6
 14 40  1  0
 15 41  1  0
 16 42  1  0
 17 43  1  0
 18 44  1  0
 20 45  1  0
 21 46  1  0
 23 47  1  0
 26 48  1  0
 27 49  1  0
M  END
>  <meeko>  (3) 
{"free_energy": -7.66, "intermolecular_energy": -9.45, "internal_energy": -3.43, "cluster_size": 8, "cluster_id": 4, "rank_in_cluster": 7}

$$$$

     RDKit          3D

 49 52  0  0  0  0  0  0  0  0999 V2000
  140.0100   79.0800  219.4590 O   0  0  0  0  0  0  0  0  0  0  0  0
  140.2330   78.1300  220.2730 C   0  0  0  0  0  0  0  0  0  0  0  0
  139.4580   77.9800  221.4510 N   0  0  0  0  0  0  0  0  0  0  0  0
  138.4030   78.8920  221.7540 C   0  0  0  0  0  0  0  0  0  0  0  0
  138.8850   80.1110  222.4750 C   0  0  0  0  0  0  0  0  0  0  0  0
  138.0700   81.0580  222.5650 O   0  0  0  0  0  0  0  0  0  0  0  0
  140.1980   80.1030  222.9910 N   0  0  0  0  0  0  0  0  0  0  0  0
  140.6600   79.3830  224.2070 C   0  0  0  0  0  0  0  0  0  0  0  0
  141.8530   78.6780  223.5770 C   0  0  1  0  0  0  0  0  0  0  0  0
  141.3420   77.4340  223.1420 O   0  0  0  0  0  0  0  0  0  0  0  0
  142.2590   79.5010  222.3500 C   0  0  0  0  0  0  0  0  0  0  0  0
  141.4210   80.7340  222.5260 C   0  0  1  0  0  0  0  0  0  0  0  0
  141.3050   81.6220  221.3920 C   0  0  0  0  0  0  0  0  0  0  0  0
  140.7000   82.8490  221.5140 C   0  0  0  0  0  0  0  0  0  0  0  0
  140.5930   83.6770  220.3930 C   0  0  0  0  0  0  0  0  0  0  0  0
  141.0920   83.2770  219.1620 C   0  0  0  0  0  0  0  0  0  0  0  0
  141.6990   82.0490  219.0370 C   0  0  0  0  0  0  0  0  0  0  0  0
  141.7960   81.2420  220.1550 C   0  0  0  0  0  0  0  0  0  0  0  0
  141.3040   77.1810  219.9920 C   0  0  0  0  0  0  0  0  0  0  0  0
  142.3160   77.4910  219.1080 C   0  0  0  0  0  0  0  0  0  0  0  0
  143.3290   76.5820  218.8460 C   0  0  0  0  0  0  0  0  0  0  0  0
  143.3120   75.3440  219.4930 C   0  0  0  0  0  0  0  0  0  0  0  0
  144.2810   74.3980  219.2820 C   0  0  0  0  0  0  0  0  0  0  0  0
  144.2200   73.1800  219.9490 C   0  0  0  0  0  0  0  0  0  0  0  0
  145.4440   71.9410  219.7070 Cl  0  0  0  0  0  0  0  0  0  0  0  0
  143.2020   72.8770  220.8340 C   0  0  0  0  0  0  0  0  0  0  0  0
  142.2360   73.8420  221.0330 C   0  0  0  0  0  0  0  0  0  0  0  0
  142.2870   75.0620  220.3710 C   0  0  0  0  0  0  0  0  0  0  0  0
  141.3200   75.9620  220.6040 N   0  0  0  0  0  0  0  0  0  0  0  0
  139.7010   77.1630  222.0860 H   0  0  0  0  0  0  0  0  0  0  0  0
  137.9266   79.2046  220.8131 H   0  0  0  0  0  0  0  0  0  0  0  0
  137.6937   78.3728  222.4152 H   0  0  0  0  0  0  0  0  0  0  0  0
  140.9570   80.0699  225.0132 H   0  0  0  0  0  0  0  0  0  0  0  0
  139.9194   78.7394  224.7043 H   0  0  0  0  0  0  0  0  0  0  0  0
  142.7116   78.5608  224.2546 H   0  0  0  0  0  0  0  0  0  0  0  0
  141.8800   77.0740  222.3940 H   0  0  0  0  0  0  0  0  0  0  0  0
  143.3327   79.7396  222.3636 H   0  0  0  0  0  0  0  0  0  0  0  0
  142.1015   78.9847  221.3915 H   0  0  0  0  0  0  0  0  0  0  0  0
  141.8473   81.4849  223.2075 H   0  0  0  0  0  0  0  0  0  0  0  0
  140.3030   83.1773  222.4859 H   0  0  0  0  0  0  0  0  0  0  0  0
  140.1066   84.6590  220.4882 H   0  0  0  0  0  0  0  0  0  0  0  0
  141.0025   83.9397  218.2886 H   0  0  0  0  0  0  0  0  0  0  0  0
  142.0988   81.7162  218.0678 H   0  0  0  0  0  0  0  0  0  0  0  0
  142.2821   80.2600  220.0579 H   0  0  0  0  0  0  0  0  0  0  0  0
  142.3193   78.4696  218.6057 H   0  0  0  0  0  0  0  0  0  0  0  0
  144.1341   76.8316  218.1393 H   0  0  0  0  0  0  0  0  0  0  0  0
  145.1069   74.6026  218.5849 H   0  0  0  0  0  0  0  0  0  0  0  0
  143.1638   71.9096  221.3563 H   0  0  0  0  0  0  0  0  0  0  0  0
  141.4089   73.6411  221.7299 H   0  0  0  0  0  0  0  0  0  0  0  0
  1  2  2  0
  2  3  1  0
  3  4  1  0
  4  5  1  0
  5  6  2  0
  5  7  1  0
  7  8  1  0
  8  9  1  0
  9 10  1  0
  9 11  1  0
 11 12  1  0
 12 13  1  0
 13 14  2  0
 14 15  1  0
 15 16  2  0
 16 17  1  0
 17 18  2  0
  2 19  1  0
 19 20  2  0
 20 21  1  0
 21 22  2  0
 22 23  1  0
 23 24  2  0
 24 25  1  0
 24 26  1  0
 26 27  2  0
 27 28  1  0
 28 29  2  0
 12  7  1  0
 18 13  1  0
 29 19  1  0
 28 22  1  0
  3 30  1  0
  4 31  1  0
  4 32  1  0
  8 33  1  0
  8 34  1  0
  9 35  1  1
 10 36  1  0
 11 37  1  0
 11 38  1  0
 12 39  1  1
 14 40  1  0
 15 41  1  0
 16 42  1  0
 17 43  1  0
 18 44  1  0
 20 45  1  0
 21 46  1  0
 23 47  1  0
 26 48  1  0
 27 49  1  0
M  END
>  <meeko>  (4) 
{"free_energy": -6.01, "intermolecular_energy": -7.8, "internal_energy": -3.83, "cluster_size": 1, "cluster_id": 5, "rank_in_cluster": 1}

$$$$

     RDKit          3D

 49 52  0  0  0  0  0  0  0  0999 V2000
  135.1440   68.5210  224.9930 O   0  0  0  0  0  0  0  0  0  0  0  0
  135.6190   69.6300  224.5970 C   0  0  0  0  0  0  0  0  0  0  0  0
  136.7360   69.6770  223.7240 N   0  0  0  0  0  0  0  0  0  0  0  0
  137.3570   68.4760  223.2650 C   0  0  0  0  0  0  0  0  0  0  0  0
  138.7900   68.3740  223.6800 C   0  0  0  0  0  0  0  0  0  0  0  0
  139.1950   67.2290  223.9900 O   0  0  0  0  0  0  0  0  0  0  0  0
  139.5660   69.5520  223.6910 N   0  0  0  0  0  0  0  0  0  0  0  0
  139.7830   70.4720  222.5450 C   0  0  0  0  0  0  0  0  0  0  0  0
  139.4140   71.7660  223.2570 C   0  0  1  0  0  0  0  0  0  0  0  0
  138.0310   71.9270  223.0100 O   0  0  0  0  0  0  0  0  0  0  0  0
  139.6220   71.5230  224.7550 C   0  0  0  0  0  0  0  0  0  0  0  0
  140.3250   70.1970  224.7490 C   0  0  1  0  0  0  0  0  0  0  0  0
  140.4170   69.4920  226.0070 C   0  0  0  0  0  0  0  0  0  0  0  0
  141.1190   68.3150  226.1070 C   0  0  0  0  0  0  0  0  0  0  0  0
  141.1770   67.6520  227.3370 C   0  0  0  0  0  0  0  0  0  0  0  0
  140.5370   68.1690  228.4550 C   0  0  0  0  0  0  0  0  0  0  0  0
  139.8350   69.3470  228.3570 C   0  0  0  0  0  0  0  0  0  0  0  0
  139.7870   69.9900  227.1340 C   0  0  0  0  0  0  0  0  0  0  0  0
  135.0080   70.8750  225.0480 C   0  0  0  0  0  0  0  0  0  0  0  0
  133.9550   70.8690  225.9380 C   0  0  0  0  0  0  0  0  0  0  0  0
  133.3790   72.0570  226.3610 C   0  0  0  0  0  0  0  0  0  0  0  0
  133.8830   73.2650  225.8710 C   0  0  0  0  0  0  0  0  0  0  0  0
  133.3620   74.4770  226.2460 C   0  0  0  0  0  0  0  0  0  0  0  0
  133.8960   75.6510  225.7300 C   0  0  0  0  0  0  0  0  0  0  0  0
  133.2580   77.2250  226.1860 Cl  0  0  0  0  0  0  0  0  0  0  0  0
  134.9520   75.6480  224.8370 C   0  0  0  0  0  0  0  0  0  0  0  0
  135.4620   74.4190  224.4720 C   0  0  0  0  0  0  0  0  0  0  0  0
  134.9350   73.2390  224.9810 C   0  0  0  0  0  0  0  0  0  0  0  0
  135.4720   72.0740  224.5910 N   0  0  0  0  0  0  0  0  0  0  0  0
  137.0800   70.6400  223.4340 H   0  0  0  0  0  0  0  0  0  0  0  0
  136.8088   67.6162  223.6775 H   0  0  0  0  0  0  0  0  0  0  0  0
  137.3287   68.4859  222.1654 H   0  0  0  0  0  0  0  0  0  0  0  0
  140.8264   70.4684  222.1968 H   0  0  0  0  0  0  0  0  0  0  0  0
  139.2244   70.2452  221.6249 H   0  0  0  0  0  0  0  0  0  0  0  0
  139.9988   72.6383  222.9298 H   0  0  0  0  0  0  0  0  0  0  0  0
  137.5670   72.2720  223.8120 H   0  0  0  0  0  0  0  0  0  0  0  0
  140.2476   72.3073  225.2061 H   0  0  0  0  0  0  0  0  0  0  0  0
  138.6932   71.5352  225.3443 H   0  0  0  0  0  0  0  0  0  0  0  0
  141.4101   70.2535  224.5775 H   0  0  0  0  0  0  0  0  0  0  0  0
  141.6309   67.8979  225.2272 H   0  0  0  0  0  0  0  0  0  0  0  0
  141.7369   66.7088  227.4196 H   0  0  0  0  0  0  0  0  0  0  0  0
  140.5914   67.6377  229.4166 H   0  0  0  0  0  0  0  0  0  0  0  0
  139.3220   69.7693  229.2337 H   0  0  0  0  0  0  0  0  0  0  0  0
  139.2268   70.9332  227.0537 H   0  0  0  0  0  0  0  0  0  0  0  0
  133.5678   69.9115  226.3165 H   0  0  0  0  0  0  0  0  0  0  0  0
  132.5388   72.0490  227.0709 H   0  0  0  0  0  0  0  0  0  0  0  0
  132.5219   74.5194  226.9548 H   0  0  0  0  0  0  0  0  0  0  0  0
  135.3671   76.5842  224.4354 H   0  0  0  0  0  0  0  0  0  0  0  0
  136.3025   74.3728  223.7639 H   0  0  0  0  0  0  0  0  0  0  0  0
  1  2  2  0
  2  3  1  0
  3  4  1  0
  4  5  1  0
  5  6  2  0
  5  7  1  0
  7  8  1  0
  8  9  1  0
  9 10  1  0
  9 11  1  0
 11 12  1  0
 12 13  1  0
 13 14  2  0
 14 15  1  0
 15 16  2  0
 16 17  1  0
 17 18  2  0
  2 19  1  0
 19 20  2  0
 20 21  1  0
 21 22  2  0
 22 23  1  0
 23 24  2  0
 24 25  1  0
 24 26  1  0
 26 27  2  0
 27 28  1  0
 28 29  2  0
 12  7  1  0
 18 13  1  0
 29 19  1  0
 28 22  1  0
  3 30  1  0
  4 31  1  0
  4 32  1  0
  8 33  1  0
  8 34  1  0
  9 35  1  6
 10 36  1  0
 11 37  1  0
 11 38  1  0
 12 39  1  6
 14 40  1  0
 15 41  1  0
 16 42  1  0
 17 43  1  0
 18 44  1  0
 20 45  1  0
 21 46  1  0
 23 47  1  0
 26 48  1  0
 27 49  1  0
M  END
>  <meeko>  (5) 
{"free_energy": -7.71, "intermolecular_energy": -9.5, "internal_energy": -3.43, "cluster_size": 8, "cluster_id": 4, "rank_in_cluster": 4}

$$$$

     RDKit          3D

 49 52  0  0  0  0  0  0  0  0999 V2000
  135.2130   68.5290  225.0690 O   0  0  0  0  0  0  0  0  0  0  0  0
  135.6390   69.6400  224.6230 C   0  0  0  0  0  0  0  0  0  0  0  0
  136.7170   69.6940  223.7030 N   0  0  0  0  0  0  0  0  0  0  0  0
  137.3530   68.4990  223.2500 C   0  0  0  0  0  0  0  0  0  0  0  0
  138.7680   68.3870  223.7190 C   0  0  0  0  0  0  0  0  0  0  0  0
  139.1490   67.2440  224.0620 O   0  0  0  0  0  0  0  0  0  0  0  0
  139.5570   69.5570  223.7390 N   0  0  0  0  0  0  0  0  0  0  0  0
  139.7900   70.4800  222.5970 C   0  0  0  0  0  0  0  0  0  0  0  0
  139.4330   71.7740  223.3120 C   0  0  1  0  0  0  0  0  0  0  0  0
  138.0530   71.9520  223.0600 O   0  0  0  0  0  0  0  0  0  0  0  0
  139.6310   71.5230  224.8110 C   0  0  0  0  0  0  0  0  0  0  0  0
  140.3190   70.1900  224.8020 C   0  0  1  0  0  0  0  0  0  0  0  0
  140.3970   69.4780  226.0580 C   0  0  0  0  0  0  0  0  0  0  0  0
  141.0960   68.3000  226.1600 C   0  0  0  0  0  0  0  0  0  0  0  0
  141.1400   67.6310  227.3870 C   0  0  0  0  0  0  0  0  0  0  0  0
  140.4900   68.1430  228.5010 C   0  0  0  0  0  0  0  0  0  0  0  0
  139.7910   69.3230  228.4020 C   0  0  0  0  0  0  0  0  0  0  0  0
  139.7560   69.9720  227.1810 C   0  0  0  0  0  0  0  0  0  0  0  0
  135.0100   70.8800  225.0660 C   0  0  0  0  0  0  0  0  0  0  0  0
  133.9390   70.8630  225.9330 C   0  0  0  0  0  0  0  0  0  0  0  0
  133.3460   72.0450  226.3480 C   0  0  0  0  0  0  0  0  0  0  0  0
  133.8530   73.2590  225.8750 C   0  0  0  0  0  0  0  0  0  0  0  0
  133.3170   74.4660  226.2430 C   0  0  0  0  0  0  0  0  0  0  0  0
  133.8560   75.6460  225.7440 C   0  0  0  0  0  0  0  0  0  0  0  0
  133.1980   77.2140  226.1930 Cl  0  0  0  0  0  0  0  0  0  0  0  0
  134.9310   75.6530  224.8750 C   0  0  0  0  0  0  0  0  0  0  0  0
  135.4560   74.4290  224.5160 C   0  0  0  0  0  0  0  0  0  0  0  0
  134.9250   73.2430  225.0090 C   0  0  0  0  0  0  0  0  0  0  0  0
  135.4770   72.0830  224.6250 N   0  0  0  0  0  0  0  0  0  0  0  0
  137.0200   70.6580  223.3730 H   0  0  0  0  0  0  0  0  0  0  0  0
  136.7874   67.6342  223.6273 H   0  0  0  0  0  0  0  0  0  0  0  0
  137.3678   68.5260  222.1504 H   0  0  0  0  0  0  0  0  0  0  0  0
  140.8349   70.4658  222.2535 H   0  0  0  0  0  0  0  0  0  0  0  0
  139.2330   70.2635  221.6735 H   0  0  0  0  0  0  0  0  0  0  0  0
  140.0297   72.6404  222.9906 H   0  0  0  0  0  0  0  0  0  0  0  0
  137.5840   72.2720  223.8690 H   0  0  0  0  0  0  0  0  0  0  0  0
  140.2631   72.2985  225.2683 H   0  0  0  0  0  0  0  0  0  0  0  0
  138.6998   71.5435  225.3963 H   0  0  0  0  0  0  0  0  0  0  0  0
  141.4052   70.2362  224.6347 H   0  0  0  0  0  0  0  0  0  0  0  0
  141.6168   67.8864  225.2838 H   0  0  0  0  0  0  0  0  0  0  0  0
  141.6973   66.6863  227.4703 H   0  0  0  0  0  0  0  0  0  0  0  0
  140.5338   67.6065  229.4603 H   0  0  0  0  0  0  0  0  0  0  0  0
  139.2704   69.7421  229.2757 H   0  0  0  0  0  0  0  0  0  0  0  0
  139.1977   70.9163  227.0993 H   0  0  0  0  0  0  0  0  0  0  0  0
  133.5507   69.9013  226.2995 H   0  0  0  0  0  0  0  0  0  0  0  0
  132.4900   72.0282  227.0386 H   0  0  0  0  0  0  0  0  0  0  0  0
  132.4608   74.5006  226.9328 H   0  0  0  0  0  0  0  0  0  0  0  0
  135.3494   76.5934  224.4868 H   0  0  0  0  0  0  0  0  0  0  0  0
  136.3118   74.3908  223.8259 H   0  0  0  0  0  0  0  0  0  0  0  0
  1  2  2  0
  2  3  1  0
  3  4  1  0
  4  5  1  0
  5  6  2  0
  5  7  1  0
  7  8  1  0
  8  9  1  0
  9 10  1  0
  9 11  1  0
 11 12  1  0
 12 13  1  0
 13 14  2  0
 14 15  1  0
 15 16  2  0
 16 17  1  0
 17 18  2  0
  2 19  1  0
 19 20  2  0
 20 21  1  0
 21 22  2  0
 22 23  1  0
 23 24  2  0
 24 25  1  0
 24 26  1  0
 26 27  2  0
 27 28  1  0
 28 29  2  0
 12  7  1  0
 18 13  1  0
 29 19  1  0
 28 22  1  0
  3 30  1  0
  4 31  1  0
  4 32  1  0
  8 33  1  0
  8 34  1  0
  9 35  1  6
 10 36  1  0
 11 37  1  0
 11 38  1  0
 12 39  1  6
 14 40  1  0
 15 41  1  0
 16 42  1  0
 17 43  1  0
 18 44  1  0
 20 45  1  0
 21 46  1  0
 23 47  1  0
 26 48  1  0
 27 49  1  0
M  END
>  <meeko>  (6) 
{"free_energy": -7.67, "intermolecular_energy": -9.46, "internal_energy": -3.43, "cluster_size": 8, "cluster_id": 4, "rank_in_cluster": 5}

$$$$

     RDKit          3D

 49 52  0  0  0  0  0  0  0  0999 V2000
  140.6850   72.0590  219.9140 O   0  0  0  0  0  0  0  0  0  0  0  0
  140.9300   72.5120  221.0750 C   0  0  0  0  0  0  0  0  0  0  0  0
  141.5680   73.7660  221.2500 N   0  0  0  0  0  0  0  0  0  0  0  0
  141.9510   74.5570  220.1250 C   0  0  0  0  0  0  0  0  0  0  0  0
  141.6200   76.0040  220.2990 C   0  0  0  0  0  0  0  0  0  0  0  0
  142.5310   76.8170  220.0150 O   0  0  0  0  0  0  0  0  0  0  0  0
  140.3310   76.3420  220.7610 N   0  0  0  0  0  0  0  0  0  0  0  0
  139.0710   75.6120  220.4640 C   0  0  0  0  0  0  0  0  0  0  0  0
  138.5820   75.4700  221.8980 C   0  0  1  0  0  0  0  0  0  0  0  0
  139.0970   74.2260  222.3290 O   0  0  0  0  0  0  0  0  0  0  0  0
  139.2490   76.5860  222.7090 C   0  0  0  0  0  0  0  0  0  0  0  0
  139.8650   77.4170  221.6210 C   0  0  1  0  0  0  0  0  0  0  0  0
  140.8440   78.4030  222.0180 C   0  0  0  0  0  0  0  0  0  0  0  0
  141.3580   78.4170  223.2930 C   0  0  0  0  0  0  0  0  0  0  0  0
  142.2940   79.3930  223.6460 C   0  0  0  0  0  0  0  0  0  0  0  0
  142.7110   80.3450  222.7270 C   0  0  0  0  0  0  0  0  0  0  0  0
  142.1990   80.3340  221.4510 C   0  0  0  0  0  0  0  0  0  0  0  0
  141.2740   79.3620  221.1170 C   0  0  0  0  0  0  0  0  0  0  0  0
  140.5510   71.7290  222.2460 C   0  0  0  0  0  0  0  0  0  0  0  0
  139.8000   70.5800  222.1200 C   0  0  0  0  0  0  0  0  0  0  0  0
  139.4430   69.8420  223.2380 C   0  0  0  0  0  0  0  0  0  0  0  0
  139.8580   70.2810  224.4990 C   0  0  0  0  0  0  0  0  0  0  0  0
  139.5420   69.6010  225.6470 C   0  0  0  0  0  0  0  0  0  0  0  0
  139.9770   70.0780  226.8780 C   0  0  0  0  0  0  0  0  0  0  0  0
  139.5940   69.2360  228.3730 Cl  0  0  0  0  0  0  0  0  0  0  0  0
  140.7300   71.2310  226.9940 C   0  0  0  0  0  0  0  0  0  0  0  0
  141.0380   71.9010  225.8280 C   0  0  0  0  0  0  0  0  0  0  0  0
  140.6080   71.4340  224.5920 C   0  0  0  0  0  0  0  0  0  0  0  0
  140.9370   72.1260  223.4920 N   0  0  0  0  0  0  0  0  0  0  0  0
  141.7410   74.0830  222.2500 H   0  0  0  0  0  0  0  0  0  0  0  0
  143.0369   74.4593  219.9792 H   0  0  0  0  0  0  0  0  0  0  0  0
  141.3894   74.1897  219.2534 H   0  0  0  0  0  0  0  0  0  0  0  0
  138.3814   76.2023  219.8428 H   0  0  0  0  0  0  0  0  0  0  0  0
  139.1712   74.6801  219.8882 H   0  0  0  0  0  0  0  0  0  0  0  0
  137.4886   75.5269  222.0036 H   0  0  0  0  0  0  0  0  0  0  0  0
  139.5720   74.3190  223.1910 H   0  0  0  0  0  0  0  0  0  0  0  0
  138.5094   77.1617  223.2848 H   0  0  0  0  0  0  0  0  0  0  0  0
  139.9669   76.2271  223.4611 H   0  0  0  0  0  0  0  0  0  0  0  0
  139.1777   78.1313  221.1442 H   0  0  0  0  0  0  0  0  0  0  0  0
  141.0352   77.6662  224.0293 H   0  0  0  0  0  0  0  0  0  0  0  0
  142.7055   79.4065  224.6660 H   0  0  0  0  0  0  0  0  0  0  0  0
  143.4493   81.1066  223.0184 H   0  0  0  0  0  0  0  0  0  0  0  0
  142.5186   81.0828  220.7113 H   0  0  0  0  0  0  0  0  0  0  0  0
  140.8641   79.3503  220.0963 H   0  0  0  0  0  0  0  0  0  0  0  0
  139.4807   70.2452  221.1220 H   0  0  0  0  0  0  0  0  0  0  0  0
  138.8429   68.9259  223.1347 H   0  0  0  0  0  0  0  0  0  0  0  0
  138.9448   68.6788  225.5938 H   0  0  0  0  0  0  0  0  0  0  0  0
  141.0691   71.5987  227.9737 H   0  0  0  0  0  0  0  0  0  0  0  0
  141.6357   72.8231  225.8778 H   0  0  0  0  0  0  0  0  0  0  0  0
  1  2  2  0
  2  3  1  0
  3  4  1  0
  4  5  1  0
  5  6  2  0
  5  7  1  0
  7  8  1  0
  8  9  1  0
  9 10  1  0
  9 11  1  0
 11 12  1  0
 12 13  1  0
 13 14  2  0
 14 15  1  0
 15 16  2  0
 16 17  1  0
 17 18  2  0
  2 19  1  0
 19 20  2  0
 20 21  1  0
 21 22  2  0
 22 23  1  0
 23 24  2  0
 24 25  1  0
 24 26  1  0
 26 27  2  0
 27 28  1  0
 28 29  2  0
 12  7  1  0
 18 13  1  0
 29 19  1  0
 28 22  1  0
  3 30  1  0
  4 31  1  0
  4 32  1  0
  8 33  1  0
  8 34  1  0
  9 35  1  6
 10 36  1  0
 11 37  1  0
 11 38  1  0
 12 39  1  6
 14 40  1  0
 15 41  1  0
 16 42  1  0
 17 43  1  0
 18 44  1  0
 20 45  1  0
 21 46  1  0
 23 47  1  0
 26 48  1  0
 27 49  1  0
M  END
>  <meeko>  (7) 
{"free_energy": -7.89, "intermolecular_energy": -9.68, "internal_energy": -2.36, "cluster_size": 3, "cluster_id": 2, "rank_in_cluster": 1}

$$$$

     RDKit          3D

 49 52  0  0  0  0  0  0  0  0999 V2000
  135.0860   68.5210  224.9660 O   0  0  0  0  0  0  0  0  0  0  0  0
  135.5990   69.6290  224.6150 C   0  0  0  0  0  0  0  0  0  0  0  0
  136.7440   69.6720  223.7800 N   0  0  0  0  0  0  0  0  0  0  0  0
  137.3520   68.4690  223.3090 C   0  0  0  0  0  0  0  0  0  0  0  0
  138.7940   68.3640  223.6910 C   0  0  0  0  0  0  0  0  0  0  0  0
  139.2090   67.2160  223.9730 O   0  0  0  0  0  0  0  0  0  0  0  0
  139.5670   69.5450  223.7050 N   0  0  0  0  0  0  0  0  0  0  0  0
  139.7840   70.4670  222.5600 C   0  0  0  0  0  0  0  0  0  0  0  0
  139.4100   71.7590  223.2720 C   0  0  1  0  0  0  0  0  0  0  0  0
  138.0270   71.9160  223.0230 O   0  0  0  0  0  0  0  0  0  0  0  0
  139.6150   71.5150  224.7720 C   0  0  0  0  0  0  0  0  0  0  0  0
  140.3220   70.1910  224.7650 C   0  0  1  0  0  0  0  0  0  0  0  0
  140.4130   69.4850  226.0230 C   0  0  0  0  0  0  0  0  0  0  0  0
  141.1160   68.3090  226.1240 C   0  0  0  0  0  0  0  0  0  0  0  0
  141.1720   67.6450  227.3530 C   0  0  0  0  0  0  0  0  0  0  0  0
  140.5300   68.1600  228.4700 C   0  0  0  0  0  0  0  0  0  0  0  0
  139.8260   69.3380  228.3720 C   0  0  0  0  0  0  0  0  0  0  0  0
  139.7790   69.9810  227.1490 C   0  0  0  0  0  0  0  0  0  0  0  0
  135.0020   70.8760  225.0800 C   0  0  0  0  0  0  0  0  0  0  0  0
  133.9690   70.8720  225.9930 C   0  0  0  0  0  0  0  0  0  0  0  0
  133.4060   72.0620  226.4280 C   0  0  0  0  0  0  0  0  0  0  0  0
  133.9030   73.2690  225.9290 C   0  0  0  0  0  0  0  0  0  0  0  0
  133.3950   74.4820  226.3150 C   0  0  0  0  0  0  0  0  0  0  0  0
  133.9230   75.6550  225.7890 C   0  0  0  0  0  0  0  0  0  0  0  0
  133.3000   77.2310  226.2590 Cl  0  0  0  0  0  0  0  0  0  0  0  0
  134.9600   75.6490  224.8740 C   0  0  0  0  0  0  0  0  0  0  0  0
  135.4570   74.4190  224.4980 C   0  0  0  0  0  0  0  0  0  0  0  0
  134.9370   73.2400  225.0170 C   0  0  0  0  0  0  0  0  0  0  0  0
  135.4610   72.0730  224.6140 N   0  0  0  0  0  0  0  0  0  0  0  0
  137.1200   70.6340  223.5270 H   0  0  0  0  0  0  0  0  0  0  0  0
  136.8115   67.6111  223.7354 H   0  0  0  0  0  0  0  0  0  0  0  0
  137.2988   68.4776  222.2103 H   0  0  0  0  0  0  0  0  0  0  0  0
  140.8282   70.4666  222.2141 H   0  0  0  0  0  0  0  0  0  0  0  0
  139.2280   70.2395  221.6385 H   0  0  0  0  0  0  0  0  0  0  0  0
  139.9933   72.6330  222.9464 H   0  0  0  0  0  0  0  0  0  0  0  0
  137.5620   72.2700  223.8200 H   0  0  0  0  0  0  0  0  0  0  0  0
  140.2372   72.3005  225.2257 H   0  0  0  0  0  0  0  0  0  0  0  0
  138.6850   71.5241  225.3594 H   0  0  0  0  0  0  0  0  0  0  0  0
  141.4071   70.2506  224.5949 H   0  0  0  0  0  0  0  0  0  0  0  0
  141.6306   67.8933  225.2451 H   0  0  0  0  0  0  0  0  0  0  0  0
  141.7323   66.7020  227.4355 H   0  0  0  0  0  0  0  0  0  0  0  0
  140.5837   67.6279  229.4313 H   0  0  0  0  0  0  0  0  0  0  0  0
  139.3114   69.7593  229.2482 H   0  0  0  0  0  0  0  0  0  0  0  0
  139.2163   70.9227  227.0677 H   0  0  0  0  0  0  0  0  0  0  0  0
  133.5878   69.9155  226.3800 H   0  0  0  0  0  0  0  0  0  0  0  0
  132.5805   72.0561  227.1550 H   0  0  0  0  0  0  0  0  0  0  0  0
  132.5697   74.5271  227.0408 H   0  0  0  0  0  0  0  0  0  0  0  0
  135.3701   76.5839  224.4644 H   0  0  0  0  0  0  0  0  0  0  0  0
  136.2821   74.3703  223.7722 H   0  0  0  0  0  0  0  0  0  0  0  0
  1  2  2  0
  2  3  1  0
  3  4  1  0
  4  5  1  0
  5  6  2  0
  5  7  1  0
  7  8  1  0
  8  9  1  0
  9 10  1  0
  9 11  1  0
 11 12  1  0
 12 13  1  0
 13 14  2  0
 14 15  1  0
 15 16  2  0
 16 17  1  0
 17 18  2  0
  2 19  1  0
 19 20  2  0
 20 21  1  0
 21 22  2  0
 22 23  1  0
 23 24  2  0
 24 25  1  0
 24 26  1  0
 26 27  2  0
 27 28  1  0
 28 29  2  0
 12  7  1  0
 18 13  1  0
 29 19  1  0
 28 22  1  0
  3 30  1  0
  4 31  1  0
  4 32  1  0
  8 33  1  0
  8 34  1  0
  9 35  1  6
 10 36  1  0
 11 37  1  0
 11 38  1  0
 12 39  1  6
 14 40  1  0
 15 41  1  0
 16 42  1  0
 17 43  1  0
 18 44  1  0
 20 45  1  0
 21 46  1  0
 23 47  1  0
 26 48  1  0
 27 49  1  0
M  END
>  <meeko>  (8) 
{"free_energy": -7.72, "intermolecular_energy": -9.51, "internal_energy": -3.4, "cluster_size": 8, "cluster_id": 4, "rank_in_cluster": 3}

$$$$

     RDKit          3D

 49 52  0  0  0  0  0  0  0  0999 V2000
  135.1910   68.5370  225.0850 O   0  0  0  0  0  0  0  0  0  0  0  0
  135.6300   69.6410  224.6360 C   0  0  0  0  0  0  0  0  0  0  0  0
  136.7200   69.6790  223.7300 N   0  0  0  0  0  0  0  0  0  0  0  0
  137.3540   68.4760  223.2950 C   0  0  0  0  0  0  0  0  0  0  0  0
  138.7750   68.3780  223.7480 C   0  0  0  0  0  0  0  0  0  0  0  0
  139.1640   67.2420  224.1080 O   0  0  0  0  0  0  0  0  0  0  0  0
  139.5600   69.5500  223.7370 N   0  0  0  0  0  0  0  0  0  0  0  0
  139.7830   70.4480  222.5740 C   0  0  0  0  0  0  0  0  0  0  0  0
  139.4250   71.7570  223.2620 C   0  0  1  0  0  0  0  0  0  0  0  0
  138.0430   71.9240  223.0150 O   0  0  0  0  0  0  0  0  0  0  0  0
  139.6340   71.5400  224.7650 C   0  0  0  0  0  0  0  0  0  0  0  0
  140.3260   70.2090  224.7820 C   0  0  1  0  0  0  0  0  0  0  0  0
  140.4150   69.5260  226.0520 C   0  0  0  0  0  0  0  0  0  0  0  0
  139.6940   69.9580  227.1390 C   0  0  0  0  0  0  0  0  0  0  0  0
  139.8140   69.2810  228.3560 C   0  0  0  0  0  0  0  0  0  0  0  0
  140.6490   68.1800  228.4800 C   0  0  0  0  0  0  0  0  0  0  0  0
  141.3710   67.7450  227.3930 C   0  0  0  0  0  0  0  0  0  0  0  0
  141.2430   68.4260  226.1970 C   0  0  0  0  0  0  0  0  0  0  0  0
  135.0050   70.8890  225.0600 C   0  0  0  0  0  0  0  0  0  0  0  0
  133.9340   70.8880  225.9280 C   0  0  0  0  0  0  0  0  0  0  0  0
  133.3450   72.0780  226.3260 C   0  0  0  0  0  0  0  0  0  0  0  0
  133.8540   73.2830  225.8330 C   0  0  0  0  0  0  0  0  0  0  0  0
  133.3210   74.4970  226.1830 C   0  0  0  0  0  0  0  0  0  0  0  0
  133.8620   75.6670  225.6660 C   0  0  0  0  0  0  0  0  0  0  0  0
  133.2090   77.2440  226.0910 Cl  0  0  0  0  0  0  0  0  0  0  0  0
  134.9360   75.6590  224.7950 C   0  0  0  0  0  0  0  0  0  0  0  0
  135.4590   74.4280  224.4550 C   0  0  0  0  0  0  0  0  0  0  0  0
  134.9250   73.2510  224.9660 C   0  0  0  0  0  0  0  0  0  0  0  0
  135.4740   72.0840  224.6000 N   0  0  0  0  0  0  0  0  0  0  0  0
  137.0350   70.6380  223.3950 H   0  0  0  0  0  0  0  0  0  0  0  0
  136.7959   67.6181  223.6982 H   0  0  0  0  0  0  0  0  0  0  0  0
  137.3548   68.4792  222.1950 H   0  0  0  0  0  0  0  0  0  0  0  0
  140.8260   70.4300  222.2251 H   0  0  0  0  0  0  0  0  0  0  0  0
  139.2216   70.2089  221.6588 H   0  0  0  0  0  0  0  0  0  0  0  0
  140.0157   72.6186  222.9173 H   0  0  0  0  0  0  0  0  0  0  0  0
  137.5800   72.2680  223.8180 H   0  0  0  0  0  0  0  0  0  0  0  0
  140.2668   72.3274  225.2005 H   0  0  0  0  0  0  0  0  0  0  0  0
  138.7066   71.5707  225.3557 H   0  0  0  0  0  0  0  0  0  0  0  0
  141.4112   70.2545  224.6077 H   0  0  0  0  0  0  0  0  0  0  0  0
  139.0280   70.8292  227.0522 H   0  0  0  0  0  0  0  0  0  0  0  0
  139.2384   69.6260  229.2276 H   0  0  0  0  0  0  0  0  0  0  0  0
  140.7334   67.6569  229.4440 H   0  0  0  0  0  0  0  0  0  0  0  0
  142.0366   66.8730  227.4739 H   0  0  0  0  0  0  0  0  0  0  0  0
  141.8211   68.0807  225.3272 H   0  0  0  0  0  0  0  0  0  0  0  0
  133.5428   69.9330  226.3087 H   0  0  0  0  0  0  0  0  0  0  0  0
  132.4906   72.0742  227.0188 H   0  0  0  0  0  0  0  0  0  0  0  0
  132.4655   74.5441  226.8728 H   0  0  0  0  0  0  0  0  0  0  0  0
  135.3549   76.5925  224.3911 H   0  0  0  0  0  0  0  0  0  0  0  0
  136.3151   74.3774  223.7662 H   0  0  0  0  0  0  0  0  0  0  0  0
  1  2  2  0
  2  3  1  0
  3  4  1  0
  4  5  1  0
  5  6  2  0
  5  7  1  0
  7  8  1  0
  8  9  1  0
  9 10  1  0
  9 11  1  0
 11 12  1  0
 12 13  1  0
 13 14  2  0
 14 15  1  0
 15 16  2  0
 16 17  1  0
 17 18  2  0
  2 19  1  0
 19 20  2  0
 20 21  1  0
 21 22  2  0
 22 23  1  0
 23 24  2  0
 24 25  1  0
 24 26  1  0
 26 27  2  0
 27 28  1  0
 28 29  2  0
 12  7  1  0
 18 13  1  0
 29 19  1  0
 28 22  1  0
  3 30  1  0
  4 31  1  0
  4 32  1  0
  8 33  1  0
  8 34  1  0
  9 35  1  6
 10 36  1  0
 11 37  1  0
 11 38  1  0
 12 39  1  6
 14 40  1  0
 15 41  1  0
 16 42  1  0
 17 43  1  0
 18 44  1  0
 20 45  1  0
 21 46  1  0
 23 47  1  0
 26 48  1  0
 27 49  1  0
M  END
>  <meeko>  (9) 
{"free_energy": -7.62, "intermolecular_energy": -9.41, "internal_energy": -3.46, "cluster_size": 8, "cluster_id": 4, "rank_in_cluster": 8}

$$$$

     RDKit          3D

 49 52  0  0  0  0  0  0  0  0999 V2000
  135.0730   68.5220  225.0080 O   0  0  0  0  0  0  0  0  0  0  0  0
  135.5790   69.6350  224.6600 C   0  0  0  0  0  0  0  0  0  0  0  0
  136.7290   69.6870  223.8330 N   0  0  0  0  0  0  0  0  0  0  0  0
  137.3500   68.4900  223.3650 C   0  0  0  0  0  0  0  0  0  0  0  0
  138.7840   68.3870  223.7770 C   0  0  0  0  0  0  0  0  0  0  0  0
  139.1840   67.2460  224.1060 O   0  0  0  0  0  0  0  0  0  0  0  0
  139.5670   69.5600  223.7630 N   0  0  0  0  0  0  0  0  0  0  0  0
  139.7820   70.4600  222.6000 C   0  0  0  0  0  0  0  0  0  0  0  0
  139.4250   71.7680  223.2930 C   0  0  1  0  0  0  0  0  0  0  0  0
  138.0420   71.9330  223.0520 O   0  0  0  0  0  0  0  0  0  0  0  0
  139.6420   71.5490  224.7940 C   0  0  0  0  0  0  0  0  0  0  0  0
  140.3370   70.2190  224.8050 C   0  0  1  0  0  0  0  0  0  0  0  0
  140.4340   69.5340  226.0740 C   0  0  0  0  0  0  0  0  0  0  0  0
  139.7020   69.9510  227.1590 C   0  0  0  0  0  0  0  0  0  0  0  0
  139.8300   69.2730  228.3760 C   0  0  0  0  0  0  0  0  0  0  0  0
  140.6830   68.1860  228.4990 C   0  0  0  0  0  0  0  0  0  0  0  0
  141.4160   67.7660  227.4130 C   0  0  0  0  0  0  0  0  0  0  0  0
  141.2790   68.4470  226.2180 C   0  0  0  0  0  0  0  0  0  0  0  0
  134.9680   70.8770  225.1200 C   0  0  0  0  0  0  0  0  0  0  0  0
  133.9170   70.8640  226.0110 C   0  0  0  0  0  0  0  0  0  0  0  0
  133.3410   72.0490  226.4430 C   0  0  0  0  0  0  0  0  0  0  0  0
  133.8440   73.2610  225.9610 C   0  0  0  0  0  0  0  0  0  0  0  0
  133.3240   74.4700  226.3450 C   0  0  0  0  0  0  0  0  0  0  0  0
  133.8590   75.6480  225.8370 C   0  0  0  0  0  0  0  0  0  0  0  0
  133.2210   77.2180  226.3040 Cl  0  0  0  0  0  0  0  0  0  0  0  0
  134.9140   75.6510  224.9430 C   0  0  0  0  0  0  0  0  0  0  0  0
  135.4230   74.4250  224.5700 C   0  0  0  0  0  0  0  0  0  0  0  0
  134.8960   73.2410  225.0710 C   0  0  0  0  0  0  0  0  0  0  0  0
  135.4320   72.0780  224.6710 N   0  0  0  0  0  0  0  0  0  0  0  0
  137.0980   70.6520  223.5810 H   0  0  0  0  0  0  0  0  0  0  0  0
  136.8034   67.6269  223.7728 H   0  0  0  0  0  0  0  0  0  0  0  0
  137.3196   68.5068  222.2656 H   0  0  0  0  0  0  0  0  0  0  0  0
  140.8231   70.4445  222.2453 H   0  0  0  0  0  0  0  0  0  0  0  0
  139.2162   70.2213  221.6874 H   0  0  0  0  0  0  0  0  0  0  0  0
  140.0126   72.6315  222.9477 H   0  0  0  0  0  0  0  0  0  0  0  0
  137.5810   72.2690  223.8600 H   0  0  0  0  0  0  0  0  0  0  0  0
  140.2754   72.3369  225.2276 H   0  0  0  0  0  0  0  0  0  0  0  0
  138.7176   71.5769  225.3895 H   0  0  0  0  0  0  0  0  0  0  0  0
  141.4211   70.2671  224.6248 H   0  0  0  0  0  0  0  0  0  0  0  0
  139.0211   70.8105  227.0717 H   0  0  0  0  0  0  0  0  0  0  0  0
  139.2465   69.6063  229.2469 H   0  0  0  0  0  0  0  0  0  0  0  0
  140.7731   67.6615  229.4617 H   0  0  0  0  0  0  0  0  0  0  0  0
  142.0970   66.9060  227.4941 H   0  0  0  0  0  0  0  0  0  0  0  0
  141.8637   68.1125  225.3484 H   0  0  0  0  0  0  0  0  0  0  0  0
  133.5310   69.9036  226.3834 H   0  0  0  0  0  0  0  0  0  0  0  0
  132.5015   72.0356  227.1537 H   0  0  0  0  0  0  0  0  0  0  0  0
  132.4842   74.5078  227.0545 H   0  0  0  0  0  0  0  0  0  0  0  0
  135.3287   76.5897  224.5470 H   0  0  0  0  0  0  0  0  0  0  0  0
  136.2634   74.3835  223.8614 H   0  0  0  0  0  0  0  0  0  0  0  0
  1  2  2  0
  2  3  1  0
  3  4  1  0
  4  5  1  0
  5  6  2  0
  5  7  1  0
  7  8  1  0
  8  9  1  0
  9 10  1  0
  9 11  1  0
 11 12  1  0
 12 13  1  0
 13 14  2  0
 14 15  1  0
 15 16  2  0
 16 17  1  0
 17 18  2  0
  2 19  1  0
 19 20  2  0
 20 21  1  0
 21 22  2  0
 22 23  1  0
 23 24  2  0
 24 25  1  0
 24 26  1  0
 26 27  2  0
 27 28  1  0
 28 29  2  0
 12  7  1  0
 18 13  1  0
 29 19  1  0
 28 22  1  0
  3 30  1  0
  4 31  1  0
  4 32  1  0
  8 33  1  0
  8 34  1  0
  9 35  1  6
 10 36  1  0
 11 37  1  0
 11 38  1  0
 12 39  1  6
 14 40  1  0
 15 41  1  0
 16 42  1  0
 17 43  1  0
 18 44  1  0
 20 45  1  0
 21 46  1  0
 23 47  1  0
 26 48  1  0
 27 49  1  0
M  END
>  <meeko>  (10) 
{"free_energy": -7.73, "intermolecular_energy": -9.52, "internal_energy": -3.36, "cluster_size": 8, "cluster_id": 4, "rank_in_cluster": 2}

$$$$

     RDKit          3D

 49 52  0  0  0  0  0  0  0  0999 V2000
  141.0510   71.8520  219.8070 O   0  0  0  0  0  0  0  0  0  0  0  0
  141.1040   72.3920  220.9560 C   0  0  0  0  0  0  0  0  0  0  0  0
  141.5580   73.7250  221.1160 N   0  0  0  0  0  0  0  0  0  0  0  0
  141.9670   74.5000  219.9890 C   0  0  0  0  0  0  0  0  0  0  0  0
  141.5390   75.9290  220.0870 C   0  0  0  0  0  0  0  0  0  0  0  0
  142.3390   76.7790  219.6290 O   0  0  0  0  0  0  0  0  0  0  0  0
  140.2880   76.2110  220.6750 N   0  0  0  0  0  0  0  0  0  0  0  0
  139.0380   75.4260  220.5010 C   0  0  0  0  0  0  0  0  0  0  0  0
  138.7000   75.2630  221.9760 C   0  0  1  0  0  0  0  0  0  0  0  0
  139.3090   74.0430  222.3500 O   0  0  0  0  0  0  0  0  0  0  0  0
  139.3940   76.4090  222.7210 C   0  0  0  0  0  0  0  0  0  0  0  0
  139.8630   77.2650  221.5810 C   0  0  1  0  0  0  0  0  0  0  0  0
  140.8330   78.2940  221.8820 C   0  0  0  0  0  0  0  0  0  0  0  0
  141.1780   79.2360  220.9440 C   0  0  0  0  0  0  0  0  0  0  0  0
  142.1300   80.2090  221.2660 C   0  0  0  0  0  0  0  0  0  0  0  0
  142.7260   80.2360  222.5180 C   0  0  0  0  0  0  0  0  0  0  0  0
  142.3810   79.2940  223.4590 C   0  0  0  0  0  0  0  0  0  0  0  0
  141.4400   78.3370  223.1250 C   0  0  0  0  0  0  0  0  0  0  0  0
  140.6930   71.6270  222.1280 C   0  0  0  0  0  0  0  0  0  0  0  0
  139.9440   70.4770  222.0000 C   0  0  0  0  0  0  0  0  0  0  0  0
  139.5560   69.7570  223.1190 C   0  0  0  0  0  0  0  0  0  0  0  0
  139.9380   70.2140  224.3830 C   0  0  0  0  0  0  0  0  0  0  0  0
  139.5910   69.5530  225.5330 C   0  0  0  0  0  0  0  0  0  0  0  0
  139.9930   70.0480  226.7680 C   0  0  0  0  0  0  0  0  0  0  0  0
  139.5690   69.2300  228.2650 Cl  0  0  0  0  0  0  0  0  0  0  0  0
  140.7440   71.2030  226.8870 C   0  0  0  0  0  0  0  0  0  0  0  0
  141.0840   71.8540  225.7190 C   0  0  0  0  0  0  0  0  0  0  0  0
  140.6860   71.3680  224.4790 C   0  0  0  0  0  0  0  0  0  0  0  0
  141.0460   72.0430  223.3780 N   0  0  0  0  0  0  0  0  0  0  0  0
  141.5760   74.1120  222.1060 H   0  0  0  0  0  0  0  0  0  0  0  0
  143.0641   74.4651  219.9171 H   0  0  0  0  0  0  0  0  0  0  0  0
  141.4876   74.0695  219.0975 H   0  0  0  0  0  0  0  0  0  0  0  0
  138.2650   75.9851  219.9534 H   0  0  0  0  0  0  0  0  0  0  0  0
  139.1215   74.4993  219.9143 H   0  0  0  0  0  0  0  0  0  0  0  0
  137.6209   75.2710  222.1894 H   0  0  0  0  0  0  0  0  0  0  0  0
  139.5540   74.0500  223.3070 H   0  0  0  0  0  0  0  0  0  0  0  0
  138.6899   76.9522  223.3684 H   0  0  0  0  0  0  0  0  0  0  0  0
  140.1976   76.0829  223.3977 H   0  0  0  0  0  0  0  0  0  0  0  0
  139.1012   77.9484  221.1778 H   0  0  0  0  0  0  0  0  0  0  0  0
  140.7100   79.2254  219.9486 H   0  0  0  0  0  0  0  0  0  0  0  0
  142.4098   80.9632  220.5158 H   0  0  0  0  0  0  0  0  0  0  0  0
  143.4720   81.0081  222.7576 H   0  0  0  0  0  0  0  0  0  0  0  0
  142.8440   79.3016  224.4568 H   0  0  0  0  0  0  0  0  0  0  0  0
  141.1637   77.5817  223.8755 H   0  0  0  0  0  0  0  0  0  0  0  0
  139.6511   70.1269  220.9992 H   0  0  0  0  0  0  0  0  0  0  0  0
  138.9569   68.8405  223.0137 H   0  0  0  0  0  0  0  0  0  0  0  0
  138.9942   68.6306  225.4782 H   0  0  0  0  0  0  0  0  0  0  0  0
  141.0566   71.5859  227.8697 H   0  0  0  0  0  0  0  0  0  0  0  0
  141.6819   72.7759  225.7701 H   0  0  0  0  0  0  0  0  0  0  0  0
  1  2  2  0
  2  3  1  0
  3  4  1  0
  4  5  1  0
  5  6  2  0
  5  7  1  0
  7  8  1  0
  8  9  1  0
  9 10  1  0
  9 11  1  0
 11 12  1  0
 12 13  1  0
 13 14  2  0
 14 15  1  0
 15 16  2  0
 16 17  1  0
 17 18  2  0
  2 19  1  0
 19 20  2  0
 20 21  1  0
 21 22  2  0
 22 23  1  0
 23 24  2  0
 24 25  1  0
 24 26  1  0
 26 27  2  0
 27 28  1  0
 28 29  2  0
 12  7  1  0
 18 13  1  0
 29 19  1  0
 28 22  1  0
  3 30  1  0
  4 31  1  0
  4 32  1  0
  8 33  1  0
  8 34  1  0
  9 35  1  6
 10 36  1  0
 11 37  1  0
 11 38  1  0
 12 39  1  6
 14 40  1  0
 15 41  1  0
 16 42  1  0
 17 43  1  0
 18 44  1  0
 20 45  1  0
 21 46  1  0
 23 47  1  0
 26 48  1  0
 27 49  1  0
M  END
>  <meeko>  (11) 
{"free_energy": -7.72, "intermolecular_energy": -9.51, "internal_energy": -2.64, "cluster_size": 3, "cluster_id": 2, "rank_in_cluster": 3}

$$$$

     RDKit          3D

 49 52  0  0  0  0  0  0  0  0999 V2000
  135.2090   74.7910  222.7500 O   0  0  0  0  0  0  0  0  0  0  0  0
  136.4800   74.7840  222.7260 C   0  0  0  0  0  0  0  0  0  0  0  0
  137.2030   73.5640  222.7170 N   0  0  0  0  0  0  0  0  0  0  0  0
  136.5230   72.3090  222.7330 C   0  0  0  0  0  0  0  0  0  0  0  0
  137.3920   71.1890  223.2090 C   0  0  0  0  0  0  0  0  0  0  0  0
  136.8470   70.3450  223.9560 O   0  0  0  0  0  0  0  0  0  0  0  0
  138.7390   71.1670  222.7880 N   0  0  0  0  0  0  0  0  0  0  0  0
  139.2570   71.6310  221.4750 C   0  0  0  0  0  0  0  0  0  0  0  0
  140.3640   72.5310  222.0060 C   0  0  1  0  0  0  0  0  0  0  0  0
  139.7630   73.8060  222.1200 O   0  0  0  0  0  0  0  0  0  0  0  0
  140.7140   72.0250  223.4090 C   0  0  0  0  0  0  0  0  0  0  0  0
  139.9520   70.7320  223.4590 C   0  0  1  0  0  0  0  0  0  0  0  0
  139.7930   70.1080  224.7530 C   0  0  0  0  0  0  0  0  0  0  0  0
  139.3290   68.8200  224.8640 C   0  0  0  0  0  0  0  0  0  0  0  0
  139.1750   68.2520  226.1330 C   0  0  0  0  0  0  0  0  0  0  0  0
  139.4850   68.9720  227.2780 C   0  0  0  0  0  0  0  0  0  0  0  0
  139.9500   70.2620  227.1690 C   0  0  0  0  0  0  0  0  0  0  0  0
  140.0960   70.8090  225.9080 C   0  0  0  0  0  0  0  0  0  0  0  0
  137.2050   76.0490  222.7080 C   0  0  0  0  0  0  0  0  0  0  0  0
  136.5330   77.2530  222.7050 C   0  0  0  0  0  0  0  0  0  0  0  0
  137.2300   78.4510  222.6870 C   0  0  0  0  0  0  0  0  0  0  0  0
  138.6270   78.4210  222.6740 C   0  0  0  0  0  0  0  0  0  0  0  0
  139.3800   79.5670  222.6560 C   0  0  0  0  0  0  0  0  0  0  0  0
  140.7680   79.4850  222.6420 C   0  0  0  0  0  0  0  0  0  0  0  0
  141.7690   80.9300  222.6200 Cl  0  0  0  0  0  0  0  0  0  0  0  0
  141.4330   78.2730  222.6450 C   0  0  0  0  0  0  0  0  0  0  0  0
  140.6580   77.1320  222.6630 C   0  0  0  0  0  0  0  0  0  0  0  0
  139.2700   77.2020  222.6770 C   0  0  0  0  0  0  0  0  0  0  0  0
  138.5680   76.0590  222.6940 N   0  0  0  0  0  0  0  0  0  0  0  0
  138.2640   73.6340  222.6960 H   0  0  0  0  0  0  0  0  0  0  0  0
  135.6531   72.3883  223.4016 H   0  0  0  0  0  0  0  0  0  0  0  0
  136.2219   72.0805  221.7000 H   0  0  0  0  0  0  0  0  0  0  0  0
  139.6467   70.8045  220.8626 H   0  0  0  0  0  0  0  0  0  0  0  0
  138.5263   72.1021  220.8011 H   0  0  0  0  0  0  0  0  0  0  0  0
  141.2645   72.5504  221.3746 H   0  0  0  0  0  0  0  0  0  0  0  0
  139.5580   74.0170  223.0640 H   0  0  0  0  0  0  0  0  0  0  0  0
  141.7959   71.8584  223.5179 H   0  0  0  0  0  0  0  0  0  0  0  0
  140.4590   72.7276  224.2160 H   0  0  0  0  0  0  0  0  0  0  0  0
  140.4642   69.8787  222.9905 H   0  0  0  0  0  0  0  0  0  0  0  0
  139.0806   68.2402  223.9628 H   0  0  0  0  0  0  0  0  0  0  0  0
  138.8032   67.2208  226.2245 H   0  0  0  0  0  0  0  0  0  0  0  0
  139.3593   68.5127  228.2696 H   0  0  0  0  0  0  0  0  0  0  0  0
  140.2005   70.8462  228.0668 H   0  0  0  0  0  0  0  0  0  0  0  0
  140.4671   71.8407  225.8187 H   0  0  0  0  0  0  0  0  0  0  0  0
  135.4331   77.2629  222.7170 H   0  0  0  0  0  0  0  0  0  0  0  0
  136.6918   79.4103  222.6830 H   0  0  0  0  0  0  0  0  0  0  0  0
  138.8865   80.5501  222.6527 H   0  0  0  0  0  0  0  0  0  0  0  0
  142.5317   78.2208  222.6336 H   0  0  0  0  0  0  0  0  0  0  0  0
  141.1482   76.1473  222.6663 H   0  0  0  0  0  0  0  0  0  0  0  0
  1  2  2  0
  2  3  1  0
  3  4  1  0
  4  5  1  0
  5  6  2  0
  5  7  1  0
  7  8  1  0
  8  9  1  0
  9 10  1  0
  9 11  1  0
 11 12  1  0
 12 13  1  0
 13 14  2  0
 14 15  1  0
 15 16  2  0
 16 17  1  0
 17 18  2  0
  2 19  1  0
 19 20  2  0
 20 21  1  0
 21 22  2  0
 22 23  1  0
 23 24  2  0
 24 25  1  0
 24 26  1  0
 26 27  2  0
 27 28  1  0
 28 29  2  0
 12  7  1  0
 18 13  1  0
 29 19  1  0
 28 22  1  0
  3 30  1  0
  4 31  1  0
  4 32  1  0
  8 33  1  0
  8 34  1  0
  9 35  1  6
 10 36  1  0
 11 37  1  0
 11 38  1  0
 12 39  1  6
 14 40  1  0
 15 41  1  0
 16 42  1  0
 17 43  1  0
 18 44  1  0
 20 45  1  0
 21 46  1  0
 23 47  1  0
 26 48  1  0
 27 49  1  0
M  END
>  <meeko>  (12) 
{"free_energy": -7.78, "intermolecular_energy": -9.57, "internal_energy": -3.0, "cluster_size": 3, "cluster_id": 3, "rank_in_cluster": 2}

$$$$

     RDKit          3D

 49 52  0  0  0  0  0  0  0  0999 V2000
  135.2150   74.7350  222.6190 O   0  0  0  0  0  0  0  0  0  0  0  0
  136.4840   74.7320  222.6760 C   0  0  0  0  0  0  0  0  0  0  0  0
  137.2100   73.5140  222.7230 N   0  0  0  0  0  0  0  0  0  0  0  0
  136.5330   72.2570  222.7060 C   0  0  0  0  0  0  0  0  0  0  0  0
  137.4020   71.1300  223.1640 C   0  0  0  0  0  0  0  0  0  0  0  0
  136.8460   70.2540  223.8670 O   0  0  0  0  0  0  0  0  0  0  0  0
  138.7590   71.1350  222.7790 N   0  0  0  0  0  0  0  0  0  0  0  0
  139.3020   71.6110  221.4790 C   0  0  0  0  0  0  0  0  0  0  0  0
  140.3750   72.5330  222.0390 C   0  0  1  0  0  0  0  0  0  0  0  0
  139.7460   73.7950  222.1370 O   0  0  0  0  0  0  0  0  0  0  0  0
  140.6990   72.0330  223.4510 C   0  0  0  0  0  0  0  0  0  0  0  0
  139.9630   70.7250  223.4810 C   0  0  1  0  0  0  0  0  0  0  0  0
  139.7830   70.0980  224.7700 C   0  0  0  0  0  0  0  0  0  0  0  0
  140.0810   70.7700  225.9310 C   0  0  0  0  0  0  0  0  0  0  0  0
  139.9070   70.1280  227.1610 C   0  0  0  0  0  0  0  0  0  0  0  0
  139.4360   68.8240  227.2230 C   0  0  0  0  0  0  0  0  0  0  0  0
  139.1370   68.1490  226.0620 C   0  0  0  0  0  0  0  0  0  0  0  0
  139.3160   68.7980  224.8540 C   0  0  0  0  0  0  0  0  0  0  0  0
  137.2060   75.9990  222.6950 C   0  0  0  0  0  0  0  0  0  0  0  0
  136.5310   77.2010  222.7150 C   0  0  0  0  0  0  0  0  0  0  0  0
  137.2240   78.4020  222.7320 C   0  0  0  0  0  0  0  0  0  0  0  0
  138.6210   78.3760  222.7290 C   0  0  0  0  0  0  0  0  0  0  0  0
  139.3710   79.5230  222.7450 C   0  0  0  0  0  0  0  0  0  0  0  0
  140.7590   79.4460  222.7390 C   0  0  0  0  0  0  0  0  0  0  0  0
  141.7560   80.8940  222.7600 Cl  0  0  0  0  0  0  0  0  0  0  0  0
  141.4270   78.2360  222.7190 C   0  0  0  0  0  0  0  0  0  0  0  0
  140.6560   77.0930  222.7030 C   0  0  0  0  0  0  0  0  0  0  0  0
  139.2680   77.1590  222.7080 C   0  0  0  0  0  0  0  0  0  0  0  0
  138.5690   76.0140  222.6910 N   0  0  0  0  0  0  0  0  0  0  0  0
  138.2700   73.5870  222.7700 H   0  0  0  0  0  0  0  0  0  0  0  0
  135.6578   72.3192  223.3694 H   0  0  0  0  0  0  0  0  0  0  0  0
  136.2398   72.0504  221.6661 H   0  0  0  0  0  0  0  0  0  0  0  0
  139.7248   70.7932  220.8770 H   0  0  0  0  0  0  0  0  0  0  0  0
  138.5797   72.0672  220.7861 H   0  0  0  0  0  0  0  0  0  0  0  0
  141.2912   72.5714  221.4314 H   0  0  0  0  0  0  0  0  0  0  0  0
  139.5500   74.0200  223.0800 H   0  0  0  0  0  0  0  0  0  0  0  0
  141.7809   71.8886  223.5879 H   0  0  0  0  0  0  0  0  0  0  0  0
  140.4087   72.7296  224.2513 H   0  0  0  0  0  0  0  0  0  0  0  0
  140.5049   69.8829  223.0257 H   0  0  0  0  0  0  0  0  0  0  0  0
  140.4533   71.8044  225.8931 H   0  0  0  0  0  0  0  0  0  0  0  0
  140.1465   70.6635  228.0915 H   0  0  0  0  0  0  0  0  0  0  0  0
  139.3022   68.3316  228.1975 H   0  0  0  0  0  0  0  0  0  0  0  0
  138.7634   67.1149  226.0939 H   0  0  0  0  0  0  0  0  0  0  0  0
  139.0781   68.2603  223.9243 H   0  0  0  0  0  0  0  0  0  0  0  0
  135.4310   77.2074  222.7175 H   0  0  0  0  0  0  0  0  0  0  0  0
  136.6828   79.3595  222.7476 H   0  0  0  0  0  0  0  0  0  0  0  0
  138.8747   80.5045  222.7626 H   0  0  0  0  0  0  0  0  0  0  0  0
  142.5259   78.1871  222.7160 H   0  0  0  0  0  0  0  0  0  0  0  0
  141.1492   76.1099  222.6860 H   0  0  0  0  0  0  0  0  0  0  0  0
  1  2  2  0
  2  3  1  0
  3  4  1  0
  4  5  1  0
  5  6  2  0
  5  7  1  0
  7  8  1  0
  8  9  1  0
  9 10  1  0
  9 11  1  0
 11 12  1  0
 12 13  1  0
 13 14  2  0
 14 15  1  0
 15 16  2  0
 16 17  1  0
 17 18  2  0
  2 19  1  0
 19 20  2  0
 20 21  1  0
 21 22  2  0
 22 23  1  0
 23 24  2  0
 24 25  1  0
 24 26  1  0
 26 27  2  0
 27 28  1  0
 28 29  2  0
 12  7  1  0
 18 13  1  0
 29 19  1  0
 28 22  1  0
  3 30  1  0
  4 31  1  0
  4 32  1  0
  8 33  1  0
  8 34  1  0
  9 35  1  6
 10 36  1  0
 11 37  1  0
 11 38  1  0
 12 39  1  6
 14 40  1  0
 15 41  1  0
 16 42  1  0
 17 43  1  0
 18 44  1  0
 20 45  1  0
 21 46  1  0
 23 47  1  0
 26 48  1  0
 27 49  1  0
M  END
>  <meeko>  (13) 
{"free_energy": -7.8, "intermolecular_energy": -9.59, "internal_energy": -3.0, "cluster_size": 3, "cluster_id": 3, "rank_in_cluster": 1}

$$$$

     RDKit          3D

 49 52  0  0  0  0  0  0  0  0999 V2000
  139.8630   72.0710  220.6520 O   0  0  0  0  0  0  0  0  0  0  0  0
  139.7810   72.4810  221.8520 C   0  0  0  0  0  0  0  0  0  0  0  0
  139.6370   73.8620  222.1430 N   0  0  0  0  0  0  0  0  0  0  0  0
  139.5790   74.8290  221.0950 C   0  0  0  0  0  0  0  0  0  0  0  0
  140.7300   75.7830  221.1280 C   0  0  0  0  0  0  0  0  0  0  0  0
  141.0920   76.1740  222.2610 O   0  0  0  0  0  0  0  0  0  0  0  0
  141.3130   76.1650  219.9010 N   0  0  0  0  0  0  0  0  0  0  0  0
  140.8360   77.2470  219.0000 C   0  0  0  0  0  0  0  0  0  0  0  0
  142.1650   77.9720  218.8420 C   0  0  1  0  0  0  0  0  0  0  0  0
  142.1640   78.9460  219.8670 O   0  0  0  0  0  0  0  0  0  0  0  0
  143.2680   76.9500  219.1350 C   0  0  0  0  0  0  0  0  0  0  0  0
  142.4820   75.6720  219.1930 C   0  0  1  0  0  0  0  0  0  0  0  0
  143.1430   74.5150  219.7540 C   0  0  0  0  0  0  0  0  0  0  0  0
  142.4970   73.3060  219.8400 C   0  0  0  0  0  0  0  0  0  0  0  0
  143.1620   72.2100  220.4010 C   0  0  0  0  0  0  0  0  0  0  0  0
  144.4630   72.3300  220.8680 C   0  0  0  0  0  0  0  0  0  0  0  0
  145.1110   73.5400  220.7830 C   0  0  0  0  0  0  0  0  0  0  0  0
  144.4400   74.6140  220.2270 C   0  0  0  0  0  0  0  0  0  0  0  0
  139.8370   71.5180  222.9460 C   0  0  0  0  0  0  0  0  0  0  0  0
  139.3840   70.2270  222.7800 C   0  0  0  0  0  0  0  0  0  0  0  0
  139.4390   69.3180  223.8250 C   0  0  0  0  0  0  0  0  0  0  0  0
  139.9650   69.7310  225.0530 C   0  0  0  0  0  0  0  0  0  0  0  0
  140.0510   68.8860  226.1290 C   0  0  0  0  0  0  0  0  0  0  0  0
  140.5810   69.3430  227.3300 C   0  0  0  0  0  0  0  0  0  0  0  0
  140.7090   68.2910  228.7340 Cl  0  0  0  0  0  0  0  0  0  0  0  0
  141.0330   70.6400  227.4880 C   0  0  0  0  0  0  0  0  0  0  0  0
  140.9380   71.4750  226.3930 C   0  0  0  0  0  0  0  0  0  0  0  0
  140.4100   71.0280  225.1880 C   0  0  0  0  0  0  0  0  0  0  0  0
  140.3430   71.8850  224.1580 N   0  0  0  0  0  0  0  0  0  0  0  0
  139.5750   74.1330  223.1700 H   0  0  0  0  0  0  0  0  0  0  0  0
  139.5854   74.3025  220.1292 H   0  0  0  0  0  0  0  0  0  0  0  0
  138.6576   75.4140  221.2323 H   0  0  0  0  0  0  0  0  0  0  0  0
  140.4544   76.8586  218.0442 H   0  0  0  0  0  0  0  0  0  0  0  0
  139.9915   77.8498  219.3655 H   0  0  0  0  0  0  0  0  0  0  0  0
  142.3151   78.4156  217.8467 H   0  0  0  0  0  0  0  0  0  0  0  0
  142.7000   78.6450  220.6410 H   0  0  0  0  0  0  0  0  0  0  0  0
  144.0172   76.9251  218.3300 H   0  0  0  0  0  0  0  0  0  0  0  0
  143.8471   77.1628  220.0457 H   0  0  0  0  0  0  0  0  0  0  0  0
  142.2759   75.2153  218.2137 H   0  0  0  0  0  0  0  0  0  0  0  0
  141.4661   73.2002  219.4712 H   0  0  0  0  0  0  0  0  0  0  0  0
  142.6467   71.2408  220.4727 H   0  0  0  0  0  0  0  0  0  0  0  0
  144.9747   71.4598  221.3050 H   0  0  0  0  0  0  0  0  0  0  0  0
  146.1420   73.6514  221.1498 H   0  0  0  0  0  0  0  0  0  0  0  0
  144.9563   75.5829  220.1582 H   0  0  0  0  0  0  0  0  0  0  0  0
  138.9745   69.9147  221.8080 H   0  0  0  0  0  0  0  0  0  0  0  0
  139.0749   68.2888  223.6905 H   0  0  0  0  0  0  0  0  0  0  0  0
  139.7008   67.8469  226.0420 H   0  0  0  0  0  0  0  0  0  0  0  0
  141.4497   70.9908  228.4437 H   0  0  0  0  0  0  0  0  0  0  0  0
  141.2872   72.5148  226.4760 H   0  0  0  0  0  0  0  0  0  0  0  0
  1  2  2  0
  2  3  1  0
  3  4  1  0
  4  5  1  0
  5  6  2  0
  5  7  1  0
  7  8  1  0
  8  9  1  0
  9 10  1  0
  9 11  1  0
 11 12  1  0
 12 13  1  0
 13 14  2  0
 14 15  1  0
 15 16  2  0
 16 17  1  0
 17 18  2  0
  2 19  1  0
 19 20  2  0
 20 21  1  0
 21 22  2  0
 22 23  1  0
 23 24  2  0
 24 25  1  0
 24 26  1  0
 26 27  2  0
 27 28  1  0
 28 29  2  0
 12  7  1  0
 18 13  1  0
 29 19  1  0
 28 22  1  0
  3 30  1  0
  4 31  1  0
  4 32  1  0
  8 33  1  0
  8 34  1  0
  9 35  1  6
 10 36  1  0
 11 37  1  0
 11 38  1  0
 12 39  1  6
 14 40  1  0
 15 41  1  0
 16 42  1  0
 17 43  1  0
 18 44  1  0
 20 45  1  0
 21 46  1  0
 23 47  1  0
 26 48  1  0
 27 49  1  0
M  END
>  <meeko>  (14) 
{"free_energy": -8.33, "intermolecular_energy": -10.12, "internal_energy": -2.1, "cluster_size": 5, "cluster_id": 1, "rank_in_cluster": 3}

$$$$

     RDKit          3D

 49 52  0  0  0  0  0  0  0  0999 V2000
  141.0940   71.9150  219.8470 O   0  0  0  0  0  0  0  0  0  0  0  0
  141.1050   72.4660  220.9920 C   0  0  0  0  0  0  0  0  0  0  0  0
  141.5160   73.8140  221.1500 N   0  0  0  0  0  0  0  0  0  0  0  0
  141.9270   74.5900  220.0250 C   0  0  0  0  0  0  0  0  0  0  0  0
  141.5470   76.0310  220.1500 C   0  0  0  0  0  0  0  0  0  0  0  0
  142.3930   76.8630  219.7480 O   0  0  0  0  0  0  0  0  0  0  0  0
  140.2850   76.3410  220.7010 N   0  0  0  0  0  0  0  0  0  0  0  0
  139.0240   75.5830  220.4920 C   0  0  0  0  0  0  0  0  0  0  0  0
  138.6390   75.4320  221.9570 C   0  0  1  0  0  0  0  0  0  0  0  0
  139.2110   74.2010  222.3510 O   0  0  0  0  0  0  0  0  0  0  0  0
  139.3360   76.5650  222.7190 C   0  0  0  0  0  0  0  0  0  0  0  0
  139.8570   77.4070  221.5910 C   0  0  1  0  0  0  0  0  0  0  0  0
  140.8390   78.4160  221.9180 C   0  0  0  0  0  0  0  0  0  0  0  0
  141.2320   79.3470  220.9880 C   0  0  0  0  0  0  0  0  0  0  0  0
  142.1950   80.3010  221.3350 C   0  0  0  0  0  0  0  0  0  0  0  0
  142.7540   80.3190  222.6050 C   0  0  0  0  0  0  0  0  0  0  0  0
  142.3610   79.3880  223.5380 C   0  0  0  0  0  0  0  0  0  0  0  0
  141.4090   78.4510  223.1790 C   0  0  0  0  0  0  0  0  0  0  0  0
  140.6900   71.7000  222.1620 C   0  0  0  0  0  0  0  0  0  0  0  0
  139.9240   70.5610  222.0310 C   0  0  0  0  0  0  0  0  0  0  0  0
  139.5330   69.8390  223.1480 C   0  0  0  0  0  0  0  0  0  0  0  0
  139.9290   70.2830  224.4130 C   0  0  0  0  0  0  0  0  0  0  0  0
  139.5790   69.6190  225.5600 C   0  0  0  0  0  0  0  0  0  0  0  0
  139.9950   70.1010  226.7950 C   0  0  0  0  0  0  0  0  0  0  0  0
  139.5690   69.2780  228.2900 Cl  0  0  0  0  0  0  0  0  0  0  0  0
  140.7630   71.2440  226.9170 C   0  0  0  0  0  0  0  0  0  0  0  0
  141.1050   71.8980  225.7520 C   0  0  0  0  0  0  0  0  0  0  0  0
  140.6940   71.4250  224.5120 C   0  0  0  0  0  0  0  0  0  0  0  0
  141.0560   72.1020  223.4120 N   0  0  0  0  0  0  0  0  0  0  0  0
  141.5000   74.2090  222.1370 H   0  0  0  0  0  0  0  0  0  0  0  0
  143.0207   74.5211  219.9303 H   0  0  0  0  0  0  0  0  0  0  0  0
  141.4165   74.1868  219.1380 H   0  0  0  0  0  0  0  0  0  0  0  0
  138.2800   76.1571  219.9204 H   0  0  0  0  0  0  0  0  0  0  0  0
  139.1045   74.6529  219.9103 H   0  0  0  0  0  0  0  0  0  0  0  0
  137.5546   75.4638  222.1389 H   0  0  0  0  0  0  0  0  0  0  0  0
  139.5690   74.2560  223.2710 H   0  0  0  0  0  0  0  0  0  0  0  0
  138.6254   77.1256  223.3441 H   0  0  0  0  0  0  0  0  0  0  0  0
  140.1121   76.2235  223.4197 H   0  0  0  0  0  0  0  0  0  0  0  0
  139.1229   78.1056  221.1632 H   0  0  0  0  0  0  0  0  0  0  0  0
  140.7936   79.3428  219.9792 H   0  0  0  0  0  0  0  0  0  0  0  0
  142.5131   81.0465  220.5913 H   0  0  0  0  0  0  0  0  0  0  0  0
  143.5091   81.0755  222.8647 H   0  0  0  0  0  0  0  0  0  0  0  0
  142.7948   79.3886  224.5488 H   0  0  0  0  0  0  0  0  0  0  0  0
  141.0929   77.7055  223.9236 H   0  0  0  0  0  0  0  0  0  0  0  0
  139.6200   70.2217  221.0298 H   0  0  0  0  0  0  0  0  0  0  0  0
  138.9210   68.9313  223.0406 H   0  0  0  0  0  0  0  0  0  0  0  0
  138.9692   68.7053  225.5028 H   0  0  0  0  0  0  0  0  0  0  0  0
  141.0871   71.6156  227.9003 H   0  0  0  0  0  0  0  0  0  0  0  0
  141.7150   72.8118  225.8056 H   0  0  0  0  0  0  0  0  0  0  0  0
  1  2  2  0
  2  3  1  0
  3  4  1  0
  4  5  1  0
  5  6  2  0
  5  7  1  0
  7  8  1  0
  8  9  1  0
  9 10  1  0
  9 11  1  0
 11 12  1  0
 12 13  1  0
 13 14  2  0
 14 15  1  0
 15 16  2  0
 16 17  1  0
 17 18  2  0
  2 19  1  0
 19 20  2  0
 20 21  1  0
 21 22  2  0
 22 23  1  0
 23 24  2  0
 24 25  1  0
 24 26  1  0
 26 27  2  0
 27 28  1  0
 28 29  2  0
 12  7  1  0
 18 13  1  0
 29 19  1  0
 28 22  1  0
  3 30  1  0
  4 31  1  0
  4 32  1  0
  8 33  1  0
  8 34  1  0
  9 35  1  6
 10 36  1  0
 11 37  1  0
 11 38  1  0
 12 39  1  6
 14 40  1  0
 15 41  1  0
 16 42  1  0
 17 43  1  0
 18 44  1  0
 20 45  1  0
 21 46  1  0
 23 47  1  0
 26 48  1  0
 27 49  1  0
M  END
>  <meeko>  (15) 
{"free_energy": -7.78, "intermolecular_energy": -9.57, "internal_energy": -2.59, "cluster_size": 3, "cluster_id": 2, "rank_in_cluster": 2}

$$$$

     RDKit          3D

 49 52  0  0  0  0  0  0  0  0999 V2000
  139.9000   72.0830  220.6900 O   0  0  0  0  0  0  0  0  0  0  0  0
  139.8040   72.4800  221.8930 C   0  0  0  0  0  0  0  0  0  0  0  0
  139.6350   73.8540  222.1980 N   0  0  0  0  0  0  0  0  0  0  0  0
  139.5660   74.8310  221.1590 C   0  0  0  0  0  0  0  0  0  0  0  0
  140.7310   75.7680  221.1710 C   0  0  0  0  0  0  0  0  0  0  0  0
  141.1210   76.1510  222.2990 O   0  0  0  0  0  0  0  0  0  0  0  0
  141.2960   76.1440  219.9340 N   0  0  0  0  0  0  0  0  0  0  0  0
  140.7920   77.2050  219.0240 C   0  0  0  0  0  0  0  0  0  0  0  0
  142.1060   77.9520  218.8440 C   0  0  1  0  0  0  0  0  0  0  0  0
  142.0960   78.9400  219.8570 O   0  0  0  0  0  0  0  0  0  0  0  0
  143.2300   76.9540  219.1410 C   0  0  0  0  0  0  0  0  0  0  0  0
  142.4680   75.6630  219.2230 C   0  0  1  0  0  0  0  0  0  0  0  0
  143.1540   74.5260  219.7930 C   0  0  0  0  0  0  0  0  0  0  0  0
  144.4380   74.6410  220.2680 C   0  0  0  0  0  0  0  0  0  0  0  0
  145.0770   73.5170  220.8020 C   0  0  0  0  0  0  0  0  0  0  0  0
  144.4300   72.2910  220.8590 C   0  0  0  0  0  0  0  0  0  0  0  0
  143.1450   72.1730  220.3840 C   0  0  0  0  0  0  0  0  0  0  0  0
  142.5280   73.2940  219.8580 C   0  0  0  0  0  0  0  0  0  0  0  0
  139.8700   71.5070  222.9780 C   0  0  0  0  0  0  0  0  0  0  0  0
  139.4280   70.2130  222.8010 C   0  0  0  0  0  0  0  0  0  0  0  0
  139.4940   69.2950  223.8370 C   0  0  0  0  0  0  0  0  0  0  0  0
  140.0170   69.7000  225.0680 C   0  0  0  0  0  0  0  0  0  0  0  0
  140.1120   68.8460  226.1360 C   0  0  0  0  0  0  0  0  0  0  0  0
  140.6380   69.2970  227.3410 C   0  0  0  0  0  0  0  0  0  0  0  0
  140.7780   68.2330  228.7340 Cl  0  0  0  0  0  0  0  0  0  0  0  0
  141.0790   70.5960  227.5100 C   0  0  0  0  0  0  0  0  0  0  0  0
  140.9750   71.4410  226.4240 C   0  0  0  0  0  0  0  0  0  0  0  0
  140.4500   71.0010  225.2150 C   0  0  0  0  0  0  0  0  0  0  0  0
  140.3730   71.8660  224.1930 N   0  0  0  0  0  0  0  0  0  0  0  0
  139.5620   74.1140  223.2260 H   0  0  0  0  0  0  0  0  0  0  0  0
  139.5412   74.3125  220.1892 H   0  0  0  0  0  0  0  0  0  0  0  0
  138.6571   75.4282  221.3238 H   0  0  0  0  0  0  0  0  0  0  0  0
  140.4088   76.7973  218.0769 H   0  0  0  0  0  0  0  0  0  0  0  0
  139.9403   77.7973  219.3898 H   0  0  0  0  0  0  0  0  0  0  0  0
  142.2393   78.3849  217.8416 H   0  0  0  0  0  0  0  0  0  0  0  0
  142.6110   78.6410  220.6460 H   0  0  0  0  0  0  0  0  0  0  0  0
  143.9727   76.9317  218.3299 H   0  0  0  0  0  0  0  0  0  0  0  0
  143.8128   77.1896  220.0437 H   0  0  0  0  0  0  0  0  0  0  0  0
  142.2624   75.1895  218.2516 H   0  0  0  0  0  0  0  0  0  0  0  0
  144.9592   75.6089  220.2287 H   0  0  0  0  0  0  0  0  0  0  0  0
  146.1056   73.6063  221.1816 H   0  0  0  0  0  0  0  0  0  0  0  0
  144.9437   71.4156  221.2831 H   0  0  0  0  0  0  0  0  0  0  0  0
  142.6188   71.2078  220.4214 H   0  0  0  0  0  0  0  0  0  0  0  0
  141.5002   73.2022  219.4768 H   0  0  0  0  0  0  0  0  0  0  0  0
  139.0187   69.9061  221.8272 H   0  0  0  0  0  0  0  0  0  0  0  0
  139.1402   68.2635  223.6926 H   0  0  0  0  0  0  0  0  0  0  0  0
  139.7721   67.8043  226.0395 H   0  0  0  0  0  0  0  0  0  0  0  0
  141.4946   70.9411  228.4682 H   0  0  0  0  0  0  0  0  0  0  0  0
  141.3143   72.4832  226.5172 H   0  0  0  0  0  0  0  0  0  0  0  0
  1  2  2  0
  2  3  1  0
  3  4  1  0
  4  5  1  0
  5  6  2  0
  5  7  1  0
  7  8  1  0
  8  9  1  0
  9 10  1  0
  9 11  1  0
 11 12  1  0
 12 13  1  0
 13 14  2  0
 14 15  1  0
 15 16  2  0
 16 17  1  0
 17 18  2  0
  2 19  1  0
 19 20  2  0
 20 21  1  0
 21 22  2  0
 22 23  1  0
 23 24  2  0
 24 25  1  0
 24 26  1  0
 26 27  2  0
 27 28  1  0
 28 29  2  0
 12  7  1  0
 18 13  1  0
 29 19  1  0
 28 22  1  0
  3 30  1  0
  4 31  1  0
  4 32  1  0
  8 33  1  0
  8 34  1  0
  9 35  1  6
 10 36  1  0
 11 37  1  0
 11 38  1  0
 12 39  1  6
 14 40  1  0
 15 41  1  0
 16 42  1  0
 17 43  1  0
 18 44  1  0
 20 45  1  0
 21 46  1  0
 23 47  1  0
 26 48  1  0
 27 49  1  0
M  END
>  <meeko>  (16) 
{"free_energy": -8.3, "intermolecular_energy": -10.09, "internal_energy": -2.1, "cluster_size": 5, "cluster_id": 1, "rank_in_cluster": 5}

$$$$

     RDKit          3D

 49 52  0  0  0  0  0  0  0  0999 V2000
  135.2160   68.5250  225.0890 O   0  0  0  0  0  0  0  0  0  0  0  0
  135.6380   69.6340  224.6350 C   0  0  0  0  0  0  0  0  0  0  0  0
  136.7100   69.6840  223.7080 N   0  0  0  0  0  0  0  0  0  0  0  0
  137.3440   68.4870  223.2570 C   0  0  0  0  0  0  0  0  0  0  0  0
  138.7620   68.3770  223.7200 C   0  0  0  0  0  0  0  0  0  0  0  0
  139.1460   67.2340  224.0600 O   0  0  0  0  0  0  0  0  0  0  0  0
  139.5490   69.5480  223.7380 N   0  0  0  0  0  0  0  0  0  0  0  0
  139.7820   70.4690  222.5950 C   0  0  0  0  0  0  0  0  0  0  0  0
  139.4210   71.7640  223.3070 C   0  0  1  0  0  0  0  0  0  0  0  0
  138.0410   71.9390  223.0520 O   0  0  0  0  0  0  0  0  0  0  0  0
  139.6170   71.5170  224.8070 C   0  0  0  0  0  0  0  0  0  0  0  0
  140.3080   70.1850  224.8020 C   0  0  1  0  0  0  0  0  0  0  0  0
  140.3860   69.4760  226.0590 C   0  0  0  0  0  0  0  0  0  0  0  0
  141.0930   68.3040  226.1670 C   0  0  0  0  0  0  0  0  0  0  0  0
  141.1370   67.6380  227.3950 C   0  0  0  0  0  0  0  0  0  0  0  0
  140.4770   68.1470  228.5050 C   0  0  0  0  0  0  0  0  0  0  0  0
  139.7690   69.3210  228.4000 C   0  0  0  0  0  0  0  0  0  0  0  0
  139.7350   69.9660  227.1780 C   0  0  0  0  0  0  0  0  0  0  0  0
  135.0110   70.8750  225.0760 C   0  0  0  0  0  0  0  0  0  0  0  0
  133.9450   70.8620  225.9500 C   0  0  0  0  0  0  0  0  0  0  0  0
  133.3540   72.0460  226.3620 C   0  0  0  0  0  0  0  0  0  0  0  0
  133.8570   73.2570  225.8790 C   0  0  0  0  0  0  0  0  0  0  0  0
  133.3230   74.4660  226.2450 C   0  0  0  0  0  0  0  0  0  0  0  0
  133.8570   75.6440  225.7360 C   0  0  0  0  0  0  0  0  0  0  0  0
  133.2010   77.2130  226.1810 Cl  0  0  0  0  0  0  0  0  0  0  0  0
  134.9260   75.6470  224.8600 C   0  0  0  0  0  0  0  0  0  0  0  0
  135.4500   74.4220  224.5040 C   0  0  0  0  0  0  0  0  0  0  0  0
  134.9240   73.2380  225.0060 C   0  0  0  0  0  0  0  0  0  0  0  0
  135.4740   72.0760  224.6250 N   0  0  0  0  0  0  0  0  0  0  0  0
  137.0110   70.6460  223.3710 H   0  0  0  0  0  0  0  0  0  0  0  0
  136.7803   67.6238  223.6406 H   0  0  0  0  0  0  0  0  0  0  0  0
  137.3536   68.5093  222.1573 H   0  0  0  0  0  0  0  0  0  0  0  0
  140.8275   70.4563  222.2534 H   0  0  0  0  0  0  0  0  0  0  0  0
  139.2271   70.2495  221.6710 H   0  0  0  0  0  0  0  0  0  0  0  0
  140.0166   72.6308  222.9848 H   0  0  0  0  0  0  0  0  0  0  0  0
  137.5710   72.2630  223.8600 H   0  0  0  0  0  0  0  0  0  0  0  0
  140.2467   72.2948  225.2636 H   0  0  0  0  0  0  0  0  0  0  0  0
  138.6849   71.5370  225.3908 H   0  0  0  0  0  0  0  0  0  0  0  0
  141.3944   70.2330  224.6367 H   0  0  0  0  0  0  0  0  0  0  0  0
  141.6206   67.8924  225.2940 H   0  0  0  0  0  0  0  0  0  0  0  0
  141.7020   66.6983  227.4830 H   0  0  0  0  0  0  0  0  0  0  0  0
  140.5203   67.6128  229.4656 H   0  0  0  0  0  0  0  0  0  0  0  0
  139.2408   69.7381  229.2701 H   0  0  0  0  0  0  0  0  0  0  0  0
  139.1687   70.9050  227.0914 H   0  0  0  0  0  0  0  0  0  0  0  0
  133.5595   69.9021  226.3242 H   0  0  0  0  0  0  0  0  0  0  0  0
  132.5025   72.0327  227.0582 H   0  0  0  0  0  0  0  0  0  0  0  0
  132.4722   74.5035  226.9413 H   0  0  0  0  0  0  0  0  0  0  0  0
  135.3408   76.5857  224.4640 H   0  0  0  0  0  0  0  0  0  0  0  0
  136.3014   74.3815  223.8087 H   0  0  0  0  0  0  0  0  0  0  0  0
  1  2  2  0
  2  3  1  0
  3  4  1  0
  4  5  1  0
  5  6  2  0
  5  7  1  0
  7  8  1  0
  8  9  1  0
  9 10  1  0
  9 11  1  0
 11 12  1  0
 12 13  1  0
 13 14  2  0
 14 15  1  0
 15 16  2  0
 16 17  1  0
 17 18  2  0
  2 19  1  0
 19 20  2  0
 20 21  1  0
 21 22  2  0
 22 23  1  0
 23 24  2  0
 24 25  1  0
 24 26  1  0
 26 27  2  0
 27 28  1  0
 28 29  2  0
 12  7  1  0
 18 13  1  0
 29 19  1  0
 28 22  1  0
  3 30  1  0
  4 31  1  0
  4 32  1  0
  8 33  1  0
  8 34  1  0
  9 35  1  6
 10 36  1  0
 11 37  1  0
 11 38  1  0
 12 39  1  6
 14 40  1  0
 15 41  1  0
 16 42  1  0
 17 43  1  0
 18 44  1  0
 20 45  1  0
 21 46  1  0
 23 47  1  0
 26 48  1  0
 27 49  1  0
M  END
>  <meeko>  (17) 
{"free_energy": -7.66, "intermolecular_energy": -9.45, "internal_energy": -3.45, "cluster_size": 8, "cluster_id": 4, "rank_in_cluster": 6}

$$$$

     RDKit          3D

 49 52  0  0  0  0  0  0  0  0999 V2000
  139.8830   72.0890  220.6640 O   0  0  0  0  0  0  0  0  0  0  0  0
  139.7940   72.4900  221.8660 C   0  0  0  0  0  0  0  0  0  0  0  0
  139.6370   73.8670  222.1680 N   0  0  0  0  0  0  0  0  0  0  0  0
  139.5730   74.8420  221.1260 C   0  0  0  0  0  0  0  0  0  0  0  0
  140.7270   75.7930  221.1570 C   0  0  0  0  0  0  0  0  0  0  0  0
  141.0990   76.1730  222.2920 O   0  0  0  0  0  0  0  0  0  0  0  0
  141.3000   76.1850  219.9290 N   0  0  0  0  0  0  0  0  0  0  0  0
  140.8160   77.2730  219.0400 C   0  0  0  0  0  0  0  0  0  0  0  0
  142.1420   78.0010  218.8770 C   0  0  1  0  0  0  0  0  0  0  0  0
  142.1480   78.9670  219.9100 O   0  0  0  0  0  0  0  0  0  0  0  0
  143.2480   76.9770  219.1550 C   0  0  0  0  0  0  0  0  0  0  0  0
  142.4650   75.6980  219.2090 C   0  0  1  0  0  0  0  0  0  0  0  0
  143.1310   74.5380  219.7570 C   0  0  0  0  0  0  0  0  0  0  0  0
  142.4980   73.3200  219.8090 C   0  0  0  0  0  0  0  0  0  0  0  0
  143.1680   72.2210  220.3580 C   0  0  0  0  0  0  0  0  0  0  0  0
  144.4600   72.3460  220.8470 C   0  0  0  0  0  0  0  0  0  0  0  0
  145.0950   73.5650  220.7950 C   0  0  0  0  0  0  0  0  0  0  0  0
  144.4190   74.6420  220.2510 C   0  0  0  0  0  0  0  0  0  0  0  0
  139.8550   71.5200  222.9540 C   0  0  0  0  0  0  0  0  0  0  0  0
  139.4000   70.2300  222.7810 C   0  0  0  0  0  0  0  0  0  0  0  0
  139.4600   69.3140  223.8200 C   0  0  0  0  0  0  0  0  0  0  0  0
  139.9920   69.7180  225.0480 C   0  0  0  0  0  0  0  0  0  0  0  0
  140.0830   68.8650  226.1180 C   0  0  0  0  0  0  0  0  0  0  0  0
  140.6180   69.3140  227.3190 C   0  0  0  0  0  0  0  0  0  0  0  0
  140.7530   68.2530  228.7150 Cl  0  0  0  0  0  0  0  0  0  0  0  0
  141.0720   70.6100  227.4830 C   0  0  0  0  0  0  0  0  0  0  0  0
  140.9720   71.4520  226.3950 C   0  0  0  0  0  0  0  0  0  0  0  0
  140.4380   71.0140  225.1900 C   0  0  0  0  0  0  0  0  0  0  0  0
  140.3660   71.8770  224.1660 N   0  0  0  0  0  0  0  0  0  0  0  0
  139.5690   74.1300  223.1950 H   0  0  0  0  0  0  0  0  0  0  0  0
  139.5708   74.3221  220.1566 H   0  0  0  0  0  0  0  0  0  0  0  0
  138.6540   75.4281  221.2739 H   0  0  0  0  0  0  0  0  0  0  0  0
  140.4276   76.8912  218.0843 H   0  0  0  0  0  0  0  0  0  0  0  0
  139.9740   77.8722  219.4168 H   0  0  0  0  0  0  0  0  0  0  0  0
  142.2840   78.4527  217.8841 H   0  0  0  0  0  0  0  0  0  0  0  0
  142.6930   78.6620  220.6760 H   0  0  0  0  0  0  0  0  0  0  0  0
  143.9917   76.9589  218.3447 H   0  0  0  0  0  0  0  0  0  0  0  0
  143.8324   77.1837  220.0637 H   0  0  0  0  0  0  0  0  0  0  0  0
  142.2532   75.2477  218.2280 H   0  0  0  0  0  0  0  0  0  0  0  0
  141.4740   73.2096  219.4227 H   0  0  0  0  0  0  0  0  0  0  0  0
  142.6632   71.2447  220.4024 H   0  0  0  0  0  0  0  0  0  0  0  0
  144.9750   71.4733  221.2749 H   0  0  0  0  0  0  0  0  0  0  0  0
  146.1195   73.6809  221.1782 H   0  0  0  0  0  0  0  0  0  0  0  0
  144.9246   75.6181  220.2096 H   0  0  0  0  0  0  0  0  0  0  0  0
  138.9853   69.9246  221.8090 H   0  0  0  0  0  0  0  0  0  0  0  0
  139.0949   68.2858  223.6803 H   0  0  0  0  0  0  0  0  0  0  0  0
  139.7327   67.8264  226.0254 H   0  0  0  0  0  0  0  0  0  0  0  0
  141.4942   70.9541  228.4387 H   0  0  0  0  0  0  0  0  0  0  0  0
  141.3221   72.4910  226.4835 H   0  0  0  0  0  0  0  0  0  0  0  0
  1  2  2  0
  2  3  1  0
  3  4  1  0
  4  5  1  0
  5  6  2  0
  5  7  1  0
  7  8  1  0
  8  9  1  0
  9 10  1  0
  9 11  1  0
 11 12  1  0
 12 13  1  0
 13 14  2  0
 14 15  1  0
 15 16  2  0
 16 17  1  0
 17 18  2  0
  2 19  1  0
 19 20  2  0
 20 21  1  0
 21 22  2  0
 22 23  1  0
 23 24  2  0
 24 25  1  0
 24 26  1  0
 26 27  2  0
 27 28  1  0
 28 29  2  0
 12  7  1  0
 18 13  1  0
 29 19  1  0
 28 22  1  0
  3 30  1  0
  4 31  1  0
  4 32  1  0
  8 33  1  0
  8 34  1  0
  9 35  1  6
 10 36  1  0
 11 37  1  0
 11 38  1  0
 12 39  1  6
 14 40  1  0
 15 41  1  0
 16 42  1  0
 17 43  1  0
 18 44  1  0
 20 45  1  0
 21 46  1  0
 23 47  1  0
 26 48  1  0
 27 49  1  0
M  END
>  <meeko>  (18) 
{"free_energy": -8.32, "intermolecular_energy": -10.11, "internal_energy": -2.1, "cluster_size": 5, "cluster_id": 1, "rank_in_cluster": 4}

$$$$

     RDKit          3D

 49 52  0  0  0  0  0  0  0  0999 V2000
  139.8530   72.0750  220.6710 O   0  0  0  0  0  0  0  0  0  0  0  0
  139.7760   72.4800  221.8730 C   0  0  0  0  0  0  0  0  0  0  0  0
  139.6360   73.8590  222.1720 N   0  0  0  0  0  0  0  0  0  0  0  0
  139.5740   74.8320  221.1290 C   0  0  0  0  0  0  0  0  0  0  0  0
  140.7260   75.7840  221.1620 C   0  0  0  0  0  0  0  0  0  0  0  0
  141.0940   76.1680  222.2970 O   0  0  0  0  0  0  0  0  0  0  0  0
  141.3040   76.1740  219.9350 N   0  0  0  0  0  0  0  0  0  0  0  0
  140.8240   77.2620  219.0440 C   0  0  0  0  0  0  0  0  0  0  0  0
  142.1530   77.9860  218.8840 C   0  0  1  0  0  0  0  0  0  0  0  0
  142.1590   78.9540  219.9150 O   0  0  0  0  0  0  0  0  0  0  0  0
  143.2560   76.9600  219.1650 C   0  0  0  0  0  0  0  0  0  0  0  0
  142.4690   75.6830  219.2180 C   0  0  1  0  0  0  0  0  0  0  0  0
  143.1300   74.5220  219.7690 C   0  0  0  0  0  0  0  0  0  0  0  0
  142.4860   73.3110  219.8420 C   0  0  0  0  0  0  0  0  0  0  0  0
  143.1520   72.2110  220.3930 C   0  0  0  0  0  0  0  0  0  0  0  0
  144.4520   72.3270  220.8630 C   0  0  0  0  0  0  0  0  0  0  0  0
  145.0990   73.5390  220.7900 C   0  0  0  0  0  0  0  0  0  0  0  0
  144.4270   74.6170  220.2440 C   0  0  0  0  0  0  0  0  0  0  0  0
  139.8360   71.5110  222.9620 C   0  0  0  0  0  0  0  0  0  0  0  0
  139.3700   70.2250  222.7950 C   0  0  0  0  0  0  0  0  0  0  0  0
  139.4290   69.3110  223.8360 C   0  0  0  0  0  0  0  0  0  0  0  0
  139.9710   69.7130  225.0600 C   0  0  0  0  0  0  0  0  0  0  0  0
  140.0610   68.8620  226.1310 C   0  0  0  0  0  0  0  0  0  0  0  0
  140.6070   69.3090  227.3280 C   0  0  0  0  0  0  0  0  0  0  0  0
  140.7410   68.2500  228.7250 Cl  0  0  0  0  0  0  0  0  0  0  0  0
  141.0720   70.6010  227.4870 C   0  0  0  0  0  0  0  0  0  0  0  0
  140.9730   71.4420  226.3970 C   0  0  0  0  0  0  0  0  0  0  0  0
  140.4280   71.0060  225.1960 C   0  0  0  0  0  0  0  0  0  0  0  0
  140.3570   71.8670  224.1710 N   0  0  0  0  0  0  0  0  0  0  0  0
  139.5780   74.1250  223.2000 H   0  0  0  0  0  0  0  0  0  0  0  0
  139.5753   74.3107  220.1603 H   0  0  0  0  0  0  0  0  0  0  0  0
  138.6539   75.4172  221.2734 H   0  0  0  0  0  0  0  0  0  0  0  0
  140.4369   76.8804  218.0877 H   0  0  0  0  0  0  0  0  0  0  0  0
  139.9823   77.8635  219.4177 H   0  0  0  0  0  0  0  0  0  0  0  0
  142.2987   78.4358  217.8908 H   0  0  0  0  0  0  0  0  0  0  0  0
  142.7300   78.6630  220.6690 H   0  0  0  0  0  0  0  0  0  0  0  0
  144.0014   76.9395  218.3564 H   0  0  0  0  0  0  0  0  0  0  0  0
  143.8394   77.1658  220.0746 H   0  0  0  0  0  0  0  0  0  0  0  0
  142.2584   75.2326  218.2368 H   0  0  0  0  0  0  0  0  0  0  0  0
  141.4558   73.2070  219.4705 H   0  0  0  0  0  0  0  0  0  0  0  0
  142.6377   71.2406  220.4544 H   0  0  0  0  0  0  0  0  0  0  0  0
  144.9637   71.4531  221.2925 H   0  0  0  0  0  0  0  0  0  0  0  0
  146.1297   73.6482  221.1584 H   0  0  0  0  0  0  0  0  0  0  0  0
  144.9424   75.5869  220.1848 H   0  0  0  0  0  0  0  0  0  0  0  0
  138.9470   69.9205  221.8263 H   0  0  0  0  0  0  0  0  0  0  0  0
  139.0551   68.2854  223.7006 H   0  0  0  0  0  0  0  0  0  0  0  0
  139.7013   67.8262  226.0428 H   0  0  0  0  0  0  0  0  0  0  0  0
  141.5018   70.9437  228.4398 H   0  0  0  0  0  0  0  0  0  0  0  0
  141.3328   72.4781  226.4811 H   0  0  0  0  0  0  0  0  0  0  0  0
  1  2  2  0
  2  3  1  0
  3  4  1  0
  4  5  1  0
  5  6  2  0
  5  7  1  0
  7  8  1  0
  8  9  1  0
  9 10  1  0
  9 11  1  0
 11 12  1  0
 12 13  1  0
 13 14  2  0
 14 15  1  0
 15 16  2  0
 16 17  1  0
 17 18  2  0
  2 19  1  0
 19 20  2  0
 20 21  1  0
 21 22  2  0
 22 23  1  0
 23 24  2  0
 24 25  1  0
 24 26  1  0
 26 27  2  0
 27 28  1  0
 28 29  2  0
 12  7  1  0
 18 13  1  0
 29 19  1  0
 28 22  1  0
  3 30  1  0
  4 31  1  0
  4 32  1  0
  8 33  1  0
  8 34  1  0
  9 35  1  6
 10 36  1  0
 11 37  1  0
 11 38  1  0
 12 39  1  6
 14 40  1  0
 15 41  1  0
 16 42  1  0
 17 43  1  0
 18 44  1  0
 20 45  1  0
 21 46  1  0
 23 47  1  0
 26 48  1  0
 27 49  1  0
M  END
>  <meeko>  (19) 
{"free_energy": -8.33, "intermolecular_energy": -10.12, "internal_energy": -2.1, "cluster_size": 5, "cluster_id": 1, "rank_in_cluster": 2}

$$$$

     RDKit          3D

 49 52  0  0  0  0  0  0  0  0999 V2000
  135.0870   68.5140  225.0070 O   0  0  0  0  0  0  0  0  0  0  0  0
  135.5860   69.6240  224.6430 C   0  0  0  0  0  0  0  0  0  0  0  0
  136.7390   69.6720  223.8180 N   0  0  0  0  0  0  0  0  0  0  0  0
  137.3690   68.4720  223.3710 C   0  0  0  0  0  0  0  0  0  0  0  0
  138.7920   68.3690  223.8180 C   0  0  0  0  0  0  0  0  0  0  0  0
  139.1850   67.2280  224.1560 O   0  0  0  0  0  0  0  0  0  0  0  0
  139.5750   69.5430  223.8250 N   0  0  0  0  0  0  0  0  0  0  0  0
  139.8260   70.4390  222.6660 C   0  0  0  0  0  0  0  0  0  0  0  0
  139.4480   71.7480  223.3430 C   0  0  1  0  0  0  0  0  0  0  0  0
  138.0720   71.9120  223.0580 O   0  0  0  0  0  0  0  0  0  0  0  0
  139.6160   71.5350  224.8510 C   0  0  0  0  0  0  0  0  0  0  0  0
  140.3110   70.2050  224.8890 C   0  0  1  0  0  0  0  0  0  0  0  0
  140.3680   69.5250  226.1620 C   0  0  0  0  0  0  0  0  0  0  0  0
  141.1570   68.4130  226.3360 C   0  0  0  0  0  0  0  0  0  0  0  0
  141.1770   67.7720  227.5780 C   0  0  0  0  0  0  0  0  0  0  0  0
  140.4140   68.2450  228.6360 C   0  0  0  0  0  0  0  0  0  0  0  0
  139.6240   69.3580  228.4650 C   0  0  0  0  0  0  0  0  0  0  0  0
  139.6140   69.9800  227.2300 C   0  0  0  0  0  0  0  0  0  0  0  0
  134.9660   70.8690  225.0830 C   0  0  0  0  0  0  0  0  0  0  0  0
  133.9050   70.8620  225.9640 C   0  0  0  0  0  0  0  0  0  0  0  0
  133.3200   72.0500  226.3750 C   0  0  0  0  0  0  0  0  0  0  0  0
  133.8230   73.2580  225.8840 C   0  0  0  0  0  0  0  0  0  0  0  0
  133.2940   74.4690  226.2480 C   0  0  0  0  0  0  0  0  0  0  0  0
  133.8280   75.6430  225.7310 C   0  0  0  0  0  0  0  0  0  0  0  0
  133.1780   77.2160  226.1730 Cl  0  0  0  0  0  0  0  0  0  0  0  0
  134.8910   75.6410  224.8480 C   0  0  0  0  0  0  0  0  0  0  0  0
  135.4100   74.4120  224.4940 C   0  0  0  0  0  0  0  0  0  0  0  0
  134.8830   73.2320  225.0040 C   0  0  0  0  0  0  0  0  0  0  0  0
  135.4280   72.0670  224.6240 N   0  0  0  0  0  0  0  0  0  0  0  0
  137.1010   70.6360  223.5530 H   0  0  0  0  0  0  0  0  0  0  0  0
  136.8113   67.6117  223.7696 H   0  0  0  0  0  0  0  0  0  0  0  0
  137.3652   68.4834  222.2711 H   0  0  0  0  0  0  0  0  0  0  0  0
  140.8776   70.4224  222.3437 H   0  0  0  0  0  0  0  0  0  0  0  0
  139.2889   70.1972  221.7370 H   0  0  0  0  0  0  0  0  0  0  0  0
  140.0473   72.6096  223.0136 H   0  0  0  0  0  0  0  0  0  0  0  0
  137.5880   72.2640  223.8450 H   0  0  0  0  0  0  0  0  0  0  0  0
  140.2346   72.3248  225.3020 H   0  0  0  0  0  0  0  0  0  0  0  0
  138.6728   71.5648  225.4163 H   0  0  0  0  0  0  0  0  0  0  0  0
  141.4004   70.2522  224.7439 H   0  0  0  0  0  0  0  0  0  0  0  0
  141.7676   68.0307  225.5047 H   0  0  0  0  0  0  0  0  0  0  0  0
  141.8061   66.8806  227.7185 H   0  0  0  0  0  0  0  0  0  0  0  0
  140.4408   67.7316  229.6084 H   0  0  0  0  0  0  0  0  0  0  0  0
  139.0128   69.7453  229.2935 H   0  0  0  0  0  0  0  0  0  0  0  0
  138.9829   70.8702  227.0910 H   0  0  0  0  0  0  0  0  0  0  0  0
  133.5191   69.9047  226.3443 H   0  0  0  0  0  0  0  0  0  0  0  0
  132.4730   72.0419  227.0768 H   0  0  0  0  0  0  0  0  0  0  0  0
  132.4473   74.5114  226.9489 H   0  0  0  0  0  0  0  0  0  0  0  0
  135.3051   76.5771  224.4452 H   0  0  0  0  0  0  0  0  0  0  0  0
  136.2575   74.3659  223.7943 H   0  0  0  0  0  0  0  0  0  0  0  0
  1  2  2  0
  2  3  1  0
  3  4  1  0
  4  5  1  0
  5  6  2  0
  5  7  1  0
  7  8  1  0
  8  9  1  0
  9 10  1  0
  9 11  1  0
 11 12  1  0
 12 13  1  0
 13 14  2  0
 14 15  1  0
 15 16  2  0
 16 17  1  0
 17 18  2  0
  2 19  1  0
 19 20  2  0
 20 21  1  0
 21 22  2  0
 22 23  1  0
 23 24  2  0
 24 25  1  0
 24 26  1  0
 26 27  2  0
 27 28  1  0
 28 29  2  0
 12  7  1  0
 18 13  1  0
 29 19  1  0
 28 22  1  0
  3 30  1  0
  4 31  1  0
  4 32  1  0
  8 33  1  0
  8 34  1  0
  9 35  1  6
 10 36  1  0
 11 37  1  0
 11 38  1  0
 12 39  1  6
 14 40  1  0
 15 41  1  0
 16 42  1  0
 17 43  1  0
 18 44  1  0
 20 45  1  0
 21 46  1  0
 23 47  1  0
 26 48  1  0
 27 49  1  0
M  END
>  <meeko>  (20) 
{"free_energy": -7.76, "intermolecular_energy": -9.55, "internal_energy": -3.38, "cluster_size": 8, "cluster_id": 4, "rank_in_cluster": 1}

$$$$
