
     RDKit          3D

 51 54  0  0  0  0  0  0  0  0999 V2000
  138.6850   71.4020  221.9160 O   0  0  0  0  0  0  0  0  0  0  0  0
  139.7430   71.2690  222.6220 C   0  0  0  0  0  0  0  0  0  0  0  0
  140.9460   71.9370  222.2170 N   0  0  0  0  0  0  0  0  0  0  0  0
  141.0530   72.7630  221.0600 C   0  0  0  0  0  0  0  0  0  0  0  0
  140.8730   74.1910  221.1510 C   0  0  0  0  0  0  0  0  0  0  0  0
  140.0980   74.5730  222.1340 O   0  0  0  0  0  0  0  0  0  0  0  0
  141.3770   75.2480  220.3700 N   0  0  0  0  0  0  0  0  0  0  0  0
  141.0810   76.6490  220.5300 C   0  0  0  0  0  0  0  0  0  0  0  0
  142.2140   77.5650  220.0900 C   0  0  0  0  0  0  0  0  0  0  0  0
  142.4790   77.3360  218.6480 C   0  0  0  0  0  0  0  0  0  0  0  0
  142.4500   75.9120  218.2270 C   0  0  0  0  0  0  0  0  0  0  0  0
  142.2740   74.8900  219.2730 C   0  0  1  0  0  0  0  0  0  0  0  0
  143.5180   74.2270  219.7420 C   0  0  0  0  0  0  0  0  0  0  0  0
  143.7400   72.8640  219.5000 C   0  0  0  0  0  0  0  0  0  0  0  0
  144.8820   72.2230  219.9270 C   0  0  0  0  0  0  0  0  0  0  0  0
  145.8650   72.8980  220.6160 C   0  0  0  0  0  0  0  0  0  0  0  0
  145.6710   74.2380  220.8670 C   0  0  0  0  0  0  0  0  0  0  0  0
  144.5160   74.8760  220.4330 C   0  0  0  0  0  0  0  0  0  0  0  0
  139.7370   70.4470  223.8350 C   0  0  0  0  0  0  0  0  0  0  0  0
  139.0510   69.2510  223.8130 C   0  0  0  0  0  0  0  0  0  0  0  0
  139.0600   68.4880  224.9730 C   0  0  0  0  0  0  0  0  0  0  0  0
  139.7170   68.8850  226.1150 C   0  0  0  0  0  0  0  0  0  0  0  0
  139.7280   68.1300  227.2690 C   0  0  0  0  0  0  0  0  0  0  0  0
  140.4050   68.5750  228.3930 C   0  0  0  0  0  0  0  0  0  0  0  0
  141.0760   69.7920  228.3450 C   0  0  0  0  0  0  0  0  0  0  0  0
  141.0770   70.5660  227.1950 C   0  0  0  0  0  0  0  0  0  0  0  0
  140.3890   70.0900  226.0890 C   0  0  0  0  0  0  0  0  0  0  0  0
  140.3640   70.8040  224.9590 N   0  0  0  0  0  0  0  0  0  0  0  0
  141.7860   71.7780  222.8490 H   0  0  0  0  0  0  0  0  0  0  0  0
  142.0608   72.5997  220.6505 H   0  0  0  0  0  0  0  0  0  0  0  0
  140.1903   72.4471  220.4550 H   0  0  0  0  0  0  0  0  0  0  0  0
  140.1892   76.8866  219.9314 H   0  0  0  0  0  0  0  0  0  0  0  0
  140.9227   76.8247  221.6043 H   0  0  0  0  0  0  0  0  0  0  0  0
  141.9254   78.6142  220.2512 H   0  0  0  0  0  0  0  0  0  0  0  0
  143.1194   77.3490  220.6761 H   0  0  0  0  0  0  0  0  0  0  0  0
  141.7171   77.8792  218.0697 H   0  0  0  0  0  0  0  0  0  0  0  0
  143.5026   77.6929  218.4612 H   0  0  0  0  0  0  0  0  0  0  0  0
  141.6205   75.7976  217.5137 H   0  0  0  0  0  0  0  0  0  0  0  0
  143.4547   75.7227  217.8210 H   0  0  0  0  0  0  0  0  0  0  0  0
  141.7332   74.1138  218.7117 H   0  0  0  0  0  0  0  0  0  0  0  0
  142.9789   72.2889  218.9523 H   0  0  0  0  0  0  0  0  0  0  0  0
  145.0113   71.1517  219.7136 H   0  0  0  0  0  0  0  0  0  0  0  0
  146.7761   72.3832  220.9550 H   0  0  0  0  0  0  0  0  0  0  0  0
  146.4362   74.8073  221.4151 H   0  0  0  0  0  0  0  0  0  0  0  0
  144.3935   75.9472  220.6511 H   0  0  0  0  0  0  0  0  0  0  0  0
  138.5175   68.9146  222.9118 H   0  0  0  0  0  0  0  0  0  0  0  0
  138.5211   67.5291  224.9793 H   0  0  0  0  0  0  0  0  0  0  0  0
  139.1956   67.1678  227.2973 H   0  0  0  0  0  0  0  0  0  0  0  0
  140.4116   67.9723  229.3131 H   0  0  0  0  0  0  0  0  0  0  0  0
  141.6156   70.1468  229.2354 H   0  0  0  0  0  0  0  0  0  0  0  0
  141.6076   71.5289  227.1608 H   0  0  0  0  0  0  0  0  0  0  0  0
  1  2  2  0
  2  3  1  0
  3  4  1  0
  4  5  1  0
  5  6  2  0
  5  7  1  0
  7  8  1  0
  8  9  1  0
  9 10  1  0
 10 11  1  0
 11 12  1  0
 12 13  1  0
 13 14  2  0
 14 15  1  0
 15 16  2  0
 16 17  1  0
 17 18  2  0
  2 19  1  0
 19 20  2  0
 20 21  1  0
 21 22  2  0
 22 23  1  0
 23 24  2  0
 24 25  1  0
 25 26  2  0
 26 27  1  0
 27 28  2  0
 12  7  1  0
 18 13  1  0
 28 19  1  0
 27 22  1  0
  3 29  1  0
  4 30  1  0
  4 31  1  0
  8 32  1  0
  8 33  1  0
  9 34  1  0
  9 35  1  0
 10 36  1  0
 10 37  1  0
 11 38  1  0
 11 39  1  0
 12 40  1  6
 14 41  1  0
 15 42  1  0
 16 43  1  0
 17 44  1  0
 18 45  1  0
 20 46  1  0
 21 47  1  0
 23 48  1  0
 24 49  1  0
 25 50  1  0
 26 51  1  0
M  END
>  <meeko>  (1) 
{"free_energy": -8.5, "intermolecular_energy": -9.99, "internal_energy": -1.41, "cluster_size": 12, "cluster_id": 1, "rank_in_cluster": 11}

$$$$

     RDKit          3D

 51 54  0  0  0  0  0  0  0  0999 V2000
  140.5770   71.4500  221.2620 O   0  0  0  0  0  0  0  0  0  0  0  0
  140.2100   72.0290  222.3410 C   0  0  0  0  0  0  0  0  0  0  0  0
  139.8520   73.4180  222.3050 N   0  0  0  0  0  0  0  0  0  0  0  0
  139.8700   74.2210  221.1270 C   0  0  0  0  0  0  0  0  0  0  0  0
  140.7970   75.3170  220.9930 C   0  0  0  0  0  0  0  0  0  0  0  0
  141.0470   75.9490  222.1110 O   0  0  0  0  0  0  0  0  0  0  0  0
  141.4780   75.8330  219.8740 N   0  0  0  0  0  0  0  0  0  0  0  0
  141.5070   77.2090  219.4490 C   0  0  0  0  0  0  0  0  0  0  0  0
  142.7880   77.5960  218.7220 C   0  0  0  0  0  0  0  0  0  0  0  0
  142.9170   76.7580  217.5050 C   0  0  0  0  0  0  0  0  0  0  0  0
  142.5520   75.3290  217.6890 C   0  0  0  0  0  0  0  0  0  0  0  0
  142.2130   74.8780  219.0490 C   0  0  1  0  0  0  0  0  0  0  0  0
  143.3050   74.1960  219.7920 C   0  0  0  0  0  0  0  0  0  0  0  0
  144.4620   74.8920  220.1680 C   0  0  0  0  0  0  0  0  0  0  0  0
  145.4900   74.2840  220.8520 C   0  0  0  0  0  0  0  0  0  0  0  0
  145.4270   72.9540  221.2040 C   0  0  0  0  0  0  0  0  0  0  0  0
  144.3010   72.2470  220.8470 C   0  0  0  0  0  0  0  0  0  0  0  0
  143.2680   72.8690  220.1560 C   0  0  0  0  0  0  0  0  0  0  0  0
  140.1490   71.2920  223.6050 C   0  0  0  0  0  0  0  0  0  0  0  0
  139.5980   70.0280  223.6010 C   0  0  0  0  0  0  0  0  0  0  0  0
  139.5510   69.3480  224.8110 C   0  0  0  0  0  0  0  0  0  0  0  0
  140.0270   69.8880  225.9830 C   0  0  0  0  0  0  0  0  0  0  0  0
  139.9830   69.2150  227.1860 C   0  0  0  0  0  0  0  0  0  0  0  0
  140.4760   69.8040  228.3390 C   0  0  0  0  0  0  0  0  0  0  0  0
  141.0190   71.0830  228.2710 C   0  0  0  0  0  0  0  0  0  0  0  0
  141.0740   71.7760  227.0710 C   0  0  0  0  0  0  0  0  0  0  0  0
  140.5710   71.1560  225.9370 C   0  0  0  0  0  0  0  0  0  0  0  0
  140.6020   71.7880  224.7590 N   0  0  0  0  0  0  0  0  0  0  0  0
  139.5600   73.8340  223.2400 H   0  0  0  0  0  0  0  0  0  0  0  0
  140.0668   73.5396  220.2862 H   0  0  0  0  0  0  0  0  0  0  0  0
  138.8954   74.7298  221.1644 H   0  0  0  0  0  0  0  0  0  0  0  0
  140.6573   77.3818  218.7722 H   0  0  0  0  0  0  0  0  0  0  0  0
  141.4518   77.8280  220.3566 H   0  0  0  0  0  0  0  0  0  0  0  0
  142.7455   78.6577  218.4373 H   0  0  0  0  0  0  0  0  0  0  0  0
  143.6548   77.4363  219.3801 H   0  0  0  0  0  0  0  0  0  0  0  0
  142.2631   77.1806  216.7280 H   0  0  0  0  0  0  0  0  0  0  0  0
  143.9824   76.7721  217.2316 H   0  0  0  0  0  0  0  0  0  0  0  0
  141.6799   75.1279  217.0494 H   0  0  0  0  0  0  0  0  0  0  0  0
  143.4661   74.7737  217.4321 H   0  0  0  0  0  0  0  0  0  0  0  0
  141.4835   74.0855  218.8260 H   0  0  0  0  0  0  0  0  0  0  0  0
  144.5512   75.9572  219.9084 H   0  0  0  0  0  0  0  0  0  0  0  0
  146.3794   74.8719  221.1229 H   0  0  0  0  0  0  0  0  0  0  0  0
  146.2498   72.4722  221.7526 H   0  0  0  0  0  0  0  0  0  0  0  0
  144.2183   71.1822  221.1105 H   0  0  0  0  0  0  0  0  0  0  0  0
  142.3819   72.2748  219.8882 H   0  0  0  0  0  0  0  0  0  0  0  0
  139.2109   69.5760  222.6758 H   0  0  0  0  0  0  0  0  0  0  0  0
  139.1160   68.3379  224.8329 H   0  0  0  0  0  0  0  0  0  0  0  0
  139.5534   68.2033  227.2304 H   0  0  0  0  0  0  0  0  0  0  0  0
  140.4385   69.2662  229.2978 H   0  0  0  0  0  0  0  0  0  0  0  0
  141.4115   71.5528  229.1849 H   0  0  0  0  0  0  0  0  0  0  0  0
  141.5038   72.7873  227.0201 H   0  0  0  0  0  0  0  0  0  0  0  0
  1  2  2  0
  2  3  1  0
  3  4  1  0
  4  5  1  0
  5  6  2  0
  5  7  1  0
  7  8  1  0
  8  9  1  0
  9 10  1  0
 10 11  1  0
 11 12  1  0
 12 13  1  0
 13 14  2  0
 14 15  1  0
 15 16  2  0
 16 17  1  0
 17 18  2  0
  2 19  1  0
 19 20  2  0
 20 21  1  0
 21 22  2  0
 22 23  1  0
 23 24  2  0
 24 25  1  0
 25 26  2  0
 26 27  1  0
 27 28  2  0
 12  7  1  0
 18 13  1  0
 28 19  1  0
 27 22  1  0
  3 29  1  0
  4 30  1  0
  4 31  1  0
  8 32  1  0
  8 33  1  0
  9 34  1  0
  9 35  1  0
 10 36  1  0
 10 37  1  0
 11 38  1  0
 11 39  1  0
 12 40  1  6
 14 41  1  0
 15 42  1  0
 16 43  1  0
 17 44  1  0
 18 45  1  0
 20 46  1  0
 21 47  1  0
 23 48  1  0
 24 49  1  0
 25 50  1  0
 26 51  1  0
M  END
>  <meeko>  (2) 
{"free_energy": -8.75, "intermolecular_energy": -10.24, "internal_energy": -1.88, "cluster_size": 12, "cluster_id": 1, "rank_in_cluster": 6}

$$$$

     RDKit          3D

 51 54  0  0  0  0  0  0  0  0999 V2000
  138.8470   75.2900  221.7740 O   0  0  0  0  0  0  0  0  0  0  0  0
  140.0180   75.7550  221.9910 C   0  0  0  0  0  0  0  0  0  0  0  0
  141.1540   74.8920  221.8400 N   0  0  0  0  0  0  0  0  0  0  0  0
  141.0750   73.5230  221.4520 C   0  0  0  0  0  0  0  0  0  0  0  0
  141.9440   72.9920  220.4310 C   0  0  0  0  0  0  0  0  0  0  0  0
  141.3170   72.4220  219.4340 O   0  0  0  0  0  0  0  0  0  0  0  0
  143.3480   72.9710  220.3160 N   0  0  0  0  0  0  0  0  0  0  0  0
  144.1690   71.8160  220.0620 C   0  0  0  0  0  0  0  0  0  0  0  0
  145.4560   72.1370  219.3130 C   0  0  0  0  0  0  0  0  0  0  0  0
  146.2620   73.0750  220.1320 C   0  0  0  0  0  0  0  0  0  0  0  0
  145.4820   74.1530  220.7940 C   0  0  0  0  0  0  0  0  0  0  0  0
  144.0440   74.2440  220.4930 C   0  0  1  0  0  0  0  0  0  0  0  0
  143.6610   75.2540  219.4740 C   0  0  0  0  0  0  0  0  0  0  0  0
  143.7840   74.9770  218.1050 C   0  0  0  0  0  0  0  0  0  0  0  0
  143.4420   75.8980  217.1400 C   0  0  0  0  0  0  0  0  0  0  0  0
  142.9590   77.1420  217.4780 C   0  0  0  0  0  0  0  0  0  0  0  0
  142.8280   77.4400  218.8150 C   0  0  0  0  0  0  0  0  0  0  0  0
  143.1760   76.5050  219.7830 C   0  0  0  0  0  0  0  0  0  0  0  0
  140.2090   77.1520  222.3880 C   0  0  0  0  0  0  0  0  0  0  0  0
  139.0920   77.9370  222.5850 C   0  0  0  0  0  0  0  0  0  0  0  0
  139.2980   79.2570  222.9610 C   0  0  0  0  0  0  0  0  0  0  0  0
  140.5540   79.7900  223.1370 C   0  0  0  0  0  0  0  0  0  0  0  0
  140.7620   81.1010  223.5110 C   0  0  0  0  0  0  0  0  0  0  0  0
  142.0480   81.5900  223.6750 C   0  0  0  0  0  0  0  0  0  0  0  0
  143.1300   80.7420  223.4590 C   0  0  0  0  0  0  0  0  0  0  0  0
  142.9420   79.4210  223.0830 C   0  0  0  0  0  0  0  0  0  0  0  0
  141.6410   78.9660  222.9290 C   0  0  0  0  0  0  0  0  0  0  0  0
  141.4140   77.6990  222.5660 N   0  0  0  0  0  0  0  0  0  0  0  0
  142.0960   75.3460  222.0400 H   0  0  0  0  0  0  0  0  0  0  0  0
  141.2583   72.9290  222.3595 H   0  0  0  0  0  0  0  0  0  0  0  0
  140.0819   73.4599  220.9832 H   0  0  0  0  0  0  0  0  0  0  0  0
  144.4328   71.3576  221.0265 H   0  0  0  0  0  0  0  0  0  0  0  0
  143.5840   71.1378  219.4233 H   0  0  0  0  0  0  0  0  0  0  0  0
  146.0255   71.2115  219.1422 H   0  0  0  0  0  0  0  0  0  0  0  0
  145.2196   72.5958  218.3416 H   0  0  0  0  0  0  0  0  0  0  0  0
  146.7740   72.4940  220.9132 H   0  0  0  0  0  0  0  0  0  0  0  0
  146.9544   73.5749  219.4387 H   0  0  0  0  0  0  0  0  0  0  0  0
  145.5814   74.0101  221.8802 H   0  0  0  0  0  0  0  0  0  0  0  0
  145.9076   75.0864  220.3970 H   0  0  0  0  0  0  0  0  0  0  0  0
  143.6610   74.6426  221.4440 H   0  0  0  0  0  0  0  0  0  0  0  0
  144.1654   73.9938  217.7922 H   0  0  0  0  0  0  0  0  0  0  0  0
  143.5570   75.6345  216.0782 H   0  0  0  0  0  0  0  0  0  0  0  0
  142.6864   77.8745  216.7039 H   0  0  0  0  0  0  0  0  0  0  0  0
  142.4452   78.4251  219.1200 H   0  0  0  0  0  0  0  0  0  0  0  0
  143.0587   76.7765  220.8425 H   0  0  0  0  0  0  0  0  0  0  0  0
  138.0780   77.5327  222.4495 H   0  0  0  0  0  0  0  0  0  0  0  0
  138.4225   79.9025  223.1247 H   0  0  0  0  0  0  0  0  0  0  0  0
  139.9004   81.7635  223.6804 H   0  0  0  0  0  0  0  0  0  0  0  0
  142.2117   82.6363  223.9725 H   0  0  0  0  0  0  0  0  0  0  0  0
  144.1524   81.1266  223.5889 H   0  0  0  0  0  0  0  0  0  0  0  0
  143.7994   78.7534  222.9118 H   0  0  0  0  0  0  0  0  0  0  0  0
  1  2  2  0
  2  3  1  0
  3  4  1  0
  4  5  1  0
  5  6  2  0
  5  7  1  0
  7  8  1  0
  8  9  1  0
  9 10  1  0
 10 11  1  0
 11 12  1  0
 12 13  1  0
 13 14  2  0
 14 15  1  0
 15 16  2  0
 16 17  1  0
 17 18  2  0
  2 19  1  0
 19 20  2  0
 20 21  1  0
 21 22  2  0
 22 23  1  0
 23 24  2  0
 24 25  1  0
 25 26  2  0
 26 27  1  0
 27 28  2  0
 12  7  1  0
 18 13  1  0
 28 19  1  0
 27 22  1  0
  3 29  1  0
  4 30  1  0
  4 31  1  0
  8 32  1  0
  8 33  1  0
  9 34  1  0
  9 35  1  0
 10 36  1  0
 10 37  1  0
 11 38  1  0
 11 39  1  0
 12 40  1  1
 14 41  1  0
 15 42  1  0
 16 43  1  0
 17 44  1  0
 18 45  1  0
 20 46  1  0
 21 47  1  0
 23 48  1  0
 24 49  1  0
 25 50  1  0
 26 51  1  0
M  END
>  <meeko>  (3) 
{"free_energy": -7.9, "intermolecular_energy": -9.39, "internal_energy": -2.26, "cluster_size": 6, "cluster_id": 3, "rank_in_cluster": 5}

$$$$

     RDKit          3D

 51 54  0  0  0  0  0  0  0  0999 V2000
  139.3740   70.9630  221.3840 O   0  0  0  0  0  0  0  0  0  0  0  0
  139.5840   71.5470  222.5020 C   0  0  0  0  0  0  0  0  0  0  0  0
  139.7050   72.9770  222.5350 N   0  0  0  0  0  0  0  0  0  0  0  0
  139.6010   73.8160  221.3880 C   0  0  0  0  0  0  0  0  0  0  0  0
  140.0200   75.1960  221.4410 C   0  0  0  0  0  0  0  0  0  0  0  0
  139.9800   75.7240  222.6360 O   0  0  0  0  0  0  0  0  0  0  0  0
  140.4590   76.0770  220.4350 N   0  0  0  0  0  0  0  0  0  0  0  0
  140.0560   76.0670  219.0520 C   0  0  0  0  0  0  0  0  0  0  0  0
  140.0900   77.4420  218.3980 C   0  0  0  0  0  0  0  0  0  0  0  0
  141.4800   77.9580  218.4450 C   0  0  0  0  0  0  0  0  0  0  0  0
  142.1950   77.7100  219.7240 C   0  0  0  0  0  0  0  0  0  0  0  0
  141.4370   77.0910  220.8240 C   0  0  1  0  0  0  0  0  0  0  0  0
  140.9160   78.0260  221.8540 C   0  0  0  0  0  0  0  0  0  0  0  0
  141.7360   78.4760  222.8970 C   0  0  0  0  0  0  0  0  0  0  0  0
  141.2770   79.3390  223.8680 C   0  0  0  0  0  0  0  0  0  0  0  0
  139.9810   79.8030  223.8560 C   0  0  0  0  0  0  0  0  0  0  0  0
  139.1530   79.3770  222.8420 C   0  0  0  0  0  0  0  0  0  0  0  0
  139.6250   78.5060  221.8670 C   0  0  0  0  0  0  0  0  0  0  0  0
  139.7000   70.7760  223.7420 C   0  0  0  0  0  0  0  0  0  0  0  0
  139.2430   69.4750  223.7500 C   0  0  0  0  0  0  0  0  0  0  0  0
  139.3630   68.7620  224.9350 C   0  0  0  0  0  0  0  0  0  0  0  0
  139.9110   69.3070  226.0730 C   0  0  0  0  0  0  0  0  0  0  0  0
  140.0330   68.6020  227.2530 C   0  0  0  0  0  0  0  0  0  0  0  0
  140.5920   69.1960  228.3720 C   0  0  0  0  0  0  0  0  0  0  0  0
  141.0330   70.5140  228.2940 C   0  0  0  0  0  0  0  0  0  0  0  0
  140.9210   71.2390  227.1170 C   0  0  0  0  0  0  0  0  0  0  0  0
  140.3550   70.6120  226.0170 C   0  0  0  0  0  0  0  0  0  0  0  0
  140.2270   71.2750  224.8630 N   0  0  0  0  0  0  0  0  0  0  0  0
  139.8830   73.3930  223.4980 H   0  0  0  0  0  0  0  0  0  0  0  0
  140.1950   73.3381  220.5950 H   0  0  0  0  0  0  0  0  0  0  0  0
  138.5136   73.8967  221.2426 H   0  0  0  0  0  0  0  0  0  0  0  0
  140.7331   75.4010  218.4971 H   0  0  0  0  0  0  0  0  0  0  0  0
  139.0123   75.7209  219.0222 H   0  0  0  0  0  0  0  0  0  0  0  0
  139.7602   77.3622  217.3516 H   0  0  0  0  0  0  0  0  0  0  0  0
  139.4177   78.1281  218.9339 H   0  0  0  0  0  0  0  0  0  0  0  0
  142.0503   77.4785  217.6358 H   0  0  0  0  0  0  0  0  0  0  0  0
  141.4081   79.0504  218.3378 H   0  0  0  0  0  0  0  0  0  0  0  0
  143.0474   77.0513  219.5013 H   0  0  0  0  0  0  0  0  0  0  0  0
  142.4549   78.7122  220.0955 H   0  0  0  0  0  0  0  0  0  0  0  0
  142.2354   76.5281  221.3297 H   0  0  0  0  0  0  0  0  0  0  0  0
  142.7790   78.1294  222.9421 H   0  0  0  0  0  0  0  0  0  0  0  0
  141.9589   79.6633  224.6678 H   0  0  0  0  0  0  0  0  0  0  0  0
  139.6183   80.4927  224.6324 H   0  0  0  0  0  0  0  0  0  0  0  0
  138.1113   79.7281  222.8031 H   0  0  0  0  0  0  0  0  0  0  0  0
  138.9371   78.1859  221.0706 H   0  0  0  0  0  0  0  0  0  0  0  0
  138.8003   69.0196  222.8518 H   0  0  0  0  0  0  0  0  0  0  0  0
  139.0064   67.7218  224.9652 H   0  0  0  0  0  0  0  0  0  0  0  0
  139.6836   67.5603  227.3051 H   0  0  0  0  0  0  0  0  0  0  0  0
  140.6865   68.6326  229.3120 H   0  0  0  0  0  0  0  0  0  0  0  0
  141.4779   70.9886  229.1810 H   0  0  0  0  0  0  0  0  0  0  0  0
  141.2707   72.2803  227.0577 H   0  0  0  0  0  0  0  0  0  0  0  0
  1  2  2  0
  2  3  1  0
  3  4  1  0
  4  5  1  0
  5  6  2  0
  5  7  1  0
  7  8  1  0
  8  9  1  0
  9 10  1  0
 10 11  1  0
 11 12  1  0
 12 13  1  0
 13 14  2  0
 14 15  1  0
 15 16  2  0
 16 17  1  0
 17 18  2  0
  2 19  1  0
 19 20  2  0
 20 21  1  0
 21 22  2  0
 22 23  1  0
 23 24  2  0
 24 25  1  0
 25 26  2  0
 26 27  1  0
 27 28  2  0
 12  7  1  0
 18 13  1  0
 28 19  1  0
 27 22  1  0
  3 29  1  0
  4 30  1  0
  4 31  1  0
  8 32  1  0
  8 33  1  0
  9 34  1  0
  9 35  1  0
 10 36  1  0
 10 37  1  0
 11 38  1  0
 11 39  1  0
 12 40  1  1
 14 41  1  0
 15 42  1  0
 16 43  1  0
 17 44  1  0
 18 45  1  0
 20 46  1  0
 21 47  1  0
 23 48  1  0
 24 49  1  0
 25 50  1  0
 26 51  1  0
M  END
>  <meeko>  (4) 
{"free_energy": -8.29, "intermolecular_energy": -9.78, "internal_energy": -1.51, "cluster_size": 2, "cluster_id": 2, "rank_in_cluster": 2}

$$$$

     RDKit          3D

 51 54  0  0  0  0  0  0  0  0999 V2000
  141.0000   71.4340  221.4250 O   0  0  0  0  0  0  0  0  0  0  0  0
  140.3480   71.9190  222.4120 C   0  0  0  0  0  0  0  0  0  0  0  0
  139.7550   73.2200  222.2900 N   0  0  0  0  0  0  0  0  0  0  0  0
  139.8340   74.0310  221.1210 C   0  0  0  0  0  0  0  0  0  0  0  0
  140.7230   75.1650  221.0650 C   0  0  0  0  0  0  0  0  0  0  0  0
  140.9510   75.7260  222.2250 O   0  0  0  0  0  0  0  0  0  0  0  0
  141.3850   75.7810  219.9860 N   0  0  0  0  0  0  0  0  0  0  0  0
  141.3440   77.1790  219.6420 C   0  0  0  0  0  0  0  0  0  0  0  0
  142.6090   77.6740  218.9550 C   0  0  0  0  0  0  0  0  0  0  0  0
  142.7940   76.9170  217.6920 C   0  0  0  0  0  0  0  0  0  0  0  0
  142.5050   75.4630  217.7890 C   0  0  0  0  0  0  0  0  0  0  0  0
  142.1780   74.9150  219.1160 C   0  0  1  0  0  0  0  0  0  0  0  0
  143.2970   74.2500  219.8320 C   0  0  0  0  0  0  0  0  0  0  0  0
  144.4510   74.9650  220.1830 C   0  0  0  0  0  0  0  0  0  0  0  0
  145.5050   74.3720  220.8420 C   0  0  0  0  0  0  0  0  0  0  0  0
  145.4720   73.0400  221.1900 C   0  0  0  0  0  0  0  0  0  0  0  0
  144.3500   72.3150  220.8580 C   0  0  0  0  0  0  0  0  0  0  0  0
  143.2920   72.9210  220.1930 C   0  0  0  0  0  0  0  0  0  0  0  0
  140.2010   71.1640  223.6580 C   0  0  0  0  0  0  0  0  0  0  0  0
  139.5580   69.9440  223.6140 C   0  0  0  0  0  0  0  0  0  0  0  0
  139.4300   69.2450  224.8070 C   0  0  0  0  0  0  0  0  0  0  0  0
  139.9150   69.7250  226.0010 C   0  0  0  0  0  0  0  0  0  0  0  0
  139.7910   69.0330  227.1880 C   0  0  0  0  0  0  0  0  0  0  0  0
  140.2960   69.5610  228.3660 C   0  0  0  0  0  0  0  0  0  0  0  0
  140.9330   70.7970  228.3380 C   0  0  0  0  0  0  0  0  0  0  0  0
  141.0700   71.5080  227.1550 C   0  0  0  0  0  0  0  0  0  0  0  0
  140.5510   70.9500  225.9960 C   0  0  0  0  0  0  0  0  0  0  0  0
  140.6590   71.6010  224.8340 N   0  0  0  0  0  0  0  0  0  0  0  0
  139.2310   73.5610  223.1520 H   0  0  0  0  0  0  0  0  0  0  0  0
  140.1249   73.3640  220.2961 H   0  0  0  0  0  0  0  0  0  0  0  0
  138.8396   74.4998  221.0829 H   0  0  0  0  0  0  0  0  0  0  0  0
  140.4927   77.3461  218.9657 H   0  0  0  0  0  0  0  0  0  0  0  0
  141.2467   77.7404  220.5829 H   0  0  0  0  0  0  0  0  0  0  0  0
  142.5133   78.7470  218.7324 H   0  0  0  0  0  0  0  0  0  0  0  0
  143.4767   77.5207  219.6135 H   0  0  0  0  0  0  0  0  0  0  0  0
  142.1251   77.3489  216.9331 H   0  0  0  0  0  0  0  0  0  0  0  0
  143.8593   77.0043  217.4319 H   0  0  0  0  0  0  0  0  0  0  0  0
  141.6511   75.2534  217.1280 H   0  0  0  0  0  0  0  0  0  0  0  0
  143.4506   74.9736  217.5126 H   0  0  0  0  0  0  0  0  0  0  0  0
  141.4950   74.0987  218.8381 H   0  0  0  0  0  0  0  0  0  0  0  0
  144.5165   76.0321  219.9241 H   0  0  0  0  0  0  0  0  0  0  0  0
  146.3902   74.9739  221.0952 H   0  0  0  0  0  0  0  0  0  0  0  0
  146.3157   72.5702  221.7167 H   0  0  0  0  0  0  0  0  0  0  0  0
  144.2910   71.2486  221.1211 H   0  0  0  0  0  0  0  0  0  0  0  0
  142.4105   72.3121  219.9434 H   0  0  0  0  0  0  0  0  0  0  0  0
  139.1621   69.5407  222.6703 H   0  0  0  0  0  0  0  0  0  0  0  0
  138.9211   68.2699  224.7966 H   0  0  0  0  0  0  0  0  0  0  0  0
  139.2877   68.0550  227.1997 H   0  0  0  0  0  0  0  0  0  0  0  0
  140.1941   69.0088  229.3119 H   0  0  0  0  0  0  0  0  0  0  0  0
  141.3355   71.2184  229.2710 H   0  0  0  0  0  0  0  0  0  0  0  0
  141.5751   72.4850  227.1365 H   0  0  0  0  0  0  0  0  0  0  0  0
  1  2  2  0
  2  3  1  0
  3  4  1  0
  4  5  1  0
  5  6  2  0
  5  7  1  0
  7  8  1  0
  8  9  1  0
  9 10  1  0
 10 11  1  0
 11 12  1  0
 12 13  1  0
 13 14  2  0
 14 15  1  0
 15 16  2  0
 16 17  1  0
 17 18  2  0
  2 19  1  0
 19 20  2  0
 20 21  1  0
 21 22  2  0
 22 23  1  0
 23 24  2  0
 24 25  1  0
 25 26  2  0
 26 27  1  0
 27 28  2  0
 12  7  1  0
 18 13  1  0
 28 19  1  0
 27 22  1  0
  3 29  1  0
  4 30  1  0
  4 31  1  0
  8 32  1  0
  8 33  1  0
  9 34  1  0
  9 35  1  0
 10 36  1  0
 10 37  1  0
 11 38  1  0
 11 39  1  0
 12 40  1  6
 14 41  1  0
 15 42  1  0
 16 43  1  0
 17 44  1  0
 18 45  1  0
 20 46  1  0
 21 47  1  0
 23 48  1  0
 24 49  1  0
 25 50  1  0
 26 51  1  0
M  END
>  <meeko>  (5) 
{"free_energy": -8.82, "intermolecular_energy": -10.31, "internal_energy": -1.76, "cluster_size": 12, "cluster_id": 1, "rank_in_cluster": 1}

$$$$

     RDKit          3D

 51 54  0  0  0  0  0  0  0  0999 V2000
  141.3010   72.0440  221.6260 O   0  0  0  0  0  0  0  0  0  0  0  0
  140.4090   72.3570  222.4870 C   0  0  0  0  0  0  0  0  0  0  0  0
  139.6100   73.5300  222.2750 N   0  0  0  0  0  0  0  0  0  0  0  0
  139.7340   74.3910  221.1470 C   0  0  0  0  0  0  0  0  0  0  0  0
  140.8880   75.2410  220.9870 C   0  0  0  0  0  0  0  0  0  0  0  0
  141.4460   75.6040  222.1130 O   0  0  0  0  0  0  0  0  0  0  0  0
  141.5180   75.7550  219.8380 N   0  0  0  0  0  0  0  0  0  0  0  0
  141.4970   77.1240  219.3900 C   0  0  0  0  0  0  0  0  0  0  0  0
  142.7430   77.5300  218.6150 C   0  0  0  0  0  0  0  0  0  0  0  0
  142.8530   76.6750  217.4080 C   0  0  0  0  0  0  0  0  0  0  0  0
  142.5320   75.2420  217.6270 C   0  0  0  0  0  0  0  0  0  0  0  0
  142.2500   74.8040  219.0050 C   0  0  1  0  0  0  0  0  0  0  0  0
  143.3820   74.1640  219.7220 C   0  0  0  0  0  0  0  0  0  0  0  0
  144.4620   74.9270  220.1860 C   0  0  0  0  0  0  0  0  0  0  0  0
  145.5270   74.3580  220.8490 C   0  0  0  0  0  0  0  0  0  0  0  0
  145.5780   73.0030  221.0900 C   0  0  0  0  0  0  0  0  0  0  0  0
  144.5290   72.2300  220.6440 C   0  0  0  0  0  0  0  0  0  0  0  0
  143.4590   72.8130  219.9760 C   0  0  0  0  0  0  0  0  0  0  0  0
  140.1960   71.5340  223.6800 C   0  0  0  0  0  0  0  0  0  0  0  0
  139.4780   70.3630  223.5490 C   0  0  0  0  0  0  0  0  0  0  0  0
  139.2890   69.5990  224.6920 C   0  0  0  0  0  0  0  0  0  0  0  0
  139.7860   69.9690  225.9200 C   0  0  0  0  0  0  0  0  0  0  0  0
  139.6010   69.2110  227.0590 C   0  0  0  0  0  0  0  0  0  0  0  0
  140.1210   69.6280  228.2730 C   0  0  0  0  0  0  0  0  0  0  0  0
  140.8360   70.8210  228.3330 C   0  0  0  0  0  0  0  0  0  0  0  0
  141.0340   71.5960  227.2000 C   0  0  0  0  0  0  0  0  0  0  0  0
  140.4980   71.1480  226.0020 C   0  0  0  0  0  0  0  0  0  0  0  0
  140.6640   71.8640  224.8860 N   0  0  0  0  0  0  0  0  0  0  0  0
  138.8910   73.7300  223.0340 H   0  0  0  0  0  0  0  0  0  0  0  0
  139.6931   73.7474  220.2558 H   0  0  0  0  0  0  0  0  0  0  0  0
  138.9197   75.1139  221.3027 H   0  0  0  0  0  0  0  0  0  0  0  0
  140.6214   77.2636  218.7389 H   0  0  0  0  0  0  0  0  0  0  0  0
  141.4549   77.7572  220.2885 H   0  0  0  0  0  0  0  0  0  0  0  0
  142.6646   78.5854  218.3149 H   0  0  0  0  0  0  0  0  0  0  0  0
  143.6347   77.4028  219.2465 H   0  0  0  0  0  0  0  0  0  0  0  0
  142.1627   77.0676  216.6468 H   0  0  0  0  0  0  0  0  0  0  0  0
  143.9079   76.7116  217.0985 H   0  0  0  0  0  0  0  0  0  0  0  0
  141.6447   75.0081  217.0204 H   0  0  0  0  0  0  0  0  0  0  0  0
  143.4517   74.7065  217.3489 H   0  0  0  0  0  0  0  0  0  0  0  0
  141.5360   73.9880  218.8194 H   0  0  0  0  0  0  0  0  0  0  0  0
  144.4592   76.0137  220.0155 H   0  0  0  0  0  0  0  0  0  0  0  0
  146.3528   74.9983  221.1926 H   0  0  0  0  0  0  0  0  0  0  0  0
  146.4292   72.5526  221.6216 H   0  0  0  0  0  0  0  0  0  0  0  0
  144.5382   71.1438  220.8177 H   0  0  0  0  0  0  0  0  0  0  0  0
  142.6370   72.1664  219.6350 H   0  0  0  0  0  0  0  0  0  0  0  0
  139.0714   70.0475  222.5768 H   0  0  0  0  0  0  0  0  0  0  0  0
  138.7197   68.6611  224.6129 H   0  0  0  0  0  0  0  0  0  0  0  0
  139.0363   68.2687  227.0018 H   0  0  0  0  0  0  0  0  0  0  0  0
  139.9708   69.0234  229.1796 H   0  0  0  0  0  0  0  0  0  0  0  0
  141.2510   71.1547  229.2955 H   0  0  0  0  0  0  0  0  0  0  0  0
  141.5995   72.5382  227.2501 H   0  0  0  0  0  0  0  0  0  0  0  0
  1  2  2  0
  2  3  1  0
  3  4  1  0
  4  5  1  0
  5  6  2  0
  5  7  1  0
  7  8  1  0
  8  9  1  0
  9 10  1  0
 10 11  1  0
 11 12  1  0
 12 13  1  0
 13 14  2  0
 14 15  1  0
 15 16  2  0
 16 17  1  0
 17 18  2  0
  2 19  1  0
 19 20  2  0
 20 21  1  0
 21 22  2  0
 22 23  1  0
 23 24  2  0
 24 25  1  0
 25 26  2  0
 26 27  1  0
 27 28  2  0
 12  7  1  0
 18 13  1  0
 28 19  1  0
 27 22  1  0
  3 29  1  0
  4 30  1  0
  4 31  1  0
  8 32  1  0
  8 33  1  0
  9 34  1  0
  9 35  1  0
 10 36  1  0
 10 37  1  0
 11 38  1  0
 11 39  1  0
 12 40  1  6
 14 41  1  0
 15 42  1  0
 16 43  1  0
 17 44  1  0
 18 45  1  0
 20 46  1  0
 21 47  1  0
 23 48  1  0
 24 49  1  0
 25 50  1  0
 26 51  1  0
M  END
>  <meeko>  (6) 
{"free_energy": -8.77, "intermolecular_energy": -10.26, "internal_energy": -1.69, "cluster_size": 12, "cluster_id": 1, "rank_in_cluster": 2}

$$$$

     RDKit          3D

 51 54  0  0  0  0  0  0  0  0999 V2000
  140.6650   71.4550  221.2700 O   0  0  0  0  0  0  0  0  0  0  0  0
  140.2490   72.0300  222.3330 C   0  0  0  0  0  0  0  0  0  0  0  0
  139.8550   73.4080  222.2780 N   0  0  0  0  0  0  0  0  0  0  0  0
  139.8880   74.2040  221.0960 C   0  0  0  0  0  0  0  0  0  0  0  0
  140.7930   75.3220  220.9810 C   0  0  0  0  0  0  0  0  0  0  0  0
  141.0170   75.9490  222.1070 O   0  0  0  0  0  0  0  0  0  0  0  0
  141.4750   75.8620  219.8740 N   0  0  0  0  0  0  0  0  0  0  0  0
  141.4900   77.2440  219.4690 C   0  0  0  0  0  0  0  0  0  0  0  0
  142.7710   77.6550  218.7560 C   0  0  0  0  0  0  0  0  0  0  0  0
  142.9160   76.8370  217.5270 C   0  0  0  0  0  0  0  0  0  0  0  0
  142.5670   75.4020  217.6880 C   0  0  0  0  0  0  0  0  0  0  0  0
  142.2250   74.9260  219.0390 C   0  0  1  0  0  0  0  0  0  0  0  0
  143.3190   74.2460  219.7780 C   0  0  0  0  0  0  0  0  0  0  0  0
  144.4690   74.9480  220.1660 C   0  0  0  0  0  0  0  0  0  0  0  0
  145.5000   74.3420  220.8480 C   0  0  0  0  0  0  0  0  0  0  0  0
  145.4480   73.0070  221.1830 C   0  0  0  0  0  0  0  0  0  0  0  0
  144.3290   72.2940  220.8140 C   0  0  0  0  0  0  0  0  0  0  0  0
  143.2940   72.9140  220.1260 C   0  0  0  0  0  0  0  0  0  0  0  0
  140.1690   71.2980  223.6000 C   0  0  0  0  0  0  0  0  0  0  0  0
  139.6110   70.0370  223.5950 C   0  0  0  0  0  0  0  0  0  0  0  0
  139.5460   69.3620  224.8060 C   0  0  0  0  0  0  0  0  0  0  0  0
  140.0120   69.9050  225.9810 C   0  0  0  0  0  0  0  0  0  0  0  0
  139.9500   69.2370  227.1870 C   0  0  0  0  0  0  0  0  0  0  0  0
  140.4330   69.8280  228.3440 C   0  0  0  0  0  0  0  0  0  0  0  0
  140.9840   71.1040  228.2760 C   0  0  0  0  0  0  0  0  0  0  0  0
  141.0560   71.7910  227.0740 C   0  0  0  0  0  0  0  0  0  0  0  0
  140.5630   71.1690  225.9370 C   0  0  0  0  0  0  0  0  0  0  0  0
  140.6120   71.7960  224.7570 N   0  0  0  0  0  0  0  0  0  0  0  0
  139.5240   73.8210  223.2010 H   0  0  0  0  0  0  0  0  0  0  0  0
  140.1250   73.5224  220.2658 H   0  0  0  0  0  0  0  0  0  0  0  0
  138.9011   74.6897  221.1023 H   0  0  0  0  0  0  0  0  0  0  0  0
  140.6426   77.4166  218.7892 H   0  0  0  0  0  0  0  0  0  0  0  0
  141.4211   77.8498  220.3846 H   0  0  0  0  0  0  0  0  0  0  0  0
  142.7193   78.7204  218.4873 H   0  0  0  0  0  0  0  0  0  0  0  0
  143.6354   77.4940  219.4169 H   0  0  0  0  0  0  0  0  0  0  0  0
  142.2610   77.2635  216.7530 H   0  0  0  0  0  0  0  0  0  0  0  0
  143.9824   76.8678  217.2590 H   0  0  0  0  0  0  0  0  0  0  0  0
  141.7013   75.2002  217.0401 H   0  0  0  0  0  0  0  0  0  0  0  0
  143.4896   74.8618  217.4292 H   0  0  0  0  0  0  0  0  0  0  0  0
  141.5063   74.1283  218.7999 H   0  0  0  0  0  0  0  0  0  0  0  0
  144.5500   76.0165  219.9177 H   0  0  0  0  0  0  0  0  0  0  0  0
  146.3821   74.9353  221.1308 H   0  0  0  0  0  0  0  0  0  0  0  0
  146.2737   72.5258  221.7277 H   0  0  0  0  0  0  0  0  0  0  0  0
  144.2544   71.2258  221.0660 H   0  0  0  0  0  0  0  0  0  0  0  0
  142.4152   72.3143  219.8467 H   0  0  0  0  0  0  0  0  0  0  0  0
  139.2320   69.5836  222.6672 H   0  0  0  0  0  0  0  0  0  0  0  0
  139.1051   68.3544  224.8271 H   0  0  0  0  0  0  0  0  0  0  0  0
  139.5140   68.2280  227.2304 H   0  0  0  0  0  0  0  0  0  0  0  0
  140.3814   69.2946  229.3046 H   0  0  0  0  0  0  0  0  0  0  0  0
  141.3692   71.5758  229.1920 H   0  0  0  0  0  0  0  0  0  0  0  0
  141.4914   72.7999  227.0237 H   0  0  0  0  0  0  0  0  0  0  0  0
  1  2  2  0
  2  3  1  0
  3  4  1  0
  4  5  1  0
  5  6  2  0
  5  7  1  0
  7  8  1  0
  8  9  1  0
  9 10  1  0
 10 11  1  0
 11 12  1  0
 12 13  1  0
 13 14  2  0
 14 15  1  0
 15 16  2  0
 16 17  1  0
 17 18  2  0
  2 19  1  0
 19 20  2  0
 20 21  1  0
 21 22  2  0
 22 23  1  0
 23 24  2  0
 24 25  1  0
 25 26  2  0
 26 27  1  0
 27 28  2  0
 12  7  1  0
 18 13  1  0
 28 19  1  0
 27 22  1  0
  3 29  1  0
  4 30  1  0
  4 31  1  0
  8 32  1  0
  8 33  1  0
  9 34  1  0
  9 35  1  0
 10 36  1  0
 10 37  1  0
 11 38  1  0
 11 39  1  0
 12 40  1  6
 14 41  1  0
 15 42  1  0
 16 43  1  0
 17 44  1  0
 18 45  1  0
 20 46  1  0
 21 47  1  0
 23 48  1  0
 24 49  1  0
 25 50  1  0
 26 51  1  0
M  END
>  <meeko>  (7) 
{"free_energy": -8.75, "intermolecular_energy": -10.24, "internal_energy": -1.86, "cluster_size": 12, "cluster_id": 1, "rank_in_cluster": 5}

$$$$

     RDKit          3D

 51 54  0  0  0  0  0  0  0  0999 V2000
  140.9780   71.7480  221.4240 O   0  0  0  0  0  0  0  0  0  0  0  0
  140.3290   72.2110  222.4230 C   0  0  0  0  0  0  0  0  0  0  0  0
  139.7200   73.5070  222.3250 N   0  0  0  0  0  0  0  0  0  0  0  0
  139.7820   74.3350  221.1670 C   0  0  0  0  0  0  0  0  0  0  0  0
  140.8540   75.2840  220.9910 C   0  0  0  0  0  0  0  0  0  0  0  0
  141.3140   75.7860  222.1080 O   0  0  0  0  0  0  0  0  0  0  0  0
  141.4910   75.7700  219.8340 N   0  0  0  0  0  0  0  0  0  0  0  0
  141.4690   77.1270  219.3500 C   0  0  0  0  0  0  0  0  0  0  0  0
  142.7200   77.5170  218.5740 C   0  0  0  0  0  0  0  0  0  0  0  0
  142.8400   76.6320  217.3900 C   0  0  0  0  0  0  0  0  0  0  0  0
  142.5210   75.2030  217.6430 C   0  0  0  0  0  0  0  0  0  0  0  0
  142.2310   74.8010  219.0290 C   0  0  1  0  0  0  0  0  0  0  0  0
  143.3600   74.1810  219.7700 C   0  0  0  0  0  0  0  0  0  0  0  0
  144.4590   74.9490  220.1770 C   0  0  0  0  0  0  0  0  0  0  0  0
  145.5210   74.4000  220.8600 C   0  0  0  0  0  0  0  0  0  0  0  0
  145.5510   73.0610  221.1790 C   0  0  0  0  0  0  0  0  0  0  0  0
  144.4820   72.2830  220.7920 C   0  0  0  0  0  0  0  0  0  0  0  0
  143.4150   72.8460  220.1020 C   0  0  0  0  0  0  0  0  0  0  0  0
  140.1990   71.4360  223.6590 C   0  0  0  0  0  0  0  0  0  0  0  0
  139.6000   70.1950  223.5960 C   0  0  0  0  0  0  0  0  0  0  0  0
  139.4890   69.4780  224.7790 C   0  0  0  0  0  0  0  0  0  0  0  0
  139.9480   69.9600  225.9830 C   0  0  0  0  0  0  0  0  0  0  0  0
  139.8400   69.2510  227.1610 C   0  0  0  0  0  0  0  0  0  0  0  0
  140.3180   69.7810  228.3480 C   0  0  0  0  0  0  0  0  0  0  0  0
  140.9120   71.0400  228.3400 C   0  0  0  0  0  0  0  0  0  0  0  0
  141.0310   71.7690  227.1660 C   0  0  0  0  0  0  0  0  0  0  0  0
  140.5410   71.2070  225.9970 C   0  0  0  0  0  0  0  0  0  0  0  0
  140.6340   71.8750  224.8430 N   0  0  0  0  0  0  0  0  0  0  0  0
  139.2000   73.8290  223.1950 H   0  0  0  0  0  0  0  0  0  0  0  0
  139.8169   73.6588  220.3001 H   0  0  0  0  0  0  0  0  0  0  0  0
  138.9009   74.9830  221.2844 H   0  0  0  0  0  0  0  0  0  0  0  0
  140.5981   77.2465  218.6888 H   0  0  0  0  0  0  0  0  0  0  0  0
  141.4178   77.7834  220.2312 H   0  0  0  0  0  0  0  0  0  0  0  0
  142.6413   78.5643  218.2469 H   0  0  0  0  0  0  0  0  0  0  0  0
  143.6076   77.4085  219.2146 H   0  0  0  0  0  0  0  0  0  0  0  0
  142.1537   77.0034  216.6147 H   0  0  0  0  0  0  0  0  0  0  0  0
  143.8969   76.6635  217.0868 H   0  0  0  0  0  0  0  0  0  0  0  0
  141.6385   74.9512  217.0366 H   0  0  0  0  0  0  0  0  0  0  0  0
  143.4435   74.6625  217.3843 H   0  0  0  0  0  0  0  0  0  0  0  0
  141.5190   73.9801  218.8582 H   0  0  0  0  0  0  0  0  0  0  0  0
  144.4738   76.0239  219.9436 H   0  0  0  0  0  0  0  0  0  0  0  0
  146.3621   75.0439  221.1566 H   0  0  0  0  0  0  0  0  0  0  0  0
  146.4011   72.6264  221.7253 H   0  0  0  0  0  0  0  0  0  0  0  0
  144.4729   71.2092  221.0307 H   0  0  0  0  0  0  0  0  0  0  0  0
  142.5774   72.1963  219.8082 H   0  0  0  0  0  0  0  0  0  0  0  0
  139.2248   69.7894  222.6448 H   0  0  0  0  0  0  0  0  0  0  0  0
  139.0155   68.4855  224.7530 H   0  0  0  0  0  0  0  0  0  0  0  0
  139.3703   68.2563  227.1578 H   0  0  0  0  0  0  0  0  0  0  0  0
  140.2293   69.2137  229.2862 H   0  0  0  0  0  0  0  0  0  0  0  0
  141.2935   71.4639  229.2807 H   0  0  0  0  0  0  0  0  0  0  0  0
  141.5004   72.7638  227.1625 H   0  0  0  0  0  0  0  0  0  0  0  0
  1  2  2  0
  2  3  1  0
  3  4  1  0
  4  5  1  0
  5  6  2  0
  5  7  1  0
  7  8  1  0
  8  9  1  0
  9 10  1  0
 10 11  1  0
 11 12  1  0
 12 13  1  0
 13 14  2  0
 14 15  1  0
 15 16  2  0
 16 17  1  0
 17 18  2  0
  2 19  1  0
 19 20  2  0
 20 21  1  0
 21 22  2  0
 22 23  1  0
 23 24  2  0
 24 25  1  0
 25 26  2  0
 26 27  1  0
 27 28  2  0
 12  7  1  0
 18 13  1  0
 28 19  1  0
 27 22  1  0
  3 29  1  0
  4 30  1  0
  4 31  1  0
  8 32  1  0
  8 33  1  0
  9 34  1  0
  9 35  1  0
 10 36  1  0
 10 37  1  0
 11 38  1  0
 11 39  1  0
 12 40  1  6
 14 41  1  0
 15 42  1  0
 16 43  1  0
 17 44  1  0
 18 45  1  0
 20 46  1  0
 21 47  1  0
 23 48  1  0
 24 49  1  0
 25 50  1  0
 26 51  1  0
M  END
>  <meeko>  (8) 
{"free_energy": -8.75, "intermolecular_energy": -10.24, "internal_energy": -1.77, "cluster_size": 12, "cluster_id": 1, "rank_in_cluster": 3}

$$$$

     RDKit          3D

 51 54  0  0  0  0  0  0  0  0999 V2000
  140.5370   73.4780  222.3410 O   0  0  0  0  0  0  0  0  0  0  0  0
  140.6580   72.2060  222.3920 C   0  0  0  0  0  0  0  0  0  0  0  0
  141.0800   71.4930  221.2210 N   0  0  0  0  0  0  0  0  0  0  0  0
  141.3870   72.1110  219.9740 C   0  0  0  0  0  0  0  0  0  0  0  0
  140.7610   73.3530  219.5890 C   0  0  0  0  0  0  0  0  0  0  0  0
  139.6270   73.2080  218.9540 O   0  0  0  0  0  0  0  0  0  0  0  0
  141.1550   74.6920  219.7710 N   0  0  0  0  0  0  0  0  0  0  0  0
  140.4860   75.6790  220.5780 C   0  0  0  0  0  0  0  0  0  0  0  0
  141.4230   76.7330  221.1530 C   0  0  0  0  0  0  0  0  0  0  0  0
  142.0740   77.4530  220.0320 C   0  0  0  0  0  0  0  0  0  0  0  0
  142.5070   76.5900  218.9030 C   0  0  0  0  0  0  0  0  0  0  0  0
  142.3490   75.1340  219.0530 C   0  0  1  0  0  0  0  0  0  0  0  0
  143.5700   74.3910  219.4580 C   0  0  0  0  0  0  0  0  0  0  0  0
  143.9870   74.3690  220.7960 C   0  0  0  0  0  0  0  0  0  0  0  0
  145.1180   73.6940  221.1990 C   0  0  0  0  0  0  0  0  0  0  0  0
  145.8960   73.0020  220.2970 C   0  0  0  0  0  0  0  0  0  0  0  0
  145.5080   73.0070  218.9760 C   0  0  0  0  0  0  0  0  0  0  0  0
  144.3660   73.6920  218.5790 C   0  0  0  0  0  0  0  0  0  0  0  0
  140.3750   71.4750  223.6290 C   0  0  0  0  0  0  0  0  0  0  0  0
  139.6360   70.3130  223.5500 C   0  0  0  0  0  0  0  0  0  0  0  0
  139.3790   69.6360  224.7350 C   0  0  0  0  0  0  0  0  0  0  0  0
  139.8310   70.0830  225.9550 C   0  0  0  0  0  0  0  0  0  0  0  0
  139.5790   69.4130  227.1340 C   0  0  0  0  0  0  0  0  0  0  0  0
  140.0560   69.9050  228.3380 C   0  0  0  0  0  0  0  0  0  0  0  0
  140.7960   71.0840  228.3450 C   0  0  0  0  0  0  0  0  0  0  0  0
  141.0610   71.7720  227.1710 C   0  0  0  0  0  0  0  0  0  0  0  0
  140.5670   71.2500  225.9850 C   0  0  0  0  0  0  0  0  0  0  0  0
  140.7980   71.8820  224.8290 N   0  0  0  0  0  0  0  0  0  0  0  0
  141.1550   70.4380  221.3360 H   0  0  0  0  0  0  0  0  0  0  0  0
  142.4718   72.2935  219.9734 H   0  0  0  0  0  0  0  0  0  0  0  0
  140.9812   71.3970  219.2422 H   0  0  0  0  0  0  0  0  0  0  0  0
  139.7333   76.1851  219.9556 H   0  0  0  0  0  0  0  0  0  0  0  0
  140.0359   75.1482  221.4298 H   0  0  0  0  0  0  0  0  0  0  0  0
  140.8491   77.4437  221.7658 H   0  0  0  0  0  0  0  0  0  0  0  0
  142.1859   76.2525  221.7831 H   0  0  0  0  0  0  0  0  0  0  0  0
  141.3610   78.1942  219.6418 H   0  0  0  0  0  0  0  0  0  0  0  0
  142.9885   77.9043  220.4443 H   0  0  0  0  0  0  0  0  0  0  0  0
  141.9291   76.8934  218.0176 H   0  0  0  0  0  0  0  0  0  0  0  0
  143.5939   76.7456  218.8360 H   0  0  0  0  0  0  0  0  0  0  0  0
  142.1716   74.8397  218.0081 H   0  0  0  0  0  0  0  0  0  0  0  0
  143.3921   74.9079  221.5481 H   0  0  0  0  0  0  0  0  0  0  0  0
  145.4053   73.7077  222.2607 H   0  0  0  0  0  0  0  0  0  0  0  0
  146.7981   72.4628  220.6217 H   0  0  0  0  0  0  0  0  0  0  0  0
  146.1065   72.4647  218.2292 H   0  0  0  0  0  0  0  0  0  0  0  0
  144.0857   73.6749  217.5154 H   0  0  0  0  0  0  0  0  0  0  0  0
  139.2645   69.9370  222.5853 H   0  0  0  0  0  0  0  0  0  0  0  0
  138.7915   68.7068  224.6966 H   0  0  0  0  0  0  0  0  0  0  0  0
  138.9949   68.4810  227.1182 H   0  0  0  0  0  0  0  0  0  0  0  0
  139.8524   69.3702  229.2775 H   0  0  0  0  0  0  0  0  0  0  0  0
  141.1773   71.4768  229.2991 H   0  0  0  0  0  0  0  0  0  0  0  0
  141.6455   72.7038  227.1799 H   0  0  0  0  0  0  0  0  0  0  0  0
  1  2  2  0
  2  3  1  0
  3  4  1  0
  4  5  1  0
  5  6  2  0
  5  7  1  0
  7  8  1  0
  8  9  1  0
  9 10  1  0
 10 11  1  0
 11 12  1  0
 12 13  1  0
 13 14  2  0
 14 15  1  0
 15 16  2  0
 16 17  1  0
 17 18  2  0
  2 19  1  0
 19 20  2  0
 20 21  1  0
 21 22  2  0
 22 23  1  0
 23 24  2  0
 24 25  1  0
 25 26  2  0
 26 27  1  0
 27 28  2  0
 12  7  1  0
 18 13  1  0
 28 19  1  0
 27 22  1  0
  3 29  1  0
  4 30  1  0
  4 31  1  0
  8 32  1  0
  8 33  1  0
  9 34  1  0
  9 35  1  0
 10 36  1  0
 10 37  1  0
 11 38  1  0
 11 39  1  0
 12 40  1  6
 14 41  1  0
 15 42  1  0
 16 43  1  0
 17 44  1  0
 18 45  1  0
 20 46  1  0
 21 47  1  0
 23 48  1  0
 24 49  1  0
 25 50  1  0
 26 51  1  0
M  END
>  <meeko>  (9) 
{"free_energy": -8.04, "intermolecular_energy": -9.53, "internal_energy": -1.55, "cluster_size": 12, "cluster_id": 1, "rank_in_cluster": 12}

$$$$

     RDKit          3D

 51 54  0  0  0  0  0  0  0  0999 V2000
  138.8330   75.2680  221.7840 O   0  0  0  0  0  0  0  0  0  0  0  0
  140.0070   75.7340  221.9830 C   0  0  0  0  0  0  0  0  0  0  0  0
  141.1430   74.8770  221.7990 N   0  0  0  0  0  0  0  0  0  0  0  0
  141.0600   73.5120  221.3950 C   0  0  0  0  0  0  0  0  0  0  0  0
  141.9560   72.9800  220.3970 C   0  0  0  0  0  0  0  0  0  0  0  0
  141.3540   72.3970  219.3930 O   0  0  0  0  0  0  0  0  0  0  0  0
  143.3610   72.9710  220.3130 N   0  0  0  0  0  0  0  0  0  0  0  0
  144.1990   71.8170  220.1130 C   0  0  0  0  0  0  0  0  0  0  0  0
  145.4990   72.1270  219.3820 C   0  0  0  0  0  0  0  0  0  0  0  0
  146.2770   73.0990  220.1870 C   0  0  0  0  0  0  0  0  0  0  0  0
  145.4740   74.1890  220.7980 C   0  0  0  0  0  0  0  0  0  0  0  0
  144.0410   74.2550  220.4640 C   0  0  1  0  0  0  0  0  0  0  0  0
  143.6700   75.2290  219.4040 C   0  0  0  0  0  0  0  0  0  0  0  0
  143.2330   76.5190  219.7350 C   0  0  0  0  0  0  0  0  0  0  0  0
  142.8790   77.4390  218.7740 C   0  0  0  0  0  0  0  0  0  0  0  0
  142.9390   77.1320  217.4330 C   0  0  0  0  0  0  0  0  0  0  0  0
  143.3660   75.8710  217.0800 C   0  0  0  0  0  0  0  0  0  0  0  0
  143.7210   74.9490  218.0570 C   0  0  0  0  0  0  0  0  0  0  0  0
  140.2030   77.1260  222.3940 C   0  0  0  0  0  0  0  0  0  0  0  0
  139.0880   77.9070  222.6180 C   0  0  0  0  0  0  0  0  0  0  0  0
  139.2970   79.2230  223.0070 C   0  0  0  0  0  0  0  0  0  0  0  0
  140.5540   79.7560  223.1700 C   0  0  0  0  0  0  0  0  0  0  0  0
  140.7660   81.0630  223.5560 C   0  0  0  0  0  0  0  0  0  0  0  0
  142.0540   81.5520  223.7060 C   0  0  0  0  0  0  0  0  0  0  0  0
  143.1340   80.7090  223.4640 C   0  0  0  0  0  0  0  0  0  0  0  0
  142.9420   79.3920  223.0750 C   0  0  0  0  0  0  0  0  0  0  0  0
  141.6400   78.9370  222.9350 C   0  0  0  0  0  0  0  0  0  0  0  0
  141.4090   77.6740  222.5610 N   0  0  0  0  0  0  0  0  0  0  0  0
  142.0870   75.3310  221.9860 H   0  0  0  0  0  0  0  0  0  0  0  0
  141.2064   72.9072  222.3021 H   0  0  0  0  0  0  0  0  0  0  0  0
  140.0819   73.4654  220.8938 H   0  0  0  0  0  0  0  0  0  0  0  0
  144.4461   71.3919  221.0970 H   0  0  0  0  0  0  0  0  0  0  0  0
  143.6345   71.1135  219.4833 H   0  0  0  0  0  0  0  0  0  0  0  0
  146.0812   71.2025  219.2540 H   0  0  0  0  0  0  0  0  0  0  0  0
  145.2797   72.5515  218.3912 H   0  0  0  0  0  0  0  0  0  0  0  0
  146.7781   72.5485  220.9968 H   0  0  0  0  0  0  0  0  0  0  0  0
  146.9780   73.5844  219.4920 H   0  0  0  0  0  0  0  0  0  0  0  0
  145.5520   74.0817  221.8900 H   0  0  0  0  0  0  0  0  0  0  0  0
  145.8990   75.1140  220.3811 H   0  0  0  0  0  0  0  0  0  0  0  0
  143.6343   74.6787  221.3941 H   0  0  0  0  0  0  0  0  0  0  0  0
  143.1710   76.8051  220.7953 H   0  0  0  0  0  0  0  0  0  0  0  0
  142.5415   78.4392  219.0835 H   0  0  0  0  0  0  0  0  0  0  0  0
  142.6551   77.8700  216.6683 H   0  0  0  0  0  0  0  0  0  0  0  0
  143.4264   75.5920  216.0177 H   0  0  0  0  0  0  0  0  0  0  0  0
  144.0578   73.9509  217.7401 H   0  0  0  0  0  0  0  0  0  0  0  0
  138.0727   77.5025  222.4932 H   0  0  0  0  0  0  0  0  0  0  0  0
  138.4228   79.8646  223.1921 H   0  0  0  0  0  0  0  0  0  0  0  0
  139.9063   81.7223  223.7462 H   0  0  0  0  0  0  0  0  0  0  0  0
  142.2206   82.5951  224.0130 H   0  0  0  0  0  0  0  0  0  0  0  0
  144.1576   81.0938  223.5833 H   0  0  0  0  0  0  0  0  0  0  0  0
  143.7976   78.7278  222.8831 H   0  0  0  0  0  0  0  0  0  0  0  0
  1  2  2  0
  2  3  1  0
  3  4  1  0
  4  5  1  0
  5  6  2  0
  5  7  1  0
  7  8  1  0
  8  9  1  0
  9 10  1  0
 10 11  1  0
 11 12  1  0
 12 13  1  0
 13 14  2  0
 14 15  1  0
 15 16  2  0
 16 17  1  0
 17 18  2  0
  2 19  1  0
 19 20  2  0
 20 21  1  0
 21 22  2  0
 22 23  1  0
 23 24  2  0
 24 25  1  0
 25 26  2  0
 26 27  1  0
 27 28  2  0
 12  7  1  0
 18 13  1  0
 28 19  1  0
 27 22  1  0
  3 29  1  0
  4 30  1  0
  4 31  1  0
  8 32  1  0
  8 33  1  0
  9 34  1  0
  9 35  1  0
 10 36  1  0
 10 37  1  0
 11 38  1  0
 11 39  1  0
 12 40  1  1
 14 41  1  0
 15 42  1  0
 16 43  1  0
 17 44  1  0
 18 45  1  0
 20 46  1  0
 21 47  1  0
 23 48  1  0
 24 49  1  0
 25 50  1  0
 26 51  1  0
M  END
>  <meeko>  (10) 
{"free_energy": -7.96, "intermolecular_energy": -9.45, "internal_energy": -2.24, "cluster_size": 6, "cluster_id": 3, "rank_in_cluster": 1}

$$$$

     RDKit          3D

 51 54  0  0  0  0  0  0  0  0999 V2000
  140.5830   71.3310  221.2810 O   0  0  0  0  0  0  0  0  0  0  0  0
  140.2160   71.9080  222.3620 C   0  0  0  0  0  0  0  0  0  0  0  0
  139.8620   73.2980  222.3310 N   0  0  0  0  0  0  0  0  0  0  0  0
  139.8840   74.1040  221.1550 C   0  0  0  0  0  0  0  0  0  0  0  0
  140.7260   75.2720  221.0750 C   0  0  0  0  0  0  0  0  0  0  0  0
  140.9020   75.8870  222.2160 O   0  0  0  0  0  0  0  0  0  0  0  0
  141.3880   75.8730  219.9870 N   0  0  0  0  0  0  0  0  0  0  0  0
  141.3700   77.2710  219.6400 C   0  0  0  0  0  0  0  0  0  0  0  0
  142.6370   77.7410  218.9380 C   0  0  0  0  0  0  0  0  0  0  0  0
  142.7920   76.9780  217.6750 C   0  0  0  0  0  0  0  0  0  0  0  0
  142.4750   75.5300  217.7770 C   0  0  0  0  0  0  0  0  0  0  0  0
  142.1530   74.9910  219.1090 C   0  0  1  0  0  0  0  0  0  0  0  0
  143.2670   74.3050  219.8140 C   0  0  0  0  0  0  0  0  0  0  0  0
  143.1650   72.9560  220.1780 C   0  0  0  0  0  0  0  0  0  0  0  0
  144.1800   72.2970  220.8360 C   0  0  0  0  0  0  0  0  0  0  0  0
  145.3520   72.9400  221.1670 C   0  0  0  0  0  0  0  0  0  0  0  0
  145.4790   74.2670  220.8210 C   0  0  0  0  0  0  0  0  0  0  0  0
  144.4490   74.9230  220.1580 C   0  0  0  0  0  0  0  0  0  0  0  0
  140.1520   71.1670  223.6240 C   0  0  0  0  0  0  0  0  0  0  0  0
  139.5960   69.9040  223.6160 C   0  0  0  0  0  0  0  0  0  0  0  0
  139.5470   69.2200  224.8230 C   0  0  0  0  0  0  0  0  0  0  0  0
  140.0240   69.7550  225.9970 C   0  0  0  0  0  0  0  0  0  0  0  0
  139.9770   69.0780  227.1980 C   0  0  0  0  0  0  0  0  0  0  0  0
  140.4720   69.6620  228.3530 C   0  0  0  0  0  0  0  0  0  0  0  0
  141.0190   70.9390  228.2890 C   0  0  0  0  0  0  0  0  0  0  0  0
  141.0770   71.6360  227.0920 C   0  0  0  0  0  0  0  0  0  0  0  0
  140.5720   71.0210  225.9560 C   0  0  0  0  0  0  0  0  0  0  0  0
  140.6060   71.6570  224.7800 N   0  0  0  0  0  0  0  0  0  0  0  0
  139.5710   73.7120  223.2670 H   0  0  0  0  0  0  0  0  0  0  0  0
  140.1843   73.4438  220.3280 H   0  0  0  0  0  0  0  0  0  0  0  0
  138.8709   74.5320  221.1340 H   0  0  0  0  0  0  0  0  0  0  0  0
  140.5147   77.4527  218.9725 H   0  0  0  0  0  0  0  0  0  0  0  0
  141.2938   77.8360  220.5807 H   0  0  0  0  0  0  0  0  0  0  0  0
  142.5595   78.8152  218.7144 H   0  0  0  0  0  0  0  0  0  0  0  0
  143.5092   77.5730  219.5868 H   0  0  0  0  0  0  0  0  0  0  0  0
  142.1233   77.4222  216.9230 H   0  0  0  0  0  0  0  0  0  0  0  0
  143.8560   77.0429  217.4035 H   0  0  0  0  0  0  0  0  0  0  0  0
  141.6092   75.3368  217.1265 H   0  0  0  0  0  0  0  0  0  0  0  0
  143.4068   75.0209  217.4894 H   0  0  0  0  0  0  0  0  0  0  0  0
  141.4509   74.1884  218.8391 H   0  0  0  0  0  0  0  0  0  0  0  0
  142.2453   72.4056  219.9305 H   0  0  0  0  0  0  0  0  0  0  0  0
  144.0520   71.2374  221.1020 H   0  0  0  0  0  0  0  0  0  0  0  0
  146.1612   72.4104  221.6912 H   0  0  0  0  0  0  0  0  0  0  0  0
  146.4017   74.8111  221.0711 H   0  0  0  0  0  0  0  0  0  0  0  0
  144.5835   75.9829  219.8962 H   0  0  0  0  0  0  0  0  0  0  0  0
  139.2068   69.4567  222.6894 H   0  0  0  0  0  0  0  0  0  0  0  0
  139.1097   68.2108  224.8413 H   0  0  0  0  0  0  0  0  0  0  0  0
  139.5437   68.0678  227.2391 H   0  0  0  0  0  0  0  0  0  0  0  0
  140.4327   69.1214  229.3102 H   0  0  0  0  0  0  0  0  0  0  0  0
  141.4127   71.4044  229.2046 H   0  0  0  0  0  0  0  0  0  0  0  0
  141.5103   72.6460  227.0446 H   0  0  0  0  0  0  0  0  0  0  0  0
  1  2  2  0
  2  3  1  0
  3  4  1  0
  4  5  1  0
  5  6  2  0
  5  7  1  0
  7  8  1  0
  8  9  1  0
  9 10  1  0
 10 11  1  0
 11 12  1  0
 12 13  1  0
 13 14  2  0
 14 15  1  0
 15 16  2  0
 16 17  1  0
 17 18  2  0
  2 19  1  0
 19 20  2  0
 20 21  1  0
 21 22  2  0
 22 23  1  0
 23 24  2  0
 24 25  1  0
 25 26  2  0
 26 27  1  0
 27 28  2  0
 12  7  1  0
 18 13  1  0
 28 19  1  0
 27 22  1  0
  3 29  1  0
  4 30  1  0
  4 31  1  0
  8 32  1  0
  8 33  1  0
  9 34  1  0
  9 35  1  0
 10 36  1  0
 10 37  1  0
 11 38  1  0
 11 39  1  0
 12 40  1  6
 14 41  1  0
 15 42  1  0
 16 43  1  0
 17 44  1  0
 18 45  1  0
 20 46  1  0
 21 47  1  0
 23 48  1  0
 24 49  1  0
 25 50  1  0
 26 51  1  0
M  END
>  <meeko>  (11) 
{"free_energy": -8.74, "intermolecular_energy": -10.23, "internal_energy": -1.88, "cluster_size": 12, "cluster_id": 1, "rank_in_cluster": 8}

$$$$

     RDKit          3D

 51 54  0  0  0  0  0  0  0  0999 V2000
  138.8420   75.2750  221.7840 O   0  0  0  0  0  0  0  0  0  0  0  0
  140.0160   75.7410  221.9790 C   0  0  0  0  0  0  0  0  0  0  0  0
  141.1530   74.8880  221.7830 N   0  0  0  0  0  0  0  0  0  0  0  0
  141.0710   73.5260  221.3700 C   0  0  0  0  0  0  0  0  0  0  0  0
  141.9930   72.9890  220.4010 C   0  0  0  0  0  0  0  0  0  0  0  0
  141.4250   72.3100  219.4380 O   0  0  0  0  0  0  0  0  0  0  0  0
  143.3960   73.0600  220.3070 N   0  0  0  0  0  0  0  0  0  0  0  0
  144.2940   71.9620  220.0560 C   0  0  0  0  0  0  0  0  0  0  0  0
  145.5690   72.3710  219.3300 C   0  0  0  0  0  0  0  0  0  0  0  0
  146.3000   73.3520  220.1680 C   0  0  0  0  0  0  0  0  0  0  0  0
  145.4440   74.3710  220.8280 C   0  0  0  0  0  0  0  0  0  0  0  0
  144.0070   74.3720  220.5050 C   0  0  1  0  0  0  0  0  0  0  0  0
  143.5750   75.3660  219.4890 C   0  0  0  0  0  0  0  0  0  0  0  0
  143.7060   75.0960  218.1200 C   0  0  0  0  0  0  0  0  0  0  0  0
  143.3190   76.0020  217.1570 C   0  0  0  0  0  0  0  0  0  0  0  0
  142.7800   77.2220  217.4980 C   0  0  0  0  0  0  0  0  0  0  0  0
  142.6400   77.5120  218.8360 C   0  0  0  0  0  0  0  0  0  0  0  0
  143.0340   76.5930  219.8010 C   0  0  0  0  0  0  0  0  0  0  0  0
  140.2110   77.1320  222.3980 C   0  0  0  0  0  0  0  0  0  0  0  0
  139.0960   77.9100  222.6260 C   0  0  0  0  0  0  0  0  0  0  0  0
  139.3050   79.2240  223.0230 C   0  0  0  0  0  0  0  0  0  0  0  0
  140.5620   79.7570  223.1880 C   0  0  0  0  0  0  0  0  0  0  0  0
  140.7730   81.0620  223.5820 C   0  0  0  0  0  0  0  0  0  0  0  0
  142.0610   81.5510  223.7340 C   0  0  0  0  0  0  0  0  0  0  0  0
  143.1410   80.7090  223.4860 C   0  0  0  0  0  0  0  0  0  0  0  0
  142.9500   79.3940  223.0900 C   0  0  0  0  0  0  0  0  0  0  0  0
  141.6480   78.9390  222.9480 C   0  0  0  0  0  0  0  0  0  0  0  0
  141.4180   77.6790  222.5670 N   0  0  0  0  0  0  0  0  0  0  0  0
  142.0970   75.3430  221.9670 H   0  0  0  0  0  0  0  0  0  0  0  0
  141.1814   72.9161  222.2787 H   0  0  0  0  0  0  0  0  0  0  0  0
  140.1101   73.4919  220.8356 H   0  0  0  0  0  0  0  0  0  0  0  0
  144.5720   71.5126  221.0207 H   0  0  0  0  0  0  0  0  0  0  0  0
  143.7634   71.2542  219.4023 H   0  0  0  0  0  0  0  0  0  0  0  0
  146.1995   71.4854  219.1619 H   0  0  0  0  0  0  0  0  0  0  0  0
  145.3186   72.8215  218.3582 H   0  0  0  0  0  0  0  0  0  0  0  0
  146.8381   72.7983  220.9515 H   0  0  0  0  0  0  0  0  0  0  0  0
  146.9668   73.9025  219.4881 H   0  0  0  0  0  0  0  0  0  0  0  0
  145.5363   74.2238  221.9142 H   0  0  0  0  0  0  0  0  0  0  0  0
  145.8149   75.3340  220.4473 H   0  0  0  0  0  0  0  0  0  0  0  0
  143.5855   74.7352  221.4539 H   0  0  0  0  0  0  0  0  0  0  0  0
  144.1307   74.1315  217.8049 H   0  0  0  0  0  0  0  0  0  0  0  0
  143.4431   75.7455  216.0946 H   0  0  0  0  0  0  0  0  0  0  0  0
  142.4711   77.9419  216.7258 H   0  0  0  0  0  0  0  0  0  0  0  0
  142.2132   78.4780  219.1437 H   0  0  0  0  0  0  0  0  0  0  0  0
  142.9081   76.8576  220.8612 H   0  0  0  0  0  0  0  0  0  0  0  0
  138.0809   77.5058  222.4985 H   0  0  0  0  0  0  0  0  0  0  0  0
  138.4307   79.8639  223.2130 H   0  0  0  0  0  0  0  0  0  0  0  0
  139.9128   81.7193  223.7770 H   0  0  0  0  0  0  0  0  0  0  0  0
  142.2276   82.5923  224.0469 H   0  0  0  0  0  0  0  0  0  0  0  0
  144.1645   81.0936  223.6063 H   0  0  0  0  0  0  0  0  0  0  0  0
  143.8060   78.7314  222.8943 H   0  0  0  0  0  0  0  0  0  0  0  0
  1  2  2  0
  2  3  1  0
  3  4  1  0
  4  5  1  0
  5  6  2  0
  5  7  1  0
  7  8  1  0
  8  9  1  0
  9 10  1  0
 10 11  1  0
 11 12  1  0
 12 13  1  0
 13 14  2  0
 14 15  1  0
 15 16  2  0
 16 17  1  0
 17 18  2  0
  2 19  1  0
 19 20  2  0
 20 21  1  0
 21 22  2  0
 22 23  1  0
 23 24  2  0
 24 25  1  0
 25 26  2  0
 26 27  1  0
 27 28  2  0
 12  7  1  0
 18 13  1  0
 28 19  1  0
 27 22  1  0
  3 29  1  0
  4 30  1  0
  4 31  1  0
  8 32  1  0
  8 33  1  0
  9 34  1  0
  9 35  1  0
 10 36  1  0
 10 37  1  0
 11 38  1  0
 11 39  1  0
 12 40  1  1
 14 41  1  0
 15 42  1  0
 16 43  1  0
 17 44  1  0
 18 45  1  0
 20 46  1  0
 21 47  1  0
 23 48  1  0
 24 49  1  0
 25 50  1  0
 26 51  1  0
M  END
>  <meeko>  (12) 
{"free_energy": -7.91, "intermolecular_energy": -9.4, "internal_energy": -2.3, "cluster_size": 6, "cluster_id": 3, "rank_in_cluster": 4}

$$$$

     RDKit          3D

 51 54  0  0  0  0  0  0  0  0999 V2000
  138.8160   75.2720  221.8500 O   0  0  0  0  0  0  0  0  0  0  0  0
  139.9930   75.7520  221.9890 C   0  0  0  0  0  0  0  0  0  0  0  0
  141.1280   74.9100  221.7430 N   0  0  0  0  0  0  0  0  0  0  0  0
  141.0410   73.5460  221.3390 C   0  0  0  0  0  0  0  0  0  0  0  0
  141.9690   72.9970  220.3810 C   0  0  0  0  0  0  0  0  0  0  0  0
  141.4050   72.3160  219.4170 O   0  0  0  0  0  0  0  0  0  0  0  0
  143.3730   73.0580  220.2990 N   0  0  0  0  0  0  0  0  0  0  0  0
  144.2660   71.9520  220.0670 C   0  0  0  0  0  0  0  0  0  0  0  0
  145.5490   72.3460  219.3480 C   0  0  0  0  0  0  0  0  0  0  0  0
  146.2800   73.3310  220.1830 C   0  0  0  0  0  0  0  0  0  0  0  0
  145.4240   74.3630  220.8240 C   0  0  0  0  0  0  0  0  0  0  0  0
  143.9900   74.3690  220.4890 C   0  0  1  0  0  0  0  0  0  0  0  0
  143.5730   75.3550  219.4580 C   0  0  0  0  0  0  0  0  0  0  0  0
  143.6930   75.0610  218.0930 C   0  0  0  0  0  0  0  0  0  0  0  0
  143.3200   75.9580  217.1170 C   0  0  0  0  0  0  0  0  0  0  0  0
  142.8060   77.1940  217.4410 C   0  0  0  0  0  0  0  0  0  0  0  0
  142.6780   77.5080  218.7750 C   0  0  0  0  0  0  0  0  0  0  0  0
  143.0570   76.5970  219.7530 C   0  0  0  0  0  0  0  0  0  0  0  0
  140.1920   77.1460  222.3930 C   0  0  0  0  0  0  0  0  0  0  0  0
  139.0790   77.9350  222.5990 C   0  0  0  0  0  0  0  0  0  0  0  0
  139.2910   79.2520  222.9830 C   0  0  0  0  0  0  0  0  0  0  0  0
  140.5500   79.7780  223.1570 C   0  0  0  0  0  0  0  0  0  0  0  0
  140.7660   81.0870  223.5380 C   0  0  0  0  0  0  0  0  0  0  0  0
  142.0540   81.5690  223.7000 C   0  0  0  0  0  0  0  0  0  0  0  0
  143.1320   80.7170  223.4750 C   0  0  0  0  0  0  0  0  0  0  0  0
  142.9370   79.3990  223.0920 C   0  0  0  0  0  0  0  0  0  0  0  0
  141.6340   78.9510  222.9400 C   0  0  0  0  0  0  0  0  0  0  0  0
  141.4000   77.6870  222.5710 N   0  0  0  0  0  0  0  0  0  0  0  0
  142.0750   75.3760  221.8820 H   0  0  0  0  0  0  0  0  0  0  0  0
  141.1399   72.9417  222.2528 H   0  0  0  0  0  0  0  0  0  0  0  0
  140.0843   73.5134  220.7971 H   0  0  0  0  0  0  0  0  0  0  0  0
  144.5331   71.5108  221.0386 H   0  0  0  0  0  0  0  0  0  0  0  0
  143.7366   71.2405  219.4163 H   0  0  0  0  0  0  0  0  0  0  0  0
  146.1752   71.4549  219.1935 H   0  0  0  0  0  0  0  0  0  0  0  0
  145.3093   72.7889  218.3700 H   0  0  0  0  0  0  0  0  0  0  0  0
  146.8067   72.7819  220.9774 H   0  0  0  0  0  0  0  0  0  0  0  0
  146.9577   73.8694  219.5042 H   0  0  0  0  0  0  0  0  0  0  0  0
  145.5063   74.2278  221.9126 H   0  0  0  0  0  0  0  0  0  0  0  0
  145.8038   75.3193  220.4350 H   0  0  0  0  0  0  0  0  0  0  0  0
  143.5622   74.7444  221.4303 H   0  0  0  0  0  0  0  0  0  0  0  0
  144.0976   74.0834  217.7919 H   0  0  0  0  0  0  0  0  0  0  0  0
  143.4348   75.6821  216.0584 H   0  0  0  0  0  0  0  0  0  0  0  0
  142.5073   77.9074  216.6587 H   0  0  0  0  0  0  0  0  0  0  0  0
  142.2726   78.4874  219.0689 H   0  0  0  0  0  0  0  0  0  0  0  0
  142.9397   76.8803  220.8094 H   0  0  0  0  0  0  0  0  0  0  0  0
  138.0629   77.5358  222.4641 H   0  0  0  0  0  0  0  0  0  0  0  0
  138.4187   79.8998  223.1547 H   0  0  0  0  0  0  0  0  0  0  0  0
  139.9082   81.7526  223.7143 H   0  0  0  0  0  0  0  0  0  0  0  0
  142.2235   82.6128  224.0029 H   0  0  0  0  0  0  0  0  0  0  0  0
  144.1565   81.0964  223.6034 H   0  0  0  0  0  0  0  0  0  0  0  0
  143.7908   78.7287  222.9140 H   0  0  0  0  0  0  0  0  0  0  0  0
  1  2  2  0
  2  3  1  0
  3  4  1  0
  4  5  1  0
  5  6  2  0
  5  7  1  0
  7  8  1  0
  8  9  1  0
  9 10  1  0
 10 11  1  0
 11 12  1  0
 12 13  1  0
 13 14  2  0
 14 15  1  0
 15 16  2  0
 16 17  1  0
 17 18  2  0
  2 19  1  0
 19 20  2  0
 20 21  1  0
 21 22  2  0
 22 23  1  0
 23 24  2  0
 24 25  1  0
 25 26  2  0
 26 27  1  0
 27 28  2  0
 12  7  1  0
 18 13  1  0
 28 19  1  0
 27 22  1  0
  3 29  1  0
  4 30  1  0
  4 31  1  0
  8 32  1  0
  8 33  1  0
  9 34  1  0
  9 35  1  0
 10 36  1  0
 10 37  1  0
 11 38  1  0
 11 39  1  0
 12 40  1  1
 14 41  1  0
 15 42  1  0
 16 43  1  0
 17 44  1  0
 18 45  1  0
 20 46  1  0
 21 47  1  0
 23 48  1  0
 24 49  1  0
 25 50  1  0
 26 51  1  0
M  END
>  <meeko>  (13) 
{"free_energy": -7.92, "intermolecular_energy": -9.41, "internal_energy": -2.29, "cluster_size": 6, "cluster_id": 3, "rank_in_cluster": 3}

$$$$

     RDKit          3D

 51 54  0  0  0  0  0  0  0  0999 V2000
  140.6520   71.2770  221.3020 O   0  0  0  0  0  0  0  0  0  0  0  0
  140.2520   71.8650  222.3650 C   0  0  0  0  0  0  0  0  0  0  0  0
  139.8770   73.2490  222.3030 N   0  0  0  0  0  0  0  0  0  0  0  0
  139.9130   74.0360  221.1150 C   0  0  0  0  0  0  0  0  0  0  0  0
  140.6920   75.2480  221.0540 C   0  0  0  0  0  0  0  0  0  0  0  0
  140.7940   75.8790  222.1950 O   0  0  0  0  0  0  0  0  0  0  0  0
  141.3590   75.8770  219.9850 N   0  0  0  0  0  0  0  0  0  0  0  0
  141.3200   77.2800  219.6590 C   0  0  0  0  0  0  0  0  0  0  0  0
  142.5890   77.7820  218.9820 C   0  0  0  0  0  0  0  0  0  0  0  0
  142.7760   77.0410  217.7100 C   0  0  0  0  0  0  0  0  0  0  0  0
  142.4840   75.5870  217.7870 C   0  0  0  0  0  0  0  0  0  0  0  0
  142.1520   75.0220  219.1060 C   0  0  1  0  0  0  0  0  0  0  0  0
  143.2690   74.3460  219.8160 C   0  0  0  0  0  0  0  0  0  0  0  0
  143.1730   72.9970  220.1850 C   0  0  0  0  0  0  0  0  0  0  0  0
  144.1900   72.3470  220.8490 C   0  0  0  0  0  0  0  0  0  0  0  0
  145.3570   72.9990  221.1820 C   0  0  0  0  0  0  0  0  0  0  0  0
  145.4760   74.3250  220.8310 C   0  0  0  0  0  0  0  0  0  0  0  0
  144.4450   74.9720  220.1620 C   0  0  0  0  0  0  0  0  0  0  0  0
  140.1710   71.1430  223.6370 C   0  0  0  0  0  0  0  0  0  0  0  0
  139.5970   69.8890  223.6440 C   0  0  0  0  0  0  0  0  0  0  0  0
  139.5310   69.2240  224.8610 C   0  0  0  0  0  0  0  0  0  0  0  0
  140.0110   69.7680  226.0290 C   0  0  0  0  0  0  0  0  0  0  0  0
  139.9480   69.1100  227.2400 C   0  0  0  0  0  0  0  0  0  0  0  0
  140.4460   69.7030  228.3890 C   0  0  0  0  0  0  0  0  0  0  0  0
  141.0120   70.9710  228.3090 C   0  0  0  0  0  0  0  0  0  0  0  0
  141.0860   71.6490  227.1020 C   0  0  0  0  0  0  0  0  0  0  0  0
  140.5770   71.0260  225.9730 C   0  0  0  0  0  0  0  0  0  0  0  0
  140.6270   71.6440  224.7880 N   0  0  0  0  0  0  0  0  0  0  0  0
  139.5580   73.6730  223.2250 H   0  0  0  0  0  0  0  0  0  0  0  0
  140.2901   73.3805  220.3161 H   0  0  0  0  0  0  0  0  0  0  0  0
  138.8801   74.4063  221.0369 H   0  0  0  0  0  0  0  0  0  0  0  0
  140.4711   77.4567  218.9822 H   0  0  0  0  0  0  0  0  0  0  0  0
  141.2196   77.8297  220.6065 H   0  0  0  0  0  0  0  0  0  0  0  0
  142.4960   78.8580  218.7731 H   0  0  0  0  0  0  0  0  0  0  0  0
  143.4545   77.6188  219.6410 H   0  0  0  0  0  0  0  0  0  0  0  0
  142.1101   77.4841  216.9549 H   0  0  0  0  0  0  0  0  0  0  0  0
  143.8422   77.1294  217.4543 H   0  0  0  0  0  0  0  0  0  0  0  0
  141.6316   75.3879  217.1208 H   0  0  0  0  0  0  0  0  0  0  0  0
  143.4294   75.0994  217.5069 H   0  0  0  0  0  0  0  0  0  0  0  0
  141.4677   74.2111  218.8157 H   0  0  0  0  0  0  0  0  0  0  0  0
  142.2573   72.4403  219.9367 H   0  0  0  0  0  0  0  0  0  0  0  0
  144.0680   71.2875  221.1184 H   0  0  0  0  0  0  0  0  0  0  0  0
  146.1677   72.4770  221.7114 H   0  0  0  0  0  0  0  0  0  0  0  0
  146.3943   74.8760  221.0822 H   0  0  0  0  0  0  0  0  0  0  0  0
  144.5740   76.0318  219.8969 H   0  0  0  0  0  0  0  0  0  0  0  0
  139.2069   69.4337  222.7218 H   0  0  0  0  0  0  0  0  0  0  0  0
  139.0769   68.2226  224.8920 H   0  0  0  0  0  0  0  0  0  0  0  0
  139.4991   68.1072  227.2938 H   0  0  0  0  0  0  0  0  0  0  0  0
  140.3943   69.1769  229.3536 H   0  0  0  0  0  0  0  0  0  0  0  0
  141.4079   71.4443  229.2196 H   0  0  0  0  0  0  0  0  0  0  0  0
  141.5352   72.6513  227.0419 H   0  0  0  0  0  0  0  0  0  0  0  0
  1  2  2  0
  2  3  1  0
  3  4  1  0
  4  5  1  0
  5  6  2  0
  5  7  1  0
  7  8  1  0
  8  9  1  0
  9 10  1  0
 10 11  1  0
 11 12  1  0
 12 13  1  0
 13 14  2  0
 14 15  1  0
 15 16  2  0
 16 17  1  0
 17 18  2  0
  2 19  1  0
 19 20  2  0
 20 21  1  0
 21 22  2  0
 22 23  1  0
 23 24  2  0
 24 25  1  0
 25 26  2  0
 26 27  1  0
 27 28  2  0
 12  7  1  0
 18 13  1  0
 28 19  1  0
 27 22  1  0
  3 29  1  0
  4 30  1  0
  4 31  1  0
  8 32  1  0
  8 33  1  0
  9 34  1  0
  9 35  1  0
 10 36  1  0
 10 37  1  0
 11 38  1  0
 11 39  1  0
 12 40  1  6
 14 41  1  0
 15 42  1  0
 16 43  1  0
 17 44  1  0
 18 45  1  0
 20 46  1  0
 21 47  1  0
 23 48  1  0
 24 49  1  0
 25 50  1  0
 26 51  1  0
M  END
>  <meeko>  (14) 
{"free_energy": -8.74, "intermolecular_energy": -10.23, "internal_energy": -1.86, "cluster_size": 12, "cluster_id": 1, "rank_in_cluster": 7}

$$$$

     RDKit          3D

 51 54  0  0  0  0  0  0  0  0999 V2000
  141.0640   71.5660  221.3730 O   0  0  0  0  0  0  0  0  0  0  0  0
  140.4920   72.1360  222.3640 C   0  0  0  0  0  0  0  0  0  0  0  0
  140.0770   73.5040  222.2430 N   0  0  0  0  0  0  0  0  0  0  0  0
  140.2540   74.2940  221.0700 C   0  0  0  0  0  0  0  0  0  0  0  0
  140.2440   75.7350  221.1400 C   0  0  0  0  0  0  0  0  0  0  0  0
  141.4130   76.2900  220.9470 O   0  0  0  0  0  0  0  0  0  0  0  0
  139.2030   76.6510  221.3830 N   0  0  0  0  0  0  0  0  0  0  0  0
  137.9040   76.3470  221.9260 C   0  0  0  0  0  0  0  0  0  0  0  0
  137.2890   77.4960  222.7140 C   0  0  0  0  0  0  0  0  0  0  0  0
  137.1230   78.6590  221.8080 C   0  0  0  0  0  0  0  0  0  0  0  0
  138.2630   78.8980  220.8850 C   0  0  0  0  0  0  0  0  0  0  0  0
  139.4550   78.0460  221.0310 C   0  0  1  0  0  0  0  0  0  0  0  0
  140.5800   78.6390  221.8010 C   0  0  0  0  0  0  0  0  0  0  0  0
  140.7990   78.2860  223.1390 C   0  0  0  0  0  0  0  0  0  0  0  0
  141.8300   78.8240  223.8770 C   0  0  0  0  0  0  0  0  0  0  0  0
  142.7000   79.7400  223.3280 C   0  0  0  0  0  0  0  0  0  0  0  0
  142.5070   80.1040  222.0140 C   0  0  0  0  0  0  0  0  0  0  0  0
  141.4640   79.5560  221.2780 C   0  0  0  0  0  0  0  0  0  0  0  0
  140.2550   71.4090  223.6140 C   0  0  0  0  0  0  0  0  0  0  0  0
  139.5750   70.2100  223.5560 C   0  0  0  0  0  0  0  0  0  0  0  0
  139.3630   69.5380  224.7530 C   0  0  0  0  0  0  0  0  0  0  0  0
  139.8000   70.0250  225.9630 C   0  0  0  0  0  0  0  0  0  0  0  0
  139.5920   69.3600  227.1540 C   0  0  0  0  0  0  0  0  0  0  0  0
  140.0520   69.8940  228.3460 C   0  0  0  0  0  0  0  0  0  0  0  0
  140.7310   71.1080  228.3310 C   0  0  0  0  0  0  0  0  0  0  0  0
  140.9510   71.7920  227.1450 C   0  0  0  0  0  0  0  0  0  0  0  0
  140.4760   71.2280  225.9700 C   0  0  0  0  0  0  0  0  0  0  0  0
  140.6660   71.8540  224.8040 N   0  0  0  0  0  0  0  0  0  0  0  0
  139.6110   73.9130  223.1080 H   0  0  0  0  0  0  0  0  0  0  0  0
  141.2265   74.0077  220.6431 H   0  0  0  0  0  0  0  0  0  0  0  0
  139.3473   74.0722  220.4880 H   0  0  0  0  0  0  0  0  0  0  0  0
  137.2295   76.0953  221.0943 H   0  0  0  0  0  0  0  0  0  0  0  0
  138.0350   75.5089  222.6263 H   0  0  0  0  0  0  0  0  0  0  0  0
  136.3085   77.1912  223.1085 H   0  0  0  0  0  0  0  0  0  0  0  0
  137.9443   77.7667  223.5551 H   0  0  0  0  0  0  0  0  0  0  0  0
  136.2204   78.4940  221.2013 H   0  0  0  0  0  0  0  0  0  0  0  0
  137.0559   79.5471  222.4535 H   0  0  0  0  0  0  0  0  0  0  0  0
  137.8882   78.7649  219.8594 H   0  0  0  0  0  0  0  0  0  0  0  0
  138.6138   79.9102  221.1345 H   0  0  0  0  0  0  0  0  0  0  0  0
  139.8104   78.0106  219.9906 H   0  0  0  0  0  0  0  0  0  0  0  0
  140.1268   77.5567  223.6148 H   0  0  0  0  0  0  0  0  0  0  0  0
  141.9612   78.5163  224.9249 H   0  0  0  0  0  0  0  0  0  0  0  0
  143.5227   80.1671  223.9203 H   0  0  0  0  0  0  0  0  0  0  0  0
  143.1831   80.8334  221.5441 H   0  0  0  0  0  0  0  0  0  0  0  0
  141.3388   79.8686  220.2308 H   0  0  0  0  0  0  0  0  0  0  0  0
  139.2150   69.8024  222.5998 H   0  0  0  0  0  0  0  0  0  0  0  0
  138.8247   68.5790  224.7326 H   0  0  0  0  0  0  0  0  0  0  0  0
  139.0570   68.3989  227.1566 H   0  0  0  0  0  0  0  0  0  0  0  0
  139.8823   69.3638  229.2947 H   0  0  0  0  0  0  0  0  0  0  0  0
  141.0998   71.5327  229.2763 H   0  0  0  0  0  0  0  0  0  0  0  0
  141.4861   72.7530  227.1362 H   0  0  0  0  0  0  0  0  0  0  0  0
  1  2  2  0
  2  3  1  0
  3  4  1  0
  4  5  1  0
  5  6  2  0
  5  7  1  0
  7  8  1  0
  8  9  1  0
  9 10  1  0
 10 11  1  0
 11 12  1  0
 12 13  1  0
 13 14  2  0
 14 15  1  0
 15 16  2  0
 16 17  1  0
 17 18  2  0
  2 19  1  0
 19 20  2  0
 20 21  1  0
 21 22  2  0
 22 23  1  0
 23 24  2  0
 24 25  1  0
 25 26  2  0
 26 27  1  0
 27 28  2  0
 12  7  1  0
 18 13  1  0
 28 19  1  0
 27 22  1  0
  3 29  1  0
  4 30  1  0
  4 31  1  0
  8 32  1  0
  8 33  1  0
  9 34  1  0
  9 35  1  0
 10 36  1  0
 10 37  1  0
 11 38  1  0
 11 39  1  0
 12 40  1  6
 14 41  1  0
 15 42  1  0
 16 43  1  0
 17 44  1  0
 18 45  1  0
 20 46  1  0
 21 47  1  0
 23 48  1  0
 24 49  1  0
 25 50  1  0
 26 51  1  0
M  END
>  <meeko>  (15) 
{"free_energy": -8.6, "intermolecular_energy": -10.09, "internal_energy": -1.16, "cluster_size": 2, "cluster_id": 2, "rank_in_cluster": 1}

$$$$

     RDKit          3D

 51 54  0  0  0  0  0  0  0  0999 V2000
  140.4740   71.3120  221.2630 O   0  0  0  0  0  0  0  0  0  0  0  0
  140.1530   71.9060  222.3490 C   0  0  0  0  0  0  0  0  0  0  0  0
  139.8320   73.3040  222.3170 N   0  0  0  0  0  0  0  0  0  0  0  0
  139.8380   74.1000  221.1350 C   0  0  0  0  0  0  0  0  0  0  0  0
  140.6290   75.3040  221.0580 C   0  0  0  0  0  0  0  0  0  0  0  0
  140.7290   75.9530  222.1900 O   0  0  0  0  0  0  0  0  0  0  0  0
  141.3070   75.9090  219.9830 N   0  0  0  0  0  0  0  0  0  0  0  0
  141.3090   77.3110  219.6530 C   0  0  0  0  0  0  0  0  0  0  0  0
  142.5880   77.7730  218.9660 C   0  0  0  0  0  0  0  0  0  0  0  0
  142.7430   77.0230  217.6960 C   0  0  0  0  0  0  0  0  0  0  0  0
  142.4080   75.5780  217.7790 C   0  0  0  0  0  0  0  0  0  0  0  0
  142.0680   75.0280  219.1020 C   0  0  1  0  0  0  0  0  0  0  0  0
  143.1680   74.3200  219.8060 C   0  0  0  0  0  0  0  0  0  0  0  0
  143.0330   72.9760  220.1810 C   0  0  0  0  0  0  0  0  0  0  0  0
  144.0340   72.2980  220.8410 C   0  0  0  0  0  0  0  0  0  0  0  0
  145.2230   72.9140  221.1620 C   0  0  0  0  0  0  0  0  0  0  0  0
  145.3820   74.2340  220.8050 C   0  0  0  0  0  0  0  0  0  0  0  0
  144.3660   74.9100  220.1410 C   0  0  0  0  0  0  0  0  0  0  0  0
  140.1080   71.1750  223.6190 C   0  0  0  0  0  0  0  0  0  0  0  0
  139.5810   69.9010  223.6240 C   0  0  0  0  0  0  0  0  0  0  0  0
  139.5490   69.2280  224.8380 C   0  0  0  0  0  0  0  0  0  0  0  0
  140.0170   69.7850  226.0050 C   0  0  0  0  0  0  0  0  0  0  0  0
  139.9880   69.1190  227.2130 C   0  0  0  0  0  0  0  0  0  0  0  0
  140.4720   69.7240  228.3620 C   0  0  0  0  0  0  0  0  0  0  0  0
  140.9900   71.0130  228.2840 C   0  0  0  0  0  0  0  0  0  0  0  0
  141.0290   71.6990  227.0800 C   0  0  0  0  0  0  0  0  0  0  0  0
  140.5360   71.0620  225.9510 C   0  0  0  0  0  0  0  0  0  0  0  0
  140.5540   71.6870  224.7690 N   0  0  0  0  0  0  0  0  0  0  0  0
  139.5780   73.7310  223.2580 H   0  0  0  0  0  0  0  0  0  0  0  0
  140.1809   73.4469  220.3190 H   0  0  0  0  0  0  0  0  0  0  0  0
  138.8075   74.4825  221.0937 H   0  0  0  0  0  0  0  0  0  0  0  0
  140.4613   77.5116  218.9813 H   0  0  0  0  0  0  0  0  0  0  0  0
  141.2323   77.8658  220.5997 H   0  0  0  0  0  0  0  0  0  0  0  0
  142.5260   78.8507  218.7543 H   0  0  0  0  0  0  0  0  0  0  0  0
  143.4529   77.5864  219.6195 H   0  0  0  0  0  0  0  0  0  0  0  0
  142.0852   77.4838  216.9444 H   0  0  0  0  0  0  0  0  0  0  0  0
  143.8096   77.0782  217.4329 H   0  0  0  0  0  0  0  0  0  0  0  0
  141.5457   75.4025  217.1190 H   0  0  0  0  0  0  0  0  0  0  0  0
  143.3362   75.0611  217.4938 H   0  0  0  0  0  0  0  0  0  0  0  0
  141.3570   74.2377  218.8194 H   0  0  0  0  0  0  0  0  0  0  0  0
  142.0991   72.4467  219.9408 H   0  0  0  0  0  0  0  0  0  0  0  0
  143.8806   71.2443  221.1170 H   0  0  0  0  0  0  0  0  0  0  0  0
  146.0208   72.3684  221.6872 H   0  0  0  0  0  0  0  0  0  0  0  0
  146.3192   74.7567  221.0469 H   0  0  0  0  0  0  0  0  0  0  0  0
  144.5259   75.9642  219.8707 H   0  0  0  0  0  0  0  0  0  0  0  0
  139.2008   69.4360  222.7024 H   0  0  0  0  0  0  0  0  0  0  0  0
  139.1333   68.2100  224.8675 H   0  0  0  0  0  0  0  0  0  0  0  0
  139.5775   68.0998  227.2645 H   0  0  0  0  0  0  0  0  0  0  0  0
  140.4469   69.1915  229.3242 H   0  0  0  0  0  0  0  0  0  0  0  0
  141.3754   71.4963  229.1939 H   0  0  0  0  0  0  0  0  0  0  0  0
  141.4388   72.7182  227.0218 H   0  0  0  0  0  0  0  0  0  0  0  0
  1  2  2  0
  2  3  1  0
  3  4  1  0
  4  5  1  0
  5  6  2  0
  5  7  1  0
  7  8  1  0
  8  9  1  0
  9 10  1  0
 10 11  1  0
 11 12  1  0
 12 13  1  0
 13 14  2  0
 14 15  1  0
 15 16  2  0
 16 17  1  0
 17 18  2  0
  2 19  1  0
 19 20  2  0
 20 21  1  0
 21 22  2  0
 22 23  1  0
 23 24  2  0
 24 25  1  0
 25 26  2  0
 26 27  1  0
 27 28  2  0
 12  7  1  0
 18 13  1  0
 28 19  1  0
 27 22  1  0
  3 29  1  0
  4 30  1  0
  4 31  1  0
  8 32  1  0
  8 33  1  0
  9 34  1  0
  9 35  1  0
 10 36  1  0
 10 37  1  0
 11 38  1  0
 11 39  1  0
 12 40  1  6
 14 41  1  0
 15 42  1  0
 16 43  1  0
 17 44  1  0
 18 45  1  0
 20 46  1  0
 21 47  1  0
 23 48  1  0
 24 49  1  0
 25 50  1  0
 26 51  1  0
M  END
>  <meeko>  (16) 
{"free_energy": -8.69, "intermolecular_energy": -10.18, "internal_energy": -1.91, "cluster_size": 12, "cluster_id": 1, "rank_in_cluster": 10}

$$$$

     RDKit          3D

 51 54  0  0  0  0  0  0  0  0999 V2000
  140.6150   71.2650  221.2730 O   0  0  0  0  0  0  0  0  0  0  0  0
  140.2290   71.8530  222.3410 C   0  0  0  0  0  0  0  0  0  0  0  0
  139.8690   73.2410  222.2880 N   0  0  0  0  0  0  0  0  0  0  0  0
  139.9060   74.0330  221.1040 C   0  0  0  0  0  0  0  0  0  0  0  0
  140.6960   75.2380  221.0440 C   0  0  0  0  0  0  0  0  0  0  0  0
  140.8090   75.8640  222.1870 O   0  0  0  0  0  0  0  0  0  0  0  0
  141.3630   75.8660  219.9740 N   0  0  0  0  0  0  0  0  0  0  0  0
  141.3280   77.2680  219.6480 C   0  0  0  0  0  0  0  0  0  0  0  0
  142.5970   77.7680  218.9700 C   0  0  0  0  0  0  0  0  0  0  0  0
  142.7810   77.0270  217.6990 C   0  0  0  0  0  0  0  0  0  0  0  0
  142.4860   75.5730  217.7750 C   0  0  0  0  0  0  0  0  0  0  0  0
  142.1550   75.0090  219.0950 C   0  0  1  0  0  0  0  0  0  0  0  0
  143.2700   74.3300  219.8040 C   0  0  0  0  0  0  0  0  0  0  0  0
  143.1710   72.9820  220.1750 C   0  0  0  0  0  0  0  0  0  0  0  0
  144.1870   72.3300  220.8380 C   0  0  0  0  0  0  0  0  0  0  0  0
  145.3560   72.9790  221.1680 C   0  0  0  0  0  0  0  0  0  0  0  0
  145.4790   74.3040  220.8160 C   0  0  0  0  0  0  0  0  0  0  0  0
  144.4490   74.9540  220.1470 C   0  0  0  0  0  0  0  0  0  0  0  0
  140.1480   71.1260  223.6110 C   0  0  0  0  0  0  0  0  0  0  0  0
  139.5720   69.8730  223.6140 C   0  0  0  0  0  0  0  0  0  0  0  0
  139.5060   69.2030  224.8280 C   0  0  0  0  0  0  0  0  0  0  0  0
  139.9880   69.7420  225.9980 C   0  0  0  0  0  0  0  0  0  0  0  0
  139.9260   69.0790  227.2060 C   0  0  0  0  0  0  0  0  0  0  0  0
  140.4260   69.6670  228.3570 C   0  0  0  0  0  0  0  0  0  0  0  0
  140.9940   70.9340  228.2810 C   0  0  0  0  0  0  0  0  0  0  0  0
  141.0680   71.6170  227.0770 C   0  0  0  0  0  0  0  0  0  0  0  0
  140.5570   70.9990  225.9450 C   0  0  0  0  0  0  0  0  0  0  0  0
  140.6060   71.6210  224.7630 N   0  0  0  0  0  0  0  0  0  0  0  0
  139.5610   73.6640  223.2140 H   0  0  0  0  0  0  0  0  0  0  0  0
  140.2725   73.3777  220.3001 H   0  0  0  0  0  0  0  0  0  0  0  0
  138.8763   74.4135  221.0336 H   0  0  0  0  0  0  0  0  0  0  0  0
  140.4789   77.4468  218.9719 H   0  0  0  0  0  0  0  0  0  0  0  0
  141.2307   77.8174  220.5960 H   0  0  0  0  0  0  0  0  0  0  0  0
  142.5056   78.8441  218.7611 H   0  0  0  0  0  0  0  0  0  0  0  0
  143.4630   77.6037  219.6281 H   0  0  0  0  0  0  0  0  0  0  0  0
  142.1155   77.4718  216.9446 H   0  0  0  0  0  0  0  0  0  0  0  0
  143.8474   77.1127  217.4432 H   0  0  0  0  0  0  0  0  0  0  0  0
  141.6321   75.3760  217.1102 H   0  0  0  0  0  0  0  0  0  0  0  0
  143.4294   75.0830  217.4922 H   0  0  0  0  0  0  0  0  0  0  0  0
  141.4699   74.1985  218.8058 H   0  0  0  0  0  0  0  0  0  0  0  0
  142.2533   72.4276  219.9290 H   0  0  0  0  0  0  0  0  0  0  0  0
  144.0624   71.2712  221.1090 H   0  0  0  0  0  0  0  0  0  0  0  0
  146.1661   72.4549  221.6963 H   0  0  0  0  0  0  0  0  0  0  0  0
  146.3993   74.8523  221.0661 H   0  0  0  0  0  0  0  0  0  0  0  0
  144.5810   76.0129  219.8798 H   0  0  0  0  0  0  0  0  0  0  0  0
  139.1801   69.4220  222.6904 H   0  0  0  0  0  0  0  0  0  0  0  0
  139.0505   68.2021  224.8553 H   0  0  0  0  0  0  0  0  0  0  0  0
  139.4764   68.0763  227.2561 H   0  0  0  0  0  0  0  0  0  0  0  0
  140.3741   69.1375  229.3198 H   0  0  0  0  0  0  0  0  0  0  0  0
  141.3919   71.4029  229.1930 H   0  0  0  0  0  0  0  0  0  0  0  0
  141.5184   72.6190  227.0209 H   0  0  0  0  0  0  0  0  0  0  0  0
  1  2  2  0
  2  3  1  0
  3  4  1  0
  4  5  1  0
  5  6  2  0
  5  7  1  0
  7  8  1  0
  8  9  1  0
  9 10  1  0
 10 11  1  0
 11 12  1  0
 12 13  1  0
 13 14  2  0
 14 15  1  0
 15 16  2  0
 16 17  1  0
 17 18  2  0
  2 19  1  0
 19 20  2  0
 20 21  1  0
 21 22  2  0
 22 23  1  0
 23 24  2  0
 24 25  1  0
 25 26  2  0
 26 27  1  0
 27 28  2  0
 12  7  1  0
 18 13  1  0
 28 19  1  0
 27 22  1  0
  3 29  1  0
  4 30  1  0
  4 31  1  0
  8 32  1  0
  8 33  1  0
  9 34  1  0
  9 35  1  0
 10 36  1  0
 10 37  1  0
 11 38  1  0
 11 39  1  0
 12 40  1  6
 14 41  1  0
 15 42  1  0
 16 43  1  0
 17 44  1  0
 18 45  1  0
 20 46  1  0
 21 47  1  0
 23 48  1  0
 24 49  1  0
 25 50  1  0
 26 51  1  0
M  END
>  <meeko>  (17) 
{"free_energy": -8.75, "intermolecular_energy": -10.24, "internal_energy": -1.87, "cluster_size": 12, "cluster_id": 1, "rank_in_cluster": 4}

$$$$

     RDKit          3D

 51 54  0  0  0  0  0  0  0  0999 V2000
  138.8050   75.2830  221.7530 O   0  0  0  0  0  0  0  0  0  0  0  0
  139.9660   75.7610  221.9960 C   0  0  0  0  0  0  0  0  0  0  0  0
  141.1140   74.9090  221.8800 N   0  0  0  0  0  0  0  0  0  0  0  0
  141.0580   73.5360  221.5000 C   0  0  0  0  0  0  0  0  0  0  0  0
  141.9090   73.0220  220.4560 C   0  0  0  0  0  0  0  0  0  0  0  0
  141.2630   72.5220  219.4350 O   0  0  0  0  0  0  0  0  0  0  0  0
  143.3110   72.9580  220.3400 N   0  0  0  0  0  0  0  0  0  0  0  0
  144.0990   71.7710  220.1250 C   0  0  0  0  0  0  0  0  0  0  0  0
  145.3920   72.0280  219.3640 C   0  0  0  0  0  0  0  0  0  0  0  0
  146.2260   72.9720  220.1470 C   0  0  0  0  0  0  0  0  0  0  0  0
  145.4800   74.0940  220.7720 C   0  0  0  0  0  0  0  0  0  0  0  0
  144.0440   74.2150  220.4700 C   0  0  1  0  0  0  0  0  0  0  0  0
  143.6870   75.2000  219.4160 C   0  0  0  0  0  0  0  0  0  0  0  0
  143.2220   76.4780  219.7550 C   0  0  0  0  0  0  0  0  0  0  0  0
  142.8790   77.4080  218.7980 C   0  0  0  0  0  0  0  0  0  0  0  0
  142.9820   77.1230  217.4550 C   0  0  0  0  0  0  0  0  0  0  0  0
  143.4370   75.8740  217.0950 C   0  0  0  0  0  0  0  0  0  0  0  0
  143.7790   74.9420  218.0670 C   0  0  0  0  0  0  0  0  0  0  0  0
  140.1330   77.1630  222.3870 C   0  0  0  0  0  0  0  0  0  0  0  0
  139.0030   77.9310  222.5770 C   0  0  0  0  0  0  0  0  0  0  0  0
  139.1860   79.2560  222.9480 C   0  0  0  0  0  0  0  0  0  0  0  0
  140.4330   79.8090  223.1260 C   0  0  0  0  0  0  0  0  0  0  0  0
  140.6190   81.1260  223.4950 C   0  0  0  0  0  0  0  0  0  0  0  0
  141.8960   81.6360  223.6600 C   0  0  0  0  0  0  0  0  0  0  0  0
  142.9920   80.8040  223.4520 C   0  0  0  0  0  0  0  0  0  0  0  0
  142.8270   79.4790  223.0810 C   0  0  0  0  0  0  0  0  0  0  0  0
  141.5340   79.0030  222.9240 C   0  0  0  0  0  0  0  0  0  0  0  0
  141.3290   77.7300  222.5670 N   0  0  0  0  0  0  0  0  0  0  0  0
  142.0460   75.3730  222.1010 H   0  0  0  0  0  0  0  0  0  0  0  0
  141.2831   72.9512  222.4041 H   0  0  0  0  0  0  0  0  0  0  0  0
  140.0533   73.4458  221.0613 H   0  0  0  0  0  0  0  0  0  0  0  0
  144.3519   71.3392  221.1046 H   0  0  0  0  0  0  0  0  0  0  0  0
  143.4933   71.0883  219.5109 H   0  0  0  0  0  0  0  0  0  0  0  0
  145.9348   71.0812  219.2265 H   0  0  0  0  0  0  0  0  0  0  0  0
  145.1664   72.4578  218.3769 H   0  0  0  0  0  0  0  0  0  0  0  0
  146.7244   72.4051  220.9472 H   0  0  0  0  0  0  0  0  0  0  0  0
  146.9289   73.4276  219.4340 H   0  0  0  0  0  0  0  0  0  0  0  0
  145.5782   73.9865  221.8623 H   0  0  0  0  0  0  0  0  0  0  0  0
  145.9312   75.0006  220.3424 H   0  0  0  0  0  0  0  0  0  0  0  0
  143.6753   74.6572  221.4073 H   0  0  0  0  0  0  0  0  0  0  0  0
  143.1280   76.7467  220.8175 H   0  0  0  0  0  0  0  0  0  0  0  0
  142.5158   78.3974  219.1131 H   0  0  0  0  0  0  0  0  0  0  0  0
  142.7096   77.8690  216.6939 H   0  0  0  0  0  0  0  0  0  0  0  0
  143.5303   75.6125  216.0306 H   0  0  0  0  0  0  0  0  0  0  0  0
  144.1393   73.9541  217.7442 H   0  0  0  0  0  0  0  0  0  0  0  0
  137.9961   77.5098  222.4398 H   0  0  0  0  0  0  0  0  0  0  0  0
  138.2998   79.8882  223.1057 H   0  0  0  0  0  0  0  0  0  0  0  0
  139.7464   81.7753  223.6592 H   0  0  0  0  0  0  0  0  0  0  0  0
  142.0422   82.6864  223.9521 H   0  0  0  0  0  0  0  0  0  0  0  0
  144.0076   81.2053  223.5845 H   0  0  0  0  0  0  0  0  0  0  0  0
  143.6956   78.8245  222.9160 H   0  0  0  0  0  0  0  0  0  0  0  0
  1  2  2  0
  2  3  1  0
  3  4  1  0
  4  5  1  0
  5  6  2  0
  5  7  1  0
  7  8  1  0
  8  9  1  0
  9 10  1  0
 10 11  1  0
 11 12  1  0
 12 13  1  0
 13 14  2  0
 14 15  1  0
 15 16  2  0
 16 17  1  0
 17 18  2  0
  2 19  1  0
 19 20  2  0
 20 21  1  0
 21 22  2  0
 22 23  1  0
 23 24  2  0
 24 25  1  0
 25 26  2  0
 26 27  1  0
 27 28  2  0
 12  7  1  0
 18 13  1  0
 28 19  1  0
 27 22  1  0
  3 29  1  0
  4 30  1  0
  4 31  1  0
  8 32  1  0
  8 33  1  0
  9 34  1  0
  9 35  1  0
 10 36  1  0
 10 37  1  0
 11 38  1  0
 11 39  1  0
 12 40  1  1
 14 41  1  0
 15 42  1  0
 16 43  1  0
 17 44  1  0
 18 45  1  0
 20 46  1  0
 21 47  1  0
 23 48  1  0
 24 49  1  0
 25 50  1  0
 26 51  1  0
M  END
>  <meeko>  (18) 
{"free_energy": -7.89, "intermolecular_energy": -9.38, "internal_energy": -2.22, "cluster_size": 6, "cluster_id": 3, "rank_in_cluster": 6}

$$$$

     RDKit          3D

 51 54  0  0  0  0  0  0  0  0999 V2000
  140.5460   71.1800  221.2570 O   0  0  0  0  0  0  0  0  0  0  0  0
  140.2070   71.7840  222.3310 C   0  0  0  0  0  0  0  0  0  0  0  0
  139.8930   73.1840  222.2800 N   0  0  0  0  0  0  0  0  0  0  0  0
  139.9270   73.9700  221.0920 C   0  0  0  0  0  0  0  0  0  0  0  0
  140.6740   75.2020  221.0410 C   0  0  0  0  0  0  0  0  0  0  0  0
  140.7370   75.8400  222.1810 O   0  0  0  0  0  0  0  0  0  0  0  0
  141.3440   75.8450  219.9820 N   0  0  0  0  0  0  0  0  0  0  0  0
  141.3120   77.2520  219.6780 C   0  0  0  0  0  0  0  0  0  0  0  0
  142.5820   77.7610  219.0100 C   0  0  0  0  0  0  0  0  0  0  0  0
  142.7680   77.0390  217.7270 C   0  0  0  0  0  0  0  0  0  0  0  0
  142.4700   75.5840  217.7810 C   0  0  0  0  0  0  0  0  0  0  0  0
  142.1350   75.0000  219.0910 C   0  0  1  0  0  0  0  0  0  0  0  0
  143.2480   74.3090  219.7920 C   0  0  0  0  0  0  0  0  0  0  0  0
  143.1350   72.9640  220.1680 C   0  0  0  0  0  0  0  0  0  0  0  0
  144.1480   72.3000  220.8230 C   0  0  0  0  0  0  0  0  0  0  0  0
  145.3300   72.9340  221.1390 C   0  0  0  0  0  0  0  0  0  0  0  0
  145.4670   74.2560  220.7810 C   0  0  0  0  0  0  0  0  0  0  0  0
  144.4390   74.9170  220.1200 C   0  0  0  0  0  0  0  0  0  0  0  0
  140.1340   71.0660  223.6050 C   0  0  0  0  0  0  0  0  0  0  0  0
  139.5700   69.8070  223.6170 C   0  0  0  0  0  0  0  0  0  0  0  0
  139.5120   69.1440  224.8360 C   0  0  0  0  0  0  0  0  0  0  0  0
  139.9890   69.6960  226.0020 C   0  0  0  0  0  0  0  0  0  0  0  0
  139.9340   69.0410  227.2150 C   0  0  0  0  0  0  0  0  0  0  0  0
  140.4280   69.6410  228.3610 C   0  0  0  0  0  0  0  0  0  0  0  0
  140.9840   70.9140  228.2770 C   0  0  0  0  0  0  0  0  0  0  0  0
  141.0490   71.5890  227.0680 C   0  0  0  0  0  0  0  0  0  0  0  0
  140.5450   70.9580  225.9410 C   0  0  0  0  0  0  0  0  0  0  0  0
  140.5870   71.5730  224.7540 N   0  0  0  0  0  0  0  0  0  0  0  0
  139.6230   73.6200  223.2120 H   0  0  0  0  0  0  0  0  0  0  0  0
  140.3340   73.3238  220.3003 H   0  0  0  0  0  0  0  0  0  0  0  0
  138.8860   74.3127  220.9972 H   0  0  0  0  0  0  0  0  0  0  0  0
  140.4641   77.4428  219.0037 H   0  0  0  0  0  0  0  0  0  0  0  0
  141.2147   77.7863  220.6346 H   0  0  0  0  0  0  0  0  0  0  0  0
  142.4917   78.8403  218.8175 H   0  0  0  0  0  0  0  0  0  0  0  0
  143.4467   77.5858  219.6670 H   0  0  0  0  0  0  0  0  0  0  0  0
  142.1050   77.4964  216.9779 H   0  0  0  0  0  0  0  0  0  0  0  0
  143.8350   77.1271  217.4743 H   0  0  0  0  0  0  0  0  0  0  0  0
  141.6172   75.3986  217.1114 H   0  0  0  0  0  0  0  0  0  0  0  0
  143.4135   75.0970  217.4936 H   0  0  0  0  0  0  0  0  0  0  0  0
  141.4488   74.1956  218.7876 H   0  0  0  0  0  0  0  0  0  0  0  0
  142.2076   72.4213  219.9325 H   0  0  0  0  0  0  0  0  0  0  0  0
  144.0112   71.2440  221.0991 H   0  0  0  0  0  0  0  0  0  0  0  0
  146.1383   72.4006  221.6607 H   0  0  0  0  0  0  0  0  0  0  0  0
  146.3968   74.7930  221.0199 H   0  0  0  0  0  0  0  0  0  0  0  0
  144.5830   75.9727  219.8466 H   0  0  0  0  0  0  0  0  0  0  0  0
  139.1814   69.3462  222.6969 H   0  0  0  0  0  0  0  0  0  0  0  0
  139.0673   68.1385  224.8703 H   0  0  0  0  0  0  0  0  0  0  0  0
  139.4943   68.0343  227.2722 H   0  0  0  0  0  0  0  0  0  0  0  0
  140.3815   69.1172  229.3272 H   0  0  0  0  0  0  0  0  0  0  0  0
  141.3786   71.3927  229.1854 H   0  0  0  0  0  0  0  0  0  0  0  0
  141.4876   72.5958  227.0046 H   0  0  0  0  0  0  0  0  0  0  0  0
  1  2  2  0
  2  3  1  0
  3  4  1  0
  4  5  1  0
  5  6  2  0
  5  7  1  0
  7  8  1  0
  8  9  1  0
  9 10  1  0
 10 11  1  0
 11 12  1  0
 12 13  1  0
 13 14  2  0
 14 15  1  0
 15 16  2  0
 16 17  1  0
 17 18  2  0
  2 19  1  0
 19 20  2  0
 20 21  1  0
 21 22  2  0
 22 23  1  0
 23 24  2  0
 24 25  1  0
 25 26  2  0
 26 27  1  0
 27 28  2  0
 12  7  1  0
 18 13  1  0
 28 19  1  0
 27 22  1  0
  3 29  1  0
  4 30  1  0
  4 31  1  0
  8 32  1  0
  8 33  1  0
  9 34  1  0
  9 35  1  0
 10 36  1  0
 10 37  1  0
 11 38  1  0
 11 39  1  0
 12 40  1  6
 14 41  1  0
 15 42  1  0
 16 43  1  0
 17 44  1  0
 18 45  1  0
 20 46  1  0
 21 47  1  0
 23 48  1  0
 24 49  1  0
 25 50  1  0
 26 51  1  0
M  END
>  <meeko>  (19) 
{"free_energy": -8.69, "intermolecular_energy": -10.18, "internal_energy": -1.88, "cluster_size": 12, "cluster_id": 1, "rank_in_cluster": 9}

$$$$

     RDKit          3D

 51 54  0  0  0  0  0  0  0  0999 V2000
  138.8470   75.2550  221.8220 O   0  0  0  0  0  0  0  0  0  0  0  0
  140.0210   75.7310  221.9990 C   0  0  0  0  0  0  0  0  0  0  0  0
  141.1600   74.8820  221.8000 N   0  0  0  0  0  0  0  0  0  0  0  0
  141.0820   73.5150  221.4040 C   0  0  0  0  0  0  0  0  0  0  0  0
  141.9740   72.9810  220.4040 C   0  0  0  0  0  0  0  0  0  0  0  0
  141.3690   72.4000  219.4010 O   0  0  0  0  0  0  0  0  0  0  0  0
  143.3790   72.9690  220.3170 N   0  0  0  0  0  0  0  0  0  0  0  0
  144.2140   71.8150  220.1040 C   0  0  0  0  0  0  0  0  0  0  0  0
  145.5130   72.1290  219.3730 C   0  0  0  0  0  0  0  0  0  0  0  0
  146.2960   73.0910  220.1870 C   0  0  0  0  0  0  0  0  0  0  0  0
  145.4960   74.1770  220.8110 C   0  0  0  0  0  0  0  0  0  0  0  0
  144.0630   74.2500  220.4800 C   0  0  1  0  0  0  0  0  0  0  0  0
  143.6930   75.2360  219.4320 C   0  0  0  0  0  0  0  0  0  0  0  0
  143.2500   76.5200  219.7770 C   0  0  0  0  0  0  0  0  0  0  0  0
  142.8950   77.4510  218.8260 C   0  0  0  0  0  0  0  0  0  0  0  0
  142.9630   77.1610  217.4820 C   0  0  0  0  0  0  0  0  0  0  0  0
  143.3950   75.9060  217.1150 C   0  0  0  0  0  0  0  0  0  0  0  0
  143.7490   74.9730  218.0810 C   0  0  0  0  0  0  0  0  0  0  0  0
  140.2120   77.1270  222.4000 C   0  0  0  0  0  0  0  0  0  0  0  0
  139.0940   77.9030  222.6250 C   0  0  0  0  0  0  0  0  0  0  0  0
  139.2990   79.2230  223.0040 C   0  0  0  0  0  0  0  0  0  0  0  0
  140.5550   79.7630  223.1560 C   0  0  0  0  0  0  0  0  0  0  0  0
  140.7630   81.0740  223.5330 C   0  0  0  0  0  0  0  0  0  0  0  0
  142.0490   81.5700  223.6720 C   0  0  0  0  0  0  0  0  0  0  0  0
  143.1310   80.7310  223.4280 C   0  0  0  0  0  0  0  0  0  0  0  0
  142.9440   79.4100  223.0500 C   0  0  0  0  0  0  0  0  0  0  0  0
  141.6430   78.9480  222.9200 C   0  0  0  0  0  0  0  0  0  0  0  0
  141.4170   77.6810  222.5560 N   0  0  0  0  0  0  0  0  0  0  0  0
  142.1040   75.3450  221.9690 H   0  0  0  0  0  0  0  0  0  0  0  0
  141.2369   72.9162  222.3136 H   0  0  0  0  0  0  0  0  0  0  0  0
  140.1015   73.4614  220.9083 H   0  0  0  0  0  0  0  0  0  0  0  0
  144.4624   71.3799  221.0833 H   0  0  0  0  0  0  0  0  0  0  0  0
  143.6465   71.1189  219.4689 H   0  0  0  0  0  0  0  0  0  0  0  0
  146.0923   71.2043  219.2338 H   0  0  0  0  0  0  0  0  0  0  0  0
  145.2926   72.5644  218.3872 H   0  0  0  0  0  0  0  0  0  0  0  0
  146.7973   72.5309  220.9901 H   0  0  0  0  0  0  0  0  0  0  0  0
  146.9973   73.5816  219.4960 H   0  0  0  0  0  0  0  0  0  0  0  0
  145.5753   74.0580  221.9017 H   0  0  0  0  0  0  0  0  0  0  0  0
  145.9226   75.1053  220.4031 H   0  0  0  0  0  0  0  0  0  0  0  0
  143.6587   74.6647  221.4152 H   0  0  0  0  0  0  0  0  0  0  0  0
  143.1837   76.7929  220.8405 H   0  0  0  0  0  0  0  0  0  0  0  0
  142.5506   78.4453  219.1466 H   0  0  0  0  0  0  0  0  0  0  0  0
  142.6812   77.9080  216.7253 H   0  0  0  0  0  0  0  0  0  0  0  0
  143.4602   75.6406  216.0495 H   0  0  0  0  0  0  0  0  0  0  0  0
  144.0892   73.9798  217.7526 H   0  0  0  0  0  0  0  0  0  0  0  0
  138.0802   77.4924  222.5088 H   0  0  0  0  0  0  0  0  0  0  0  0
  138.4229   79.8617  223.1899 H   0  0  0  0  0  0  0  0  0  0  0  0
  139.9012   81.7302  223.7246 H   0  0  0  0  0  0  0  0  0  0  0  0
  142.2125   82.6156  223.9720 H   0  0  0  0  0  0  0  0  0  0  0  0
  144.1533   81.1223  223.5368 H   0  0  0  0  0  0  0  0  0  0  0  0
  143.8019   78.7485  222.8590 H   0  0  0  0  0  0  0  0  0  0  0  0
  1  2  2  0
  2  3  1  0
  3  4  1  0
  4  5  1  0
  5  6  2  0
  5  7  1  0
  7  8  1  0
  8  9  1  0
  9 10  1  0
 10 11  1  0
 11 12  1  0
 12 13  1  0
 13 14  2  0
 14 15  1  0
 15 16  2  0
 16 17  1  0
 17 18  2  0
  2 19  1  0
 19 20  2  0
 20 21  1  0
 21 22  2  0
 22 23  1  0
 23 24  2  0
 24 25  1  0
 25 26  2  0
 26 27  1  0
 27 28  2  0
 12  7  1  0
 18 13  1  0
 28 19  1  0
 27 22  1  0
  3 29  1  0
  4 30  1  0
  4 31  1  0
  8 32  1  0
  8 33  1  0
  9 34  1  0
  9 35  1  0
 10 36  1  0
 10 37  1  0
 11 38  1  0
 11 39  1  0
 12 40  1  1
 14 41  1  0
 15 42  1  0
 16 43  1  0
 17 44  1  0
 18 45  1  0
 20 46  1  0
 21 47  1  0
 23 48  1  0
 24 49  1  0
 25 50  1  0
 26 51  1  0
M  END
>  <meeko>  (20) 
{"free_energy": -7.93, "intermolecular_energy": -9.42, "internal_energy": -2.25, "cluster_size": 6, "cluster_id": 3, "rank_in_cluster": 2}

$$$$
