
     RDKit          3D

 51 54  0  0  0  0  0  0  0  0999 V2000
  140.8020   71.5660  221.3450 O   0  0  0  0  0  0  0  0  0  0  0  0
  140.2700   72.0920  222.3560 C   0  0  0  0  0  0  0  0  0  0  0  0
  139.6870   73.4150  222.3100 N   0  0  0  0  0  0  0  0  0  0  0  0
  139.7020   74.1680  221.1130 C   0  0  0  0  0  0  0  0  0  0  0  0
  140.6920   75.2130  220.9080 C   0  0  0  0  0  0  0  0  0  0  0  0
  141.0650   75.8100  222.0090 O   0  0  0  0  0  0  0  0  0  0  0  0
  141.3060   75.6780  219.7420 N   0  0  0  0  0  0  0  0  0  0  0  0
  140.6860   75.9670  218.4850 C   0  0  0  0  0  0  0  0  0  0  0  0
  141.5470   75.6480  217.2680 C   0  0  0  0  0  0  0  0  0  0  0  0
  142.9770   76.0370  217.4100 C   0  0  0  0  0  0  0  0  0  0  0  0
  143.2730   76.7390  218.6920 C   0  0  0  0  0  0  0  0  0  0  0  0
  142.7600   75.9290  219.8230 C   0  0  2  0  0  0  0  0  0  0  0  0
  143.5480   74.7290  220.0760 C   0  0  0  0  0  0  0  0  0  0  0  0
  144.8870   74.8530  220.4710 C   0  0  0  0  0  0  0  0  0  0  0  0
  145.6780   73.7550  220.7260 C   0  0  0  0  0  0  0  0  0  0  0  0
  145.1900   72.4720  220.6060 C   0  0  0  0  0  0  0  0  0  0  0  0
  143.8760   72.3260  220.2190 C   0  0  0  0  0  0  0  0  0  0  0  0
  143.0890   73.4330  219.9650 C   0  0  0  0  0  0  0  0  0  0  0  0
  140.2210   71.3720  223.6420 C   0  0  0  0  0  0  0  0  0  0  0  0
  139.6690   70.1090  223.6690 C   0  0  0  0  0  0  0  0  0  0  0  0
  139.5700   69.3460  224.8110 C   0  0  0  0  0  0  0  0  0  0  0  0
  140.0540   69.8970  225.9760 C   0  0  0  0  0  0  0  0  0  0  0  0
  139.9650   69.1500  227.1290 C   0  0  0  0  0  0  0  0  0  0  0  0
  140.4420   69.6760  228.3120 C   0  0  0  0  0  0  0  0  0  0  0  0
  140.9950   70.9440  228.2830 C   0  0  0  0  0  0  0  0  0  0  0  0
  141.0780   71.6760  227.1250 C   0  0  0  0  0  0  0  0  0  0  0  0
  140.6030   71.1620  225.9290 C   0  0  0  0  0  0  0  0  0  0  0  0
  140.6810   71.8810  224.7800 N   0  0  0  0  0  0  0  0  0  0  0  0
  139.2540   73.7930  223.2000 H   0  0  0  0  0  0  0  0  0  0  0  0
  139.8288   73.4488  220.2904 H   0  0  0  0  0  0  0  0  0  0  0  0
  138.7578   74.7300  221.1639 H   0  0  0  0  0  0  0  0  0  0  0  0
  139.7600   75.3775  218.4149 H   0  0  0  0  0  0  0  0  0  0  0  0
  140.5071   77.0522  218.4662 H   0  0  0  0  0  0  0  0  0  0  0  0
  141.5012   74.5637  217.0883 H   0  0  0  0  0  0  0  0  0  0  0  0
  141.1418   76.2375  216.4323 H   0  0  0  0  0  0  0  0  0  0  0  0
  143.5930   75.1270  217.3600 H   0  0  0  0  0  0  0  0  0  0  0  0
  143.2064   76.7383  216.5941 H   0  0  0  0  0  0  0  0  0  0  0  0
  144.3601   76.8699  218.7969 H   0  0  0  0  0  0  0  0  0  0  0  0
  142.7856   77.7251  218.6936 H   0  0  0  0  0  0  0  0  0  0  0  0
  142.8956   76.5512  220.7199 H   0  0  0  0  0  0  0  0  0  0  0  0
  145.3194   75.8585  220.5807 H   0  0  0  0  0  0  0  0  0  0  0  0
  146.7236   73.9056  221.0326 H   0  0  0  0  0  0  0  0  0  0  0  0
  145.8253   71.5978  220.8114 H   0  0  0  0  0  0  0  0  0  0  0  0
  143.4490   71.3180  220.1111 H   0  0  0  0  0  0  0  0  0  0  0  0
  142.0446   73.2728  219.6591 H   0  0  0  0  0  0  0  0  0  0  0  0
  139.2870   69.6880  222.7273 H   0  0  0  0  0  0  0  0  0  0  0  0
  139.1239   68.3407  224.7932 H   0  0  0  0  0  0  0  0  0  0  0  0
  139.5185   68.1449  227.1073 H   0  0  0  0  0  0  0  0  0  0  0  0
  140.3844   69.1044  229.2501 H   0  0  0  0  0  0  0  0  0  0  0  0
  141.3801   71.3789  229.2171 H   0  0  0  0  0  0  0  0  0  0  0  0
  141.5259   72.6804  227.1465 H   0  0  0  0  0  0  0  0  0  0  0  0
  1  2  2  0
  2  3  1  0
  3  4  1  0
  4  5  1  0
  5  6  2  0
  5  7  1  0
  7  8  1  0
  8  9  1  0
  9 10  1  0
 10 11  1  0
 11 12  1  0
 12 13  1  0
 13 14  2  0
 14 15  1  0
 15 16  2  0
 16 17  1  0
 17 18  2  0
  2 19  1  0
 19 20  2  0
 20 21  1  0
 21 22  2  0
 22 23  1  0
 23 24  2  0
 24 25  1  0
 25 26  2  0
 26 27  1  0
 27 28  2  0
 12  7  1  0
 18 13  1  0
 28 19  1  0
 27 22  1  0
  3 29  1  0
  4 30  1  0
  4 31  1  0
  8 32  1  0
  8 33  1  0
  9 34  1  0
  9 35  1  0
 10 36  1  0
 10 37  1  0
 11 38  1  0
 11 39  1  0
 12 40  1  1
 14 41  1  0
 15 42  1  0
 16 43  1  0
 17 44  1  0
 18 45  1  0
 20 46  1  0
 21 47  1  0
 23 48  1  0
 24 49  1  0
 25 50  1  0
 26 51  1  0
M  END
>  <meeko>  (1) 
{"free_energy": -8.6, "intermolecular_energy": -10.09, "internal_energy": -1.75, "cluster_size": 15, "cluster_id": 2, "rank_in_cluster": 8}

$$$$

     RDKit          3D

 51 54  0  0  0  0  0  0  0  0999 V2000
  140.7520   71.4650  221.3180 O   0  0  0  0  0  0  0  0  0  0  0  0
  140.2660   72.0330  222.3290 C   0  0  0  0  0  0  0  0  0  0  0  0
  139.7450   73.3800  222.2710 N   0  0  0  0  0  0  0  0  0  0  0  0
  139.7710   74.1120  221.0610 C   0  0  0  0  0  0  0  0  0  0  0  0
  140.7360   75.1810  220.8620 C   0  0  0  0  0  0  0  0  0  0  0  0
  141.1000   75.7750  221.9680 O   0  0  0  0  0  0  0  0  0  0  0  0
  141.3350   75.6720  219.7000 N   0  0  0  0  0  0  0  0  0  0  0  0
  140.6990   75.9840  218.4550 C   0  0  0  0  0  0  0  0  0  0  0  0
  141.5460   75.6940  217.2230 C   0  0  0  0  0  0  0  0  0  0  0  0
  142.9770   76.0850  217.3550 C   0  0  0  0  0  0  0  0  0  0  0  0
  143.2850   76.7620  218.6480 C   0  0  0  0  0  0  0  0  0  0  0  0
  142.7880   75.9280  219.7680 C   0  0  2  0  0  0  0  0  0  0  0  0
  143.5840   74.7260  219.9870 C   0  0  0  0  0  0  0  0  0  0  0  0
  144.8940   74.8440  220.4710 C   0  0  0  0  0  0  0  0  0  0  0  0
  145.6900   73.7430  220.7000 C   0  0  0  0  0  0  0  0  0  0  0  0
  145.2360   72.4640  220.4640 C   0  0  0  0  0  0  0  0  0  0  0  0
  143.9510   72.3240  219.9870 C   0  0  0  0  0  0  0  0  0  0  0  0
  143.1590   73.4330  219.7600 C   0  0  0  0  0  0  0  0  0  0  0  0
  140.2080   71.3380  223.6290 C   0  0  0  0  0  0  0  0  0  0  0  0
  139.6430   70.0820  223.6790 C   0  0  0  0  0  0  0  0  0  0  0  0
  139.5350   69.3410  224.8350 C   0  0  0  0  0  0  0  0  0  0  0  0
  140.0260   69.9090  225.9900 C   0  0  0  0  0  0  0  0  0  0  0  0
  139.9280   69.1840  227.1570 C   0  0  0  0  0  0  0  0  0  0  0  0
  140.4120   69.7270  228.3290 C   0  0  0  0  0  0  0  0  0  0  0  0
  140.9790   70.9880  228.2770 C   0  0  0  0  0  0  0  0  0  0  0  0
  141.0700   71.6980  227.1050 C   0  0  0  0  0  0  0  0  0  0  0  0
  140.5890   71.1660  225.9190 C   0  0  0  0  0  0  0  0  0  0  0  0
  140.6740   71.8630  224.7570 N   0  0  0  0  0  0  0  0  0  0  0  0
  139.3490   73.7940  223.1620 H   0  0  0  0  0  0  0  0  0  0  0  0
  139.9398   73.3821  220.2555 H   0  0  0  0  0  0  0  0  0  0  0  0
  138.8105   74.6480  221.0774 H   0  0  0  0  0  0  0  0  0  0  0  0
  139.7747   75.3920  218.3836 H   0  0  0  0  0  0  0  0  0  0  0  0
  140.5158   77.0686  218.4605 H   0  0  0  0  0  0  0  0  0  0  0  0
  141.5016   74.6135  217.0214 H   0  0  0  0  0  0  0  0  0  0  0  0
  141.1289   76.3000  216.4052 H   0  0  0  0  0  0  0  0  0  0  0  0
  143.5954   75.1785  217.2792 H   0  0  0  0  0  0  0  0  0  0  0  0
  143.1950   76.8028  216.5505 H   0  0  0  0  0  0  0  0  0  0  0  0
  144.3728   76.8948  218.7433 H   0  0  0  0  0  0  0  0  0  0  0  0
  142.7939   77.7459  218.6750 H   0  0  0  0  0  0  0  0  0  0  0  0
  142.9308   76.5336  220.6751 H   0  0  0  0  0  0  0  0  0  0  0  0
  145.2990   75.8463  220.6742 H   0  0  0  0  0  0  0  0  0  0  0  0
  146.7119   73.8887  221.0801 H   0  0  0  0  0  0  0  0  0  0  0  0
  145.8749   71.5880  220.6493 H   0  0  0  0  0  0  0  0  0  0  0  0
  143.5517   71.3192  219.7849 H   0  0  0  0  0  0  0  0  0  0  0  0
  142.1388   73.2775  219.3793 H   0  0  0  0  0  0  0  0  0  0  0  0
  139.2573   69.6476  222.7449 H   0  0  0  0  0  0  0  0  0  0  0  0
  139.0773   68.3407  224.8359 H   0  0  0  0  0  0  0  0  0  0  0  0
  139.4693   68.1842  227.1544 H   0  0  0  0  0  0  0  0  0  0  0  0
  140.3490   69.1735  229.2775 H   0  0  0  0  0  0  0  0  0  0  0  0
  141.3689   71.4357  229.2030 H   0  0  0  0  0  0  0  0  0  0  0  0
  141.5287   72.6978  227.1075 H   0  0  0  0  0  0  0  0  0  0  0  0
  1  2  2  0
  2  3  1  0
  3  4  1  0
  4  5  1  0
  5  6  2  0
  5  7  1  0
  7  8  1  0
  8  9  1  0
  9 10  1  0
 10 11  1  0
 11 12  1  0
 12 13  1  0
 13 14  2  0
 14 15  1  0
 15 16  2  0
 16 17  1  0
 17 18  2  0
  2 19  1  0
 19 20  2  0
 20 21  1  0
 21 22  2  0
 22 23  1  0
 23 24  2  0
 24 25  1  0
 25 26  2  0
 26 27  1  0
 27 28  2  0
 12  7  1  0
 18 13  1  0
 28 19  1  0
 27 22  1  0
  3 29  1  0
  4 30  1  0
  4 31  1  0
  8 32  1  0
  8 33  1  0
  9 34  1  0
  9 35  1  0
 10 36  1  0
 10 37  1  0
 11 38  1  0
 11 39  1  0
 12 40  1  1
 14 41  1  0
 15 42  1  0
 16 43  1  0
 17 44  1  0
 18 45  1  0
 20 46  1  0
 21 47  1  0
 23 48  1  0
 24 49  1  0
 25 50  1  0
 26 51  1  0
M  END
>  <meeko>  (2) 
{"free_energy": -8.6, "intermolecular_energy": -10.09, "internal_energy": -1.75, "cluster_size": 15, "cluster_id": 2, "rank_in_cluster": 11}

$$$$

     RDKit          3D

 51 54  0  0  0  0  0  0  0  0999 V2000
  140.8460   71.5840  221.3610 O   0  0  0  0  0  0  0  0  0  0  0  0
  140.2940   72.1010  222.3660 C   0  0  0  0  0  0  0  0  0  0  0  0
  139.6930   73.4150  222.3150 N   0  0  0  0  0  0  0  0  0  0  0  0
  139.7120   74.1710  221.1200 C   0  0  0  0  0  0  0  0  0  0  0  0
  140.7180   75.1980  220.9090 C   0  0  0  0  0  0  0  0  0  0  0  0
  141.1180   75.7790  222.0090 O   0  0  0  0  0  0  0  0  0  0  0  0
  141.3240   75.6620  219.7390 N   0  0  0  0  0  0  0  0  0  0  0  0
  140.6900   75.9850  218.4960 C   0  0  0  0  0  0  0  0  0  0  0  0
  141.5190   75.6600  217.2600 C   0  0  0  0  0  0  0  0  0  0  0  0
  142.9620   76.0070  217.3810 C   0  0  0  0  0  0  0  0  0  0  0  0
  143.3000   76.6840  218.6660 C   0  0  0  0  0  0  0  0  0  0  0  0
  142.7850   75.8730  219.7960 C   0  0  2  0  0  0  0  0  0  0  0  0
  143.5440   74.6490  220.0180 C   0  0  0  0  0  0  0  0  0  0  0  0
  144.8640   74.7300  220.4830 C   0  0  0  0  0  0  0  0  0  0  0  0
  145.6270   73.6070  220.7140 C   0  0  0  0  0  0  0  0  0  0  0  0
  145.1290   72.3400  220.5000 C   0  0  0  0  0  0  0  0  0  0  0  0
  143.8340   72.2360  220.0420 C   0  0  0  0  0  0  0  0  0  0  0  0
  143.0750   73.3680  219.8130 C   0  0  0  0  0  0  0  0  0  0  0  0
  140.2390   71.3780  223.6510 C   0  0  0  0  0  0  0  0  0  0  0  0
  139.6860   70.1160  223.6730 C   0  0  0  0  0  0  0  0  0  0  0  0
  139.5810   69.3500  224.8120 C   0  0  0  0  0  0  0  0  0  0  0  0
  140.0620   69.8980  225.9810 C   0  0  0  0  0  0  0  0  0  0  0  0
  139.9680   69.1480  227.1320 C   0  0  0  0  0  0  0  0  0  0  0  0
  140.4420   69.6710  228.3170 C   0  0  0  0  0  0  0  0  0  0  0  0
  140.9970   70.9380  228.2930 C   0  0  0  0  0  0  0  0  0  0  0  0
  141.0850   71.6730  227.1370 C   0  0  0  0  0  0  0  0  0  0  0  0
  140.6130   71.1620  225.9380 C   0  0  0  0  0  0  0  0  0  0  0  0
  140.6960   71.8840  224.7910 N   0  0  0  0  0  0  0  0  0  0  0  0
  139.2440   73.7860  223.2000 H   0  0  0  0  0  0  0  0  0  0  0  0
  139.8190   73.4518  220.2946 H   0  0  0  0  0  0  0  0  0  0  0  0
  138.7787   74.7501  221.1808 H   0  0  0  0  0  0  0  0  0  0  0  0
  139.7471   75.4219  218.4349 H   0  0  0  0  0  0  0  0  0  0  0  0
  140.5414   77.0749  218.4949 H   0  0  0  0  0  0  0  0  0  0  0  0
  141.4395   74.5802  217.0661 H   0  0  0  0  0  0  0  0  0  0  0  0
  141.1155   76.2726  216.4403 H   0  0  0  0  0  0  0  0  0  0  0  0
  143.5511   75.0808  217.3088 H   0  0  0  0  0  0  0  0  0  0  0  0
  143.1968   76.7118  216.5698 H   0  0  0  0  0  0  0  0  0  0  0  0
  144.3920   76.7840  218.7528 H   0  0  0  0  0  0  0  0  0  0  0  0
  142.8401   77.6830  218.6890 H   0  0  0  0  0  0  0  0  0  0  0  0
  142.9533   76.4797  220.6980 H   0  0  0  0  0  0  0  0  0  0  0  0
  145.3038   75.7209  220.6691 H   0  0  0  0  0  0  0  0  0  0  0  0
  146.6584   73.7242  221.0780 H   0  0  0  0  0  0  0  0  0  0  0  0
  145.7420   71.4461  220.6877 H   0  0  0  0  0  0  0  0  0  0  0  0
  143.3999   71.2424  219.8568 H   0  0  0  0  0  0  0  0  0  0  0  0
  142.0448   73.2411  219.4489 H   0  0  0  0  0  0  0  0  0  0  0  0
  139.3077   69.6977  222.7286 H   0  0  0  0  0  0  0  0  0  0  0  0
  139.1332   68.3455  224.7898 H   0  0  0  0  0  0  0  0  0  0  0  0
  139.5202   68.1436  227.1067 H   0  0  0  0  0  0  0  0  0  0  0  0
  140.3805   69.0975  229.2537 H   0  0  0  0  0  0  0  0  0  0  0  0
  141.3797   71.3699  229.2295 H   0  0  0  0  0  0  0  0  0  0  0  0
  141.5342   72.6768  227.1623 H   0  0  0  0  0  0  0  0  0  0  0  0
  1  2  2  0
  2  3  1  0
  3  4  1  0
  4  5  1  0
  5  6  2  0
  5  7  1  0
  7  8  1  0
  8  9  1  0
  9 10  1  0
 10 11  1  0
 11 12  1  0
 12 13  1  0
 13 14  2  0
 14 15  1  0
 15 16  2  0
 16 17  1  0
 17 18  2  0
  2 19  1  0
 19 20  2  0
 20 21  1  0
 21 22  2  0
 22 23  1  0
 23 24  2  0
 24 25  1  0
 25 26  2  0
 26 27  1  0
 27 28  2  0
 12  7  1  0
 18 13  1  0
 28 19  1  0
 27 22  1  0
  3 29  1  0
  4 30  1  0
  4 31  1  0
  8 32  1  0
  8 33  1  0
  9 34  1  0
  9 35  1  0
 10 36  1  0
 10 37  1  0
 11 38  1  0
 11 39  1  0
 12 40  1  1
 14 41  1  0
 15 42  1  0
 16 43  1  0
 17 44  1  0
 18 45  1  0
 20 46  1  0
 21 47  1  0
 23 48  1  0
 24 49  1  0
 25 50  1  0
 26 51  1  0
M  END
>  <meeko>  (3) 
{"free_energy": -8.57, "intermolecular_energy": -10.06, "internal_energy": -1.77, "cluster_size": 15, "cluster_id": 2, "rank_in_cluster": 13}

$$$$

     RDKit          3D

 51 54  0  0  0  0  0  0  0  0999 V2000
  140.9900   71.6370  221.4080 O   0  0  0  0  0  0  0  0  0  0  0  0
  140.3160   72.1100  222.3580 C   0  0  0  0  0  0  0  0  0  0  0  0
  139.6050   73.3630  222.2400 N   0  0  0  0  0  0  0  0  0  0  0  0
  139.6500   74.1070  221.0380 C   0  0  0  0  0  0  0  0  0  0  0  0
  140.6310   75.1640  220.8580 C   0  0  0  0  0  0  0  0  0  0  0  0
  140.9640   75.7700  221.9670 O   0  0  0  0  0  0  0  0  0  0  0  0
  141.2740   75.6330  219.7090 N   0  0  0  0  0  0  0  0  0  0  0  0
  140.6900   75.8980  218.4290 C   0  0  0  0  0  0  0  0  0  0  0  0
  141.5970   75.5890  217.2450 C   0  0  0  0  0  0  0  0  0  0  0  0
  143.0130   76.0100  217.4300 C   0  0  0  0  0  0  0  0  0  0  0  0
  143.2500   76.7300  218.7150 C   0  0  0  0  0  0  0  0  0  0  0  0
  142.7180   75.9180  219.8350 C   0  0  2  0  0  0  0  0  0  0  0  0
  143.5240   74.7380  220.1250 C   0  0  0  0  0  0  0  0  0  0  0  0
  144.8720   74.8920  220.4760 C   0  0  0  0  0  0  0  0  0  0  0  0
  145.6790   73.8140  220.7630 C   0  0  0  0  0  0  0  0  0  0  0  0
  145.2010   72.5230  220.7200 C   0  0  0  0  0  0  0  0  0  0  0  0
  143.8780   72.3470  220.3770 C   0  0  0  0  0  0  0  0  0  0  0  0
  143.0740   73.4350  220.0910 C   0  0  0  0  0  0  0  0  0  0  0  0
  140.2240   71.3960  223.6460 C   0  0  0  0  0  0  0  0  0  0  0  0
  139.6310   70.1530  223.6680 C   0  0  0  0  0  0  0  0  0  0  0  0
  139.4900   69.3960  224.8100 C   0  0  0  0  0  0  0  0  0  0  0  0
  139.9760   69.9350  225.9810 C   0  0  0  0  0  0  0  0  0  0  0  0
  139.8460   69.1940  227.1350 C   0  0  0  0  0  0  0  0  0  0  0  0
  140.3240   69.7080  228.3220 C   0  0  0  0  0  0  0  0  0  0  0  0
  140.9190   70.9560  228.2980 C   0  0  0  0  0  0  0  0  0  0  0  0
  141.0430   71.6820  227.1400 C   0  0  0  0  0  0  0  0  0  0  0  0
  140.5670   71.1800  225.9380 C   0  0  0  0  0  0  0  0  0  0  0  0
  140.6850   71.8930  224.7890 N   0  0  0  0  0  0  0  0  0  0  0  0
  139.0550   73.6990  223.0810 H   0  0  0  0  0  0  0  0  0  0  0  0
  139.8148   73.3833  220.2261 H   0  0  0  0  0  0  0  0  0  0  0  0
  138.6968   74.6558  221.0525 H   0  0  0  0  0  0  0  0  0  0  0  0
  139.7801   75.2873  218.3334 H   0  0  0  0  0  0  0  0  0  0  0  0
  140.4881   76.9788  218.3948 H   0  0  0  0  0  0  0  0  0  0  0  0
  141.5805   74.5026  217.0730 H   0  0  0  0  0  0  0  0  0  0  0  0
  141.2071   76.1636  216.3919 H   0  0  0  0  0  0  0  0  0  0  0  0
  143.6497   75.1132  217.4093 H   0  0  0  0  0  0  0  0  0  0  0  0
  143.2551   76.7081  216.6151 H   0  0  0  0  0  0  0  0  0  0  0  0
  144.3297   76.8868  218.8549 H   0  0  0  0  0  0  0  0  0  0  0  0
  142.7408   77.7048  218.6913 H   0  0  0  0  0  0  0  0  0  0  0  0
  142.8097   76.5512  220.7298 H   0  0  0  0  0  0  0  0  0  0  0  0
  145.2983   75.9049  220.5237 H   0  0  0  0  0  0  0  0  0  0  0  0
  146.7310   73.9880  221.0332 H   0  0  0  0  0  0  0  0  0  0  0  0
  145.8503   71.6655  220.9506 H   0  0  0  0  0  0  0  0  0  0  0  0
  143.4576   71.3316  220.3303 H   0  0  0  0  0  0  0  0  0  0  0  0
  142.0230   73.2520  219.8230 H   0  0  0  0  0  0  0  0  0  0  0  0
  139.2491   69.7424  222.7217 H   0  0  0  0  0  0  0  0  0  0  0  0
  139.0111   68.4060  224.7880 H   0  0  0  0  0  0  0  0  0  0  0  0
  139.3667   68.2042  227.1099 H   0  0  0  0  0  0  0  0  0  0  0  0
  140.2346   69.1416  229.2607 H   0  0  0  0  0  0  0  0  0  0  0  0
  141.3051   71.3802  229.2366 H   0  0  0  0  0  0  0  0  0  0  0  0
  141.5242   72.6708  227.1654 H   0  0  0  0  0  0  0  0  0  0  0  0
  1  2  2  0
  2  3  1  0
  3  4  1  0
  4  5  1  0
  5  6  2  0
  5  7  1  0
  7  8  1  0
  8  9  1  0
  9 10  1  0
 10 11  1  0
 11 12  1  0
 12 13  1  0
 13 14  2  0
 14 15  1  0
 15 16  2  0
 16 17  1  0
 17 18  2  0
  2 19  1  0
 19 20  2  0
 20 21  1  0
 21 22  2  0
 22 23  1  0
 23 24  2  0
 24 25  1  0
 25 26  2  0
 26 27  1  0
 27 28  2  0
 12  7  1  0
 18 13  1  0
 28 19  1  0
 27 22  1  0
  3 29  1  0
  4 30  1  0
  4 31  1  0
  8 32  1  0
  8 33  1  0
  9 34  1  0
  9 35  1  0
 10 36  1  0
 10 37  1  0
 11 38  1  0
 11 39  1  0
 12 40  1  1
 14 41  1  0
 15 42  1  0
 16 43  1  0
 17 44  1  0
 18 45  1  0
 20 46  1  0
 21 47  1  0
 23 48  1  0
 24 49  1  0
 25 50  1  0
 26 51  1  0
M  END
>  <meeko>  (4) 
{"free_energy": -8.67, "intermolecular_energy": -10.16, "internal_energy": -1.7, "cluster_size": 15, "cluster_id": 2, "rank_in_cluster": 1}

$$$$

     RDKit          3D

 51 54  0  0  0  0  0  0  0  0999 V2000
  141.1750   71.7340  221.5410 O   0  0  0  0  0  0  0  0  0  0  0  0
  140.3850   72.1460  222.4270 C   0  0  0  0  0  0  0  0  0  0  0  0
  139.5910   73.3410  222.2460 N   0  0  0  0  0  0  0  0  0  0  0  0
  139.6840   74.0940  221.0530 C   0  0  0  0  0  0  0  0  0  0  0  0
  140.7060   75.1170  220.9000 C   0  0  0  0  0  0  0  0  0  0  0  0
  141.1190   75.6230  222.0320 O   0  0  0  0  0  0  0  0  0  0  0  0
  141.3150   75.6420  219.7580 N   0  0  0  0  0  0  0  0  0  0  0  0
  140.6900   75.9900  218.5180 C   0  0  0  0  0  0  0  0  0  0  0  0
  141.5490   75.7360  217.2850 C   0  0  0  0  0  0  0  0  0  0  0  0
  142.9780   76.1240  217.4420 C   0  0  0  0  0  0  0  0  0  0  0  0
  143.2740   76.7640  218.7560 C   0  0  0  0  0  0  0  0  0  0  0  0
  142.7670   75.8970  219.8470 C   0  0  2  0  0  0  0  0  0  0  0  0
  143.5620   74.6900  220.0390 C   0  0  0  0  0  0  0  0  0  0  0  0
  143.0070   73.4410  219.7260 C   0  0  0  0  0  0  0  0  0  0  0  0
  143.7120   72.2690  219.8840 C   0  0  0  0  0  0  0  0  0  0  0  0
  145.0060   72.2630  220.3580 C   0  0  0  0  0  0  0  0  0  0  0  0
  145.5720   73.4800  220.6720 C   0  0  0  0  0  0  0  0  0  0  0  0
  144.8570   74.6520  220.5110 C   0  0  0  0  0  0  0  0  0  0  0  0
  140.2360   71.4180  223.7020 C   0  0  0  0  0  0  0  0  0  0  0  0
  139.5630   70.2160  223.6980 C   0  0  0  0  0  0  0  0  0  0  0  0
  139.3640   69.4510  224.8260 C   0  0  0  0  0  0  0  0  0  0  0  0
  139.8740   69.9380  226.0100 C   0  0  0  0  0  0  0  0  0  0  0  0
  139.6860   69.1880  227.1490 C   0  0  0  0  0  0  0  0  0  0  0  0
  140.1860   69.6500  228.3490 C   0  0  0  0  0  0  0  0  0  0  0  0
  140.8610   70.8580  228.3510 C   0  0  0  0  0  0  0  0  0  0  0  0
  141.0410   71.5930  227.2060 C   0  0  0  0  0  0  0  0  0  0  0  0
  140.5450   71.1430  225.9920 C   0  0  0  0  0  0  0  0  0  0  0  0
  140.7180   71.8650  224.8560 N   0  0  0  0  0  0  0  0  0  0  0  0
  138.9450   73.6270  223.0350 H   0  0  0  0  0  0  0  0  0  0  0  0
  139.8367   73.3725  220.2368 H   0  0  0  0  0  0  0  0  0  0  0  0
  138.7513   74.6771  221.0570 H   0  0  0  0  0  0  0  0  0  0  0  0
  139.7666   75.4001  218.4211 H   0  0  0  0  0  0  0  0  0  0  0  0
  140.5058   77.0739  218.5535 H   0  0  0  0  0  0  0  0  0  0  0  0
  141.5075   74.6618  217.0518 H   0  0  0  0  0  0  0  0  0  0  0  0
  141.1389   76.3647  216.4810 H   0  0  0  0  0  0  0  0  0  0  0  0
  143.5978   75.2203  217.3462 H   0  0  0  0  0  0  0  0  0  0  0  0
  143.2024   76.8650  216.6606 H   0  0  0  0  0  0  0  0  0  0  0  0
  144.3608   76.8945  218.8649 H   0  0  0  0  0  0  0  0  0  0  0  0
  142.7826   77.7468  218.8069 H   0  0  0  0  0  0  0  0  0  0  0  0
  142.9007   76.4764  220.7725 H   0  0  0  0  0  0  0  0  0  0  0  0
  141.9770   73.3962  219.3425 H   0  0  0  0  0  0  0  0  0  0  0  0
  143.2307   71.3142  219.6256 H   0  0  0  0  0  0  0  0  0  0  0  0
  145.5653   71.3238  220.4810 H   0  0  0  0  0  0  0  0  0  0  0  0
  146.6027   73.5189  221.0544 H   0  0  0  0  0  0  0  0  0  0  0  0
  145.3457   75.6021  220.7726 H   0  0  0  0  0  0  0  0  0  0  0  0
  139.1628   69.8471  222.7421 H   0  0  0  0  0  0  0  0  0  0  0  0
  138.8224   68.4945  224.7837 H   0  0  0  0  0  0  0  0  0  0  0  0
  139.1438   68.2320  227.1029 H   0  0  0  0  0  0  0  0  0  0  0  0
  140.0520   69.0749  229.2771 H   0  0  0  0  0  0  0  0  0  0  0  0
  141.2657   71.2410  229.2994 H   0  0  0  0  0  0  0  0  0  0  0  0
  141.5841   72.5485  227.2519 H   0  0  0  0  0  0  0  0  0  0  0  0
  1  2  2  0
  2  3  1  0
  3  4  1  0
  4  5  1  0
  5  6  2  0
  5  7  1  0
  7  8  1  0
  8  9  1  0
  9 10  1  0
 10 11  1  0
 11 12  1  0
 12 13  1  0
 13 14  2  0
 14 15  1  0
 15 16  2  0
 16 17  1  0
 17 18  2  0
  2 19  1  0
 19 20  2  0
 20 21  1  0
 21 22  2  0
 22 23  1  0
 23 24  2  0
 24 25  1  0
 25 26  2  0
 26 27  1  0
 27 28  2  0
 12  7  1  0
 18 13  1  0
 28 19  1  0
 27 22  1  0
  3 29  1  0
  4 30  1  0
  4 31  1  0
  8 32  1  0
  8 33  1  0
  9 34  1  0
  9 35  1  0
 10 36  1  0
 10 37  1  0
 11 38  1  0
 11 39  1  0
 12 40  1  1
 14 41  1  0
 15 42  1  0
 16 43  1  0
 17 44  1  0
 18 45  1  0
 20 46  1  0
 21 47  1  0
 23 48  1  0
 24 49  1  0
 25 50  1  0
 26 51  1  0
M  END
>  <meeko>  (5) 
{"free_energy": -8.62, "intermolecular_energy": -10.11, "internal_energy": -1.68, "cluster_size": 15, "cluster_id": 2, "rank_in_cluster": 6}

$$$$

     RDKit          3D

 51 54  0  0  0  0  0  0  0  0999 V2000
  141.3930   71.9020  221.6360 O   0  0  0  0  0  0  0  0  0  0  0  0
  140.4620   72.2100  222.4240 C   0  0  0  0  0  0  0  0  0  0  0  0
  139.5480   73.2940  222.1380 N   0  0  0  0  0  0  0  0  0  0  0  0
  139.6770   74.0520  220.9520 C   0  0  0  0  0  0  0  0  0  0  0  0
  140.6910   75.0880  220.8410 C   0  0  0  0  0  0  0  0  0  0  0  0
  141.0880   75.5630  221.9920 O   0  0  0  0  0  0  0  0  0  0  0  0
  141.3080   75.6520  219.7210 N   0  0  0  0  0  0  0  0  0  0  0  0
  140.6850   76.0760  218.5030 C   0  0  0  0  0  0  0  0  0  0  0  0
  141.5310   75.8610  217.2540 C   0  0  0  0  0  0  0  0  0  0  0  0
  142.9700   76.2040  217.4210 C   0  0  0  0  0  0  0  0  0  0  0  0
  143.2890   76.7710  218.7630 C   0  0  0  0  0  0  0  0  0  0  0  0
  142.7660   75.8650  219.8130 C   0  0  2  0  0  0  0  0  0  0  0  0
  143.5310   74.6310  219.9410 C   0  0  0  0  0  0  0  0  0  0  0  0
  144.8280   74.6730  220.4710 C   0  0  0  0  0  0  0  0  0  0  0  0
  145.5940   73.5380  220.6170 C   0  0  0  0  0  0  0  0  0  0  0  0
  145.1230   72.2970  220.2490 C   0  0  0  0  0  0  0  0  0  0  0  0
  143.8500   72.2310  219.7250 C   0  0  0  0  0  0  0  0  0  0  0  0
  143.0870   73.3750  219.5820 C   0  0  0  0  0  0  0  0  0  0  0  0
  140.2660   71.4700  223.6840 C   0  0  0  0  0  0  0  0  0  0  0  0
  139.5940   70.2680  223.6440 C   0  0  0  0  0  0  0  0  0  0  0  0
  139.3530   69.4930  224.7560 C   0  0  0  0  0  0  0  0  0  0  0  0
  139.8180   69.9670  225.9630 C   0  0  0  0  0  0  0  0  0  0  0  0
  139.5880   69.2070  227.0870 C   0  0  0  0  0  0  0  0  0  0  0  0
  140.0430   69.6560  228.3090 C   0  0  0  0  0  0  0  0  0  0  0  0
  140.7180   70.8630  228.3480 C   0  0  0  0  0  0  0  0  0  0  0  0
  140.9410   71.6100  227.2180 C   0  0  0  0  0  0  0  0  0  0  0  0
  140.4890   71.1720  225.9820 C   0  0  0  0  0  0  0  0  0  0  0  0
  140.7050   71.9060  224.8600 N   0  0  0  0  0  0  0  0  0  0  0  0
  138.7870   73.4950  222.8470 H   0  0  0  0  0  0  0  0  0  0  0  0
  139.8697   73.3352  220.1401 H   0  0  0  0  0  0  0  0  0  0  0  0
  138.7376   74.6235  220.9223 H   0  0  0  0  0  0  0  0  0  0  0  0
  139.7465   75.5149  218.3834 H   0  0  0  0  0  0  0  0  0  0  0  0
  140.5281   77.1611  218.5924 H   0  0  0  0  0  0  0  0  0  0  0  0
  141.4606   74.8010  216.9687 H   0  0  0  0  0  0  0  0  0  0  0  0
  141.1334   76.5388  216.4843 H   0  0  0  0  0  0  0  0  0  0  0  0
  143.5657   75.2905  217.2773 H   0  0  0  0  0  0  0  0  0  0  0  0
  143.2096   76.9765  216.6754 H   0  0  0  0  0  0  0  0  0  0  0  0
  144.3793   76.8686  218.8712 H   0  0  0  0  0  0  0  0  0  0  0  0
  142.8230   77.7622  218.8651 H   0  0  0  0  0  0  0  0  0  0  0  0
  142.9192   76.3943  220.7651 H   0  0  0  0  0  0  0  0  0  0  0  0
  145.2467   75.6422  220.7797 H   0  0  0  0  0  0  0  0  0  0  0  0
  146.6067   73.6245  221.0378 H   0  0  0  0  0  0  0  0  0  0  0  0
  145.7391   71.3936  220.3687 H   0  0  0  0  0  0  0  0  0  0  0  0
  143.4371   71.2589  219.4176 H   0  0  0  0  0  0  0  0  0  0  0  0
  142.0753   73.2790  219.1609 H   0  0  0  0  0  0  0  0  0  0  0  0
  139.2301   69.9079  222.6704 H   0  0  0  0  0  0  0  0  0  0  0  0
  138.8130   68.5374  224.6839 H   0  0  0  0  0  0  0  0  0  0  0  0
  139.0473   68.2521  227.0116 H   0  0  0  0  0  0  0  0  0  0  0  0
  139.8742   69.0717  229.2256 H   0  0  0  0  0  0  0  0  0  0  0  0
  141.0876   71.2358  229.3147 H   0  0  0  0  0  0  0  0  0  0  0  0
  141.4829   72.5643  227.2935 H   0  0  0  0  0  0  0  0  0  0  0  0
  1  2  2  0
  2  3  1  0
  3  4  1  0
  4  5  1  0
  5  6  2  0
  5  7  1  0
  7  8  1  0
  8  9  1  0
  9 10  1  0
 10 11  1  0
 11 12  1  0
 12 13  1  0
 13 14  2  0
 14 15  1  0
 15 16  2  0
 16 17  1  0
 17 18  2  0
  2 19  1  0
 19 20  2  0
 20 21  1  0
 21 22  2  0
 22 23  1  0
 23 24  2  0
 24 25  1  0
 25 26  2  0
 26 27  1  0
 27 28  2  0
 12  7  1  0
 18 13  1  0
 28 19  1  0
 27 22  1  0
  3 29  1  0
  4 30  1  0
  4 31  1  0
  8 32  1  0
  8 33  1  0
  9 34  1  0
  9 35  1  0
 10 36  1  0
 10 37  1  0
 11 38  1  0
 11 39  1  0
 12 40  1  1
 14 41  1  0
 15 42  1  0
 16 43  1  0
 17 44  1  0
 18 45  1  0
 20 46  1  0
 21 47  1  0
 23 48  1  0
 24 49  1  0
 25 50  1  0
 26 51  1  0
M  END
>  <meeko>  (6) 
{"free_energy": -8.61, "intermolecular_energy": -10.1, "internal_energy": -1.7, "cluster_size": 15, "cluster_id": 2, "rank_in_cluster": 7}

$$$$

     RDKit          3D

 51 54  0  0  0  0  0  0  0  0999 V2000
  140.9790   71.4750  221.4090 O   0  0  0  0  0  0  0  0  0  0  0  0
  140.3360   71.9880  222.3600 C   0  0  0  0  0  0  0  0  0  0  0  0
  139.6830   73.2720  222.2340 N   0  0  0  0  0  0  0  0  0  0  0  0
  139.7530   74.0020  221.0250 C   0  0  0  0  0  0  0  0  0  0  0  0
  140.6200   75.1620  220.9080 C   0  0  0  0  0  0  0  0  0  0  0  0
  140.8230   75.7850  222.0390 O   0  0  0  0  0  0  0  0  0  0  0  0
  141.2700   75.7150  219.8020 N   0  0  0  0  0  0  0  0  0  0  0  0
  140.6790   76.1560  218.5740 C   0  0  0  0  0  0  0  0  0  0  0  0
  141.5420   75.9250  217.3390 C   0  0  0  0  0  0  0  0  0  0  0  0
  142.9850   76.2350  217.5330 C   0  0  0  0  0  0  0  0  0  0  0  0
  143.2930   76.7910  218.8820 C   0  0  0  0  0  0  0  0  0  0  0  0
  142.7310   75.8940  219.9200 C   0  0  2  0  0  0  0  0  0  0  0  0
  143.4640   74.6420  220.0570 C   0  0  0  0  0  0  0  0  0  0  0  0
  144.8050   74.6680  220.4650 C   0  0  0  0  0  0  0  0  0  0  0  0
  145.5460   73.5160  220.6150 C   0  0  0  0  0  0  0  0  0  0  0  0
  145.0030   72.2730  220.3700 C   0  0  0  0  0  0  0  0  0  0  0  0
  143.6860   72.2240  219.9680 C   0  0  0  0  0  0  0  0  0  0  0  0
  142.9500   73.3840  219.8200 C   0  0  0  0  0  0  0  0  0  0  0  0
  140.2220   71.2920  223.6550 C   0  0  0  0  0  0  0  0  0  0  0  0
  139.5950   70.0650  223.6900 C   0  0  0  0  0  0  0  0  0  0  0  0
  139.4320   69.3260  224.8400 C   0  0  0  0  0  0  0  0  0  0  0  0
  139.9290   69.8650  226.0070 C   0  0  0  0  0  0  0  0  0  0  0  0
  139.7760   69.1420  227.1680 C   0  0  0  0  0  0  0  0  0  0  0  0
  140.2650   69.6560  228.3510 C   0  0  0  0  0  0  0  0  0  0  0  0
  140.8930   70.8880  228.3140 C   0  0  0  0  0  0  0  0  0  0  0  0
  141.0390   71.5970  227.1480 C   0  0  0  0  0  0  0  0  0  0  0  0
  140.5530   71.0940  225.9510 C   0  0  0  0  0  0  0  0  0  0  0  0
  140.6930   71.7900  224.7930 N   0  0  0  0  0  0  0  0  0  0  0  0
  139.1570   73.6420  223.0760 H   0  0  0  0  0  0  0  0  0  0  0  0
  140.0714   73.2921  220.2474 H   0  0  0  0  0  0  0  0  0  0  0  0
  138.7467   74.4388  220.9438 H   0  0  0  0  0  0  0  0  0  0  0  0
  139.7303   75.6167  218.4361 H   0  0  0  0  0  0  0  0  0  0  0  0
  140.5458   77.2442  218.6638 H   0  0  0  0  0  0  0  0  0  0  0  0
  141.4528   74.8676  217.0493 H   0  0  0  0  0  0  0  0  0  0  0  0
  141.1735   76.6133  216.5641 H   0  0  0  0  0  0  0  0  0  0  0  0
  143.5624   75.3086  217.3971 H   0  0  0  0  0  0  0  0  0  0  0  0
  143.2550   77.0041  216.7944 H   0  0  0  0  0  0  0  0  0  0  0  0
  144.3832   76.8635  219.0097 H   0  0  0  0  0  0  0  0  0  0  0  0
  142.8479   77.7922  218.9790 H   0  0  0  0  0  0  0  0  0  0  0  0
  142.8806   76.4170  220.8761 H   0  0  0  0  0  0  0  0  0  0  0  0
  145.2804   75.6382  220.6718 H   0  0  0  0  0  0  0  0  0  0  0  0
  146.5950   73.5900  220.9377 H   0  0  0  0  0  0  0  0  0  0  0  0
  145.5980   71.3557  220.4907 H   0  0  0  0  0  0  0  0  0  0  0  0
  143.2155   71.2511  219.7627 H   0  0  0  0  0  0  0  0  0  0  0  0
  141.9018   73.3001  219.4971 H   0  0  0  0  0  0  0  0  0  0  0  0
  139.2036   69.6539  222.7478 H   0  0  0  0  0  0  0  0  0  0  0  0
  138.9275   68.3486  224.8280 H   0  0  0  0  0  0  0  0  0  0  0  0
  139.2697   68.1656  227.1528 H   0  0  0  0  0  0  0  0  0  0  0  0
  140.1587   69.1026  229.2957 H   0  0  0  0  0  0  0  0  0  0  0  0
  141.2879   71.3128  229.2487 H   0  0  0  0  0  0  0  0  0  0  0  0
  141.5461   72.5730  227.1633 H   0  0  0  0  0  0  0  0  0  0  0  0
  1  2  2  0
  2  3  1  0
  3  4  1  0
  4  5  1  0
  5  6  2  0
  5  7  1  0
  7  8  1  0
  8  9  1  0
  9 10  1  0
 10 11  1  0
 11 12  1  0
 12 13  1  0
 13 14  2  0
 14 15  1  0
 15 16  2  0
 16 17  1  0
 17 18  2  0
  2 19  1  0
 19 20  2  0
 20 21  1  0
 21 22  2  0
 22 23  1  0
 23 24  2  0
 24 25  1  0
 25 26  2  0
 26 27  1  0
 27 28  2  0
 12  7  1  0
 18 13  1  0
 28 19  1  0
 27 22  1  0
  3 29  1  0
  4 30  1  0
  4 31  1  0
  8 32  1  0
  8 33  1  0
  9 34  1  0
  9 35  1  0
 10 36  1  0
 10 37  1  0
 11 38  1  0
 11 39  1  0
 12 40  1  1
 14 41  1  0
 15 42  1  0
 16 43  1  0
 17 44  1  0
 18 45  1  0
 20 46  1  0
 21 47  1  0
 23 48  1  0
 24 49  1  0
 25 50  1  0
 26 51  1  0
M  END
>  <meeko>  (7) 
{"free_energy": -8.62, "intermolecular_energy": -10.11, "internal_energy": -1.73, "cluster_size": 15, "cluster_id": 2, "rank_in_cluster": 5}

$$$$

     RDKit          3D

 51 54  0  0  0  0  0  0  0  0999 V2000
  141.1350   71.5830  221.4340 O   0  0  0  0  0  0  0  0  0  0  0  0
  140.5500   72.1450  222.3950 C   0  0  0  0  0  0  0  0  0  0  0  0
  140.0880   73.5120  222.3130 N   0  0  0  0  0  0  0  0  0  0  0  0
  140.2860   74.2710  221.1370 C   0  0  0  0  0  0  0  0  0  0  0  0
  140.3600   75.7220  221.1950 C   0  0  0  0  0  0  0  0  0  0  0  0
  139.9750   76.2240  222.3390 O   0  0  0  0  0  0  0  0  0  0  0  0
  140.7710   76.6590  220.2440 N   0  0  0  0  0  0  0  0  0  0  0  0
  141.5550   76.4230  219.0690 C   0  0  0  0  0  0  0  0  0  0  0  0
  142.5070   77.5560  218.7060 C   0  0  0  0  0  0  0  0  0  0  0  0
  141.9240   78.9180  218.8550 C   0  0  0  0  0  0  0  0  0  0  0  0
  140.4880   78.9040  219.2560 C   0  0  0  0  0  0  0  0  0  0  0  0
  140.3230   78.0500  220.4570 C   0  0  2  0  0  0  0  0  0  0  0  0
  140.8550   78.6570  221.6710 C   0  0  0  0  0  0  0  0  0  0  0  0
  139.9730   79.0890  222.6710 C   0  0  0  0  0  0  0  0  0  0  0  0
  140.4190   79.6650  223.8390 C   0  0  0  0  0  0  0  0  0  0  0  0
  141.7620   79.8470  224.0870 C   0  0  0  0  0  0  0  0  0  0  0  0
  142.6480   79.4300  223.1180 C   0  0  0  0  0  0  0  0  0  0  0  0
  142.1920   78.8520  221.9480 C   0  0  0  0  0  0  0  0  0  0  0  0
  140.3100   71.4210  223.6570 C   0  0  0  0  0  0  0  0  0  0  0  0
  139.6450   70.2150  223.6090 C   0  0  0  0  0  0  0  0  0  0  0  0
  139.3670   69.4530  224.7220 C   0  0  0  0  0  0  0  0  0  0  0  0
  139.7850   69.9470  225.9380 C   0  0  0  0  0  0  0  0  0  0  0  0
  139.5160   69.2010  227.0640 C   0  0  0  0  0  0  0  0  0  0  0  0
  139.9240   69.6700  228.2960 C   0  0  0  0  0  0  0  0  0  0  0  0
  140.5910   70.8810  228.3420 C   0  0  0  0  0  0  0  0  0  0  0  0
  140.8520   71.6130  227.2110 C   0  0  0  0  0  0  0  0  0  0  0  0
  140.4490   71.1550  225.9660 C   0  0  0  0  0  0  0  0  0  0  0  0
  140.7030   71.8750  224.8430 N   0  0  0  0  0  0  0  0  0  0  0  0
  139.6000   73.9190  223.1610 H   0  0  0  0  0  0  0  0  0  0  0  0
  141.2322   73.9253  220.6952 H   0  0  0  0  0  0  0  0  0  0  0  0
  139.3590   74.0946  220.5717 H   0  0  0  0  0  0  0  0  0  0  0  0
  142.1506   75.5124  219.2306 H   0  0  0  0  0  0  0  0  0  0  0  0
  140.8458   76.3307  218.2333 H   0  0  0  0  0  0  0  0  0  0  0  0
  143.3901   77.4861  219.3581 H   0  0  0  0  0  0  0  0  0  0  0  0
  142.7513   77.4329  217.6406 H   0  0  0  0  0  0  0  0  0  0  0  0
  142.4956   79.4604  219.6225 H   0  0  0  0  0  0  0  0  0  0  0  0
  141.9829   79.4071  217.8715 H   0  0  0  0  0  0  0  0  0  0  0  0
  140.1607   79.9287  219.4859 H   0  0  0  0  0  0  0  0  0  0  0  0
  139.8792   78.5031  218.4322 H   0  0  0  0  0  0  0  0  0  0  0  0
  139.2383   77.9799  220.6259 H   0  0  0  0  0  0  0  0  0  0  0  0
  138.8909   78.9639  222.5177 H   0  0  0  0  0  0  0  0  0  0  0  0
  139.6855   79.9878  224.5925 H   0  0  0  0  0  0  0  0  0  0  0  0
  142.1131   80.3073  225.0223 H   0  0  0  0  0  0  0  0  0  0  0  0
  143.7289   79.5582  223.2768 H   0  0  0  0  0  0  0  0  0  0  0  0
  142.9326   78.5315  221.2004 H   0  0  0  0  0  0  0  0  0  0  0  0
  139.3183   69.8403  222.6277 H   0  0  0  0  0  0  0  0  0  0  0  0
  138.8352   68.4933  224.6435 H   0  0  0  0  0  0  0  0  0  0  0  0
  138.9823   68.2427  226.9822 H   0  0  0  0  0  0  0  0  0  0  0  0
  139.7247   69.0979  229.2142 H   0  0  0  0  0  0  0  0  0  0  0  0
  140.9227   71.2696  229.3161 H   0  0  0  0  0  0  0  0  0  0  0  0
  141.3856   72.5714  227.2929 H   0  0  0  0  0  0  0  0  0  0  0  0
  1  2  2  0
  2  3  1  0
  3  4  1  0
  4  5  1  0
  5  6  2  0
  5  7  1  0
  7  8  1  0
  8  9  1  0
  9 10  1  0
 10 11  1  0
 11 12  1  0
 12 13  1  0
 13 14  2  0
 14 15  1  0
 15 16  2  0
 16 17  1  0
 17 18  2  0
  2 19  1  0
 19 20  2  0
 20 21  1  0
 21 22  2  0
 22 23  1  0
 23 24  2  0
 24 25  1  0
 25 26  2  0
 26 27  1  0
 27 28  2  0
 12  7  1  0
 18 13  1  0
 28 19  1  0
 27 22  1  0
  3 29  1  0
  4 30  1  0
  4 31  1  0
  8 32  1  0
  8 33  1  0
  9 34  1  0
  9 35  1  0
 10 36  1  0
 10 37  1  0
 11 38  1  0
 11 39  1  0
 12 40  1  1
 14 41  1  0
 15 42  1  0
 16 43  1  0
 17 44  1  0
 18 45  1  0
 20 46  1  0
 21 47  1  0
 23 48  1  0
 24 49  1  0
 25 50  1  0
 26 51  1  0
M  END
>  <meeko>  (8) 
{"free_energy": -8.79, "intermolecular_energy": -10.29, "internal_energy": -1.37, "cluster_size": 5, "cluster_id": 1, "rank_in_cluster": 4}

$$$$

     RDKit          3D

 51 54  0  0  0  0  0  0  0  0999 V2000
  140.7010   71.4460  221.3290 O   0  0  0  0  0  0  0  0  0  0  0  0
  140.2580   72.0310  222.3500 C   0  0  0  0  0  0  0  0  0  0  0  0
  139.7760   73.3930  222.3000 N   0  0  0  0  0  0  0  0  0  0  0  0
  139.7920   74.1200  221.0870 C   0  0  0  0  0  0  0  0  0  0  0  0
  140.7040   75.2380  220.9050 C   0  0  0  0  0  0  0  0  0  0  0  0
  140.9770   75.8800  222.0090 O   0  0  0  0  0  0  0  0  0  0  0  0
  141.3310   75.7330  219.7590 N   0  0  0  0  0  0  0  0  0  0  0  0
  140.7210   76.0810  218.5120 C   0  0  0  0  0  0  0  0  0  0  0  0
  141.5780   75.7900  217.2860 C   0  0  0  0  0  0  0  0  0  0  0  0
  143.0160   76.1430  217.4450 C   0  0  0  0  0  0  0  0  0  0  0  0
  143.3230   76.7900  218.7530 C   0  0  0  0  0  0  0  0  0  0  0  0
  142.7890   75.9500  219.8520 C   0  0  2  0  0  0  0  0  0  0  0  0
  143.5510   74.7250  220.0610 C   0  0  0  0  0  0  0  0  0  0  0  0
  142.9490   73.4850  219.8060 C   0  0  0  0  0  0  0  0  0  0  0  0
  143.6210   72.2960  219.9830 C   0  0  0  0  0  0  0  0  0  0  0  0
  144.9270   72.2650  220.4220 C   0  0  0  0  0  0  0  0  0  0  0  0
  145.5390   73.4720  220.6800 C   0  0  0  0  0  0  0  0  0  0  0  0
  144.8580   74.6600  220.4990 C   0  0  0  0  0  0  0  0  0  0  0  0
  140.2140   71.3420  223.6540 C   0  0  0  0  0  0  0  0  0  0  0  0
  139.6700   70.0770  223.7120 C   0  0  0  0  0  0  0  0  0  0  0  0
  139.5770   69.3410  224.8720 C   0  0  0  0  0  0  0  0  0  0  0  0
  140.0580   69.9240  226.0230 C   0  0  0  0  0  0  0  0  0  0  0  0
  139.9740   69.2040  227.1940 C   0  0  0  0  0  0  0  0  0  0  0  0
  140.4490   69.7620  228.3630 C   0  0  0  0  0  0  0  0  0  0  0  0
  140.9940   71.0320  228.3030 C   0  0  0  0  0  0  0  0  0  0  0  0
  141.0720   71.7370  227.1270 C   0  0  0  0  0  0  0  0  0  0  0  0
  140.5990   71.1900  225.9440 C   0  0  0  0  0  0  0  0  0  0  0  0
  140.6710   71.8820  224.7780 N   0  0  0  0  0  0  0  0  0  0  0  0
  139.4150   73.8210  223.1990 H   0  0  0  0  0  0  0  0  0  0  0  0
  140.0182   73.3966  220.2898 H   0  0  0  0  0  0  0  0  0  0  0  0
  138.8044   74.6043  221.0776 H   0  0  0  0  0  0  0  0  0  0  0  0
  139.7833   75.5137  218.4181 H   0  0  0  0  0  0  0  0  0  0  0  0
  140.5650   77.1697  218.5332 H   0  0  0  0  0  0  0  0  0  0  0  0
  141.5097   74.7145  217.0655 H   0  0  0  0  0  0  0  0  0  0  0  0
  141.1876   76.4191  216.4725 H   0  0  0  0  0  0  0  0  0  0  0  0
  143.6127   75.2227  217.3621 H   0  0  0  0  0  0  0  0  0  0  0  0
  143.2626   76.8691  216.6563 H   0  0  0  0  0  0  0  0  0  0  0  0
  144.4124   76.8932  218.8653 H   0  0  0  0  0  0  0  0  0  0  0  0
  142.8570   77.7857  218.7902 H   0  0  0  0  0  0  0  0  0  0  0  0
  142.9341   76.5357  220.7718 H   0  0  0  0  0  0  0  0  0  0  0  0
  141.9073   73.4609  219.4535 H   0  0  0  0  0  0  0  0  0  0  0  0
  143.1034   71.3492  219.7691 H   0  0  0  0  0  0  0  0  0  0  0  0
  145.4603   71.3130  220.5611 H   0  0  0  0  0  0  0  0  0  0  0  0
  146.5804   73.4898  221.0337 H   0  0  0  0  0  0  0  0  0  0  0  0
  145.3840   75.6017  220.7148 H   0  0  0  0  0  0  0  0  0  0  0  0
  139.2895   69.6312  222.7812 H   0  0  0  0  0  0  0  0  0  0  0  0
  139.1381   68.3324  224.8789 H   0  0  0  0  0  0  0  0  0  0  0  0
  139.5335   68.1961  227.1972 H   0  0  0  0  0  0  0  0  0  0  0  0
  140.3959   69.2131  229.3148 H   0  0  0  0  0  0  0  0  0  0  0  0
  141.3769   71.4916  229.2261 H   0  0  0  0  0  0  0  0  0  0  0  0
  141.5136   72.7445  227.1236 H   0  0  0  0  0  0  0  0  0  0  0  0
  1  2  2  0
  2  3  1  0
  3  4  1  0
  4  5  1  0
  5  6  2  0
  5  7  1  0
  7  8  1  0
  8  9  1  0
  9 10  1  0
 10 11  1  0
 11 12  1  0
 12 13  1  0
 13 14  2  0
 14 15  1  0
 15 16  2  0
 16 17  1  0
 17 18  2  0
  2 19  1  0
 19 20  2  0
 20 21  1  0
 21 22  2  0
 22 23  1  0
 23 24  2  0
 24 25  1  0
 25 26  2  0
 26 27  1  0
 27 28  2  0
 12  7  1  0
 18 13  1  0
 28 19  1  0
 27 22  1  0
  3 29  1  0
  4 30  1  0
  4 31  1  0
  8 32  1  0
  8 33  1  0
  9 34  1  0
  9 35  1  0
 10 36  1  0
 10 37  1  0
 11 38  1  0
 11 39  1  0
 12 40  1  1
 14 41  1  0
 15 42  1  0
 16 43  1  0
 17 44  1  0
 18 45  1  0
 20 46  1  0
 21 47  1  0
 23 48  1  0
 24 49  1  0
 25 50  1  0
 26 51  1  0
M  END
>  <meeko>  (9) 
{"free_energy": -8.54, "intermolecular_energy": -10.03, "internal_energy": -1.75, "cluster_size": 15, "cluster_id": 2, "rank_in_cluster": 15}

$$$$

     RDKit          3D

 51 54  0  0  0  0  0  0  0  0999 V2000
  141.2920   72.1370  221.7100 O   0  0  0  0  0  0  0  0  0  0  0  0
  140.3670   72.3580  222.5320 C   0  0  0  0  0  0  0  0  0  0  0  0
  139.4060   73.4200  222.3330 N   0  0  0  0  0  0  0  0  0  0  0  0
  139.4810   74.2560  221.1950 C   0  0  0  0  0  0  0  0  0  0  0  0
  140.6870   75.0180  220.9140 C   0  0  0  0  0  0  0  0  0  0  0  0
  141.3990   75.2900  221.9760 O   0  0  0  0  0  0  0  0  0  0  0  0
  141.2080   75.5010  219.7110 N   0  0  0  0  0  0  0  0  0  0  0  0
  140.5120   75.6990  218.4760 C   0  0  0  0  0  0  0  0  0  0  0  0
  141.3440   75.4220  217.2300 C   0  0  0  0  0  0  0  0  0  0  0  0
  142.7390   75.9360  217.2970 C   0  0  0  0  0  0  0  0  0  0  0  0
  143.0270   76.6980  218.5460 C   0  0  0  0  0  0  0  0  0  0  0  0
  142.6360   75.8800  219.7190 C   0  0  2  0  0  0  0  0  0  0  0  0
  143.5360   74.7600  219.9650 C   0  0  0  0  0  0  0  0  0  0  0  0
  143.1100   73.4550  219.6790 C   0  0  0  0  0  0  0  0  0  0  0  0
  143.9190   72.3610  219.8890 C   0  0  0  0  0  0  0  0  0  0  0  0
  145.1950   72.4920  220.3930 C   0  0  0  0  0  0  0  0  0  0  0  0
  145.6350   73.7660  220.6810 C   0  0  0  0  0  0  0  0  0  0  0  0
  144.8170   74.8590  220.4680 C   0  0  0  0  0  0  0  0  0  0  0  0
  140.2250   71.5330  223.7460 C   0  0  0  0  0  0  0  0  0  0  0  0
  139.5620   70.3280  223.6490 C   0  0  0  0  0  0  0  0  0  0  0  0
  139.3700   69.4770  224.7150 C   0  0  0  0  0  0  0  0  0  0  0  0
  139.8760   69.8750  225.9330 C   0  0  0  0  0  0  0  0  0  0  0  0
  139.6950   69.0380  227.0110 C   0  0  0  0  0  0  0  0  0  0  0  0
  140.1910   69.4090  228.2430 C   0  0  0  0  0  0  0  0  0  0  0  0
  140.8560   70.6190  228.3380 C   0  0  0  0  0  0  0  0  0  0  0  0
  141.0290   71.4420  227.2540 C   0  0  0  0  0  0  0  0  0  0  0  0
  140.5360   71.0830  226.0090 C   0  0  0  0  0  0  0  0  0  0  0  0
  140.7030   71.8930  224.9320 N   0  0  0  0  0  0  0  0  0  0  0  0
  138.6520   73.5460  223.0660 H   0  0  0  0  0  0  0  0  0  0  0  0
  139.3042   73.6131  220.3202 H   0  0  0  0  0  0  0  0  0  0  0  0
  138.7410   75.0393  221.4160 H   0  0  0  0  0  0  0  0  0  0  0  0
  139.6394   75.0293  218.4623 H   0  0  0  0  0  0  0  0  0  0  0  0
  140.2380   76.7637  218.4387 H   0  0  0  0  0  0  0  0  0  0  0  0
  141.3851   74.3333  217.0785 H   0  0  0  0  0  0  0  0  0  0  0  0
  140.8533   75.9515  216.4000 H   0  0  0  0  0  0  0  0  0  0  0  0
  143.4291   75.0812  217.2424 H   0  0  0  0  0  0  0  0  0  0  0  0
  142.8716   76.6299  216.4539 H   0  0  0  0  0  0  0  0  0  0  0  0
  144.1019   76.9254  218.5983 H   0  0  0  0  0  0  0  0  0  0  0  0
  142.4556   77.6379  218.5448 H   0  0  0  0  0  0  0  0  0  0  0  0
  142.7548   76.5381  220.5924 H   0  0  0  0  0  0  0  0  0  0  0  0
  142.0987   73.3007  219.2746 H   0  0  0  0  0  0  0  0  0  0  0  0
  143.5375   71.3577  219.6486 H   0  0  0  0  0  0  0  0  0  0  0  0
  145.8370   71.6143  220.5589 H   0  0  0  0  0  0  0  0  0  0  0  0
  146.6475   73.9141  221.0845 H   0  0  0  0  0  0  0  0  0  0  0  0
  145.2067   75.8584  220.7117 H   0  0  0  0  0  0  0  0  0  0  0  0
  139.1649   70.0301  222.6674 H   0  0  0  0  0  0  0  0  0  0  0  0
  138.8364   68.5221  224.5989 H   0  0  0  0  0  0  0  0  0  0  0  0
  139.1607   68.0840  226.8909 H   0  0  0  0  0  0  0  0  0  0  0  0
  140.0620   68.7627  229.1237 H   0  0  0  0  0  0  0  0  0  0  0  0
  141.2585   70.9306  229.3131 H   0  0  0  0  0  0  0  0  0  0  0  0
  141.5639   72.3957  227.3739 H   0  0  0  0  0  0  0  0  0  0  0  0
  1  2  2  0
  2  3  1  0
  3  4  1  0
  4  5  1  0
  5  6  2  0
  5  7  1  0
  7  8  1  0
  8  9  1  0
  9 10  1  0
 10 11  1  0
 11 12  1  0
 12 13  1  0
 13 14  2  0
 14 15  1  0
 15 16  2  0
 16 17  1  0
 17 18  2  0
  2 19  1  0
 19 20  2  0
 20 21  1  0
 21 22  2  0
 22 23  1  0
 23 24  2  0
 24 25  1  0
 25 26  2  0
 26 27  1  0
 27 28  2  0
 12  7  1  0
 18 13  1  0
 28 19  1  0
 27 22  1  0
  3 29  1  0
  4 30  1  0
  4 31  1  0
  8 32  1  0
  8 33  1  0
  9 34  1  0
  9 35  1  0
 10 36  1  0
 10 37  1  0
 11 38  1  0
 11 39  1  0
 12 40  1  1
 14 41  1  0
 15 42  1  0
 16 43  1  0
 17 44  1  0
 18 45  1  0
 20 46  1  0
 21 47  1  0
 23 48  1  0
 24 49  1  0
 25 50  1  0
 26 51  1  0
M  END
>  <meeko>  (10) 
{"free_energy": -8.6, "intermolecular_energy": -10.09, "internal_energy": -1.65, "cluster_size": 15, "cluster_id": 2, "rank_in_cluster": 10}

$$$$

     RDKit          3D

 51 54  0  0  0  0  0  0  0  0999 V2000
  141.3590   72.1760  221.6410 O   0  0  0  0  0  0  0  0  0  0  0  0
  140.4480   72.4330  222.4680 C   0  0  0  0  0  0  0  0  0  0  0  0
  139.5670   73.5680  222.3040 N   0  0  0  0  0  0  0  0  0  0  0  0
  139.7100   74.4380  221.1980 C   0  0  0  0  0  0  0  0  0  0  0  0
  140.7160   75.4870  221.2060 C   0  0  0  0  0  0  0  0  0  0  0  0
  141.3520   75.6000  222.3420 O   0  0  0  0  0  0  0  0  0  0  0  0
  141.1130   76.3840  220.2110 N   0  0  0  0  0  0  0  0  0  0  0  0
  141.9940   76.1330  219.1110 C   0  0  0  0  0  0  0  0  0  0  0  0
  142.8710   77.3160  218.7200 C   0  0  0  0  0  0  0  0  0  0  0  0
  142.1680   78.6280  218.7230 C   0  0  0  0  0  0  0  0  0  0  0  0
  140.7130   78.5170  219.0320 C   0  0  0  0  0  0  0  0  0  0  0  0
  140.5370   77.7420  220.2830 C   0  0  2  0  0  0  0  0  0  0  0  0
  140.9290   78.4810  221.4770 C   0  0  0  0  0  0  0  0  0  0  0  0
  139.9740   78.7530  222.4670 C   0  0  0  0  0  0  0  0  0  0  0  0
  140.2890   79.4440  223.6150 C   0  0  0  0  0  0  0  0  0  0  0  0
  141.5660   79.9050  223.8530 C   0  0  0  0  0  0  0  0  0  0  0  0
  142.5210   79.6500  222.8940 C   0  0  0  0  0  0  0  0  0  0  0  0
  142.1970   78.9560  221.7430 C   0  0  0  0  0  0  0  0  0  0  0  0
  140.2390   71.5760  223.6510 C   0  0  0  0  0  0  0  0  0  0  0  0
  139.5480   70.3940  223.4930 C   0  0  0  0  0  0  0  0  0  0  0  0
  139.2940   69.5170  224.5250 C   0  0  0  0  0  0  0  0  0  0  0  0
  139.7660   69.8650  225.7720 C   0  0  0  0  0  0  0  0  0  0  0  0
  139.5220   69.0020  226.8170 C   0  0  0  0  0  0  0  0  0  0  0  0
  139.9830   69.3240  228.0770 C   0  0  0  0  0  0  0  0  0  0  0  0
  140.6760   70.5110  228.2330 C   0  0  0  0  0  0  0  0  0  0  0  0
  140.9110   71.3610  227.1810 C   0  0  0  0  0  0  0  0  0  0  0  0
  140.4550   71.0520  225.9080 C   0  0  0  0  0  0  0  0  0  0  0  0
  140.6830   71.8880  224.8630 N   0  0  0  0  0  0  0  0  0  0  0  0
  138.8200   73.7220  223.0390 H   0  0  0  0  0  0  0  0  0  0  0  0
  139.9236   73.8041  220.3248 H   0  0  0  0  0  0  0  0  0  0  0  0
  138.7660   75.0026  221.2057 H   0  0  0  0  0  0  0  0  0  0  0  0
  142.6509   75.2933  219.3818 H   0  0  0  0  0  0  0  0  0  0  0  0
  141.3551   75.9170  218.2420 H   0  0  0  0  0  0  0  0  0  0  0  0
  143.7092   77.3728  219.4301 H   0  0  0  0  0  0  0  0  0  0  0  0
  143.1982   77.1367  217.6852 H   0  0  0  0  0  0  0  0  0  0  0  0
  142.6373   79.2739  219.4797 H   0  0  0  0  0  0  0  0  0  0  0  0
  142.2548   79.0465  217.7094 H   0  0  0  0  0  0  0  0  0  0  0  0
  140.2864   79.5229  219.1595 H   0  0  0  0  0  0  0  0  0  0  0  0
  140.1982   78.0054  218.2054 H   0  0  0  0  0  0  0  0  0  0  0  0
  139.4527   77.5882  220.3860 H   0  0  0  0  0  0  0  0  0  0  0  0
  138.9412   78.4034  222.3217 H   0  0  0  0  0  0  0  0  0  0  0  0
  139.5026   79.6329  224.3606 H   0  0  0  0  0  0  0  0  0  0  0  0
  141.8127   80.4551  224.7730 H   0  0  0  0  0  0  0  0  0  0  0  0
  143.5521   80.0021  223.0454 H   0  0  0  0  0  0  0  0  0  0  0  0
  142.9895   78.7734  221.0023 H   0  0  0  0  0  0  0  0  0  0  0  0
  139.1794   70.1369  222.4890 H   0  0  0  0  0  0  0  0  0  0  0  0
  138.7395   68.5813  224.3608 H   0  0  0  0  0  0  0  0  0  0  0  0
  138.9665   68.0675  226.6493 H   0  0  0  0  0  0  0  0  0  0  0  0
  139.8046   68.6562  228.9327 H   0  0  0  0  0  0  0  0  0  0  0  0
  141.0504   70.7822  229.2311 H   0  0  0  0  0  0  0  0  0  0  0  0
  141.4660   72.2957  227.3491 H   0  0  0  0  0  0  0  0  0  0  0  0
  1  2  2  0
  2  3  1  0
  3  4  1  0
  4  5  1  0
  5  6  2  0
  5  7  1  0
  7  8  1  0
  8  9  1  0
  9 10  1  0
 10 11  1  0
 11 12  1  0
 12 13  1  0
 13 14  2  0
 14 15  1  0
 15 16  2  0
 16 17  1  0
 17 18  2  0
  2 19  1  0
 19 20  2  0
 20 21  1  0
 21 22  2  0
 22 23  1  0
 23 24  2  0
 24 25  1  0
 25 26  2  0
 26 27  1  0
 27 28  2  0
 12  7  1  0
 18 13  1  0
 28 19  1  0
 27 22  1  0
  3 29  1  0
  4 30  1  0
  4 31  1  0
  8 32  1  0
  8 33  1  0
  9 34  1  0
  9 35  1  0
 10 36  1  0
 10 37  1  0
 11 38  1  0
 11 39  1  0
 12 40  1  1
 14 41  1  0
 15 42  1  0
 16 43  1  0
 17 44  1  0
 18 45  1  0
 20 46  1  0
 21 47  1  0
 23 48  1  0
 24 49  1  0
 25 50  1  0
 26 51  1  0
M  END
>  <meeko>  (11) 
{"free_energy": -8.97, "intermolecular_energy": -10.46, "internal_energy": -1.31, "cluster_size": 5, "cluster_id": 1, "rank_in_cluster": 2}

$$$$

     RDKit          3D

 51 54  0  0  0  0  0  0  0  0999 V2000
  140.9470   71.6640  221.3500 O   0  0  0  0  0  0  0  0  0  0  0  0
  140.4260   72.2040  222.3590 C   0  0  0  0  0  0  0  0  0  0  0  0
  139.9830   73.5800  222.3440 N   0  0  0  0  0  0  0  0  0  0  0  0
  140.1290   74.3730  221.1830 C   0  0  0  0  0  0  0  0  0  0  0  0
  140.7670   75.6770  221.2510 C   0  0  0  0  0  0  0  0  0  0  0  0
  141.0330   76.0710  222.4680 O   0  0  0  0  0  0  0  0  0  0  0  0
  141.1430   76.5690  220.2430 N   0  0  0  0  0  0  0  0  0  0  0  0
  142.0220   76.3200  219.1410 C   0  0  0  0  0  0  0  0  0  0  0  0
  142.8750   77.5140  218.7310 C   0  0  0  0  0  0  0  0  0  0  0  0
  142.1480   78.8130  218.7210 C   0  0  0  0  0  0  0  0  0  0  0  0
  140.6970   78.6780  219.0400 C   0  0  0  0  0  0  0  0  0  0  0  0
  140.5420   77.9170  220.3020 C   0  0  2  0  0  0  0  0  0  0  0  0
  140.9270   78.6780  221.4840 C   0  0  0  0  0  0  0  0  0  0  0  0
  139.9390   79.1140  222.3770 C   0  0  0  0  0  0  0  0  0  0  0  0
  140.2450   79.8330  223.5110 C   0  0  0  0  0  0  0  0  0  0  0  0
  141.5450   80.1620  223.8270 C   0  0  0  0  0  0  0  0  0  0  0  0
  142.5340   79.7430  222.9640 C   0  0  0  0  0  0  0  0  0  0  0  0
  142.2180   79.0220  221.8280 C   0  0  0  0  0  0  0  0  0  0  0  0
  140.2440   71.4450  223.6100 C   0  0  0  0  0  0  0  0  0  0  0  0
  139.6160   70.2190  223.5520 C   0  0  0  0  0  0  0  0  0  0  0  0
  139.3930   69.4240  224.6540 C   0  0  0  0  0  0  0  0  0  0  0  0
  139.8290   69.9040  225.8700 C   0  0  0  0  0  0  0  0  0  0  0  0
  139.6150   69.1240  226.9840 C   0  0  0  0  0  0  0  0  0  0  0  0
  140.0410   69.5780  228.2150 C   0  0  0  0  0  0  0  0  0  0  0  0
  140.6710   70.8090  228.2720 C   0  0  0  0  0  0  0  0  0  0  0  0
  140.8770   71.5740  227.1510 C   0  0  0  0  0  0  0  0  0  0  0  0
  140.4550   71.1320  225.9070 C   0  0  0  0  0  0  0  0  0  0  0  0
  140.6550   71.8840  224.7950 N   0  0  0  0  0  0  0  0  0  0  0  0
  139.5500   73.9670  223.2310 H   0  0  0  0  0  0  0  0  0  0  0  0
  140.7106   73.7756  220.4655 H   0  0  0  0  0  0  0  0  0  0  0  0
  139.0894   74.6217  220.9234 H   0  0  0  0  0  0  0  0  0  0  0  0
  142.6955   75.4956  219.4182 H   0  0  0  0  0  0  0  0  0  0  0  0
  141.3825   76.0814  218.2784 H   0  0  0  0  0  0  0  0  0  0  0  0
  143.7153   77.5952  219.4362 H   0  0  0  0  0  0  0  0  0  0  0  0
  143.2004   77.3277  217.6969 H   0  0  0  0  0  0  0  0  0  0  0  0
  142.6093   79.4774  219.4665 H   0  0  0  0  0  0  0  0  0  0  0  0
  142.2216   79.2204  217.7019 H   0  0  0  0  0  0  0  0  0  0  0  0
  140.2518   79.6771  219.1563 H   0  0  0  0  0  0  0  0  0  0  0  0
  140.1881   78.1450  218.2233 H   0  0  0  0  0  0  0  0  0  0  0  0
  139.4613   77.7455  220.4144 H   0  0  0  0  0  0  0  0  0  0  0  0
  138.8864   78.8745  222.1656 H   0  0  0  0  0  0  0  0  0  0  0  0
  139.4324   80.1521  224.1802 H   0  0  0  0  0  0  0  0  0  0  0  0
  141.7842   80.7372  224.7336 H   0  0  0  0  0  0  0  0  0  0  0  0
  143.5849   79.9846  223.1812 H   0  0  0  0  0  0  0  0  0  0  0  0
  143.0370   78.7066  221.1648 H   0  0  0  0  0  0  0  0  0  0  0  0
  139.2743   69.8559  222.5715 H   0  0  0  0  0  0  0  0  0  0  0  0
  138.8896   68.4498  224.5676 H   0  0  0  0  0  0  0  0  0  0  0  0
  139.1105   68.1507  226.8936 H   0  0  0  0  0  0  0  0  0  0  0  0
  139.8846   68.9793  229.1245 H   0  0  0  0  0  0  0  0  0  0  0  0
  141.0173   71.1860  229.2456 H   0  0  0  0  0  0  0  0  0  0  0  0
  141.3818   72.5472  227.2409 H   0  0  0  0  0  0  0  0  0  0  0  0
  1  2  2  0
  2  3  1  0
  3  4  1  0
  4  5  1  0
  5  6  2  0
  5  7  1  0
  7  8  1  0
  8  9  1  0
  9 10  1  0
 10 11  1  0
 11 12  1  0
 12 13  1  0
 13 14  2  0
 14 15  1  0
 15 16  2  0
 16 17  1  0
 17 18  2  0
  2 19  1  0
 19 20  2  0
 20 21  1  0
 21 22  2  0
 22 23  1  0
 23 24  2  0
 24 25  1  0
 25 26  2  0
 26 27  1  0
 27 28  2  0
 12  7  1  0
 18 13  1  0
 28 19  1  0
 27 22  1  0
  3 29  1  0
  4 30  1  0
  4 31  1  0
  8 32  1  0
  8 33  1  0
  9 34  1  0
  9 35  1  0
 10 36  1  0
 10 37  1  0
 11 38  1  0
 11 39  1  0
 12 40  1  1
 14 41  1  0
 15 42  1  0
 16 43  1  0
 17 44  1  0
 18 45  1  0
 20 46  1  0
 21 47  1  0
 23 48  1  0
 24 49  1  0
 25 50  1  0
 26 51  1  0
M  END
>  <meeko>  (12) 
{"free_energy": -8.91, "intermolecular_energy": -10.4, "internal_energy": -1.41, "cluster_size": 5, "cluster_id": 1, "rank_in_cluster": 3}

$$$$

     RDKit          3D

 51 54  0  0  0  0  0  0  0  0999 V2000
  139.6120   71.0120  221.2560 O   0  0  0  0  0  0  0  0  0  0  0  0
  139.5920   71.7460  222.2780 C   0  0  0  0  0  0  0  0  0  0  0  0
  139.3210   73.1640  222.1940 N   0  0  0  0  0  0  0  0  0  0  0  0
  139.0720   73.7780  220.9450 C   0  0  0  0  0  0  0  0  0  0  0  0
  140.0380   73.6740  219.8630 C   0  0  0  0  0  0  0  0  0  0  0  0
  139.4960   73.4620  218.6920 O   0  0  0  0  0  0  0  0  0  0  0  0
  141.4320   73.7640  219.8640 N   0  0  0  0  0  0  0  0  0  0  0  0
  142.3740   72.7160  220.1170 C   0  0  0  0  0  0  0  0  0  0  0  0
  143.6340   73.1620  220.8480 C   0  0  0  0  0  0  0  0  0  0  0  0
  144.1920   74.4580  220.3750 C   0  0  0  0  0  0  0  0  0  0  0  0
  143.4490   75.0310  219.2150 C   0  0  0  0  0  0  0  0  0  0  0  0
  142.0040   75.0860  219.5390 C   0  0  2  0  0  0  0  0  0  0  0  0
  141.6710   76.1220  220.5100 C   0  0  0  0  0  0  0  0  0  0  0  0
  141.8830   77.4690  220.1830 C   0  0  0  0  0  0  0  0  0  0  0  0
  141.5840   78.4880  221.0600 C   0  0  0  0  0  0  0  0  0  0  0  0
  141.0590   78.2360  222.3080 C   0  0  0  0  0  0  0  0  0  0  0  0
  140.8430   76.9190  222.6510 C   0  0  0  0  0  0  0  0  0  0  0  0
  141.1450   75.9020  221.7660 C   0  0  0  0  0  0  0  0  0  0  0  0
  139.8470   71.1810  223.6160 C   0  0  0  0  0  0  0  0  0  0  0  0
  139.5540   69.8520  223.8370 C   0  0  0  0  0  0  0  0  0  0  0  0
  139.7510   69.2190  225.0440 C   0  0  0  0  0  0  0  0  0  0  0  0
  140.2680   69.9770  226.0710 C   0  0  0  0  0  0  0  0  0  0  0  0
  140.4730   69.3630  227.2860 C   0  0  0  0  0  0  0  0  0  0  0  0
  140.9910   70.0970  228.3330 C   0  0  0  0  0  0  0  0  0  0  0  0
  141.2830   71.4310  228.1100 C   0  0  0  0  0  0  0  0  0  0  0  0
  141.0740   72.0290  226.8920 C   0  0  0  0  0  0  0  0  0  0  0  0
  140.5550   71.3050  225.8300 C   0  0  0  0  0  0  0  0  0  0  0  0
  140.3450   71.8900  224.6230 N   0  0  0  0  0  0  0  0  0  0  0  0
  139.3180   73.7180  223.0960 H   0  0  0  0  0  0  0  0  0  0  0  0
  138.1301   73.3531  220.5678 H   0  0  0  0  0  0  0  0  0  0  0  0
  139.0911   74.8503  221.1897 H   0  0  0  0  0  0  0  0  0  0  0  0
  141.8770   71.9471  220.7268 H   0  0  0  0  0  0  0  0  0  0  0  0
  142.6980   72.3426  219.1343 H   0  0  0  0  0  0  0  0  0  0  0  0
  143.3952   73.2599  221.9173 H   0  0  0  0  0  0  0  0  0  0  0  0
  144.4001   72.3984  220.6483 H   0  0  0  0  0  0  0  0  0  0  0  0
  144.1534   75.1787  221.2051 H   0  0  0  0  0  0  0  0  0  0  0  0
  145.2223   74.2669  220.0403 H   0  0  0  0  0  0  0  0  0  0  0  0
  143.8181   76.0462  219.0072 H   0  0  0  0  0  0  0  0  0  0  0  0
  143.6045   74.3985  218.3285 H   0  0  0  0  0  0  0  0  0  0  0  0
  141.5034   75.3953  218.6096 H   0  0  0  0  0  0  0  0  0  0  0  0
  142.3006   77.7193  219.1966 H   0  0  0  0  0  0  0  0  0  0  0  0
  141.7691   79.5289  220.7561 H   0  0  0  0  0  0  0  0  0  0  0  0
  140.8214   79.0541  223.0039 H   0  0  0  0  0  0  0  0  0  0  0  0
  140.4260   76.6750  223.6392 H   0  0  0  0  0  0  0  0  0  0  0  0
  140.9565   74.8644  222.0788 H   0  0  0  0  0  0  0  0  0  0  0  0
  139.1403   69.2652  223.0036 H   0  0  0  0  0  0  0  0  0  0  0  0
  139.5064   68.1554  225.1817 H   0  0  0  0  0  0  0  0  0  0  0  0
  140.2266   68.2994  227.4205 H   0  0  0  0  0  0  0  0  0  0  0  0
  141.1667   69.6354  229.3159 H   0  0  0  0  0  0  0  0  0  0  0  0
  141.6955   72.0311  228.9344 H   0  0  0  0  0  0  0  0  0  0  0  0
  141.3207   73.0925  226.7576 H   0  0  0  0  0  0  0  0  0  0  0  0
  1  2  2  0
  2  3  1  0
  3  4  1  0
  4  5  1  0
  5  6  2  0
  5  7  1  0
  7  8  1  0
  8  9  1  0
  9 10  1  0
 10 11  1  0
 11 12  1  0
 12 13  1  0
 13 14  2  0
 14 15  1  0
 15 16  2  0
 16 17  1  0
 17 18  2  0
  2 19  1  0
 19 20  2  0
 20 21  1  0
 21 22  2  0
 22 23  1  0
 23 24  2  0
 24 25  1  0
 25 26  2  0
 26 27  1  0
 27 28  2  0
 12  7  1  0
 18 13  1  0
 28 19  1  0
 27 22  1  0
  3 29  1  0
  4 30  1  0
  4 31  1  0
  8 32  1  0
  8 33  1  0
  9 34  1  0
  9 35  1  0
 10 36  1  0
 10 37  1  0
 11 38  1  0
 11 39  1  0
 12 40  1  6
 14 41  1  0
 15 42  1  0
 16 43  1  0
 17 44  1  0
 18 45  1  0
 20 46  1  0
 21 47  1  0
 23 48  1  0
 24 49  1  0
 25 50  1  0
 26 51  1  0
M  END
>  <meeko>  (13) 
{"free_energy": -8.03, "intermolecular_energy": -9.52, "internal_energy": -1.85, "cluster_size": 5, "cluster_id": 1, "rank_in_cluster": 5}

$$$$

     RDKit          3D

 51 54  0  0  0  0  0  0  0  0999 V2000
  141.2540   71.9380  221.4820 O   0  0  0  0  0  0  0  0  0  0  0  0
  140.4850   72.3390  222.3920 C   0  0  0  0  0  0  0  0  0  0  0  0
  139.7720   73.5930  222.2930 N   0  0  0  0  0  0  0  0  0  0  0  0
  139.9230   74.4200  221.1560 C   0  0  0  0  0  0  0  0  0  0  0  0
  140.6950   75.6490  221.2310 C   0  0  0  0  0  0  0  0  0  0  0  0
  141.0690   75.9640  222.4440 O   0  0  0  0  0  0  0  0  0  0  0  0
  141.1030   76.5390  220.2350 N   0  0  0  0  0  0  0  0  0  0  0  0
  141.9940   76.2800  219.1450 C   0  0  0  0  0  0  0  0  0  0  0  0
  142.8750   77.4600  218.7540 C   0  0  0  0  0  0  0  0  0  0  0  0
  142.1730   78.7730  218.7420 C   0  0  0  0  0  0  0  0  0  0  0  0
  140.7160   78.6640  219.0380 C   0  0  0  0  0  0  0  0  0  0  0  0
  140.5270   77.8980  220.2930 C   0  0  2  0  0  0  0  0  0  0  0  0
  140.9090   78.6450  221.4850 C   0  0  0  0  0  0  0  0  0  0  0  0
  139.9190   79.0610  222.3870 C   0  0  0  0  0  0  0  0  0  0  0  0
  140.2220   79.7650  223.5300 C   0  0  0  0  0  0  0  0  0  0  0  0
  141.5210   80.0990  223.8490 C   0  0  0  0  0  0  0  0  0  0  0  0
  142.5110   79.7010  222.9770 C   0  0  0  0  0  0  0  0  0  0  0  0
  142.1980   78.9930  221.8320 C   0  0  0  0  0  0  0  0  0  0  0  0
  140.2790   71.5350  223.6120 C   0  0  0  0  0  0  0  0  0  0  0  0
  139.6170   70.3310  223.5040 C   0  0  0  0  0  0  0  0  0  0  0  0
  139.3690   69.4990  224.5730 C   0  0  0  0  0  0  0  0  0  0  0  0
  139.8150   69.9170  225.8070 C   0  0  0  0  0  0  0  0  0  0  0  0
  139.5770   69.1000  226.8890 C   0  0  0  0  0  0  0  0  0  0  0  0
  140.0130   69.4920  228.1380 C   0  0  0  0  0  0  0  0  0  0  0  0
  140.6760   70.7010  228.2450 C   0  0  0  0  0  0  0  0  0  0  0  0
  140.9070   71.5040  227.1570 C   0  0  0  0  0  0  0  0  0  0  0  0
  140.4760   71.1250  225.8950 C   0  0  0  0  0  0  0  0  0  0  0  0
  140.7000   71.9150  224.8140 N   0  0  0  0  0  0  0  0  0  0  0  0
  139.1400   73.8650  223.0980 H   0  0  0  0  0  0  0  0  0  0  0  0
  140.3922   73.8010  220.3771 H   0  0  0  0  0  0  0  0  0  0  0  0
  138.8999   74.7830  220.9786 H   0  0  0  0  0  0  0  0  0  0  0  0
  142.6480   75.4420  219.4278 H   0  0  0  0  0  0  0  0  0  0  0  0
  141.3631   76.0581  218.2716 H   0  0  0  0  0  0  0  0  0  0  0  0
  143.7069   77.5210  219.4711 H   0  0  0  0  0  0  0  0  0  0  0  0
  143.2109   77.2736  217.7232 H   0  0  0  0  0  0  0  0  0  0  0  0
  142.6356   79.4234  219.4989 H   0  0  0  0  0  0  0  0  0  0  0  0
  142.2698   79.1856  217.7269 H   0  0  0  0  0  0  0  0  0  0  0  0
  140.2883   79.6708  219.1540 H   0  0  0  0  0  0  0  0  0  0  0  0
  140.2096   78.1459  218.2103 H   0  0  0  0  0  0  0  0  0  0  0  0
  139.4417   77.7460  220.3878 H   0  0  0  0  0  0  0  0  0  0  0  0
  138.8677   78.8170  222.1743 H   0  0  0  0  0  0  0  0  0  0  0  0
  139.4084   80.0685  224.2052 H   0  0  0  0  0  0  0  0  0  0  0  0
  141.7580   80.6614  224.7642 H   0  0  0  0  0  0  0  0  0  0  0  0
  143.5604   79.9491  223.1943 H   0  0  0  0  0  0  0  0  0  0  0  0
  143.0181   78.6918  221.1637 H   0  0  0  0  0  0  0  0  0  0  0  0
  139.2675   70.0174  222.5093 H   0  0  0  0  0  0  0  0  0  0  0  0
  138.8386   68.5436  224.4469 H   0  0  0  0  0  0  0  0  0  0  0  0
  139.0454   68.1457  226.7594 H   0  0  0  0  0  0  0  0  0  0  0  0
  139.8385   68.8616  229.0224 H   0  0  0  0  0  0  0  0  0  0  0  0
  141.0292   71.0291  229.2337 H   0  0  0  0  0  0  0  0  0  0  0  0
  141.4393   72.4578  227.2872 H   0  0  0  0  0  0  0  0  0  0  0  0
  1  2  2  0
  2  3  1  0
  3  4  1  0
  4  5  1  0
  5  6  2  0
  5  7  1  0
  7  8  1  0
  8  9  1  0
  9 10  1  0
 10 11  1  0
 11 12  1  0
 12 13  1  0
 13 14  2  0
 14 15  1  0
 15 16  2  0
 16 17  1  0
 17 18  2  0
  2 19  1  0
 19 20  2  0
 20 21  1  0
 21 22  2  0
 22 23  1  0
 23 24  2  0
 24 25  1  0
 25 26  2  0
 26 27  1  0
 27 28  2  0
 12  7  1  0
 18 13  1  0
 28 19  1  0
 27 22  1  0
  3 29  1  0
  4 30  1  0
  4 31  1  0
  8 32  1  0
  8 33  1  0
  9 34  1  0
  9 35  1  0
 10 36  1  0
 10 37  1  0
 11 38  1  0
 11 39  1  0
 12 40  1  1
 14 41  1  0
 15 42  1  0
 16 43  1  0
 17 44  1  0
 18 45  1  0
 20 46  1  0
 21 47  1  0
 23 48  1  0
 24 49  1  0
 25 50  1  0
 26 51  1  0
M  END
>  <meeko>  (14) 
{"free_energy": -8.98, "intermolecular_energy": -10.47, "internal_energy": -1.32, "cluster_size": 5, "cluster_id": 1, "rank_in_cluster": 1}

$$$$

     RDKit          3D

 51 54  0  0  0  0  0  0  0  0999 V2000
  140.5460   71.1860  221.3260 O   0  0  0  0  0  0  0  0  0  0  0  0
  140.2030   71.8140  222.3600 C   0  0  0  0  0  0  0  0  0  0  0  0
  139.8420   73.2130  222.3190 N   0  0  0  0  0  0  0  0  0  0  0  0
  139.8670   73.9290  221.1000 C   0  0  0  0  0  0  0  0  0  0  0  0
  140.6750   75.1300  220.9630 C   0  0  0  0  0  0  0  0  0  0  0  0
  140.8380   75.7870  222.0810 O   0  0  0  0  0  0  0  0  0  0  0  0
  141.3030   75.6920  219.8490 N   0  0  0  0  0  0  0  0  0  0  0  0
  140.6910   76.1240  218.6290 C   0  0  0  0  0  0  0  0  0  0  0  0
  141.5400   75.9050  217.3830 C   0  0  0  0  0  0  0  0  0  0  0  0
  142.9820   76.2340  217.5580 C   0  0  0  0  0  0  0  0  0  0  0  0
  143.2990   76.7940  218.9030 C   0  0  0  0  0  0  0  0  0  0  0  0
  142.7630   75.8910  219.9480 C   0  0  2  0  0  0  0  0  0  0  0  0
  143.5150   74.6480  220.0760 C   0  0  0  0  0  0  0  0  0  0  0  0
  144.8580   74.6920  220.4740 C   0  0  0  0  0  0  0  0  0  0  0  0
  145.6160   73.5500  220.6150 C   0  0  0  0  0  0  0  0  0  0  0  0
  145.0890   72.3010  220.3700 C   0  0  0  0  0  0  0  0  0  0  0  0
  143.7700   72.2340  219.9760 C   0  0  0  0  0  0  0  0  0  0  0  0
  143.0170   73.3840  219.8380 C   0  0  0  0  0  0  0  0  0  0  0  0
  140.1570   71.1380  223.6710 C   0  0  0  0  0  0  0  0  0  0  0  0
  139.5850   69.8870  223.7460 C   0  0  0  0  0  0  0  0  0  0  0  0
  139.4870   69.1630  224.9140 C   0  0  0  0  0  0  0  0  0  0  0  0
  139.9950   69.7460  226.0550 C   0  0  0  0  0  0  0  0  0  0  0  0
  139.9070   69.0390  227.2330 C   0  0  0  0  0  0  0  0  0  0  0  0
  140.4070   69.5960  228.3920 C   0  0  0  0  0  0  0  0  0  0  0  0
  140.9800   70.8530  228.3140 C   0  0  0  0  0  0  0  0  0  0  0  0
  141.0610   71.5450  227.1310 C   0  0  0  0  0  0  0  0  0  0  0  0
  140.5630   70.9980  225.9590 C   0  0  0  0  0  0  0  0  0  0  0  0
  140.6390   71.6770  224.7850 N   0  0  0  0  0  0  0  0  0  0  0  0
  139.5620   73.6760  223.2300 H   0  0  0  0  0  0  0  0  0  0  0  0
  140.2155   73.2258  220.3292 H   0  0  0  0  0  0  0  0  0  0  0  0
  138.8395   74.3132  221.0192 H   0  0  0  0  0  0  0  0  0  0  0  0
  139.7481   75.5716  218.5035 H   0  0  0  0  0  0  0  0  0  0  0  0
  140.5448   77.2104  218.7204 H   0  0  0  0  0  0  0  0  0  0  0  0
  141.4608   74.8466  217.0939 H   0  0  0  0  0  0  0  0  0  0  0  0
  141.1521   76.5887  216.6135 H   0  0  0  0  0  0  0  0  0  0  0  0
  143.5698   75.3154  217.4147 H   0  0  0  0  0  0  0  0  0  0  0  0
  143.2330   77.0060  216.8157 H   0  0  0  0  0  0  0  0  0  0  0  0
  144.3896   76.8814  219.0169 H   0  0  0  0  0  0  0  0  0  0  0  0
  142.8409   77.7888  219.0053 H   0  0  0  0  0  0  0  0  0  0  0  0
  142.9179   76.4169  220.9017 H   0  0  0  0  0  0  0  0  0  0  0  0
  145.3212   75.6682  220.6802 H   0  0  0  0  0  0  0  0  0  0  0  0
  146.6661   73.6377  220.9305 H   0  0  0  0  0  0  0  0  0  0  0  0
  145.6977   71.3919  220.4844 H   0  0  0  0  0  0  0  0  0  0  0  0
  143.3124   71.2553  219.7694 H   0  0  0  0  0  0  0  0  0  0  0  0
  141.9677   73.2867  219.5225 H   0  0  0  0  0  0  0  0  0  0  0  0
  139.1848   69.4420  222.8231 H   0  0  0  0  0  0  0  0  0  0  0  0
  139.0244   68.1652  224.9350 H   0  0  0  0  0  0  0  0  0  0  0  0
  139.4434   68.0416  227.2500 H   0  0  0  0  0  0  0  0  0  0  0  0
  140.3518   69.0570  229.3493 H   0  0  0  0  0  0  0  0  0  0  0  0
  141.3833   71.3123  229.2285 H   0  0  0  0  0  0  0  0  0  0  0  0
  141.5251   72.5421  227.1132 H   0  0  0  0  0  0  0  0  0  0  0  0
  1  2  2  0
  2  3  1  0
  3  4  1  0
  4  5  1  0
  5  6  2  0
  5  7  1  0
  7  8  1  0
  8  9  1  0
  9 10  1  0
 10 11  1  0
 11 12  1  0
 12 13  1  0
 13 14  2  0
 14 15  1  0
 15 16  2  0
 16 17  1  0
 17 18  2  0
  2 19  1  0
 19 20  2  0
 20 21  1  0
 21 22  2  0
 22 23  1  0
 23 24  2  0
 24 25  1  0
 25 26  2  0
 26 27  1  0
 27 28  2  0
 12  7  1  0
 18 13  1  0
 28 19  1  0
 27 22  1  0
  3 29  1  0
  4 30  1  0
  4 31  1  0
  8 32  1  0
  8 33  1  0
  9 34  1  0
  9 35  1  0
 10 36  1  0
 10 37  1  0
 11 38  1  0
 11 39  1  0
 12 40  1  1
 14 41  1  0
 15 42  1  0
 16 43  1  0
 17 44  1  0
 18 45  1  0
 20 46  1  0
 21 47  1  0
 23 48  1  0
 24 49  1  0
 25 50  1  0
 26 51  1  0
M  END
>  <meeko>  (15) 
{"free_energy": -8.55, "intermolecular_energy": -10.04, "internal_energy": -1.79, "cluster_size": 15, "cluster_id": 2, "rank_in_cluster": 14}

$$$$

     RDKit          3D

 51 54  0  0  0  0  0  0  0  0999 V2000
  141.0520   71.6320  221.4450 O   0  0  0  0  0  0  0  0  0  0  0  0
  140.3530   72.1050  222.3780 C   0  0  0  0  0  0  0  0  0  0  0  0
  139.6390   73.3540  222.2390 N   0  0  0  0  0  0  0  0  0  0  0  0
  139.7080   74.0950  221.0360 C   0  0  0  0  0  0  0  0  0  0  0  0
  140.6850   75.1600  220.8770 C   0  0  0  0  0  0  0  0  0  0  0  0
  141.0480   75.7150  222.0030 O   0  0  0  0  0  0  0  0  0  0  0  0
  141.2950   75.6820  219.7340 N   0  0  0  0  0  0  0  0  0  0  0  0
  140.6710   76.0300  218.4930 C   0  0  0  0  0  0  0  0  0  0  0  0
  141.5280   75.7730  217.2610 C   0  0  0  0  0  0  0  0  0  0  0  0
  142.9590   76.1570  217.4170 C   0  0  0  0  0  0  0  0  0  0  0  0
  143.2570   76.7960  218.7300 C   0  0  0  0  0  0  0  0  0  0  0  0
  142.7480   75.9320  219.8220 C   0  0  2  0  0  0  0  0  0  0  0  0
  143.5390   74.7230  220.0140 C   0  0  0  0  0  0  0  0  0  0  0  0
  142.9750   73.4740  219.7170 C   0  0  0  0  0  0  0  0  0  0  0  0
  143.6760   72.3000  219.8760 C   0  0  0  0  0  0  0  0  0  0  0  0
  144.9750   72.2920  220.3370 C   0  0  0  0  0  0  0  0  0  0  0  0
  145.5500   73.5080  220.6360 C   0  0  0  0  0  0  0  0  0  0  0  0
  144.8390   74.6820  220.4730 C   0  0  0  0  0  0  0  0  0  0  0  0
  140.2350   71.3950  223.6660 C   0  0  0  0  0  0  0  0  0  0  0  0
  139.6100   70.1670  223.6850 C   0  0  0  0  0  0  0  0  0  0  0  0
  139.4430   69.4150  224.8270 C   0  0  0  0  0  0  0  0  0  0  0  0
  139.9350   69.9430  226.0000 C   0  0  0  0  0  0  0  0  0  0  0  0
  139.7790   69.2070  227.1540 C   0  0  0  0  0  0  0  0  0  0  0  0
  140.2620   69.7090  228.3440 C   0  0  0  0  0  0  0  0  0  0  0  0
  140.8880   70.9420  228.3230 C   0  0  0  0  0  0  0  0  0  0  0  0
  141.0380   71.6640  227.1640 C   0  0  0  0  0  0  0  0  0  0  0  0
  140.5580   71.1730  225.9600 C   0  0  0  0  0  0  0  0  0  0  0  0
  140.7010   71.8810  224.8110 N   0  0  0  0  0  0  0  0  0  0  0  0
  139.0680   73.6900  223.0660 H   0  0  0  0  0  0  0  0  0  0  0  0
  139.8988   73.3703  220.2307 H   0  0  0  0  0  0  0  0  0  0  0  0
  138.7503   74.6361  221.0252 H   0  0  0  0  0  0  0  0  0  0  0  0
  139.7462   75.4422  218.3968 H   0  0  0  0  0  0  0  0  0  0  0  0
  140.4900   77.1145  218.5273 H   0  0  0  0  0  0  0  0  0  0  0  0
  141.4832   74.6988  217.0285 H   0  0  0  0  0  0  0  0  0  0  0  0
  141.1194   76.4026  216.4569 H   0  0  0  0  0  0  0  0  0  0  0  0
  143.5761   75.2515  217.3211 H   0  0  0  0  0  0  0  0  0  0  0  0
  143.1854   76.8969  216.6352 H   0  0  0  0  0  0  0  0  0  0  0  0
  144.3442   76.9231  218.8385 H   0  0  0  0  0  0  0  0  0  0  0  0
  142.7681   77.7801  218.7804 H   0  0  0  0  0  0  0  0  0  0  0  0
  142.8841   76.5113  220.7472 H   0  0  0  0  0  0  0  0  0  0  0  0
  141.9405   73.4310  219.3455 H   0  0  0  0  0  0  0  0  0  0  0  0
  143.1879   71.3456  219.6293 H   0  0  0  0  0  0  0  0  0  0  0  0
  145.5312   71.3512  220.4614 H   0  0  0  0  0  0  0  0  0  0  0  0
  146.5846   73.5447  221.0079 H   0  0  0  0  0  0  0  0  0  0  0  0
  145.3351   75.6317  220.7220 H   0  0  0  0  0  0  0  0  0  0  0  0
  139.2234   69.7654  222.7367 H   0  0  0  0  0  0  0  0  0  0  0  0
  138.9396   68.4373  224.8031 H   0  0  0  0  0  0  0  0  0  0  0  0
  139.2748   68.2298  227.1265 H   0  0  0  0  0  0  0  0  0  0  0  0
  140.1526   69.1454  229.2823 H   0  0  0  0  0  0  0  0  0  0  0  0
  141.2780   71.3576  229.2638 H   0  0  0  0  0  0  0  0  0  0  0  0
  141.5436   72.6405  227.1917 H   0  0  0  0  0  0  0  0  0  0  0  0
  1  2  2  0
  2  3  1  0
  3  4  1  0
  4  5  1  0
  5  6  2  0
  5  7  1  0
  7  8  1  0
  8  9  1  0
  9 10  1  0
 10 11  1  0
 11 12  1  0
 12 13  1  0
 13 14  2  0
 14 15  1  0
 15 16  2  0
 16 17  1  0
 17 18  2  0
  2 19  1  0
 19 20  2  0
 20 21  1  0
 21 22  2  0
 22 23  1  0
 23 24  2  0
 24 25  1  0
 25 26  2  0
 26 27  1  0
 27 28  2  0
 12  7  1  0
 18 13  1  0
 28 19  1  0
 27 22  1  0
  3 29  1  0
  4 30  1  0
  4 31  1  0
  8 32  1  0
  8 33  1  0
  9 34  1  0
  9 35  1  0
 10 36  1  0
 10 37  1  0
 11 38  1  0
 11 39  1  0
 12 40  1  1
 14 41  1  0
 15 42  1  0
 16 43  1  0
 17 44  1  0
 18 45  1  0
 20 46  1  0
 21 47  1  0
 23 48  1  0
 24 49  1  0
 25 50  1  0
 26 51  1  0
M  END
>  <meeko>  (16) 
{"free_energy": -8.63, "intermolecular_energy": -10.12, "internal_energy": -1.69, "cluster_size": 15, "cluster_id": 2, "rank_in_cluster": 4}

$$$$

     RDKit          3D

 51 54  0  0  0  0  0  0  0  0999 V2000
  141.2660   71.9530  221.6000 O   0  0  0  0  0  0  0  0  0  0  0  0
  140.4000   72.2600  222.4590 C   0  0  0  0  0  0  0  0  0  0  0  0
  139.5070   73.3830  222.2750 N   0  0  0  0  0  0  0  0  0  0  0  0
  139.5830   74.1820  221.1110 C   0  0  0  0  0  0  0  0  0  0  0  0
  140.6920   75.1020  220.9160 C   0  0  0  0  0  0  0  0  0  0  0  0
  141.2350   75.5180  222.0290 O   0  0  0  0  0  0  0  0  0  0  0  0
  141.2690   75.6090  219.7480 N   0  0  0  0  0  0  0  0  0  0  0  0
  140.6160   75.9010  218.5080 C   0  0  0  0  0  0  0  0  0  0  0  0
  141.4620   75.6340  217.2700 C   0  0  0  0  0  0  0  0  0  0  0  0
  142.8820   76.0660  217.3930 C   0  0  0  0  0  0  0  0  0  0  0  0
  143.1800   76.7530  218.6820 C   0  0  0  0  0  0  0  0  0  0  0  0
  142.7140   75.9060  219.8060 C   0  0  2  0  0  0  0  0  0  0  0  0
  143.5450   74.7270  220.0210 C   0  0  0  0  0  0  0  0  0  0  0  0
  144.8630   74.8840  220.4720 C   0  0  0  0  0  0  0  0  0  0  0  0
  145.6920   73.8070  220.6950 C   0  0  0  0  0  0  0  0  0  0  0  0
  145.2660   72.5130  220.4860 C   0  0  0  0  0  0  0  0  0  0  0  0
  143.9730   72.3350  220.0420 C   0  0  0  0  0  0  0  0  0  0  0  0
  143.1480   73.4210  219.8210 C   0  0  0  0  0  0  0  0  0  0  0  0
  140.2620   71.4790  223.7020 C   0  0  0  0  0  0  0  0  0  0  0  0
  139.6180   70.2620  223.6460 C   0  0  0  0  0  0  0  0  0  0  0  0
  139.4320   69.4480  224.7420 C   0  0  0  0  0  0  0  0  0  0  0  0
  139.9240   69.8990  225.9470 C   0  0  0  0  0  0  0  0  0  0  0  0
  139.7470   69.1000  227.0550 C   0  0  0  0  0  0  0  0  0  0  0  0
  140.2300   69.5240  228.2750 C   0  0  0  0  0  0  0  0  0  0  0  0
  140.8760   70.7470  228.3290 C   0  0  0  0  0  0  0  0  0  0  0  0
  141.0450   71.5320  227.2160 C   0  0  0  0  0  0  0  0  0  0  0  0
  140.5660   71.1190  225.9820 C   0  0  0  0  0  0  0  0  0  0  0  0
  140.7280   71.8900  224.8770 N   0  0  0  0  0  0  0  0  0  0  0  0
  138.8020   73.5810  223.0400 H   0  0  0  0  0  0  0  0  0  0  0  0
  139.5931   73.4911  220.2551 H   0  0  0  0  0  0  0  0  0  0  0  0
  138.7200   74.8556  221.2178 H   0  0  0  0  0  0  0  0  0  0  0  0
  139.7085   75.2827  218.4438 H   0  0  0  0  0  0  0  0  0  0  0  0
  140.4021   76.9800  218.5138 H   0  0  0  0  0  0  0  0  0  0  0  0
  141.4471   74.5526  217.0693 H   0  0  0  0  0  0  0  0  0  0  0  0
  141.0221   76.2264  216.4542 H   0  0  0  0  0  0  0  0  0  0  0  0
  143.5254   75.1772  217.3142 H   0  0  0  0  0  0  0  0  0  0  0  0
  143.0735   76.7892  216.5866 H   0  0  0  0  0  0  0  0  0  0  0  0
  144.2643   76.9163  218.7696 H   0  0  0  0  0  0  0  0  0  0  0  0
  142.6624   77.7231  218.7116 H   0  0  0  0  0  0  0  0  0  0  0  0
  142.8458   76.5165  220.7115 H   0  0  0  0  0  0  0  0  0  0  0  0
  145.2470   75.8987  220.6534 H   0  0  0  0  0  0  0  0  0  0  0  0
  146.7186   73.9838  221.0484 H   0  0  0  0  0  0  0  0  0  0  0  0
  145.9315   71.6559  220.6663 H   0  0  0  0  0  0  0  0  0  0  0  0
  143.5944   71.3181  219.8619 H   0  0  0  0  0  0  0  0  0  0  0  0
  142.1230   73.2349  219.4678 H   0  0  0  0  0  0  0  0  0  0  0  0
  139.2316   69.9221  222.6738 H   0  0  0  0  0  0  0  0  0  0  0  0
  138.9138   68.4813  224.6585 H   0  0  0  0  0  0  0  0  0  0  0  0
  139.2264   68.1349  226.9676 H   0  0  0  0  0  0  0  0  0  0  0  0
  140.1056   68.9087  229.1783 H   0  0  0  0  0  0  0  0  0  0  0  0
  141.2663   71.1010  229.2946 H   0  0  0  0  0  0  0  0  0  0  0  0
  141.5650   72.4973  227.3036 H   0  0  0  0  0  0  0  0  0  0  0  0
  1  2  2  0
  2  3  1  0
  3  4  1  0
  4  5  1  0
  5  6  2  0
  5  7  1  0
  7  8  1  0
  8  9  1  0
  9 10  1  0
 10 11  1  0
 11 12  1  0
 12 13  1  0
 13 14  2  0
 14 15  1  0
 15 16  2  0
 16 17  1  0
 17 18  2  0
  2 19  1  0
 19 20  2  0
 20 21  1  0
 21 22  2  0
 22 23  1  0
 23 24  2  0
 24 25  1  0
 25 26  2  0
 26 27  1  0
 27 28  2  0
 12  7  1  0
 18 13  1  0
 28 19  1  0
 27 22  1  0
  3 29  1  0
  4 30  1  0
  4 31  1  0
  8 32  1  0
  8 33  1  0
  9 34  1  0
  9 35  1  0
 10 36  1  0
 10 37  1  0
 11 38  1  0
 11 39  1  0
 12 40  1  1
 14 41  1  0
 15 42  1  0
 16 43  1  0
 17 44  1  0
 18 45  1  0
 20 46  1  0
 21 47  1  0
 23 48  1  0
 24 49  1  0
 25 50  1  0
 26 51  1  0
M  END
>  <meeko>  (17) 
{"free_energy": -8.66, "intermolecular_energy": -10.15, "internal_energy": -1.69, "cluster_size": 15, "cluster_id": 2, "rank_in_cluster": 2}

$$$$

     RDKit          3D

 51 54  0  0  0  0  0  0  0  0999 V2000
  141.0880   71.7030  221.4990 O   0  0  0  0  0  0  0  0  0  0  0  0
  140.3430   72.1350  222.4150 C   0  0  0  0  0  0  0  0  0  0  0  0
  139.5770   73.3520  222.2640 N   0  0  0  0  0  0  0  0  0  0  0  0
  139.6460   74.1050  221.0690 C   0  0  0  0  0  0  0  0  0  0  0  0
  140.6960   75.0920  220.8750 C   0  0  0  0  0  0  0  0  0  0  0  0
  141.1770   75.5760  221.9900 O   0  0  0  0  0  0  0  0  0  0  0  0
  141.2720   75.6020  219.7090 N   0  0  0  0  0  0  0  0  0  0  0  0
  140.6240   75.8720  218.4620 C   0  0  0  0  0  0  0  0  0  0  0  0
  141.4860   75.6130  217.2330 C   0  0  0  0  0  0  0  0  0  0  0  0
  142.8960   76.0750  217.3640 C   0  0  0  0  0  0  0  0  0  0  0  0
  143.1690   76.7770  218.6510 C   0  0  0  0  0  0  0  0  0  0  0  0
  142.7110   75.9290  219.7770 C   0  0  2  0  0  0  0  0  0  0  0  0
  143.5640   74.7690  220.0070 C   0  0  0  0  0  0  0  0  0  0  0  0
  143.0640   73.4830  219.7570 C   0  0  0  0  0  0  0  0  0  0  0  0
  143.8250   72.3530  219.9530 C   0  0  0  0  0  0  0  0  0  0  0  0
  145.1240   72.4280  220.4080 C   0  0  0  0  0  0  0  0  0  0  0  0
  145.6360   73.6810  220.6610 C   0  0  0  0  0  0  0  0  0  0  0  0
  144.8660   74.8110  220.4610 C   0  0  0  0  0  0  0  0  0  0  0  0
  140.2200   71.4100  223.6930 C   0  0  0  0  0  0  0  0  0  0  0  0
  139.5870   70.1860  223.6970 C   0  0  0  0  0  0  0  0  0  0  0  0
  139.4150   69.4210  224.8300 C   0  0  0  0  0  0  0  0  0  0  0  0
  139.9120   69.9300  226.0100 C   0  0  0  0  0  0  0  0  0  0  0  0
  139.7510   69.1800  227.1530 C   0  0  0  0  0  0  0  0  0  0  0  0
  140.2380   69.6640  228.3500 C   0  0  0  0  0  0  0  0  0  0  0  0
  140.8730   70.8930  228.3440 C   0  0  0  0  0  0  0  0  0  0  0  0
  141.0270   71.6280  227.1950 C   0  0  0  0  0  0  0  0  0  0  0  0
  140.5430   71.1560  225.9840 C   0  0  0  0  0  0  0  0  0  0  0  0
  140.6900   71.8780  224.8440 N   0  0  0  0  0  0  0  0  0  0  0  0
  138.9680   73.6550  223.0760 H   0  0  0  0  0  0  0  0  0  0  0  0
  139.7388   73.3811  220.2460 H   0  0  0  0  0  0  0  0  0  0  0  0
  138.7352   74.7202  221.1130 H   0  0  0  0  0  0  0  0  0  0  0  0
  139.7295   75.2353  218.3947 H   0  0  0  0  0  0  0  0  0  0  0  0
  140.3884   76.9465  218.4581 H   0  0  0  0  0  0  0  0  0  0  0  0
  141.4949   74.5300  217.0407 H   0  0  0  0  0  0  0  0  0  0  0  0
  141.0410   76.1902  216.4091 H   0  0  0  0  0  0  0  0  0  0  0  0
  143.5582   75.1992  217.2966 H   0  0  0  0  0  0  0  0  0  0  0  0
  143.0793   76.7962  216.5539 H   0  0  0  0  0  0  0  0  0  0  0  0
  144.2490   76.9630  218.7464 H   0  0  0  0  0  0  0  0  0  0  0  0
  142.6313   77.7365  218.6692 H   0  0  0  0  0  0  0  0  0  0  0  0
  142.8225   76.5483  220.6792 H   0  0  0  0  0  0  0  0  0  0  0  0
  142.0317   73.3739  219.3930 H   0  0  0  0  0  0  0  0  0  0  0  0
  143.3862   71.3667  219.7415 H   0  0  0  0  0  0  0  0  0  0  0  0
  145.7282   71.5220  220.5630 H   0  0  0  0  0  0  0  0  0  0  0  0
  146.6686   73.7835  221.0261 H   0  0  0  0  0  0  0  0  0  0  0  0
  145.3136   75.7929  220.6745 H   0  0  0  0  0  0  0  0  0  0  0  0
  139.1979   69.7986  222.7439 H   0  0  0  0  0  0  0  0  0  0  0  0
  138.9038   68.4476  224.7941 H   0  0  0  0  0  0  0  0  0  0  0  0
  139.2403   68.2066  227.1127 H   0  0  0  0  0  0  0  0  0  0  0  0
  140.1247   69.0896  229.2813 H   0  0  0  0  0  0  0  0  0  0  0  0
  141.2669   71.2938  229.2896 H   0  0  0  0  0  0  0  0  0  0  0  0
  141.5392   72.6007  227.2351 H   0  0  0  0  0  0  0  0  0  0  0  0
  1  2  2  0
  2  3  1  0
  3  4  1  0
  4  5  1  0
  5  6  2  0
  5  7  1  0
  7  8  1  0
  8  9  1  0
  9 10  1  0
 10 11  1  0
 11 12  1  0
 12 13  1  0
 13 14  2  0
 14 15  1  0
 15 16  2  0
 16 17  1  0
 17 18  2  0
  2 19  1  0
 19 20  2  0
 20 21  1  0
 21 22  2  0
 22 23  1  0
 23 24  2  0
 24 25  1  0
 25 26  2  0
 26 27  1  0
 27 28  2  0
 12  7  1  0
 18 13  1  0
 28 19  1  0
 27 22  1  0
  3 29  1  0
  4 30  1  0
  4 31  1  0
  8 32  1  0
  8 33  1  0
  9 34  1  0
  9 35  1  0
 10 36  1  0
 10 37  1  0
 11 38  1  0
 11 39  1  0
 12 40  1  1
 14 41  1  0
 15 42  1  0
 16 43  1  0
 17 44  1  0
 18 45  1  0
 20 46  1  0
 21 47  1  0
 23 48  1  0
 24 49  1  0
 25 50  1  0
 26 51  1  0
M  END
>  <meeko>  (18) 
{"free_energy": -8.65, "intermolecular_energy": -10.14, "internal_energy": -1.67, "cluster_size": 15, "cluster_id": 2, "rank_in_cluster": 3}

$$$$

     RDKit          3D

 51 54  0  0  0  0  0  0  0  0999 V2000
  140.8420   71.4250  221.3740 O   0  0  0  0  0  0  0  0  0  0  0  0
  140.2960   71.9680  222.3680 C   0  0  0  0  0  0  0  0  0  0  0  0
  139.7220   73.2930  222.2940 N   0  0  0  0  0  0  0  0  0  0  0  0
  139.7620   74.0300  221.0880 C   0  0  0  0  0  0  0  0  0  0  0  0
  140.6420   75.1790  220.9500 C   0  0  0  0  0  0  0  0  0  0  0  0
  140.8540   75.8180  222.0700 O   0  0  0  0  0  0  0  0  0  0  0  0
  141.2950   75.7060  219.8330 N   0  0  0  0  0  0  0  0  0  0  0  0
  140.7080   76.1200  218.5950 C   0  0  0  0  0  0  0  0  0  0  0  0
  141.5730   75.8600  217.3680 C   0  0  0  0  0  0  0  0  0  0  0  0
  143.0160   76.1730  217.5570 C   0  0  0  0  0  0  0  0  0  0  0  0
  143.3220   76.7590  218.8940 C   0  0  0  0  0  0  0  0  0  0  0  0
  142.7560   75.8860  219.9510 C   0  0  2  0  0  0  0  0  0  0  0  0
  143.4880   74.6370  220.1180 C   0  0  0  0  0  0  0  0  0  0  0  0
  144.8340   74.6710  220.5080 C   0  0  0  0  0  0  0  0  0  0  0  0
  145.5730   73.5230  220.6840 C   0  0  0  0  0  0  0  0  0  0  0  0
  145.0240   72.2740  220.4860 C   0  0  0  0  0  0  0  0  0  0  0  0
  143.7020   72.2160  220.1020 C   0  0  0  0  0  0  0  0  0  0  0  0
  142.9670   73.3730  219.9280 C   0  0  0  0  0  0  0  0  0  0  0  0
  140.2190   71.2660  223.6630 C   0  0  0  0  0  0  0  0  0  0  0  0
  139.6340   70.0190  223.7020 C   0  0  0  0  0  0  0  0  0  0  0  0
  139.5080   69.2730  224.8520 C   0  0  0  0  0  0  0  0  0  0  0  0
  140.0000   69.8260  226.0140 C   0  0  0  0  0  0  0  0  0  0  0  0
  139.8840   69.0950  227.1760 C   0  0  0  0  0  0  0  0  0  0  0  0
  140.3690   69.6230  228.3540 C   0  0  0  0  0  0  0  0  0  0  0  0
  140.9560   70.8750  228.3130 C   0  0  0  0  0  0  0  0  0  0  0  0
  141.0650   71.5910  227.1470 C   0  0  0  0  0  0  0  0  0  0  0  0
  140.5830   71.0740  225.9540 C   0  0  0  0  0  0  0  0  0  0  0  0
  140.6870   71.7770  224.7970 N   0  0  0  0  0  0  0  0  0  0  0  0
  139.2760   73.6860  223.1710 H   0  0  0  0  0  0  0  0  0  0  0  0
  140.0440   73.3211  220.2956 H   0  0  0  0  0  0  0  0  0  0  0  0
  138.7599   74.4814  221.0427 H   0  0  0  0  0  0  0  0  0  0  0  0
  139.7586   75.5793  218.4670 H   0  0  0  0  0  0  0  0  0  0  0  0
  140.5765   77.2102  218.6600 H   0  0  0  0  0  0  0  0  0  0  0  0
  141.4833   74.7963  217.1027 H   0  0  0  0  0  0  0  0  0  0  0  0
  141.2066   76.5309  216.5770 H   0  0  0  0  0  0  0  0  0  0  0  0
  143.5928   75.2434  217.4429 H   0  0  0  0  0  0  0  0  0  0  0  0
  143.2881   76.9248  216.8016 H   0  0  0  0  0  0  0  0  0  0  0  0
  144.4120   76.8327  219.0225 H   0  0  0  0  0  0  0  0  0  0  0  0
  142.8784   77.7629  218.9675 H   0  0  0  0  0  0  0  0  0  0  0  0
  142.9029   76.4299  220.8958 H   0  0  0  0  0  0  0  0  0  0  0  0
  145.3148   75.6455  220.6787 H   0  0  0  0  0  0  0  0  0  0  0  0
  146.6265   73.6042  220.9899 H   0  0  0  0  0  0  0  0  0  0  0  0
  145.6182   71.3594  220.6290 H   0  0  0  0  0  0  0  0  0  0  0  0
  143.2268   71.2386  219.9322 H   0  0  0  0  0  0  0  0  0  0  0  0
  141.9141   73.2823  219.6228 H   0  0  0  0  0  0  0  0  0  0  0  0
  139.2466   69.5967  222.7631 H   0  0  0  0  0  0  0  0  0  0  0  0
  139.0355   68.2797  224.8436 H   0  0  0  0  0  0  0  0  0  0  0  0
  139.4103   68.1023  227.1643 H   0  0  0  0  0  0  0  0  0  0  0  0
  140.2914   69.0649  229.2987 H   0  0  0  0  0  0  0  0  0  0  0  0
  141.3477   71.3104  229.2441 H   0  0  0  0  0  0  0  0  0  0  0  0
  141.5389   72.5836  227.1591 H   0  0  0  0  0  0  0  0  0  0  0  0
  1  2  2  0
  2  3  1  0
  3  4  1  0
  4  5  1  0
  5  6  2  0
  5  7  1  0
  7  8  1  0
  8  9  1  0
  9 10  1  0
 10 11  1  0
 11 12  1  0
 12 13  1  0
 13 14  2  0
 14 15  1  0
 15 16  2  0
 16 17  1  0
 17 18  2  0
  2 19  1  0
 19 20  2  0
 20 21  1  0
 21 22  2  0
 22 23  1  0
 23 24  2  0
 24 25  1  0
 25 26  2  0
 26 27  1  0
 27 28  2  0
 12  7  1  0
 18 13  1  0
 28 19  1  0
 27 22  1  0
  3 29  1  0
  4 30  1  0
  4 31  1  0
  8 32  1  0
  8 33  1  0
  9 34  1  0
  9 35  1  0
 10 36  1  0
 10 37  1  0
 11 38  1  0
 11 39  1  0
 12 40  1  1
 14 41  1  0
 15 42  1  0
 16 43  1  0
 17 44  1  0
 18 45  1  0
 20 46  1  0
 21 47  1  0
 23 48  1  0
 24 49  1  0
 25 50  1  0
 26 51  1  0
M  END
>  <meeko>  (19) 
{"free_energy": -8.6, "intermolecular_energy": -10.09, "internal_energy": -1.75, "cluster_size": 15, "cluster_id": 2, "rank_in_cluster": 9}

$$$$

     RDKit          3D

 51 54  0  0  0  0  0  0  0  0999 V2000
  140.7990   71.4400  221.3510 O   0  0  0  0  0  0  0  0  0  0  0  0
  140.2950   72.0040  222.3550 C   0  0  0  0  0  0  0  0  0  0  0  0
  139.7610   73.3460  222.2870 N   0  0  0  0  0  0  0  0  0  0  0  0
  139.7930   74.0760  221.0770 C   0  0  0  0  0  0  0  0  0  0  0  0
  140.7240   75.1790  220.9010 C   0  0  0  0  0  0  0  0  0  0  0  0
  141.0350   75.7880  222.0150 O   0  0  0  0  0  0  0  0  0  0  0  0
  141.3370   75.6890  219.7540 N   0  0  0  0  0  0  0  0  0  0  0  0
  140.7090   76.0670  218.5250 C   0  0  0  0  0  0  0  0  0  0  0  0
  141.5420   75.7910  217.2790 C   0  0  0  0  0  0  0  0  0  0  0  0
  142.9860   76.1250  217.4190 C   0  0  0  0  0  0  0  0  0  0  0  0
  143.3220   76.7450  218.7340 C   0  0  0  0  0  0  0  0  0  0  0  0
  142.7980   75.8900  219.8260 C   0  0  2  0  0  0  0  0  0  0  0  0
  143.5510   74.6530  219.9990 C   0  0  0  0  0  0  0  0  0  0  0  0
  144.8700   74.7080  220.4700 C   0  0  0  0  0  0  0  0  0  0  0  0
  145.6270   73.5720  220.6560 C   0  0  0  0  0  0  0  0  0  0  0  0
  145.1230   72.3180  220.3870 C   0  0  0  0  0  0  0  0  0  0  0  0
  143.8280   72.2400  219.9230 C   0  0  0  0  0  0  0  0  0  0  0  0
  143.0760   73.3850  219.7400 C   0  0  0  0  0  0  0  0  0  0  0  0
  140.2280   71.3110  223.6550 C   0  0  0  0  0  0  0  0  0  0  0  0
  139.6650   70.0540  223.7030 C   0  0  0  0  0  0  0  0  0  0  0  0
  139.5500   69.3150  224.8590 C   0  0  0  0  0  0  0  0  0  0  0  0
  140.0310   69.8860  226.0170 C   0  0  0  0  0  0  0  0  0  0  0  0
  139.9250   69.1630  227.1840 C   0  0  0  0  0  0  0  0  0  0  0  0
  140.3990   69.7080  228.3600 C   0  0  0  0  0  0  0  0  0  0  0  0
  140.9640   70.9700  228.3090 C   0  0  0  0  0  0  0  0  0  0  0  0
  141.0620   71.6780  227.1380 C   0  0  0  0  0  0  0  0  0  0  0  0
  140.5910   71.1440  225.9480 C   0  0  0  0  0  0  0  0  0  0  0  0
  140.6850   71.8390  224.7860 N   0  0  0  0  0  0  0  0  0  0  0  0
  139.3490   73.7570  223.1730 H   0  0  0  0  0  0  0  0  0  0  0  0
  140.0095   73.3513  220.2783 H   0  0  0  0  0  0  0  0  0  0  0  0
  138.8138   74.5770  221.0663 H   0  0  0  0  0  0  0  0  0  0  0  0
  139.7640   75.5109  218.4367 H   0  0  0  0  0  0  0  0  0  0  0  0
  140.5642   77.1565  218.5697 H   0  0  0  0  0  0  0  0  0  0  0  0
  141.4580   74.7208  217.0390 H   0  0  0  0  0  0  0  0  0  0  0  0
  141.1448   76.4406  216.4852 H   0  0  0  0  0  0  0  0  0  0  0  0
  143.5709   75.1999  217.3092 H   0  0  0  0  0  0  0  0  0  0  0  0
  143.2277   76.8622  216.6392 H   0  0  0  0  0  0  0  0  0  0  0  0
  144.4141   76.8352  218.8296 H   0  0  0  0  0  0  0  0  0  0  0  0
  142.8671   77.7445  218.7975 H   0  0  0  0  0  0  0  0  0  0  0  0
  142.9646   76.4571  220.7537 H   0  0  0  0  0  0  0  0  0  0  0  0
  145.3143   75.6881  220.6981 H   0  0  0  0  0  0  0  0  0  0  0  0
  146.6577   73.6683  221.0279 H   0  0  0  0  0  0  0  0  0  0  0  0
  145.7313   71.4138  220.5369 H   0  0  0  0  0  0  0  0  0  0  0  0
  143.3886   71.2574  219.6962 H   0  0  0  0  0  0  0  0  0  0  0  0
  142.0460   73.2792  219.3688 H   0  0  0  0  0  0  0  0  0  0  0  0
  139.2869   69.6174  222.7668 H   0  0  0  0  0  0  0  0  0  0  0  0
  139.0946   68.3137  224.8581 H   0  0  0  0  0  0  0  0  0  0  0  0
  139.4678   68.1625  227.1791 H   0  0  0  0  0  0  0  0  0  0  0  0
  140.3297   69.1559  229.3089 H   0  0  0  0  0  0  0  0  0  0  0  0
  141.3468   71.4199  229.2369 H   0  0  0  0  0  0  0  0  0  0  0  0
  141.5185   72.6788  227.1431 H   0  0  0  0  0  0  0  0  0  0  0  0
  1  2  2  0
  2  3  1  0
  3  4  1  0
  4  5  1  0
  5  6  2  0
  5  7  1  0
  7  8  1  0
  8  9  1  0
  9 10  1  0
 10 11  1  0
 11 12  1  0
 12 13  1  0
 13 14  2  0
 14 15  1  0
 15 16  2  0
 16 17  1  0
 17 18  2  0
  2 19  1  0
 19 20  2  0
 20 21  1  0
 21 22  2  0
 22 23  1  0
 23 24  2  0
 24 25  1  0
 25 26  2  0
 26 27  1  0
 27 28  2  0
 12  7  1  0
 18 13  1  0
 28 19  1  0
 27 22  1  0
  3 29  1  0
  4 30  1  0
  4 31  1  0
  8 32  1  0
  8 33  1  0
  9 34  1  0
  9 35  1  0
 10 36  1  0
 10 37  1  0
 11 38  1  0
 11 39  1  0
 12 40  1  1
 14 41  1  0
 15 42  1  0
 16 43  1  0
 17 44  1  0
 18 45  1  0
 20 46  1  0
 21 47  1  0
 23 48  1  0
 24 49  1  0
 25 50  1  0
 26 51  1  0
M  END
>  <meeko>  (20) 
{"free_energy": -8.59, "intermolecular_energy": -10.08, "internal_energy": -1.77, "cluster_size": 15, "cluster_id": 2, "rank_in_cluster": 12}

$$$$
