
     RDKit          3D

 56 59  0  0  0  0  0  0  0  0999 V2000
  139.4820   70.8470  221.2960 O   0  0  0  0  0  0  0  0  0  0  0  0
  139.5330   71.5380  222.3600 C   0  0  0  0  0  0  0  0  0  0  0  0
  139.4260   72.9650  222.3410 N   0  0  0  0  0  0  0  0  0  0  0  0
  139.2510   73.6890  221.0780 C   0  0  0  0  0  0  0  0  0  0  0  0
  140.5610   74.1890  220.6530 C   0  0  0  0  0  0  0  0  0  0  0  0
  141.3350   73.3620  220.0710 O   0  0  0  0  0  0  0  0  0  0  0  0
  141.0560   75.4960  220.8200 N   0  0  0  0  0  0  0  0  0  0  0  0
  142.1600   76.0070  219.9850 C   0  0  0  0  0  0  0  0  0  0  0  0
  142.2010   77.5000  220.2060 C   0  0  1  0  0  0  0  0  0  0  0  0
  142.4600   78.2010  219.0370 O   0  0  0  0  0  0  0  0  0  0  0  0
  140.8070   77.7610  220.7360 C   0  0  0  0  0  0  0  0  0  0  0  0
  140.7030   76.5730  221.7070 C   0  0  1  0  0  0  0  0  0  0  0  0
  139.3550   76.4920  222.3300 C   0  0  0  0  0  0  0  0  0  0  0  0
  138.7840   77.9220  222.2980 C   0  0  0  0  0  0  0  0  0  0  0  0
  139.2190   78.6430  223.4330 O   0  0  0  0  0  0  0  0  0  0  0  0
  140.2950   79.5210  223.3890 C   0  0  0  0  0  0  0  0  0  0  0  0
  141.5140   79.0710  223.8560 C   0  0  0  0  0  0  0  0  0  0  0  0
  142.6170   79.9190  223.8290 C   0  0  0  0  0  0  0  0  0  0  0  0
  142.4680   81.2130  223.3290 C   0  0  0  0  0  0  0  0  0  0  0  0
  141.2340   81.6300  222.8690 C   0  0  0  0  0  0  0  0  0  0  0  0
  140.1260   80.8030  222.8870 C   0  0  0  0  0  0  0  0  0  0  0  0
  139.7080   70.8490  223.6580 C   0  0  0  0  0  0  0  0  0  0  0  0
  139.3550   69.5210  223.7710 C   0  0  0  0  0  0  0  0  0  0  0  0
  139.5210   68.8850  224.9840 C   0  0  0  0  0  0  0  0  0  0  0  0
  140.0360   69.5610  226.0790 C   0  0  0  0  0  0  0  0  0  0  0  0
  140.2070   68.9380  227.2930 C   0  0  0  0  0  0  0  0  0  0  0  0
  140.7150   69.6190  228.3590 C   0  0  0  0  0  0  0  0  0  0  0  0
  141.0520   70.9480  228.1860 C   0  0  0  0  0  0  0  0  0  0  0  0
  140.8970   71.6000  226.9990 C   0  0  0  0  0  0  0  0  0  0  0  0
  140.3810   70.9010  225.9230 C   0  0  0  0  0  0  0  0  0  0  0  0
  140.2050   71.4810  224.7350 N   0  0  0  0  0  0  0  0  0  0  0  0
  139.4780   73.4380  223.2630 H   0  0  0  0  0  0  0  0  0  0  0  0
  138.8449   73.0109  220.3130 H   0  0  0  0  0  0  0  0  0  0  0  0
  138.5499   74.5258  221.2131 H   0  0  0  0  0  0  0  0  0  0  0  0
  143.1126   75.5501  220.2914 H   0  0  0  0  0  0  0  0  0  0  0  0
  142.0048   75.7636  218.9236 H   0  0  0  0  0  0  0  0  0  0  0  0
  143.0051   77.8288  220.8808 H   0  0  0  0  0  0  0  0  0  0  0  0
  143.4590   78.3230  219.0110 H   0  0  0  0  0  0  0  0  0  0  0  0
  140.7360   78.7279  221.2557 H   0  0  0  0  0  0  0  0  0  0  0  0
  140.0133   77.8273  219.9773 H   0  0  0  0  0  0  0  0  0  0  0  0
  141.3431   76.6057  222.6010 H   0  0  0  0  0  0  0  0  0  0  0  0
  138.7097   75.8102  221.7567 H   0  0  0  0  0  0  0  0  0  0  0  0
  139.4096   76.1036  223.3577 H   0  0  0  0  0  0  0  0  0  0  0  0
  139.1312   78.4323  221.3875 H   0  0  0  0  0  0  0  0  0  0  0  0
  137.6852   77.8716  222.3023 H   0  0  0  0  0  0  0  0  0  0  0  0
  141.6127   78.0477  224.2473 H   0  0  0  0  0  0  0  0  0  0  0  0
  143.5942   79.5734  224.1973 H   0  0  0  0  0  0  0  0  0  0  0  0
  143.3286   81.8975  223.3012 H   0  0  0  0  0  0  0  0  0  0  0  0
  141.1295   82.6521  222.4761 H   0  0  0  0  0  0  0  0  0  0  0  0
  139.1490   81.1481  222.5177 H   0  0  0  0  0  0  0  0  0  0  0  0
  138.9470   68.9765  222.9067 H   0  0  0  0  0  0  0  0  0  0  0  0
  139.2406   67.8260  225.0836 H   0  0  0  0  0  0  0  0  0  0  0  0
  139.9310   67.8791  227.4050 H   0  0  0  0  0  0  0  0  0  0  0  0
  140.8531   69.1237  229.3314 H   0  0  0  0  0  0  0  0  0  0  0  0
  141.4626   71.5031  229.0423 H   0  0  0  0  0  0  0  0  0  0  0  0
  141.1763   72.6592  226.8991 H   0  0  0  0  0  0  0  0  0  0  0  0
  1  2  2  0
  2  3  1  0
  3  4  1  0
  4  5  1  0
  5  6  2  0
  5  7  1  0
  7  8  1  0
  8  9  1  0
  9 10  1  0
  9 11  1  0
 11 12  1  0
 12 13  1  0
 13 14  1  0
 14 15  1  0
 15 16  1  0
 16 17  2  0
 17 18  1  0
 18 19  2  0
 19 20  1  0
 20 21  2  0
  2 22  1  0
 22 23  2  0
 23 24  1  0
 24 25  2  0
 25 26  1  0
 26 27  2  0
 27 28  1  0
 28 29  2  0
 29 30  1  0
 30 31  2  0
 12  7  1  0
 21 16  1  0
 31 22  1  0
 30 25  1  0
  3 32  1  0
  4 33  1  0
  4 34  1  0
  8 35  1  0
  8 36  1  0
  9 37  1  1
 10 38  1  0
 11 39  1  0
 11 40  1  0
 12 41  1  1
 13 42  1  0
 13 43  1  0
 14 44  1  0
 14 45  1  0
 17 46  1  0
 18 47  1  0
 19 48  1  0
 20 49  1  0
 21 50  1  0
 23 51  1  0
 24 52  1  0
 26 53  1  0
 27 54  1  0
 28 55  1  0
 29 56  1  0
M  END
>  <meeko>  (1) 
{"free_energy": -8.65, "intermolecular_energy": -11.34, "internal_energy": -1.58, "cluster_size": 3, "cluster_id": 3, "rank_in_cluster": 1}

$$$$

     RDKit          3D

 56 59  0  0  0  0  0  0  0  0999 V2000
  139.3340   69.7170  221.2030 O   0  0  0  0  0  0  0  0  0  0  0  0
  139.8590   70.5900  221.9620 C   0  0  0  0  0  0  0  0  0  0  0  0
  140.5050   71.7560  221.4410 N   0  0  0  0  0  0  0  0  0  0  0  0
  140.5850   71.9880  219.9960 C   0  0  0  0  0  0  0  0  0  0  0  0
  141.9890   71.8750  219.5920 C   0  0  0  0  0  0  0  0  0  0  0  0
  142.2790   70.9530  218.7620 O   0  0  0  0  0  0  0  0  0  0  0  0
  143.0560   72.6830  220.0260 N   0  0  0  0  0  0  0  0  0  0  0  0
  144.4420   72.1760  220.0380 C   0  0  0  0  0  0  0  0  0  0  0  0
  145.3310   73.3800  220.2380 C   0  0  1  0  0  0  0  0  0  0  0  0
  146.4850   73.3190  219.4700 O   0  0  0  0  0  0  0  0  0  0  0  0
  144.4120   74.5030  219.8070 C   0  0  0  0  0  0  0  0  0  0  0  0
  143.1290   74.0350  220.5130 C   0  0  1  0  0  0  0  0  0  0  0  0
  141.9720   74.9110  220.1840 C   0  0  0  0  0  0  0  0  0  0  0  0
  141.4240   75.4160  221.5320 C   0  0  0  0  0  0  0  0  0  0  0  0
  140.5010   74.4830  222.0580 O   0  0  0  0  0  0  0  0  0  0  0  0
  139.1510   74.7750  222.2060 C   0  0  0  0  0  0  0  0  0  0  0  0
  138.8070   76.0540  222.5960 C   0  0  0  0  0  0  0  0  0  0  0  0
  137.4650   76.3890  222.7540 C   0  0  0  0  0  0  0  0  0  0  0  0
  136.4900   75.4200  222.5150 C   0  0  0  0  0  0  0  0  0  0  0  0
  136.8700   74.1500  222.1260 C   0  0  0  0  0  0  0  0  0  0  0  0
  138.1970   73.7980  221.9620 C   0  0  0  0  0  0  0  0  0  0  0  0
  139.8020   70.3960  223.4280 C   0  0  0  0  0  0  0  0  0  0  0  0
  139.0580   69.3560  223.9430 C   0  0  0  0  0  0  0  0  0  0  0  0
  139.0090   69.1800  225.3110 C   0  0  0  0  0  0  0  0  0  0  0  0
  139.6940   70.0310  226.1640 C   0  0  0  0  0  0  0  0  0  0  0  0
  139.6540   69.8670  227.5280 C   0  0  0  0  0  0  0  0  0  0  0  0
  140.3340   70.7140  228.3510 C   0  0  0  0  0  0  0  0  0  0  0  0
  141.0630   71.7380  227.7780 C   0  0  0  0  0  0  0  0  0  0  0  0
  141.1280   71.9340  226.4310 C   0  0  0  0  0  0  0  0  0  0  0  0
  140.4350   71.0700  225.6030 C   0  0  0  0  0  0  0  0  0  0  0  0
  140.4570   71.2060  224.2770 N   0  0  0  0  0  0  0  0  0  0  0  0
  140.9020   72.4080  222.1430 H   0  0  0  0  0  0  0  0  0  0  0  0
  139.9827   71.2367  219.4642 H   0  0  0  0  0  0  0  0  0  0  0  0
  140.1975   72.9875  219.7493 H   0  0  0  0  0  0  0  0  0  0  0  0
  144.5788   71.4603  220.8620 H   0  0  0  0  0  0  0  0  0  0  0  0
  144.6841   71.6508  219.1023 H   0  0  0  0  0  0  0  0  0  0  0  0
  145.7156   73.4851  221.2632 H   0  0  0  0  0  0  0  0  0  0  0  0
  146.7580   74.2760  219.3180 H   0  0  0  0  0  0  0  0  0  0  0  0
  144.7535   75.4818  220.1749 H   0  0  0  0  0  0  0  0  0  0  0  0
  144.3284   74.6605  218.7216 H   0  0  0  0  0  0  0  0  0  0  0  0
  143.1222   74.0852  221.6118 H   0  0  0  0  0  0  0  0  0  0  0  0
  142.2986   75.7581  219.5629 H   0  0  0  0  0  0  0  0  0  0  0  0
  141.2036   74.3665  219.6156 H   0  0  0  0  0  0  0  0  0  0  0  0
  142.2568   75.5432  222.2393 H   0  0  0  0  0  0  0  0  0  0  0  0
  140.9159   76.3793  221.3775 H   0  0  0  0  0  0  0  0  0  0  0  0
  139.5895   76.8047  222.7810 H   0  0  0  0  0  0  0  0  0  0  0  0
  137.1770   77.4046  223.0633 H   0  0  0  0  0  0  0  0  0  0  0  0
  135.4246   75.6659  222.6356 H   0  0  0  0  0  0  0  0  0  0  0  0
  136.0920   73.3947  221.9408 H   0  0  0  0  0  0  0  0  0  0  0  0
  138.4849   72.7831  221.6503 H   0  0  0  0  0  0  0  0  0  0  0  0
  138.5112   68.6761  223.2732 H   0  0  0  0  0  0  0  0  0  0  0  0
  138.4179   68.3525  225.7303 H   0  0  0  0  0  0  0  0  0  0  0  0
  139.0668   69.0432  227.9600 H   0  0  0  0  0  0  0  0  0  0  0  0
  140.3032   70.5856  229.4430 H   0  0  0  0  0  0  0  0  0  0  0  0
  141.6146   72.4245  228.4372 H   0  0  0  0  0  0  0  0  0  0  0  0
  141.7189   72.7615  226.0114 H   0  0  0  0  0  0  0  0  0  0  0  0
  1  2  2  0
  2  3  1  0
  3  4  1  0
  4  5  1  0
  5  6  2  0
  5  7  1  0
  7  8  1  0
  8  9  1  0
  9 10  1  0
  9 11  1  0
 11 12  1  0
 12 13  1  0
 13 14  1  0
 14 15  1  0
 15 16  1  0
 16 17  2  0
 17 18  1  0
 18 19  2  0
 19 20  1  0
 20 21  2  0
  2 22  1  0
 22 23  2  0
 23 24  1  0
 24 25  2  0
 25 26  1  0
 26 27  2  0
 27 28  1  0
 28 29  2  0
 29 30  1  0
 30 31  2  0
 12  7  1  0
 21 16  1  0
 31 22  1  0
 30 25  1  0
  3 32  1  0
  4 33  1  0
  4 34  1  0
  8 35  1  0
  8 36  1  0
  9 37  1  1
 10 38  1  0
 11 39  1  0
 11 40  1  0
 12 41  1  1
 13 42  1  0
 13 43  1  0
 14 44  1  0
 14 45  1  0
 17 46  1  0
 18 47  1  0
 19 48  1  0
 20 49  1  0
 21 50  1  0
 23 51  1  0
 24 52  1  0
 26 53  1  0
 27 54  1  0
 28 55  1  0
 29 56  1  0
M  END
>  <meeko>  (2) 
{"free_energy": -7.81, "intermolecular_energy": -10.49, "internal_energy": -2.78, "cluster_size": 1, "cluster_id": 5, "rank_in_cluster": 1}

$$$$

     RDKit          3D

 56 59  0  0  0  0  0  0  0  0999 V2000
  139.2320   74.9860  222.3690 O   0  0  0  0  0  0  0  0  0  0  0  0
  140.1140   75.7460  221.8610 C   0  0  0  0  0  0  0  0  0  0  0  0
  140.9860   75.3000  220.8170 N   0  0  0  0  0  0  0  0  0  0  0  0
  140.8910   73.9360  220.2900 C   0  0  0  0  0  0  0  0  0  0  0  0
  142.0650   73.1870  220.7440 C   0  0  0  0  0  0  0  0  0  0  0  0
  141.8670   72.2620  221.5960 O   0  0  0  0  0  0  0  0  0  0  0  0
  143.3980   73.3850  220.3340 N   0  0  0  0  0  0  0  0  0  0  0  0
  144.4880   72.5300  220.8440 C   0  0  0  0  0  0  0  0  0  0  0  0
  145.6850   72.8030  219.9660 C   0  0  1  0  0  0  0  0  0  0  0  0
  146.4040   71.6530  219.6780 O   0  0  0  0  0  0  0  0  0  0  0  0
  145.0250   73.3920  218.7370 C   0  0  0  0  0  0  0  0  0  0  0  0
  144.0210   74.3220  219.4380 C   0  0  1  0  0  0  0  0  0  0  0  0
  143.1190   74.9900  218.4610 C   0  0  0  0  0  0  0  0  0  0  0  0
  143.3180   76.5030  218.6630 C   0  0  0  0  0  0  0  0  0  0  0  0
  142.0650   77.1380  218.8270 O   0  0  0  0  0  0  0  0  0  0  0  0
  141.9380   78.5180  218.9190 C   0  0  0  0  0  0  0  0  0  0  0  0
  142.7850   79.2960  218.1550 C   0  0  0  0  0  0  0  0  0  0  0  0
  142.6900   80.6830  218.2170 C   0  0  0  0  0  0  0  0  0  0  0  0
  141.7370   81.2630  219.0550 C   0  0  0  0  0  0  0  0  0  0  0  0
  140.9050   80.4550  219.8050 C   0  0  0  0  0  0  0  0  0  0  0  0
  140.9830   79.0740  219.7570 C   0  0  0  0  0  0  0  0  0  0  0  0
  140.2450   77.1320  222.3630 C   0  0  0  0  0  0  0  0  0  0  0  0
  139.1110   77.8330  222.7150 C   0  0  0  0  0  0  0  0  0  0  0  0
  139.2400   79.1240  223.1820 C   0  0  0  0  0  0  0  0  0  0  0  0
  140.4880   79.7180  223.3020 C   0  0  0  0  0  0  0  0  0  0  0  0
  140.6300   81.0040  223.7670 C   0  0  0  0  0  0  0  0  0  0  0  0
  141.8650   81.5710  223.8780 C   0  0  0  0  0  0  0  0  0  0  0  0
  142.9650   80.8190  223.5110 C   0  0  0  0  0  0  0  0  0  0  0  0
  142.8640   79.5430  223.0460 C   0  0  0  0  0  0  0  0  0  0  0  0
  141.6090   78.9750  222.9370 C   0  0  0  0  0  0  0  0  0  0  0  0
  141.4420   77.7300  222.4890 N   0  0  0  0  0  0  0  0  0  0  0  0
  141.6710   75.9970  220.4690 H   0  0  0  0  0  0  0  0  0  0  0  0
  139.9751   73.4552  220.6641 H   0  0  0  0  0  0  0  0  0  0  0  0
  140.8543   73.9551  219.1908 H   0  0  0  0  0  0  0  0  0  0  0  0
  144.7158   72.7859  221.8893 H   0  0  0  0  0  0  0  0  0  0  0  0
  144.2076   71.4666  220.8193 H   0  0  0  0  0  0  0  0  0  0  0  0
  146.4361   73.4600  220.4288 H   0  0  0  0  0  0  0  0  0  0  0  0
  146.1620   70.9950  220.4010 H   0  0  0  0  0  0  0  0  0  0  0  0
  145.7377   73.9488  218.1109 H   0  0  0  0  0  0  0  0  0  0  0  0
  144.5914   72.6653  218.0342 H   0  0  0  0  0  0  0  0  0  0  0  0
  144.4376   75.1925  219.9659 H   0  0  0  0  0  0  0  0  0  0  0  0
  143.3889   74.7031  217.4339 H   0  0  0  0  0  0  0  0  0  0  0  0
  142.0700   74.6979  218.6170 H   0  0  0  0  0  0  0  0  0  0  0  0
  143.9327   76.6731  219.5592 H   0  0  0  0  0  0  0  0  0  0  0  0
  143.8223   76.9220  217.7797 H   0  0  0  0  0  0  0  0  0  0  0  0
  143.5312   78.8218  217.5005 H   0  0  0  0  0  0  0  0  0  0  0  0
  143.3580   81.3144  217.6128 H   0  0  0  0  0  0  0  0  0  0  0  0
  141.6488   82.3577  219.1180 H   0  0  0  0  0  0  0  0  0  0  0  0
  140.1568   80.9238  220.4611 H   0  0  0  0  0  0  0  0  0  0  0  0
  140.3139   78.4423  220.3598 H   0  0  0  0  0  0  0  0  0  0  0  0
  138.1177   77.3691  222.6246 H   0  0  0  0  0  0  0  0  0  0  0  0
  138.3404   79.6911  223.4635 H   0  0  0  0  0  0  0  0  0  0  0  0
  139.7382   81.5813  224.0524 H   0  0  0  0  0  0  0  0  0  0  0  0
  141.9828   82.5996  224.2498 H   0  0  0  0  0  0  0  0  0  0  0  0
  143.9644   81.2703  223.5982 H   0  0  0  0  0  0  0  0  0  0  0  0
  143.7631   78.9760  222.7630 H   0  0  0  0  0  0  0  0  0  0  0  0
  1  2  2  0
  2  3  1  0
  3  4  1  0
  4  5  1  0
  5  6  2  0
  5  7  1  0
  7  8  1  0
  8  9  1  0
  9 10  1  0
  9 11  1  0
 11 12  1  0
 12 13  1  0
 13 14  1  0
 14 15  1  0
 15 16  1  0
 16 17  2  0
 17 18  1  0
 18 19  2  0
 19 20  1  0
 20 21  2  0
  2 22  1  0
 22 23  2  0
 23 24  1  0
 24 25  2  0
 25 26  1  0
 26 27  2  0
 27 28  1  0
 28 29  2  0
 29 30  1  0
 30 31  2  0
 12  7  1  0
 21 16  1  0
 31 22  1  0
 30 25  1  0
  3 32  1  0
  4 33  1  0
  4 34  1  0
  8 35  1  0
  8 36  1  0
  9 37  1  1
 10 38  1  0
 11 39  1  0
 11 40  1  0
 12 41  1  1
 13 42  1  0
 13 43  1  0
 14 44  1  0
 14 45  1  0
 17 46  1  0
 18 47  1  0
 19 48  1  0
 20 49  1  0
 21 50  1  0
 23 51  1  0
 24 52  1  0
 26 53  1  0
 27 54  1  0
 28 55  1  0
 29 56  1  0
M  END
>  <meeko>  (3) 
{"free_energy": -7.36, "intermolecular_energy": -10.04, "internal_energy": -3.11, "cluster_size": 5, "cluster_id": 6, "rank_in_cluster": 3}

$$$$

     RDKit          3D

 56 59  0  0  0  0  0  0  0  0999 V2000
  139.5420   74.7740  222.5610 O   0  0  0  0  0  0  0  0  0  0  0  0
  140.1590   75.6310  221.8560 C   0  0  0  0  0  0  0  0  0  0  0  0
  140.7620   75.2890  220.6040 N   0  0  0  0  0  0  0  0  0  0  0  0
  140.6860   73.9220  220.0830 C   0  0  0  0  0  0  0  0  0  0  0  0
  141.8500   73.1800  220.5750 C   0  0  0  0  0  0  0  0  0  0  0  0
  141.6210   72.1800  221.3300 O   0  0  0  0  0  0  0  0  0  0  0  0
  143.2020   73.4580  220.2990 N   0  0  0  0  0  0  0  0  0  0  0  0
  144.2780   72.5760  220.7920 C   0  0  0  0  0  0  0  0  0  0  0  0
  145.5290   72.9820  220.0500 C   0  0  1  0  0  0  0  0  0  0  0  0
  146.3070   71.8920  219.6880 O   0  0  0  0  0  0  0  0  0  0  0  0
  144.9450   73.6960  218.8500 C   0  0  0  0  0  0  0  0  0  0  0  0
  143.8590   74.5110  219.5710 C   0  0  1  0  0  0  0  0  0  0  0  0
  143.0130   75.2660  218.6090 C   0  0  0  0  0  0  0  0  0  0  0  0
  143.2940   76.7570  218.8750 C   0  0  0  0  0  0  0  0  0  0  0  0
  142.0930   77.4240  219.2090 O   0  0  0  0  0  0  0  0  0  0  0  0
  141.9490   78.8000  219.0880 C   0  0  0  0  0  0  0  0  0  0  0  0
  140.9790   79.4160  219.8550 C   0  0  0  0  0  0  0  0  0  0  0  0
  140.8030   80.7940  219.7640 C   0  0  0  0  0  0  0  0  0  0  0  0
  141.6120   81.5280  218.8960 C   0  0  0  0  0  0  0  0  0  0  0  0
  142.5720   80.8800  218.1440 C   0  0  0  0  0  0  0  0  0  0  0  0
  142.7630   79.5120  218.2200 C   0  0  0  0  0  0  0  0  0  0  0  0
  140.2600   77.0250  222.3440 C   0  0  0  0  0  0  0  0  0  0  0  0
  139.1090   77.7150  222.6610 C   0  0  0  0  0  0  0  0  0  0  0  0
  139.2100   79.0130  223.1150 C   0  0  0  0  0  0  0  0  0  0  0  0
  140.4460   79.6250  223.2560 C   0  0  0  0  0  0  0  0  0  0  0  0
  140.5600   80.9190  223.7090 C   0  0  0  0  0  0  0  0  0  0  0  0
  141.7840   81.5040  223.8420 C   0  0  0  0  0  0  0  0  0  0  0  0
  142.9020   80.7630  223.5100 C   0  0  0  0  0  0  0  0  0  0  0  0
  142.8300   79.4800  223.0580 C   0  0  0  0  0  0  0  0  0  0  0  0
  141.5850   78.8940  222.9270 C   0  0  0  0  0  0  0  0  0  0  0  0
  141.4450   77.6410  222.4910 N   0  0  0  0  0  0  0  0  0  0  0  0
  141.2420   76.0610  220.1040 H   0  0  0  0  0  0  0  0  0  0  0  0
  139.7615   73.4403  220.4342 H   0  0  0  0  0  0  0  0  0  0  0  0
  140.6798   73.9340  218.9831 H   0  0  0  0  0  0  0  0  0  0  0  0
  144.4160   72.7116  221.8749 H   0  0  0  0  0  0  0  0  0  0  0  0
  144.0371   71.5163  220.6217 H   0  0  0  0  0  0  0  0  0  0  0  0
  146.2197   73.5981  220.6445 H   0  0  0  0  0  0  0  0  0  0  0  0
  146.4900   71.3950  220.5440 H   0  0  0  0  0  0  0  0  0  0  0  0
  145.6841   74.3408  218.3520 H   0  0  0  0  0  0  0  0  0  0  0  0
  144.5913   73.0470  218.0354 H   0  0  0  0  0  0  0  0  0  0  0  0
  144.2027   75.3235  220.2281 H   0  0  0  0  0  0  0  0  0  0  0  0
  143.2835   75.0046  217.5753 H   0  0  0  0  0  0  0  0  0  0  0  0
  141.9468   75.0280  218.7374 H   0  0  0  0  0  0  0  0  0  0  0  0
  144.0062   76.8504  219.7081 H   0  0  0  0  0  0  0  0  0  0  0  0
  143.7188   77.2115  217.9678 H   0  0  0  0  0  0  0  0  0  0  0  0
  140.3496   78.8213  220.5334 H   0  0  0  0  0  0  0  0  0  0  0  0
  140.0352   81.2981  220.3693 H   0  0  0  0  0  0  0  0  0  0  0  0
  141.4857   82.6174  218.8111 H   0  0  0  0  0  0  0  0  0  0  0  0
  143.2042   81.4696  217.4638 H   0  0  0  0  0  0  0  0  0  0  0  0
  143.5312   79.0082  217.6150 H   0  0  0  0  0  0  0  0  0  0  0  0
  138.1243   77.2367  222.5532 H   0  0  0  0  0  0  0  0  0  0  0  0
  138.2967   79.5710  223.3690 H   0  0  0  0  0  0  0  0  0  0  0  0
  139.6541   81.4874  223.9665 H   0  0  0  0  0  0  0  0  0  0  0  0
  141.8792   82.5384  224.2040 H   0  0  0  0  0  0  0  0  0  0  0  0
  143.8928   81.2292  223.6152 H   0  0  0  0  0  0  0  0  0  0  0  0
  143.7431   78.9222  222.8027 H   0  0  0  0  0  0  0  0  0  0  0  0
  1  2  2  0
  2  3  1  0
  3  4  1  0
  4  5  1  0
  5  6  2  0
  5  7  1  0
  7  8  1  0
  8  9  1  0
  9 10  1  0
  9 11  1  0
 11 12  1  0
 12 13  1  0
 13 14  1  0
 14 15  1  0
 15 16  1  0
 16 17  2  0
 17 18  1  0
 18 19  2  0
 19 20  1  0
 20 21  2  0
  2 22  1  0
 22 23  2  0
 23 24  1  0
 24 25  2  0
 25 26  1  0
 26 27  2  0
 27 28  1  0
 28 29  2  0
 29 30  1  0
 30 31  2  0
 12  7  1  0
 21 16  1  0
 31 22  1  0
 30 25  1  0
  3 32  1  0
  4 33  1  0
  4 34  1  0
  8 35  1  0
  8 36  1  0
  9 37  1  1
 10 38  1  0
 11 39  1  0
 11 40  1  0
 12 41  1  1
 13 42  1  0
 13 43  1  0
 14 44  1  0
 14 45  1  0
 17 46  1  0
 18 47  1  0
 19 48  1  0
 20 49  1  0
 21 50  1  0
 23 51  1  0
 24 52  1  0
 26 53  1  0
 27 54  1  0
 28 55  1  0
 29 56  1  0
M  END
>  <meeko>  (4) 
{"free_energy": -7.47, "intermolecular_energy": -10.16, "internal_energy": -3.1, "cluster_size": 5, "cluster_id": 6, "rank_in_cluster": 1}

$$$$

     RDKit          3D

 56 59  0  0  0  0  0  0  0  0999 V2000
  139.8720   74.2810  222.3360 O   0  0  0  0  0  0  0  0  0  0  0  0
  140.1890   75.2190  221.5390 C   0  0  0  0  0  0  0  0  0  0  0  0
  140.5270   74.9670  220.1720 N   0  0  0  0  0  0  0  0  0  0  0  0
  140.5180   73.6040  219.6340 C   0  0  0  0  0  0  0  0  0  0  0  0
  141.8520   73.3140  219.1010 C   0  0  0  0  0  0  0  0  0  0  0  0
  141.9230   72.9680  217.8780 O   0  0  0  0  0  0  0  0  0  0  0  0
  143.0700   73.3810  219.8040 N   0  0  0  0  0  0  0  0  0  0  0  0
  143.9190   72.1850  219.9740 C   0  0  0  0  0  0  0  0  0  0  0  0
  145.2550   72.6830  220.4700 C   0  0  1  0  0  0  0  0  0  0  0  0
  146.3190   72.0020  219.8970 O   0  0  0  0  0  0  0  0  0  0  0  0
  145.2070   74.1360  220.0460 C   0  0  0  0  0  0  0  0  0  0  0  0
  143.7630   74.4520  220.4680 C   0  0  1  0  0  0  0  0  0  0  0  0
  143.3670   75.8310  220.0730 C   0  0  0  0  0  0  0  0  0  0  0  0
  143.3160   75.8340  218.5340 C   0  0  0  0  0  0  0  0  0  0  0  0
  142.1650   76.5250  218.0890 O   0  0  0  0  0  0  0  0  0  0  0  0
  141.9110   77.8460  218.4360 C   0  0  0  0  0  0  0  0  0  0  0  0
  140.7010   78.1330  219.0360 C   0  0  0  0  0  0  0  0  0  0  0  0
  140.4080   79.4440  219.4000 C   0  0  0  0  0  0  0  0  0  0  0  0
  141.3450   80.4460  219.1490 C   0  0  0  0  0  0  0  0  0  0  0  0
  142.5460   80.1230  218.5470 C   0  0  0  0  0  0  0  0  0  0  0  0
  142.8570   78.8270  218.1780 C   0  0  0  0  0  0  0  0  0  0  0  0
  140.2110   76.6110  222.0400 C   0  0  0  0  0  0  0  0  0  0  0  0
  139.0290   77.2130  222.4150 C   0  0  0  0  0  0  0  0  0  0  0  0
  139.0560   78.5110  222.8810 C   0  0  0  0  0  0  0  0  0  0  0  0
  140.2500   79.2090  222.9760 C   0  0  0  0  0  0  0  0  0  0  0  0
  140.2910   80.5030  223.4400 C   0  0  0  0  0  0  0  0  0  0  0  0
  141.4750   81.1740  223.5270 C   0  0  0  0  0  0  0  0  0  0  0  0
  142.6280   80.5190  223.1380 C   0  0  0  0  0  0  0  0  0  0  0  0
  142.6280   79.2380  222.6740 C   0  0  0  0  0  0  0  0  0  0  0  0
  141.4230   78.5650  222.5890 C   0  0  0  0  0  0  0  0  0  0  0  0
  141.3550   77.3100  222.1430 N   0  0  0  0  0  0  0  0  0  0  0  0
  140.7700   75.8000  219.6030 H   0  0  0  0  0  0  0  0  0  0  0  0
  140.2730   72.8895  220.4337 H   0  0  0  0  0  0  0  0  0  0  0  0
  139.7631   73.5140  218.8390 H   0  0  0  0  0  0  0  0  0  0  0  0
  143.4705   71.5005  220.7091 H   0  0  0  0  0  0  0  0  0  0  0  0
  144.0237   71.6306  219.0297 H   0  0  0  0  0  0  0  0  0  0  0  0
  145.4130   72.5366  221.5487 H   0  0  0  0  0  0  0  0  0  0  0  0
  146.4870   71.2100  220.4960 H   0  0  0  0  0  0  0  0  0  0  0  0
  145.9407   74.7501  220.5887 H   0  0  0  0  0  0  0  0  0  0  0  0
  145.4492   74.3329  218.9912 H   0  0  0  0  0  0  0  0  0  0  0  0
  143.5566   74.4775  221.5482 H   0  0  0  0  0  0  0  0  0  0  0  0
  142.3791   76.0787  220.4886 H   0  0  0  0  0  0  0  0  0  0  0  0
  144.0781   76.5789  220.4538 H   0  0  0  0  0  0  0  0  0  0  0  0
  144.2145   76.3321  218.1408 H   0  0  0  0  0  0  0  0  0  0  0  0
  143.2761   74.7960  218.1723 H   0  0  0  0  0  0  0  0  0  0  0  0
  139.9730   77.3304  219.2252 H   0  0  0  0  0  0  0  0  0  0  0  0
  139.4486   79.6870  219.8800 H   0  0  0  0  0  0  0  0  0  0  0  0
  141.1291   81.4877  219.4287 H   0  0  0  0  0  0  0  0  0  0  0  0
  143.2777   80.9217  218.3552 H   0  0  0  0  0  0  0  0  0  0  0  0
  143.8168   78.5837  217.6988 H   0  0  0  0  0  0  0  0  0  0  0  0
  138.0774   76.6659  222.3436 H   0  0  0  0  0  0  0  0  0  0  0  0
  138.1171   78.9990  223.1814 H   0  0  0  0  0  0  0  0  0  0  0  0
  139.3590   81.0019  223.7441 H   0  0  0  0  0  0  0  0  0  0  0  0
  141.5113   82.2093  223.8970 H   0  0  0  0  0  0  0  0  0  0  0  0
  143.5864   81.0546  223.2059 H   0  0  0  0  0  0  0  0  0  0  0  0
  143.5666   78.7495  222.3734 H   0  0  0  0  0  0  0  0  0  0  0  0
  1  2  2  0
  2  3  1  0
  3  4  1  0
  4  5  1  0
  5  6  2  0
  5  7  1  0
  7  8  1  0
  8  9  1  0
  9 10  1  0
  9 11  1  0
 11 12  1  0
 12 13  1  0
 13 14  1  0
 14 15  1  0
 15 16  1  0
 16 17  2  0
 17 18  1  0
 18 19  2  0
 19 20  1  0
 20 21  2  0
  2 22  1  0
 22 23  2  0
 23 24  1  0
 24 25  2  0
 25 26  1  0
 26 27  2  0
 27 28  1  0
 28 29  2  0
 29 30  1  0
 30 31  2  0
 12  7  1  0
 21 16  1  0
 31 22  1  0
 30 25  1  0
  3 32  1  0
  4 33  1  0
  4 34  1  0
  8 35  1  0
  8 36  1  0
  9 37  1  1
 10 38  1  0
 11 39  1  0
 11 40  1  0
 12 41  1  1
 13 42  1  0
 13 43  1  0
 14 44  1  0
 14 45  1  0
 17 46  1  0
 18 47  1  0
 19 48  1  0
 20 49  1  0
 21 50  1  0
 23 51  1  0
 24 52  1  0
 26 53  1  0
 27 54  1  0
 28 55  1  0
 29 56  1  0
M  END
>  <meeko>  (5) 
{"free_energy": -6.81, "intermolecular_energy": -9.49, "internal_energy": -3.48, "cluster_size": 5, "cluster_id": 6, "rank_in_cluster": 4}

$$$$

     RDKit          3D

 56 59  0  0  0  0  0  0  0  0999 V2000
  139.3360   70.9330  221.2910 O   0  0  0  0  0  0  0  0  0  0  0  0
  139.4720   71.6580  222.3250 C   0  0  0  0  0  0  0  0  0  0  0  0
  139.4250   73.0870  222.2570 N   0  0  0  0  0  0  0  0  0  0  0  0
  139.2150   73.7730  220.9790 C   0  0  0  0  0  0  0  0  0  0  0  0
  140.4520   73.6740  220.2000 C   0  0  0  0  0  0  0  0  0  0  0  0
  140.5940   72.6410  219.4690 O   0  0  0  0  0  0  0  0  0  0  0  0
  141.5050   74.6080  220.1730 N   0  0  0  0  0  0  0  0  0  0  0  0
  142.5890   74.5080  219.1760 C   0  0  0  0  0  0  0  0  0  0  0  0
  143.3350   75.8190  219.2300 C   0  0  1  0  0  0  0  0  0  0  0  0
  143.7140   76.2640  217.9720 O   0  0  0  0  0  0  0  0  0  0  0  0
  142.3030   76.7220  219.8730 C   0  0  0  0  0  0  0  0  0  0  0  0
  141.8110   75.7660  220.9710 C   0  0  1  0  0  0  0  0  0  0  0  0
  140.6780   76.3490  221.7370 C   0  0  0  0  0  0  0  0  0  0  0  0
  140.2310   77.5970  220.9520 C   0  0  0  0  0  0  0  0  0  0  0  0
  139.9110   78.6430  221.8480 O   0  0  0  0  0  0  0  0  0  0  0  0
  140.8850   79.4170  222.4650 C   0  0  0  0  0  0  0  0  0  0  0  0
  142.2070   79.1040  222.2190 C   0  0  0  0  0  0  0  0  0  0  0  0
  143.2150   79.8560  222.8170 C   0  0  0  0  0  0  0  0  0  0  0  0
  142.8670   80.9140  223.6570 C   0  0  0  0  0  0  0  0  0  0  0  0
  141.5340   81.2000  223.8800 C   0  0  0  0  0  0  0  0  0  0  0  0
  140.5180   80.4650  223.2960 C   0  0  0  0  0  0  0  0  0  0  0  0
  139.6850   71.0080  223.6370 C   0  0  0  0  0  0  0  0  0  0  0  0
  139.3780   69.6720  223.7870 C   0  0  0  0  0  0  0  0  0  0  0  0
  139.5800   69.0720  225.0130 C   0  0  0  0  0  0  0  0  0  0  0  0
  140.0840   69.7920  226.0850 C   0  0  0  0  0  0  0  0  0  0  0  0
  140.2900   69.2060  227.3110 C   0  0  0  0  0  0  0  0  0  0  0  0
  140.7870   69.9300  228.3540 C   0  0  0  0  0  0  0  0  0  0  0  0
  141.0770   71.2650  228.1440 C   0  0  0  0  0  0  0  0  0  0  0  0
  140.8870   71.8810  226.9440 C   0  0  0  0  0  0  0  0  0  0  0  0
  140.3820   71.1390  225.8920 C   0  0  0  0  0  0  0  0  0  0  0  0
  140.1730   71.6830  224.6920 N   0  0  0  0  0  0  0  0  0  0  0  0
  139.5450   73.5890  223.1570 H   0  0  0  0  0  0  0  0  0  0  0  0
  138.3899   73.2951  220.4306 H   0  0  0  0  0  0  0  0  0  0  0  0
  138.9567   74.8283  221.1511 H   0  0  0  0  0  0  0  0  0  0  0  0
  143.2626   73.6756  219.4277 H   0  0  0  0  0  0  0  0  0  0  0  0
  142.1902   74.3156  218.1691 H   0  0  0  0  0  0  0  0  0  0  0  0
  144.2879   75.7679  219.7771 H   0  0  0  0  0  0  0  0  0  0  0  0
  144.6510   75.9220  217.8360 H   0  0  0  0  0  0  0  0  0  0  0  0
  142.7539   77.6344  220.2902 H   0  0  0  0  0  0  0  0  0  0  0  0
  141.5266   77.1134  219.1992 H   0  0  0  0  0  0  0  0  0  0  0  0
  142.5169   75.5399  221.7838 H   0  0  0  0  0  0  0  0  0  0  0  0
  139.8521   75.6258  221.8074 H   0  0  0  0  0  0  0  0  0  0  0  0
  140.9762   76.6051  222.7644 H   0  0  0  0  0  0  0  0  0  0  0  0
  141.0466   77.9219  220.2892 H   0  0  0  0  0  0  0  0  0  0  0  0
  139.3414   77.3484  220.3547 H   0  0  0  0  0  0  0  0  0  0  0  0
  142.4626   78.2655  221.5545 H   0  0  0  0  0  0  0  0  0  0  0  0
  144.2726   79.6187  222.6293 H   0  0  0  0  0  0  0  0  0  0  0  0
  143.6501   81.5175  224.1393 H   0  0  0  0  0  0  0  0  0  0  0  0
  141.2724   82.0382  224.5425 H   0  0  0  0  0  0  0  0  0  0  0  0
  139.4604   80.7024  223.4834 H   0  0  0  0  0  0  0  0  0  0  0  0
  138.9779   69.0930  222.9416 H   0  0  0  0  0  0  0  0  0  0  0  0
  139.3376   68.0068  225.1416 H   0  0  0  0  0  0  0  0  0  0  0  0
  140.0513   68.1415  227.4523 H   0  0  0  0  0  0  0  0  0  0  0  0
  140.9528   69.4640  229.3365 H   0  0  0  0  0  0  0  0  0  0  0  0
  141.4782   71.8549  228.9813 H   0  0  0  0  0  0  0  0  0  0  0  0
  141.1301   72.9460  226.8146 H   0  0  0  0  0  0  0  0  0  0  0  0
  1  2  2  0
  2  3  1  0
  3  4  1  0
  4  5  1  0
  5  6  2  0
  5  7  1  0
  7  8  1  0
  8  9  1  0
  9 10  1  0
  9 11  1  0
 11 12  1  0
 12 13  1  0
 13 14  1  0
 14 15  1  0
 15 16  1  0
 16 17  2  0
 17 18  1  0
 18 19  2  0
 19 20  1  0
 20 21  2  0
  2 22  1  0
 22 23  2  0
 23 24  1  0
 24 25  2  0
 25 26  1  0
 26 27  2  0
 27 28  1  0
 28 29  2  0
 29 30  1  0
 30 31  2  0
 12  7  1  0
 21 16  1  0
 31 22  1  0
 30 25  1  0
  3 32  1  0
  4 33  1  0
  4 34  1  0
  8 35  1  0
  8 36  1  0
  9 37  1  1
 10 38  1  0
 11 39  1  0
 11 40  1  0
 12 41  1  1
 13 42  1  0
 13 43  1  0
 14 44  1  0
 14 45  1  0
 17 46  1  0
 18 47  1  0
 19 48  1  0
 20 49  1  0
 21 50  1  0
 23 51  1  0
 24 52  1  0
 26 53  1  0
 27 54  1  0
 28 55  1  0
 29 56  1  0
M  END
>  <meeko>  (6) 
{"free_energy": -8.44, "intermolecular_energy": -11.13, "internal_energy": -1.4, "cluster_size": 8, "cluster_id": 1, "rank_in_cluster": 8}

$$$$

     RDKit          3D

 56 59  0  0  0  0  0  0  0  0999 V2000
  141.4740   72.0080  221.7460 O   0  0  0  0  0  0  0  0  0  0  0  0
  140.5210   72.2800  222.5410 C   0  0  0  0  0  0  0  0  0  0  0  0
  139.6820   73.4240  222.3540 N   0  0  0  0  0  0  0  0  0  0  0  0
  139.8940   74.3340  221.2260 C   0  0  0  0  0  0  0  0  0  0  0  0
  139.6180   75.6990  221.6810 C   0  0  0  0  0  0  0  0  0  0  0  0
  138.6500   75.8530  222.4930 O   0  0  0  0  0  0  0  0  0  0  0  0
  140.3170   76.8650  221.3120 N   0  0  0  0  0  0  0  0  0  0  0  0
  140.7270   77.8600  222.3220 C   0  0  0  0  0  0  0  0  0  0  0  0
  141.7090   78.7790  221.6360 C   0  0  1  0  0  0  0  0  0  0  0  0
  142.7660   79.1340  222.4610 O   0  0  0  0  0  0  0  0  0  0  0  0
  142.1530   77.9210  220.4700 C   0  0  0  0  0  0  0  0  0  0  0  0
  140.7800   77.3740  220.0490 C   0  0  1  0  0  0  0  0  0  0  0  0
  140.9000   76.3810  218.9480 C   0  0  0  0  0  0  0  0  0  0  0  0
  142.3520   75.8700  218.9920 C   0  0  0  0  0  0  0  0  0  0  0  0
  142.4390   74.7270  219.8190 O   0  0  0  0  0  0  0  0  0  0  0  0
  143.6380   74.0650  220.0490 C   0  0  0  0  0  0  0  0  0  0  0  0
  143.6690   72.7000  219.8490 C   0  0  0  0  0  0  0  0  0  0  0  0
  144.8520   71.9990  220.0680 C   0  0  0  0  0  0  0  0  0  0  0  0
  145.9870   72.6930  220.4880 C   0  0  0  0  0  0  0  0  0  0  0  0
  145.9200   74.0590  220.6790 C   0  0  0  0  0  0  0  0  0  0  0  0
  144.7540   74.7750  220.4660 C   0  0  0  0  0  0  0  0  0  0  0  0
  140.2710   71.3870  223.6950 C   0  0  0  0  0  0  0  0  0  0  0  0
  139.5940   70.2020  223.4990 C   0  0  0  0  0  0  0  0  0  0  0  0
  139.3650   69.3750  224.5780 C   0  0  0  0  0  0  0  0  0  0  0  0
  139.8040   69.7200  225.8470 C   0  0  0  0  0  0  0  0  0  0  0  0
  139.5820   68.9040  226.9320 C   0  0  0  0  0  0  0  0  0  0  0  0
  140.0220   69.2600  228.1720 C   0  0  0  0  0  0  0  0  0  0  0  0
  140.6950   70.4590  228.3080 C   0  0  0  0  0  0  0  0  0  0  0  0
  140.9350   71.2940  227.2580 C   0  0  0  0  0  0  0  0  0  0  0  0
  140.4850   70.9250  226.0040 C   0  0  0  0  0  0  0  0  0  0  0  0
  140.6870   71.6980  224.9350 N   0  0  0  0  0  0  0  0  0  0  0  0
  138.9310   73.5580  223.0580 H   0  0  0  0  0  0  0  0  0  0  0  0
  140.9352   74.2606  220.8789 H   0  0  0  0  0  0  0  0  0  0  0  0
  139.2262   74.0688  220.3931 H   0  0  0  0  0  0  0  0  0  0  0  0
  139.8535   78.4292  222.6727 H   0  0  0  0  0  0  0  0  0  0  0  0
  141.1786   77.3758  223.2004 H   0  0  0  0  0  0  0  0  0  0  0  0
  141.2819   79.7490  221.3415 H   0  0  0  0  0  0  0  0  0  0  0  0
  143.5980   78.8330  221.9790 H   0  0  0  0  0  0  0  0  0  0  0  0
  142.6233   78.5164  219.6735 H   0  0  0  0  0  0  0  0  0  0  0  0
  142.9173   77.1640  220.6996 H   0  0  0  0  0  0  0  0  0  0  0  0
  140.0758   78.0926  219.6042 H   0  0  0  0  0  0  0  0  0  0  0  0
  140.1974   75.5494  219.1054 H   0  0  0  0  0  0  0  0  0  0  0  0
  140.6609   76.8305  217.9729 H   0  0  0  0  0  0  0  0  0  0  0  0
  142.6768   75.6084  217.9741 H   0  0  0  0  0  0  0  0  0  0  0  0
  142.9999   76.6600  219.3997 H   0  0  0  0  0  0  0  0  0  0  0  0
  142.7643   72.1687  219.5185 H   0  0  0  0  0  0  0  0  0  0  0  0
  144.8912   70.9109  219.9117 H   0  0  0  0  0  0  0  0  0  0  0  0
  146.9299   72.1552  220.6660 H   0  0  0  0  0  0  0  0  0  0  0  0
  146.8213   74.5953  221.0108 H   0  0  0  0  0  0  0  0  0  0  0  0
  144.7145   75.8633  220.6213 H   0  0  0  0  0  0  0  0  0  0  0  0
  139.2415   69.9204  222.4958 H   0  0  0  0  0  0  0  0  0  0  0  0
  138.8261   68.4276  224.4299 H   0  0  0  0  0  0  0  0  0  0  0  0
  139.0437   67.9542  226.7975 H   0  0  0  0  0  0  0  0  0  0  0  0
  139.8459   68.6098  229.0416 H   0  0  0  0  0  0  0  0  0  0  0  0
  141.0523   70.7521  229.3062 H   0  0  0  0  0  0  0  0  0  0  0  0
  141.4750   72.2410  227.4051 H   0  0  0  0  0  0  0  0  0  0  0  0
  1  2  2  0
  2  3  1  0
  3  4  1  0
  4  5  1  0
  5  6  2  0
  5  7  1  0
  7  8  1  0
  8  9  1  0
  9 10  1  0
  9 11  1  0
 11 12  1  0
 12 13  1  0
 13 14  1  0
 14 15  1  0
 15 16  1  0
 16 17  2  0
 17 18  1  0
 18 19  2  0
 19 20  1  0
 20 21  2  0
  2 22  1  0
 22 23  2  0
 23 24  1  0
 24 25  2  0
 25 26  1  0
 26 27  2  0
 27 28  1  0
 28 29  2  0
 29 30  1  0
 30 31  2  0
 12  7  1  0
 21 16  1  0
 31 22  1  0
 30 25  1  0
  3 32  1  0
  4 33  1  0
  4 34  1  0
  8 35  1  0
  8 36  1  0
  9 37  1  6
 10 38  1  0
 11 39  1  0
 11 40  1  0
 12 41  1  6
 13 42  1  0
 13 43  1  0
 14 44  1  0
 14 45  1  0
 17 46  1  0
 18 47  1  0
 19 48  1  0
 20 49  1  0
 21 50  1  0
 23 51  1  0
 24 52  1  0
 26 53  1  0
 27 54  1  0
 28 55  1  0
 29 56  1  0
M  END
>  <meeko>  (7) 
{"free_energy": -8.66, "intermolecular_energy": -11.34, "internal_energy": -1.99, "cluster_size": 2, "cluster_id": 2, "rank_in_cluster": 1}

$$$$

     RDKit          3D

 56 59  0  0  0  0  0  0  0  0999 V2000
  138.8140   75.2830  221.9620 O   0  0  0  0  0  0  0  0  0  0  0  0
  139.9930   75.7350  222.1010 C   0  0  0  0  0  0  0  0  0  0  0  0
  141.1470   74.9110  221.9090 N   0  0  0  0  0  0  0  0  0  0  0  0
  141.0090   73.4990  221.5400 C   0  0  0  0  0  0  0  0  0  0  0  0
  141.8660   73.2440  220.3800 C   0  0  0  0  0  0  0  0  0  0  0  0
  141.3010   72.7920  219.3320 O   0  0  0  0  0  0  0  0  0  0  0  0
  143.2570   73.4470  220.3020 N   0  0  0  0  0  0  0  0  0  0  0  0
  144.2060   72.4120  220.7550 C   0  0  0  0  0  0  0  0  0  0  0  0
  145.5610   72.8230  220.2310 C   0  0  1  0  0  0  0  0  0  0  0  0
  146.3040   71.7420  219.7810 O   0  0  0  0  0  0  0  0  0  0  0  0
  145.1730   73.7630  219.1090 C   0  0  0  0  0  0  0  0  0  0  0  0
  144.0640   74.5420  219.8330 C   0  0  1  0  0  0  0  0  0  0  0  0
  143.3900   75.5080  218.9230 C   0  0  0  0  0  0  0  0  0  0  0  0
  142.7570   76.5780  219.8320 C   0  0  0  0  0  0  0  0  0  0  0  0
  141.7850   77.3100  219.1120 O   0  0  0  0  0  0  0  0  0  0  0  0
  141.8100   78.6960  219.0270 C   0  0  0  0  0  0  0  0  0  0  0  0
  140.9350   79.4060  219.8250 C   0  0  0  0  0  0  0  0  0  0  0  0
  140.9290   80.7970  219.7710 C   0  0  0  0  0  0  0  0  0  0  0  0
  141.8100   81.4480  218.9080 C   0  0  0  0  0  0  0  0  0  0  0  0
  142.6730   80.7060  218.1240 C   0  0  0  0  0  0  0  0  0  0  0  0
  142.6950   79.3240  218.1630 C   0  0  0  0  0  0  0  0  0  0  0  0
  140.1790   77.1550  222.4730 C   0  0  0  0  0  0  0  0  0  0  0  0
  139.0720   77.9490  222.6850 C   0  0  0  0  0  0  0  0  0  0  0  0
  139.2520   79.2720  223.0320 C   0  0  0  0  0  0  0  0  0  0  0  0
  140.5240   79.8060  223.1680 C   0  0  0  0  0  0  0  0  0  0  0  0
  140.7180   81.1230  223.5140 C   0  0  0  0  0  0  0  0  0  0  0  0
  141.9770   81.6300  223.6440 C   0  0  0  0  0  0  0  0  0  0  0  0
  143.0480   80.7870  223.4190 C   0  0  0  0  0  0  0  0  0  0  0  0
  142.8970   79.4770  223.0760 C   0  0  0  0  0  0  0  0  0  0  0  0
  141.6170   78.9710  222.9460 C   0  0  0  0  0  0  0  0  0  0  0  0
  141.4010   77.6970  222.6130 N   0  0  0  0  0  0  0  0  0  0  0  0
  142.0650   75.3740  222.0450 H   0  0  0  0  0  0  0  0  0  0  0  0
  141.3210   72.8621  222.3808 H   0  0  0  0  0  0  0  0  0  0  0  0
  139.9610   73.2704  221.2961 H   0  0  0  0  0  0  0  0  0  0  0  0
  144.2210   72.3634  221.8538 H   0  0  0  0  0  0  0  0  0  0  0  0
  143.9190   71.4164  220.3856 H   0  0  0  0  0  0  0  0  0  0  0  0
  146.2140   73.2784  220.9901 H   0  0  0  0  0  0  0  0  0  0  0  0
  146.6360   71.2780  220.6100 H   0  0  0  0  0  0  0  0  0  0  0  0
  146.0068   74.4140  218.8074 H   0  0  0  0  0  0  0  0  0  0  0  0
  144.8785   73.2818  218.1647 H   0  0  0  0  0  0  0  0  0  0  0  0
  144.3787   75.2094  220.6488 H   0  0  0  0  0  0  0  0  0  0  0  0
  144.1228   75.9684  218.2440 H   0  0  0  0  0  0  0  0  0  0  0  0
  142.6330   75.0115  218.2982 H   0  0  0  0  0  0  0  0  0  0  0  0
  142.2799   76.0882  220.6936 H   0  0  0  0  0  0  0  0  0  0  0  0
  143.5415   77.2654  220.1812 H   0  0  0  0  0  0  0  0  0  0  0  0
  140.2467   78.8756  220.4994 H   0  0  0  0  0  0  0  0  0  0  0  0
  140.2377   81.3756  220.4014 H   0  0  0  0  0  0  0  0  0  0  0  0
  141.8180   82.5465  218.8516 H   0  0  0  0  0  0  0  0  0  0  0  0
  143.3638   81.2311  217.4480 H   0  0  0  0  0  0  0  0  0  0  0  0
  143.3871   78.7453  217.5336 H   0  0  0  0  0  0  0  0  0  0  0  0
  138.0591   77.5333  222.5789 H   0  0  0  0  0  0  0  0  0  0  0  0
  138.3739   79.9121  223.2031 H   0  0  0  0  0  0  0  0  0  0  0  0
  139.8485   81.7739  223.6876 H   0  0  0  0  0  0  0  0  0  0  0  0
  142.1357   82.6827  223.9208 H   0  0  0  0  0  0  0  0  0  0  0  0
  144.0662   81.1905  223.5211 H   0  0  0  0  0  0  0  0  0  0  0  0
  143.7746   78.8359  222.9062 H   0  0  0  0  0  0  0  0  0  0  0  0
  1  2  2  0
  2  3  1  0
  3  4  1  0
  4  5  1  0
  5  6  2  0
  5  7  1  0
  7  8  1  0
  8  9  1  0
  9 10  1  0
  9 11  1  0
 11 12  1  0
 12 13  1  0
 13 14  1  0
 14 15  1  0
 15 16  1  0
 16 17  2  0
 17 18  1  0
 18 19  2  0
 19 20  1  0
 20 21  2  0
  2 22  1  0
 22 23  2  0
 23 24  1  0
 24 25  2  0
 25 26  1  0
 26 27  2  0
 27 28  1  0
 28 29  2  0
 29 30  1  0
 30 31  2  0
 12  7  1  0
 21 16  1  0
 31 22  1  0
 30 25  1  0
  3 32  1  0
  4 33  1  0
  4 34  1  0
  8 35  1  0
  8 36  1  0
  9 37  1  1
 10 38  1  0
 11 39  1  0
 11 40  1  0
 12 41  1  1
 13 42  1  0
 13 43  1  0
 14 44  1  0
 14 45  1  0
 17 46  1  0
 18 47  1  0
 19 48  1  0
 20 49  1  0
 21 50  1  0
 23 51  1  0
 24 52  1  0
 26 53  1  0
 27 54  1  0
 28 55  1  0
 29 56  1  0
M  END
>  <meeko>  (8) 
{"free_energy": -7.4, "intermolecular_energy": -10.08, "internal_energy": -2.81, "cluster_size": 5, "cluster_id": 6, "rank_in_cluster": 2}

$$$$

     RDKit          3D

 56 59  0  0  0  0  0  0  0  0999 V2000
  141.4180   71.7120  221.6860 O   0  0  0  0  0  0  0  0  0  0  0  0
  140.6100   72.0840  222.5920 C   0  0  0  0  0  0  0  0  0  0  0  0
  139.9490   73.3520  222.5430 N   0  0  0  0  0  0  0  0  0  0  0  0
  140.1830   74.2790  221.4320 C   0  0  0  0  0  0  0  0  0  0  0  0
  139.7820   75.6200  221.8640 C   0  0  0  0  0  0  0  0  0  0  0  0
  138.8060   75.6980  222.6780 O   0  0  0  0  0  0  0  0  0  0  0  0
  140.3660   76.8390  221.4700 N   0  0  0  0  0  0  0  0  0  0  0  0
  140.8170   77.8270  222.4700 C   0  0  0  0  0  0  0  0  0  0  0  0
  141.6660   78.8280  221.7230 C   0  0  1  0  0  0  0  0  0  0  0  0
  142.7780   79.2250  222.4490 O   0  0  0  0  0  0  0  0  0  0  0  0
  142.0380   78.0370  220.4860 C   0  0  0  0  0  0  0  0  0  0  0  0
  140.6640   77.4160  220.1860 C   0  0  1  0  0  0  0  0  0  0  0  0
  140.7300   76.4670  219.0430 C   0  0  0  0  0  0  0  0  0  0  0  0
  142.1970   76.0070  218.9550 C   0  0  0  0  0  0  0  0  0  0  0  0
  142.2930   74.6310  219.2670 O   0  0  0  0  0  0  0  0  0  0  0  0
  143.4360   74.0730  219.8250 C   0  0  0  0  0  0  0  0  0  0  0  0
  144.4150   74.9320  220.2810 C   0  0  0  0  0  0  0  0  0  0  0  0
  145.5760   74.4140  220.8480 C   0  0  0  0  0  0  0  0  0  0  0  0
  145.7270   73.0300  220.9440 C   0  0  0  0  0  0  0  0  0  0  0  0
  144.7270   72.2000  220.4770 C   0  0  0  0  0  0  0  0  0  0  0  0
  143.5660   72.6950  219.9110 C   0  0  0  0  0  0  0  0  0  0  0  0
  140.3430   71.1790  223.7330 C   0  0  0  0  0  0  0  0  0  0  0  0
  139.6530   70.0050  223.5170 C   0  0  0  0  0  0  0  0  0  0  0  0
  139.4080   69.1660  224.5840 C   0  0  0  0  0  0  0  0  0  0  0  0
  139.8450   69.4890  225.8600 C   0  0  0  0  0  0  0  0  0  0  0  0
  139.6080   68.6610  226.9320 C   0  0  0  0  0  0  0  0  0  0  0  0
  140.0470   68.9950  228.1790 C   0  0  0  0  0  0  0  0  0  0  0  0
  140.7340   70.1840  228.3340 C   0  0  0  0  0  0  0  0  0  0  0  0
  140.9890   71.0300  227.2970 C   0  0  0  0  0  0  0  0  0  0  0  0
  140.5400   70.6830  226.0360 C   0  0  0  0  0  0  0  0  0  0  0  0
  140.7570   71.4670  224.9780 N   0  0  0  0  0  0  0  0  0  0  0  0
  139.3060   73.5610  223.3300 H   0  0  0  0  0  0  0  0  0  0  0  0
  141.2498   74.2774  221.1639 H   0  0  0  0  0  0  0  0  0  0  0  0
  139.5992   73.9726  220.5515 H   0  0  0  0  0  0  0  0  0  0  0  0
  139.9514   78.3281  222.9278 H   0  0  0  0  0  0  0  0  0  0  0  0
  141.3851   77.3458  223.2798 H   0  0  0  0  0  0  0  0  0  0  0  0
  141.1529   79.7774  221.5099 H   0  0  0  0  0  0  0  0  0  0  0  0
  143.5500   78.7020  222.0680 H   0  0  0  0  0  0  0  0  0  0  0  0
  142.3861   78.6860  219.6689 H   0  0  0  0  0  0  0  0  0  0  0  0
  142.8665   77.3238  220.6081 H   0  0  0  0  0  0  0  0  0  0  0  0
  139.8753   78.1013  219.8420 H   0  0  0  0  0  0  0  0  0  0  0  0
  140.0699   75.6057  219.2231 H   0  0  0  0  0  0  0  0  0  0  0  0
  140.4004   76.9414  218.1069 H   0  0  0  0  0  0  0  0  0  0  0  0
  142.5709   76.1759  217.9344 H   0  0  0  0  0  0  0  0  0  0  0  0
  142.7991   76.5826  219.6735 H   0  0  0  0  0  0  0  0  0  0  0  0
  144.2787   76.0203  220.1969 H   0  0  0  0  0  0  0  0  0  0  0  0
  146.3645   75.0871  221.2158 H   0  0  0  0  0  0  0  0  0  0  0  0
  146.6376   72.6026  221.3892 H   0  0  0  0  0  0  0  0  0  0  0  0
  144.8579   71.1108  220.5577 H   0  0  0  0  0  0  0  0  0  0  0  0
  142.7770   72.0222  219.5436 H   0  0  0  0  0  0  0  0  0  0  0  0
  139.3029   69.7412  222.5081 H   0  0  0  0  0  0  0  0  0  0  0  0
  138.8582   68.2274  224.4206 H   0  0  0  0  0  0  0  0  0  0  0  0
  139.0588   67.7198  226.7821 H   0  0  0  0  0  0  0  0  0  0  0  0
  139.8592   68.3353  229.0390 H   0  0  0  0  0  0  0  0  0  0  0  0
  141.0902   70.4592  229.3377 H   0  0  0  0  0  0  0  0  0  0  0  0
  141.5398   71.9682  227.4592 H   0  0  0  0  0  0  0  0  0  0  0  0
  1  2  2  0
  2  3  1  0
  3  4  1  0
  4  5  1  0
  5  6  2  0
  5  7  1  0
  7  8  1  0
  8  9  1  0
  9 10  1  0
  9 11  1  0
 11 12  1  0
 12 13  1  0
 13 14  1  0
 14 15  1  0
 15 16  1  0
 16 17  2  0
 17 18  1  0
 18 19  2  0
 19 20  1  0
 20 21  2  0
  2 22  1  0
 22 23  2  0
 23 24  1  0
 24 25  2  0
 25 26  1  0
 26 27  2  0
 27 28  1  0
 28 29  2  0
 29 30  1  0
 30 31  2  0
 12  7  1  0
 21 16  1  0
 31 22  1  0
 30 25  1  0
  3 32  1  0
  4 33  1  0
  4 34  1  0
  8 35  1  0
  8 36  1  0
  9 37  1  6
 10 38  1  0
 11 39  1  0
 11 40  1  0
 12 41  1  6
 13 42  1  0
 13 43  1  0
 14 44  1  0
 14 45  1  0
 17 46  1  0
 18 47  1  0
 19 48  1  0
 20 49  1  0
 21 50  1  0
 23 51  1  0
 24 52  1  0
 26 53  1  0
 27 54  1  0
 28 55  1  0
 29 56  1  0
M  END
>  <meeko>  (9) 
{"free_energy": -8.42, "intermolecular_energy": -11.11, "internal_energy": -2.2, "cluster_size": 2, "cluster_id": 2, "rank_in_cluster": 2}

$$$$

     RDKit          3D

 56 59  0  0  0  0  0  0  0  0999 V2000
  139.6290   71.1650  221.2450 O   0  0  0  0  0  0  0  0  0  0  0  0
  139.6910   71.8820  222.2920 C   0  0  0  0  0  0  0  0  0  0  0  0
  139.5920   73.3080  222.2400 N   0  0  0  0  0  0  0  0  0  0  0  0
  139.4140   74.0020  220.9610 C   0  0  0  0  0  0  0  0  0  0  0  0
  140.6020   73.7590  220.1390 C   0  0  0  0  0  0  0  0  0  0  0  0
  140.4930   72.8990  219.2070 O   0  0  0  0  0  0  0  0  0  0  0  0
  141.8570   74.3820  220.2730 N   0  0  0  0  0  0  0  0  0  0  0  0
  143.0350   73.6290  220.7470 C   0  0  0  0  0  0  0  0  0  0  0  0
  144.2360   74.4980  220.4570 C   0  0  1  0  0  0  0  0  0  0  0  0
  145.3240   73.7630  220.0070 O   0  0  0  0  0  0  0  0  0  0  0  0
  143.6850   75.4200  219.3900 C   0  0  0  0  0  0  0  0  0  0  0  0
  142.3200   75.7230  220.0290 C   0  0  1  0  0  0  0  0  0  0  0  0
  141.4690   76.5540  219.1360 C   0  0  0  0  0  0  0  0  0  0  0  0
  141.7270   78.0170  219.5440 C   0  0  0  0  0  0  0  0  0  0  0  0
  140.9490   78.3480  220.6770 O   0  0  0  0  0  0  0  0  0  0  0  0
  141.4860   78.9890  221.7860 C   0  0  0  0  0  0  0  0  0  0  0  0
  141.2870   78.4100  223.0230 C   0  0  0  0  0  0  0  0  0  0  0  0
  141.8090   79.0200  224.1610 C   0  0  0  0  0  0  0  0  0  0  0  0
  142.5250   80.2090  224.0270 C   0  0  0  0  0  0  0  0  0  0  0  0
  142.7060   80.7610  222.7730 C   0  0  0  0  0  0  0  0  0  0  0  0
  142.1950   80.1700  221.6310 C   0  0  0  0  0  0  0  0  0  0  0  0
  139.8700   71.2230  223.6050 C   0  0  0  0  0  0  0  0  0  0  0  0
  139.5360   69.8920  223.7450 C   0  0  0  0  0  0  0  0  0  0  0  0
  139.7060   69.2840  224.9710 C   0  0  0  0  0  0  0  0  0  0  0  0
  140.2050   69.9900  226.0540 C   0  0  0  0  0  0  0  0  0  0  0  0
  140.3800   69.3960  227.2820 C   0  0  0  0  0  0  0  0  0  0  0  0
  140.8730   70.1070  228.3350 C   0  0  0  0  0  0  0  0  0  0  0  0
  141.1910   71.4360  228.1360 C   0  0  0  0  0  0  0  0  0  0  0  0
  141.0320   72.0610  226.9350 C   0  0  0  0  0  0  0  0  0  0  0  0
  140.5320   71.3320  225.8720 C   0  0  0  0  0  0  0  0  0  0  0  0
  140.3530   71.8840  224.6710 N   0  0  0  0  0  0  0  0  0  0  0  0
  139.6520   73.8030  223.1500 H   0  0  0  0  0  0  0  0  0  0  0  0
  138.5210   73.6149  220.4484 H   0  0  0  0  0  0  0  0  0  0  0  0
  139.2827   75.0811  221.1293 H   0  0  0  0  0  0  0  0  0  0  0  0
  142.9553   73.4369  221.8272 H   0  0  0  0  0  0  0  0  0  0  0  0
  143.1156   72.6536  220.2448 H   0  0  0  0  0  0  0  0  0  0  0  0
  144.6318   75.0211  221.3400 H   0  0  0  0  0  0  0  0  0  0  0  0
  145.7740   74.3430  219.3170 H   0  0  0  0  0  0  0  0  0  0  0  0
  144.2964   76.3266  219.2702 H   0  0  0  0  0  0  0  0  0  0  0  0
  143.6529   75.0050  218.3718 H   0  0  0  0  0  0  0  0  0  0  0  0
  142.3264   76.3373  220.9415 H   0  0  0  0  0  0  0  0  0  0  0  0
  141.7497   76.3953  218.0843 H   0  0  0  0  0  0  0  0  0  0  0  0
  140.4055   76.2903  219.2331 H   0  0  0  0  0  0  0  0  0  0  0  0
  142.7928   78.1456  219.7839 H   0  0  0  0  0  0  0  0  0  0  0  0
  141.4495   78.6785  218.7100 H   0  0  0  0  0  0  0  0  0  0  0  0
  140.7192   77.4719  223.1096 H   0  0  0  0  0  0  0  0  0  0  0  0
  141.6584   78.5694  225.1531 H   0  0  0  0  0  0  0  0  0  0  0  0
  142.9437   80.7052  224.9150 H   0  0  0  0  0  0  0  0  0  0  0  0
  143.2735   81.6987  222.6799 H   0  0  0  0  0  0  0  0  0  0  0  0
  142.3456   80.6199  220.6386 H   0  0  0  0  0  0  0  0  0  0  0  0
  139.1396   69.3236  222.8907 H   0  0  0  0  0  0  0  0  0  0  0  0
  139.4416   68.2230  225.0910 H   0  0  0  0  0  0  0  0  0  0  0  0
  140.1193   68.3357  227.4157 H   0  0  0  0  0  0  0  0  0  0  0  0
  141.0140   69.6344  229.3182 H   0  0  0  0  0  0  0  0  0  0  0  0
  141.5894   72.0147  228.9823 H   0  0  0  0  0  0  0  0  0  0  0  0
  141.2957   73.1221  226.8143 H   0  0  0  0  0  0  0  0  0  0  0  0
  1  2  2  0
  2  3  1  0
  3  4  1  0
  4  5  1  0
  5  6  2  0
  5  7  1  0
  7  8  1  0
  8  9  1  0
  9 10  1  0
  9 11  1  0
 11 12  1  0
 12 13  1  0
 13 14  1  0
 14 15  1  0
 15 16  1  0
 16 17  2  0
 17 18  1  0
 18 19  2  0
 19 20  1  0
 20 21  2  0
  2 22  1  0
 22 23  2  0
 23 24  1  0
 24 25  2  0
 25 26  1  0
 26 27  2  0
 27 28  1  0
 28 29  2  0
 29 30  1  0
 30 31  2  0
 12  7  1  0
 21 16  1  0
 31 22  1  0
 30 25  1  0
  3 32  1  0
  4 33  1  0
  4 34  1  0
  8 35  1  0
  8 36  1  0
  9 37  1  1
 10 38  1  0
 11 39  1  0
 11 40  1  0
 12 41  1  1
 13 42  1  0
 13 43  1  0
 14 44  1  0
 14 45  1  0
 17 46  1  0
 18 47  1  0
 19 48  1  0
 20 49  1  0
 21 50  1  0
 23 51  1  0
 24 52  1  0
 26 53  1  0
 27 54  1  0
 28 55  1  0
 29 56  1  0
M  END
>  <meeko>  (10) 
{"free_energy": -8.81, "intermolecular_energy": -11.5, "internal_energy": -1.56, "cluster_size": 8, "cluster_id": 1, "rank_in_cluster": 6}

$$$$

     RDKit          3D

 56 59  0  0  0  0  0  0  0  0999 V2000
  140.4240   71.0490  221.3090 O   0  0  0  0  0  0  0  0  0  0  0  0
  140.0870   71.6800  222.3590 C   0  0  0  0  0  0  0  0  0  0  0  0
  139.7960   73.0810  222.3380 N   0  0  0  0  0  0  0  0  0  0  0  0
  139.8750   73.8470  221.0920 C   0  0  0  0  0  0  0  0  0  0  0  0
  140.7160   75.0230  221.3310 C   0  0  0  0  0  0  0  0  0  0  0  0
  140.3020   75.8650  222.1920 O   0  0  0  0  0  0  0  0  0  0  0  0
  141.9410   75.3220  220.7040 N   0  0  0  0  0  0  0  0  0  0  0  0
  143.0830   74.3900  220.7790 C   0  0  0  0  0  0  0  0  0  0  0  0
  144.0820   74.8620  219.7500 C   0  0  1  0  0  0  0  0  0  0  0  0
  144.6870   73.8110  219.0780 O   0  0  0  0  0  0  0  0  0  0  0  0
  143.2020   75.6950  218.8420 C   0  0  0  0  0  0  0  0  0  0  0  0
  142.3960   76.4390  219.9200 C   0  0  1  0  0  0  0  0  0  0  0  0
  141.3350   77.2910  219.3190 C   0  0  0  0  0  0  0  0  0  0  0  0
  141.4210   78.6490  220.0400 C   0  0  0  0  0  0  0  0  0  0  0  0
  141.2760   78.4660  221.4340 O   0  0  0  0  0  0  0  0  0  0  0  0
  141.6690   79.4300  222.3550 C   0  0  0  0  0  0  0  0  0  0  0  0
  140.6930   80.2520  222.8820 C   0  0  0  0  0  0  0  0  0  0  0  0
  141.0440   81.2310  223.8080 C   0  0  0  0  0  0  0  0  0  0  0  0
  142.3800   81.3620  224.1860 C   0  0  0  0  0  0  0  0  0  0  0  0
  143.3310   80.5220  223.6380 C   0  0  0  0  0  0  0  0  0  0  0  0
  143.0020   79.5430  222.7170 C   0  0  0  0  0  0  0  0  0  0  0  0
  139.9940   70.9460  223.6400 C   0  0  0  0  0  0  0  0  0  0  0  0
  139.4630   69.6740  223.6530 C   0  0  0  0  0  0  0  0  0  0  0  0
  139.3790   68.9950  224.8510 C   0  0  0  0  0  0  0  0  0  0  0  0
  139.8210   69.5730  226.0310 C   0  0  0  0  0  0  0  0  0  0  0  0
  139.7430   68.9070  227.2310 C   0  0  0  0  0  0  0  0  0  0  0  0
  140.1830   69.4930  228.3810 C   0  0  0  0  0  0  0  0  0  0  0  0
  140.7070   70.7690  228.3070 C   0  0  0  0  0  0  0  0  0  0  0  0
  140.8000   71.4610  227.1370 C   0  0  0  0  0  0  0  0  0  0  0  0
  140.3520   70.8600  225.9750 C   0  0  0  0  0  0  0  0  0  0  0  0
  140.4150   71.4840  224.7980 N   0  0  0  0  0  0  0  0  0  0  0  0
  139.5290   73.5030  223.2480 H   0  0  0  0  0  0  0  0  0  0  0  0
  140.3194   73.2258  220.3004 H   0  0  0  0  0  0  0  0  0  0  0  0
  138.8694   74.1573  220.7719 H   0  0  0  0  0  0  0  0  0  0  0  0
  143.5301   74.4152  221.7837 H   0  0  0  0  0  0  0  0  0  0  0  0
  142.7677   73.3542  220.5851 H   0  0  0  0  0  0  0  0  0  0  0  0
  144.9342   75.4121  220.1757 H   0  0  0  0  0  0  0  0  0  0  0  0
  145.3910   74.2330  218.4950 H   0  0  0  0  0  0  0  0  0  0  0  0
  143.7880   76.3829  218.2148 H   0  0  0  0  0  0  0  0  0  0  0  0
  142.6082   75.1323  218.1067 H   0  0  0  0  0  0  0  0  0  0  0  0
  142.9408   77.1800  220.5235 H   0  0  0  0  0  0  0  0  0  0  0  0
  141.5126   77.4188  218.2410 H   0  0  0  0  0  0  0  0  0  0  0  0
  140.3401   76.8363  219.4343 H   0  0  0  0  0  0  0  0  0  0  0  0
  142.3979   79.1103  219.8328 H   0  0  0  0  0  0  0  0  0  0  0  0
  140.6150   79.3030  219.6758 H   0  0  0  0  0  0  0  0  0  0  0  0
  139.6441   80.1343  222.5722 H   0  0  0  0  0  0  0  0  0  0  0  0
  140.2769   81.8930  224.2361 H   0  0  0  0  0  0  0  0  0  0  0  0
  142.6753   82.1297  224.9164 H   0  0  0  0  0  0  0  0  0  0  0  0
  144.3817   80.6352  223.9434 H   0  0  0  0  0  0  0  0  0  0  0  0
  143.7686   78.8803  222.2889 H   0  0  0  0  0  0  0  0  0  0  0  0
  139.1112   69.2069  222.7213 H   0  0  0  0  0  0  0  0  0  0  0  0
  138.9551   67.9801  224.8702 H   0  0  0  0  0  0  0  0  0  0  0  0
  139.3215   67.8915  227.2639 H   0  0  0  0  0  0  0  0  0  0  0  0
  140.1222   68.9631  229.3431 H   0  0  0  0  0  0  0  0  0  0  0  0
  141.0641   71.2464  229.2314 H   0  0  0  0  0  0  0  0  0  0  0  0
  141.2226   72.4764  227.1172 H   0  0  0  0  0  0  0  0  0  0  0  0
  1  2  2  0
  2  3  1  0
  3  4  1  0
  4  5  1  0
  5  6  2  0
  5  7  1  0
  7  8  1  0
  8  9  1  0
  9 10  1  0
  9 11  1  0
 11 12  1  0
 12 13  1  0
 13 14  1  0
 14 15  1  0
 15 16  1  0
 16 17  2  0
 17 18  1  0
 18 19  2  0
 19 20  1  0
 20 21  2  0
  2 22  1  0
 22 23  2  0
 23 24  1  0
 24 25  2  0
 25 26  1  0
 26 27  2  0
 27 28  1  0
 28 29  2  0
 29 30  1  0
 30 31  2  0
 12  7  1  0
 21 16  1  0
 31 22  1  0
 30 25  1  0
  3 32  1  0
  4 33  1  0
  4 34  1  0
  8 35  1  0
  8 36  1  0
  9 37  1  1
 10 38  1  0
 11 39  1  0
 11 40  1  0
 12 41  1  1
 13 42  1  0
 13 43  1  0
 14 44  1  0
 14 45  1  0
 17 46  1  0
 18 47  1  0
 19 48  1  0
 20 49  1  0
 21 50  1  0
 23 51  1  0
 24 52  1  0
 26 53  1  0
 27 54  1  0
 28 55  1  0
 29 56  1  0
M  END
>  <meeko>  (11) 
{"free_energy": -9.1, "intermolecular_energy": -11.78, "internal_energy": -1.51, "cluster_size": 8, "cluster_id": 1, "rank_in_cluster": 3}

$$$$

     RDKit          3D

 56 59  0  0  0  0  0  0  0  0999 V2000
  139.3760   70.9280  221.6330 O   0  0  0  0  0  0  0  0  0  0  0  0
  138.8750   71.4120  222.6960 C   0  0  0  0  0  0  0  0  0  0  0  0
  137.7640   72.3130  222.6660 N   0  0  0  0  0  0  0  0  0  0  0  0
  137.1570   72.7160  221.3950 C   0  0  0  0  0  0  0  0  0  0  0  0
  137.6690   74.0430  221.0440 C   0  0  0  0  0  0  0  0  0  0  0  0
  136.9920   74.7200  220.2040 O   0  0  0  0  0  0  0  0  0  0  0  0
  138.8370   74.6520  221.5420 N   0  0  0  0  0  0  0  0  0  0  0  0
  140.1750   74.1770  221.1400 C   0  0  0  0  0  0  0  0  0  0  0  0
  141.1520   75.2380  221.5880 C   0  0  1  0  0  0  0  0  0  0  0  0
  142.1610   75.4540  220.6610 O   0  0  0  0  0  0  0  0  0  0  0  0
  140.2400   76.4380  221.7370 C   0  0  0  0  0  0  0  0  0  0  0  0
  139.0640   75.7480  222.4460 C   0  0  1  0  0  0  0  0  0  0  0  0
  137.9210   76.6790  222.6440 C   0  0  0  0  0  0  0  0  0  0  0  0
  138.4480   78.0820  222.2880 C   0  0  0  0  0  0  0  0  0  0  0  0
  139.0230   78.6860  223.4290 O   0  0  0  0  0  0  0  0  0  0  0  0
  140.1800   79.4520  223.3610 C   0  0  0  0  0  0  0  0  0  0  0  0
  141.3910   78.8030  223.4990 C   0  0  0  0  0  0  0  0  0  0  0  0
  142.5750   79.5330  223.4370 C   0  0  0  0  0  0  0  0  0  0  0  0
  142.5130   80.9120  223.2360 C   0  0  0  0  0  0  0  0  0  0  0  0
  141.2850   81.5290  223.1020 C   0  0  0  0  0  0  0  0  0  0  0  0
  140.0970   80.8210  223.1600 C   0  0  0  0  0  0  0  0  0  0  0  0
  139.4570   71.0320  224.0020 C   0  0  0  0  0  0  0  0  0  0  0  0
  140.3430   71.8880  224.6220 C   0  0  0  0  0  0  0  0  0  0  0  0
  140.8820   71.5280  225.8400 C   0  0  0  0  0  0  0  0  0  0  0  0
  140.5440   70.3250  226.4410 C   0  0  0  0  0  0  0  0  0  0  0  0
  141.0740   69.9550  227.6550 C   0  0  0  0  0  0  0  0  0  0  0  0
  140.7300   68.7680  228.2310 C   0  0  0  0  0  0  0  0  0  0  0  0
  139.8370   67.9510  227.5640 C   0  0  0  0  0  0  0  0  0  0  0  0
  139.2910   68.2830  226.3600 C   0  0  0  0  0  0  0  0  0  0  0  0
  139.6450   69.4880  225.7830 C   0  0  0  0  0  0  0  0  0  0  0  0
  139.1470   69.8720  224.6070 N   0  0  0  0  0  0  0  0  0  0  0  0
  137.4280   72.6510  223.5880 H   0  0  0  0  0  0  0  0  0  0  0  0
  137.4240   71.9940  220.6093 H   0  0  0  0  0  0  0  0  0  0  0  0
  136.0614   72.7440  221.4890 H   0  0  0  0  0  0  0  0  0  0  0  0
  140.4022   73.2185  221.6296 H   0  0  0  0  0  0  0  0  0  0  0  0
  140.2321   74.0131  220.0538 H   0  0  0  0  0  0  0  0  0  0  0  0
  141.7033   74.9785  222.5038 H   0  0  0  0  0  0  0  0  0  0  0  0
  142.7560   76.1560  221.0700 H   0  0  0  0  0  0  0  0  0  0  0  0
  140.6917   77.2268  222.3566 H   0  0  0  0  0  0  0  0  0  0  0  0
  139.9908   76.9658  220.8046 H   0  0  0  0  0  0  0  0  0  0  0  0
  139.2377   75.4101  223.4783 H   0  0  0  0  0  0  0  0  0  0  0  0
  137.0862   76.4052  221.9821 H   0  0  0  0  0  0  0  0  0  0  0  0
  137.5450   76.6405  223.6770 H   0  0  0  0  0  0  0  0  0  0  0  0
  139.2093   77.9958  221.4987 H   0  0  0  0  0  0  0  0  0  0  0  0
  137.6119   78.7026  221.9334 H   0  0  0  0  0  0  0  0  0  0  0  0
  141.4201   77.7148  223.6571 H   0  0  0  0  0  0  0  0  0  0  0  0
  143.5467   79.0289  223.5451 H   0  0  0  0  0  0  0  0  0  0  0  0
  143.4380   81.5051  223.1845 H   0  0  0  0  0  0  0  0  0  0  0  0
  141.2497   82.6171  222.9443 H   0  0  0  0  0  0  0  0  0  0  0  0
  139.1253   81.3249  223.0509 H   0  0  0  0  0  0  0  0  0  0  0  0
  140.6161   72.8443  224.1520 H   0  0  0  0  0  0  0  0  0  0  0  0
  141.5897   72.2047  226.3412 H   0  0  0  0  0  0  0  0  0  0  0  0
  141.7824   70.6233  228.1663 H   0  0  0  0  0  0  0  0  0  0  0  0
  141.1523   68.4684  229.2015 H   0  0  0  0  0  0  0  0  0  0  0  0
  139.5550   66.9925  228.0241 H   0  0  0  0  0  0  0  0  0  0  0  0
  138.5837   67.6063  225.8583 H   0  0  0  0  0  0  0  0  0  0  0  0
  1  2  2  0
  2  3  1  0
  3  4  1  0
  4  5  1  0
  5  6  2  0
  5  7  1  0
  7  8  1  0
  8  9  1  0
  9 10  1  0
  9 11  1  0
 11 12  1  0
 12 13  1  0
 13 14  1  0
 14 15  1  0
 15 16  1  0
 16 17  2  0
 17 18  1  0
 18 19  2  0
 19 20  1  0
 20 21  2  0
  2 22  1  0
 22 23  2  0
 23 24  1  0
 24 25  2  0
 25 26  1  0
 26 27  2  0
 27 28  1  0
 28 29  2  0
 29 30  1  0
 30 31  2  0
 12  7  1  0
 21 16  1  0
 31 22  1  0
 30 25  1  0
  3 32  1  0
  4 33  1  0
  4 34  1  0
  8 35  1  0
  8 36  1  0
  9 37  1  1
 10 38  1  0
 11 39  1  0
 11 40  1  0
 12 41  1  1
 13 42  1  0
 13 43  1  0
 14 44  1  0
 14 45  1  0
 17 46  1  0
 18 47  1  0
 19 48  1  0
 20 49  1  0
 21 50  1  0
 23 51  1  0
 24 52  1  0
 26 53  1  0
 27 54  1  0
 28 55  1  0
 29 56  1  0
M  END
>  <meeko>  (12) 
{"free_energy": -8.38, "intermolecular_energy": -11.07, "internal_energy": -1.58, "cluster_size": 3, "cluster_id": 3, "rank_in_cluster": 2}

$$$$

     RDKit          3D

 56 59  0  0  0  0  0  0  0  0999 V2000
  143.3360   77.2250  217.5480 O   0  0  0  0  0  0  0  0  0  0  0  0
  142.3420   77.1720  218.3370 C   0  0  0  0  0  0  0  0  0  0  0  0
  141.3870   76.1070  218.2800 N   0  0  0  0  0  0  0  0  0  0  0  0
  141.5230   75.0280  217.2990 C   0  0  0  0  0  0  0  0  0  0  0  0
  141.7550   73.7760  218.0260 C   0  0  0  0  0  0  0  0  0  0  0  0
  140.9170   72.8360  217.8390 O   0  0  0  0  0  0  0  0  0  0  0  0
  142.8140   73.5030  218.9120 N   0  0  0  0  0  0  0  0  0  0  0  0
  144.0140   72.7700  218.4650 C   0  0  0  0  0  0  0  0  0  0  0  0
  145.0470   72.9470  219.5520 C   0  0  1  0  0  0  0  0  0  0  0  0
  146.3230   73.1380  219.0440 O   0  0  0  0  0  0  0  0  0  0  0  0
  144.5220   74.1760  220.2640 C   0  0  0  0  0  0  0  0  0  0  0  0
  143.0310   73.8010  220.3030 C   0  0  1  0  0  0  0  0  0  0  0  0
  142.2050   74.8990  220.8730 C   0  0  0  0  0  0  0  0  0  0  0  0
  140.8360   74.2760  221.2010 C   0  0  0  0  0  0  0  0  0  0  0  0
  139.8090   74.9880  220.5390 O   0  0  0  0  0  0  0  0  0  0  0  0
  139.3030   76.1860  221.0260 C   0  0  0  0  0  0  0  0  0  0  0  0
  138.9450   77.1540  220.1080 C   0  0  0  0  0  0  0  0  0  0  0  0
  138.4330   78.3690  220.5550 C   0  0  0  0  0  0  0  0  0  0  0  0
  138.2910   78.5850  221.9250 C   0  0  0  0  0  0  0  0  0  0  0  0
  138.6580   77.5940  222.8150 C   0  0  0  0  0  0  0  0  0  0  0  0
  139.1690   76.3800  222.3920 C   0  0  0  0  0  0  0  0  0  0  0  0
  142.1660   78.2420  219.3440 C   0  0  0  0  0  0  0  0  0  0  0  0
  142.0970   79.5550  218.9300 C   0  0  0  0  0  0  0  0  0  0  0  0
  141.9320   80.5470  219.8740 C   0  0  0  0  0  0  0  0  0  0  0  0
  141.8360   80.2400  221.2220 C   0  0  0  0  0  0  0  0  0  0  0  0
  141.6710   81.2200  222.1730 C   0  0  0  0  0  0  0  0  0  0  0  0
  141.5780   80.8980  223.4950 C   0  0  0  0  0  0  0  0  0  0  0  0
  141.6530   79.5650  223.8500 C   0  0  0  0  0  0  0  0  0  0  0  0
  141.8150   78.5660  222.9380 C   0  0  0  0  0  0  0  0  0  0  0  0
  141.9090   78.9010  221.6000 C   0  0  0  0  0  0  0  0  0  0  0  0
  142.0690   77.9710  220.6570 N   0  0  0  0  0  0  0  0  0  0  0  0
  140.6120   76.1540  218.9690 H   0  0  0  0  0  0  0  0  0  0  0  0
  140.6017   74.9477  216.7033 H   0  0  0  0  0  0  0  0  0  0  0  0
  142.3632   75.2349  216.6199 H   0  0  0  0  0  0  0  0  0  0  0  0
  143.7810   71.7034  218.3308 H   0  0  0  0  0  0  0  0  0  0  0  0
  144.3793   73.1510  217.4999 H   0  0  0  0  0  0  0  0  0  0  0  0
  145.1638   72.0679  220.2028 H   0  0  0  0  0  0  0  0  0  0  0  0
  146.3950   74.1250  218.8590 H   0  0  0  0  0  0  0  0  0  0  0  0
  144.9482   74.2840  221.2723 H   0  0  0  0  0  0  0  0  0  0  0  0
  144.7589   75.1395  219.7891 H   0  0  0  0  0  0  0  0  0  0  0  0
  142.7470   72.9654  220.9595 H   0  0  0  0  0  0  0  0  0  0  0  0
  142.6733   75.2945  221.7864 H   0  0  0  0  0  0  0  0  0  0  0  0
  142.1069   75.7367  220.1669 H   0  0  0  0  0  0  0  0  0  0  0  0
  140.8242   73.2273  220.8693 H   0  0  0  0  0  0  0  0  0  0  0  0
  140.6676   74.3260  222.2869 H   0  0  0  0  0  0  0  0  0  0  0  0
  139.0637   76.9661  219.0307 H   0  0  0  0  0  0  0  0  0  0  0  0
  138.1439   79.1494  219.8357 H   0  0  0  0  0  0  0  0  0  0  0  0
  137.8888   79.5395  222.2954 H   0  0  0  0  0  0  0  0  0  0  0  0
  138.5402   77.7759  223.8934 H   0  0  0  0  0  0  0  0  0  0  0  0
  139.4576   75.5994  223.1113 H   0  0  0  0  0  0  0  0  0  0  0  0
  142.1724   79.8080  217.8621 H   0  0  0  0  0  0  0  0  0  0  0  0
  141.8758   81.5974  219.5521 H   0  0  0  0  0  0  0  0  0  0  0  0
  141.6135   82.2742  221.8641 H   0  0  0  0  0  0  0  0  0  0  0  0
  141.4467   81.6790  224.2584 H   0  0  0  0  0  0  0  0  0  0  0  0
  141.5787   79.2988  224.9147 H   0  0  0  0  0  0  0  0  0  0  0  0
  141.8698   77.5154  223.2593 H   0  0  0  0  0  0  0  0  0  0  0  0
  1  2  2  0
  2  3  1  0
  3  4  1  0
  4  5  1  0
  5  6  2  0
  5  7  1  0
  7  8  1  0
  8  9  1  0
  9 10  1  0
  9 11  1  0
 11 12  1  0
 12 13  1  0
 13 14  1  0
 14 15  1  0
 15 16  1  0
 16 17  2  0
 17 18  1  0
 18 19  2  0
 19 20  1  0
 20 21  2  0
  2 22  1  0
 22 23  2  0
 23 24  1  0
 24 25  2  0
 25 26  1  0
 26 27  2  0
 27 28  1  0
 28 29  2  0
 29 30  1  0
 30 31  2  0
 12  7  1  0
 21 16  1  0
 31 22  1  0
 30 25  1  0
  3 32  1  0
  4 33  1  0
  4 34  1  0
  8 35  1  0
  8 36  1  0
  9 37  1  1
 10 38  1  0
 11 39  1  0
 11 40  1  0
 12 41  1  1
 13 42  1  0
 13 43  1  0
 14 44  1  0
 14 45  1  0
 17 46  1  0
 18 47  1  0
 19 48  1  0
 20 49  1  0
 21 50  1  0
 23 51  1  0
 24 52  1  0
 26 53  1  0
 27 54  1  0
 28 55  1  0
 29 56  1  0
M  END
>  <meeko>  (13) 
{"free_energy": -5.78, "intermolecular_energy": -8.46, "internal_energy": -3.89, "cluster_size": 5, "cluster_id": 6, "rank_in_cluster": 5}

$$$$

     RDKit          3D

 56 59  0  0  0  0  0  0  0  0999 V2000
  140.8640   71.1110  221.3870 O   0  0  0  0  0  0  0  0  0  0  0  0
  140.3570   71.7290  222.3740 C   0  0  0  0  0  0  0  0  0  0  0  0
  139.9800   73.1070  222.2910 N   0  0  0  0  0  0  0  0  0  0  0  0
  140.1670   73.8630  221.0500 C   0  0  0  0  0  0  0  0  0  0  0  0
  140.5400   75.2360  221.4020 C   0  0  0  0  0  0  0  0  0  0  0  0
  139.9790   75.7430  222.4260 O   0  0  0  0  0  0  0  0  0  0  0  0
  141.4620   76.0560  220.7230 N   0  0  0  0  0  0  0  0  0  0  0  0
  142.5850   75.4750  219.9620 C   0  0  0  0  0  0  0  0  0  0  0  0
  143.1500   76.5940  219.1210 C   0  0  1  0  0  0  0  0  0  0  0  0
  143.5120   76.1710  217.8510 O   0  0  0  0  0  0  0  0  0  0  0  0
  141.9850   77.5620  219.0940 C   0  0  0  0  0  0  0  0  0  0  0  0
  141.5830   77.4820  220.5760 C   0  0  1  0  0  0  0  0  0  0  0  0
  140.3560   78.2750  220.8540 C   0  0  0  0  0  0  0  0  0  0  0  0
  140.4270   79.5070  219.9330 C   0  0  0  0  0  0  0  0  0  0  0  0
  140.5930   80.6800  220.7050 O   0  0  0  0  0  0  0  0  0  0  0  0
  141.3500   80.7020  221.8690 C   0  0  0  0  0  0  0  0  0  0  0  0
  140.7780   81.2490  223.0000 C   0  0  0  0  0  0  0  0  0  0  0  0
  141.5020   81.2900  224.1880 C   0  0  0  0  0  0  0  0  0  0  0  0
  142.7990   80.7750  224.2120 C   0  0  0  0  0  0  0  0  0  0  0  0
  143.3410   80.2350  223.0620 C   0  0  0  0  0  0  0  0  0  0  0  0
  142.6370   80.1840  221.8720 C   0  0  0  0  0  0  0  0  0  0  0  0
  140.1510   71.0040  223.6470 C   0  0  0  0  0  0  0  0  0  0  0  0
  139.5040   69.7860  223.6350 C   0  0  0  0  0  0  0  0  0  0  0  0
  139.3150   69.1150  224.8250 C   0  0  0  0  0  0  0  0  0  0  0  0
  139.7660   69.6480  226.0230 C   0  0  0  0  0  0  0  0  0  0  0  0
  139.5850   68.9900  227.2160 C   0  0  0  0  0  0  0  0  0  0  0  0
  140.0350   69.5290  228.3840 C   0  0  0  0  0  0  0  0  0  0  0  0
  140.6770   70.7520  228.3350 C   0  0  0  0  0  0  0  0  0  0  0  0
  140.8760   71.4350  227.1730 C   0  0  0  0  0  0  0  0  0  0  0  0
  140.4160   70.8800  225.9930 C   0  0  0  0  0  0  0  0  0  0  0  0
  140.5790   71.4980  224.8220 N   0  0  0  0  0  0  0  0  0  0  0  0
  139.5740   73.5200  223.1510 H   0  0  0  0  0  0  0  0  0  0  0  0
  140.9657   73.4023  220.4501 H   0  0  0  0  0  0  0  0  0  0  0  0
  139.2385   73.8608  220.4602 H   0  0  0  0  0  0  0  0  0  0  0  0
  143.3526   75.0903  220.6496 H   0  0  0  0  0  0  0  0  0  0  0  0
  142.2517   74.6337  219.3367 H   0  0  0  0  0  0  0  0  0  0  0  0
  144.0812   77.0240  219.5185 H   0  0  0  0  0  0  0  0  0  0  0  0
  144.5000   75.9830  217.9010 H   0  0  0  0  0  0  0  0  0  0  0  0
  142.2963   78.5763  218.8038 H   0  0  0  0  0  0  0  0  0  0  0  0
  141.1890   77.3293  218.3713 H   0  0  0  0  0  0  0  0  0  0  0  0
  142.2818   77.9200  221.3039 H   0  0  0  0  0  0  0  0  0  0  0  0
  139.4581   77.6809  220.6286 H   0  0  0  0  0  0  0  0  0  0  0  0
  140.2973   78.5672  221.9128 H   0  0  0  0  0  0  0  0  0  0  0  0
  141.2794   79.3995  219.2461 H   0  0  0  0  0  0  0  0  0  0  0  0
  139.4918   79.5825  219.3587 H   0  0  0  0  0  0  0  0  0  0  0  0
  139.7546   81.6507  222.9625 H   0  0  0  0  0  0  0  0  0  0  0  0
  141.0576   81.7228  225.0964 H   0  0  0  0  0  0  0  0  0  0  0  0
  143.3864   80.7990  225.1417 H   0  0  0  0  0  0  0  0  0  0  0  0
  144.3644   79.8329  223.0932 H   0  0  0  0  0  0  0  0  0  0  0  0
  143.0804   79.7497  220.9638 H   0  0  0  0  0  0  0  0  0  0  0  0
  139.1436   69.3556  222.6890 H   0  0  0  0  0  0  0  0  0  0  0  0
  138.7993   68.1434  224.8237 H   0  0  0  0  0  0  0  0  0  0  0  0
  139.0712   68.0175  227.2282 H   0  0  0  0  0  0  0  0  0  0  0  0
  139.8911   69.0047  229.3402 H   0  0  0  0  0  0  0  0  0  0  0  0
  141.0429   71.1927  229.2741 H   0  0  0  0  0  0  0  0  0  0  0  0
  141.3914   72.4068  227.1735 H   0  0  0  0  0  0  0  0  0  0  0  0
  1  2  2  0
  2  3  1  0
  3  4  1  0
  4  5  1  0
  5  6  2  0
  5  7  1  0
  7  8  1  0
  8  9  1  0
  9 10  1  0
  9 11  1  0
 11 12  1  0
 12 13  1  0
 13 14  1  0
 14 15  1  0
 15 16  1  0
 16 17  2  0
 17 18  1  0
 18 19  2  0
 19 20  1  0
 20 21  2  0
  2 22  1  0
 22 23  2  0
 23 24  1  0
 24 25  2  0
 25 26  1  0
 26 27  2  0
 27 28  1  0
 28 29  2  0
 29 30  1  0
 30 31  2  0
 12  7  1  0
 21 16  1  0
 31 22  1  0
 30 25  1  0
  3 32  1  0
  4 33  1  0
  4 34  1  0
  8 35  1  0
  8 36  1  0
  9 37  1  1
 10 38  1  0
 11 39  1  0
 11 40  1  0
 12 41  1  1
 13 42  1  0
 13 43  1  0
 14 44  1  0
 14 45  1  0
 17 46  1  0
 18 47  1  0
 19 48  1  0
 20 49  1  0
 21 50  1  0
 23 51  1  0
 24 52  1  0
 26 53  1  0
 27 54  1  0
 28 55  1  0
 29 56  1  0
M  END
>  <meeko>  (14) 
{"free_energy": -8.78, "intermolecular_energy": -11.46, "internal_energy": -1.7, "cluster_size": 8, "cluster_id": 1, "rank_in_cluster": 7}

$$$$

     RDKit          3D

 56 59  0  0  0  0  0  0  0  0999 V2000
  141.0710   71.7760  221.4990 O   0  0  0  0  0  0  0  0  0  0  0  0
  140.3130   72.2350  222.4100 C   0  0  0  0  0  0  0  0  0  0  0  0
  139.6080   73.4710  222.2570 N   0  0  0  0  0  0  0  0  0  0  0  0
  139.7360   74.2610  221.0290 C   0  0  0  0  0  0  0  0  0  0  0  0
  138.4000   74.7230  220.6420 C   0  0  0  0  0  0  0  0  0  0  0  0
  138.1440   74.7720  219.3960 O   0  0  0  0  0  0  0  0  0  0  0  0
  137.3650   75.1210  221.5100 N   0  0  0  0  0  0  0  0  0  0  0  0
  136.6180   74.1310  222.3110 C   0  0  0  0  0  0  0  0  0  0  0  0
  135.8390   74.9190  223.3370 C   0  0  1  0  0  0  0  0  0  0  0  0
  135.8210   74.3000  224.5780 O   0  0  0  0  0  0  0  0  0  0  0  0
  136.6070   76.2240  223.3560 C   0  0  0  0  0  0  0  0  0  0  0  0
  136.7980   76.4020  221.8410 C   0  0  1  0  0  0  0  0  0  0  0  0
  137.6410   77.5880  221.5310 C   0  0  0  0  0  0  0  0  0  0  0  0
  138.3910   77.9290  222.8330 C   0  0  0  0  0  0  0  0  0  0  0  0
  139.7620   77.6140  222.6980 O   0  0  0  0  0  0  0  0  0  0  0  0
  140.7530   78.5870  222.7140 C   0  0  0  0  0  0  0  0  0  0  0  0
  141.1650   79.1080  221.5040 C   0  0  0  0  0  0  0  0  0  0  0  0
  142.1560   80.0850  221.4760 C   0  0  0  0  0  0  0  0  0  0  0  0
  142.7160   80.5210  222.6780 C   0  0  0  0  0  0  0  0  0  0  0  0
  142.2800   79.9780  223.8710 C   0  0  0  0  0  0  0  0  0  0  0  0
  141.2960   79.0060  223.9200 C   0  0  0  0  0  0  0  0  0  0  0  0
  140.1550   71.4690  223.6670 C   0  0  0  0  0  0  0  0  0  0  0  0
  139.4660   70.2760  223.6490 C   0  0  0  0  0  0  0  0  0  0  0  0
  139.3230   69.5670  224.8240 C   0  0  0  0  0  0  0  0  0  0  0  0
  139.8610   70.0390  226.0110 C   0  0  0  0  0  0  0  0  0  0  0  0
  139.7250   69.3420  227.1890 C   0  0  0  0  0  0  0  0  0  0  0  0
  140.2610   69.8220  228.3470 C   0  0  0  0  0  0  0  0  0  0  0  0
  140.9420   71.0240  228.3030 C   0  0  0  0  0  0  0  0  0  0  0  0
  141.0980   71.7430  227.1570 C   0  0  0  0  0  0  0  0  0  0  0  0
  140.5510   71.2490  225.9870 C   0  0  0  0  0  0  0  0  0  0  0  0
  140.6670   71.9040  224.8310 N   0  0  0  0  0  0  0  0  0  0  0  0
  139.0140   73.7580  223.0570 H   0  0  0  0  0  0  0  0  0  0  0  0
  140.3917   75.1257  221.2089 H   0  0  0  0  0  0  0  0  0  0  0  0
  140.1743   73.6491  220.2268 H   0  0  0  0  0  0  0  0  0  0  0  0
  135.9322   73.5598  221.6680 H   0  0  0  0  0  0  0  0  0  0  0  0
  137.2964   73.4100  222.7905 H   0  0  0  0  0  0  0  0  0  0  0  0
  134.7716   75.0314  223.0961 H   0  0  0  0  0  0  0  0  0  0  0  0
  136.5670   73.6240  224.5520 H   0  0  0  0  0  0  0  0  0  0  0  0
  136.0207   77.0429  223.7983 H   0  0  0  0  0  0  0  0  0  0  0  0
  137.5290   76.2255  223.9559 H   0  0  0  0  0  0  0  0  0  0  0  0
  135.8969   76.6267  221.2515 H   0  0  0  0  0  0  0  0  0  0  0  0
  138.3558   77.3497  220.7295 H   0  0  0  0  0  0  0  0  0  0  0  0
  137.0316   78.4354  221.1837 H   0  0  0  0  0  0  0  0  0  0  0  0
  138.2832   79.0030  223.0448 H   0  0  0  0  0  0  0  0  0  0  0  0
  137.9652   77.3410  223.6594 H   0  0  0  0  0  0  0  0  0  0  0  0
  140.7124   78.7528  220.5665 H   0  0  0  0  0  0  0  0  0  0  0  0
  142.4937   80.5083  220.5185 H   0  0  0  0  0  0  0  0  0  0  0  0
  143.5000   81.2926  222.6752 H   0  0  0  0  0  0  0  0  0  0  0  0
  142.7291   80.3292  224.8117 H   0  0  0  0  0  0  0  0  0  0  0  0
  140.9578   78.5824  224.8772 H   0  0  0  0  0  0  0  0  0  0  0  0
  139.0361   69.8942  222.7112 H   0  0  0  0  0  0  0  0  0  0  0  0
  138.7743   68.6137  224.8187 H   0  0  0  0  0  0  0  0  0  0  0  0
  139.1782   68.3876  227.1968 H   0  0  0  0  0  0  0  0  0  0  0  0
  140.1544   69.2676  229.2910 H   0  0  0  0  0  0  0  0  0  0  0  0
  141.3768   71.4168  229.2339 H   0  0  0  0  0  0  0  0  0  0  0  0
  141.6472   72.6960  227.1619 H   0  0  0  0  0  0  0  0  0  0  0  0
  1  2  2  0
  2  3  1  0
  3  4  1  0
  4  5  1  0
  5  6  2  0
  5  7  1  0
  7  8  1  0
  8  9  1  0
  9 10  1  0
  9 11  1  0
 11 12  1  0
 12 13  1  0
 13 14  1  0
 14 15  1  0
 15 16  1  0
 16 17  2  0
 17 18  1  0
 18 19  2  0
 19 20  1  0
 20 21  2  0
  2 22  1  0
 22 23  2  0
 23 24  1  0
 24 25  2  0
 25 26  1  0
 26 27  2  0
 27 28  1  0
 28 29  2  0
 29 30  1  0
 30 31  2  0
 12  7  1  0
 21 16  1  0
 31 22  1  0
 30 25  1  0
  3 32  1  0
  4 33  1  0
  4 34  1  0
  8 35  1  0
  8 36  1  0
  9 37  1  6
 10 38  1  0
 11 39  1  0
 11 40  1  0
 12 41  1  6
 13 42  1  0
 13 43  1  0
 14 44  1  0
 14 45  1  0
 17 46  1  0
 18 47  1  0
 19 48  1  0
 20 49  1  0
 21 50  1  0
 23 51  1  0
 24 52  1  0
 26 53  1  0
 27 54  1  0
 28 55  1  0
 29 56  1  0
M  END
>  <meeko>  (15) 
{"free_energy": -8.32, "intermolecular_energy": -11.0, "internal_energy": -1.44, "cluster_size": 3, "cluster_id": 3, "rank_in_cluster": 3}

$$$$

     RDKit          3D

 56 59  0  0  0  0  0  0  0  0999 V2000
  140.0550   73.4730  222.5080 O   0  0  0  0  0  0  0  0  0  0  0  0
  140.1540   72.2080  222.4480 C   0  0  0  0  0  0  0  0  0  0  0  0
  140.3240   71.5210  221.2050 N   0  0  0  0  0  0  0  0  0  0  0  0
  140.3910   72.2600  219.9410 C   0  0  0  0  0  0  0  0  0  0  0  0
  141.7780   72.2350  219.4700 C   0  0  0  0  0  0  0  0  0  0  0  0
  142.0440   71.4600  218.4950 O   0  0  0  0  0  0  0  0  0  0  0  0
  142.8540   72.9840  219.9850 N   0  0  0  0  0  0  0  0  0  0  0  0
  144.2020   72.3970  220.1070 C   0  0  0  0  0  0  0  0  0  0  0  0
  145.1420   73.5490  220.3730 C   0  0  1  0  0  0  0  0  0  0  0  0
  146.3460   73.4160  219.6980 O   0  0  0  0  0  0  0  0  0  0  0  0
  144.3260   74.7200  219.8680 C   0  0  0  0  0  0  0  0  0  0  0  0
  142.9660   74.3330  220.4720 C   0  0  1  0  0  0  0  0  0  0  0  0
  141.8930   75.2720  220.0500 C   0  0  0  0  0  0  0  0  0  0  0  0
  142.5250   76.6760  220.0640 C   0  0  0  0  0  0  0  0  0  0  0  0
  141.5580   77.6380  220.4380 O   0  0  0  0  0  0  0  0  0  0  0  0
  141.7020   78.4370  221.5650 C   0  0  0  0  0  0  0  0  0  0  0  0
  142.1550   79.7290  221.3860 C   0  0  0  0  0  0  0  0  0  0  0  0
  142.3120   80.5620  222.4890 C   0  0  0  0  0  0  0  0  0  0  0  0
  142.0090   80.0730  223.7600 C   0  0  0  0  0  0  0  0  0  0  0  0
  141.5580   78.7760  223.9030 C   0  0  0  0  0  0  0  0  0  0  0  0
  141.3940   77.9310  222.8190 C   0  0  0  0  0  0  0  0  0  0  0  0
  140.0910   71.4220  223.7010 C   0  0  0  0  0  0  0  0  0  0  0  0
  139.4990   70.1780  223.6890 C   0  0  0  0  0  0  0  0  0  0  0  0
  139.4430   69.4500  224.8590 C   0  0  0  0  0  0  0  0  0  0  0  0
  139.9740   69.9530  226.0370 C   0  0  0  0  0  0  0  0  0  0  0  0
  139.9270   69.2380  227.2100 C   0  0  0  0  0  0  0  0  0  0  0  0
  140.4550   69.7500  228.3580 C   0  0  0  0  0  0  0  0  0  0  0  0
  141.0370   71.0020  228.3100 C   0  0  0  0  0  0  0  0  0  0  0  0
  141.1040   71.7410  227.1670 C   0  0  0  0  0  0  0  0  0  0  0  0
  140.5660   71.2150  226.0070 C   0  0  0  0  0  0  0  0  0  0  0  0
  140.5990   71.8870  224.8550 N   0  0  0  0  0  0  0  0  0  0  0  0
  140.3960   70.4880  221.2620 H   0  0  0  0  0  0  0  0  0  0  0  0
  139.7361   71.7843  219.1962 H   0  0  0  0  0  0  0  0  0  0  0  0
  140.0584   73.2980  220.0892 H   0  0  0  0  0  0  0  0  0  0  0  0
  144.2316   71.6805  220.9411 H   0  0  0  0  0  0  0  0  0  0  0  0
  144.4852   71.8516  219.1947 H   0  0  0  0  0  0  0  0  0  0  0  0
  145.4513   73.6389  221.4248 H   0  0  0  0  0  0  0  0  0  0  0  0
  146.5670   74.3360  219.3560 H   0  0  0  0  0  0  0  0  0  0  0  0
  144.6942   75.6801  220.2588 H   0  0  0  0  0  0  0  0  0  0  0  0
  144.3369   74.8734  218.7788 H   0  0  0  0  0  0  0  0  0  0  0  0
  142.8743   74.3918  221.5666 H   0  0  0  0  0  0  0  0  0  0  0  0
  141.5424   75.0212  219.0380 H   0  0  0  0  0  0  0  0  0  0  0  0
  141.0230   75.2160  220.7208 H   0  0  0  0  0  0  0  0  0  0  0  0
  143.3553   76.6946  220.7853 H   0  0  0  0  0  0  0  0  0  0  0  0
  142.8999   76.9133  219.0574 H   0  0  0  0  0  0  0  0  0  0  0  0
  142.3905   80.0976  220.3767 H   0  0  0  0  0  0  0  0  0  0  0  0
  142.6707   81.5939  222.3606 H   0  0  0  0  0  0  0  0  0  0  0  0
  142.1288   80.7174  224.6434 H   0  0  0  0  0  0  0  0  0  0  0  0
  141.3215   78.4023  224.9102 H   0  0  0  0  0  0  0  0  0  0  0  0
  141.0338   76.8995  222.9470 H   0  0  0  0  0  0  0  0  0  0  0  0
  139.0766   69.7708  222.7585 H   0  0  0  0  0  0  0  0  0  0  0  0
  138.9706   68.4566  224.8576 H   0  0  0  0  0  0  0  0  0  0  0  0
  139.4587   68.2427  227.2226 H   0  0  0  0  0  0  0  0  0  0  0  0
  140.4185   69.1807  229.2985 H   0  0  0  0  0  0  0  0  0  0  0  0
  141.4644   71.4200  229.2334 H   0  0  0  0  0  0  0  0  0  0  0  0
  141.5760   72.7346  227.1672 H   0  0  0  0  0  0  0  0  0  0  0  0
  1  2  2  0
  2  3  1  0
  3  4  1  0
  4  5  1  0
  5  6  2  0
  5  7  1  0
  7  8  1  0
  8  9  1  0
  9 10  1  0
  9 11  1  0
 11 12  1  0
 12 13  1  0
 13 14  1  0
 14 15  1  0
 15 16  1  0
 16 17  2  0
 17 18  1  0
 18 19  2  0
 19 20  1  0
 20 21  2  0
  2 22  1  0
 22 23  2  0
 23 24  1  0
 24 25  2  0
 25 26  1  0
 26 27  2  0
 27 28  1  0
 28 29  2  0
 29 30  1  0
 30 31  2  0
 12  7  1  0
 21 16  1  0
 31 22  1  0
 30 25  1  0
  3 32  1  0
  4 33  1  0
  4 34  1  0
  8 35  1  0
  8 36  1  0
  9 37  1  1
 10 38  1  0
 11 39  1  0
 11 40  1  0
 12 41  1  1
 13 42  1  0
 13 43  1  0
 14 44  1  0
 14 45  1  0
 17 46  1  0
 18 47  1  0
 19 48  1  0
 20 49  1  0
 21 50  1  0
 23 51  1  0
 24 52  1  0
 26 53  1  0
 27 54  1  0
 28 55  1  0
 29 56  1  0
M  END
>  <meeko>  (16) 
{"free_energy": -9.43, "intermolecular_energy": -12.11, "internal_energy": -1.3, "cluster_size": 8, "cluster_id": 1, "rank_in_cluster": 1}

$$$$

     RDKit          3D

 56 59  0  0  0  0  0  0  0  0999 V2000
  140.6150   71.4040  221.2680 O   0  0  0  0  0  0  0  0  0  0  0  0
  140.2370   72.0390  222.3010 C   0  0  0  0  0  0  0  0  0  0  0  0
  139.8990   73.4280  222.2540 N   0  0  0  0  0  0  0  0  0  0  0  0
  139.9760   74.1780  220.9980 C   0  0  0  0  0  0  0  0  0  0  0  0
  140.6810   75.4360  221.2590 C   0  0  0  0  0  0  0  0  0  0  0  0
  140.5100   75.9690  222.4020 O   0  0  0  0  0  0  0  0  0  0  0  0
  141.5350   76.1200  220.3720 N   0  0  0  0  0  0  0  0  0  0  0  0
  142.7910   75.5080  219.8970 C   0  0  0  0  0  0  0  0  0  0  0  0
  143.2650   76.3570  218.7420 C   0  0  1  0  0  0  0  0  0  0  0  0
  143.7940   75.5980  217.7090 O   0  0  0  0  0  0  0  0  0  0  0  0
  141.9830   77.0580  218.3430 C   0  0  0  0  0  0  0  0  0  0  0  0
  141.4680   77.4140  219.7470 C   0  0  1  0  0  0  0  0  0  0  0  0
  140.1210   78.0440  219.6920 C   0  0  0  0  0  0  0  0  0  0  0  0
  140.3640   79.5650  219.6640 C   0  0  0  0  0  0  0  0  0  0  0  0
  140.0070   80.1350  220.9080 O   0  0  0  0  0  0  0  0  0  0  0  0
  140.8730   80.1520  221.9940 C   0  0  0  0  0  0  0  0  0  0  0  0
  140.9680   79.0070  222.7600 C   0  0  0  0  0  0  0  0  0  0  0  0
  141.8250   78.9820  223.8570 C   0  0  0  0  0  0  0  0  0  0  0  0
  142.5730   80.1190  224.1610 C   0  0  0  0  0  0  0  0  0  0  0  0
  142.4530   81.2470  223.3730 C   0  0  0  0  0  0  0  0  0  0  0  0
  141.6080   81.2920  222.2790 C   0  0  0  0  0  0  0  0  0  0  0  0
  140.1440   71.3200  223.5920 C   0  0  0  0  0  0  0  0  0  0  0  0
  139.5670   70.0690  223.6290 C   0  0  0  0  0  0  0  0  0  0  0  0
  139.4830   69.4050  224.8350 C   0  0  0  0  0  0  0  0  0  0  0  0
  139.9720   69.9780  226.0000 C   0  0  0  0  0  0  0  0  0  0  0  0
  139.8960   69.3260  227.2080 C   0  0  0  0  0  0  0  0  0  0  0  0
  140.3810   69.9050  228.3420 C   0  0  0  0  0  0  0  0  0  0  0  0
  140.9510   71.1610  228.2440 C   0  0  0  0  0  0  0  0  0  0  0  0
  141.0450   71.8380  227.0650 C   0  0  0  0  0  0  0  0  0  0  0  0
  140.5490   71.2430  225.9200 C   0  0  0  0  0  0  0  0  0  0  0  0
  140.6100   71.8530  224.7350 N   0  0  0  0  0  0  0  0  0  0  0  0
  139.6000   73.8540  223.1520 H   0  0  0  0  0  0  0  0  0  0  0  0
  140.5260   73.5917  220.2472 H   0  0  0  0  0  0  0  0  0  0  0  0
  138.9654   74.3811  220.6139 H   0  0  0  0  0  0  0  0  0  0  0  0
  143.5415   75.5055  220.7012 H   0  0  0  0  0  0  0  0  0  0  0  0
  142.6355   74.4637  219.5885 H   0  0  0  0  0  0  0  0  0  0  0  0
  144.0878   77.0403  218.9991 H   0  0  0  0  0  0  0  0  0  0  0  0
  144.7940   75.6690  217.8070 H   0  0  0  0  0  0  0  0  0  0  0  0
  142.1733   77.9531  217.7326 H   0  0  0  0  0  0  0  0  0  0  0  0
  141.2941   76.4717  217.7171 H   0  0  0  0  0  0  0  0  0  0  0  0
  142.0325   78.1770  220.3031 H   0  0  0  0  0  0  0  0  0  0  0  0
  139.5870   77.7256  218.7846 H   0  0  0  0  0  0  0  0  0  0  0  0
  139.5037   77.7506  220.5538 H   0  0  0  0  0  0  0  0  0  0  0  0
  141.4282   79.7602  219.4659 H   0  0  0  0  0  0  0  0  0  0  0  0
  139.7482   80.0144  218.8710 H   0  0  0  0  0  0  0  0  0  0  0  0
  140.3700   78.1197  222.5049 H   0  0  0  0  0  0  0  0  0  0  0  0
  141.9110   78.0768  224.4761 H   0  0  0  0  0  0  0  0  0  0  0  0
  143.2551   80.1175  225.0240 H   0  0  0  0  0  0  0  0  0  0  0  0
  143.0482   82.1375  223.6234 H   0  0  0  0  0  0  0  0  0  0  0  0
  141.5226   82.1969  221.6595 H   0  0  0  0  0  0  0  0  0  0  0  0
  139.1789   69.6065  222.7095 H   0  0  0  0  0  0  0  0  0  0  0  0
  139.0218   68.4071  224.8736 H   0  0  0  0  0  0  0  0  0  0  0  0
  139.4390   68.3267  227.2595 H   0  0  0  0  0  0  0  0  0  0  0  0
  140.3207   69.3867  229.3104 H   0  0  0  0  0  0  0  0  0  0  0  0
  141.3451   71.6335  229.1559 H   0  0  0  0  0  0  0  0  0  0  0  0
  141.5055   72.8362  227.0253 H   0  0  0  0  0  0  0  0  0  0  0  0
  1  2  2  0
  2  3  1  0
  3  4  1  0
  4  5  1  0
  5  6  2  0
  5  7  1  0
  7  8  1  0
  8  9  1  0
  9 10  1  0
  9 11  1  0
 11 12  1  0
 12 13  1  0
 13 14  1  0
 14 15  1  0
 15 16  1  0
 16 17  2  0
 17 18  1  0
 18 19  2  0
 19 20  1  0
 20 21  2  0
  2 22  1  0
 22 23  2  0
 23 24  1  0
 24 25  2  0
 25 26  1  0
 26 27  2  0
 27 28  1  0
 28 29  2  0
 29 30  1  0
 30 31  2  0
 12  7  1  0
 21 16  1  0
 31 22  1  0
 30 25  1  0
  3 32  1  0
  4 33  1  0
  4 34  1  0
  8 35  1  0
  8 36  1  0
  9 37  1  1
 10 38  1  0
 11 39  1  0
 11 40  1  0
 12 41  1  1
 13 42  1  0
 13 43  1  0
 14 44  1  0
 14 45  1  0
 17 46  1  0
 18 47  1  0
 19 48  1  0
 20 49  1  0
 21 50  1  0
 23 51  1  0
 24 52  1  0
 26 53  1  0
 27 54  1  0
 28 55  1  0
 29 56  1  0
M  END
>  <meeko>  (17) 
{"free_energy": -8.86, "intermolecular_energy": -11.55, "internal_energy": -1.87, "cluster_size": 8, "cluster_id": 1, "rank_in_cluster": 5}

$$$$

     RDKit          3D

 56 59  0  0  0  0  0  0  0  0999 V2000
  140.2880   73.4150  222.4320 O   0  0  0  0  0  0  0  0  0  0  0  0
  140.2550   72.1460  222.3940 C   0  0  0  0  0  0  0  0  0  0  0  0
  140.3010   71.4250  221.1590 N   0  0  0  0  0  0  0  0  0  0  0  0
  140.3880   72.1320  219.8780 C   0  0  0  0  0  0  0  0  0  0  0  0
  141.7850   72.1120  219.4390 C   0  0  0  0  0  0  0  0  0  0  0  0
  142.0880   71.2970  218.5080 O   0  0  0  0  0  0  0  0  0  0  0  0
  142.8350   72.9060  219.9400 N   0  0  0  0  0  0  0  0  0  0  0  0
  144.1970   72.3590  220.0970 C   0  0  0  0  0  0  0  0  0  0  0  0
  145.1030   73.5430  220.3350 C   0  0  1  0  0  0  0  0  0  0  0  0
  146.3180   73.4200  219.6780 O   0  0  0  0  0  0  0  0  0  0  0  0
  144.2630   74.6750  219.7830 C   0  0  0  0  0  0  0  0  0  0  0  0
  142.9070   74.2720  220.3840 C   0  0  1  0  0  0  0  0  0  0  0  0
  141.8140   75.1680  219.9200 C   0  0  0  0  0  0  0  0  0  0  0  0
  141.4470   76.0520  221.1270 C   0  0  0  0  0  0  0  0  0  0  0  0
  141.6320   77.4160  220.8020 O   0  0  0  0  0  0  0  0  0  0  0  0
  141.7230   78.4050  221.7720 C   0  0  0  0  0  0  0  0  0  0  0  0
  141.4480   78.0530  223.0790 C   0  0  0  0  0  0  0  0  0  0  0  0
  141.5290   79.0140  224.0820 C   0  0  0  0  0  0  0  0  0  0  0  0
  141.8860   80.3200  223.7460 C   0  0  0  0  0  0  0  0  0  0  0  0
  142.1530   80.6380  222.4290 C   0  0  0  0  0  0  0  0  0  0  0  0
  142.0800   79.6970  221.4170 C   0  0  0  0  0  0  0  0  0  0  0  0
  140.1680   71.3910  223.6630 C   0  0  0  0  0  0  0  0  0  0  0  0
  139.5490   70.1590  223.6760 C   0  0  0  0  0  0  0  0  0  0  0  0
  139.4710   69.4600  224.8630 C   0  0  0  0  0  0  0  0  0  0  0  0
  140.0040   69.9800  226.0320 C   0  0  0  0  0  0  0  0  0  0  0  0
  139.9330   69.2930  227.2220 C   0  0  0  0  0  0  0  0  0  0  0  0
  140.4640   69.8200  228.3610 C   0  0  0  0  0  0  0  0  0  0  0  0
  141.0730   71.0590  228.2880 C   0  0  0  0  0  0  0  0  0  0  0  0
  141.1630   71.7690  227.1290 C   0  0  0  0  0  0  0  0  0  0  0  0
  140.6220   71.2270  225.9780 C   0  0  0  0  0  0  0  0  0  0  0  0
  140.6770   71.8710  224.8110 N   0  0  0  0  0  0  0  0  0  0  0  0
  140.2700   70.3900  221.2340 H   0  0  0  0  0  0  0  0  0  0  0  0
  139.7557   71.6293  219.1314 H   0  0  0  0  0  0  0  0  0  0  0  0
  140.0400   73.1693  219.9918 H   0  0  0  0  0  0  0  0  0  0  0  0
  144.2350   71.6715  220.9549 H   0  0  0  0  0  0  0  0  0  0  0  0
  144.5055   71.7915  219.2067 H   0  0  0  0  0  0  0  0  0  0  0  0
  145.3974   73.6752  221.3866 H   0  0  0  0  0  0  0  0  0  0  0  0
  146.5460   74.3460  219.3560 H   0  0  0  0  0  0  0  0  0  0  0  0
  144.6013   75.6566  220.1463 H   0  0  0  0  0  0  0  0  0  0  0  0
  144.2829   74.7934  218.6896 H   0  0  0  0  0  0  0  0  0  0  0  0
  142.8019   74.3640  221.4751 H   0  0  0  0  0  0  0  0  0  0  0  0
  142.1602   75.7905  219.0818 H   0  0  0  0  0  0  0  0  0  0  0  0
  140.9465   74.5933  219.5634 H   0  0  0  0  0  0  0  0  0  0  0  0
  140.3943   75.8814  221.3967 H   0  0  0  0  0  0  0  0  0  0  0  0
  142.0966   75.7919  221.9757 H   0  0  0  0  0  0  0  0  0  0  0  0
  141.1665   77.0186  223.3256 H   0  0  0  0  0  0  0  0  0  0  0  0
  141.3141   78.7471  225.1273 H   0  0  0  0  0  0  0  0  0  0  0  0
  141.9545   81.0925  224.5261 H   0  0  0  0  0  0  0  0  0  0  0  0
  142.4324   81.6715  222.1765 H   0  0  0  0  0  0  0  0  0  0  0  0
  142.2967   79.9635  220.3720 H   0  0  0  0  0  0  0  0  0  0  0  0
  139.1232   69.7392  222.7527 H   0  0  0  0  0  0  0  0  0  0  0  0
  138.9790   68.4764  224.8819 H   0  0  0  0  0  0  0  0  0  0  0  0
  139.4428   68.3088  227.2543 H   0  0  0  0  0  0  0  0  0  0  0  0
  140.4095   69.2736  229.3141 H   0  0  0  0  0  0  0  0  0  0  0  0
  141.5029   71.4896  229.2044 H   0  0  0  0  0  0  0  0  0  0  0  0
  141.6555   72.7524  227.1093 H   0  0  0  0  0  0  0  0  0  0  0  0
  1  2  2  0
  2  3  1  0
  3  4  1  0
  4  5  1  0
  5  6  2  0
  5  7  1  0
  7  8  1  0
  8  9  1  0
  9 10  1  0
  9 11  1  0
 11 12  1  0
 12 13  1  0
 13 14  1  0
 14 15  1  0
 15 16  1  0
 16 17  2  0
 17 18  1  0
 18 19  2  0
 19 20  1  0
 20 21  2  0
  2 22  1  0
 22 23  2  0
 23 24  1  0
 24 25  2  0
 25 26  1  0
 26 27  2  0
 27 28  1  0
 28 29  2  0
 29 30  1  0
 30 31  2  0
 12  7  1  0
 21 16  1  0
 31 22  1  0
 30 25  1  0
  3 32  1  0
  4 33  1  0
  4 34  1  0
  8 35  1  0
  8 36  1  0
  9 37  1  1
 10 38  1  0
 11 39  1  0
 11 40  1  0
 12 41  1  1
 13 42  1  0
 13 43  1  0
 14 44  1  0
 14 45  1  0
 17 46  1  0
 18 47  1  0
 19 48  1  0
 20 49  1  0
 21 50  1  0
 23 51  1  0
 24 52  1  0
 26 53  1  0
 27 54  1  0
 28 55  1  0
 29 56  1  0
M  END
>  <meeko>  (18) 
{"free_energy": -9.36, "intermolecular_energy": -12.05, "internal_energy": -1.36, "cluster_size": 8, "cluster_id": 1, "rank_in_cluster": 2}

$$$$

     RDKit          3D

 56 59  0  0  0  0  0  0  0  0999 V2000
  141.1180   71.7320  221.4760 O   0  0  0  0  0  0  0  0  0  0  0  0
  140.3590   72.1900  222.3850 C   0  0  0  0  0  0  0  0  0  0  0  0
  139.6400   73.4170  222.2240 N   0  0  0  0  0  0  0  0  0  0  0  0
  139.7540   74.1980  220.9890 C   0  0  0  0  0  0  0  0  0  0  0  0
  140.6210   75.3490  221.2540 C   0  0  0  0  0  0  0  0  0  0  0  0
  140.4870   75.9270  222.3810 O   0  0  0  0  0  0  0  0  0  0  0  0
  141.5930   75.8850  220.3890 N   0  0  0  0  0  0  0  0  0  0  0  0
  142.8350   75.1470  220.0850 C   0  0  0  0  0  0  0  0  0  0  0  0
  143.4650   75.8480  218.9050 C   0  0  1  0  0  0  0  0  0  0  0  0
  144.0180   74.9590  217.9950 O   0  0  0  0  0  0  0  0  0  0  0  0
  142.2770   76.5920  218.3320 C   0  0  0  0  0  0  0  0  0  0  0  0
  141.6760   77.1150  219.6470 C   0  0  1  0  0  0  0  0  0  0  0  0
  140.3900   77.8270  219.4160 C   0  0  0  0  0  0  0  0  0  0  0  0
  140.7560   79.3050  219.1880 C   0  0  0  0  0  0  0  0  0  0  0  0
  141.9580   79.6160  219.8660 O   0  0  0  0  0  0  0  0  0  0  0  0
  141.9780   80.0200  221.1950 C   0  0  0  0  0  0  0  0  0  0  0  0
  142.2010   79.0560  222.1580 C   0  0  0  0  0  0  0  0  0  0  0  0
  142.2300   79.4190  223.5010 C   0  0  0  0  0  0  0  0  0  0  0  0
  142.0320   80.7550  223.8490 C   0  0  0  0  0  0  0  0  0  0  0  0
  141.8120   81.6940  222.8600 C   0  0  0  0  0  0  0  0  0  0  0  0
  141.7800   81.3540  221.5190 C   0  0  0  0  0  0  0  0  0  0  0  0
  140.2140   71.4340  223.6490 C   0  0  0  0  0  0  0  0  0  0  0  0
  139.5670   70.2170  223.6380 C   0  0  0  0  0  0  0  0  0  0  0  0
  139.4350   69.5170  224.8190 C   0  0  0  0  0  0  0  0  0  0  0  0
  139.9440   70.0210  226.0070 C   0  0  0  0  0  0  0  0  0  0  0  0
  139.8200   69.3330  227.1910 C   0  0  0  0  0  0  0  0  0  0  0  0
  140.3270   69.8440  228.3480 C   0  0  0  0  0  0  0  0  0  0  0  0
  140.9660   71.0680  228.2980 C   0  0  0  0  0  0  0  0  0  0  0  0
  141.1090   71.7790  227.1450 C   0  0  0  0  0  0  0  0  0  0  0  0
  140.5920   71.2540  225.9760 C   0  0  0  0  0  0  0  0  0  0  0  0
  140.6980   71.8990  224.8130 N   0  0  0  0  0  0  0  0  0  0  0  0
  139.0460   73.7050  223.0240 H   0  0  0  0  0  0  0  0  0  0  0  0
  140.1926   73.5765  220.1944 H   0  0  0  0  0  0  0  0  0  0  0  0
  138.7605   74.5380  220.6612 H   0  0  0  0  0  0  0  0  0  0  0  0
  143.5142   75.1714  220.9499 H   0  0  0  0  0  0  0  0  0  0  0  0
  142.6279   74.0905  219.8592 H   0  0  0  0  0  0  0  0  0  0  0  0
  144.3128   76.4960  219.1722 H   0  0  0  0  0  0  0  0  0  0  0  0
  144.8300   75.4230  217.6240 H   0  0  0  0  0  0  0  0  0  0  0  0
  142.5839   77.4095  217.6631 H   0  0  0  0  0  0  0  0  0  0  0  0
  141.6000   75.9961  217.7023 H   0  0  0  0  0  0  0  0  0  0  0  0
  142.2487   77.8877  220.1807 H   0  0  0  0  0  0  0  0  0  0  0  0
  139.8811   77.4186  218.5304 H   0  0  0  0  0  0  0  0  0  0  0  0
  139.7061   77.7091  220.2695 H   0  0  0  0  0  0  0  0  0  0  0  0
  140.8881   79.4856  218.1110 H   0  0  0  0  0  0  0  0  0  0  0  0
  139.9472   79.9413  219.5766 H   0  0  0  0  0  0  0  0  0  0  0  0
  142.3549   78.0069  221.8652 H   0  0  0  0  0  0  0  0  0  0  0  0
  142.4069   78.6615  224.2787 H   0  0  0  0  0  0  0  0  0  0  0  0
  142.0509   81.0595  224.9058 H   0  0  0  0  0  0  0  0  0  0  0  0
  141.6575   82.7445  223.1473 H   0  0  0  0  0  0  0  0  0  0  0  0
  141.6045   82.1115  220.7410 H   0  0  0  0  0  0  0  0  0  0  0  0
  139.1615   69.8096  222.7001 H   0  0  0  0  0  0  0  0  0  0  0  0
  138.9189   68.5456  224.8189 H   0  0  0  0  0  0  0  0  0  0  0  0
  139.3064   68.3604  227.2043 H   0  0  0  0  0  0  0  0  0  0  0  0
  140.2301   69.2963  229.2970 H   0  0  0  0  0  0  0  0  0  0  0  0
  141.3767   71.4861  229.2289 H   0  0  0  0  0  0  0  0  0  0  0  0
  141.6250   72.7504  227.1445 H   0  0  0  0  0  0  0  0  0  0  0  0
  1  2  2  0
  2  3  1  0
  3  4  1  0
  4  5  1  0
  5  6  2  0
  5  7  1  0
  7  8  1  0
  8  9  1  0
  9 10  1  0
  9 11  1  0
 11 12  1  0
 12 13  1  0
 13 14  1  0
 14 15  1  0
 15 16  1  0
 16 17  2  0
 17 18  1  0
 18 19  2  0
 19 20  1  0
 20 21  2  0
  2 22  1  0
 22 23  2  0
 23 24  1  0
 24 25  2  0
 25 26  1  0
 26 27  2  0
 27 28  1  0
 28 29  2  0
 29 30  1  0
 30 31  2  0
 12  7  1  0
 21 16  1  0
 31 22  1  0
 30 25  1  0
  3 32  1  0
  4 33  1  0
  4 34  1  0
  8 35  1  0
  8 36  1  0
  9 37  1  1
 10 38  1  0
 11 39  1  0
 11 40  1  0
 12 41  1  1
 13 42  1  0
 13 43  1  0
 14 44  1  0
 14 45  1  0
 17 46  1  0
 18 47  1  0
 19 48  1  0
 20 49  1  0
 21 50  1  0
 23 51  1  0
 24 52  1  0
 26 53  1  0
 27 54  1  0
 28 55  1  0
 29 56  1  0
M  END
>  <meeko>  (19) 
{"free_energy": -8.98, "intermolecular_energy": -11.66, "internal_energy": -1.61, "cluster_size": 8, "cluster_id": 1, "rank_in_cluster": 4}

$$$$

     RDKit          3D

 56 59  0  0  0  0  0  0  0  0999 V2000
  133.6010   70.2800  226.7800 O   0  0  0  0  0  0  0  0  0  0  0  0
  133.8490   71.3760  226.1880 C   0  0  0  0  0  0  0  0  0  0  0  0
  134.7390   71.4480  225.0690 N   0  0  0  0  0  0  0  0  0  0  0  0
  135.4040   70.2460  224.5600 C   0  0  0  0  0  0  0  0  0  0  0  0
  135.8410   70.5110  223.1870 C   0  0  0  0  0  0  0  0  0  0  0  0
  134.9310   70.6540  222.3080 O   0  0  0  0  0  0  0  0  0  0  0  0
  137.1690   70.6270  222.7360 N   0  0  0  0  0  0  0  0  0  0  0  0
  137.8030   71.9490  222.5610 C   0  0  0  0  0  0  0  0  0  0  0  0
  139.2810   71.6900  222.3930 C   0  0  1  0  0  0  0  0  0  0  0  0
  140.0610   72.6290  223.0510 O   0  0  0  0  0  0  0  0  0  0  0  0
  139.4110   70.3080  222.9970 C   0  0  0  0  0  0  0  0  0  0  0  0
  138.1680   69.6600  222.3650 C   0  0  1  0  0  0  0  0  0  0  0  0
  137.9560   68.2770  222.8670 C   0  0  0  0  0  0  0  0  0  0  0  0
  139.1890   67.9430  223.7280 C   0  0  0  0  0  0  0  0  0  0  0  0
  138.8130   67.8260  225.0860 O   0  0  0  0  0  0  0  0  0  0  0  0
  139.5630   68.3830  226.1150 C   0  0  0  0  0  0  0  0  0  0  0  0
  139.4810   69.7480  226.3060 C   0  0  0  0  0  0  0  0  0  0  0  0
  140.2160   70.3450  227.3260 C   0  0  0  0  0  0  0  0  0  0  0  0
  141.0250   69.5490  228.1380 C   0  0  0  0  0  0  0  0  0  0  0  0
  141.0830   68.1860  227.9190 C   0  0  0  0  0  0  0  0  0  0  0  0
  140.3600   67.5740  226.9110 C   0  0  0  0  0  0  0  0  0  0  0  0
  133.1990   72.6150  226.6690 C   0  0  0  0  0  0  0  0  0  0  0  0
  132.0100   72.5300  227.3620 C   0  0  0  0  0  0  0  0  0  0  0  0
  131.4090   73.6890  227.8080 C   0  0  0  0  0  0  0  0  0  0  0  0
  131.9840   74.9280  227.5680 C   0  0  0  0  0  0  0  0  0  0  0  0
  131.3960   76.0900  228.0070 C   0  0  0  0  0  0  0  0  0  0  0  0
  131.9770   77.2990  227.7620 C   0  0  0  0  0  0  0  0  0  0  0  0
  133.1690   77.3230  227.0630 C   0  0  0  0  0  0  0  0  0  0  0  0
  133.7820   76.1930  226.6120 C   0  0  0  0  0  0  0  0  0  0  0  0
  133.1860   74.9710  226.8650 C   0  0  0  0  0  0  0  0  0  0  0  0
  133.7350   73.8280  226.4510 N   0  0  0  0  0  0  0  0  0  0  0  0
  134.8730   72.3890  224.6550 H   0  0  0  0  0  0  0  0  0  0  0  0
  136.2748   70.0079  225.1885 H   0  0  0  0  0  0  0  0  0  0  0  0
  134.7116   69.3915  224.5800 H   0  0  0  0  0  0  0  0  0  0  0  0
  137.4000   72.4497  221.6684 H   0  0  0  0  0  0  0  0  0  0  0  0
  137.6068   72.6042  223.4225 H   0  0  0  0  0  0  0  0  0  0  0  0
  139.6304   71.7579  221.3522 H   0  0  0  0  0  0  0  0  0  0  0  0
  139.4230   73.3470  223.3510 H   0  0  0  0  0  0  0  0  0  0  0  0
  140.3406   69.8074  222.6884 H   0  0  0  0  0  0  0  0  0  0  0  0
  139.4605   70.2713  224.0953 H   0  0  0  0  0  0  0  0  0  0  0  0
  138.1987   69.4842  221.2796 H   0  0  0  0  0  0  0  0  0  0  0  0
  137.0407   68.2274  223.4750 H   0  0  0  0  0  0  0  0  0  0  0  0
  137.8374   67.5622  222.0394 H   0  0  0  0  0  0  0  0  0  0  0  0
  139.6245   66.9920  223.3873 H   0  0  0  0  0  0  0  0  0  0  0  0
  139.9296   68.7499  223.6266 H   0  0  0  0  0  0  0  0  0  0  0  0
  138.8386   70.3600  225.6558 H   0  0  0  0  0  0  0  0  0  0  0  0
  140.1599   71.4312  227.4901 H   0  0  0  0  0  0  0  0  0  0  0  0
  141.6135   70.0043  228.9482 H   0  0  0  0  0  0  0  0  0  0  0  0
  141.7236   67.5688  228.5660 H   0  0  0  0  0  0  0  0  0  0  0  0
  140.4151   66.4877  226.7471 H   0  0  0  0  0  0  0  0  0  0  0  0
  131.5469   71.5514  227.5566 H   0  0  0  0  0  0  0  0  0  0  0  0
  130.4604   73.6295  228.3617 H   0  0  0  0  0  0  0  0  0  0  0  0
  130.4471   76.0443  228.5616 H   0  0  0  0  0  0  0  0  0  0  0  0
  131.5091   78.2311  228.1116 H   0  0  0  0  0  0  0  0  0  0  0  0
  133.6427   78.2953  226.8624 H   0  0  0  0  0  0  0  0  0  0  0  0
  134.7308   76.2514  226.0584 H   0  0  0  0  0  0  0  0  0  0  0  0
  1  2  2  0
  2  3  1  0
  3  4  1  0
  4  5  1  0
  5  6  2  0
  5  7  1  0
  7  8  1  0
  8  9  1  0
  9 10  1  0
  9 11  1  0
 11 12  1  0
 12 13  1  0
 13 14  1  0
 14 15  1  0
 15 16  1  0
 16 17  2  0
 17 18  1  0
 18 19  2  0
 19 20  1  0
 20 21  2  0
  2 22  1  0
 22 23  2  0
 23 24  1  0
 24 25  2  0
 25 26  1  0
 26 27  2  0
 27 28  1  0
 28 29  2  0
 29 30  1  0
 30 31  2  0
 12  7  1  0
 21 16  1  0
 31 22  1  0
 30 25  1  0
  3 32  1  0
  4 33  1  0
  4 34  1  0
  8 35  1  0
  8 36  1  0
  9 37  1  6
 10 38  1  0
 11 39  1  0
 11 40  1  0
 12 41  1  6
 13 42  1  0
 13 43  1  0
 14 44  1  0
 14 45  1  0
 17 46  1  0
 18 47  1  0
 19 48  1  0
 20 49  1  0
 21 50  1  0
 23 51  1  0
 24 52  1  0
 26 53  1  0
 27 54  1  0
 28 55  1  0
 29 56  1  0
M  END
>  <meeko>  (20) 
{"free_energy": -8.19, "intermolecular_energy": -10.88, "internal_energy": -1.68, "cluster_size": 1, "cluster_id": 4, "rank_in_cluster": 1}

$$$$
