
     RDKit          3D

 56 59  0  0  0  0  0  0  0  0999 V2000
  139.5930   74.3970  222.3710 O   0  0  0  0  0  0  0  0  0  0  0  0
  140.1270   75.2900  221.6270 C   0  0  0  0  0  0  0  0  0  0  0  0
  140.6510   74.9530  220.3410 N   0  0  0  0  0  0  0  0  0  0  0  0
  140.5610   73.5930  219.9140 C   0  0  0  0  0  0  0  0  0  0  0  0
  141.6940   72.8360  220.5070 C   0  0  0  0  0  0  0  0  0  0  0  0
  141.5590   72.0100  221.4450 O   0  0  0  0  0  0  0  0  0  0  0  0
  142.9870   73.0770  219.9720 N   0  0  0  0  0  0  0  0  0  0  0  0
  144.2560   72.4360  220.3220 C   0  0  0  0  0  0  0  0  0  0  0  0
  145.0900   72.5100  219.0510 C   0  0  2  0  0  0  0  0  0  0  0  0
  146.3000   73.1350  219.2200 O   0  0  0  0  0  0  0  0  0  0  0  0
  144.1770   73.1680  218.0440 C   0  0  0  0  0  0  0  0  0  0  0  0
  143.3410   74.0500  218.9190 C   0  0  2  0  0  0  0  0  0  0  0  0
  144.0770   75.1450  219.6150 C   0  0  0  0  0  0  0  0  0  0  0  0
  143.2780   76.3580  219.9460 C   0  0  0  0  0  0  0  0  0  0  0  0
  142.6250   76.8090  218.7760 O   0  0  0  0  0  0  0  0  0  0  0  0
  142.1920   78.1470  218.7520 C   0  0  0  0  0  0  0  0  0  0  0  0
  140.9780   78.5130  219.3250 C   0  0  0  0  0  0  0  0  0  0  0  0
  140.5700   79.8160  219.2930 C   0  0  0  0  0  0  0  0  0  0  0  0
  141.3310   80.8120  218.7010 C   0  0  0  0  0  0  0  0  0  0  0  0
  142.5300   80.4500  218.1340 C   0  0  0  0  0  0  0  0  0  0  0  0
  142.9500   79.1360  218.1610 C   0  0  0  0  0  0  0  0  0  0  0  0
  140.2020   76.6700  222.0940 C   0  0  0  0  0  0  0  0  0  0  0  0
  139.0490   77.3360  222.4520 C   0  0  0  0  0  0  0  0  0  0  0  0
  139.0310   78.6370  222.9040 C   0  0  0  0  0  0  0  0  0  0  0  0
  140.2350   79.2890  222.9950 C   0  0  0  0  0  0  0  0  0  0  0  0
  140.3530   80.5930  223.4330 C   0  0  0  0  0  0  0  0  0  0  0  0
  141.5540   81.2580  223.5290 C   0  0  0  0  0  0  0  0  0  0  0  0
  142.7290   80.5910  223.1690 C   0  0  0  0  0  0  0  0  0  0  0  0
  142.6090   79.2830  222.7300 C   0  0  0  0  0  0  0  0  0  0  0  0
  141.3990   78.6300  222.6380 C   0  0  0  0  0  0  0  0  0  0  0  0
  141.3570   77.3510  222.2020 N   0  0  0  0  0  0  0  0  0  0  0  0
  141.0870   75.6600  219.7220 H   0  0  0  0  0  0  0  0  0  0  0  0
  139.6081   73.1602  220.2526 H   0  0  0  0  0  0  0  0  0  0  0  0
  140.6056   73.5392  218.8162 H   0  0  0  0  0  0  0  0  0  0  0  0
  144.7504   72.9768  221.1424 H   0  0  0  0  0  0  0  0  0  0  0  0
  144.1177   71.4015  220.6693 H   0  0  0  0  0  0  0  0  0  0  0  0
  145.4097   71.5153  218.7069 H   0  0  0  0  0  0  0  0  0  0  0  0
  146.2880   74.0870  218.9580 H   0  0  0  0  0  0  0  0  0  0  0  0
  144.7477   73.7565  217.3105 H   0  0  0  0  0  0  0  0  0  0  0  0
  143.5934   72.4572  217.4406 H   0  0  0  0  0  0  0  0  0  0  0  0
  142.5508   74.5500  218.3397 H   0  0  0  0  0  0  0  0  0  0  0  0
  144.4767   74.7377  220.5554 H   0  0  0  0  0  0  0  0  0  0  0  0
  144.8493   75.4812  218.9075 H   0  0  0  0  0  0  0  0  0  0  0  0
  142.5304   76.1097  220.7138 H   0  0  0  0  0  0  0  0  0  0  0  0
  143.9404   77.1472  220.3311 H   0  0  0  0  0  0  0  0  0  0  0  0
  140.3456   77.7514  219.8047 H   0  0  0  0  0  0  0  0  0  0  0  0
  139.6067   80.0837  219.7517 H   0  0  0  0  0  0  0  0  0  0  0  0
  140.9871   81.8568  218.6854 H   0  0  0  0  0  0  0  0  0  0  0  0
  143.1596   81.2142  217.6549 H   0  0  0  0  0  0  0  0  0  0  0  0
  143.9128   78.8708  217.6999 H   0  0  0  0  0  0  0  0  0  0  0  0
  138.0920   76.7995  222.3723 H   0  0  0  0  0  0  0  0  0  0  0  0
  138.0893   79.1334  223.1809 H   0  0  0  0  0  0  0  0  0  0  0  0
  139.4370   81.1297  223.7210 H   0  0  0  0  0  0  0  0  0  0  0  0
  141.5891   82.2987  223.8836 H   0  0  0  0  0  0  0  0  0  0  0  0
  143.7096   81.0855  223.2320 H   0  0  0  0  0  0  0  0  0  0  0  0
  143.5214   78.7405  222.4415 H   0  0  0  0  0  0  0  0  0  0  0  0
  1  2  2  0
  2  3  1  0
  3  4  1  0
  4  5  1  0
  5  6  2  0
  5  7  1  0
  7  8  1  0
  8  9  1  0
  9 10  1  0
  9 11  1  0
 11 12  1  0
 12 13  1  0
 13 14  1  0
 14 15  1  0
 15 16  1  0
 16 17  2  0
 17 18  1  0
 18 19  2  0
 19 20  1  0
 20 21  2  0
  2 22  1  0
 22 23  2  0
 23 24  1  0
 24 25  2  0
 25 26  1  0
 26 27  2  0
 27 28  1  0
 28 29  2  0
 29 30  1  0
 30 31  2  0
 12  7  1  0
 21 16  1  0
 31 22  1  0
 30 25  1  0
  3 32  1  0
  4 33  1  0
  4 34  1  0
  8 35  1  0
  8 36  1  0
  9 37  1  6
 10 38  1  0
 11 39  1  0
 11 40  1  0
 12 41  1  6
 13 42  1  0
 13 43  1  0
 14 44  1  0
 14 45  1  0
 17 46  1  0
 18 47  1  0
 19 48  1  0
 20 49  1  0
 21 50  1  0
 23 51  1  0
 24 52  1  0
 26 53  1  0
 27 54  1  0
 28 55  1  0
 29 56  1  0
M  END
>  <meeko>  (1) 
{"free_energy": -7.08, "intermolecular_energy": -9.77, "internal_energy": -3.31, "cluster_size": 5, "cluster_id": 5, "rank_in_cluster": 1}

$$$$

     RDKit          3D

 56 59  0  0  0  0  0  0  0  0999 V2000
  140.3310   73.0400  222.6060 O   0  0  0  0  0  0  0  0  0  0  0  0
  139.5410   72.1420  223.0590 C   0  0  0  0  0  0  0  0  0  0  0  0
  138.2800   71.8950  222.4360 N   0  0  0  0  0  0  0  0  0  0  0  0
  137.9290   72.6780  221.2930 C   0  0  0  0  0  0  0  0  0  0  0  0
  137.1110   73.8330  221.7460 C   0  0  0  0  0  0  0  0  0  0  0  0
  135.9850   73.7120  222.2920 O   0  0  0  0  0  0  0  0  0  0  0  0
  137.6500   75.1310  221.5400 N   0  0  0  0  0  0  0  0  0  0  0  0
  137.1110   76.2260  220.7310 C   0  0  0  0  0  0  0  0  0  0  0  0
  137.6210   77.4920  221.4070 C   0  0  2  0  0  0  0  0  0  0  0  0
  138.3330   78.3150  220.5710 O   0  0  0  0  0  0  0  0  0  0  0  0
  138.3910   76.9900  222.6050 C   0  0  0  0  0  0  0  0  0  0  0  0
  138.9000   75.6710  222.1110 C   0  0  2  0  0  0  0  0  0  0  0  0
  139.8630   75.7400  220.9760 C   0  0  0  0  0  0  0  0  0  0  0  0
  141.1320   76.4770  221.2410 C   0  0  0  0  0  0  0  0  0  0  0  0
  140.9340   77.8460  220.9500 O   0  0  0  0  0  0  0  0  0  0  0  0
  141.3780   78.7810  221.9020 C   0  0  0  0  0  0  0  0  0  0  0  0
  141.8030   80.0470  221.5130 C   0  0  0  0  0  0  0  0  0  0  0  0
  142.2330   80.9440  222.4480 C   0  0  0  0  0  0  0  0  0  0  0  0
  142.2630   80.6400  223.8010 C   0  0  0  0  0  0  0  0  0  0  0  0
  141.8430   79.3880  224.1860 C   0  0  0  0  0  0  0  0  0  0  0  0
  141.4080   78.4760  223.2460 C   0  0  0  0  0  0  0  0  0  0  0  0
  139.9310   71.3600  224.2280 C   0  0  0  0  0  0  0  0  0  0  0  0
  140.8040   71.8970  225.1510 C   0  0  0  0  0  0  0  0  0  0  0  0
  141.2220   71.2270  226.2800 C   0  0  0  0  0  0  0  0  0  0  0  0
  140.7330   69.9610  226.4790 C   0  0  0  0  0  0  0  0  0  0  0  0
  141.0730   69.1860  227.5700 C   0  0  0  0  0  0  0  0  0  0  0  0
  140.5900   67.9150  227.7810 C   0  0  0  0  0  0  0  0  0  0  0  0
  139.7040   67.3630  226.8520 C   0  0  0  0  0  0  0  0  0  0  0  0
  139.3630   68.1410  225.7580 C   0  0  0  0  0  0  0  0  0  0  0  0
  139.8560   69.4130  225.5590 C   0  0  0  0  0  0  0  0  0  0  0  0
  139.4780   70.1170  224.4670 N   0  0  0  0  0  0  0  0  0  0  0  0
  137.6250   71.1730  222.7860 H   0  0  0  0  0  0  0  0  0  0  0  0
  138.8415   73.0411  220.7975 H   0  0  0  0  0  0  0  0  0  0  0  0
  137.3565   72.0675  220.5792 H   0  0  0  0  0  0  0  0  0  0  0  0
  137.4802   76.1626  219.6968 H   0  0  0  0  0  0  0  0  0  0  0  0
  136.0129   76.1988  220.6717 H   0  0  0  0  0  0  0  0  0  0  0  0
  136.8012   78.1582  221.7138 H   0  0  0  0  0  0  0  0  0  0  0  0
  139.3050   78.1380  220.5830 H   0  0  0  0  0  0  0  0  0  0  0  0
  139.2184   77.6678  222.8621 H   0  0  0  0  0  0  0  0  0  0  0  0
  137.7899   76.9199  223.5236 H   0  0  0  0  0  0  0  0  0  0  0  0
  139.4258   75.1246  222.9078 H   0  0  0  0  0  0  0  0  0  0  0  0
  140.1247   74.7097  220.6932 H   0  0  0  0  0  0  0  0  0  0  0  0
  139.3499   76.3066  220.1850 H   0  0  0  0  0  0  0  0  0  0  0  0
  141.4130   76.3608  222.2981 H   0  0  0  0  0  0  0  0  0  0  0  0
  141.9370   76.0736  220.6091 H   0  0  0  0  0  0  0  0  0  0  0  0
  141.7926   80.3262  220.4491 H   0  0  0  0  0  0  0  0  0  0  0  0
  142.5661   81.9391  222.1180 H   0  0  0  0  0  0  0  0  0  0  0  0
  142.6110   81.3755  224.5413 H   0  0  0  0  0  0  0  0  0  0  0  0
  141.8539   79.1118  225.2507 H   0  0  0  0  0  0  0  0  0  0  0  0
  141.0769   77.4808  223.5775 H   0  0  0  0  0  0  0  0  0  0  0  0
  141.1866   72.9135  224.9766 H   0  0  0  0  0  0  0  0  0  0  0  0
  141.9202   71.6890  226.9935 H   0  0  0  0  0  0  0  0  0  0  0  0
  141.7680   69.6077  228.3110 H   0  0  0  0  0  0  0  0  0  0  0  0
  140.8969   67.3417  228.6682 H   0  0  0  0  0  0  0  0  0  0  0  0
  139.2937   66.3510  226.9843 H   0  0  0  0  0  0  0  0  0  0  0  0
  138.6674   67.7251  225.0143 H   0  0  0  0  0  0  0  0  0  0  0  0
  1  2  2  0
  2  3  1  0
  3  4  1  0
  4  5  1  0
  5  6  2  0
  5  7  1  0
  7  8  1  0
  8  9  1  0
  9 10  1  0
  9 11  1  0
 11 12  1  0
 12 13  1  0
 13 14  1  0
 14 15  1  0
 15 16  1  0
 16 17  2  0
 17 18  1  0
 18 19  2  0
 19 20  1  0
 20 21  2  0
  2 22  1  0
 22 23  2  0
 23 24  1  0
 24 25  2  0
 25 26  1  0
 26 27  2  0
 27 28  1  0
 28 29  2  0
 29 30  1  0
 30 31  2  0
 12  7  1  0
 21 16  1  0
 31 22  1  0
 30 25  1  0
  3 32  1  0
  4 33  1  0
  4 34  1  0
  8 35  1  0
  8 36  1  0
  9 37  1  1
 10 38  1  0
 11 39  1  0
 11 40  1  0
 12 41  1  1
 13 42  1  0
 13 43  1  0
 14 44  1  0
 14 45  1  0
 17 46  1  0
 18 47  1  0
 19 48  1  0
 20 49  1  0
 21 50  1  0
 23 51  1  0
 24 52  1  0
 26 53  1  0
 27 54  1  0
 28 55  1  0
 29 56  1  0
M  END
>  <meeko>  (2) 
{"free_energy": -7.33, "intermolecular_energy": -10.01, "internal_energy": -2.56, "cluster_size": 2, "cluster_id": 4, "rank_in_cluster": 2}

$$$$

     RDKit          3D

 56 59  0  0  0  0  0  0  0  0999 V2000
  141.6230   71.8700  221.9690 O   0  0  0  0  0  0  0  0  0  0  0  0
  140.6040   72.0240  222.7270 C   0  0  0  0  0  0  0  0  0  0  0  0
  139.7210   73.1330  222.5510 N   0  0  0  0  0  0  0  0  0  0  0  0
  140.0090   74.0610  221.5030 C   0  0  0  0  0  0  0  0  0  0  0  0
  139.3760   75.3630  221.8390 C   0  0  0  0  0  0  0  0  0  0  0  0
  138.2390   75.4640  222.3670 O   0  0  0  0  0  0  0  0  0  0  0  0
  140.1120   76.5400  221.5370 N   0  0  0  0  0  0  0  0  0  0  0  0
  141.0760   76.7630  220.4580 C   0  0  0  0  0  0  0  0  0  0  0  0
  140.9860   78.2540  220.1630 C   0  0  2  0  0  0  0  0  0  0  0  0
  142.1870   78.9100  220.2670 O   0  0  0  0  0  0  0  0  0  0  0  0
  139.9120   78.7550  221.0980 C   0  0  0  0  0  0  0  0  0  0  0  0
  140.0610   77.8250  222.2630 C   0  0  2  0  0  0  0  0  0  0  0  0
  141.3540   77.9210  222.9990 C   0  0  0  0  0  0  0  0  0  0  0  0
  141.5760   79.1820  223.7620 C   0  0  0  0  0  0  0  0  0  0  0  0
  142.1650   80.1390  222.9040 O   0  0  0  0  0  0  0  0  0  0  0  0
  141.3260   81.1380  222.3770 C   0  0  0  0  0  0  0  0  0  0  0  0
  141.7690   81.9750  221.3580 C   0  0  0  0  0  0  0  0  0  0  0  0
  140.9440   82.9410  220.8570 C   0  0  0  0  0  0  0  0  0  0  0  0
  139.6540   83.1270  221.3310 C   0  0  0  0  0  0  0  0  0  0  0  0
  139.2160   82.2990  222.3380 C   0  0  0  0  0  0  0  0  0  0  0  0
  140.0440   81.3210  222.8510 C   0  0  0  0  0  0  0  0  0  0  0  0
  140.3400   71.0570  223.7870 C   0  0  0  0  0  0  0  0  0  0  0  0
  139.5670   69.9450  223.5230 C   0  0  0  0  0  0  0  0  0  0  0  0
  139.2700   68.9840  224.4640 C   0  0  0  0  0  0  0  0  0  0  0  0
  139.7780   69.1600  225.7260 C   0  0  0  0  0  0  0  0  0  0  0  0
  139.5550   68.2710  226.7580 C   0  0  0  0  0  0  0  0  0  0  0  0
  140.0590   68.4360  228.0280 C   0  0  0  0  0  0  0  0  0  0  0  0
  140.8440   69.5580  228.3060 C   0  0  0  0  0  0  0  0  0  0  0  0
  141.0680   70.4500  227.2700 C   0  0  0  0  0  0  0  0  0  0  0  0
  140.5560   70.2730  226.0020 C   0  0  0  0  0  0  0  0  0  0  0  0
  140.8160   71.1840  225.0380 N   0  0  0  0  0  0  0  0  0  0  0  0
  138.8910   73.2770  223.1520 H   0  0  0  0  0  0  0  0  0  0  0  0
  141.0975   74.1904  221.4107 H   0  0  0  0  0  0  0  0  0  0  0  0
  139.6139   73.6852  220.5477 H   0  0  0  0  0  0  0  0  0  0  0  0
  142.0915   76.4922  220.7827 H   0  0  0  0  0  0  0  0  0  0  0  0
  140.8586   76.1490  219.5716 H   0  0  0  0  0  0  0  0  0  0  0  0
  140.7231   78.4539  219.1138 H   0  0  0  0  0  0  0  0  0  0  0  0
  142.5690   78.8850  221.1770 H   0  0  0  0  0  0  0  0  0  0  0  0
  140.0933   79.7990  221.3933 H   0  0  0  0  0  0  0  0  0  0  0  0
  138.9042   78.7587  220.6573 H   0  0  0  0  0  0  0  0  0  0  0  0
  139.2808   78.0049  223.0172 H   0  0  0  0  0  0  0  0  0  0  0  0
  141.3997   77.0837  223.7109 H   0  0  0  0  0  0  0  0  0  0  0  0
  142.1382   77.8973  222.2280 H   0  0  0  0  0  0  0  0  0  0  0  0
  140.6134   79.5627  224.1342 H   0  0  0  0  0  0  0  0  0  0  0  0
  142.2411   78.9883  224.6165 H   0  0  0  0  0  0  0  0  0  0  0  0
  142.7859   81.8585  220.9550 H   0  0  0  0  0  0  0  0  0  0  0  0
  141.3145   83.5924  220.0517 H   0  0  0  0  0  0  0  0  0  0  0  0
  139.0031   83.9104  220.9155 H   0  0  0  0  0  0  0  0  0  0  0  0
  138.1980   82.4171  222.7377 H   0  0  0  0  0  0  0  0  0  0  0  0
  139.6722   80.6718  223.6575 H   0  0  0  0  0  0  0  0  0  0  0  0
  139.1664   69.8192  222.5063 H   0  0  0  0  0  0  0  0  0  0  0  0
  138.6503   68.1104  224.2135 H   0  0  0  0  0  0  0  0  0  0  0  0
  138.9406   67.3816  226.5542 H   0  0  0  0  0  0  0  0  0  0  0  0
  139.8469   67.6952  228.8130 H   0  0  0  0  0  0  0  0  0  0  0  0
  141.2671   69.7263  229.3073 H   0  0  0  0  0  0  0  0  0  0  0  0
  141.6826   71.3405  227.4681 H   0  0  0  0  0  0  0  0  0  0  0  0
  1  2  2  0
  2  3  1  0
  3  4  1  0
  4  5  1  0
  5  6  2  0
  5  7  1  0
  7  8  1  0
  8  9  1  0
  9 10  1  0
  9 11  1  0
 11 12  1  0
 12 13  1  0
 13 14  1  0
 14 15  1  0
 15 16  1  0
 16 17  2  0
 17 18  1  0
 18 19  2  0
 19 20  1  0
 20 21  2  0
  2 22  1  0
 22 23  2  0
 23 24  1  0
 24 25  2  0
 25 26  1  0
 26 27  2  0
 27 28  1  0
 28 29  2  0
 29 30  1  0
 30 31  2  0
 12  7  1  0
 21 16  1  0
 31 22  1  0
 30 25  1  0
  3 32  1  0
  4 33  1  0
  4 34  1  0
  8 35  1  0
  8 36  1  0
  9 37  1  6
 10 38  1  0
 11 39  1  0
 11 40  1  0
 12 41  1  1
 13 42  1  0
 13 43  1  0
 14 44  1  0
 14 45  1  0
 17 46  1  0
 18 47  1  0
 19 48  1  0
 20 49  1  0
 21 50  1  0
 23 51  1  0
 24 52  1  0
 26 53  1  0
 27 54  1  0
 28 55  1  0
 29 56  1  0
M  END
>  <meeko>  (3) 
{"free_energy": -7.59, "intermolecular_energy": -10.28, "internal_energy": -2.32, "cluster_size": 2, "cluster_id": 4, "rank_in_cluster": 1}

$$$$

     RDKit          3D

 56 59  0  0  0  0  0  0  0  0999 V2000
  139.9100   73.1380  222.7370 O   0  0  0  0  0  0  0  0  0  0  0  0
  139.5650   71.9210  222.9250 C   0  0  0  0  0  0  0  0  0  0  0  0
  138.8440   71.2020  221.9230 N   0  0  0  0  0  0  0  0  0  0  0  0
  138.5220   71.8820  220.7090 C   0  0  0  0  0  0  0  0  0  0  0  0
  139.7250   71.8860  219.8370 C   0  0  0  0  0  0  0  0  0  0  0  0
  139.9490   71.0110  218.9620 O   0  0  0  0  0  0  0  0  0  0  0  0
  140.6560   72.9440  220.0200 N   0  0  0  0  0  0  0  0  0  0  0  0
  141.9730   72.9000  220.6580 C   0  0  0  0  0  0  0  0  0  0  0  0
  142.7710   73.9990  219.9690 C   0  0  2  0  0  0  0  0  0  0  0  0
  143.2890   74.9300  220.8340 O   0  0  0  0  0  0  0  0  0  0  0  0
  141.8230   74.5570  218.9360 C   0  0  0  0  0  0  0  0  0  0  0  0
  140.4940   74.3480  219.5960 C   0  0  2  0  0  0  0  0  0  0  0  0
  140.2720   75.1230  220.8500 C   0  0  0  0  0  0  0  0  0  0  0  0
  140.6850   76.5550  220.8120 C   0  0  0  0  0  0  0  0  0  0  0  0
  141.2340   76.9060  222.0670 O   0  0  0  0  0  0  0  0  0  0  0  0
  141.4750   78.2700  222.3090 C   0  0  0  0  0  0  0  0  0  0  0  0
  141.5830   78.7550  223.6090 C   0  0  0  0  0  0  0  0  0  0  0  0
  141.8160   80.0820  223.8290 C   0  0  0  0  0  0  0  0  0  0  0  0
  141.9540   80.9880  222.7890 C   0  0  0  0  0  0  0  0  0  0  0  0
  141.8470   80.5090  221.5040 C   0  0  0  0  0  0  0  0  0  0  0  0
  141.6110   79.1700  221.2730 C   0  0  0  0  0  0  0  0  0  0  0  0
  139.9120   71.2560  224.1760 C   0  0  0  0  0  0  0  0  0  0  0  0
  140.7400   71.8880  225.0810 C   0  0  0  0  0  0  0  0  0  0  0  0
  141.1150   71.3320  226.2850 C   0  0  0  0  0  0  0  0  0  0  0  0
  140.6310   70.0840  226.5810 C   0  0  0  0  0  0  0  0  0  0  0  0
  140.9310   69.4180  227.7520 C   0  0  0  0  0  0  0  0  0  0  0  0
  140.4520   68.1660  228.0610 C   0  0  0  0  0  0  0  0  0  0  0  0
  139.6130   67.5170  227.1510 C   0  0  0  0  0  0  0  0  0  0  0  0
  139.3110   68.1850  225.9760 C   0  0  0  0  0  0  0  0  0  0  0  0
  139.7990   69.4400  225.6790 C   0  0  0  0  0  0  0  0  0  0  0  0
  139.4620   70.0340  224.5120 N   0  0  0  0  0  0  0  0  0  0  0  0
  138.5560   70.2160  222.0530 H   0  0  0  0  0  0  0  0  0  0  0  0
  137.6968   71.3622  220.2003 H   0  0  0  0  0  0  0  0  0  0  0  0
  138.2110   72.9145  220.9266 H   0  0  0  0  0  0  0  0  0  0  0  0
  141.8888   73.0993  221.7365 H   0  0  0  0  0  0  0  0  0  0  0  0
  142.4509   71.9140  220.5605 H   0  0  0  0  0  0  0  0  0  0  0  0
  143.6871   73.6129  219.4982 H   0  0  0  0  0  0  0  0  0  0  0  0
  142.5990   75.3950  221.3670 H   0  0  0  0  0  0  0  0  0  0  0  0
  142.0150   75.6242  218.7510 H   0  0  0  0  0  0  0  0  0  0  0  0
  141.9098   74.0811  217.9481 H   0  0  0  0  0  0  0  0  0  0  0  0
  139.6690   74.6323  218.9263 H   0  0  0  0  0  0  0  0  0  0  0  0
  139.1973   75.0882  221.0820 H   0  0  0  0  0  0  0  0  0  0  0  0
  140.9106   74.6490  221.6100 H   0  0  0  0  0  0  0  0  0  0  0  0
  141.4394   76.7011  220.0249 H   0  0  0  0  0  0  0  0  0  0  0  0
  139.8126   77.1892  220.5959 H   0  0  0  0  0  0  0  0  0  0  0  0
  141.4803   78.0673  224.4614 H   0  0  0  0  0  0  0  0  0  0  0  0
  141.8968   80.4439  224.8646 H   0  0  0  0  0  0  0  0  0  0  0  0
  142.1427   82.0539  222.9847 H   0  0  0  0  0  0  0  0  0  0  0  0
  141.9505   81.1994  220.6539 H   0  0  0  0  0  0  0  0  0  0  0  0
  141.5292   78.8109  220.2365 H   0  0  0  0  0  0  0  0  0  0  0  0
  141.1209   72.8885  224.8281 H   0  0  0  0  0  0  0  0  0  0  0  0
  141.7766   71.8685  226.9811 H   0  0  0  0  0  0  0  0  0  0  0  0
  141.5898   69.9160  228.4786 H   0  0  0  0  0  0  0  0  0  0  0  0
  140.7254   67.6827  229.0106 H   0  0  0  0  0  0  0  0  0  0  0  0
  139.2086   66.5155  227.3597 H   0  0  0  0  0  0  0  0  0  0  0  0
  138.6518   67.6919  225.2464 H   0  0  0  0  0  0  0  0  0  0  0  0
  1  2  2  0
  2  3  1  0
  3  4  1  0
  4  5  1  0
  5  6  2  0
  5  7  1  0
  7  8  1  0
  8  9  1  0
  9 10  1  0
  9 11  1  0
 11 12  1  0
 12 13  1  0
 13 14  1  0
 14 15  1  0
 15 16  1  0
 16 17  2  0
 17 18  1  0
 18 19  2  0
 19 20  1  0
 20 21  2  0
  2 22  1  0
 22 23  2  0
 23 24  1  0
 24 25  2  0
 25 26  1  0
 26 27  2  0
 27 28  1  0
 28 29  2  0
 29 30  1  0
 30 31  2  0
 12  7  1  0
 21 16  1  0
 31 22  1  0
 30 25  1  0
  3 32  1  0
  4 33  1  0
  4 34  1  0
  8 35  1  0
  8 36  1  0
  9 37  1  6
 10 38  1  0
 11 39  1  0
 11 40  1  0
 12 41  1  6
 13 42  1  0
 13 43  1  0
 14 44  1  0
 14 45  1  0
 17 46  1  0
 18 47  1  0
 19 48  1  0
 20 49  1  0
 21 50  1  0
 23 51  1  0
 24 52  1  0
 26 53  1  0
 27 54  1  0
 28 55  1  0
 29 56  1  0
M  END
>  <meeko>  (4) 
{"free_energy": -7.55, "intermolecular_energy": -10.24, "internal_energy": -2.21, "cluster_size": 10, "cluster_id": 1, "rank_in_cluster": 10}

$$$$

     RDKit          3D

 56 59  0  0  0  0  0  0  0  0999 V2000
  140.7820   71.0800  221.2570 O   0  0  0  0  0  0  0  0  0  0  0  0
  140.4240   71.8040  222.2480 C   0  0  0  0  0  0  0  0  0  0  0  0
  140.2280   73.2110  222.0940 N   0  0  0  0  0  0  0  0  0  0  0  0
  140.4440   73.7820  220.8020 C   0  0  0  0  0  0  0  0  0  0  0  0
  141.7200   74.5420  220.8290 C   0  0  0  0  0  0  0  0  0  0  0  0
  141.8180   75.7170  221.2640 O   0  0  0  0  0  0  0  0  0  0  0  0
  142.8780   73.8850  220.3310 N   0  0  0  0  0  0  0  0  0  0  0  0
  144.1180   74.4770  219.8250 C   0  0  0  0  0  0  0  0  0  0  0  0
  145.1890   73.4360  220.1180 C   0  0  2  0  0  0  0  0  0  0  0  0
  145.8890   73.0360  219.0070 O   0  0  0  0  0  0  0  0  0  0  0  0
  144.4490   72.3280  220.8280 C   0  0  0  0  0  0  0  0  0  0  0  0
  143.0860   72.4280  220.2150 C   0  0  2  0  0  0  0  0  0  0  0  0
  143.0170   72.1280  218.7560 C   0  0  0  0  0  0  0  0  0  0  0  0
  143.3300   70.7240  218.3640 C   0  0  0  0  0  0  0  0  0  0  0  0
  144.7330   70.5560  218.3480 O   0  0  0  0  0  0  0  0  0  0  0  0
  145.2290   69.2450  218.4580 C   0  0  0  0  0  0  0  0  0  0  0  0
  145.1120   68.5370  219.6500 C   0  0  0  0  0  0  0  0  0  0  0  0
  145.5980   67.2640  219.7420 C   0  0  0  0  0  0  0  0  0  0  0  0
  146.2180   66.6330  218.6750 C   0  0  0  0  0  0  0  0  0  0  0  0
  146.3330   67.3320  217.4960 C   0  0  0  0  0  0  0  0  0  0  0  0
  145.8450   68.6190  217.3950 C   0  0  0  0  0  0  0  0  0  0  0  0
  140.2120   71.1890  223.5540 C   0  0  0  0  0  0  0  0  0  0  0  0
  139.5390   69.9880  223.6440 C   0  0  0  0  0  0  0  0  0  0  0  0
  139.2970   69.3400  224.8350 C   0  0  0  0  0  0  0  0  0  0  0  0
  139.7580   69.9350  225.9820 C   0  0  0  0  0  0  0  0  0  0  0  0
  139.5820   69.3890  227.2370 C   0  0  0  0  0  0  0  0  0  0  0  0
  140.0390   69.9760  228.3940 C   0  0  0  0  0  0  0  0  0  0  0  0
  140.7240   71.1910  228.3140 C   0  0  0  0  0  0  0  0  0  0  0  0
  140.9010   71.7400  227.0540 C   0  0  0  0  0  0  0  0  0  0  0  0
  140.4360   71.1400  225.9030 C   0  0  0  0  0  0  0  0  0  0  0  0
  140.6460   71.7320  224.7050 N   0  0  0  0  0  0  0  0  0  0  0  0
  139.9380   73.8160  222.8820 H   0  0  0  0  0  0  0  0  0  0  0  0
  140.5042   72.9828  220.0486 H   0  0  0  0  0  0  0  0  0  0  0  0
  139.6116   74.4528  220.5428 H   0  0  0  0  0  0  0  0  0  0  0  0
  144.0452   74.6653  218.7437 H   0  0  0  0  0  0  0  0  0  0  0  0
  144.3393   75.4464  220.2954 H   0  0  0  0  0  0  0  0  0  0  0  0
  145.9970   73.8393  220.7461 H   0  0  0  0  0  0  0  0  0  0  0  0
  145.5110   72.2330  218.5750 H   0  0  0  0  0  0  0  0  0  0  0  0
  144.9072   71.3482  220.6281 H   0  0  0  0  0  0  0  0  0  0  0  0
  144.4524   72.4211  221.9241 H   0  0  0  0  0  0  0  0  0  0  0  0
  142.3832   71.7290  220.6920 H   0  0  0  0  0  0  0  0  0  0  0  0
  141.9964   72.3539  218.4134 H   0  0  0  0  0  0  0  0  0  0  0  0
  143.7954   72.7482  218.2876 H   0  0  0  0  0  0  0  0  0  0  0  0
  142.8830   70.0293  219.0904 H   0  0  0  0  0  0  0  0  0  0  0  0
  142.9178   70.5147  217.3659 H   0  0  0  0  0  0  0  0  0  0  0  0
  144.6270   69.0036  220.5201 H   0  0  0  0  0  0  0  0  0  0  0  0
  145.4941   66.7220  220.6936 H   0  0  0  0  0  0  0  0  0  0  0  0
  146.6051   65.6076  218.7680 H   0  0  0  0  0  0  0  0  0  0  0  0
  146.8173   66.8619  216.6274 H   0  0  0  0  0  0  0  0  0  0  0  0
  145.9501   69.1590  216.4425 H   0  0  0  0  0  0  0  0  0  0  0  0
  139.1764   69.5233  222.7152 H   0  0  0  0  0  0  0  0  0  0  0  0
  138.7554   68.3830  224.8654 H   0  0  0  0  0  0  0  0  0  0  0  0
  139.0466   68.4314  227.3166 H   0  0  0  0  0  0  0  0  0  0  0  0
  139.8675   69.4955  229.3685 H   0  0  0  0  0  0  0  0  0  0  0  0
  141.1075   71.6918  229.2152 H   0  0  0  0  0  0  0  0  0  0  0  0
  141.4363   72.6971  226.9683 H   0  0  0  0  0  0  0  0  0  0  0  0
  1  2  2  0
  2  3  1  0
  3  4  1  0
  4  5  1  0
  5  6  2  0
  5  7  1  0
  7  8  1  0
  8  9  1  0
  9 10  1  0
  9 11  1  0
 11 12  1  0
 12 13  1  0
 13 14  1  0
 14 15  1  0
 15 16  1  0
 16 17  2  0
 17 18  1  0
 18 19  2  0
 19 20  1  0
 20 21  2  0
  2 22  1  0
 22 23  2  0
 23 24  1  0
 24 25  2  0
 25 26  1  0
 26 27  2  0
 27 28  1  0
 28 29  2  0
 29 30  1  0
 30 31  2  0
 12  7  1  0
 21 16  1  0
 31 22  1  0
 30 25  1  0
  3 32  1  0
  4 33  1  0
  4 34  1  0
  8 35  1  0
  8 36  1  0
  9 37  1  1
 10 38  1  0
 11 39  1  0
 11 40  1  0
 12 41  1  1
 13 42  1  0
 13 43  1  0
 14 44  1  0
 14 45  1  0
 17 46  1  0
 18 47  1  0
 19 48  1  0
 20 49  1  0
 21 50  1  0
 23 51  1  0
 24 52  1  0
 26 53  1  0
 27 54  1  0
 28 55  1  0
 29 56  1  0
M  END
>  <meeko>  (5) 
{"free_energy": -7.91, "intermolecular_energy": -10.59, "internal_energy": -2.37, "cluster_size": 2, "cluster_id": 2, "rank_in_cluster": 2}

$$$$

     RDKit          3D

 56 59  0  0  0  0  0  0  0  0999 V2000
  139.9300   73.7660  222.7120 O   0  0  0  0  0  0  0  0  0  0  0  0
  140.1880   72.5330  222.4910 C   0  0  0  0  0  0  0  0  0  0  0  0
  140.5570   72.0840  221.1860 N   0  0  0  0  0  0  0  0  0  0  0  0
  140.6290   73.0530  220.1380 C   0  0  0  0  0  0  0  0  0  0  0  0
  141.7720   73.9610  220.4130 C   0  0  0  0  0  0  0  0  0  0  0  0
  141.6380   75.1230  220.8760 O   0  0  0  0  0  0  0  0  0  0  0  0
  143.0750   73.4700  220.1300 N   0  0  0  0  0  0  0  0  0  0  0  0
  144.1100   74.0610  219.2800 C   0  0  0  0  0  0  0  0  0  0  0  0
  145.4240   73.5800  219.8800 C   0  0  2  0  0  0  0  0  0  0  0  0
  146.2250   72.9110  218.9890 O   0  0  0  0  0  0  0  0  0  0  0  0
  145.0090   72.7690  221.0840 C   0  0  0  0  0  0  0  0  0  0  0  0
  143.6830   72.2270  220.6460 C   0  0  2  0  0  0  0  0  0  0  0  0
  143.7240   71.2900  219.4880 C   0  0  0  0  0  0  0  0  0  0  0  0
  144.2740   69.9320  219.7680 C   0  0  0  0  0  0  0  0  0  0  0  0
  145.6220   69.8890  219.3440 O   0  0  0  0  0  0  0  0  0  0  0  0
  145.9620   68.9380  218.3650 C   0  0  0  0  0  0  0  0  0  0  0  0
  145.9450   67.5780  218.6570 C   0  0  0  0  0  0  0  0  0  0  0  0
  146.2790   66.6670  217.6980 C   0  0  0  0  0  0  0  0  0  0  0  0
  146.6420   67.0460  216.4150 C   0  0  0  0  0  0  0  0  0  0  0  0
  146.6590   68.3910  216.1250 C   0  0  0  0  0  0  0  0  0  0  0  0
  146.3240   69.3190  217.0900 C   0  0  0  0  0  0  0  0  0  0  0  0
  140.1060   71.5710  223.5840 C   0  0  0  0  0  0  0  0  0  0  0  0
  139.4810   70.3570  223.3840 C   0  0  0  0  0  0  0  0  0  0  0  0
  139.3610   69.3940  224.3610 C   0  0  0  0  0  0  0  0  0  0  0  0
  139.8960   69.6740  225.5930 C   0  0  0  0  0  0  0  0  0  0  0  0
  139.8430   68.7940  226.6550 C   0  0  0  0  0  0  0  0  0  0  0  0
  140.3760   69.0640  227.8940 C   0  0  0  0  0  0  0  0  0  0  0  0
  141.0120   70.2900  228.1070 C   0  0  0  0  0  0  0  0  0  0  0  0
  141.0660   71.1730  227.0410 C   0  0  0  0  0  0  0  0  0  0  0  0
  140.5260   70.8890  225.8040 C   0  0  0  0  0  0  0  0  0  0  0  0
  140.6160   71.7990  224.8080 N   0  0  0  0  0  0  0  0  0  0  0  0
  140.7710   71.0920  220.9850 H   0  0  0  0  0  0  0  0  0  0  0  0
  140.7816   72.5460  219.1738 H   0  0  0  0  0  0  0  0  0  0  0  0
  139.6929   73.6288  220.0923 H   0  0  0  0  0  0  0  0  0  0  0  0
  144.0063   73.7111  218.2423 H   0  0  0  0  0  0  0  0  0  0  0  0
  144.0447   75.1586  219.2468 H   0  0  0  0  0  0  0  0  0  0  0  0
  146.0776   74.4159  220.1701 H   0  0  0  0  0  0  0  0  0  0  0  0
  145.9720   71.9650  218.8690 H   0  0  0  0  0  0  0  0  0  0  0  0
  145.7252   71.9593  221.2877 H   0  0  0  0  0  0  0  0  0  0  0  0
  144.9670   73.3481  222.0183 H   0  0  0  0  0  0  0  0  0  0  0  0
  143.1953   71.6676  221.4579 H   0  0  0  0  0  0  0  0  0  0  0  0
  142.6957   71.1673  219.1172 H   0  0  0  0  0  0  0  0  0  0  0  0
  144.4119   71.7456  218.7606 H   0  0  0  0  0  0  0  0  0  0  0  0
  144.2194   69.7265  220.8473 H   0  0  0  0  0  0  0  0  0  0  0  0
  143.6884   69.1734  219.2279 H   0  0  0  0  0  0  0  0  0  0  0  0
  145.6616   67.2364  219.6635 H   0  0  0  0  0  0  0  0  0  0  0  0
  146.2596   65.5967  217.9512 H   0  0  0  0  0  0  0  0  0  0  0  0
  146.9075   66.2969  215.6545 H   0  0  0  0  0  0  0  0  0  0  0  0
  146.9416   68.7289  215.1170 H   0  0  0  0  0  0  0  0  0  0  0  0
  146.3463   70.3890  216.8359 H   0  0  0  0  0  0  0  0  0  0  0  0
  139.0560   70.1474  222.3913 H   0  0  0  0  0  0  0  0  0  0  0  0
  138.8558   68.4374  224.1614 H   0  0  0  0  0  0  0  0  0  0  0  0
  139.3475   67.8239  226.5022 H   0  0  0  0  0  0  0  0  0  0  0  0
  140.3027   68.3253  228.7057 H   0  0  0  0  0  0  0  0  0  0  0  0
  141.4523   70.5438  229.0825 H   0  0  0  0  0  0  0  0  0  0  0  0
  141.5617   72.1440  227.1876 H   0  0  0  0  0  0  0  0  0  0  0  0
  1  2  2  0
  2  3  1  0
  3  4  1  0
  4  5  1  0
  5  6  2  0
  5  7  1  0
  7  8  1  0
  8  9  1  0
  9 10  1  0
  9 11  1  0
 11 12  1  0
 12 13  1  0
 13 14  1  0
 14 15  1  0
 15 16  1  0
 16 17  2  0
 17 18  1  0
 18 19  2  0
 19 20  1  0
 20 21  2  0
  2 22  1  0
 22 23  2  0
 23 24  1  0
 24 25  2  0
 25 26  1  0
 26 27  2  0
 27 28  1  0
 28 29  2  0
 29 30  1  0
 30 31  2  0
 12  7  1  0
 21 16  1  0
 31 22  1  0
 30 25  1  0
  3 32  1  0
  4 33  1  0
  4 34  1  0
  8 35  1  0
  8 36  1  0
  9 37  1  1
 10 38  1  0
 11 39  1  0
 11 40  1  0
 12 41  1  1
 13 42  1  0
 13 43  1  0
 14 44  1  0
 14 45  1  0
 17 46  1  0
 18 47  1  0
 19 48  1  0
 20 49  1  0
 21 50  1  0
 23 51  1  0
 24 52  1  0
 26 53  1  0
 27 54  1  0
 28 55  1  0
 29 56  1  0
M  END
>  <meeko>  (6) 
{"free_energy": -7.96, "intermolecular_energy": -10.64, "internal_energy": -2.01, "cluster_size": 2, "cluster_id": 2, "rank_in_cluster": 1}

$$$$

     RDKit          3D

 56 59  0  0  0  0  0  0  0  0999 V2000
  137.2860   76.4150  222.2010 O   0  0  0  0  0  0  0  0  0  0  0  0
  138.5570   76.4320  222.3400 C   0  0  0  0  0  0  0  0  0  0  0  0
  139.3320   75.2510  222.1280 N   0  0  0  0  0  0  0  0  0  0  0  0
  138.6450   74.0540  221.7560 C   0  0  0  0  0  0  0  0  0  0  0  0
  139.4890   72.8900  222.1330 C   0  0  0  0  0  0  0  0  0  0  0  0
  140.7040   72.9860  222.4410 O   0  0  0  0  0  0  0  0  0  0  0  0
  138.8670   71.6120  222.1370 N   0  0  0  0  0  0  0  0  0  0  0  0
  137.6640   71.1790  221.4230 C   0  0  0  0  0  0  0  0  0  0  0  0
  137.8680   69.6880  221.1950 C   0  0  2  0  0  0  0  0  0  0  0  0
  136.8570   68.9090  221.7000 O   0  0  0  0  0  0  0  0  0  0  0  0
  139.2320   69.4040  221.7770 C   0  0  0  0  0  0  0  0  0  0  0  0
  139.3110   70.4150  222.8790 C   0  0  2  0  0  0  0  0  0  0  0  0
  138.3250   70.2390  223.9830 C   0  0  0  0  0  0  0  0  0  0  0  0
  138.4380   68.9730  224.7620 C   0  0  0  0  0  0  0  0  0  0  0  0
  139.7480   68.8740  225.2860 O   0  0  0  0  0  0  0  0  0  0  0  0
  140.1730   69.8920  226.1580 C   0  0  0  0  0  0  0  0  0  0  0  0
  141.0180   70.9040  225.7140 C   0  0  0  0  0  0  0  0  0  0  0  0
  141.4240   71.8850  226.5730 C   0  0  0  0  0  0  0  0  0  0  0  0
  141.0210   71.9170  227.8990 C   0  0  0  0  0  0  0  0  0  0  0  0
  140.1850   70.9160  228.3380 C   0  0  0  0  0  0  0  0  0  0  0  0
  139.7710   69.9210  227.4770 C   0  0  0  0  0  0  0  0  0  0  0  0
  139.2260   77.6710  222.7200 C   0  0  0  0  0  0  0  0  0  0  0  0
  138.4770   78.7670  223.0960 C   0  0  0  0  0  0  0  0  0  0  0  0
  139.0290   79.9730  223.4690 C   0  0  0  0  0  0  0  0  0  0  0  0
  140.3970   80.0700  223.4600 C   0  0  0  0  0  0  0  0  0  0  0  0
  141.0720   81.2210  223.8130 C   0  0  0  0  0  0  0  0  0  0  0  0
  142.4440   81.3310  223.8080 C   0  0  0  0  0  0  0  0  0  0  0  0
  143.2120   80.2270  223.4300 C   0  0  0  0  0  0  0  0  0  0  0  0
  142.5340   79.0710  223.0770 C   0  0  0  0  0  0  0  0  0  0  0  0
  141.1590   78.9760  223.0850 C   0  0  0  0  0  0  0  0  0  0  0  0
  140.5640   77.8150  222.7290 N   0  0  0  0  0  0  0  0  0  0  0  0
  140.3620   75.2410  222.2350 H   0  0  0  0  0  0  0  0  0  0  0  0
  137.6812   74.0000  222.2835 H   0  0  0  0  0  0  0  0  0  0  0  0
  138.4571   74.0483  220.6722 H   0  0  0  0  0  0  0  0  0  0  0  0
  136.7654   71.3594  222.0313 H   0  0  0  0  0  0  0  0  0  0  0  0
  137.5175   71.7286  220.4815 H   0  0  0  0  0  0  0  0  0  0  0  0
  137.8293   69.4234  220.1280 H   0  0  0  0  0  0  0  0  0  0  0  0
  136.0860   68.8250  221.0890 H   0  0  0  0  0  0  0  0  0  0  0  0
  139.2945   68.3782  222.1692 H   0  0  0  0  0  0  0  0  0  0  0  0
  140.0517   69.4756  221.0469 H   0  0  0  0  0  0  0  0  0  0  0  0
  140.2985   70.3980  223.3633 H   0  0  0  0  0  0  0  0  0  0  0  0
  138.4502   71.0779  224.6834 H   0  0  0  0  0  0  0  0  0  0  0  0
  137.3385   70.2025  223.4977 H   0  0  0  0  0  0  0  0  0  0  0  0
  137.7099   68.9803  225.5865 H   0  0  0  0  0  0  0  0  0  0  0  0
  138.2317   68.1129  224.1081 H   0  0  0  0  0  0  0  0  0  0  0  0
  141.3600   70.9141  224.6686 H   0  0  0  0  0  0  0  0  0  0  0  0
  142.0924   72.6753  226.2007 H   0  0  0  0  0  0  0  0  0  0  0  0
  141.3579   72.7151  228.5769 H   0  0  0  0  0  0  0  0  0  0  0  0
  139.8442   70.9092  229.3838 H   0  0  0  0  0  0  0  0  0  0  0  0
  139.1036   69.1310  227.8517 H   0  0  0  0  0  0  0  0  0  0  0  0
  137.3810   78.6730  223.0981 H   0  0  0  0  0  0  0  0  0  0  0  0
  138.3974   80.8245  223.7624 H   0  0  0  0  0  0  0  0  0  0  0  0
  140.4812   82.0984  224.1148 H   0  0  0  0  0  0  0  0  0  0  0  0
  142.9289   82.2749  224.0976 H   0  0  0  0  0  0  0  0  0  0  0  0
  144.3109   80.2734  223.4132 H   0  0  0  0  0  0  0  0  0  0  0  0
  143.1196   78.1895  222.7769 H   0  0  0  0  0  0  0  0  0  0  0  0
  1  2  2  0
  2  3  1  0
  3  4  1  0
  4  5  1  0
  5  6  2  0
  5  7  1  0
  7  8  1  0
  8  9  1  0
  9 10  1  0
  9 11  1  0
 11 12  1  0
 12 13  1  0
 13 14  1  0
 14 15  1  0
 15 16  1  0
 16 17  2  0
 17 18  1  0
 18 19  2  0
 19 20  1  0
 20 21  2  0
  2 22  1  0
 22 23  2  0
 23 24  1  0
 24 25  2  0
 25 26  1  0
 26 27  2  0
 27 28  1  0
 28 29  2  0
 29 30  1  0
 30 31  2  0
 12  7  1  0
 21 16  1  0
 31 22  1  0
 30 25  1  0
  3 32  1  0
  4 33  1  0
  4 34  1  0
  8 35  1  0
  8 36  1  0
  9 37  1  6
 10 38  1  0
 11 39  1  0
 11 40  1  0
 12 41  1  1
 13 42  1  0
 13 43  1  0
 14 44  1  0
 14 45  1  0
 17 46  1  0
 18 47  1  0
 19 48  1  0
 20 49  1  0
 21 50  1  0
 23 51  1  0
 24 52  1  0
 26 53  1  0
 27 54  1  0
 28 55  1  0
 29 56  1  0
M  END
>  <meeko>  (7) 
{"free_energy": -7.95, "intermolecular_energy": -10.63, "internal_energy": -2.02, "cluster_size": 1, "cluster_id": 3, "rank_in_cluster": 1}

$$$$

     RDKit          3D

 56 59  0  0  0  0  0  0  0  0999 V2000
  139.1710   74.7620  222.4630 O   0  0  0  0  0  0  0  0  0  0  0  0
  140.0480   75.5080  221.9060 C   0  0  0  0  0  0  0  0  0  0  0  0
  140.8760   75.0060  220.8560 N   0  0  0  0  0  0  0  0  0  0  0  0
  140.6950   73.6480  220.4490 C   0  0  0  0  0  0  0  0  0  0  0  0
  141.8680   72.8590  220.9060 C   0  0  0  0  0  0  0  0  0  0  0  0
  141.7980   71.9590  221.7820 O   0  0  0  0  0  0  0  0  0  0  0  0
  143.1230   73.1540  220.3080 N   0  0  0  0  0  0  0  0  0  0  0  0
  144.4410   72.6060  220.6330 C   0  0  0  0  0  0  0  0  0  0  0  0
  145.2200   72.6750  219.3270 C   0  0  2  0  0  0  0  0  0  0  0  0
  146.3940   73.3800  219.4210 O   0  0  0  0  0  0  0  0  0  0  0  0
  144.2300   73.2320  218.3310 C   0  0  0  0  0  0  0  0  0  0  0  0
  143.3750   74.1000  219.2020 C   0  0  2  0  0  0  0  0  0  0  0  0
  144.0670   75.2660  219.8220 C   0  0  0  0  0  0  0  0  0  0  0  0
  143.6560   76.6080  219.3200 C   0  0  0  0  0  0  0  0  0  0  0  0
  142.2760   76.5800  219.0140 O   0  0  0  0  0  0  0  0  0  0  0  0
  141.5520   77.7740  219.1790 C   0  0  0  0  0  0  0  0  0  0  0  0
  140.1610   77.7720  219.1610 C   0  0  0  0  0  0  0  0  0  0  0  0
  139.4720   78.9400  219.3210 C   0  0  0  0  0  0  0  0  0  0  0  0
  140.1130   80.1550  219.5060 C   0  0  0  0  0  0  0  0  0  0  0  0
  141.4890   80.1570  219.5240 C   0  0  0  0  0  0  0  0  0  0  0  0
  142.1930   78.9820  219.3620 C   0  0  0  0  0  0  0  0  0  0  0  0
  140.2060   76.8900  222.3470 C   0  0  0  0  0  0  0  0  0  0  0  0
  139.0940   77.6320  222.6880 C   0  0  0  0  0  0  0  0  0  0  0  0
  139.1550   78.9410  223.1140 C   0  0  0  0  0  0  0  0  0  0  0  0
  140.3950   79.5200  223.1960 C   0  0  0  0  0  0  0  0  0  0  0  0
  140.5920   80.8220  223.6080 C   0  0  0  0  0  0  0  0  0  0  0  0
  141.8310   81.4150  223.6950 C   0  0  0  0  0  0  0  0  0  0  0  0
  142.9640   80.6720  223.3520 C   0  0  0  0  0  0  0  0  0  0  0  0
  142.7660   79.3650  222.9380 C   0  0  0  0  0  0  0  0  0  0  0  0
  141.5180   78.7840  222.8560 C   0  0  0  0  0  0  0  0  0  0  0  0
  141.4000   77.5020  222.4440 N   0  0  0  0  0  0  0  0  0  0  0  0
  141.5910   75.5920  220.3910 H   0  0  0  0  0  0  0  0  0  0  0  0
  139.7772   73.2442  220.9012 H   0  0  0  0  0  0  0  0  0  0  0  0
  140.6058   73.5912  219.3541 H   0  0  0  0  0  0  0  0  0  0  0  0
  144.9318   73.2105  221.4100 H   0  0  0  0  0  0  0  0  0  0  0  0
  144.3801   71.5812  221.0280 H   0  0  0  0  0  0  0  0  0  0  0  0
  145.5879   71.6874  219.0118 H   0  0  0  0  0  0  0  0  0  0  0  0
  146.2660   74.3580  219.3930 H   0  0  0  0  0  0  0  0  0  0  0  0
  144.7348   73.8208  217.5509 H   0  0  0  0  0  0  0  0  0  0  0  0
  143.6689   72.4615  217.7819 H   0  0  0  0  0  0  0  0  0  0  0  0
  142.5342   74.5260  218.6349 H   0  0  0  0  0  0  0  0  0  0  0  0
  143.8729   75.2369  220.9044 H   0  0  0  0  0  0  0  0  0  0  0  0
  145.1285   75.1597  219.5540 H   0  0  0  0  0  0  0  0  0  0  0  0
  143.8473   77.3661  220.0938 H   0  0  0  0  0  0  0  0  0  0  0  0
  144.2325   76.8609  218.4180 H   0  0  0  0  0  0  0  0  0  0  0  0
  139.6151   76.8278  219.0176 H   0  0  0  0  0  0  0  0  0  0  0  0
  138.3724   78.9159  219.3025 H   0  0  0  0  0  0  0  0  0  0  0  0
  139.5412   81.0860  219.6341 H   0  0  0  0  0  0  0  0  0  0  0  0
  142.0316   81.1029  219.6687 H   0  0  0  0  0  0  0  0  0  0  0  0
  143.2925   79.0087  219.3791 H   0  0  0  0  0  0  0  0  0  0  0  0
  138.1063   77.1532  222.6160 H   0  0  0  0  0  0  0  0  0  0  0  0
  138.2447   79.4994  223.3779 H   0  0  0  0  0  0  0  0  0  0  0  0
  139.7099   81.4192  223.8821 H   0  0  0  0  0  0  0  0  0  0  0  0
  141.9281   82.4584  224.0296 H   0  0  0  0  0  0  0  0  0  0  0  0
  143.9725   81.1076  223.4085 H   0  0  0  0  0  0  0  0  0  0  0  0
  143.6444   78.7631  222.6620 H   0  0  0  0  0  0  0  0  0  0  0  0
  1  2  2  0
  2  3  1  0
  3  4  1  0
  4  5  1  0
  5  6  2  0
  5  7  1  0
  7  8  1  0
  8  9  1  0
  9 10  1  0
  9 11  1  0
 11 12  1  0
 12 13  1  0
 13 14  1  0
 14 15  1  0
 15 16  1  0
 16 17  2  0
 17 18  1  0
 18 19  2  0
 19 20  1  0
 20 21  2  0
  2 22  1  0
 22 23  2  0
 23 24  1  0
 24 25  2  0
 25 26  1  0
 26 27  2  0
 27 28  1  0
 28 29  2  0
 29 30  1  0
 30 31  2  0
 12  7  1  0
 21 16  1  0
 31 22  1  0
 30 25  1  0
  3 32  1  0
  4 33  1  0
  4 34  1  0
  8 35  1  0
  8 36  1  0
  9 37  1  6
 10 38  1  0
 11 39  1  0
 11 40  1  0
 12 41  1  6
 13 42  1  0
 13 43  1  0
 14 44  1  0
 14 45  1  0
 17 46  1  0
 18 47  1  0
 19 48  1  0
 20 49  1  0
 21 50  1  0
 23 51  1  0
 24 52  1  0
 26 53  1  0
 27 54  1  0
 28 55  1  0
 29 56  1  0
M  END
>  <meeko>  (8) 
{"free_energy": -6.77, "intermolecular_energy": -9.45, "internal_energy": -3.8, "cluster_size": 5, "cluster_id": 5, "rank_in_cluster": 2}

$$$$

     RDKit          3D

 56 59  0  0  0  0  0  0  0  0999 V2000
  140.0770   73.1600  222.7350 O   0  0  0  0  0  0  0  0  0  0  0  0
  140.2210   71.8900  222.7870 C   0  0  0  0  0  0  0  0  0  0  0  0
  140.3210   71.1140  221.5920 N   0  0  0  0  0  0  0  0  0  0  0  0
  140.2550   71.7990  220.3390 C   0  0  0  0  0  0  0  0  0  0  0  0
  141.6400   71.9950  219.8360 C   0  0  0  0  0  0  0  0  0  0  0  0
  142.3550   71.0600  219.3930 O   0  0  0  0  0  0  0  0  0  0  0  0
  142.1620   73.3160  219.8700 N   0  0  0  0  0  0  0  0  0  0  0  0
  143.5290   73.7510  220.1610 C   0  0  0  0  0  0  0  0  0  0  0  0
  143.6930   75.0520  219.3880 C   0  0  2  0  0  0  0  0  0  0  0  0
  144.0600   76.1180  220.1710 O   0  0  0  0  0  0  0  0  0  0  0  0
  142.3780   75.2240  218.6650 C   0  0  0  0  0  0  0  0  0  0  0  0
  141.4210   74.5670  219.6110 C   0  0  2  0  0  0  0  0  0  0  0  0
  141.2740   75.2290  220.9380 C   0  0  0  0  0  0  0  0  0  0  0  0
  140.6640   76.5890  220.9240 C   0  0  0  0  0  0  0  0  0  0  0  0
  141.6940   77.5510  220.8170 O   0  0  0  0  0  0  0  0  0  0  0  0
  141.7600   78.5420  221.8120 C   0  0  0  0  0  0  0  0  0  0  0  0
  141.4590   78.2420  223.1370 C   0  0  0  0  0  0  0  0  0  0  0  0
  141.5260   79.2140  224.0930 C   0  0  0  0  0  0  0  0  0  0  0  0
  141.8890   80.5180  223.7940 C   0  0  0  0  0  0  0  0  0  0  0  0
  142.1870   80.8150  222.4840 C   0  0  0  0  0  0  0  0  0  0  0  0
  142.1210   79.8390  221.5120 C   0  0  0  0  0  0  0  0  0  0  0  0
  140.2840   71.2230  224.0830 C   0  0  0  0  0  0  0  0  0  0  0  0
  140.7600   71.9060  225.1830 C   0  0  0  0  0  0  0  0  0  0  0  0
  140.8520   71.3520  226.4410 C   0  0  0  0  0  0  0  0  0  0  0  0
  140.4450   70.0510  226.5880 C   0  0  0  0  0  0  0  0  0  0  0  0
  140.4860   69.3810  227.7940 C   0  0  0  0  0  0  0  0  0  0  0  0
  140.0810   68.0760  227.9540 C   0  0  0  0  0  0  0  0  0  0  0  0
  139.5960   67.3750  226.8470 C   0  0  0  0  0  0  0  0  0  0  0  0
  139.5550   68.0480  225.6360 C   0  0  0  0  0  0  0  0  0  0  0  0
  139.9660   69.3560  225.4900 C   0  0  0  0  0  0  0  0  0  0  0  0
  139.8960   69.9500  224.2780 N   0  0  0  0  0  0  0  0  0  0  0  0
  140.4380   70.0860  221.6110 H   0  0  0  0  0  0  0  0  0  0  0  0
  139.6796   71.1996  219.6181 H   0  0  0  0  0  0  0  0  0  0  0  0
  139.7588   72.7724  220.4669 H   0  0  0  0  0  0  0  0  0  0  0  0
  143.6606   73.9214  221.2397 H   0  0  0  0  0  0  0  0  0  0  0  0
  144.2762   72.9976  219.8712 H   0  0  0  0  0  0  0  0  0  0  0  0
  144.5332   75.0097  218.6793 H   0  0  0  0  0  0  0  0  0  0  0  0
  143.2970   76.5490  220.6260 H   0  0  0  0  0  0  0  0  0  0  0  0
  142.1348   76.2874  218.5233 H   0  0  0  0  0  0  0  0  0  0  0  0
  142.3673   74.7964  217.6515 H   0  0  0  0  0  0  0  0  0  0  0  0
  140.4061   74.5320  219.1882 H   0  0  0  0  0  0  0  0  0  0  0  0
  140.6444   74.5839  221.5684 H   0  0  0  0  0  0  0  0  0  0  0  0
  142.2976   75.3662  221.3168 H   0  0  0  0  0  0  0  0  0  0  0  0
  139.9832   76.6796  220.0647 H   0  0  0  0  0  0  0  0  0  0  0  0
  140.0958   76.7525  221.8516 H   0  0  0  0  0  0  0  0  0  0  0  0
  141.1663   77.2187  223.4148 H   0  0  0  0  0  0  0  0  0  0  0  0
  141.2842   78.9542  225.1342 H   0  0  0  0  0  0  0  0  0  0  0  0
  141.9372   81.2889  224.5772 H   0  0  0  0  0  0  0  0  0  0  0  0
  142.4802   81.8391  222.2098 H   0  0  0  0  0  0  0  0  0  0  0  0
  142.3623   80.1014  220.4714 H   0  0  0  0  0  0  0  0  0  0  0  0
  141.0834   72.9487  225.0485 H   0  0  0  0  0  0  0  0  0  0  0  0
  141.2368   71.9305  227.2938 H   0  0  0  0  0  0  0  0  0  0  0  0
  140.8632   69.9200  228.6756 H   0  0  0  0  0  0  0  0  0  0  0  0
  140.1382   67.5912  228.9397 H   0  0  0  0  0  0  0  0  0  0  0  0
  139.2602   66.3310  226.9331 H   0  0  0  0  0  0  0  0  0  0  0  0
  139.1774   67.5144  224.7513 H   0  0  0  0  0  0  0  0  0  0  0  0
  1  2  2  0
  2  3  1  0
  3  4  1  0
  4  5  1  0
  5  6  2  0
  5  7  1  0
  7  8  1  0
  8  9  1  0
  9 10  1  0
  9 11  1  0
 11 12  1  0
 12 13  1  0
 13 14  1  0
 14 15  1  0
 15 16  1  0
 16 17  2  0
 17 18  1  0
 18 19  2  0
 19 20  1  0
 20 21  2  0
  2 22  1  0
 22 23  2  0
 23 24  1  0
 24 25  2  0
 25 26  1  0
 26 27  2  0
 27 28  1  0
 28 29  2  0
 29 30  1  0
 30 31  2  0
 12  7  1  0
 21 16  1  0
 31 22  1  0
 30 25  1  0
  3 32  1  0
  4 33  1  0
  4 34  1  0
  8 35  1  0
  8 36  1  0
  9 37  1  6
 10 38  1  0
 11 39  1  0
 11 40  1  0
 12 41  1  6
 13 42  1  0
 13 43  1  0
 14 44  1  0
 14 45  1  0
 17 46  1  0
 18 47  1  0
 19 48  1  0
 20 49  1  0
 21 50  1  0
 23 51  1  0
 24 52  1  0
 26 53  1  0
 27 54  1  0
 28 55  1  0
 29 56  1  0
M  END
>  <meeko>  (9) 
{"free_energy": -8.01, "intermolecular_energy": -10.7, "internal_energy": -2.35, "cluster_size": 10, "cluster_id": 1, "rank_in_cluster": 9}

$$$$

     RDKit          3D

 56 59  0  0  0  0  0  0  0  0999 V2000
  140.2760   73.4020  222.3890 O   0  0  0  0  0  0  0  0  0  0  0  0
  140.2530   72.1230  222.3790 C   0  0  0  0  0  0  0  0  0  0  0  0
  140.3530   71.3990  221.1520 N   0  0  0  0  0  0  0  0  0  0  0  0
  140.4780   72.1450  219.9390 C   0  0  0  0  0  0  0  0  0  0  0  0
  141.9180   72.4260  219.7050 C   0  0  0  0  0  0  0  0  0  0  0  0
  142.7710   71.5300  219.4790 O   0  0  0  0  0  0  0  0  0  0  0  0
  142.3300   73.7860  219.7450 N   0  0  0  0  0  0  0  0  0  0  0  0
  143.6660   74.3280  219.9990 C   0  0  0  0  0  0  0  0  0  0  0  0
  143.6940   75.6500  219.2430 C   0  0  2  0  0  0  0  0  0  0  0  0
  143.9980   76.7300  220.0340 O   0  0  0  0  0  0  0  0  0  0  0  0
  142.3450   75.7230  218.5690 C   0  0  0  0  0  0  0  0  0  0  0  0
  141.4790   74.9740  219.5340 C   0  0  2  0  0  0  0  0  0  0  0  0
  141.3250   75.6010  220.8770 C   0  0  0  0  0  0  0  0  0  0  0  0
  140.5500   76.8740  220.9170 C   0  0  0  0  0  0  0  0  0  0  0  0
  141.4340   77.9540  220.6930 O   0  0  0  0  0  0  0  0  0  0  0  0
  141.7290   78.7860  221.7870 C   0  0  0  0  0  0  0  0  0  0  0  0
  142.2210   80.0720  221.5920 C   0  0  0  0  0  0  0  0  0  0  0  0
  142.5040   80.8690  222.6640 C   0  0  0  0  0  0  0  0  0  0  0  0
  142.3160   80.4410  223.9700 C   0  0  0  0  0  0  0  0  0  0  0  0
  141.8290   79.1700  224.1630 C   0  0  0  0  0  0  0  0  0  0  0  0
  141.5420   78.3580  223.0850 C   0  0  0  0  0  0  0  0  0  0  0  0
  140.1250   71.3930  223.6360 C   0  0  0  0  0  0  0  0  0  0  0  0
  139.4410   70.1960  223.6660 C   0  0  0  0  0  0  0  0  0  0  0  0
  139.2750   69.4440  224.8080 C   0  0  0  0  0  0  0  0  0  0  0  0
  139.8260   69.9280  225.9670 C   0  0  0  0  0  0  0  0  0  0  0  0
  139.7310   69.2720  227.1770 C   0  0  0  0  0  0  0  0  0  0  0  0
  140.2790   69.7470  228.3470 C   0  0  0  0  0  0  0  0  0  0  0  0
  140.9750   70.9580  228.3270 C   0  0  0  0  0  0  0  0  0  0  0  0
  141.0700   71.6170  227.1120 C   0  0  0  0  0  0  0  0  0  0  0  0
  140.5150   71.1300  225.9480 C   0  0  0  0  0  0  0  0  0  0  0  0
  140.6480   71.8260  224.7970 N   0  0  0  0  0  0  0  0  0  0  0  0
  140.3370   70.3650  221.1200 H   0  0  0  0  0  0  0  0  0  0  0  0
  140.0730   71.5600  219.1001 H   0  0  0  0  0  0  0  0  0  0  0  0
  139.9176   73.0883  220.0171 H   0  0  0  0  0  0  0  0  0  0  0  0
  143.8200   74.4929  221.0756 H   0  0  0  0  0  0  0  0  0  0  0  0
  144.4630   73.6437  219.6726 H   0  0  0  0  0  0  0  0  0  0  0  0
  144.5083   75.6888  218.5045 H   0  0  0  0  0  0  0  0  0  0  0  0
  143.3840   77.4930  219.9070 H   0  0  0  0  0  0  0  0  0  0  0  0
  142.0100   76.7646  218.4554 H   0  0  0  0  0  0  0  0  0  0  0  0
  142.3341   75.3116  217.5489 H   0  0  0  0  0  0  0  0  0  0  0  0
  140.4563   74.8608  219.1452 H   0  0  0  0  0  0  0  0  0  0  0  0
  140.8171   74.8767  221.5307 H   0  0  0  0  0  0  0  0  0  0  0  0
  142.3430   75.8623  221.2017 H   0  0  0  0  0  0  0  0  0  0  0  0
  139.7771   76.8608  220.1345 H   0  0  0  0  0  0  0  0  0  0  0  0
  140.0657   76.9855  221.8984 H   0  0  0  0  0  0  0  0  0  0  0  0
  142.3827   80.4483  220.5711 H   0  0  0  0  0  0  0  0  0  0  0  0
  142.8933   81.8823  222.4863 H   0  0  0  0  0  0  0  0  0  0  0  0
  142.5487   81.0963  224.8223 H   0  0  0  0  0  0  0  0  0  0  0  0
  141.6668   78.7973  225.1851 H   0  0  0  0  0  0  0  0  0  0  0  0
  141.1545   77.3444  223.2651 H   0  0  0  0  0  0  0  0  0  0  0  0
  139.0048   69.8218  222.7281 H   0  0  0  0  0  0  0  0  0  0  0  0
  138.7224   68.4930  224.7911 H   0  0  0  0  0  0  0  0  0  0  0  0
  139.1872   68.3164  227.2085 H   0  0  0  0  0  0  0  0  0  0  0  0
  140.1704   69.1812  229.2841 H   0  0  0  0  0  0  0  0  0  0  0  0
  141.4294   71.3718  229.2393 H   0  0  0  0  0  0  0  0  0  0  0  0
  141.6133   72.5727  227.0745 H   0  0  0  0  0  0  0  0  0  0  0  0
  1  2  2  0
  2  3  1  0
  3  4  1  0
  4  5  1  0
  5  6  2  0
  5  7  1  0
  7  8  1  0
  8  9  1  0
  9 10  1  0
  9 11  1  0
 11 12  1  0
 12 13  1  0
 13 14  1  0
 14 15  1  0
 15 16  1  0
 16 17  2  0
 17 18  1  0
 18 19  2  0
 19 20  1  0
 20 21  2  0
  2 22  1  0
 22 23  2  0
 23 24  1  0
 24 25  2  0
 25 26  1  0
 26 27  2  0
 27 28  1  0
 28 29  2  0
 29 30  1  0
 30 31  2  0
 12  7  1  0
 21 16  1  0
 31 22  1  0
 30 25  1  0
  3 32  1  0
  4 33  1  0
  4 34  1  0
  8 35  1  0
  8 36  1  0
  9 37  1  6
 10 38  1  0
 11 39  1  0
 11 40  1  0
 12 41  1  6
 13 42  1  0
 13 43  1  0
 14 44  1  0
 14 45  1  0
 17 46  1  0
 18 47  1  0
 19 48  1  0
 20 49  1  0
 21 50  1  0
 23 51  1  0
 24 52  1  0
 26 53  1  0
 27 54  1  0
 28 55  1  0
 29 56  1  0
M  END
>  <meeko>  (10) 
{"free_energy": -8.43, "intermolecular_energy": -11.11, "internal_energy": -2.19, "cluster_size": 10, "cluster_id": 1, "rank_in_cluster": 6}

$$$$

     RDKit          3D

 56 59  0  0  0  0  0  0  0  0999 V2000
  140.2740   73.4330  222.2870 O   0  0  0  0  0  0  0  0  0  0  0  0
  140.5240   72.1810  222.3590 C   0  0  0  0  0  0  0  0  0  0  0  0
  141.0440   71.4720  221.2330 N   0  0  0  0  0  0  0  0  0  0  0  0
  141.2750   72.2030  220.0270 C   0  0  0  0  0  0  0  0  0  0  0  0
  142.5580   72.9410  220.1620 C   0  0  0  0  0  0  0  0  0  0  0  0
  143.6180   72.4160  220.5880 O   0  0  0  0  0  0  0  0  0  0  0  0
  142.5610   74.3110  219.7860 N   0  0  0  0  0  0  0  0  0  0  0  0
  143.7080   75.1910  219.5490 C   0  0  0  0  0  0  0  0  0  0  0  0
  143.2070   76.2110  218.5360 C   0  0  2  0  0  0  0  0  0  0  0  0
  143.3360   77.5120  218.9540 O   0  0  0  0  0  0  0  0  0  0  0  0
  141.7900   75.7820  218.2420 C   0  0  0  0  0  0  0  0  0  0  0  0
  141.3810   75.1650  219.5440 C   0  0  2  0  0  0  0  0  0  0  0  0
  141.3180   76.0990  220.7050 C   0  0  0  0  0  0  0  0  0  0  0  0
  140.4870   77.3210  220.5120 C   0  0  0  0  0  0  0  0  0  0  0  0
  141.3380   78.4490  220.4590 O   0  0  0  0  0  0  0  0  0  0  0  0
  141.6750   79.0630  221.6780 C   0  0  0  0  0  0  0  0  0  0  0  0
  142.2460   80.3310  221.7040 C   0  0  0  0  0  0  0  0  0  0  0  0
  142.5690   80.9140  222.8950 C   0  0  0  0  0  0  0  0  0  0  0  0
  142.3460   80.2830  224.1090 C   0  0  0  0  0  0  0  0  0  0  0  0
  141.7810   79.0290  224.0850 C   0  0  0  0  0  0  0  0  0  0  0  0
  141.4530   78.4320  222.8850 C   0  0  0  0  0  0  0  0  0  0  0  0
  140.2770   71.4660  223.6070 C   0  0  0  0  0  0  0  0  0  0  0  0
  139.5380   70.3010  223.5940 C   0  0  0  0  0  0  0  0  0  0  0  0
  139.2590   69.5650  224.7250 C   0  0  0  0  0  0  0  0  0  0  0  0
  139.7510   70.0320  225.9170 C   0  0  0  0  0  0  0  0  0  0  0  0
  139.5430   69.3880  227.1210 C   0  0  0  0  0  0  0  0  0  0  0  0
  140.0310   69.8450  228.3230 C   0  0  0  0  0  0  0  0  0  0  0  0
  140.7820   71.0240  228.3470 C   0  0  0  0  0  0  0  0  0  0  0  0
  140.9910   71.6690  227.1390 C   0  0  0  0  0  0  0  0  0  0  0  0
  140.4950   71.2000  225.9410 C   0  0  0  0  0  0  0  0  0  0  0  0
  140.7390   71.8820  224.8000 N   0  0  0  0  0  0  0  0  0  0  0  0
  141.2550   70.4590  221.2700 H   0  0  0  0  0  0  0  0  0  0  0  0
  141.3346   71.5074  219.1770 H   0  0  0  0  0  0  0  0  0  0  0  0
  140.4504   72.9093  219.8502 H   0  0  0  0  0  0  0  0  0  0  0  0
  144.0152   75.6880  220.4810 H   0  0  0  0  0  0  0  0  0  0  0  0
  144.5882   74.6402  219.1858 H   0  0  0  0  0  0  0  0  0  0  0  0
  143.8163   76.2185  217.6202 H   0  0  0  0  0  0  0  0  0  0  0  0
  143.2820   77.6150  219.9340 H   0  0  0  0  0  0  0  0  0  0  0  0
  141.1546   76.6438  217.9900 H   0  0  0  0  0  0  0  0  0  0  0  0
  141.6991   75.1049  217.3799 H   0  0  0  0  0  0  0  0  0  0  0  0
  140.3787   74.7175  219.4729 H   0  0  0  0  0  0  0  0  0  0  0  0
  140.9082   75.5444  221.5620 H   0  0  0  0  0  0  0  0  0  0  0  0
  142.3467   76.4587  220.8543 H   0  0  0  0  0  0  0  0  0  0  0  0
  139.9229   77.2393  219.5712 H   0  0  0  0  0  0  0  0  0  0  0  0
  139.7792   77.4266  221.3474 H   0  0  0  0  0  0  0  0  0  0  0  0
  142.4378   80.8655  220.7619 H   0  0  0  0  0  0  0  0  0  0  0  0
  143.0208   81.9169  222.8915 H   0  0  0  0  0  0  0  0  0  0  0  0
  142.6119   80.7687  225.0595 H   0  0  0  0  0  0  0  0  0  0  0  0
  141.5893   78.4983  225.0293 H   0  0  0  0  0  0  0  0  0  0  0  0
  141.0034   77.4281  222.8906 H   0  0  0  0  0  0  0  0  0  0  0  0
  139.1509   69.9405  222.6295 H   0  0  0  0  0  0  0  0  0  0  0  0
  138.6656   68.6402  224.6739 H   0  0  0  0  0  0  0  0  0  0  0  0
  138.9547   68.4585  227.1185 H   0  0  0  0  0  0  0  0  0  0  0  0
  139.8332   69.2907  229.2523 H   0  0  0  0  0  0  0  0  0  0  0  0
  141.1904   71.4233  229.2871 H   0  0  0  0  0  0  0  0  0  0  0  0
  141.5798   72.5981  227.1353 H   0  0  0  0  0  0  0  0  0  0  0  0
  1  2  2  0
  2  3  1  0
  3  4  1  0
  4  5  1  0
  5  6  2  0
  5  7  1  0
  7  8  1  0
  8  9  1  0
  9 10  1  0
  9 11  1  0
 11 12  1  0
 12 13  1  0
 13 14  1  0
 14 15  1  0
 15 16  1  0
 16 17  2  0
 17 18  1  0
 18 19  2  0
 19 20  1  0
 20 21  2  0
  2 22  1  0
 22 23  2  0
 23 24  1  0
 24 25  2  0
 25 26  1  0
 26 27  2  0
 27 28  1  0
 28 29  2  0
 29 30  1  0
 30 31  2  0
 12  7  1  0
 21 16  1  0
 31 22  1  0
 30 25  1  0
  3 32  1  0
  4 33  1  0
  4 34  1  0
  8 35  1  0
  8 36  1  0
  9 37  1  6
 10 38  1  0
 11 39  1  0
 11 40  1  0
 12 41  1  6
 13 42  1  0
 13 43  1  0
 14 44  1  0
 14 45  1  0
 17 46  1  0
 18 47  1  0
 19 48  1  0
 20 49  1  0
 21 50  1  0
 23 51  1  0
 24 52  1  0
 26 53  1  0
 27 54  1  0
 28 55  1  0
 29 56  1  0
M  END
>  <meeko>  (11) 
{"free_energy": -8.52, "intermolecular_energy": -11.2, "internal_energy": -2.09, "cluster_size": 10, "cluster_id": 1, "rank_in_cluster": 2}

$$$$

     RDKit          3D

 56 59  0  0  0  0  0  0  0  0999 V2000
  140.9140   72.0860  221.5920 O   0  0  0  0  0  0  0  0  0  0  0  0
  140.0270   72.2660  222.4960 C   0  0  0  0  0  0  0  0  0  0  0  0
  139.0110   73.2570  222.3380 N   0  0  0  0  0  0  0  0  0  0  0  0
  139.0160   74.0400  221.1420 C   0  0  0  0  0  0  0  0  0  0  0  0
  139.8970   75.2180  221.3540 C   0  0  0  0  0  0  0  0  0  0  0  0
  139.7130   76.0660  222.2640 O   0  0  0  0  0  0  0  0  0  0  0  0
  140.9970   75.3730  220.4680 N   0  0  0  0  0  0  0  0  0  0  0  0
  142.4240   75.1950  220.7450 C   0  0  0  0  0  0  0  0  0  0  0  0
  143.0260   74.7770  219.4100 C   0  0  2  0  0  0  0  0  0  0  0  0
  144.0450   75.5910  218.9850 O   0  0  0  0  0  0  0  0  0  0  0  0
  141.8430   74.7080  218.4730 C   0  0  0  0  0  0  0  0  0  0  0  0
  140.9390   75.7560  219.0440 C   0  0  2  0  0  0  0  0  0  0  0  0
  141.4570   77.1530  218.9820 C   0  0  0  0  0  0  0  0  0  0  0  0
  140.6400   78.1830  219.6840 C   0  0  0  0  0  0  0  0  0  0  0  0
  141.4770   79.2640  220.0430 O   0  0  0  0  0  0  0  0  0  0  0  0
  141.7100   79.4750  221.4140 C   0  0  0  0  0  0  0  0  0  0  0  0
  142.1990   80.6930  221.8740 C   0  0  0  0  0  0  0  0  0  0  0  0
  142.4200   80.8830  223.2080 C   0  0  0  0  0  0  0  0  0  0  0  0
  142.1730   79.8910  224.1450 C   0  0  0  0  0  0  0  0  0  0  0  0
  141.6890   78.6870  223.6900 C   0  0  0  0  0  0  0  0  0  0  0  0
  141.4630   78.4860  222.3440 C   0  0  0  0  0  0  0  0  0  0  0  0
  140.0510   71.4480  223.7040 C   0  0  0  0  0  0  0  0  0  0  0  0
  139.5770   70.1530  223.6650 C   0  0  0  0  0  0  0  0  0  0  0  0
  139.5650   69.3150  224.7580 C   0  0  0  0  0  0  0  0  0  0  0  0
  140.0520   69.8120  225.9390 C   0  0  0  0  0  0  0  0  0  0  0  0
  140.0950   69.0750  227.1060 C   0  0  0  0  0  0  0  0  0  0  0  0
  140.5820   69.5630  228.2970 C   0  0  0  0  0  0  0  0  0  0  0  0
  141.0640   70.8730  228.3470 C   0  0  0  0  0  0  0  0  0  0  0  0
  141.0210   71.6130  227.1770 C   0  0  0  0  0  0  0  0  0  0  0  0
  140.5300   71.1110  225.9900 C   0  0  0  0  0  0  0  0  0  0  0  0
  140.5190   71.8900  224.8850 N   0  0  0  0  0  0  0  0  0  0  0  0
  138.2830   73.4190  223.0560 H   0  0  0  0  0  0  0  0  0  0  0  0
  139.3978   73.4368  220.3051 H   0  0  0  0  0  0  0  0  0  0  0  0
  137.9944   74.3711  220.9037 H   0  0  0  0  0  0  0  0  0  0  0  0
  142.8719   76.1367  221.0950 H   0  0  0  0  0  0  0  0  0  0  0  0
  142.6057   74.4517  221.5352 H   0  0  0  0  0  0  0  0  0  0  0  0
  143.5400   73.8065  219.4731 H   0  0  0  0  0  0  0  0  0  0  0  0
  144.6560   75.1520  218.3450 H   0  0  0  0  0  0  0  0  0  0  0  0
  142.1351   74.9502  217.4405 H   0  0  0  0  0  0  0  0  0  0  0  0
  141.3837   73.7106  218.4079 H   0  0  0  0  0  0  0  0  0  0  0  0
  139.9742   75.7781  218.5161 H   0  0  0  0  0  0  0  0  0  0  0  0
  142.4626   77.1595  219.4278 H   0  0  0  0  0  0  0  0  0  0  0  0
  141.4354   77.4310  217.9179 H   0  0  0  0  0  0  0  0  0  0  0  0
  139.8420   78.5397  219.0161 H   0  0  0  0  0  0  0  0  0  0  0  0
  140.1858   77.7474  220.5862 H   0  0  0  0  0  0  0  0  0  0  0  0
  142.4081   81.5048  221.1618 H   0  0  0  0  0  0  0  0  0  0  0  0
  142.8064   81.8543  223.5504 H   0  0  0  0  0  0  0  0  0  0  0  0
  142.3580   80.0615  225.2159 H   0  0  0  0  0  0  0  0  0  0  0  0
  141.4803   77.8776  224.4051 H   0  0  0  0  0  0  0  0  0  0  0  0
  141.0766   77.5139  222.0039 H   0  0  0  0  0  0  0  0  0  0  0  0
  139.1880   69.7693  222.7103 H   0  0  0  0  0  0  0  0  0  0  0  0
  139.1797   68.2872  224.6860 H   0  0  0  0  0  0  0  0  0  0  0  0
  139.7195   68.0414  227.0823 H   0  0  0  0  0  0  0  0  0  0  0  0
  140.5915   68.9304  229.1968 H   0  0  0  0  0  0  0  0  0  0  0  0
  141.4622   71.3003  229.2791 H   0  0  0  0  0  0  0  0  0  0  0  0
  141.3952   72.6472  227.1954 H   0  0  0  0  0  0  0  0  0  0  0  0
  1  2  2  0
  2  3  1  0
  3  4  1  0
  4  5  1  0
  5  6  2  0
  5  7  1  0
  7  8  1  0
  8  9  1  0
  9 10  1  0
  9 11  1  0
 11 12  1  0
 12 13  1  0
 13 14  1  0
 14 15  1  0
 15 16  1  0
 16 17  2  0
 17 18  1  0
 18 19  2  0
 19 20  1  0
 20 21  2  0
  2 22  1  0
 22 23  2  0
 23 24  1  0
 24 25  2  0
 25 26  1  0
 26 27  2  0
 27 28  1  0
 28 29  2  0
 29 30  1  0
 30 31  2  0
 12  7  1  0
 21 16  1  0
 31 22  1  0
 30 25  1  0
  3 32  1  0
  4 33  1  0
  4 34  1  0
  8 35  1  0
  8 36  1  0
  9 37  1  1
 10 38  1  0
 11 39  1  0
 11 40  1  0
 12 41  1  6
 13 42  1  0
 13 43  1  0
 14 44  1  0
 14 45  1  0
 17 46  1  0
 18 47  1  0
 19 48  1  0
 20 49  1  0
 21 50  1  0
 23 51  1  0
 24 52  1  0
 26 53  1  0
 27 54  1  0
 28 55  1  0
 29 56  1  0
M  END
>  <meeko>  (12) 
{"free_energy": -8.22, "intermolecular_energy": -10.9, "internal_energy": -1.67, "cluster_size": 10, "cluster_id": 1, "rank_in_cluster": 7}

$$$$

     RDKit          3D

 56 59  0  0  0  0  0  0  0  0999 V2000
  140.9240   71.6550  221.3690 O   0  0  0  0  0  0  0  0  0  0  0  0
  140.3210   72.1690  222.3730 C   0  0  0  0  0  0  0  0  0  0  0  0
  139.7390   73.4710  222.2920 N   0  0  0  0  0  0  0  0  0  0  0  0
  139.8520   74.1800  221.0560 C   0  0  0  0  0  0  0  0  0  0  0  0
  140.7770   75.3260  221.2540 C   0  0  0  0  0  0  0  0  0  0  0  0
  140.8660   75.9670  222.3330 O   0  0  0  0  0  0  0  0  0  0  0  0
  141.5930   75.7000  220.1520 N   0  0  0  0  0  0  0  0  0  0  0  0
  142.9380   75.2330  219.8120 C   0  0  0  0  0  0  0  0  0  0  0  0
  143.0160   75.3530  218.2970 C   0  0  2  0  0  0  0  0  0  0  0  0
  144.0610   76.1280  217.8570 O   0  0  0  0  0  0  0  0  0  0  0  0
  141.6490   75.8500  217.8910 C   0  0  0  0  0  0  0  0  0  0  0  0
  141.2520   76.6620  219.0850 C   0  0  2  0  0  0  0  0  0  0  0  0
  142.0890   77.8670  219.3490 C   0  0  0  0  0  0  0  0  0  0  0  0
  141.4190   79.1830  219.1450 C   0  0  0  0  0  0  0  0  0  0  0  0
  141.9360   80.1090  220.0800 O   0  0  0  0  0  0  0  0  0  0  0  0
  141.7680   79.8120  221.4450 C   0  0  0  0  0  0  0  0  0  0  0  0
  140.6300   79.1500  221.8940 C   0  0  0  0  0  0  0  0  0  0  0  0
  140.4800   78.8690  223.2220 C   0  0  0  0  0  0  0  0  0  0  0  0
  141.4340   79.2240  224.1630 C   0  0  0  0  0  0  0  0  0  0  0  0
  142.5590   79.8790  223.7190 C   0  0  0  0  0  0  0  0  0  0  0  0
  142.7180   80.1670  222.3790 C   0  0  0  0  0  0  0  0  0  0  0  0
  140.2230   71.4150  223.6190 C   0  0  0  0  0  0  0  0  0  0  0  0
  139.6200   70.1750  223.6250 C   0  0  0  0  0  0  0  0  0  0  0  0
  139.4880   69.3990  224.7560 C   0  0  0  0  0  0  0  0  0  0  0  0
  139.9880   69.9040  225.9290 C   0  0  0  0  0  0  0  0  0  0  0  0
  139.9200   69.2270  227.1300 C   0  0  0  0  0  0  0  0  0  0  0  0
  140.4180   69.7230  228.3130 C   0  0  0  0  0  0  0  0  0  0  0  0
  141.0310   70.9780  228.3180 C   0  0  0  0  0  0  0  0  0  0  0  0
  141.1000   71.6580  227.1120 C   0  0  0  0  0  0  0  0  0  0  0  0
  140.5960   71.1490  225.9340 C   0  0  0  0  0  0  0  0  0  0  0  0
  140.6990   71.8670  224.7930 N   0  0  0  0  0  0  0  0  0  0  0  0
  139.2460   73.9050  223.0920 H   0  0  0  0  0  0  0  0  0  0  0  0
  140.2508   73.5109  220.2793 H   0  0  0  0  0  0  0  0  0  0  0  0
  138.8638   74.5433  220.7376 H   0  0  0  0  0  0  0  0  0  0  0  0
  143.7007   75.8645  220.2911 H   0  0  0  0  0  0  0  0  0  0  0  0
  143.1222   74.2054  220.1585 H   0  0  0  0  0  0  0  0  0  0  0  0
  143.2471   74.3906  217.8169 H   0  0  0  0  0  0  0  0  0  0  0  0
  144.8330   75.6000  217.5420 H   0  0  0  0  0  0  0  0  0  0  0  0
  141.7013   76.4703  216.9841 H   0  0  0  0  0  0  0  0  0  0  0  0
  140.9390   75.0477  217.6415 H   0  0  0  0  0  0  0  0  0  0  0  0
  140.2228   77.0371  218.9853 H   0  0  0  0  0  0  0  0  0  0  0  0
  142.4275   77.8197  220.3946 H   0  0  0  0  0  0  0  0  0  0  0  0
  142.9040   77.8306  218.6112 H   0  0  0  0  0  0  0  0  0  0  0  0
  141.6132   79.5420  218.1235 H   0  0  0  0  0  0  0  0  0  0  0  0
  140.3337   79.0752  219.2878 H   0  0  0  0  0  0  0  0  0  0  0  0
  139.8496   78.8523  221.1782 H   0  0  0  0  0  0  0  0  0  0  0  0
  139.5728   78.3440  223.5558 H   0  0  0  0  0  0  0  0  0  0  0  0
  141.2960   78.9898  225.2289 H   0  0  0  0  0  0  0  0  0  0  0  0
  143.3376   80.1754  224.4373 H   0  0  0  0  0  0  0  0  0  0  0  0
  143.6255   80.6930  222.0476 H   0  0  0  0  0  0  0  0  0  0  0  0
  139.2231   69.7844  222.6763 H   0  0  0  0  0  0  0  0  0  0  0  0
  139.0009   68.4134  224.7195 H   0  0  0  0  0  0  0  0  0  0  0  0
  139.4414   68.2366  227.1421 H   0  0  0  0  0  0  0  0  0  0  0  0
  140.3345   69.1393  229.2416 H   0  0  0  0  0  0  0  0  0  0  0  0
  141.4427   71.4096  229.2422 H   0  0  0  0  0  0  0  0  0  0  0  0
  141.5785   72.6483  227.0941 H   0  0  0  0  0  0  0  0  0  0  0  0
  1  2  2  0
  2  3  1  0
  3  4  1  0
  4  5  1  0
  5  6  2  0
  5  7  1  0
  7  8  1  0
  8  9  1  0
  9 10  1  0
  9 11  1  0
 11 12  1  0
 12 13  1  0
 13 14  1  0
 14 15  1  0
 15 16  1  0
 16 17  2  0
 17 18  1  0
 18 19  2  0
 19 20  1  0
 20 21  2  0
  2 22  1  0
 22 23  2  0
 23 24  1  0
 24 25  2  0
 25 26  1  0
 26 27  2  0
 27 28  1  0
 28 29  2  0
 29 30  1  0
 30 31  2  0
 12  7  1  0
 21 16  1  0
 31 22  1  0
 30 25  1  0
  3 32  1  0
  4 33  1  0
  4 34  1  0
  8 35  1  0
  8 36  1  0
  9 37  1  6
 10 38  1  0
 11 39  1  0
 11 40  1  0
 12 41  1  6
 13 42  1  0
 13 43  1  0
 14 44  1  0
 14 45  1  0
 17 46  1  0
 18 47  1  0
 19 48  1  0
 20 49  1  0
 21 50  1  0
 23 51  1  0
 24 52  1  0
 26 53  1  0
 27 54  1  0
 28 55  1  0
 29 56  1  0
M  END
>  <meeko>  (13) 
{"free_energy": -8.66, "intermolecular_energy": -11.34, "internal_energy": -1.67, "cluster_size": 10, "cluster_id": 1, "rank_in_cluster": 1}

$$$$

     RDKit          3D

 56 59  0  0  0  0  0  0  0  0999 V2000
  138.9390   75.0650  222.3440 O   0  0  0  0  0  0  0  0  0  0  0  0
  140.0750   75.6310  222.1890 C   0  0  0  0  0  0  0  0  0  0  0  0
  141.2020   74.8940  221.7120 N   0  0  0  0  0  0  0  0  0  0  0  0
  141.0210   73.5090  221.4130 C   0  0  0  0  0  0  0  0  0  0  0  0
  141.3890   73.2810  219.9920 C   0  0  0  0  0  0  0  0  0  0  0  0
  140.5570   72.9700  219.1010 O   0  0  0  0  0  0  0  0  0  0  0  0
  142.7590   73.4260  219.6450 N   0  0  0  0  0  0  0  0  0  0  0  0
  143.9050   72.6370  220.1000 C   0  0  0  0  0  0  0  0  0  0  0  0
  144.9050   72.7130  218.9540 C   0  0  2  0  0  0  0  0  0  0  0  0
  146.1340   73.2000  219.3250 O   0  0  0  0  0  0  0  0  0  0  0  0
  144.1990   73.5280  217.8970 C   0  0  0  0  0  0  0  0  0  0  0  0
  143.3380   74.4280  218.7280 C   0  0  2  0  0  0  0  0  0  0  0  0
  144.0710   75.3920  219.5980 C   0  0  0  0  0  0  0  0  0  0  0  0
  143.4720   76.7520  219.7110 C   0  0  0  0  0  0  0  0  0  0  0  0
  142.0660   76.6270  219.8020 O   0  0  0  0  0  0  0  0  0  0  0  0
  141.2980   77.7850  219.5900 C   0  0  0  0  0  0  0  0  0  0  0  0
  139.9500   77.6960  219.2590 C   0  0  0  0  0  0  0  0  0  0  0  0
  139.2170   78.8300  219.0550 C   0  0  0  0  0  0  0  0  0  0  0  0
  139.7710   80.0960  219.1660 C   0  0  0  0  0  0  0  0  0  0  0  0
  141.1040   80.1840  219.4930 C   0  0  0  0  0  0  0  0  0  0  0  0
  141.8520   79.0430  219.7000 C   0  0  0  0  0  0  0  0  0  0  0  0
  140.2250   77.0480  222.5030 C   0  0  0  0  0  0  0  0  0  0  0  0
  139.1050   77.8450  222.6250 C   0  0  0  0  0  0  0  0  0  0  0  0
  139.1580   79.1900  222.9200 C   0  0  0  0  0  0  0  0  0  0  0  0
  140.3980   79.7480  223.0980 C   0  0  0  0  0  0  0  0  0  0  0  0
  140.5870   81.0820  223.3970 C   0  0  0  0  0  0  0  0  0  0  0  0
  141.8250   81.6550  223.5770 C   0  0  0  0  0  0  0  0  0  0  0  0
  142.9650   80.8560  223.4570 C   0  0  0  0  0  0  0  0  0  0  0  0
  142.7760   79.5170  223.1570 C   0  0  0  0  0  0  0  0  0  0  0  0
  141.5290   78.9570  222.9780 C   0  0  0  0  0  0  0  0  0  0  0  0
  141.4180   77.6410  222.6870 N   0  0  0  0  0  0  0  0  0  0  0  0
  142.1300   75.3320  221.5790 H   0  0  0  0  0  0  0  0  0  0  0  0
  141.6655   72.9014  222.0652 H   0  0  0  0  0  0  0  0  0  0  0  0
  139.9728   73.2212  221.5815 H   0  0  0  0  0  0  0  0  0  0  0  0
  144.3328   73.0674  221.0175 H   0  0  0  0  0  0  0  0  0  0  0  0
  143.6273   71.6006  220.3424 H   0  0  0  0  0  0  0  0  0  0  0  0
  145.1752   71.7169  218.5734 H   0  0  0  0  0  0  0  0  0  0  0  0
  146.2750   74.1420  219.0670 H   0  0  0  0  0  0  0  0  0  0  0  0
  144.9141   74.1046  217.2919 H   0  0  0  0  0  0  0  0  0  0  0  0
  143.6385   72.9232  217.1689 H   0  0  0  0  0  0  0  0  0  0  0  0
  142.6816   75.0442  218.0959 H   0  0  0  0  0  0  0  0  0  0  0  0
  144.1230   74.9615  220.6089 H   0  0  0  0  0  0  0  0  0  0  0  0
  145.0516   75.5372  219.1213 H   0  0  0  0  0  0  0  0  0  0  0  0
  143.8574   77.2516  220.6120 H   0  0  0  0  0  0  0  0  0  0  0  0
  143.7366   77.3505  218.8268 H   0  0  0  0  0  0  0  0  0  0  0  0
  139.4731   76.7096  219.1613 H   0  0  0  0  0  0  0  0  0  0  0  0
  138.1525   78.7359  218.7941 H   0  0  0  0  0  0  0  0  0  0  0  0
  139.1654   80.9989  218.9984 H   0  0  0  0  0  0  0  0  0  0  0  0
  141.5777   81.1720  219.5903 H   0  0  0  0  0  0  0  0  0  0  0  0
  142.9167   79.1394  219.9592 H   0  0  0  0  0  0  0  0  0  0  0  0
  138.1178   77.3822  222.4790 H   0  0  0  0  0  0  0  0  0  0  0  0
  138.2419   79.7923  223.0092 H   0  0  0  0  0  0  0  0  0  0  0  0
  139.6986   81.7228  223.4970 H   0  0  0  0  0  0  0  0  0  0  0  0
  141.9158   82.7258  223.8118 H   0  0  0  0  0  0  0  0  0  0  0  0
  143.9730   81.2740  223.5954 H   0  0  0  0  0  0  0  0  0  0  0  0
  143.6609   78.8713  223.0571 H   0  0  0  0  0  0  0  0  0  0  0  0
  1  2  2  0
  2  3  1  0
  3  4  1  0
  4  5  1  0
  5  6  2  0
  5  7  1  0
  7  8  1  0
  8  9  1  0
  9 10  1  0
  9 11  1  0
 11 12  1  0
 12 13  1  0
 13 14  1  0
 14 15  1  0
 15 16  1  0
 16 17  2  0
 17 18  1  0
 18 19  2  0
 19 20  1  0
 20 21  2  0
  2 22  1  0
 22 23  2  0
 23 24  1  0
 24 25  2  0
 25 26  1  0
 26 27  2  0
 27 28  1  0
 28 29  2  0
 29 30  1  0
 30 31  2  0
 12  7  1  0
 21 16  1  0
 31 22  1  0
 30 25  1  0
  3 32  1  0
  4 33  1  0
  4 34  1  0
  8 35  1  0
  8 36  1  0
  9 37  1  6
 10 38  1  0
 11 39  1  0
 11 40  1  0
 12 41  1  6
 13 42  1  0
 13 43  1  0
 14 44  1  0
 14 45  1  0
 17 46  1  0
 18 47  1  0
 19 48  1  0
 20 49  1  0
 21 50  1  0
 23 51  1  0
 24 52  1  0
 26 53  1  0
 27 54  1  0
 28 55  1  0
 29 56  1  0
M  END
>  <meeko>  (14) 
{"free_energy": -6.22, "intermolecular_energy": -8.9, "internal_energy": -3.74, "cluster_size": 5, "cluster_id": 5, "rank_in_cluster": 4}

$$$$

     RDKit          3D

 56 59  0  0  0  0  0  0  0  0999 V2000
  141.3020   72.4320  221.8090 O   0  0  0  0  0  0  0  0  0  0  0  0
  140.2810   72.4720  222.5790 C   0  0  0  0  0  0  0  0  0  0  0  0
  139.2190   73.3960  222.3380 N   0  0  0  0  0  0  0  0  0  0  0  0
  139.3300   74.2710  221.2140 C   0  0  0  0  0  0  0  0  0  0  0  0
  138.8430   75.6170  221.6140 C   0  0  0  0  0  0  0  0  0  0  0  0
  137.7840   75.8050  222.2660 O   0  0  0  0  0  0  0  0  0  0  0  0
  139.6310   76.7340  221.2260 N   0  0  0  0  0  0  0  0  0  0  0  0
  141.0440   76.9970  221.5070 C   0  0  0  0  0  0  0  0  0  0  0  0
  141.5170   77.8490  220.3380 C   0  0  2  0  0  0  0  0  0  0  0  0
  142.0620   79.0510  220.7160 O   0  0  0  0  0  0  0  0  0  0  0  0
  140.3050   77.9620  219.4440 C   0  0  0  0  0  0  0  0  0  0  0  0
  139.1850   77.8990  220.4360 C   0  0  2  0  0  0  0  0  0  0  0  0
  139.1180   79.0350  221.4000 C   0  0  0  0  0  0  0  0  0  0  0  0
  138.2840   78.8100  222.6140 C   0  0  0  0  0  0  0  0  0  0  0  0
  138.8120   79.5750  223.6800 O   0  0  0  0  0  0  0  0  0  0  0  0
  140.1580   79.9710  223.5860 C   0  0  0  0  0  0  0  0  0  0  0  0
  141.1840   79.0870  223.9050 C   0  0  0  0  0  0  0  0  0  0  0  0
  142.4860   79.4860  223.8110 C   0  0  0  0  0  0  0  0  0  0  0  0
  142.8390   80.7630  223.4010 C   0  0  0  0  0  0  0  0  0  0  0  0
  141.8240   81.6360  223.0850 C   0  0  0  0  0  0  0  0  0  0  0  0
  140.5060   81.2420  223.1790 C   0  0  0  0  0  0  0  0  0  0  0  0
  140.2000   71.5640  223.7180 C   0  0  0  0  0  0  0  0  0  0  0  0
  139.6210   70.3210  223.5630 C   0  0  0  0  0  0  0  0  0  0  0  0
  139.5050   69.4050  224.5850 C   0  0  0  0  0  0  0  0  0  0  0  0
  139.9960   69.7650  225.8140 C   0  0  0  0  0  0  0  0  0  0  0  0
  139.9410   68.9380  226.9180 C   0  0  0  0  0  0  0  0  0  0  0  0
  140.4290   69.2880  228.1560 C   0  0  0  0  0  0  0  0  0  0  0  0
  141.0180   70.5440  228.3230 C   0  0  0  0  0  0  0  0  0  0  0  0
  141.0730   71.3740  227.2150 C   0  0  0  0  0  0  0  0  0  0  0  0
  140.5780   71.0100  225.9800 C   0  0  0  0  0  0  0  0  0  0  0  0
  140.6670   71.8710  224.9410 N   0  0  0  0  0  0  0  0  0  0  0  0
  138.3840   73.4450  222.9480 H   0  0  0  0  0  0  0  0  0  0  0  0
  140.3813   74.3360  220.8968 H   0  0  0  0  0  0  0  0  0  0  0  0
  138.7294   73.8866  220.3764 H   0  0  0  0  0  0  0  0  0  0  0  0
  141.1561   77.5428  222.4554 H   0  0  0  0  0  0  0  0  0  0  0  0
  141.6278   76.0704  221.6104 H   0  0  0  0  0  0  0  0  0  0  0  0
  142.3620   77.3883  219.8054 H   0  0  0  0  0  0  0  0  0  0  0  0
  142.9050   78.9560  221.2220 H   0  0  0  0  0  0  0  0  0  0  0  0
  140.3001   78.9149  218.8946 H   0  0  0  0  0  0  0  0  0  0  0  0
  140.2532   77.1879  218.6642 H   0  0  0  0  0  0  0  0  0  0  0  0
  138.2077   77.8846  219.9314 H   0  0  0  0  0  0  0  0  0  0  0  0
  140.1432   79.2565  221.7317 H   0  0  0  0  0  0  0  0  0  0  0  0
  138.6346   79.8594  220.8554 H   0  0  0  0  0  0  0  0  0  0  0  0
  137.2482   79.1214  222.4135 H   0  0  0  0  0  0  0  0  0  0  0  0
  138.2934   77.7428  222.8804 H   0  0  0  0  0  0  0  0  0  0  0  0
  140.9455   78.0647  224.2336 H   0  0  0  0  0  0  0  0  0  0  0  0
  143.2813   78.7712  224.0689 H   0  0  0  0  0  0  0  0  0  0  0  0
  143.8938   81.0671  223.3309 H   0  0  0  0  0  0  0  0  0  0  0  0
  142.0658   82.6570  222.7546 H   0  0  0  0  0  0  0  0  0  0  0  0
  139.7123   81.9593  222.9230 H   0  0  0  0  0  0  0  0  0  0  0  0
  139.2317   70.0474  222.5712 H   0  0  0  0  0  0  0  0  0  0  0  0
  139.0369   68.4230  224.4219 H   0  0  0  0  0  0  0  0  0  0  0  0
  139.4820   67.9451  226.8016 H   0  0  0  0  0  0  0  0  0  0  0  0
  140.3565   68.5890  229.0022 H   0  0  0  0  0  0  0  0  0  0  0  0
  141.4221   70.8613  229.2957 H   0  0  0  0  0  0  0  0  0  0  0  0
  141.5319   72.3676  227.3251 H   0  0  0  0  0  0  0  0  0  0  0  0
  1  2  2  0
  2  3  1  0
  3  4  1  0
  4  5  1  0
  5  6  2  0
  5  7  1  0
  7  8  1  0
  8  9  1  0
  9 10  1  0
  9 11  1  0
 11 12  1  0
 12 13  1  0
 13 14  1  0
 14 15  1  0
 15 16  1  0
 16 17  2  0
 17 18  1  0
 18 19  2  0
 19 20  1  0
 20 21  2  0
  2 22  1  0
 22 23  2  0
 23 24  1  0
 24 25  2  0
 25 26  1  0
 26 27  2  0
 27 28  1  0
 28 29  2  0
 29 30  1  0
 30 31  2  0
 12  7  1  0
 21 16  1  0
 31 22  1  0
 30 25  1  0
  3 32  1  0
  4 33  1  0
  4 34  1  0
  8 35  1  0
  8 36  1  0
  9 37  1  6
 10 38  1  0
 11 39  1  0
 11 40  1  0
 12 41  1  6
 13 42  1  0
 13 43  1  0
 14 44  1  0
 14 45  1  0
 17 46  1  0
 18 47  1  0
 19 48  1  0
 20 49  1  0
 21 50  1  0
 23 51  1  0
 24 52  1  0
 26 53  1  0
 27 54  1  0
 28 55  1  0
 29 56  1  0
M  END
>  <meeko>  (15) 
{"free_energy": -8.5, "intermolecular_energy": -11.18, "internal_energy": -1.85, "cluster_size": 10, "cluster_id": 1, "rank_in_cluster": 3}

$$$$

     RDKit          3D

 56 59  0  0  0  0  0  0  0  0999 V2000
  140.8330   71.4890  221.3380 O   0  0  0  0  0  0  0  0  0  0  0  0
  140.3510   72.0870  222.3610 C   0  0  0  0  0  0  0  0  0  0  0  0
  139.9500   73.4560  222.2880 N   0  0  0  0  0  0  0  0  0  0  0  0
  140.1040   74.1350  221.0400 C   0  0  0  0  0  0  0  0  0  0  0  0
  140.5730   75.5190  221.3110 C   0  0  0  0  0  0  0  0  0  0  0  0
  140.5120   76.0620  222.4440 O   0  0  0  0  0  0  0  0  0  0  0  0
  141.1140   76.2480  220.2170 N   0  0  0  0  0  0  0  0  0  0  0  0
  142.4280   76.8830  220.1030 C   0  0  0  0  0  0  0  0  0  0  0  0
  142.7410   76.8550  218.6140 C   0  0  2  0  0  0  0  0  0  0  0  0
  143.0050   78.0930  218.0820 O   0  0  0  0  0  0  0  0  0  0  0  0
  141.5610   76.1430  217.9970 C   0  0  0  0  0  0  0  0  0  0  0  0
  140.4520   76.5270  218.9280 C   0  0  2  0  0  0  0  0  0  0  0  0
  140.1140   77.9790  218.9570 C   0  0  0  0  0  0  0  0  0  0  0  0
  139.2540   78.4250  220.0910 C   0  0  0  0  0  0  0  0  0  0  0  0
  139.7040   79.6900  220.5350 O   0  0  0  0  0  0  0  0  0  0  0  0
  140.6620   79.7110  221.5640 C   0  0  0  0  0  0  0  0  0  0  0  0
  141.8400   80.4380  221.4250 C   0  0  0  0  0  0  0  0  0  0  0  0
  142.7620   80.4490  222.4320 C   0  0  0  0  0  0  0  0  0  0  0  0
  142.5700   79.7500  223.6140 C   0  0  0  0  0  0  0  0  0  0  0  0
  141.4060   79.0310  223.7520 C   0  0  0  0  0  0  0  0  0  0  0  0
  140.4690   79.0140  222.7380 C   0  0  0  0  0  0  0  0  0  0  0  0
  140.2060   71.3630  223.6190 C   0  0  0  0  0  0  0  0  0  0  0  0
  139.5690   70.1400  223.6370 C   0  0  0  0  0  0  0  0  0  0  0  0
  139.3920   69.3910  224.7800 C   0  0  0  0  0  0  0  0  0  0  0  0
  139.8810   69.9070  225.9530 C   0  0  0  0  0  0  0  0  0  0  0  0
  139.7680   69.2570  227.1660 C   0  0  0  0  0  0  0  0  0  0  0  0
  140.2550   69.7640  228.3490 C   0  0  0  0  0  0  0  0  0  0  0  0
  140.9020   71.0020  228.3420 C   0  0  0  0  0  0  0  0  0  0  0  0
  141.0150   71.6540  227.1250 C   0  0  0  0  0  0  0  0  0  0  0  0
  140.5220   71.1350  225.9470 C   0  0  0  0  0  0  0  0  0  0  0  0
  140.6690   71.8260  224.7940 N   0  0  0  0  0  0  0  0  0  0  0  0
  139.5570   73.9590  223.1020 H   0  0  0  0  0  0  0  0  0  0  0  0
  140.8433   73.6075  220.4193 H   0  0  0  0  0  0  0  0  0  0  0  0
  139.1439   74.1606  220.5038 H   0  0  0  0  0  0  0  0  0  0  0  0
  142.3921   77.9184  220.4727 H   0  0  0  0  0  0  0  0  0  0  0  0
  143.1939   76.3660  220.6997 H   0  0  0  0  0  0  0  0  0  0  0  0
  143.6805   76.3249  218.3984 H   0  0  0  0  0  0  0  0  0  0  0  0
  143.6870   78.5980  218.5870 H   0  0  0  0  0  0  0  0  0  0  0  0
  141.3675   76.4997  216.9746 H   0  0  0  0  0  0  0  0  0  0  0  0
  141.7001   75.0568  217.8931 H   0  0  0  0  0  0  0  0  0  0  0  0
  139.5160   76.0130  218.6639 H   0  0  0  0  0  0  0  0  0  0  0  0
  141.0567   78.5436  219.0066 H   0  0  0  0  0  0  0  0  0  0  0  0
  139.5263   78.1661  218.0462 H   0  0  0  0  0  0  0  0  0  0  0  0
  138.2094   78.5014  219.7548 H   0  0  0  0  0  0  0  0  0  0  0  0
  139.3140   77.6974  220.9138 H   0  0  0  0  0  0  0  0  0  0  0  0
  142.0290   81.0053  220.5017 H   0  0  0  0  0  0  0  0  0  0  0  0
  143.6864   81.0308  222.3014 H   0  0  0  0  0  0  0  0  0  0  0  0
  143.3239   79.7700  224.4148 H   0  0  0  0  0  0  0  0  0  0  0  0
  141.2200   78.4653  224.6769 H   0  0  0  0  0  0  0  0  0  0  0  0
  139.5461   78.4302  222.8700 H   0  0  0  0  0  0  0  0  0  0  0  0
  139.1814   69.7410  222.6880 H   0  0  0  0  0  0  0  0  0  0  0  0
  138.8791   68.4183  224.7528 H   0  0  0  0  0  0  0  0  0  0  0  0
  139.2612   68.2810  227.1879 H   0  0  0  0  0  0  0  0  0  0  0  0
  140.1364   69.2021  229.2872 H   0  0  0  0  0  0  0  0  0  0  0  0
  141.3056   71.4416  229.2660 H   0  0  0  0  0  0  0  0  0  0  0  0
  141.5211   72.6302  227.0974 H   0  0  0  0  0  0  0  0  0  0  0  0
  1  2  2  0
  2  3  1  0
  3  4  1  0
  4  5  1  0
  5  6  2  0
  5  7  1  0
  7  8  1  0
  8  9  1  0
  9 10  1  0
  9 11  1  0
 11 12  1  0
 12 13  1  0
 13 14  1  0
 14 15  1  0
 15 16  1  0
 16 17  2  0
 17 18  1  0
 18 19  2  0
 19 20  1  0
 20 21  2  0
  2 22  1  0
 22 23  2  0
 23 24  1  0
 24 25  2  0
 25 26  1  0
 26 27  2  0
 27 28  1  0
 28 29  2  0
 29 30  1  0
 30 31  2  0
 12  7  1  0
 21 16  1  0
 31 22  1  0
 30 25  1  0
  3 32  1  0
  4 33  1  0
  4 34  1  0
  8 35  1  0
  8 36  1  0
  9 37  1  1
 10 38  1  0
 11 39  1  0
 11 40  1  0
 12 41  1  6
 13 42  1  0
 13 43  1  0
 14 44  1  0
 14 45  1  0
 17 46  1  0
 18 47  1  0
 19 48  1  0
 20 49  1  0
 21 50  1  0
 23 51  1  0
 24 52  1  0
 26 53  1  0
 27 54  1  0
 28 55  1  0
 29 56  1  0
M  END
>  <meeko>  (16) 
{"free_energy": -8.12, "intermolecular_energy": -10.81, "internal_energy": -2.09, "cluster_size": 10, "cluster_id": 1, "rank_in_cluster": 8}

$$$$

     RDKit          3D

 56 59  0  0  0  0  0  0  0  0999 V2000
  140.4670   71.2450  221.2880 O   0  0  0  0  0  0  0  0  0  0  0  0
  140.1450   71.8730  222.3540 C   0  0  0  0  0  0  0  0  0  0  0  0
  139.8530   73.2710  222.3210 N   0  0  0  0  0  0  0  0  0  0  0  0
  139.9290   73.9430  221.0620 C   0  0  0  0  0  0  0  0  0  0  0  0
  140.4950   75.2990  221.2860 C   0  0  0  0  0  0  0  0  0  0  0  0
  140.3200   75.9570  222.3430 O   0  0  0  0  0  0  0  0  0  0  0  0
  141.2710   75.8600  220.2360 N   0  0  0  0  0  0  0  0  0  0  0  0
  142.6600   75.5730  219.8730 C   0  0  0  0  0  0  0  0  0  0  0  0
  142.7300   75.8440  218.3760 C   0  0  2  0  0  0  0  0  0  0  0  0
  143.6880   76.7640  218.0270 O   0  0  0  0  0  0  0  0  0  0  0  0
  141.3200   76.2300  218.0000 C   0  0  0  0  0  0  0  0  0  0  0  0
  140.8330   76.8770  219.2600 C   0  0  2  0  0  0  0  0  0  0  0  0
  141.5360   78.1340  219.6480 C   0  0  0  0  0  0  0  0  0  0  0  0
  140.8250   79.4040  219.3240 C   0  0  0  0  0  0  0  0  0  0  0  0
  140.1960   79.8860  220.4950 O   0  0  0  0  0  0  0  0  0  0  0  0
  140.9600   79.9130  221.6760 C   0  0  0  0  0  0  0  0  0  0  0  0
  141.9440   80.8770  221.8660 C   0  0  0  0  0  0  0  0  0  0  0  0
  142.6780   80.8890  223.0170 C   0  0  0  0  0  0  0  0  0  0  0  0
  142.4800   79.9610  224.0280 C   0  0  0  0  0  0  0  0  0  0  0  0
  141.5070   79.0080  223.8400 C   0  0  0  0  0  0  0  0  0  0  0  0
  140.7610   78.9880  222.6790 C   0  0  0  0  0  0  0  0  0  0  0  0
  140.0760   71.1550  223.6220 C   0  0  0  0  0  0  0  0  0  0  0  0
  139.4920   69.9060  223.6720 C   0  0  0  0  0  0  0  0  0  0  0  0
  139.3860   69.1610  224.8260 C   0  0  0  0  0  0  0  0  0  0  0  0
  139.8950   69.7070  225.9770 C   0  0  0  0  0  0  0  0  0  0  0  0
  139.8520   69.0640  227.1970 C   0  0  0  0  0  0  0  0  0  0  0  0
  140.3590   69.6000  228.3590 C   0  0  0  0  0  0  0  0  0  0  0  0
  140.9540   70.8640  228.3200 C   0  0  0  0  0  0  0  0  0  0  0  0
  140.9970   71.5090  227.0940 C   0  0  0  0  0  0  0  0  0  0  0  0
  140.4840   70.9600  225.9390 C   0  0  0  0  0  0  0  0  0  0  0  0
  140.5610   71.6470  224.7760 N   0  0  0  0  0  0  0  0  0  0  0  0
  139.5900   73.7980  223.1720 H   0  0  0  0  0  0  0  0  0  0  0  0
  140.5791   73.3777  220.3780 H   0  0  0  0  0  0  0  0  0  0  0  0
  138.9270   74.0214  220.6149 H   0  0  0  0  0  0  0  0  0  0  0  0
  143.3487   76.2338  220.4198 H   0  0  0  0  0  0  0  0  0  0  0  0
  142.9524   74.5428  220.1244 H   0  0  0  0  0  0  0  0  0  0  0  0
  143.0633   74.9617  217.8099 H   0  0  0  0  0  0  0  0  0  0  0  0
  144.5610   76.3570  217.8110 H   0  0  0  0  0  0  0  0  0  0  0  0
  141.3095   76.9366  217.1570 H   0  0  0  0  0  0  0  0  0  0  0  0
  140.7010   75.3845  217.6654 H   0  0  0  0  0  0  0  0  0  0  0  0
  139.7697   77.1476  219.1821 H   0  0  0  0  0  0  0  0  0  0  0  0
  141.6992   78.1070  220.7355 H   0  0  0  0  0  0  0  0  0  0  0  0
  142.4627   78.1520  219.0556 H   0  0  0  0  0  0  0  0  0  0  0  0
  141.5471   80.1491  218.9589 H   0  0  0  0  0  0  0  0  0  0  0  0
  140.0718   79.2218  218.5433 H   0  0  0  0  0  0  0  0  0  0  0  0
  142.1313   81.6312  221.0875 H   0  0  0  0  0  0  0  0  0  0  0  0
  143.4517   81.6600  223.1466 H   0  0  0  0  0  0  0  0  0  0  0  0
  143.0809   79.9864  224.9490 H   0  0  0  0  0  0  0  0  0  0  0  0
  141.3217   78.2557  224.6209 H   0  0  0  0  0  0  0  0  0  0  0  0
  139.9888   78.2152  222.5507 H   0  0  0  0  0  0  0  0  0  0  0  0
  139.0893   69.4822  222.7402 H   0  0  0  0  0  0  0  0  0  0  0  0
  138.9123   68.1682  224.8246 H   0  0  0  0  0  0  0  0  0  0  0  0
  139.3870   68.0682  227.2436 H   0  0  0  0  0  0  0  0  0  0  0  0
  140.2968   69.0416  229.3047 H   0  0  0  0  0  0  0  0  0  0  0  0
  141.3713   71.3282  229.2258 H   0  0  0  0  0  0  0  0  0  0  0  0
  141.4618   72.5045  227.0406 H   0  0  0  0  0  0  0  0  0  0  0  0
  1  2  2  0
  2  3  1  0
  3  4  1  0
  4  5  1  0
  5  6  2  0
  5  7  1  0
  7  8  1  0
  8  9  1  0
  9 10  1  0
  9 11  1  0
 11 12  1  0
 12 13  1  0
 13 14  1  0
 14 15  1  0
 15 16  1  0
 16 17  2  0
 17 18  1  0
 18 19  2  0
 19 20  1  0
 20 21  2  0
  2 22  1  0
 22 23  2  0
 23 24  1  0
 24 25  2  0
 25 26  1  0
 26 27  2  0
 27 28  1  0
 28 29  2  0
 29 30  1  0
 30 31  2  0
 12  7  1  0
 21 16  1  0
 31 22  1  0
 30 25  1  0
  3 32  1  0
  4 33  1  0
  4 34  1  0
  8 35  1  0
  8 36  1  0
  9 37  1  6
 10 38  1  0
 11 39  1  0
 11 40  1  0
 12 41  1  6
 13 42  1  0
 13 43  1  0
 14 44  1  0
 14 45  1  0
 17 46  1  0
 18 47  1  0
 19 48  1  0
 20 49  1  0
 21 50  1  0
 23 51  1  0
 24 52  1  0
 26 53  1  0
 27 54  1  0
 28 55  1  0
 29 56  1  0
M  END
>  <meeko>  (17) 
{"free_energy": -8.49, "intermolecular_energy": -11.17, "internal_energy": -1.83, "cluster_size": 10, "cluster_id": 1, "rank_in_cluster": 4}

$$$$

     RDKit          3D

 56 59  0  0  0  0  0  0  0  0999 V2000
  139.2040   74.6910  222.4090 O   0  0  0  0  0  0  0  0  0  0  0  0
  140.0440   75.4590  221.8260 C   0  0  0  0  0  0  0  0  0  0  0  0
  140.8340   74.9860  220.7340 N   0  0  0  0  0  0  0  0  0  0  0  0
  140.6560   73.6320  220.3120 C   0  0  0  0  0  0  0  0  0  0  0  0
  141.8180   72.8360  220.7830 C   0  0  0  0  0  0  0  0  0  0  0  0
  141.7340   71.9370  221.6590 O   0  0  0  0  0  0  0  0  0  0  0  0
  143.0810   73.1230  220.1980 N   0  0  0  0  0  0  0  0  0  0  0  0
  144.3890   72.5500  220.5210 C   0  0  0  0  0  0  0  0  0  0  0  0
  145.1770   72.6310  219.2210 C   0  0  2  0  0  0  0  0  0  0  0  0
  146.3610   73.3160  219.3360 O   0  0  0  0  0  0  0  0  0  0  0  0
  144.2030   73.2200  218.2300 C   0  0  0  0  0  0  0  0  0  0  0  0
  143.3550   74.0850  219.1120 C   0  0  2  0  0  0  0  0  0  0  0  0
  144.0600   75.2290  219.7570 C   0  0  0  0  0  0  0  0  0  0  0  0
  143.6440   76.5880  219.3050 C   0  0  0  0  0  0  0  0  0  0  0  0
  142.2620   76.5670  219.0060 O   0  0  0  0  0  0  0  0  0  0  0  0
  141.5500   77.7700  219.1570 C   0  0  0  0  0  0  0  0  0  0  0  0
  140.1590   77.7820  219.1380 C   0  0  0  0  0  0  0  0  0  0  0  0
  139.4810   78.9580  219.2840 C   0  0  0  0  0  0  0  0  0  0  0  0
  140.1340   80.1690  219.4550 C   0  0  0  0  0  0  0  0  0  0  0  0
  141.5090   80.1580  219.4750 C   0  0  0  0  0  0  0  0  0  0  0  0
  142.2020   78.9740  219.3260 C   0  0  0  0  0  0  0  0  0  0  0  0
  140.2000   76.8360  222.2820 C   0  0  0  0  0  0  0  0  0  0  0  0
  139.0880   77.5670  222.6470 C   0  0  0  0  0  0  0  0  0  0  0  0
  139.1470   78.8700  223.0890 C   0  0  0  0  0  0  0  0  0  0  0  0
  140.3850   79.4560  223.1610 C   0  0  0  0  0  0  0  0  0  0  0  0
  140.5800   80.7540  223.5870 C   0  0  0  0  0  0  0  0  0  0  0  0
  141.8160   81.3540  223.6650 C   0  0  0  0  0  0  0  0  0  0  0  0
  142.9490   80.6220  223.2980 C   0  0  0  0  0  0  0  0  0  0  0  0
  142.7530   79.3180  222.8700 C   0  0  0  0  0  0  0  0  0  0  0  0
  141.5080   78.7310  222.7970 C   0  0  0  0  0  0  0  0  0  0  0  0
  141.3910   77.4530  222.3710 N   0  0  0  0  0  0  0  0  0  0  0  0
  141.5190   75.5910  220.2480 H   0  0  0  0  0  0  0  0  0  0  0  0
  139.7290   73.2272  220.7443 H   0  0  0  0  0  0  0  0  0  0  0  0
  140.5859   73.5847  219.2152 H   0  0  0  0  0  0  0  0  0  0  0  0
  144.8837   73.1333  221.3116 H   0  0  0  0  0  0  0  0  0  0  0  0
  144.3109   71.5193  220.8972 H   0  0  0  0  0  0  0  0  0  0  0  0
  145.5317   71.6440  218.8892 H   0  0  0  0  0  0  0  0  0  0  0  0
  146.3970   74.1300  218.7790 H   0  0  0  0  0  0  0  0  0  0  0  0
  144.7215   73.8153  217.4640 H   0  0  0  0  0  0  0  0  0  0  0  0
  143.6343   72.4681  217.6632 H   0  0  0  0  0  0  0  0  0  0  0  0
  142.5244   74.5341  218.5478 H   0  0  0  0  0  0  0  0  0  0  0  0
  143.8840   75.1656  220.8410 H   0  0  0  0  0  0  0  0  0  0  0  0
  145.1166   75.1292  219.4678 H   0  0  0  0  0  0  0  0  0  0  0  0
  143.8381   77.3186  220.1041 H   0  0  0  0  0  0  0  0  0  0  0  0
  144.2152   76.8746  218.4097 H   0  0  0  0  0  0  0  0  0  0  0  0
  139.6040   76.8416  219.0050 H   0  0  0  0  0  0  0  0  0  0  0  0
  138.3812   78.9442  219.2653 H   0  0  0  0  0  0  0  0  0  0  0  0
  139.5712   81.1070  219.5708 H   0  0  0  0  0  0  0  0  0  0  0  0
  142.0606   81.1000  219.6108 H   0  0  0  0  0  0  0  0  0  0  0  0
  143.3017   78.9906  219.3424 H   0  0  0  0  0  0  0  0  0  0  0  0
  138.1022   77.0834  222.5815 H   0  0  0  0  0  0  0  0  0  0  0  0
  138.2372   79.4191  223.3731 H   0  0  0  0  0  0  0  0  0  0  0  0
  139.6980   81.3420  223.8807 H   0  0  0  0  0  0  0  0  0  0  0  0
  141.9110   82.3939  224.0109 H   0  0  0  0  0  0  0  0  0  0  0  0
  143.9556   81.0629  223.3469 H   0  0  0  0  0  0  0  0  0  0  0  0
  143.6311   78.7247  222.5752 H   0  0  0  0  0  0  0  0  0  0  0  0
  1  2  2  0
  2  3  1  0
  3  4  1  0
  4  5  1  0
  5  6  2  0
  5  7  1  0
  7  8  1  0
  8  9  1  0
  9 10  1  0
  9 11  1  0
 11 12  1  0
 12 13  1  0
 13 14  1  0
 14 15  1  0
 15 16  1  0
 16 17  2  0
 17 18  1  0
 18 19  2  0
 19 20  1  0
 20 21  2  0
  2 22  1  0
 22 23  2  0
 23 24  1  0
 24 25  2  0
 25 26  1  0
 26 27  2  0
 27 28  1  0
 28 29  2  0
 29 30  1  0
 30 31  2  0
 12  7  1  0
 21 16  1  0
 31 22  1  0
 30 25  1  0
  3 32  1  0
  4 33  1  0
  4 34  1  0
  8 35  1  0
  8 36  1  0
  9 37  1  6
 10 38  1  0
 11 39  1  0
 11 40  1  0
 12 41  1  6
 13 42  1  0
 13 43  1  0
 14 44  1  0
 14 45  1  0
 17 46  1  0
 18 47  1  0
 19 48  1  0
 20 49  1  0
 21 50  1  0
 23 51  1  0
 24 52  1  0
 26 53  1  0
 27 54  1  0
 28 55  1  0
 29 56  1  0
M  END
>  <meeko>  (18) 
{"free_energy": -6.76, "intermolecular_energy": -9.44, "internal_energy": -3.81, "cluster_size": 5, "cluster_id": 5, "rank_in_cluster": 3}

$$$$

     RDKit          3D

 56 59  0  0  0  0  0  0  0  0999 V2000
  140.0910   73.4410  222.3670 O   0  0  0  0  0  0  0  0  0  0  0  0
  140.3980   72.2000  222.4120 C   0  0  0  0  0  0  0  0  0  0  0  0
  140.9140   71.5310  221.2600 N   0  0  0  0  0  0  0  0  0  0  0  0
  141.0770   72.2900  220.0600 C   0  0  0  0  0  0  0  0  0  0  0  0
  142.4090   72.9480  220.0950 C   0  0  0  0  0  0  0  0  0  0  0  0
  143.4680   72.3510  220.4180 O   0  0  0  0  0  0  0  0  0  0  0  0
  142.4640   74.3230  219.7420 N   0  0  0  0  0  0  0  0  0  0  0  0
  143.6420   75.1660  219.5290 C   0  0  0  0  0  0  0  0  0  0  0  0
  143.1860   76.2200  218.5300 C   0  0  2  0  0  0  0  0  0  0  0  0
  143.3570   77.5090  218.9720 O   0  0  0  0  0  0  0  0  0  0  0  0
  141.7570   75.8460  218.2190 C   0  0  0  0  0  0  0  0  0  0  0  0
  141.3160   75.2220  219.5070 C   0  0  2  0  0  0  0  0  0  0  0  0
  141.2770   76.1380  220.6830 C   0  0  0  0  0  0  0  0  0  0  0  0
  140.4790   77.3850  220.5100 C   0  0  0  0  0  0  0  0  0  0  0  0
  141.3600   78.4920  220.4900 O   0  0  0  0  0  0  0  0  0  0  0  0
  141.6980   79.0710  221.7250 C   0  0  0  0  0  0  0  0  0  0  0  0
  141.4380   78.4060  222.9190 C   0  0  0  0  0  0  0  0  0  0  0  0
  141.7720   78.9820  224.1110 C   0  0  0  0  0  0  0  0  0  0  0  0
  142.3730   80.2290  224.1850 C   0  0  0  0  0  0  0  0  0  0  0  0
  142.6310   80.8860  223.0050 C   0  0  0  0  0  0  0  0  0  0  0  0
  142.2960   80.3120  221.7960 C   0  0  0  0  0  0  0  0  0  0  0  0
  140.2200   71.4560  223.6540 C   0  0  0  0  0  0  0  0  0  0  0  0
  139.4990   70.2800  223.6510 C   0  0  0  0  0  0  0  0  0  0  0  0
  139.2850   69.5170  224.7780 C   0  0  0  0  0  0  0  0  0  0  0  0
  139.8240   69.9670  225.9560 C   0  0  0  0  0  0  0  0  0  0  0  0
  139.6820   69.2960  227.1540 C   0  0  0  0  0  0  0  0  0  0  0  0
  140.2170   69.7380  228.3430 C   0  0  0  0  0  0  0  0  0  0  0  0
  140.9500   70.9280  228.3560 C   0  0  0  0  0  0  0  0  0  0  0  0
  141.0920   71.6010  227.1540 C   0  0  0  0  0  0  0  0  0  0  0  0
  140.5490   71.1470  225.9710 C   0  0  0  0  0  0  0  0  0  0  0  0
  140.7290   71.8560  224.8330 N   0  0  0  0  0  0  0  0  0  0  0  0
  141.1700   70.5290  221.2740 H   0  0  0  0  0  0  0  0  0  0  0  0
  141.0157   71.6226  219.1877 H   0  0  0  0  0  0  0  0  0  0  0  0
  140.2840   73.0485  219.9834 H   0  0  0  0  0  0  0  0  0  0  0  0
  143.9584   75.6361  220.4718 H   0  0  0  0  0  0  0  0  0  0  0  0
  144.5052   74.5908  219.1629 H   0  0  0  0  0  0  0  0  0  0  0  0
  143.8025   76.2219  217.6190 H   0  0  0  0  0  0  0  0  0  0  0  0
  143.2560   77.6040  219.9490 H   0  0  0  0  0  0  0  0  0  0  0  0
  141.1543   76.7338  217.9771 H   0  0  0  0  0  0  0  0  0  0  0  0
  141.6493   75.1868  217.3450 H   0  0  0  0  0  0  0  0  0  0  0  0
  140.2991   74.8113  219.4217 H   0  0  0  0  0  0  0  0  0  0  0  0
  140.8518   75.5805  221.5306 H   0  0  0  0  0  0  0  0  0  0  0  0
  142.3149   76.4676  220.8384 H   0  0  0  0  0  0  0  0  0  0  0  0
  139.9220   77.3388  219.5626 H   0  0  0  0  0  0  0  0  0  0  0  0
  139.7659   77.4903  221.3409 H   0  0  0  0  0  0  0  0  0  0  0  0
  140.9624   77.4142  222.9027 H   0  0  0  0  0  0  0  0  0  0  0  0
  141.5572   78.4388  225.0431 H   0  0  0  0  0  0  0  0  0  0  0  0
  142.6346   80.6776  225.1547 H   0  0  0  0  0  0  0  0  0  0  0  0
  143.1082   81.8769  223.0251 H   0  0  0  0  0  0  0  0  0  0  0  0
  142.5112   80.8576  220.8654 H   0  0  0  0  0  0  0  0  0  0  0  0
  139.0723   69.9331  222.6983 H   0  0  0  0  0  0  0  0  0  0  0  0
  138.7046   68.5836  224.7347 H   0  0  0  0  0  0  0  0  0  0  0  0
  139.1099   68.3565  227.1589 H   0  0  0  0  0  0  0  0  0  0  0  0
  140.0697   69.1631  229.2692 H   0  0  0  0  0  0  0  0  0  0  0  0
  141.3963   71.3146  229.2841 H   0  0  0  0  0  0  0  0  0  0  0  0
  141.6640   72.5405  227.1427 H   0  0  0  0  0  0  0  0  0  0  0  0
  1  2  2  0
  2  3  1  0
  3  4  1  0
  4  5  1  0
  5  6  2  0
  5  7  1  0
  7  8  1  0
  8  9  1  0
  9 10  1  0
  9 11  1  0
 11 12  1  0
 12 13  1  0
 13 14  1  0
 14 15  1  0
 15 16  1  0
 16 17  2  0
 17 18  1  0
 18 19  2  0
 19 20  1  0
 20 21  2  0
  2 22  1  0
 22 23  2  0
 23 24  1  0
 24 25  2  0
 25 26  1  0
 26 27  2  0
 27 28  1  0
 28 29  2  0
 29 30  1  0
 30 31  2  0
 12  7  1  0
 21 16  1  0
 31 22  1  0
 30 25  1  0
  3 32  1  0
  4 33  1  0
  4 34  1  0
  8 35  1  0
  8 36  1  0
  9 37  1  6
 10 38  1  0
 11 39  1  0
 11 40  1  0
 12 41  1  6
 13 42  1  0
 13 43  1  0
 14 44  1  0
 14 45  1  0
 17 46  1  0
 18 47  1  0
 19 48  1  0
 20 49  1  0
 21 50  1  0
 23 51  1  0
 24 52  1  0
 26 53  1  0
 27 54  1  0
 28 55  1  0
 29 56  1  0
M  END
>  <meeko>  (19) 
{"free_energy": -8.46, "intermolecular_energy": -11.15, "internal_energy": -2.08, "cluster_size": 10, "cluster_id": 1, "rank_in_cluster": 5}

$$$$

     RDKit          3D

 56 59  0  0  0  0  0  0  0  0999 V2000
  138.7480   75.3480  222.5780 O   0  0  0  0  0  0  0  0  0  0  0  0
  139.8340   75.9030  222.1920 C   0  0  0  0  0  0  0  0  0  0  0  0
  140.7580   75.2020  221.3590 N   0  0  0  0  0  0  0  0  0  0  0  0
  140.4330   73.8650  220.9710 C   0  0  0  0  0  0  0  0  0  0  0  0
  141.2170   73.5230  219.7560 C   0  0  0  0  0  0  0  0  0  0  0  0
  140.7120   73.0010  218.7300 O   0  0  0  0  0  0  0  0  0  0  0  0
  142.6090   73.8090  219.7800 N   0  0  0  0  0  0  0  0  0  0  0  0
  143.5820   73.5250  220.8360 C   0  0  0  0  0  0  0  0  0  0  0  0
  144.9070   73.3570  220.1050 C   0  0  2  0  0  0  0  0  0  0  0  0
  145.8940   74.1990  220.5510 O   0  0  0  0  0  0  0  0  0  0  0  0
  144.5510   73.5190  218.6470 C   0  0  0  0  0  0  0  0  0  0  0  0
  143.3940   74.4680  218.7170 C   0  0  2  0  0  0  0  0  0  0  0  0
  143.7120   75.8280  219.2390 C   0  0  0  0  0  0  0  0  0  0  0  0
  142.9110   76.9480  218.6670 C   0  0  0  0  0  0  0  0  0  0  0  0
  141.7570   77.1360  219.4610 O   0  0  0  0  0  0  0  0  0  0  0  0
  141.2810   78.4510  219.6080 C   0  0  0  0  0  0  0  0  0  0  0  0
  139.9190   78.7060  219.7310 C   0  0  0  0  0  0  0  0  0  0  0  0
  139.4710   79.9880  219.8720 C   0  0  0  0  0  0  0  0  0  0  0  0
  140.3350   81.0720  219.9000 C   0  0  0  0  0  0  0  0  0  0  0  0
  141.6820   80.8200  219.7780 C   0  0  0  0  0  0  0  0  0  0  0  0
  142.1430   79.5280  219.6340 C   0  0  0  0  0  0  0  0  0  0  0  0
  140.1340   77.2690  222.6060 C   0  0  0  0  0  0  0  0  0  0  0  0
  139.1070   78.1200  222.9590 C   0  0  0  0  0  0  0  0  0  0  0  0
  139.3030   79.4230  223.3620 C   0  0  0  0  0  0  0  0  0  0  0  0
  140.5950   79.8810  223.4070 C   0  0  0  0  0  0  0  0  0  0  0  0
  140.9250   81.1640  223.7940 C   0  0  0  0  0  0  0  0  0  0  0  0
  142.2170   81.6350  223.8440 C   0  0  0  0  0  0  0  0  0  0  0  0
  143.2650   80.7820  223.4890 C   0  0  0  0  0  0  0  0  0  0  0  0
  142.9330   79.4940  223.1020 C   0  0  0  0  0  0  0  0  0  0  0  0
  141.6340   79.0350  223.0550 C   0  0  0  0  0  0  0  0  0  0  0  0
  141.3830   77.7640  222.6680 N   0  0  0  0  0  0  0  0  0  0  0  0
  141.6430   75.6310  221.0350 H   0  0  0  0  0  0  0  0  0  0  0  0
  140.6878   73.1701  221.7848 H   0  0  0  0  0  0  0  0  0  0  0  0
  139.3564   73.7849  220.7598 H   0  0  0  0  0  0  0  0  0  0  0  0
  143.6356   74.3608  221.5492 H   0  0  0  0  0  0  0  0  0  0  0  0
  143.3132   72.6331  221.4210 H   0  0  0  0  0  0  0  0  0  0  0  0
  145.3639   72.3745  220.2948 H   0  0  0  0  0  0  0  0  0  0  0  0
  146.4710   74.5420  219.8270 H   0  0  0  0  0  0  0  0  0  0  0  0
  145.3873   73.9486  218.0760 H   0  0  0  0  0  0  0  0  0  0  0  0
  144.3199   72.5720  218.1373 H   0  0  0  0  0  0  0  0  0  0  0  0
  142.9528   74.6309  217.7226 H   0  0  0  0  0  0  0  0  0  0  0  0
  143.5491   75.8182  220.3268 H   0  0  0  0  0  0  0  0  0  0  0  0
  144.7531   76.0248  218.9433 H   0  0  0  0  0  0  0  0  0  0  0  0
  143.5124   77.8691  218.6652 H   0  0  0  0  0  0  0  0  0  0  0  0
  142.6184   76.7081  217.6341 H   0  0  0  0  0  0  0  0  0  0  0  0
  139.2012   77.8727  219.7146 H   0  0  0  0  0  0  0  0  0  0  0  0
  138.3897   80.1666  219.9664 H   0  0  0  0  0  0  0  0  0  0  0  0
  139.9565   82.0983  220.0158 H   0  0  0  0  0  0  0  0  0  0  0  0
  142.3971   81.6556  219.7954 H   0  0  0  0  0  0  0  0  0  0  0  0
  143.2245   79.3519  219.5375 H   0  0  0  0  0  0  0  0  0  0  0  0
  138.0764   77.7378  222.9164 H   0  0  0  0  0  0  0  0  0  0  0  0
  138.4569   80.0701  223.6367 H   0  0  0  0  0  0  0  0  0  0  0  0
  140.1110   81.8472  224.0779 H   0  0  0  0  0  0  0  0  0  0  0  0
  142.4218   82.6688  224.1591 H   0  0  0  0  0  0  0  0  0  0  0  0
  144.3116   81.1196  223.5157 H   0  0  0  0  0  0  0  0  0  0  0  0
  143.7432   78.8058  222.8192 H   0  0  0  0  0  0  0  0  0  0  0  0
  1  2  2  0
  2  3  1  0
  3  4  1  0
  4  5  1  0
  5  6  2  0
  5  7  1  0
  7  8  1  0
  8  9  1  0
  9 10  1  0
  9 11  1  0
 11 12  1  0
 12 13  1  0
 13 14  1  0
 14 15  1  0
 15 16  1  0
 16 17  2  0
 17 18  1  0
 18 19  2  0
 19 20  1  0
 20 21  2  0
  2 22  1  0
 22 23  2  0
 23 24  1  0
 24 25  2  0
 25 26  1  0
 26 27  2  0
 27 28  1  0
 28 29  2  0
 29 30  1  0
 30 31  2  0
 12  7  1  0
 21 16  1  0
 31 22  1  0
 30 25  1  0
  3 32  1  0
  4 33  1  0
  4 34  1  0
  8 35  1  0
  8 36  1  0
  9 37  1  6
 10 38  1  0
 11 39  1  0
 11 40  1  0
 12 41  1  6
 13 42  1  0
 13 43  1  0
 14 44  1  0
 14 45  1  0
 17 46  1  0
 18 47  1  0
 19 48  1  0
 20 49  1  0
 21 50  1  0
 23 51  1  0
 24 52  1  0
 26 53  1  0
 27 54  1  0
 28 55  1  0
 29 56  1  0
M  END
>  <meeko>  (20) 
{"free_energy": -5.98, "intermolecular_energy": -8.67, "internal_energy": -3.77, "cluster_size": 5, "cluster_id": 5, "rank_in_cluster": 5}

$$$$
