
     RDKit          3D

 48 50  0  0  0  0  0  0  0  0999 V2000
  141.4380   75.8430  221.0860 C   0  0  0  0  0  0  0  0  0  0  0  0
  140.7980   75.9800  222.3380 O   0  0  0  0  0  0  0  0  0  0  0  0
  140.2480   77.1850  222.7050 C   0  0  0  0  0  0  0  0  0  0  0  0
  141.0780   78.2520  223.0610 C   0  0  0  0  0  0  0  0  0  0  0  0
  140.5850   79.4760  223.4370 C   0  0  0  0  0  0  0  0  0  0  0  0
  139.2160   79.6340  223.4560 C   0  0  0  0  0  0  0  0  0  0  0  0
  138.4100   78.5920  223.1090 C   0  0  0  0  0  0  0  0  0  0  0  0
  138.8890   77.3410  222.7240 C   0  0  0  0  0  0  0  0  0  0  0  0
  137.9040   76.2960  222.3660 C   0  0  2  0  0  0  0  0  0  0  0  0
  136.8810   76.0500  223.4540 C   0  0  0  0  0  0  0  0  0  0  0  0
  138.5170   75.0400  222.0210 N   0  0  0  0  0  0  0  0  0  0  0  0
  138.2000   74.4500  220.7450 C   0  0  0  0  0  0  0  0  0  0  0  0
  137.4020   75.0210  219.9450 O   0  0  0  0  0  0  0  0  0  0  0  0
  138.8130   73.1510  220.3510 C   0  0  0  0  0  0  0  0  0  0  0  0
  138.6900   72.2550  221.4940 N   0  0  0  0  0  0  0  0  0  0  0  0
  139.7710   72.3000  222.4370 C   0  0  0  0  0  0  0  0  0  0  0  0
  140.7010   73.1080  222.1670 O   0  0  0  0  0  0  0  0  0  0  0  0
  139.7840   71.4690  223.6160 C   0  0  0  0  0  0  0  0  0  0  0  0
  139.1340   70.2620  223.5920 C   0  0  0  0  0  0  0  0  0  0  0  0
  139.0890   69.3980  224.6650 C   0  0  0  0  0  0  0  0  0  0  0  0
  139.7460   69.7980  225.8190 C   0  0  0  0  0  0  0  0  0  0  0  0
  139.7120   68.9500  226.8980 C   0  0  0  0  0  0  0  0  0  0  0  0
  140.3800   69.3730  228.0450 C   0  0  0  0  0  0  0  0  0  0  0  0
  140.3860   68.5760  229.1550 F   0  0  0  0  0  0  0  0  0  0  0  0
  141.0400   70.5830  228.0880 C   0  0  0  0  0  0  0  0  0  0  0  0
  141.0540   71.4110  226.9860 C   0  0  0  0  0  0  0  0  0  0  0  0
  140.4020   71.0110  225.8470 C   0  0  0  0  0  0  0  0  0  0  0  0
  140.4140   71.8160  224.7700 N   0  0  0  0  0  0  0  0  0  0  0  0
  142.5028   75.6151  221.2415 H   0  0  0  0  0  0  0  0  0  0  0  0
  140.9667   75.0254  220.5208 H   0  0  0  0  0  0  0  0  0  0  0  0
  141.3428   76.7819  220.5208 H   0  0  0  0  0  0  0  0  0  0  0  0
  142.1679   78.1047  223.0389 H   0  0  0  0  0  0  0  0  0  0  0  0
  141.2579   80.3012  223.7132 H   0  0  0  0  0  0  0  0  0  0  0  0
  138.7757   80.5981  223.7503 H   0  0  0  0  0  0  0  0  0  0  0  0
  137.3212   78.7464  223.1340 H   0  0  0  0  0  0  0  0  0  0  0  0
  137.3933   76.7004  221.4796 H   0  0  0  0  0  0  0  0  0  0  0  0
  137.3580   76.1647  224.4385 H   0  0  0  0  0  0  0  0  0  0  0  0
  136.0608   76.7765  223.3571 H   0  0  0  0  0  0  0  0  0  0  0  0
  136.4807   75.0300  223.3571 H   0  0  0  0  0  0  0  0  0  0  0  0
  139.1750   74.4960  222.6080 H   0  0  0  0  0  0  0  0  0  0  0  0
  138.2826   72.7311  219.4836 H   0  0  0  0  0  0  0  0  0  0  0  0
  139.8681   73.2851  220.0703 H   0  0  0  0  0  0  0  0  0  0  0  0
  137.8780   71.6170  221.6350 H   0  0  0  0  0  0  0  0  0  0  0  0
  138.6201   69.9669  222.6653 H   0  0  0  0  0  0  0  0  0  0  0  0
  138.5572   68.4368  224.6087 H   0  0  0  0  0  0  0  0  0  0  0  0
  139.1842   67.9857  226.8589 H   0  0  0  0  0  0  0  0  0  0  0  0
  141.5589   70.8896  229.0081 H   0  0  0  0  0  0  0  0  0  0  0  0
  141.5794   72.3768  227.0193 H   0  0  0  0  0  0  0  0  0  0  0  0
  1  2  1  0
  2  3  1  0
  3  4  2  0
  4  5  1  0
  5  6  2  0
  6  7  1  0
  7  8  2  0
  8  9  1  0
  9 10  1  0
  9 11  1  0
 11 12  1  0
 12 13  2  0
 12 14  1  0
 14 15  1  0
 15 16  1  0
 16 17  2  0
 16 18  1  0
 18 19  2  0
 19 20  1  0
 20 21  2  0
 21 22  1  0
 22 23  2  0
 23 24  1  0
 23 25  1  0
 25 26  2  0
 26 27  1  0
 27 28  2  0
  8  3  1  0
 28 18  1  0
 27 21  1  0
  1 29  1  0
  1 30  1  0
  1 31  1  0
  4 32  1  0
  5 33  1  0
  6 34  1  0
  7 35  1  0
  9 36  1  6
 10 37  1  0
 10 38  1  0
 10 39  1  0
 11 40  1  0
 14 41  1  0
 14 42  1  0
 15 43  1  0
 19 44  1  0
 20 45  1  0
 22 46  1  0
 25 47  1  0
 26 48  1  0
M  END
>  <meeko>  (1) 
{"free_energy": -7.52, "intermolecular_energy": -9.31, "internal_energy": -2.3, "cluster_size": 20, "cluster_id": 1, "rank_in_cluster": 13}

$$$$

     RDKit          3D

 48 50  0  0  0  0  0  0  0  0999 V2000
  141.4120   74.6610  221.1110 C   0  0  0  0  0  0  0  0  0  0  0  0
  140.3410   74.9110  221.9970 O   0  0  0  0  0  0  0  0  0  0  0  0
  140.0310   76.2010  222.3590 C   0  0  0  0  0  0  0  0  0  0  0  0
  141.0500   77.1350  222.5570 C   0  0  0  0  0  0  0  0  0  0  0  0
  140.7990   78.4350  222.9190 C   0  0  0  0  0  0  0  0  0  0  0  0
  139.4830   78.8080  223.0880 C   0  0  0  0  0  0  0  0  0  0  0  0
  138.4920   77.8940  222.8950 C   0  0  0  0  0  0  0  0  0  0  0  0
  138.7240   76.5690  222.5260 C   0  0  0  0  0  0  0  0  0  0  0  0
  137.5550   75.6810  222.3420 C   0  0  2  0  0  0  0  0  0  0  0  0
  136.5630   75.7640  223.4830 C   0  0  0  0  0  0  0  0  0  0  0  0
  137.9220   74.3010  222.1530 N   0  0  0  0  0  0  0  0  0  0  0  0
  137.2020   73.5290  221.1720 C   0  0  0  0  0  0  0  0  0  0  0  0
  136.2690   74.0490  220.4910 O   0  0  0  0  0  0  0  0  0  0  0  0
  137.5500   72.0980  220.9470 C   0  0  0  0  0  0  0  0  0  0  0  0
  137.8590   71.5230  222.2500 N   0  0  0  0  0  0  0  0  0  0  0  0
  139.2240   71.6470  222.6760 C   0  0  0  0  0  0  0  0  0  0  0  0
  139.9970   72.2390  221.8730 O   0  0  0  0  0  0  0  0  0  0  0  0
  139.6730   71.1240  223.9430 C   0  0  0  0  0  0  0  0  0  0  0  0
  140.5210   71.8770  224.7150 C   0  0  0  0  0  0  0  0  0  0  0  0
  141.0060   71.4650  225.9390 C   0  0  0  0  0  0  0  0  0  0  0  0
  140.5950   70.2180  226.3880 C   0  0  0  0  0  0  0  0  0  0  0  0
  141.0670   69.7930  227.6040 C   0  0  0  0  0  0  0  0  0  0  0  0
  140.6410   68.5380  228.0340 C   0  0  0  0  0  0  0  0  0  0  0  0
  141.0740   68.0550  229.2370 F   0  0  0  0  0  0  0  0  0  0  0  0
  139.7880   67.7680  227.2720 C   0  0  0  0  0  0  0  0  0  0  0  0
  139.3330   68.2260  226.0540 C   0  0  0  0  0  0  0  0  0  0  0  0
  139.7420   69.4600  225.6140 C   0  0  0  0  0  0  0  0  0  0  0  0
  139.3000   69.9100  224.4270 N   0  0  0  0  0  0  0  0  0  0  0  0
  142.3237   74.4482  221.6886 H   0  0  0  0  0  0  0  0  0  0  0  0
  141.1691   73.7954  220.4772 H   0  0  0  0  0  0  0  0  0  0  0  0
  141.5774   75.5447  220.4772 H   0  0  0  0  0  0  0  0  0  0  0  0
  142.0937   76.8168  222.4176 H   0  0  0  0  0  0  0  0  0  0  0  0
  141.6186   79.1532  223.0688 H   0  0  0  0  0  0  0  0  0  0  0  0
  139.2342   79.8396  223.3775 H   0  0  0  0  0  0  0  0  0  0  0  0
  137.4508   78.2187  223.0381 H   0  0  0  0  0  0  0  0  0  0  0  0
  137.0760   76.0534  221.4244 H   0  0  0  0  0  0  0  0  0  0  0  0
  137.1016   75.7189  224.4411 H   0  0  0  0  0  0  0  0  0  0  0  0
  136.0083   76.7117  223.4184 H   0  0  0  0  0  0  0  0  0  0  0  0
  135.8585   74.9217  223.4184 H   0  0  0  0  0  0  0  0  0  0  0  0
  138.6620   73.7880  222.6640 H   0  0  0  0  0  0  0  0  0  0  0  0
  136.6987   71.5693  220.4934 H   0  0  0  0  0  0  0  0  0  0  0  0
  138.4079   72.0059  220.2647 H   0  0  0  0  0  0  0  0  0  0  0  0
  137.1490   71.0480  222.8480 H   0  0  0  0  0  0  0  0  0  0  0  0
  140.8310   72.8626  224.3376 H   0  0  0  0  0  0  0  0  0  0  0  0
  141.6862   72.0951  226.5309 H   0  0  0  0  0  0  0  0  0  0  0  0
  141.7469   70.4113  228.2085 H   0  0  0  0  0  0  0  0  0  0  0  0
  139.4683   66.7814  227.6386 H   0  0  0  0  0  0  0  0  0  0  0  0
  138.6532   67.6124  225.4446 H   0  0  0  0  0  0  0  0  0  0  0  0
  1  2  1  0
  2  3  1  0
  3  4  2  0
  4  5  1  0
  5  6  2  0
  6  7  1  0
  7  8  2  0
  8  9  1  0
  9 10  1  0
  9 11  1  0
 11 12  1  0
 12 13  2  0
 12 14  1  0
 14 15  1  0
 15 16  1  0
 16 17  2  0
 16 18  1  0
 18 19  2  0
 19 20  1  0
 20 21  2  0
 21 22  1  0
 22 23  2  0
 23 24  1  0
 23 25  1  0
 25 26  2  0
 26 27  1  0
 27 28  2  0
  8  3  1  0
 28 18  1  0
 27 21  1  0
  1 29  1  0
  1 30  1  0
  1 31  1  0
  4 32  1  0
  5 33  1  0
  6 34  1  0
  7 35  1  0
  9 36  1  6
 10 37  1  0
 10 38  1  0
 10 39  1  0
 11 40  1  0
 14 41  1  0
 14 42  1  0
 15 43  1  0
 19 44  1  0
 20 45  1  0
 22 46  1  0
 25 47  1  0
 26 48  1  0
M  END
>  <meeko>  (2) 
{"free_energy": -7.42, "intermolecular_energy": -9.21, "internal_energy": -2.47, "cluster_size": 20, "cluster_id": 1, "rank_in_cluster": 15}

$$$$

     RDKit          3D

 48 50  0  0  0  0  0  0  0  0999 V2000
  141.4650   75.8680  221.0420 C   0  0  0  0  0  0  0  0  0  0  0  0
  140.9190   76.0160  222.3360 O   0  0  0  0  0  0  0  0  0  0  0  0
  140.3400   77.2050  222.7110 C   0  0  0  0  0  0  0  0  0  0  0  0
  141.1440   78.2830  223.0940 C   0  0  0  0  0  0  0  0  0  0  0  0
  140.6210   79.4930  223.4780 C   0  0  0  0  0  0  0  0  0  0  0  0
  139.2490   79.6240  223.4770 C   0  0  0  0  0  0  0  0  0  0  0  0
  138.4690   78.5710  223.1040 C   0  0  0  0  0  0  0  0  0  0  0  0
  138.9790   77.3340  222.7100 C   0  0  0  0  0  0  0  0  0  0  0  0
  138.0200   76.2760  222.3220 C   0  0  2  0  0  0  0  0  0  0  0  0
  136.9660   76.0160  223.3780 C   0  0  0  0  0  0  0  0  0  0  0  0
  138.6610   75.0280  221.9990 N   0  0  0  0  0  0  0  0  0  0  0  0
  138.2070   74.3060  220.8370 C   0  0  0  0  0  0  0  0  0  0  0  0
  137.2690   74.7570  220.1160 O   0  0  0  0  0  0  0  0  0  0  0  0
  138.8440   73.0110  220.4670 C   0  0  0  0  0  0  0  0  0  0  0  0
  138.7010   72.1220  221.6130 N   0  0  0  0  0  0  0  0  0  0  0  0
  139.7480   72.1970  222.5920 C   0  0  0  0  0  0  0  0  0  0  0  0
  140.6710   73.0220  222.3460 O   0  0  0  0  0  0  0  0  0  0  0  0
  139.7380   71.3750  223.7780 C   0  0  0  0  0  0  0  0  0  0  0  0
  139.0130   70.2110  223.7810 C   0  0  0  0  0  0  0  0  0  0  0  0
  138.9410   69.3600  224.8630 C   0  0  0  0  0  0  0  0  0  0  0  0
  139.6510   69.7270  225.9960 C   0  0  0  0  0  0  0  0  0  0  0  0
  139.5910   68.8910  227.0830 C   0  0  0  0  0  0  0  0  0  0  0  0
  140.3130   69.2800  228.2100 C   0  0  0  0  0  0  0  0  0  0  0  0
  140.2960   68.4920  229.3270 F   0  0  0  0  0  0  0  0  0  0  0  0
  141.0490   70.4460  228.2250 C   0  0  0  0  0  0  0  0  0  0  0  0
  141.0870   71.2630  227.1160 C   0  0  0  0  0  0  0  0  0  0  0  0
  140.3820   70.8960  225.9960 C   0  0  0  0  0  0  0  0  0  0  0  0
  140.4180   71.6900  224.9130 N   0  0  0  0  0  0  0  0  0  0  0  0
  142.5239   75.5810  221.1215 H   0  0  0  0  0  0  0  0  0  0  0  0
  140.9132   75.0870  220.4983 H   0  0  0  0  0  0  0  0  0  0  0  0
  141.3832   76.8207  220.4983 H   0  0  0  0  0  0  0  0  0  0  0  0
  142.2367   78.1569  223.0874 H   0  0  0  0  0  0  0  0  0  0  0  0
  141.2732   80.3273  223.7756 H   0  0  0  0  0  0  0  0  0  0  0  0
  138.7853   80.5755  223.7764 H   0  0  0  0  0  0  0  0  0  0  0  0
  137.3771   78.7037  223.1141 H   0  0  0  0  0  0  0  0  0  0  0  0
  137.5322   76.6732  221.4196 H   0  0  0  0  0  0  0  0  0  0  0  0
  137.4129   76.1262  224.3771 H   0  0  0  0  0  0  0  0  0  0  0  0
  136.1447   76.7385  223.2620 H   0  0  0  0  0  0  0  0  0  0  0  0
  136.5749   74.9944  223.2620 H   0  0  0  0  0  0  0  0  0  0  0  0
  139.4290   74.5770  222.5270 H   0  0  0  0  0  0  0  0  0  0  0  0
  138.3404   72.5796  219.5893 H   0  0  0  0  0  0  0  0  0  0  0  0
  139.9043   73.1543  220.2117 H   0  0  0  0  0  0  0  0  0  0  0  0
  137.8980   71.4680  221.7330 H   0  0  0  0  0  0  0  0  0  0  0  0
  138.4585   69.9416  222.8700 H   0  0  0  0  0  0  0  0  0  0  0  0
  138.3485   68.4338  224.8292 H   0  0  0  0  0  0  0  0  0  0  0  0
  139.0031   67.9614  227.0656 H   0  0  0  0  0  0  0  0  0  0  0  0
  141.6099   70.7260  229.1289 H   0  0  0  0  0  0  0  0  0  0  0  0
  141.6726   72.1941  227.1276 H   0  0  0  0  0  0  0  0  0  0  0  0
  1  2  1  0
  2  3  1  0
  3  4  2  0
  4  5  1  0
  5  6  2  0
  6  7  1  0
  7  8  2  0
  8  9  1  0
  9 10  1  0
  9 11  1  0
 11 12  1  0
 12 13  2  0
 12 14  1  0
 14 15  1  0
 15 16  1  0
 16 17  2  0
 16 18  1  0
 18 19  2  0
 19 20  1  0
 20 21  2  0
 21 22  1  0
 22 23  2  0
 23 24  1  0
 23 25  1  0
 25 26  2  0
 26 27  1  0
 27 28  2  0
  8  3  1  0
 28 18  1  0
 27 21  1  0
  1 29  1  0
  1 30  1  0
  1 31  1  0
  4 32  1  0
  5 33  1  0
  6 34  1  0
  7 35  1  0
  9 36  1  6
 10 37  1  0
 10 38  1  0
 10 39  1  0
 11 40  1  0
 14 41  1  0
 14 42  1  0
 15 43  1  0
 19 44  1  0
 20 45  1  0
 22 46  1  0
 25 47  1  0
 26 48  1  0
M  END
>  <meeko>  (3) 
{"free_energy": -7.39, "intermolecular_energy": -9.18, "internal_energy": -2.34, "cluster_size": 20, "cluster_id": 1, "rank_in_cluster": 16}

$$$$

     RDKit          3D

 48 50  0  0  0  0  0  0  0  0999 V2000
  143.3480   76.5340  219.1300 C   0  0  0  0  0  0  0  0  0  0  0  0
  142.1720   77.2140  218.7460 O   0  0  0  0  0  0  0  0  0  0  0  0
  142.0380   78.5600  218.9940 C   0  0  0  0  0  0  0  0  0  0  0  0
  142.5880   79.4910  218.1100 C   0  0  0  0  0  0  0  0  0  0  0  0
  142.4870   80.8460  218.3070 C   0  0  0  0  0  0  0  0  0  0  0  0
  141.8120   81.2780  219.4290 C   0  0  0  0  0  0  0  0  0  0  0  0
  141.2770   80.3670  220.2890 C   0  0  0  0  0  0  0  0  0  0  0  0
  141.3690   78.9880  220.1080 C   0  0  0  0  0  0  0  0  0  0  0  0
  140.7370   78.1080  221.1160 C   0  0  2  0  0  0  0  0  0  0  0  0
  141.4200   78.1710  222.4670 C   0  0  0  0  0  0  0  0  0  0  0  0
  140.6720   76.7310  220.7000 N   0  0  0  0  0  0  0  0  0  0  0  0
  139.9630   75.7950  221.5350 C   0  0  0  0  0  0  0  0  0  0  0  0
  139.4100   76.1720  222.6100 O   0  0  0  0  0  0  0  0  0  0  0  0
  139.8730   74.3620  221.1400 C   0  0  0  0  0  0  0  0  0  0  0  0
  139.6180   73.5980  222.3550 N   0  0  0  0  0  0  0  0  0  0  0  0
  140.3730   72.3860  222.4960 C   0  0  0  0  0  0  0  0  0  0  0  0
  141.1690   72.1210  221.5530 O   0  0  0  0  0  0  0  0  0  0  0  0
  140.2240   71.5290  223.6470 C   0  0  0  0  0  0  0  0  0  0  0  0
  139.5690   70.3320  223.5110 C   0  0  0  0  0  0  0  0  0  0  0  0
  139.3750   69.4460  224.5500 C   0  0  0  0  0  0  0  0  0  0  0  0
  139.8820   69.8120  225.7880 C   0  0  0  0  0  0  0  0  0  0  0  0
  139.6990   68.9420  226.8330 C   0  0  0  0  0  0  0  0  0  0  0  0
  140.2170   69.3310  228.0670 C   0  0  0  0  0  0  0  0  0  0  0  0
  140.0690   68.5100  229.1500 F   0  0  0  0  0  0  0  0  0  0  0  0
  140.8790   70.5300  228.2230 C   0  0  0  0  0  0  0  0  0  0  0  0
  141.0450   71.3810  227.1510 C   0  0  0  0  0  0  0  0  0  0  0  0
  140.5420   71.0150  225.9280 C   0  0  0  0  0  0  0  0  0  0  0  0
  140.7020   71.8430  224.8810 N   0  0  0  0  0  0  0  0  0  0  0  0
  143.4092   76.4986  220.2277 H   0  0  0  0  0  0  0  0  0  0  0  0
  143.3260   75.5092  218.7308 H   0  0  0  0  0  0  0  0  0  0  0  0
  144.2252   77.0643  218.7308 H   0  0  0  0  0  0  0  0  0  0  0  0
  143.1229   79.1244  217.2214 H   0  0  0  0  0  0  0  0  0  0  0  0
  142.9281   81.5603  217.5963 H   0  0  0  0  0  0  0  0  0  0  0  0
  141.7059   82.3545  219.6290 H   0  0  0  0  0  0  0  0  0  0  0  0
  140.7429   80.7403  221.1752 H   0  0  0  0  0  0  0  0  0  0  0  0
  139.7142   78.5011  221.2123 H   0  0  0  0  0  0  0  0  0  0  0  0
  140.6645   78.1013  223.2634 H   0  0  0  0  0  0  0  0  0  0  0  0
  142.1282   77.3344  222.5592 H   0  0  0  0  0  0  0  0  0  0  0  0
  141.9632   79.1231  222.5592 H   0  0  0  0  0  0  0  0  0  0  0  0
  141.0960   76.3280  219.8450 H   0  0  0  0  0  0  0  0  0  0  0  0
  139.0499   74.2188  220.4244 H   0  0  0  0  0  0  0  0  0  0  0  0
  140.8036   74.0298  220.6565 H   0  0  0  0  0  0  0  0  0  0  0  0
  138.9370   73.8970  223.0850 H   0  0  0  0  0  0  0  0  0  0  0  0
  139.1768   70.0637  222.5189 H   0  0  0  0  0  0  0  0  0  0  0  0
  138.8434   68.4942  224.4038 H   0  0  0  0  0  0  0  0  0  0  0  0
  139.1704   67.9861  226.7034 H   0  0  0  0  0  0  0  0  0  0  0  0
  141.2775   70.8097  229.2094 H   0  0  0  0  0  0  0  0  0  0  0  0
  141.5724   72.3384  227.2743 H   0  0  0  0  0  0  0  0  0  0  0  0
  1  2  1  0
  2  3  1  0
  3  4  2  0
  4  5  1  0
  5  6  2  0
  6  7  1  0
  7  8  2  0
  8  9  1  0
  9 10  1  0
  9 11  1  0
 11 12  1  0
 12 13  2  0
 12 14  1  0
 14 15  1  0
 15 16  1  0
 16 17  2  0
 16 18  1  0
 18 19  2  0
 19 20  1  0
 20 21  2  0
 21 22  1  0
 22 23  2  0
 23 24  1  0
 23 25  1  0
 25 26  2  0
 26 27  1  0
 27 28  2  0
  8  3  1  0
 28 18  1  0
 27 21  1  0
  1 29  1  0
  1 30  1  0
  1 31  1  0
  4 32  1  0
  5 33  1  0
  6 34  1  0
  7 35  1  0
  9 36  1  1
 10 37  1  0
 10 38  1  0
 10 39  1  0
 11 40  1  0
 14 41  1  0
 14 42  1  0
 15 43  1  0
 19 44  1  0
 20 45  1  0
 22 46  1  0
 25 47  1  0
 26 48  1  0
M  END
>  <meeko>  (4) 
{"free_energy": -7.53, "intermolecular_energy": -9.32, "internal_energy": -1.81, "cluster_size": 20, "cluster_id": 1, "rank_in_cluster": 11}

$$$$

     RDKit          3D

 48 50  0  0  0  0  0  0  0  0999 V2000
  141.7870   80.7580  219.3260 C   0  0  0  0  0  0  0  0  0  0  0  0
  142.1440   79.6000  220.0510 O   0  0  0  0  0  0  0  0  0  0  0  0
  141.8300   79.4950  221.3850 C   0  0  0  0  0  0  0  0  0  0  0  0
  142.6990   80.0120  222.3500 C   0  0  0  0  0  0  0  0  0  0  0  0
  142.4370   79.9360  223.6950 C   0  0  0  0  0  0  0  0  0  0  0  0
  141.2670   79.3190  224.0830 C   0  0  0  0  0  0  0  0  0  0  0  0
  140.4230   78.8160  223.1400 C   0  0  0  0  0  0  0  0  0  0  0  0
  140.6680   78.8840  221.7690 C   0  0  0  0  0  0  0  0  0  0  0  0
  139.6640   78.3020  220.8510 C   0  0  2  0  0  0  0  0  0  0  0  0
  138.2550   78.3610  221.4010 C   0  0  0  0  0  0  0  0  0  0  0  0
  139.9580   76.9400  220.4880 N   0  0  0  0  0  0  0  0  0  0  0  0
  139.7400   75.9070  221.4690 C   0  0  0  0  0  0  0  0  0  0  0  0
  139.3000   76.1880  222.6230 O   0  0  0  0  0  0  0  0  0  0  0  0
  140.0310   74.4850  221.1330 C   0  0  0  0  0  0  0  0  0  0  0  0
  139.7600   73.6990  222.3290 N   0  0  0  0  0  0  0  0  0  0  0  0
  140.4710   72.4560  222.4310 C   0  0  0  0  0  0  0  0  0  0  0  0
  141.2490   72.1900  221.4730 O   0  0  0  0  0  0  0  0  0  0  0  0
  140.3010   71.5750  223.5600 C   0  0  0  0  0  0  0  0  0  0  0  0
  139.6610   70.3750  223.3830 C   0  0  0  0  0  0  0  0  0  0  0  0
  139.4500   69.4660  224.3980 C   0  0  0  0  0  0  0  0  0  0  0  0
  139.9230   69.8110  225.6560 C   0  0  0  0  0  0  0  0  0  0  0  0
  139.7220   68.9180  226.6780 C   0  0  0  0  0  0  0  0  0  0  0  0
  140.2060   69.2850  227.9320 C   0  0  0  0  0  0  0  0  0  0  0  0
  140.0390   68.4400  228.9930 F   0  0  0  0  0  0  0  0  0  0  0  0
  140.8530   70.4870  228.1290 C   0  0  0  0  0  0  0  0  0  0  0  0
  141.0370   71.3610  227.0800 C   0  0  0  0  0  0  0  0  0  0  0  0
  140.5680   71.0160  225.8370 C   0  0  0  0  0  0  0  0  0  0  0  0
  140.7470   71.8670  224.8120 N   0  0  0  0  0  0  0  0  0  0  0  0
  141.5374   81.5675  220.0277 H   0  0  0  0  0  0  0  0  0  0  0  0
  142.6310   81.0689  218.6928 H   0  0  0  0  0  0  0  0  0  0  0  0
  140.9145   80.5397  218.6928 H   0  0  0  0  0  0  0  0  0  0  0  0
  143.6284   80.4984  222.0188 H   0  0  0  0  0  0  0  0  0  0  0  0
  143.1351   80.3522  224.4363 H   0  0  0  0  0  0  0  0  0  0  0  0
  141.0160   79.2332  225.1505 H   0  0  0  0  0  0  0  0  0  0  0  0
  139.4966   78.3291  223.4787 H   0  0  0  0  0  0  0  0  0  0  0  0
  139.7231   78.9331  219.9520 H   0  0  0  0  0  0  0  0  0  0  0  0
  138.2902   78.3595  222.5004 H   0  0  0  0  0  0  0  0  0  0  0  0
  137.7630   79.2805  221.0511 H   0  0  0  0  0  0  0  0  0  0  0  0
  137.6879   77.4858  221.0511 H   0  0  0  0  0  0  0  0  0  0  0  0
  140.3240   76.6130  219.5760 H   0  0  0  0  0  0  0  0  0  0  0  0
  139.3841   74.1521  220.3079 H   0  0  0  0  0  0  0  0  0  0  0  0
  141.0765   74.3640  220.8132 H   0  0  0  0  0  0  0  0  0  0  0  0
  139.0950   74.0010  223.0730 H   0  0  0  0  0  0  0  0  0  0  0  0
  139.2960   70.1240  222.3761 H   0  0  0  0  0  0  0  0  0  0  0  0
  138.9313   68.5126  224.2190 H   0  0  0  0  0  0  0  0  0  0  0  0
  139.2049   67.9608  226.5156 H   0  0  0  0  0  0  0  0  0  0  0  0
  141.2246   70.7496  229.1305 H   0  0  0  0  0  0  0  0  0  0  0  0
  141.5518   72.3205  227.2362 H   0  0  0  0  0  0  0  0  0  0  0  0
  1  2  1  0
  2  3  1  0
  3  4  2  0
  4  5  1  0
  5  6  2  0
  6  7  1  0
  7  8  2  0
  8  9  1  0
  9 10  1  0
  9 11  1  0
 11 12  1  0
 12 13  2  0
 12 14  1  0
 14 15  1  0
 15 16  1  0
 16 17  2  0
 16 18  1  0
 18 19  2  0
 19 20  1  0
 20 21  2  0
 21 22  1  0
 22 23  2  0
 23 24  1  0
 23 25  1  0
 25 26  2  0
 26 27  1  0
 27 28  2  0
  8  3  1  0
 28 18  1  0
 27 21  1  0
  1 29  1  0
  1 30  1  0
  1 31  1  0
  4 32  1  0
  5 33  1  0
  6 34  1  0
  7 35  1  0
  9 36  1  6
 10 37  1  0
 10 38  1  0
 10 39  1  0
 11 40  1  0
 14 41  1  0
 14 42  1  0
 15 43  1  0
 19 44  1  0
 20 45  1  0
 22 46  1  0
 25 47  1  0
 26 48  1  0
M  END
>  <meeko>  (5) 
{"free_energy": -7.86, "intermolecular_energy": -9.65, "internal_energy": -1.42, "cluster_size": 20, "cluster_id": 1, "rank_in_cluster": 8}

$$$$

     RDKit          3D

 48 50  0  0  0  0  0  0  0  0999 V2000
  141.4020   75.6210  221.0840 C   0  0  0  0  0  0  0  0  0  0  0  0
  140.8350   75.8830  222.3520 O   0  0  0  0  0  0  0  0  0  0  0  0
  140.4640   77.1620  222.6920 C   0  0  0  0  0  0  0  0  0  0  0  0
  141.4300   78.0830  223.1060 C   0  0  0  0  0  0  0  0  0  0  0  0
  141.1180   79.3720  223.4580 C   0  0  0  0  0  0  0  0  0  0  0  0
  139.7930   79.7470  223.3940 C   0  0  0  0  0  0  0  0  0  0  0  0
  138.8540   78.8470  222.9910 C   0  0  0  0  0  0  0  0  0  0  0  0
  139.1490   77.5330  222.6280 C   0  0  0  0  0  0  0  0  0  0  0  0
  138.0340   76.6590  222.2030 C   0  0  2  0  0  0  0  0  0  0  0  0
  136.7930   76.8260  223.0540 C   0  0  0  0  0  0  0  0  0  0  0  0
  138.3900   75.2640  222.1810 N   0  0  0  0  0  0  0  0  0  0  0  0
  137.8670   74.4400  221.1200 C   0  0  0  0  0  0  0  0  0  0  0  0
  137.1140   74.9290  220.2270 O   0  0  0  0  0  0  0  0  0  0  0  0
  138.2110   72.9920  221.0620 C   0  0  0  0  0  0  0  0  0  0  0  0
  138.4770   72.5600  222.4280 N   0  0  0  0  0  0  0  0  0  0  0  0
  139.5440   71.6140  222.5850 C   0  0  0  0  0  0  0  0  0  0  0  0
  140.1280   71.2650  221.5210 O   0  0  0  0  0  0  0  0  0  0  0  0
  139.9180   71.0980  223.8790 C   0  0  0  0  0  0  0  0  0  0  0  0
  140.6720   71.8780  224.7180 C   0  0  0  0  0  0  0  0  0  0  0  0
  141.0790   71.4760  225.9720 C   0  0  0  0  0  0  0  0  0  0  0  0
  140.6890   70.2090  226.3810 C   0  0  0  0  0  0  0  0  0  0  0  0
  141.0850   69.7930  227.6270 C   0  0  0  0  0  0  0  0  0  0  0  0
  140.6810   68.5170  228.0170 C   0  0  0  0  0  0  0  0  0  0  0  0
  141.0410   68.0420  229.2460 F   0  0  0  0  0  0  0  0  0  0  0  0
  139.9220   67.7200  227.1870 C   0  0  0  0  0  0  0  0  0  0  0  0
  139.5420   68.1690  225.9410 C   0  0  0  0  0  0  0  0  0  0  0  0
  139.9300   69.4230  225.5400 C   0  0  0  0  0  0  0  0  0  0  0  0
  139.5600   69.8650  224.3260 N   0  0  0  0  0  0  0  0  0  0  0  0
  142.3936   75.1628  221.2133 H   0  0  0  0  0  0  0  0  0  0  0  0
  140.7501   74.9329  220.5259 H   0  0  0  0  0  0  0  0  0  0  0  0
  141.5036   76.5635  220.5259 H   0  0  0  0  0  0  0  0  0  0  0  0
  142.4812   77.7622  223.1515 H   0  0  0  0  0  0  0  0  0  0  0  0
  141.8963   80.0798  223.7793 H   0  0  0  0  0  0  0  0  0  0  0  0
  139.4952   80.7700  223.6676 H   0  0  0  0  0  0  0  0  0  0  0  0
  137.8047   79.1744  222.9494 H   0  0  0  0  0  0  0  0  0  0  0  0
  137.8110   76.9881  221.1774 H   0  0  0  0  0  0  0  0  0  0  0  0
  137.0702   76.7887  224.1179 H   0  0  0  0  0  0  0  0  0  0  0  0
  136.3234   77.7954  222.8312 H   0  0  0  0  0  0  0  0  0  0  0  0
  136.0838   76.0152  222.8312 H   0  0  0  0  0  0  0  0  0  0  0  0
  138.9910   74.7730  222.8670 H   0  0  0  0  0  0  0  0  0  0  0  0
  137.3697   72.4208  220.6426 H   0  0  0  0  0  0  0  0  0  0  0  0
  139.0882   72.8233  220.4201 H   0  0  0  0  0  0  0  0  0  0  0  0
  137.9380   72.9050  223.2510 H   0  0  0  0  0  0  0  0  0  0  0  0
  140.9681   72.8790  224.3713 H   0  0  0  0  0  0  0  0  0  0  0  0
  141.6844   72.1289  226.6179 H   0  0  0  0  0  0  0  0  0  0  0  0
  141.6905   70.4338  228.2848 H   0  0  0  0  0  0  0  0  0  0  0  0
  139.6173   66.7176  227.5221 H   0  0  0  0  0  0  0  0  0  0  0  0
  138.9373   67.5326  225.2782 H   0  0  0  0  0  0  0  0  0  0  0  0
  1  2  1  0
  2  3  1  0
  3  4  2  0
  4  5  1  0
  5  6  2  0
  6  7  1  0
  7  8  2  0
  8  9  1  0
  9 10  1  0
  9 11  1  0
 11 12  1  0
 12 13  2  0
 12 14  1  0
 14 15  1  0
 15 16  1  0
 16 17  2  0
 16 18  1  0
 18 19  2  0
 19 20  1  0
 20 21  2  0
 21 22  1  0
 22 23  2  0
 23 24  1  0
 23 25  1  0
 25 26  2  0
 26 27  1  0
 27 28  2  0
  8  3  1  0
 28 18  1  0
 27 21  1  0
  1 29  1  0
  1 30  1  0
  1 31  1  0
  4 32  1  0
  5 33  1  0
  6 34  1  0
  7 35  1  0
  9 36  1  6
 10 37  1  0
 10 38  1  0
 10 39  1  0
 11 40  1  0
 14 41  1  0
 14 42  1  0
 15 43  1  0
 19 44  1  0
 20 45  1  0
 22 46  1  0
 25 47  1  0
 26 48  1  0
M  END
>  <meeko>  (6) 
{"free_energy": -8.02, "intermolecular_energy": -9.81, "internal_energy": -1.65, "cluster_size": 20, "cluster_id": 1, "rank_in_cluster": 5}

$$$$

     RDKit          3D

 48 50  0  0  0  0  0  0  0  0999 V2000
  138.2410   77.7630  222.7200 C   0  0  0  0  0  0  0  0  0  0  0  0
  139.0550   78.5470  221.8730 O   0  0  0  0  0  0  0  0  0  0  0  0
  140.2090   79.1170  222.3550 C   0  0  0  0  0  0  0  0  0  0  0  0
  140.1400   80.1270  223.3190 C   0  0  0  0  0  0  0  0  0  0  0  0
  141.2580   80.7310  223.8360 C   0  0  0  0  0  0  0  0  0  0  0  0
  142.4850   80.3090  223.3700 C   0  0  0  0  0  0  0  0  0  0  0  0
  142.5490   79.3250  222.4300 C   0  0  0  0  0  0  0  0  0  0  0  0
  141.4260   78.6970  221.8920 C   0  0  0  0  0  0  0  0  0  0  0  0
  141.6360   77.6380  220.8810 C   0  0  2  0  0  0  0  0  0  0  0  0
  141.9310   78.1860  219.5010 C   0  0  0  0  0  0  0  0  0  0  0  0
  140.5260   76.7260  220.7830 N   0  0  0  0  0  0  0  0  0  0  0  0
  140.7420   75.3440  221.1330 C   0  0  0  0  0  0  0  0  0  0  0  0
  141.8790   74.9400  221.5170 O   0  0  0  0  0  0  0  0  0  0  0  0
  139.6200   74.3680  221.0450 C   0  0  0  0  0  0  0  0  0  0  0  0
  139.5640   73.6640  222.3200 N   0  0  0  0  0  0  0  0  0  0  0  0
  140.0050   72.2980  222.2940 C   0  0  0  0  0  0  0  0  0  0  0  0
  140.3870   71.8660  221.1720 O   0  0  0  0  0  0  0  0  0  0  0  0
  140.0050   71.4790  223.4820 C   0  0  0  0  0  0  0  0  0  0  0  0
  139.4530   70.2250  223.4300 C   0  0  0  0  0  0  0  0  0  0  0  0
  139.4050   69.3680  224.5090 C   0  0  0  0  0  0  0  0  0  0  0  0
  139.9530   69.8270  225.6980 C   0  0  0  0  0  0  0  0  0  0  0  0
  139.9140   68.9870  226.7830 C   0  0  0  0  0  0  0  0  0  0  0  0
  140.4710   69.4680  227.9660 C   0  0  0  0  0  0  0  0  0  0  0  0
  140.4660   68.6820  229.0830 F   0  0  0  0  0  0  0  0  0  0  0  0
  141.0320   70.7260  228.0360 C   0  0  0  0  0  0  0  0  0  0  0  0
  141.0540   71.5450  226.9270 C   0  0  0  0  0  0  0  0  0  0  0  0
  140.5100   71.0870  225.7530 C   0  0  0  0  0  0  0  0  0  0  0  0
  140.5300   71.8830  224.6700 N   0  0  0  0  0  0  0  0  0  0  0  0
  138.4776   77.9909  223.7698 H   0  0  0  0  0  0  0  0  0  0  0  0
  137.1826   77.9906  222.5250 H   0  0  0  0  0  0  0  0  0  0  0  0
  138.4287   76.6968  222.5250 H   0  0  0  0  0  0  0  0  0  0  0  0
  139.1512   80.4499  223.6768 H   0  0  0  0  0  0  0  0  0  0  0  0
  141.1783   81.5233  224.5949 H   0  0  0  0  0  0  0  0  0  0  0  0
  143.4087   80.7650  223.7557 H   0  0  0  0  0  0  0  0  0  0  0  0
  143.5411   79.0084  222.0758 H   0  0  0  0  0  0  0  0  0  0  0  0
  142.5185   77.0915  221.2450 H   0  0  0  0  0  0  0  0  0  0  0  0
  142.4506   79.1512  219.5931 H   0  0  0  0  0  0  0  0  0  0  0  0
  142.5692   77.4768  218.9536 H   0  0  0  0  0  0  0  0  0  0  0  0
  140.9876   78.3282  218.9536 H   0  0  0  0  0  0  0  0  0  0  0  0
  139.5650   76.9590  220.4750 H   0  0  0  0  0  0  0  0  0  0  0  0
  138.6728   74.8972  220.8642 H   0  0  0  0  0  0  0  0  0  0  0  0
  139.7779   73.6634  220.2151 H   0  0  0  0  0  0  0  0  0  0  0  0
  139.2310   74.1060  223.2030 H   0  0  0  0  0  0  0  0  0  0  0  0
  139.0252   69.8842  222.4756 H   0  0  0  0  0  0  0  0  0  0  0  0
  138.9537   68.3679  224.4308 H   0  0  0  0  0  0  0  0  0  0  0  0
  139.4655   67.9845  226.7215 H   0  0  0  0  0  0  0  0  0  0  0  0
  141.4651   71.0786  228.9837 H   0  0  0  0  0  0  0  0  0  0  0  0
  141.5002   72.5489  226.9822 H   0  0  0  0  0  0  0  0  0  0  0  0
  1  2  1  0
  2  3  1  0
  3  4  2  0
  4  5  1  0
  5  6  2  0
  6  7  1  0
  7  8  2  0
  8  9  1  0
  9 10  1  0
  9 11  1  0
 11 12  1  0
 12 13  2  0
 12 14  1  0
 14 15  1  0
 15 16  1  0
 16 17  2  0
 16 18  1  0
 18 19  2  0
 19 20  1  0
 20 21  2  0
 21 22  1  0
 22 23  2  0
 23 24  1  0
 23 25  1  0
 25 26  2  0
 26 27  1  0
 27 28  2  0
  8  3  1  0
 28 18  1  0
 27 21  1  0
  1 29  1  0
  1 30  1  0
  1 31  1  0
  4 32  1  0
  5 33  1  0
  6 34  1  0
  7 35  1  0
  9 36  1  1
 10 37  1  0
 10 38  1  0
 10 39  1  0
 11 40  1  0
 14 41  1  0
 14 42  1  0
 15 43  1  0
 19 44  1  0
 20 45  1  0
 22 46  1  0
 25 47  1  0
 26 48  1  0
M  END
>  <meeko>  (7) 
{"free_energy": -8.04, "intermolecular_energy": -9.83, "internal_energy": -1.62, "cluster_size": 20, "cluster_id": 1, "rank_in_cluster": 4}

$$$$

     RDKit          3D

 48 50  0  0  0  0  0  0  0  0999 V2000
  141.8520   76.9000  220.1880 C   0  0  0  0  0  0  0  0  0  0  0  0
  141.4380   76.6760  221.5190 O   0  0  0  0  0  0  0  0  0  0  0  0
  140.9050   77.7050  222.2600 C   0  0  0  0  0  0  0  0  0  0  0  0
  141.7380   78.7080  222.7620 C   0  0  0  0  0  0  0  0  0  0  0  0
  141.2620   79.7580  223.5080 C   0  0  0  0  0  0  0  0  0  0  0  0
  139.9070   79.8010  223.7560 C   0  0  0  0  0  0  0  0  0  0  0  0
  139.0980   78.8210  223.2650 C   0  0  0  0  0  0  0  0  0  0  0  0
  139.5600   77.7470  222.5060 C   0  0  0  0  0  0  0  0  0  0  0  0
  138.5720   76.7540  222.0280 C   0  0  2  0  0  0  0  0  0  0  0  0
  137.5380   76.3970  223.0750 C   0  0  0  0  0  0  0  0  0  0  0  0
  139.1820   75.5380  221.5530 N   0  0  0  0  0  0  0  0  0  0  0  0
  138.3380   74.5410  220.9450 C   0  0  0  0  0  0  0  0  0  0  0  0
  137.0910   74.7270  220.8290 O   0  0  0  0  0  0  0  0  0  0  0  0
  138.9290   73.2700  220.4410 C   0  0  0  0  0  0  0  0  0  0  0  0
  138.8510   72.3020  221.5280 N   0  0  0  0  0  0  0  0  0  0  0  0
  139.8640   72.4200  222.5390 C   0  0  0  0  0  0  0  0  0  0  0  0
  140.7030   73.3470  222.3680 O   0  0  0  0  0  0  0  0  0  0  0  0
  139.9110   71.5310  223.6730 C   0  0  0  0  0  0  0  0  0  0  0  0
  139.3770   70.2730  223.5600 C   0  0  0  0  0  0  0  0  0  0  0  0
  139.3730   69.3510  224.5850 C   0  0  0  0  0  0  0  0  0  0  0  0
  139.9490   69.7450  225.7840 C   0  0  0  0  0  0  0  0  0  0  0  0
  139.9550   68.8400  226.8160 C   0  0  0  0  0  0  0  0  0  0  0  0
  140.5390   69.2580  228.0100 C   0  0  0  0  0  0  0  0  0  0  0  0
  140.5780   68.4040  229.0760 F   0  0  0  0  0  0  0  0  0  0  0  0
  141.0830   70.5180  228.1410 C   0  0  0  0  0  0  0  0  0  0  0  0
  141.0600   71.4030  227.0840 C   0  0  0  0  0  0  0  0  0  0  0  0
  140.4890   71.0090  225.9000 C   0  0  0  0  0  0  0  0  0  0  0  0
  140.4650   71.8690  224.8680 N   0  0  0  0  0  0  0  0  0  0  0  0
  142.8195   77.4235  220.1881 H   0  0  0  0  0  0  0  0  0  0  0  0
  141.9570   75.9356  219.6694 H   0  0  0  0  0  0  0  0  0  0  0  0
  141.1022   77.5155  219.6694 H   0  0  0  0  0  0  0  0  0  0  0  0
  142.8164   78.6545  222.5516 H   0  0  0  0  0  0  0  0  0  0  0  0
  141.9373   80.5361  223.8934 H   0  0  0  0  0  0  0  0  0  0  0  0
  139.4802   80.6238  224.3483 H   0  0  0  0  0  0  0  0  0  0  0  0
  138.0207   78.8805  223.4793 H   0  0  0  0  0  0  0  0  0  0  0  0
  138.0710   77.2559  221.1871 H   0  0  0  0  0  0  0  0  0  0  0  0
  137.9654   76.5446  224.0777 H   0  0  0  0  0  0  0  0  0  0  0  0
  136.6556   77.0425  222.9539 H   0  0  0  0  0  0  0  0  0  0  0  0
  137.2418   75.3446  222.9539 H   0  0  0  0  0  0  0  0  0  0  0  0
  140.1870   75.2930  221.6080 H   0  0  0  0  0  0  0  0  0  0  0  0
  138.3607   72.9080  219.5715 H   0  0  0  0  0  0  0  0  0  0  0  0
  139.9716   73.4208  220.1243 H   0  0  0  0  0  0  0  0  0  0  0  0
  138.1170   71.5650  221.5860 H   0  0  0  0  0  0  0  0  0  0  0  0
  138.9272   69.9837  222.5988 H   0  0  0  0  0  0  0  0  0  0  0  0
  138.9339   68.3504  224.4582 H   0  0  0  0  0  0  0  0  0  0  0  0
  139.5207   67.8354  226.7060 H   0  0  0  0  0  0  0  0  0  0  0  0
  141.5387   70.8194  229.0957 H   0  0  0  0  0  0  0  0  0  0  0  0
  141.4925   72.4090  227.1882 H   0  0  0  0  0  0  0  0  0  0  0  0
  1  2  1  0
  2  3  1  0
  3  4  2  0
  4  5  1  0
  5  6  2  0
  6  7  1  0
  7  8  2  0
  8  9  1  0
  9 10  1  0
  9 11  1  0
 11 12  1  0
 12 13  2  0
 12 14  1  0
 14 15  1  0
 15 16  1  0
 16 17  2  0
 16 18  1  0
 18 19  2  0
 19 20  1  0
 20 21  2  0
 21 22  1  0
 22 23  2  0
 23 24  1  0
 23 25  1  0
 25 26  2  0
 26 27  1  0
 27 28  2  0
  8  3  1  0
 28 18  1  0
 27 21  1  0
  1 29  1  0
  1 30  1  0
  1 31  1  0
  4 32  1  0
  5 33  1  0
  6 34  1  0
  7 35  1  0
  9 36  1  6
 10 37  1  0
 10 38  1  0
 10 39  1  0
 11 40  1  0
 14 41  1  0
 14 42  1  0
 15 43  1  0
 19 44  1  0
 20 45  1  0
 22 46  1  0
 25 47  1  0
 26 48  1  0
M  END
>  <meeko>  (8) 
{"free_energy": -7.44, "intermolecular_energy": -9.22, "internal_energy": -2.27, "cluster_size": 20, "cluster_id": 1, "rank_in_cluster": 14}

$$$$

     RDKit          3D

 48 50  0  0  0  0  0  0  0  0999 V2000
  142.2010   78.6420  218.6950 C   0  0  0  0  0  0  0  0  0  0  0  0
  141.7940   78.6520  220.0480 O   0  0  0  0  0  0  0  0  0  0  0  0
  141.5480   79.8440  220.6870 C   0  0  0  0  0  0  0  0  0  0  0  0
  141.7020   81.0500  219.9980 C   0  0  0  0  0  0  0  0  0  0  0  0
  141.4710   82.2690  220.5860 C   0  0  0  0  0  0  0  0  0  0  0  0
  141.0740   82.2770  221.9060 C   0  0  0  0  0  0  0  0  0  0  0  0
  140.9260   81.0990  222.5740 C   0  0  0  0  0  0  0  0  0  0  0  0
  141.1540   79.8500  221.9970 C   0  0  0  0  0  0  0  0  0  0  0  0
  140.9500   78.6470  222.8340 C   0  0  2  0  0  0  0  0  0  0  0  0
  141.8240   78.6310  224.0710 C   0  0  0  0  0  0  0  0  0  0  0  0
  141.1560   77.4190  222.1120 N   0  0  0  0  0  0  0  0  0  0  0  0
  140.1090   76.4290  222.1300 C   0  0  0  0  0  0  0  0  0  0  0  0
  139.0320   76.6330  222.7640 O   0  0  0  0  0  0  0  0  0  0  0  0
  140.2830   75.1440  221.3960 C   0  0  0  0  0  0  0  0  0  0  0  0
  139.7550   74.0890  222.2510 N   0  0  0  0  0  0  0  0  0  0  0  0
  140.5270   72.8790  222.2930 C   0  0  0  0  0  0  0  0  0  0  0  0
  141.5720   72.8700  221.5840 O   0  0  0  0  0  0  0  0  0  0  0  0
  140.1260   71.7500  223.0950 C   0  0  0  0  0  0  0  0  0  0  0  0
  139.1000   70.9500  222.6620 C   0  0  0  0  0  0  0  0  0  0  0  0
  138.6440   69.8500  223.3560 C   0  0  0  0  0  0  0  0  0  0  0  0
  139.2770   69.5610  224.5560 C   0  0  0  0  0  0  0  0  0  0  0  0
  138.8360   68.4690  225.2610 C   0  0  0  0  0  0  0  0  0  0  0  0
  139.4880   68.1980  226.4630 C   0  0  0  0  0  0  0  0  0  0  0  0
  139.0980   67.1240  227.2140 F   0  0  0  0  0  0  0  0  0  0  0  0
  140.5220   68.9900  226.9140 C   0  0  0  0  0  0  0  0  0  0  0  0
  140.9390   70.0800  226.1810 C   0  0  0  0  0  0  0  0  0  0  0  0
  140.3100   70.3620  224.9950 C   0  0  0  0  0  0  0  0  0  0  0  0
  140.7150   71.4240  224.2770 N   0  0  0  0  0  0  0  0  0  0  0  0
  143.2994   78.6150  218.6427 H   0  0  0  0  0  0  0  0  0  0  0  0
  141.7882   77.7537  218.1945 H   0  0  0  0  0  0  0  0  0  0  0  0
  141.8323   79.5495  218.1945 H   0  0  0  0  0  0  0  0  0  0  0  0
  142.0201   81.0216  218.9454 H   0  0  0  0  0  0  0  0  0  0  0  0
  141.5982   83.2059  220.0238 H   0  0  0  0  0  0  0  0  0  0  0  0
  140.8775   83.2306  222.4179 H   0  0  0  0  0  0  0  0  0  0  0  0
  140.6091   81.1349  223.6268 H   0  0  0  0  0  0  0  0  0  0  0  0
  139.8958   78.7093  223.1419 H   0  0  0  0  0  0  0  0  0  0  0  0
  141.1888   78.6426  224.9690 H   0  0  0  0  0  0  0  0  0  0  0  0
  142.4425   77.7214  224.0712 H   0  0  0  0  0  0  0  0  0  0  0  0
  142.4754   79.5174  224.0712 H   0  0  0  0  0  0  0  0  0  0  0  0
  142.0010   77.1590  221.5710 H   0  0  0  0  0  0  0  0  0  0  0  0
  139.7285   75.1735  220.4465 H   0  0  0  0  0  0  0  0  0  0  0  0
  141.3432   74.9660  221.1629 H   0  0  0  0  0  0  0  0  0  0  0  0
  138.8770   74.1860  222.8040 H   0  0  0  0  0  0  0  0  0  0  0  0
  138.6138   71.2001  221.7075 H   0  0  0  0  0  0  0  0  0  0  0  0
  137.8177   69.2309  222.9765 H   0  0  0  0  0  0  0  0  0  0  0  0
  138.0105   67.8400  224.8963 H   0  0  0  0  0  0  0  0  0  0  0  0
  141.0181   68.7503  227.8661 H   0  0  0  0  0  0  0  0  0  0  0  0
  141.7629   70.7136  226.5411 H   0  0  0  0  0  0  0  0  0  0  0  0
  1  2  1  0
  2  3  1  0
  3  4  2  0
  4  5  1  0
  5  6  2  0
  6  7  1  0
  7  8  2  0
  8  9  1  0
  9 10  1  0
  9 11  1  0
 11 12  1  0
 12 13  2  0
 12 14  1  0
 14 15  1  0
 15 16  1  0
 16 17  2  0
 16 18  1  0
 18 19  2  0
 19 20  1  0
 20 21  2  0
 21 22  1  0
 22 23  2  0
 23 24  1  0
 23 25  1  0
 25 26  2  0
 26 27  1  0
 27 28  2  0
  8  3  1  0
 28 18  1  0
 27 21  1  0
  1 29  1  0
  1 30  1  0
  1 31  1  0
  4 32  1  0
  5 33  1  0
  6 34  1  0
  7 35  1  0
  9 36  1  1
 10 37  1  0
 10 38  1  0
 10 39  1  0
 11 40  1  0
 14 41  1  0
 14 42  1  0
 15 43  1  0
 19 44  1  0
 20 45  1  0
 22 46  1  0
 25 47  1  0
 26 48  1  0
M  END
>  <meeko>  (9) 
{"free_energy": -7.76, "intermolecular_energy": -9.55, "internal_energy": -1.72, "cluster_size": 20, "cluster_id": 1, "rank_in_cluster": 9}

$$$$

     RDKit          3D

 48 50  0  0  0  0  0  0  0  0999 V2000
  142.3720   78.2390  218.5970 C   0  0  0  0  0  0  0  0  0  0  0  0
  141.8520   78.3460  219.9060 O   0  0  0  0  0  0  0  0  0  0  0  0
  141.5610   79.5800  220.4360 C   0  0  0  0  0  0  0  0  0  0  0  0
  141.7200   80.7300  219.6570 C   0  0  0  0  0  0  0  0  0  0  0  0
  141.4460   81.9880  220.1340 C   0  0  0  0  0  0  0  0  0  0  0  0
  140.9980   82.0940  221.4330 C   0  0  0  0  0  0  0  0  0  0  0  0
  140.8440   80.9710  222.1890 C   0  0  0  0  0  0  0  0  0  0  0  0
  141.1170   79.6850  221.7250 C   0  0  0  0  0  0  0  0  0  0  0  0
  140.9010   78.5490  222.6490 C   0  0  2  0  0  0  0  0  0  0  0  0
  141.8270   78.5770  223.8470 C   0  0  0  0  0  0  0  0  0  0  0  0
  141.0250   77.2680  222.0040 N   0  0  0  0  0  0  0  0  0  0  0  0
  139.8820   76.3900  221.9990 C   0  0  0  0  0  0  0  0  0  0  0  0
  138.7940   76.7360  222.5480 O   0  0  0  0  0  0  0  0  0  0  0  0
  139.9680   75.0560  221.3430 C   0  0  0  0  0  0  0  0  0  0  0  0
  139.6280   74.0600  222.3510 N   0  0  0  0  0  0  0  0  0  0  0  0
  140.4890   72.9130  222.4060 C   0  0  0  0  0  0  0  0  0  0  0  0
  141.4390   72.8990  221.5750 O   0  0  0  0  0  0  0  0  0  0  0  0
  140.2730   71.8470  223.3540 C   0  0  0  0  0  0  0  0  0  0  0  0
  139.6120   70.7150  222.9510 C   0  0  0  0  0  0  0  0  0  0  0  0
  139.3580   69.6440  223.7810 C   0  0  0  0  0  0  0  0  0  0  0  0
  139.8070   69.7450  225.0890 C   0  0  0  0  0  0  0  0  0  0  0  0
  139.5620   68.6880  225.9300 C   0  0  0  0  0  0  0  0  0  0  0  0
  140.0230   68.8120  227.2390 C   0  0  0  0  0  0  0  0  0  0  0  0
  139.8130   67.7950  228.1270 F   0  0  0  0  0  0  0  0  0  0  0  0
  140.6900   69.9420  227.6620 C   0  0  0  0  0  0  0  0  0  0  0  0
  140.9190   70.9860  226.7920 C   0  0  0  0  0  0  0  0  0  0  0  0
  140.4730   70.8820  225.4980 C   0  0  0  0  0  0  0  0  0  0  0  0
  140.6940   71.8980  224.6470 N   0  0  0  0  0  0  0  0  0  0  0  0
  143.4483   78.0175  218.6470 H   0  0  0  0  0  0  0  0  0  0  0  0
  141.8553   77.4284  218.0623 H   0  0  0  0  0  0  0  0  0  0  0  0
  142.2173   79.1878  218.0623 H   0  0  0  0  0  0  0  0  0  0  0  0
  142.0783   80.6229  218.6225 H   0  0  0  0  0  0  0  0  0  0  0  0
  141.5792   82.8787  219.5024 H   0  0  0  0  0  0  0  0  0  0  0  0
  140.7656   83.0816  221.8579 H   0  0  0  0  0  0  0  0  0  0  0  0
  140.4845   81.0853  223.2223 H   0  0  0  0  0  0  0  0  0  0  0  0
  139.8645   78.6767  222.9946 H   0  0  0  0  0  0  0  0  0  0  0  0
  141.2312   78.5590  224.7715 H   0  0  0  0  0  0  0  0  0  0  0  0
  142.4884   77.6984  223.8198 H   0  0  0  0  0  0  0  0  0  0  0  0
  142.4341   79.4939  223.8198 H   0  0  0  0  0  0  0  0  0  0  0  0
  141.8700   76.8960  221.5360 H   0  0  0  0  0  0  0  0  0  0  0  0
  139.2583   75.0015  220.5043 H   0  0  0  0  0  0  0  0  0  0  0  0
  140.9779   74.8803  220.9441 H   0  0  0  0  0  0  0  0  0  0  0  0
  138.8180   74.1570  222.9990 H   0  0  0  0  0  0  0  0  0  0  0  0
  139.2656   70.6585  221.9085 H   0  0  0  0  0  0  0  0  0  0  0  0
  138.8243   68.7514  223.4226 H   0  0  0  0  0  0  0  0  0  0  0  0
  139.0288   67.7888  225.5878 H   0  0  0  0  0  0  0  0  0  0  0  0
  141.0421   70.0108  228.7019 H   0  0  0  0  0  0  0  0  0  0  0  0
  141.4506   71.8881  227.1291 H   0  0  0  0  0  0  0  0  0  0  0  0
  1  2  1  0
  2  3  1  0
  3  4  2  0
  4  5  1  0
  5  6  2  0
  6  7  1  0
  7  8  2  0
  8  9  1  0
  9 10  1  0
  9 11  1  0
 11 12  1  0
 12 13  2  0
 12 14  1  0
 14 15  1  0
 15 16  1  0
 16 17  2  0
 16 18  1  0
 18 19  2  0
 19 20  1  0
 20 21  2  0
 21 22  1  0
 22 23  2  0
 23 24  1  0
 23 25  1  0
 25 26  2  0
 26 27  1  0
 27 28  2  0
  8  3  1  0
 28 18  1  0
 27 21  1  0
  1 29  1  0
  1 30  1  0
  1 31  1  0
  4 32  1  0
  5 33  1  0
  6 34  1  0
  7 35  1  0
  9 36  1  1
 10 37  1  0
 10 38  1  0
 10 39  1  0
 11 40  1  0
 14 41  1  0
 14 42  1  0
 15 43  1  0
 19 44  1  0
 20 45  1  0
 22 46  1  0
 25 47  1  0
 26 48  1  0
M  END
>  <meeko>  (10) 
{"free_energy": -8.06, "intermolecular_energy": -9.85, "internal_energy": -1.62, "cluster_size": 20, "cluster_id": 1, "rank_in_cluster": 3}

$$$$

     RDKit          3D

 48 50  0  0  0  0  0  0  0  0999 V2000
  137.8580   78.6090  222.6770 C   0  0  0  0  0  0  0  0  0  0  0  0
  139.1100   78.2200  222.1500 O   0  0  0  0  0  0  0  0  0  0  0  0
  140.2490   78.9080  222.4940 C   0  0  0  0  0  0  0  0  0  0  0  0
  140.1880   79.9280  223.4470 C   0  0  0  0  0  0  0  0  0  0  0  0
  141.2920   80.6480  223.8290 C   0  0  0  0  0  0  0  0  0  0  0  0
  142.4950   80.3350  223.2340 C   0  0  0  0  0  0  0  0  0  0  0  0
  142.5510   79.3410  222.3040 C   0  0  0  0  0  0  0  0  0  0  0  0
  141.4420   78.5970  221.9030 C   0  0  0  0  0  0  0  0  0  0  0  0
  141.6430   77.5390  220.8870 C   0  0  2  0  0  0  0  0  0  0  0  0
  141.9570   78.0910  219.5120 C   0  0  0  0  0  0  0  0  0  0  0  0
  140.5180   76.6470  220.7750 N   0  0  0  0  0  0  0  0  0  0  0  0
  140.7240   75.2480  221.0540 C   0  0  0  0  0  0  0  0  0  0  0  0
  141.8640   74.8120  221.3900 O   0  0  0  0  0  0  0  0  0  0  0  0
  139.5860   74.2910  220.9500 C   0  0  0  0  0  0  0  0  0  0  0  0
  139.4970   73.5920  222.2260 N   0  0  0  0  0  0  0  0  0  0  0  0
  140.0770   72.2800  222.2570 C   0  0  0  0  0  0  0  0  0  0  0  0
  140.5950   71.8830  221.1760 O   0  0  0  0  0  0  0  0  0  0  0  0
  140.0620   71.4720  223.4510 C   0  0  0  0  0  0  0  0  0  0  0  0
  139.4980   70.2220  223.4080 C   0  0  0  0  0  0  0  0  0  0  0  0
  139.4350   69.3760  224.4950 C   0  0  0  0  0  0  0  0  0  0  0  0
  139.9810   69.8400  225.6830 C   0  0  0  0  0  0  0  0  0  0  0  0
  139.9270   69.0110  226.7750 C   0  0  0  0  0  0  0  0  0  0  0  0
  140.4820   69.4980  227.9560 C   0  0  0  0  0  0  0  0  0  0  0  0
  140.4620   68.7220  229.0810 F   0  0  0  0  0  0  0  0  0  0  0  0
  141.0540   70.7510  228.0180 C   0  0  0  0  0  0  0  0  0  0  0  0
  141.0910   71.5590  226.9020 C   0  0  0  0  0  0  0  0  0  0  0  0
  140.5500   71.0950  225.7290 C   0  0  0  0  0  0  0  0  0  0  0  0
  140.5840   71.8810  224.6390 N   0  0  0  0  0  0  0  0  0  0  0  0
  137.9025   78.5952  223.7760 H   0  0  0  0  0  0  0  0  0  0  0  0
  137.6149   79.6250  222.3326 H   0  0  0  0  0  0  0  0  0  0  0  0
  137.0819   77.9096  222.3326 H   0  0  0  0  0  0  0  0  0  0  0  0
  139.2177   80.1629  223.9088 H   0  0  0  0  0  0  0  0  0  0  0  0
  141.2194   81.4459  224.5827 H   0  0  0  0  0  0  0  0  0  0  0  0
  143.4067   80.8857  223.5089 H   0  0  0  0  0  0  0  0  0  0  0  0
  143.5240   79.1130  221.8445 H   0  0  0  0  0  0  0  0  0  0  0  0
  142.5133   76.9753  221.2542 H   0  0  0  0  0  0  0  0  0  0  0  0
  142.4985   79.0430  219.6140 H   0  0  0  0  0  0  0  0  0  0  0  0
  142.5809   77.3714  218.9617 H   0  0  0  0  0  0  0  0  0  0  0  0
  141.0196   78.2595  218.9617 H   0  0  0  0  0  0  0  0  0  0  0  0
  139.5530   76.9060  220.5030 H   0  0  0  0  0  0  0  0  0  0  0  0
  138.6513   74.8361  220.7522 H   0  0  0  0  0  0  0  0  0  0  0  0
  139.7449   73.5814  220.1247 H   0  0  0  0  0  0  0  0  0  0  0  0
  139.0460   74.0020  223.0710 H   0  0  0  0  0  0  0  0  0  0  0  0
  139.0729   69.8759  222.4543 H   0  0  0  0  0  0  0  0  0  0  0  0
  138.9735   68.3800  224.4236 H   0  0  0  0  0  0  0  0  0  0  0  0
  139.4687   68.0125  226.7205 H   0  0  0  0  0  0  0  0  0  0  0  0
  141.4840   71.1085  228.9653 H   0  0  0  0  0  0  0  0  0  0  0  0
  141.5465   72.5591  226.9506 H   0  0  0  0  0  0  0  0  0  0  0  0
  1  2  1  0
  2  3  1  0
  3  4  2  0
  4  5  1  0
  5  6  2  0
  6  7  1  0
  7  8  2  0
  8  9  1  0
  9 10  1  0
  9 11  1  0
 11 12  1  0
 12 13  2  0
 12 14  1  0
 14 15  1  0
 15 16  1  0
 16 17  2  0
 16 18  1  0
 18 19  2  0
 19 20  1  0
 20 21  2  0
 21 22  1  0
 22 23  2  0
 23 24  1  0
 23 25  1  0
 25 26  2  0
 26 27  1  0
 27 28  2  0
  8  3  1  0
 28 18  1  0
 27 21  1  0
  1 29  1  0
  1 30  1  0
  1 31  1  0
  4 32  1  0
  5 33  1  0
  6 34  1  0
  7 35  1  0
  9 36  1  1
 10 37  1  0
 10 38  1  0
 10 39  1  0
 11 40  1  0
 14 41  1  0
 14 42  1  0
 15 43  1  0
 19 44  1  0
 20 45  1  0
 22 46  1  0
 25 47  1  0
 26 48  1  0
M  END
>  <meeko>  (11) 
{"free_energy": -8.11, "intermolecular_energy": -9.9, "internal_energy": -1.54, "cluster_size": 20, "cluster_id": 1, "rank_in_cluster": 2}

$$$$

     RDKit          3D

 48 50  0  0  0  0  0  0  0  0999 V2000
  141.4280   75.8020  221.0750 C   0  0  0  0  0  0  0  0  0  0  0  0
  140.8200   75.9510  222.3410 O   0  0  0  0  0  0  0  0  0  0  0  0
  140.2620   77.1530  222.7040 C   0  0  0  0  0  0  0  0  0  0  0  0
  141.0840   78.2270  223.0560 C   0  0  0  0  0  0  0  0  0  0  0  0
  140.5830   79.4500  223.4270 C   0  0  0  0  0  0  0  0  0  0  0  0
  139.2120   79.5980  223.4450 C   0  0  0  0  0  0  0  0  0  0  0  0
  138.4140   78.5490  223.1020 C   0  0  0  0  0  0  0  0  0  0  0  0
  138.9020   77.3000  222.7220 C   0  0  0  0  0  0  0  0  0  0  0  0
  137.9240   76.2470  222.3680 C   0  0  2  0  0  0  0  0  0  0  0  0
  136.8930   76.0080  223.4500 C   0  0  0  0  0  0  0  0  0  0  0  0
  138.5460   74.9900  222.0420 N   0  0  0  0  0  0  0  0  0  0  0  0
  138.2330   74.3790  220.7750 C   0  0  0  0  0  0  0  0  0  0  0  0
  137.4310   74.9330  219.9660 O   0  0  0  0  0  0  0  0  0  0  0  0
  138.8540   73.0780  220.4000 C   0  0  0  0  0  0  0  0  0  0  0  0
  138.7060   72.1870  221.5440 N   0  0  0  0  0  0  0  0  0  0  0  0
  139.7670   72.2350  222.5090 C   0  0  0  0  0  0  0  0  0  0  0  0
  140.7050   73.0400  222.2550 O   0  0  0  0  0  0  0  0  0  0  0  0
  139.7540   71.4090  223.6920 C   0  0  0  0  0  0  0  0  0  0  0  0
  139.0450   70.2350  223.6810 C   0  0  0  0  0  0  0  0  0  0  0  0
  138.9710   69.3790  224.7590 C   0  0  0  0  0  0  0  0  0  0  0  0
  139.6630   69.7510  225.9030 C   0  0  0  0  0  0  0  0  0  0  0  0
  139.6010   68.9100  226.9860 C   0  0  0  0  0  0  0  0  0  0  0  0
  140.3040   69.3040  228.1230 C   0  0  0  0  0  0  0  0  0  0  0  0
  140.2840   68.5120  229.2360 F   0  0  0  0  0  0  0  0  0  0  0  0
  141.0230   70.4800  228.1510 C   0  0  0  0  0  0  0  0  0  0  0  0
  141.0640   71.3020  227.0450 C   0  0  0  0  0  0  0  0  0  0  0  0
  140.3780   70.9300  225.9160 C   0  0  0  0  0  0  0  0  0  0  0  0
  140.4160   71.7290  224.8360 N   0  0  0  0  0  0  0  0  0  0  0  0
  142.4888   75.5420  221.2060 H   0  0  0  0  0  0  0  0  0  0  0  0
  140.9206   75.0016  220.5165 H   0  0  0  0  0  0  0  0  0  0  0  0
  141.3481   76.7463  220.5165 H   0  0  0  0  0  0  0  0  0  0  0  0
  142.1748   78.0869  223.0350 H   0  0  0  0  0  0  0  0  0  0  0  0
  141.2502   80.2809  223.6998 H   0  0  0  0  0  0  0  0  0  0  0  0
  138.7645   80.5600  223.7354 H   0  0  0  0  0  0  0  0  0  0  0  0
  137.3241   78.6956  223.1262 H   0  0  0  0  0  0  0  0  0  0  0  0
  137.4181   76.6396  221.4736 H   0  0  0  0  0  0  0  0  0  0  0  0
  137.3655   76.1175  224.4373 H   0  0  0  0  0  0  0  0  0  0  0  0
  136.0793   76.7413  223.3495 H   0  0  0  0  0  0  0  0  0  0  0  0
  136.4849   74.9914  223.3495 H   0  0  0  0  0  0  0  0  0  0  0  0
  139.2070   74.4590  222.6370 H   0  0  0  0  0  0  0  0  0  0  0  0
  138.3423   72.6545  219.5232 H   0  0  0  0  0  0  0  0  0  0  0  0
  139.9150   73.2106  220.1416 H   0  0  0  0  0  0  0  0  0  0  0  0
  137.8900   71.5510  221.6710 H   0  0  0  0  0  0  0  0  0  0  0  0
  138.5060   69.9616  222.7619 H   0  0  0  0  0  0  0  0  0  0  0  0
  138.3910   68.4454  224.7146 H   0  0  0  0  0  0  0  0  0  0  0  0
  139.0258   67.9728  226.9579 H   0  0  0  0  0  0  0  0  0  0  0  0
  141.5682   70.7647  229.0630 H   0  0  0  0  0  0  0  0  0  0  0  0
  141.6371   72.2406  227.0670 H   0  0  0  0  0  0  0  0  0  0  0  0
  1  2  1  0
  2  3  1  0
  3  4  2  0
  4  5  1  0
  5  6  2  0
  6  7  1  0
  7  8  2  0
  8  9  1  0
  9 10  1  0
  9 11  1  0
 11 12  1  0
 12 13  2  0
 12 14  1  0
 14 15  1  0
 15 16  1  0
 16 17  2  0
 16 18  1  0
 18 19  2  0
 19 20  1  0
 20 21  2  0
 21 22  1  0
 22 23  2  0
 23 24  1  0
 23 25  1  0
 25 26  2  0
 26 27  1  0
 27 28  2  0
  8  3  1  0
 28 18  1  0
 27 21  1  0
  1 29  1  0
  1 30  1  0
  1 31  1  0
  4 32  1  0
  5 33  1  0
  6 34  1  0
  7 35  1  0
  9 36  1  6
 10 37  1  0
 10 38  1  0
 10 39  1  0
 11 40  1  0
 14 41  1  0
 14 42  1  0
 15 43  1  0
 19 44  1  0
 20 45  1  0
 22 46  1  0
 25 47  1  0
 26 48  1  0
M  END
>  <meeko>  (12) 
{"free_energy": -7.53, "intermolecular_energy": -9.32, "internal_energy": -2.3, "cluster_size": 20, "cluster_id": 1, "rank_in_cluster": 12}

$$$$

     RDKit          3D

 48 50  0  0  0  0  0  0  0  0999 V2000
  142.5790   77.1100  219.7530 C   0  0  0  0  0  0  0  0  0  0  0  0
  142.0520   78.3930  220.0200 O   0  0  0  0  0  0  0  0  0  0  0  0
  141.6360   78.7190  221.2890 C   0  0  0  0  0  0  0  0  0  0  0  0
  142.5370   79.2810  222.1980 C   0  0  0  0  0  0  0  0  0  0  0  0
  142.1770   79.6250  223.4770 C   0  0  0  0  0  0  0  0  0  0  0  0
  140.8720   79.3960  223.8560 C   0  0  0  0  0  0  0  0  0  0  0  0
  139.9960   78.8480  222.9680 C   0  0  0  0  0  0  0  0  0  0  0  0
  140.3400   78.4920  221.6640 C   0  0  0  0  0  0  0  0  0  0  0  0
  139.2890   77.9100  220.8000 C   0  0  2  0  0  0  0  0  0  0  0  0
  137.9040   78.0070  221.4040 C   0  0  0  0  0  0  0  0  0  0  0  0
  139.5430   76.5350  220.4550 N   0  0  0  0  0  0  0  0  0  0  0  0
  139.6510   75.5700  221.5200 C   0  0  0  0  0  0  0  0  0  0  0  0
  139.5260   75.9210  222.7310 O   0  0  0  0  0  0  0  0  0  0  0  0
  139.9140   74.1380  221.2060 C   0  0  0  0  0  0  0  0  0  0  0  0
  139.7550   73.3920  222.4480 N   0  0  0  0  0  0  0  0  0  0  0  0
  140.2590   72.0470  222.4330 C   0  0  0  0  0  0  0  0  0  0  0  0
  140.7790   71.6680  221.3470 O   0  0  0  0  0  0  0  0  0  0  0  0
  140.1700   71.1920  223.5910 C   0  0  0  0  0  0  0  0  0  0  0  0
  139.5760   69.9610  223.4710 C   0  0  0  0  0  0  0  0  0  0  0  0
  139.4430   69.0730  224.5160 C   0  0  0  0  0  0  0  0  0  0  0  0
  139.9480   69.4730  225.7450 C   0  0  0  0  0  0  0  0  0  0  0  0
  139.8250   68.6000  226.7980 C   0  0  0  0  0  0  0  0  0  0  0  0
  140.3400   69.0230  228.0220 C   0  0  0  0  0  0  0  0  0  0  0  0
  140.2500   68.2020  229.1110 F   0  0  0  0  0  0  0  0  0  0  0  0
  140.9420   70.2560  228.1610 C   0  0  0  0  0  0  0  0  0  0  0  0
  141.0480   71.1070  227.0830 C   0  0  0  0  0  0  0  0  0  0  0  0
  140.5470   70.7080  225.8690 C   0  0  0  0  0  0  0  0  0  0  0  0
  140.6500   71.5370  224.8160 N   0  0  0  0  0  0  0  0  0  0  0  0
  142.7903   76.5956  220.7021 H   0  0  0  0  0  0  0  0  0  0  0  0
  141.8478   76.5264  219.1745 H   0  0  0  0  0  0  0  0  0  0  0  0
  143.5093   77.2089  219.1745 H   0  0  0  0  0  0  0  0  0  0  0  0
  143.5744   79.4542  221.8759 H   0  0  0  0  0  0  0  0  0  0  0  0
  142.9037   80.0674  224.1742 H   0  0  0  0  0  0  0  0  0  0  0  0
  140.5388   79.6547  224.8719 H   0  0  0  0  0  0  0  0  0  0  0  0
  138.9606   78.6769  223.2975 H   0  0  0  0  0  0  0  0  0  0  0  0
  139.3236   78.5215  219.8863 H   0  0  0  0  0  0  0  0  0  0  0  0
  137.9813   78.0016  222.5013 H   0  0  0  0  0  0  0  0  0  0  0  0
  137.4250   78.9409  221.0748 H   0  0  0  0  0  0  0  0  0  0  0  0
  137.2995   77.1490  221.0748 H   0  0  0  0  0  0  0  0  0  0  0  0
  139.6660   76.1540  219.5000 H   0  0  0  0  0  0  0  0  0  0  0  0
  139.1956   73.7781  220.4548 H   0  0  0  0  0  0  0  0  0  0  0  0
  140.9263   74.0060  220.7962 H   0  0  0  0  0  0  0  0  0  0  0  0
  139.3090   73.7900  223.3010 H   0  0  0  0  0  0  0  0  0  0  0  0
  139.1844   69.6668  222.4861 H   0  0  0  0  0  0  0  0  0  0  0  0
  138.9597   68.0939  224.3825 H   0  0  0  0  0  0  0  0  0  0  0  0
  139.3447   67.6173  226.6813 H   0  0  0  0  0  0  0  0  0  0  0  0
  141.3403   70.5620  229.1396 H   0  0  0  0  0  0  0  0  0  0  0  0
  141.5268   72.0912  227.1934 H   0  0  0  0  0  0  0  0  0  0  0  0
  1  2  1  0
  2  3  1  0
  3  4  2  0
  4  5  1  0
  5  6  2  0
  6  7  1  0
  7  8  2  0
  8  9  1  0
  9 10  1  0
  9 11  1  0
 11 12  1  0
 12 13  2  0
 12 14  1  0
 14 15  1  0
 15 16  1  0
 16 17  2  0
 16 18  1  0
 18 19  2  0
 19 20  1  0
 20 21  2  0
 21 22  1  0
 22 23  2  0
 23 24  1  0
 23 25  1  0
 25 26  2  0
 26 27  1  0
 27 28  2  0
  8  3  1  0
 28 18  1  0
 27 21  1  0
  1 29  1  0
  1 30  1  0
  1 31  1  0
  4 32  1  0
  5 33  1  0
  6 34  1  0
  7 35  1  0
  9 36  1  6
 10 37  1  0
 10 38  1  0
 10 39  1  0
 11 40  1  0
 14 41  1  0
 14 42  1  0
 15 43  1  0
 19 44  1  0
 20 45  1  0
 22 46  1  0
 25 47  1  0
 26 48  1  0
M  END
>  <meeko>  (13) 
{"free_energy": -7.63, "intermolecular_energy": -9.42, "internal_energy": -1.65, "cluster_size": 20, "cluster_id": 1, "rank_in_cluster": 10}

$$$$

     RDKit          3D

 48 50  0  0  0  0  0  0  0  0999 V2000
  141.3600   74.8600  221.0000 C   0  0  0  0  0  0  0  0  0  0  0  0
  140.3800   75.0800  221.9930 O   0  0  0  0  0  0  0  0  0  0  0  0
  140.0290   76.3610  222.3460 C   0  0  0  0  0  0  0  0  0  0  0  0
  141.0190   77.3240  222.5580 C   0  0  0  0  0  0  0  0  0  0  0  0
  140.7270   78.6170  222.9130 C   0  0  0  0  0  0  0  0  0  0  0  0
  139.3990   78.9530  223.0610 C   0  0  0  0  0  0  0  0  0  0  0  0
  138.4360   78.0120  222.8540 C   0  0  0  0  0  0  0  0  0  0  0  0
  138.7100   76.6940  222.4930 C   0  0  0  0  0  0  0  0  0  0  0  0
  137.5690   75.7730  222.2930 C   0  0  2  0  0  0  0  0  0  0  0  0
  136.5740   75.8080  223.4340 C   0  0  0  0  0  0  0  0  0  0  0  0
  137.9770   74.4090  222.0830 N   0  0  0  0  0  0  0  0  0  0  0  0
  137.2140   73.5980  221.1680 C   0  0  0  0  0  0  0  0  0  0  0  0
  136.2090   74.0730  220.5610 O   0  0  0  0  0  0  0  0  0  0  0  0
  137.6040   72.1810  220.9230 C   0  0  0  0  0  0  0  0  0  0  0  0
  137.8960   71.5880  222.2220 N   0  0  0  0  0  0  0  0  0  0  0  0
  139.2570   71.7010  222.6640 C   0  0  0  0  0  0  0  0  0  0  0  0
  140.0420   72.2990  221.8770 O   0  0  0  0  0  0  0  0  0  0  0  0
  139.6910   71.1600  223.9290 C   0  0  0  0  0  0  0  0  0  0  0  0
  140.5440   71.8930  224.7140 C   0  0  0  0  0  0  0  0  0  0  0  0
  141.0140   71.4630  225.9360 C   0  0  0  0  0  0  0  0  0  0  0  0
  140.5840   70.2170  226.3700 C   0  0  0  0  0  0  0  0  0  0  0  0
  141.0420   69.7740  227.5850 C   0  0  0  0  0  0  0  0  0  0  0  0
  140.5960   68.5210  228.0010 C   0  0  0  0  0  0  0  0  0  0  0  0
  141.0140   68.0200  229.2020 F   0  0  0  0  0  0  0  0  0  0  0  0
  139.7380   67.7700  227.2260 C   0  0  0  0  0  0  0  0  0  0  0  0
  139.2970   68.2460  226.0090 C   0  0  0  0  0  0  0  0  0  0  0  0
  139.7260   69.4790  225.5840 C   0  0  0  0  0  0  0  0  0  0  0  0
  139.2970   69.9450  224.3980 N   0  0  0  0  0  0  0  0  0  0  0  0
  142.3258   74.6432  221.4797 H   0  0  0  0  0  0  0  0  0  0  0  0
  141.0620   74.0064  220.3735 H   0  0  0  0  0  0  0  0  0  0  0  0
  141.4554   75.7591  220.3735 H   0  0  0  0  0  0  0  0  0  0  0  0
  142.0731   77.0345  222.4356 H   0  0  0  0  0  0  0  0  0  0  0  0
  141.5239   79.3580  223.0735 H   0  0  0  0  0  0  0  0  0  0  0  0
  139.1174   79.9776  223.3454 H   0  0  0  0  0  0  0  0  0  0  0  0
  137.3841   78.3087  222.9786 H   0  0  0  0  0  0  0  0  0  0  0  0
  137.0805   76.1446  221.3802 H   0  0  0  0  0  0  0  0  0  0  0  0
  137.1140   75.7890  224.3921 H   0  0  0  0  0  0  0  0  0  0  0  0
  135.9742   76.7278  223.3694 H   0  0  0  0  0  0  0  0  0  0  0  0
  135.9110   74.9326  223.3694 H   0  0  0  0  0  0  0  0  0  0  0  0
  138.7780   73.9310  222.5350 H   0  0  0  0  0  0  0  0  0  0  0  0
  136.7778   71.6403  220.4382 H   0  0  0  0  0  0  0  0  0  0  0  0
  138.4800   72.1242  220.2601 H   0  0  0  0  0  0  0  0  0  0  0  0
  137.1780   71.1090  222.8060 H   0  0  0  0  0  0  0  0  0  0  0  0
  140.8707   72.8776  224.3483 H   0  0  0  0  0  0  0  0  0  0  0  0
  141.6978   72.0784  226.5390 H   0  0  0  0  0  0  0  0  0  0  0  0
  141.7265   70.3772  228.1995 H   0  0  0  0  0  0  0  0  0  0  0  0
  139.4028   66.7842  227.5808 H   0  0  0  0  0  0  0  0  0  0  0  0
  138.6129   67.6477  225.3892 H   0  0  0  0  0  0  0  0  0  0  0  0
  1  2  1  0
  2  3  1  0
  3  4  2  0
  4  5  1  0
  5  6  2  0
  6  7  1  0
  7  8  2  0
  8  9  1  0
  9 10  1  0
  9 11  1  0
 11 12  1  0
 12 13  2  0
 12 14  1  0
 14 15  1  0
 15 16  1  0
 16 17  2  0
 16 18  1  0
 18 19  2  0
 19 20  1  0
 20 21  2  0
 21 22  1  0
 22 23  2  0
 23 24  1  0
 23 25  1  0
 25 26  2  0
 26 27  1  0
 27 28  2  0
  8  3  1  0
 28 18  1  0
 27 21  1  0
  1 29  1  0
  1 30  1  0
  1 31  1  0
  4 32  1  0
  5 33  1  0
  6 34  1  0
  7 35  1  0
  9 36  1  6
 10 37  1  0
 10 38  1  0
 10 39  1  0
 11 40  1  0
 14 41  1  0
 14 42  1  0
 15 43  1  0
 19 44  1  0
 20 45  1  0
 22 46  1  0
 25 47  1  0
 26 48  1  0
M  END
>  <meeko>  (14) 
{"free_energy": -7.38, "intermolecular_energy": -9.17, "internal_energy": -2.53, "cluster_size": 20, "cluster_id": 1, "rank_in_cluster": 17}

$$$$

     RDKit          3D

 48 50  0  0  0  0  0  0  0  0999 V2000
  141.5270   75.4420  220.7860 C   0  0  0  0  0  0  0  0  0  0  0  0
  140.7940   75.5590  221.9870 O   0  0  0  0  0  0  0  0  0  0  0  0
  140.2610   76.7720  222.3560 C   0  0  0  0  0  0  0  0  0  0  0  0
  141.1060   77.8240  222.7180 C   0  0  0  0  0  0  0  0  0  0  0  0
  140.6310   79.0550  223.0950 C   0  0  0  0  0  0  0  0  0  0  0  0
  139.2650   79.2340  223.1110 C   0  0  0  0  0  0  0  0  0  0  0  0
  138.4440   78.2060  222.7580 C   0  0  0  0  0  0  0  0  0  0  0  0
  138.9050   76.9480  222.3710 C   0  0  0  0  0  0  0  0  0  0  0  0
  137.9050   75.9200  222.0060 C   0  0  2  0  0  0  0  0  0  0  0  0
  136.8500   75.7160  223.0730 C   0  0  0  0  0  0  0  0  0  0  0  0
  138.4970   74.6450  221.6970 N   0  0  0  0  0  0  0  0  0  0  0  0
  137.6410   73.5900  221.2180 C   0  0  0  0  0  0  0  0  0  0  0  0
  136.3970   73.7780  221.0710 O   0  0  0  0  0  0  0  0  0  0  0  0
  138.2140   72.2550  220.8870 C   0  0  0  0  0  0  0  0  0  0  0  0
  138.4000   71.5460  222.1470 N   0  0  0  0  0  0  0  0  0  0  0  0
  139.5950   71.8710  222.8720 C   0  0  0  0  0  0  0  0  0  0  0  0
  140.3460   72.7320  222.3350 O   0  0  0  0  0  0  0  0  0  0  0  0
  139.9100   71.2470  224.1340 C   0  0  0  0  0  0  0  0  0  0  0  0
  140.7000   71.9160  225.0340 C   0  0  0  0  0  0  0  0  0  0  0  0
  141.0570   71.4050  226.2630 C   0  0  0  0  0  0  0  0  0  0  0  0
  140.5750   70.1430  226.5810 C   0  0  0  0  0  0  0  0  0  0  0  0
  140.9190   69.6190  227.8010 C   0  0  0  0  0  0  0  0  0  0  0  0
  140.4230   68.3510  228.0990 C   0  0  0  0  0  0  0  0  0  0  0  0
  140.7280   67.7720  229.2980 F   0  0  0  0  0  0  0  0  0  0  0  0
  139.6260   67.6640  227.2070 C   0  0  0  0  0  0  0  0  0  0  0  0
  139.3000   68.2200  225.9890 C   0  0  0  0  0  0  0  0  0  0  0  0
  139.7790   69.4690  225.6790 C   0  0  0  0  0  0  0  0  0  0  0  0
  139.4620   70.0140  224.4920 N   0  0  0  0  0  0  0  0  0  0  0  0
  142.5885   75.2726  221.0193 H   0  0  0  0  0  0  0  0  0  0  0  0
  141.1402   74.5942  220.2015 H   0  0  0  0  0  0  0  0  0  0  0  0
  141.4233   76.3681  220.2015 H   0  0  0  0  0  0  0  0  0  0  0  0
  142.1935   77.6593  222.7002 H   0  0  0  0  0  0  0  0  0  0  0  0
  141.3159   79.8692  223.3743 H   0  0  0  0  0  0  0  0  0  0  0  0
  138.8389   80.2037  223.4078 H   0  0  0  0  0  0  0  0  0  0  0  0
  137.3577   78.3775  222.7794 H   0  0  0  0  0  0  0  0  0  0  0  0
  137.4253   76.3205  221.1008 H   0  0  0  0  0  0  0  0  0  0  0  0
  137.3120   75.8053  224.0673 H   0  0  0  0  0  0  0  0  0  0  0  0
  136.0653   76.4791  222.9634 H   0  0  0  0  0  0  0  0  0  0  0  0
  136.4063   74.7154  222.9634 H   0  0  0  0  0  0  0  0  0  0  0  0
  139.4980   74.3940  221.7890 H   0  0  0  0  0  0  0  0  0  0  0  0
  137.5223   71.6974  220.2385 H   0  0  0  0  0  0  0  0  0  0  0  0
  139.1690   72.3599  220.3512 H   0  0  0  0  0  0  0  0  0  0  0  0
  137.7210   70.8450  222.5140 H   0  0  0  0  0  0  0  0  0  0  0  0
  141.0688   72.9153  224.7596 H   0  0  0  0  0  0  0  0  0  0  0  0
  141.6939   71.9706  226.9590 H   0  0  0  0  0  0  0  0  0  0  0  0
  141.5544   70.1717  228.5086 H   0  0  0  0  0  0  0  0  0  0  0  0
  139.2479   66.6650  227.4699 H   0  0  0  0  0  0  0  0  0  0  0  0
  138.6661   67.6720  225.2764 H   0  0  0  0  0  0  0  0  0  0  0  0
  1  2  1  0
  2  3  1  0
  3  4  2  0
  4  5  1  0
  5  6  2  0
  6  7  1  0
  7  8  2  0
  8  9  1  0
  9 10  1  0
  9 11  1  0
 11 12  1  0
 12 13  2  0
 12 14  1  0
 14 15  1  0
 15 16  1  0
 16 17  2  0
 16 18  1  0
 18 19  2  0
 19 20  1  0
 20 21  2  0
 21 22  1  0
 22 23  2  0
 23 24  1  0
 23 25  1  0
 25 26  2  0
 26 27  1  0
 27 28  2  0
  8  3  1  0
 28 18  1  0
 27 21  1  0
  1 29  1  0
  1 30  1  0
  1 31  1  0
  4 32  1  0
  5 33  1  0
  6 34  1  0
  7 35  1  0
  9 36  1  6
 10 37  1  0
 10 38  1  0
 10 39  1  0
 11 40  1  0
 14 41  1  0
 14 42  1  0
 15 43  1  0
 19 44  1  0
 20 45  1  0
 22 46  1  0
 25 47  1  0
 26 48  1  0
M  END
>  <meeko>  (15) 
{"free_energy": -7.22, "intermolecular_energy": -9.01, "internal_energy": -2.48, "cluster_size": 20, "cluster_id": 1, "rank_in_cluster": 19}

$$$$

     RDKit          3D

 48 50  0  0  0  0  0  0  0  0999 V2000
  141.2220   74.7580  220.9840 C   0  0  0  0  0  0  0  0  0  0  0  0
  140.2700   75.0390  221.9890 O   0  0  0  0  0  0  0  0  0  0  0  0
  140.0030   76.3400  222.3440 C   0  0  0  0  0  0  0  0  0  0  0  0
  141.0540   77.2320  222.5710 C   0  0  0  0  0  0  0  0  0  0  0  0
  140.8470   78.5410  222.9280 C   0  0  0  0  0  0  0  0  0  0  0  0
  139.5430   78.9670  223.0630 C   0  0  0  0  0  0  0  0  0  0  0  0
  138.5200   78.0940  222.8410 C   0  0  0  0  0  0  0  0  0  0  0  0
  138.7090   76.7610  222.4770 C   0  0  0  0  0  0  0  0  0  0  0  0
  137.5100   75.9210  222.2610 C   0  0  2  0  0  0  0  0  0  0  0  0
  136.5100   76.0130  223.3950 C   0  0  0  0  0  0  0  0  0  0  0  0
  137.8270   74.5340  222.0420 N   0  0  0  0  0  0  0  0  0  0  0  0
  136.8430   73.6990  221.4010 C   0  0  0  0  0  0  0  0  0  0  0  0
  135.7250   74.1720  221.0380 O   0  0  0  0  0  0  0  0  0  0  0  0
  137.1320   72.2580  221.1560 C   0  0  0  0  0  0  0  0  0  0  0  0
  137.5210   71.6770  222.4350 N   0  0  0  0  0  0  0  0  0  0  0  0
  138.9290   71.6710  222.7120 C   0  0  0  0  0  0  0  0  0  0  0  0
  139.6670   72.1690  221.8170 O   0  0  0  0  0  0  0  0  0  0  0  0
  139.4590   71.1280  223.9390 C   0  0  0  0  0  0  0  0  0  0  0  0
  140.3770   71.8540  224.6530 C   0  0  0  0  0  0  0  0  0  0  0  0
  140.9400   71.4220  225.8340 C   0  0  0  0  0  0  0  0  0  0  0  0
  140.5360   70.1800  226.3030 C   0  0  0  0  0  0  0  0  0  0  0  0
  141.0860   69.7340  227.4780 C   0  0  0  0  0  0  0  0  0  0  0  0
  140.6650   68.4840  227.9300 C   0  0  0  0  0  0  0  0  0  0  0  0
  141.1740   67.9810  229.0940 F   0  0  0  0  0  0  0  0  0  0  0  0
  139.7420   67.7400  227.2260 C   0  0  0  0  0  0  0  0  0  0  0  0
  139.2100   68.2190  226.0480 C   0  0  0  0  0  0  0  0  0  0  0  0
  139.6120   69.4470  225.5880 C   0  0  0  0  0  0  0  0  0  0  0  0
  139.0940   69.9170  224.4400 N   0  0  0  0  0  0  0  0  0  0  0  0
  142.1768   74.4762  221.4519 H   0  0  0  0  0  0  0  0  0  0  0  0
  140.8610   73.9281  220.3587 H   0  0  0  0  0  0  0  0  0  0  0  0
  141.3695   75.6509  220.3587 H   0  0  0  0  0  0  0  0  0  0  0  0
  142.0872   76.8714  222.4593 H   0  0  0  0  0  0  0  0  0  0  0  0
  141.6909   79.2252  223.1001 H   0  0  0  0  0  0  0  0  0  0  0  0
  139.3288   80.0074  223.3488 H   0  0  0  0  0  0  0  0  0  0  0  0
  137.4893   78.4608  222.9552 H   0  0  0  0  0  0  0  0  0  0  0  0
  137.0548   76.3330  221.3483 H   0  0  0  0  0  0  0  0  0  0  0  0
  137.0411   75.9641  224.3571 H   0  0  0  0  0  0  0  0  0  0  0  0
  135.9636   76.9652  223.3257 H   0  0  0  0  0  0  0  0  0  0  0  0
  135.7991   75.1765  223.3257 H   0  0  0  0  0  0  0  0  0  0  0  0
  138.7070   74.0570  222.3070 H   0  0  0  0  0  0  0  0  0  0  0  0
  136.2344   71.7533  220.7694 H   0  0  0  0  0  0  0  0  0  0  0  0
  137.9332   72.1397  220.4116 H   0  0  0  0  0  0  0  0  0  0  0  0
  136.8360   71.2860  223.1170 H   0  0  0  0  0  0  0  0  0  0  0  0
  140.6809   72.8359  224.2613 H   0  0  0  0  0  0  0  0  0  0  0  0
  141.6748   72.0326  226.3792 H   0  0  0  0  0  0  0  0  0  0  0  0
  141.8219   70.3322  228.0353 H   0  0  0  0  0  0  0  0  0  0  0  0
  139.4279   66.7571  227.6071 H   0  0  0  0  0  0  0  0  0  0  0  0
  138.4743   67.6254  225.4855 H   0  0  0  0  0  0  0  0  0  0  0  0
  1  2  1  0
  2  3  1  0
  3  4  2  0
  4  5  1  0
  5  6  2  0
  6  7  1  0
  7  8  2  0
  8  9  1  0
  9 10  1  0
  9 11  1  0
 11 12  1  0
 12 13  2  0
 12 14  1  0
 14 15  1  0
 15 16  1  0
 16 17  2  0
 16 18  1  0
 18 19  2  0
 19 20  1  0
 20 21  2  0
 21 22  1  0
 22 23  2  0
 23 24  1  0
 23 25  1  0
 25 26  2  0
 26 27  1  0
 27 28  2  0
  8  3  1  0
 28 18  1  0
 27 21  1  0
  1 29  1  0
  1 30  1  0
  1 31  1  0
  4 32  1  0
  5 33  1  0
  6 34  1  0
  7 35  1  0
  9 36  1  6
 10 37  1  0
 10 38  1  0
 10 39  1  0
 11 40  1  0
 14 41  1  0
 14 42  1  0
 15 43  1  0
 19 44  1  0
 20 45  1  0
 22 46  1  0
 25 47  1  0
 26 48  1  0
M  END
>  <meeko>  (16) 
{"free_energy": -7.19, "intermolecular_energy": -8.98, "internal_energy": -2.55, "cluster_size": 20, "cluster_id": 1, "rank_in_cluster": 20}

$$$$

     RDKit          3D

 48 50  0  0  0  0  0  0  0  0999 V2000
  137.8620   78.7860  222.8560 C   0  0  0  0  0  0  0  0  0  0  0  0
  138.9960   78.8640  222.0180 O   0  0  0  0  0  0  0  0  0  0  0  0
  140.1830   79.3570  222.5050 C   0  0  0  0  0  0  0  0  0  0  0  0
  140.1830   80.4780  223.3400 C   0  0  0  0  0  0  0  0  0  0  0  0
  141.3370   81.0140  223.8550 C   0  0  0  0  0  0  0  0  0  0  0  0
  142.5280   80.4070  223.5190 C   0  0  0  0  0  0  0  0  0  0  0  0
  142.5250   79.3150  222.7040 C   0  0  0  0  0  0  0  0  0  0  0  0
  141.3650   78.7540  222.1710 C   0  0  0  0  0  0  0  0  0  0  0  0
  141.5010   77.5630  221.3040 C   0  0  2  0  0  0  0  0  0  0  0  0
  141.7000   77.9130  219.8440 C   0  0  0  0  0  0  0  0  0  0  0  0
  140.3850   76.6600  221.4100 N   0  0  0  0  0  0  0  0  0  0  0  0
  140.5550   75.3030  220.9520 C   0  0  0  0  0  0  0  0  0  0  0  0
  141.6590   74.9140  220.4690 O   0  0  0  0  0  0  0  0  0  0  0  0
  139.4250   74.3380  221.0440 C   0  0  0  0  0  0  0  0  0  0  0  0
  139.5500   73.6530  222.3250 N   0  0  0  0  0  0  0  0  0  0  0  0
  139.6940   72.2270  222.2550 C   0  0  0  0  0  0  0  0  0  0  0  0
  139.6950   71.7310  221.0940 O   0  0  0  0  0  0  0  0  0  0  0  0
  139.8280   71.4190  223.4430 C   0  0  0  0  0  0  0  0  0  0  0  0
  139.4370   70.1050  223.4070 C   0  0  0  0  0  0  0  0  0  0  0  0
  139.5250   69.2530  224.4870 C   0  0  0  0  0  0  0  0  0  0  0  0
  140.0420   69.7820  225.6610 C   0  0  0  0  0  0  0  0  0  0  0  0
  140.1370   68.9480  226.7470 C   0  0  0  0  0  0  0  0  0  0  0  0
  140.6590   69.5010  227.9150 C   0  0  0  0  0  0  0  0  0  0  0  0
  140.7810   68.7250  229.0330 F   0  0  0  0  0  0  0  0  0  0  0  0
  141.0580   70.8200  227.9700 C   0  0  0  0  0  0  0  0  0  0  0  0
  140.9480   71.6300  226.8600 C   0  0  0  0  0  0  0  0  0  0  0  0
  140.4370   71.1030  225.7010 C   0  0  0  0  0  0  0  0  0  0  0  0
  140.3280   71.8900  224.6170 N   0  0  0  0  0  0  0  0  0  0  0  0
  138.1815   78.8080  223.9083 H   0  0  0  0  0  0  0  0  0  0  0  0
  137.1990   79.6407  222.6562 H   0  0  0  0  0  0  0  0  0  0  0  0
  137.3222   77.8486  222.6562 H   0  0  0  0  0  0  0  0  0  0  0  0
  139.2217   80.9485  223.5941 H   0  0  0  0  0  0  0  0  0  0  0  0
  141.3122   81.8959  224.5120 H   0  0  0  0  0  0  0  0  0  0  0  0
  143.4779   80.8029  223.9076 H   0  0  0  0  0  0  0  0  0  0  0  0
  143.4901   78.8508  222.4529 H   0  0  0  0  0  0  0  0  0  0  0  0
  142.4053   77.0606  221.6780 H   0  0  0  0  0  0  0  0  0  0  0  0
  142.2423   78.8669  219.7662 H   0  0  0  0  0  0  0  0  0  0  0  0
  142.2819   77.1193  219.3527 H   0  0  0  0  0  0  0  0  0  0  0  0
  140.7203   78.0071  219.3527 H   0  0  0  0  0  0  0  0  0  0  0  0
  139.4460   76.8850  221.7840 H   0  0  0  0  0  0  0  0  0  0  0  0
  138.4658   74.8742  220.9948 H   0  0  0  0  0  0  0  0  0  0  0  0
  139.4544   73.6199  220.2113 H   0  0  0  0  0  0  0  0  0  0  0  0
  139.5380   74.1490  223.2420 H   0  0  0  0  0  0  0  0  0  0  0  0
  139.0308   69.7092  222.4645 H   0  0  0  0  0  0  0  0  0  0  0  0
  139.2009   68.2039  224.4213 H   0  0  0  0  0  0  0  0  0  0  0  0
  139.8174   67.8966  226.6980 H   0  0  0  0  0  0  0  0  0  0  0  0
  141.4668   71.2285  228.9060 H   0  0  0  0  0  0  0  0  0  0  0  0
  141.2650   72.6825  226.9029 H   0  0  0  0  0  0  0  0  0  0  0  0
  1  2  1  0
  2  3  1  0
  3  4  2  0
  4  5  1  0
  5  6  2  0
  6  7  1  0
  7  8  2  0
  8  9  1  0
  9 10  1  0
  9 11  1  0
 11 12  1  0
 12 13  2  0
 12 14  1  0
 14 15  1  0
 15 16  1  0
 16 17  2  0
 16 18  1  0
 18 19  2  0
 19 20  1  0
 20 21  2  0
 21 22  1  0
 22 23  2  0
 23 24  1  0
 23 25  1  0
 25 26  2  0
 26 27  1  0
 27 28  2  0
  8  3  1  0
 28 18  1  0
 27 21  1  0
  1 29  1  0
  1 30  1  0
  1 31  1  0
  4 32  1  0
  5 33  1  0
  6 34  1  0
  7 35  1  0
  9 36  1  1
 10 37  1  0
 10 38  1  0
 10 39  1  0
 11 40  1  0
 14 41  1  0
 14 42  1  0
 15 43  1  0
 19 44  1  0
 20 45  1  0
 22 46  1  0
 25 47  1  0
 26 48  1  0
M  END
>  <meeko>  (17) 
{"free_energy": -7.88, "intermolecular_energy": -9.67, "internal_energy": -1.64, "cluster_size": 20, "cluster_id": 1, "rank_in_cluster": 7}

$$$$

     RDKit          3D

 48 50  0  0  0  0  0  0  0  0999 V2000
  141.2800   74.7130  221.0380 C   0  0  0  0  0  0  0  0  0  0  0  0
  140.3320   74.9740  222.0530 O   0  0  0  0  0  0  0  0  0  0  0  0
  140.0250   76.2690  222.3950 C   0  0  0  0  0  0  0  0  0  0  0  0
  141.0480   77.1970  222.6090 C   0  0  0  0  0  0  0  0  0  0  0  0
  140.8010   78.5020  222.9530 C   0  0  0  0  0  0  0  0  0  0  0  0
  139.4850   78.8870  223.0880 C   0  0  0  0  0  0  0  0  0  0  0  0
  138.4890   77.9810  222.8800 C   0  0  0  0  0  0  0  0  0  0  0  0
  138.7190   76.6510  222.5290 C   0  0  0  0  0  0  0  0  0  0  0  0
  137.5460   75.7710  222.3270 C   0  0  2  0  0  0  0  0  0  0  0  0
  136.5470   75.8440  223.4630 C   0  0  0  0  0  0  0  0  0  0  0  0
  137.9070   74.3920  222.1220 N   0  0  0  0  0  0  0  0  0  0  0  0
  137.0810   73.5890  221.2560 C   0  0  0  0  0  0  0  0  0  0  0  0
  136.0640   74.0820  220.6860 O   0  0  0  0  0  0  0  0  0  0  0  0
  137.4200   72.1580  221.0180 C   0  0  0  0  0  0  0  0  0  0  0  0
  137.7490   71.5760  222.3140 N   0  0  0  0  0  0  0  0  0  0  0  0
  139.1300   71.6530  222.6960 C   0  0  0  0  0  0  0  0  0  0  0  0
  139.8990   72.2140  221.8670 O   0  0  0  0  0  0  0  0  0  0  0  0
  139.6010   71.1180  223.9510 C   0  0  0  0  0  0  0  0  0  0  0  0
  140.4640   71.8620  224.7140 C   0  0  0  0  0  0  0  0  0  0  0  0
  140.9680   71.4390  225.9260 C   0  0  0  0  0  0  0  0  0  0  0  0
  140.5630   70.1900  226.3710 C   0  0  0  0  0  0  0  0  0  0  0  0
  141.0550   69.7530  227.5750 C   0  0  0  0  0  0  0  0  0  0  0  0
  140.6330   68.4950  228.0030 C   0  0  0  0  0  0  0  0  0  0  0  0
  141.0850   68.0010  229.1940 F   0  0  0  0  0  0  0  0  0  0  0  0
  139.7650   67.7340  227.2490 C   0  0  0  0  0  0  0  0  0  0  0  0
  139.2900   68.2030  226.0430 C   0  0  0  0  0  0  0  0  0  0  0  0
  139.6940   69.4400  225.6060 C   0  0  0  0  0  0  0  0  0  0  0  0
  139.2320   69.9000  224.4310 N   0  0  0  0  0  0  0  0  0  0  0  0
  142.2441   74.4476  221.4962 H   0  0  0  0  0  0  0  0  0  0  0  0
  140.9285   73.8782  220.4138 H   0  0  0  0  0  0  0  0  0  0  0  0
  141.4053   75.6101  220.4138 H   0  0  0  0  0  0  0  0  0  0  0  0
  142.0918   76.8683  222.4972 H   0  0  0  0  0  0  0  0  0  0  0  0
  141.6232   79.2145  223.1150 H   0  0  0  0  0  0  0  0  0  0  0  0
  139.2391   79.9233  223.3630 H   0  0  0  0  0  0  0  0  0  0  0  0
  137.4477   78.3165  222.9951 H   0  0  0  0  0  0  0  0  0  0  0  0
  137.0744   76.1582  221.4118 H   0  0  0  0  0  0  0  0  0  0  0  0
  137.0810   75.8050  224.4239 H   0  0  0  0  0  0  0  0  0  0  0  0
  135.9827   76.7858  223.3951 H   0  0  0  0  0  0  0  0  0  0  0  0
  135.8518   74.9943  223.3951 H   0  0  0  0  0  0  0  0  0  0  0  0
  138.7130   73.8990  222.5470 H   0  0  0  0  0  0  0  0  0  0  0  0
  136.5593   71.6344  220.5764 H   0  0  0  0  0  0  0  0  0  0  0  0
  138.2656   72.0659  220.3205 H   0  0  0  0  0  0  0  0  0  0  0  0
  137.0420   71.1290  222.9350 H   0  0  0  0  0  0  0  0  0  0  0  0
  140.7708   72.8496  224.3391 H   0  0  0  0  0  0  0  0  0  0  0  0
  141.6587   72.0631  226.5120 H   0  0  0  0  0  0  0  0  0  0  0  0
  141.7474   70.3643  228.1724 H   0  0  0  0  0  0  0  0  0  0  0  0
  139.4492   66.7451  227.6126 H   0  0  0  0  0  0  0  0  0  0  0  0
  138.5984   67.5958  225.4405 H   0  0  0  0  0  0  0  0  0  0  0  0
  1  2  1  0
  2  3  1  0
  3  4  2  0
  4  5  1  0
  5  6  2  0
  6  7  1  0
  7  8  2  0
  8  9  1  0
  9 10  1  0
  9 11  1  0
 11 12  1  0
 12 13  2  0
 12 14  1  0
 14 15  1  0
 15 16  1  0
 16 17  2  0
 16 18  1  0
 18 19  2  0
 19 20  1  0
 20 21  2  0
 21 22  1  0
 22 23  2  0
 23 24  1  0
 23 25  1  0
 25 26  2  0
 26 27  1  0
 27 28  2  0
  8  3  1  0
 28 18  1  0
 27 21  1  0
  1 29  1  0
  1 30  1  0
  1 31  1  0
  4 32  1  0
  5 33  1  0
  6 34  1  0
  7 35  1  0
  9 36  1  6
 10 37  1  0
 10 38  1  0
 10 39  1  0
 11 40  1  0
 14 41  1  0
 14 42  1  0
 15 43  1  0
 19 44  1  0
 20 45  1  0
 22 46  1  0
 25 47  1  0
 26 48  1  0
M  END
>  <meeko>  (18) 
{"free_energy": -7.32, "intermolecular_energy": -9.11, "internal_energy": -2.53, "cluster_size": 20, "cluster_id": 1, "rank_in_cluster": 18}

$$$$

     RDKit          3D

 48 50  0  0  0  0  0  0  0  0999 V2000
  137.8220   78.4000  222.6150 C   0  0  0  0  0  0  0  0  0  0  0  0
  139.1260   77.8940  222.8110 O   0  0  0  0  0  0  0  0  0  0  0  0
  140.1990   78.7510  222.8720 C   0  0  0  0  0  0  0  0  0  0  0  0
  140.1650   79.8520  223.7320 C   0  0  0  0  0  0  0  0  0  0  0  0
  141.2060   80.7410  223.8340 C   0  0  0  0  0  0  0  0  0  0  0  0
  142.3150   80.5170  223.0480 C   0  0  0  0  0  0  0  0  0  0  0  0
  142.3450   79.4430  222.2100 C   0  0  0  0  0  0  0  0  0  0  0  0
  141.2990   78.5280  222.0910 C   0  0  0  0  0  0  0  0  0  0  0  0
  141.4630   77.4010  221.1470 C   0  0  2  0  0  0  0  0  0  0  0  0
  141.8430   77.8480  219.7510 C   0  0  0  0  0  0  0  0  0  0  0  0
  140.2920   76.5680  221.0580 N   0  0  0  0  0  0  0  0  0  0  0  0
  140.4630   75.1370  221.1100 C   0  0  0  0  0  0  0  0  0  0  0  0
  141.6140   74.6240  221.2330 O   0  0  0  0  0  0  0  0  0  0  0  0
  139.2760   74.2410  221.0210 C   0  0  0  0  0  0  0  0  0  0  0  0
  139.2020   73.5040  222.2760 N   0  0  0  0  0  0  0  0  0  0  0  0
  139.9770   72.2980  222.3360 C   0  0  0  0  0  0  0  0  0  0  0  0
  140.6330   72.0150  221.2950 O   0  0  0  0  0  0  0  0  0  0  0  0
  139.9990   71.4670  223.5150 C   0  0  0  0  0  0  0  0  0  0  0  0
  139.5060   70.1900  223.4440 C   0  0  0  0  0  0  0  0  0  0  0  0
  139.4820   69.3200  224.5140 C   0  0  0  0  0  0  0  0  0  0  0  0
  139.9930   69.7910  225.7140 C   0  0  0  0  0  0  0  0  0  0  0  0
  139.9780   68.9390  226.7900 C   0  0  0  0  0  0  0  0  0  0  0  0
  140.4970   69.4330  227.9850 C   0  0  0  0  0  0  0  0  0  0  0  0
  140.5120   68.6360  229.0950 F   0  0  0  0  0  0  0  0  0  0  0  0
  140.9980   70.7150  228.0750 C   0  0  0  0  0  0  0  0  0  0  0  0
  140.9970   71.5450  226.9750 C   0  0  0  0  0  0  0  0  0  0  0  0
  140.4910   71.0750  225.7890 C   0  0  0  0  0  0  0  0  0  0  0  0
  140.4890   71.8820  224.7140 N   0  0  0  0  0  0  0  0  0  0  0  0
  137.3493   78.5834  223.5912 H   0  0  0  0  0  0  0  0  0  0  0  0
  137.8755   79.3426  222.0506 H   0  0  0  0  0  0  0  0  0  0  0  0
  137.2257   77.6680  222.0506 H   0  0  0  0  0  0  0  0  0  0  0  0
  139.2698   80.0124  224.3508 H   0  0  0  0  0  0  0  0  0  0  0  0
  141.1565   81.6008  224.5183 H   0  0  0  0  0  0  0  0  0  0  0  0
  143.1735   81.2030  223.0968 H   0  0  0  0  0  0  0  0  0  0  0  0
  143.2431   79.2892  221.5938 H   0  0  0  0  0  0  0  0  0  0  0  0
  142.2901   76.8131  221.5715 H   0  0  0  0  0  0  0  0  0  0  0  0
  142.5543   78.6847  219.8148 H   0  0  0  0  0  0  0  0  0  0  0  0
  142.3097   77.0103  219.2121 H   0  0  0  0  0  0  0  0  0  0  0  0
  140.9411   78.1738  219.2121 H   0  0  0  0  0  0  0  0  0  0  0  0
  139.3140   76.8920  220.9510 H   0  0  0  0  0  0  0  0  0  0  0  0
  138.3626   74.8373  220.8789 H   0  0  0  0  0  0  0  0  0  0  0  0
  139.3670   73.5533  220.1673 H   0  0  0  0  0  0  0  0  0  0  0  0
  138.6280   73.8160  223.0890 H   0  0  0  0  0  0  0  0  0  0  0  0
  139.1075   69.8397  222.4804 H   0  0  0  0  0  0  0  0  0  0  0  0
  139.0770   68.3016  224.4200 H   0  0  0  0  0  0  0  0  0  0  0  0
  139.5765   67.9178  226.7128 H   0  0  0  0  0  0  0  0  0  0  0  0
  141.4014   71.0775  229.0320 H   0  0  0  0  0  0  0  0  0  0  0  0
  141.3954   72.5678  227.0464 H   0  0  0  0  0  0  0  0  0  0  0  0
  1  2  1  0
  2  3  1  0
  3  4  2  0
  4  5  1  0
  5  6  2  0
  6  7  1  0
  7  8  2  0
  8  9  1  0
  9 10  1  0
  9 11  1  0
 11 12  1  0
 12 13  2  0
 12 14  1  0
 14 15  1  0
 15 16  1  0
 16 17  2  0
 16 18  1  0
 18 19  2  0
 19 20  1  0
 20 21  2  0
 21 22  1  0
 22 23  2  0
 23 24  1  0
 23 25  1  0
 25 26  2  0
 26 27  1  0
 27 28  2  0
  8  3  1  0
 28 18  1  0
 27 21  1  0
  1 29  1  0
  1 30  1  0
  1 31  1  0
  4 32  1  0
  5 33  1  0
  6 34  1  0
  7 35  1  0
  9 36  1  1
 10 37  1  0
 10 38  1  0
 10 39  1  0
 11 40  1  0
 14 41  1  0
 14 42  1  0
 15 43  1  0
 19 44  1  0
 20 45  1  0
 22 46  1  0
 25 47  1  0
 26 48  1  0
M  END
>  <meeko>  (19) 
{"free_energy": -8.26, "intermolecular_energy": -10.05, "internal_energy": -1.46, "cluster_size": 20, "cluster_id": 1, "rank_in_cluster": 1}

$$$$

     RDKit          3D

 48 50  0  0  0  0  0  0  0  0999 V2000
  141.4380   75.8550  221.0140 C   0  0  0  0  0  0  0  0  0  0  0  0
  140.9820   76.0730  222.3330 O   0  0  0  0  0  0  0  0  0  0  0  0
  140.5090   77.3090  222.7050 C   0  0  0  0  0  0  0  0  0  0  0  0
  141.3990   78.2990  223.1300 C   0  0  0  0  0  0  0  0  0  0  0  0
  140.9830   79.5490  223.5130 C   0  0  0  0  0  0  0  0  0  0  0  0
  139.6310   79.8130  223.4690 C   0  0  0  0  0  0  0  0  0  0  0  0
  138.7660   78.8460  223.0550 C   0  0  0  0  0  0  0  0  0  0  0  0
  139.1670   77.5700  222.6610 C   0  0  0  0  0  0  0  0  0  0  0  0
  138.1240   76.6140  222.2260 C   0  0  2  0  0  0  0  0  0  0  0  0
  136.8770   76.6680  223.0850 C   0  0  0  0  0  0  0  0  0  0  0  0
  138.5920   75.2530  222.1830 N   0  0  0  0  0  0  0  0  0  0  0  0
  138.0800   74.3850  221.1530 C   0  0  0  0  0  0  0  0  0  0  0  0
  137.2390   74.8070  220.3050 O   0  0  0  0  0  0  0  0  0  0  0  0
  138.5380   72.9690  221.0740 C   0  0  0  0  0  0  0  0  0  0  0  0
  138.6760   72.4880  222.4430 N   0  0  0  0  0  0  0  0  0  0  0  0
  139.8300   71.6740  222.7010 C   0  0  0  0  0  0  0  0  0  0  0  0
  140.5890   71.4690  221.7140 O   0  0  0  0  0  0  0  0  0  0  0  0
  140.0950   71.1270  224.0090 C   0  0  0  0  0  0  0  0  0  0  0  0
  140.7700   71.8890  224.9290 C   0  0  0  0  0  0  0  0  0  0  0  0
  141.0710   71.4570  226.2030 C   0  0  0  0  0  0  0  0  0  0  0  0
  140.6550   70.1780  226.5460 C   0  0  0  0  0  0  0  0  0  0  0  0
  140.9450   69.7320  227.8100 C   0  0  0  0  0  0  0  0  0  0  0  0
  140.5170   68.4450  228.1320 C   0  0  0  0  0  0  0  0  0  0  0  0
  140.7740   67.9400  229.3750 F   0  0  0  0  0  0  0  0  0  0  0  0
  139.8360   67.6660  227.2210 C   0  0  0  0  0  0  0  0  0  0  0  0
  139.5610   68.1460  225.9580 C   0  0  0  0  0  0  0  0  0  0  0  0
  139.9750   69.4110  225.6240 C   0  0  0  0  0  0  0  0  0  0  0  0
  139.7070   69.8810  224.3930 N   0  0  0  0  0  0  0  0  0  0  0  0
  142.4301   75.3807  221.0427 H   0  0  0  0  0  0  0  0  0  0  0  0
  140.7321   75.1969  220.4861 H   0  0  0  0  0  0  0  0  0  0  0  0
  141.5069   76.8176  220.4861 H   0  0  0  0  0  0  0  0  0  0  0  0
  142.4739   78.0673  223.1586 H   0  0  0  0  0  0  0  0  0  0  0  0
  141.7024   80.3128  223.8432 H   0  0  0  0  0  0  0  0  0  0  0  0
  139.2518   80.8016  223.7673 H   0  0  0  0  0  0  0  0  0  0  0  0
  137.6925   79.0846  223.0301 H   0  0  0  0  0  0  0  0  0  0  0  0
  137.8702   76.9378  221.2058 H   0  0  0  0  0  0  0  0  0  0  0  0
  137.1626   76.6556  224.1472 H   0  0  0  0  0  0  0  0  0  0  0  0
  136.3204   77.5911  222.8657 H   0  0  0  0  0  0  0  0  0  0  0  0
  136.2427   75.7965  222.8657 H   0  0  0  0  0  0  0  0  0  0  0  0
  139.2700   74.8160  222.8330 H   0  0  0  0  0  0  0  0  0  0  0  0
  137.7969   72.3620  220.5334 H   0  0  0  0  0  0  0  0  0  0  0  0
  139.4936   72.8954  220.5342 H   0  0  0  0  0  0  0  0  0  0  0  0
  137.9930   72.7090  223.1980 H   0  0  0  0  0  0  0  0  0  0  0  0
  141.0883   72.8997  224.6339 H   0  0  0  0  0  0  0  0  0  0  0  0
  141.6152   72.0958  226.9142 H   0  0  0  0  0  0  0  0  0  0  0  0
  141.4879   70.3582  228.5332 H   0  0  0  0  0  0  0  0  0  0  0  0
  139.5097   66.6543  227.5037 H   0  0  0  0  0  0  0  0  0  0  0  0
  139.0185   67.5250  225.2299 H   0  0  0  0  0  0  0  0  0  0  0  0
  1  2  1  0
  2  3  1  0
  3  4  2  0
  4  5  1  0
  5  6  2  0
  6  7  1  0
  7  8  2  0
  8  9  1  0
  9 10  1  0
  9 11  1  0
 11 12  1  0
 12 13  2  0
 12 14  1  0
 14 15  1  0
 15 16  1  0
 16 17  2  0
 16 18  1  0
 18 19  2  0
 19 20  1  0
 20 21  2  0
 21 22  1  0
 22 23  2  0
 23 24  1  0
 23 25  1  0
 25 26  2  0
 26 27  1  0
 27 28  2  0
  8  3  1  0
 28 18  1  0
 27 21  1  0
  1 29  1  0
  1 30  1  0
  1 31  1  0
  4 32  1  0
  5 33  1  0
  6 34  1  0
  7 35  1  0
  9 36  1  6
 10 37  1  0
 10 38  1  0
 10 39  1  0
 11 40  1  0
 14 41  1  0
 14 42  1  0
 15 43  1  0
 19 44  1  0
 20 45  1  0
 22 46  1  0
 25 47  1  0
 26 48  1  0
M  END
>  <meeko>  (20) 
{"free_energy": -7.93, "intermolecular_energy": -9.72, "internal_energy": -1.64, "cluster_size": 20, "cluster_id": 1, "rank_in_cluster": 6}

$$$$
