
     RDKit          3D

 56 58  0  0  0  0  0  0  0  0999 V2000
  142.5890   80.2810  222.3850 C   0  0  0  0  0  0  0  0  0  0  0  0
  141.5340   79.3370  222.8380 C   0  0  0  0  0  0  0  0  0  0  0  0
  140.2220   80.0960  222.8710 C   0  0  0  0  0  0  0  0  0  0  0  0
  141.8310   79.0020  224.3090 C   0  0  0  0  0  0  0  0  0  0  0  0
  141.4420   78.0390  222.1320 C   0  0  0  0  0  0  0  0  0  0  0  0
  140.6960   78.0010  220.8510 C   0  0  2  0  0  0  0  0  0  0  0  0
  140.7010   76.5860  220.4310 N   0  0  0  0  0  0  0  0  0  0  0  0
  140.1420   75.6360  221.3440 C   0  0  0  0  0  0  0  0  0  0  0  0
  139.6660   75.9750  222.4550 O   0  0  0  0  0  0  0  0  0  0  0  0
  140.1010   74.1780  221.0100 C   0  0  0  0  0  0  0  0  0  0  0  0
  139.9540   73.4720  222.2660 N   0  0  0  0  0  0  0  0  0  0  0  0
  140.3570   72.1030  222.3880 C   0  0  0  0  0  0  0  0  0  0  0  0
  140.8350   71.5730  221.3490 O   0  0  0  0  0  0  0  0  0  0  0  0
  140.2140   71.3800  223.6500 C   0  0  0  0  0  0  0  0  0  0  0  0
  139.5720   70.1580  223.6080 C   0  0  0  0  0  0  0  0  0  0  0  0
  139.4060   69.4280  224.7610 C   0  0  0  0  0  0  0  0  0  0  0  0
  139.8980   69.9550  225.9430 C   0  0  0  0  0  0  0  0  0  0  0  0
  139.7660   69.2710  227.1470 C   0  0  0  0  0  0  0  0  0  0  0  0
  140.2320   69.7450  228.3370 C   0  0  0  0  0  0  0  0  0  0  0  0
  140.8720   70.9740  228.3420 C   0  0  0  0  0  0  0  0  0  0  0  0
  141.0220   71.6880  227.1520 C   0  0  0  0  0  0  0  0  0  0  0  0
  140.5450   71.1880  225.9700 C   0  0  0  0  0  0  0  0  0  0  0  0
  140.6880   71.8790  224.8050 N   0  0  0  0  0  0  0  0  0  0  0  0
  141.2970   78.7340  219.7290 C   0  0  0  0  0  0  0  0  0  0  0  0
  142.2540   78.2170  218.8800 C   0  0  0  0  0  0  0  0  0  0  0  0
  142.8050   78.9280  217.8370 C   0  0  0  0  0  0  0  0  0  0  0  0
  142.4170   80.2190  217.5900 C   0  0  0  0  0  0  0  0  0  0  0  0
  141.4650   80.7700  218.4150 C   0  0  0  0  0  0  0  0  0  0  0  0
  140.9110   80.0540  219.4630 C   0  0  0  0  0  0  0  0  0  0  0  0
  143.0848   80.7246  223.2610 H   0  0  0  0  0  0  0  0  0  0  0  0
  143.3304   79.7392  221.7794 H   0  0  0  0  0  0  0  0  0  0  0  0
  142.1326   81.0778  221.7794 H   0  0  0  0  0  0  0  0  0  0  0  0
  139.9242   80.2683  223.9158 H   0  0  0  0  0  0  0  0  0  0  0  0
  140.3447   81.0626  222.3606 H   0  0  0  0  0  0  0  0  0  0  0  0
  139.4452   79.5078  222.3606 H   0  0  0  0  0  0  0  0  0  0  0  0
  141.2436   79.6645  224.9617 H   0  0  0  0  0  0  0  0  0  0  0  0
  141.5589   77.9551  224.5088 H   0  0  0  0  0  0  0  0  0  0  0  0
  142.9030   79.1467  224.5088 H   0  0  0  0  0  0  0  0  0  0  0  0
  142.4692   77.7051  221.9237 H   0  0  0  0  0  0  0  0  0  0  0  0
  140.8624   77.3950  222.8098 H   0  0  0  0  0  0  0  0  0  0  0  0
  139.7181   78.4645  221.0481 H   0  0  0  0  0  0  0  0  0  0  0  0
  141.0930   76.2920  219.5110 H   0  0  0  0  0  0  0  0  0  0  0  0
  139.2468   73.9630  220.3511 H   0  0  0  0  0  0  0  0  0  0  0  0
  141.0141   73.8651  220.4825 H   0  0  0  0  0  0  0  0  0  0  0  0
  139.5590   73.9050  223.1330 H   0  0  0  0  0  0  0  0  0  0  0  0
  139.1933   69.7686  222.6515 H   0  0  0  0  0  0  0  0  0  0  0  0
  138.8969   68.4531  224.7450 H   0  0  0  0  0  0  0  0  0  0  0  0
  139.2583   68.2952  227.1383 H   0  0  0  0  0  0  0  0  0  0  0  0
  140.1038   69.1692  229.2655 H   0  0  0  0  0  0  0  0  0  0  0  0
  141.2619   71.3871  229.2840 H   0  0  0  0  0  0  0  0  0  0  0  0
  141.5294   72.6639  227.1640 H   0  0  0  0  0  0  0  0  0  0  0  0
  142.5943   77.1840  219.0446 H   0  0  0  0  0  0  0  0  0  0  0  0
  143.5637   78.4551  217.1961 H   0  0  0  0  0  0  0  0  0  0  0  0
  142.8524   80.7948  216.7600 H   0  0  0  0  0  0  0  0  0  0  0  0
  141.1355   81.8045  218.2383 H   0  0  0  0  0  0  0  0  0  0  0  0
  140.1520   80.5318  220.0998 H   0  0  0  0  0  0  0  0  0  0  0  0
  1  2  1  0
  2  3  1  0
  2  4  1  0
  2  5  1  0
  5  6  1  0
  6  7  1  0
  7  8  1  0
  8  9  2  0
  8 10  1  0
 10 11  1  0
 11 12  1  0
 12 13  2  0
 12 14  1  0
 14 15  2  0
 15 16  1  0
 16 17  2  0
 17 18  1  0
 18 19  2  0
 19 20  1  0
 20 21  2  0
 21 22  1  0
 22 23  2  0
  6 24  1  0
 24 25  2  0
 25 26  1  0
 26 27  2  0
 27 28  1  0
 28 29  2  0
 23 14  1  0
 29 24  1  0
 22 17  1  0
  1 30  1  0
  1 31  1  0
  1 32  1  0
  3 33  1  0
  3 34  1  0
  3 35  1  0
  4 36  1  0
  4 37  1  0
  4 38  1  0
  5 39  1  0
  5 40  1  0
  6 41  1  1
  7 42  1  0
 10 43  1  0
 10 44  1  0
 11 45  1  0
 15 46  1  0
 16 47  1  0
 18 48  1  0
 19 49  1  0
 20 50  1  0
 21 51  1  0
 25 52  1  0
 26 53  1  0
 27 54  1  0
 28 55  1  0
 29 56  1  0
M  END
>  <meeko>  (1) 
{"free_energy": -8.63, "intermolecular_energy": -10.72, "internal_energy": -2.04, "cluster_size": 2, "cluster_id": 2, "rank_in_cluster": 2}

$$$$

     RDKit          3D

 56 58  0  0  0  0  0  0  0  0999 V2000
  141.4100   78.6370  221.1070 C   0  0  0  0  0  0  0  0  0  0  0  0
  140.8530   78.2030  222.4150 C   0  0  0  0  0  0  0  0  0  0  0  0
  139.5540   78.9560  222.6330 C   0  0  0  0  0  0  0  0  0  0  0  0
  141.8000   78.7290  223.5050 C   0  0  0  0  0  0  0  0  0  0  0  0
  140.7300   76.7460  222.6460 C   0  0  0  0  0  0  0  0  0  0  0  0
  140.4540   75.8810  221.4720 C   0  0  2  0  0  0  0  0  0  0  0  0
  139.4710   74.8830  221.9380 N   0  0  0  0  0  0  0  0  0  0  0  0
  138.6370   74.2800  220.9430 C   0  0  0  0  0  0  0  0  0  0  0  0
  138.7260   74.5760  219.7260 O   0  0  0  0  0  0  0  0  0  0  0  0
  137.6100   73.2580  221.3150 C   0  0  0  0  0  0  0  0  0  0  0  0
  138.0710   72.6350  222.5370 N   0  0  0  0  0  0  0  0  0  0  0  0
  139.2020   71.7560  222.5290 C   0  0  0  0  0  0  0  0  0  0  0  0
  139.7500   71.5700  221.4080 O   0  0  0  0  0  0  0  0  0  0  0  0
  139.6790   71.1210  223.7560 C   0  0  0  0  0  0  0  0  0  0  0  0
  140.5820   71.8290  224.5240 C   0  0  0  0  0  0  0  0  0  0  0  0
  141.0700   71.2870  225.6890 C   0  0  0  0  0  0  0  0  0  0  0  0
  140.6270   70.0280  226.0570 C   0  0  0  0  0  0  0  0  0  0  0  0
  141.0780   69.4190  227.2230 C   0  0  0  0  0  0  0  0  0  0  0  0
  140.6750   68.1810  227.6300 C   0  0  0  0  0  0  0  0  0  0  0  0
  139.7670   67.4980  226.8360 C   0  0  0  0  0  0  0  0  0  0  0  0
  139.2950   68.0800  225.6580 C   0  0  0  0  0  0  0  0  0  0  0  0
  139.7160   69.3250  225.2730 C   0  0  0  0  0  0  0  0  0  0  0  0
  139.2590   69.8980  224.1250 N   0  0  0  0  0  0  0  0  0  0  0  0
  141.5870   75.0940  220.9680 C   0  0  0  0  0  0  0  0  0  0  0  0
  141.7810   73.7500  221.2210 C   0  0  0  0  0  0  0  0  0  0  0  0
  142.8550   73.0370  220.7380 C   0  0  0  0  0  0  0  0  0  0  0  0
  143.8080   73.6460  219.9640 C   0  0  0  0  0  0  0  0  0  0  0  0
  143.6490   74.9840  219.6900 C   0  0  0  0  0  0  0  0  0  0  0  0
  142.5690   75.7010  220.1750 C   0  0  0  0  0  0  0  0  0  0  0  0
  142.2673   79.3050  221.2770 H   0  0  0  0  0  0  0  0  0  0  0  0
  141.7395   77.7551  220.5380 H   0  0  0  0  0  0  0  0  0  0  0  0
  140.6354   79.1721  220.5380 H   0  0  0  0  0  0  0  0  0  0  0  0
  139.3690   79.0632  223.7120 H   0  0  0  0  0  0  0  0  0  0  0  0
  139.6260   79.9524  222.1725 H   0  0  0  0  0  0  0  0  0  0  0  0
  138.7252   78.3983  222.1725 H   0  0  0  0  0  0  0  0  0  0  0  0
  141.3829   78.4973  224.4961 H   0  0  0  0  0  0  0  0  0  0  0  0
  142.7836   78.2479  223.3996 H   0  0  0  0  0  0  0  0  0  0  0  0
  141.9114   79.8182  223.3996 H   0  0  0  0  0  0  0  0  0  0  0  0
  141.6757   76.4032  223.0912 H   0  0  0  0  0  0  0  0  0  0  0  0
  139.8400   76.6404  223.2838 H   0  0  0  0  0  0  0  0  0  0  0  0
  140.1430   76.5519  220.6576 H   0  0  0  0  0  0  0  0  0  0  0  0
  139.3880   74.6290  222.9450 H   0  0  0  0  0  0  0  0  0  0  0  0
  136.6357   73.7413  221.4795 H   0  0  0  0  0  0  0  0  0  0  0  0
  137.4818   72.5146  220.5144 H   0  0  0  0  0  0  0  0  0  0  0  0
  137.6230   72.7840  223.4710 H   0  0  0  0  0  0  0  0  0  0  0  0
  140.9113   72.8283  224.2030 H   0  0  0  0  0  0  0  0  0  0  0  0
  141.7914   71.8374  226.3108 H   0  0  0  0  0  0  0  0  0  0  0  0
  141.7981   69.9647  227.8505 H   0  0  0  0  0  0  0  0  0  0  0  0
  141.0592   67.7379  228.5606 H   0  0  0  0  0  0  0  0  0  0  0  0
  139.4185   66.4981  227.1338 H   0  0  0  0  0  0  0  0  0  0  0  0
  138.5761   67.5318  225.0314 H   0  0  0  0  0  0  0  0  0  0  0  0
  141.0399   73.2228  221.8397 H   0  0  0  0  0  0  0  0  0  0  0  0
  142.9492   71.9672  220.9758 H   0  0  0  0  0  0  0  0  0  0  0  0
  144.6701   73.0840  219.5755 H   0  0  0  0  0  0  0  0  0  0  0  0
  144.3987   75.4973  219.0700 H   0  0  0  0  0  0  0  0  0  0  0  0
  142.4800   76.7702  219.9325 H   0  0  0  0  0  0  0  0  0  0  0  0
  1  2  1  0
  2  3  1  0
  2  4  1  0
  2  5  1  0
  5  6  1  0
  6  7  1  0
  7  8  1  0
  8  9  2  0
  8 10  1  0
 10 11  1  0
 11 12  1  0
 12 13  2  0
 12 14  1  0
 14 15  2  0
 15 16  1  0
 16 17  2  0
 17 18  1  0
 18 19  2  0
 19 20  1  0
 20 21  2  0
 21 22  1  0
 22 23  2  0
  6 24  1  0
 24 25  2  0
 25 26  1  0
 26 27  2  0
 27 28  1  0
 28 29  2  0
 23 14  1  0
 29 24  1  0
 22 17  1  0
  1 30  1  0
  1 31  1  0
  1 32  1  0
  3 33  1  0
  3 34  1  0
  3 35  1  0
  4 36  1  0
  4 37  1  0
  4 38  1  0
  5 39  1  0
  5 40  1  0
  6 41  1  6
  7 42  1  0
 10 43  1  0
 10 44  1  0
 11 45  1  0
 15 46  1  0
 16 47  1  0
 18 48  1  0
 19 49  1  0
 20 50  1  0
 21 51  1  0
 25 52  1  0
 26 53  1  0
 27 54  1  0
 28 55  1  0
 29 56  1  0
M  END
>  <meeko>  (2) 
{"free_energy": -8.46, "intermolecular_energy": -10.55, "internal_energy": -2.03, "cluster_size": 9, "cluster_id": 3, "rank_in_cluster": 5}

$$$$

     RDKit          3D

 56 58  0  0  0  0  0  0  0  0999 V2000
  134.7870   75.2240  221.9550 C   0  0  0  0  0  0  0  0  0  0  0  0
  135.5030   75.0540  223.2460 C   0  0  0  0  0  0  0  0  0  0  0  0
  135.7900   73.5750  223.4210 C   0  0  0  0  0  0  0  0  0  0  0  0
  134.5030   75.3950  224.3630 C   0  0  0  0  0  0  0  0  0  0  0  0
  136.6870   75.9120  223.4790 C   0  0  0  0  0  0  0  0  0  0  0  0
  137.5870   76.1740  222.3300 C   0  0  2  0  0  0  0  0  0  0  0  0
  138.2700   74.8930  222.0620 N   0  0  0  0  0  0  0  0  0  0  0  0
  137.9970   74.2620  220.8070 C   0  0  0  0  0  0  0  0  0  0  0  0
  137.2130   74.7610  219.9630 O   0  0  0  0  0  0  0  0  0  0  0  0
  138.6390   72.9610  220.4420 C   0  0  0  0  0  0  0  0  0  0  0  0
  138.6520   72.1560  221.6450 N   0  0  0  0  0  0  0  0  0  0  0  0
  139.6930   72.3060  222.6160 C   0  0  0  0  0  0  0  0  0  0  0  0
  140.5760   73.1670  222.3520 O   0  0  0  0  0  0  0  0  0  0  0  0
  139.7170   71.5000  223.8350 C   0  0  0  0  0  0  0  0  0  0  0  0
  139.0140   70.3110  223.8200 C   0  0  0  0  0  0  0  0  0  0  0  0
  138.9960   69.5080  224.9360 C   0  0  0  0  0  0  0  0  0  0  0  0
  139.6970   69.9280  226.0530 C   0  0  0  0  0  0  0  0  0  0  0  0
  139.7230   69.1660  227.2160 C   0  0  0  0  0  0  0  0  0  0  0  0
  140.3970   69.5340  228.3420 C   0  0  0  0  0  0  0  0  0  0  0  0
  141.0920   70.7330  228.3230 C   0  0  0  0  0  0  0  0  0  0  0  0
  141.0870   71.5230  227.1720 C   0  0  0  0  0  0  0  0  0  0  0  0
  140.4020   71.1290  226.0540 C   0  0  0  0  0  0  0  0  0  0  0  0
  140.3930   71.8960  224.9280 N   0  0  0  0  0  0  0  0  0  0  0  0
  138.6680   77.1410  222.5610 C   0  0  0  0  0  0  0  0  0  0  0  0
  138.4780   78.4410  222.9870 C   0  0  0  0  0  0  0  0  0  0  0  0
  139.5100   79.3290  223.1920 C   0  0  0  0  0  0  0  0  0  0  0  0
  140.8100   78.9510  222.9760 C   0  0  0  0  0  0  0  0  0  0  0  0
  141.0400   77.6640  222.5520 C   0  0  0  0  0  0  0  0  0  0  0  0
  140.0020   76.7710  222.3460 C   0  0  0  0  0  0  0  0  0  0  0  0
  133.7337   75.4741  222.1500 H   0  0  0  0  0  0  0  0  0  0  0  0
  135.2561   76.0357  221.3797 H   0  0  0  0  0  0  0  0  0  0  0  0
  134.8412   74.2880  221.3797 H   0  0  0  0  0  0  0  0  0  0  0  0
  135.8366   73.3349  224.4935 H   0  0  0  0  0  0  0  0  0  0  0  0
  134.9891   72.9876  222.9482 H   0  0  0  0  0  0  0  0  0  0  0  0
  136.7525   73.3298  222.9482 H   0  0  0  0  0  0  0  0  0  0  0  0
  134.9777   75.2331  225.3420 H   0  0  0  0  0  0  0  0  0  0  0  0
  134.1978   76.4480  224.2731 H   0  0  0  0  0  0  0  0  0  0  0  0
  133.6181   74.7478  224.2731 H   0  0  0  0  0  0  0  0  0  0  0  0
  136.3214   76.8853  223.8382 H   0  0  0  0  0  0  0  0  0  0  0  0
  137.3045   75.3451  224.1913 H   0  0  0  0  0  0  0  0  0  0  0  0
  136.9555   76.5859  221.5290 H   0  0  0  0  0  0  0  0  0  0  0  0
  138.9230   74.4680  222.7540 H   0  0  0  0  0  0  0  0  0  0  0  0
  138.0578   72.4583  219.6549 H   0  0  0  0  0  0  0  0  0  0  0  0
  139.6575   73.1150  220.0560 H   0  0  0  0  0  0  0  0  0  0  0  0
  137.9230   71.4390  221.8730 H   0  0  0  0  0  0  0  0  0  0  0  0
  138.4683   70.0064  222.9148 H   0  0  0  0  0  0  0  0  0  0  0  0
  138.4402   68.5587  224.9409 H   0  0  0  0  0  0  0  0  0  0  0  0
  139.1699   68.2152  227.2278 H   0  0  0  0  0  0  0  0  0  0  0  0
  140.3896   68.8981  229.2395 H   0  0  0  0  0  0  0  0  0  0  0  0
  141.6470   71.0618  229.2140 H   0  0  0  0  0  0  0  0  0  0  0  0
  141.6402   72.4737  227.1632 H   0  0  0  0  0  0  0  0  0  0  0  0
  137.4495   78.7845  223.1720 H   0  0  0  0  0  0  0  0  0  0  0  0
  139.2894   80.3515  223.5323 H   0  0  0  0  0  0  0  0  0  0  0  0
  141.6408   79.6539  223.1366 H   0  0  0  0  0  0  0  0  0  0  0  0
  142.0742   77.3353  222.3719 H   0  0  0  0  0  0  0  0  0  0  0  0
  140.2296   75.7498  222.0064 H   0  0  0  0  0  0  0  0  0  0  0  0
  1  2  1  0
  2  3  1  0
  2  4  1  0
  2  5  1  0
  5  6  1  0
  6  7  1  0
  7  8  1  0
  8  9  2  0
  8 10  1  0
 10 11  1  0
 11 12  1  0
 12 13  2  0
 12 14  1  0
 14 15  2  0
 15 16  1  0
 16 17  2  0
 17 18  1  0
 18 19  2  0
 19 20  1  0
 20 21  2  0
 21 22  1  0
 22 23  2  0
  6 24  1  0
 24 25  2  0
 25 26  1  0
 26 27  2  0
 27 28  1  0
 28 29  2  0
 23 14  1  0
 29 24  1  0
 22 17  1  0
  1 30  1  0
  1 31  1  0
  1 32  1  0
  3 33  1  0
  3 34  1  0
  3 35  1  0
  4 36  1  0
  4 37  1  0
  4 38  1  0
  5 39  1  0
  5 40  1  0
  6 41  1  6
  7 42  1  0
 10 43  1  0
 10 44  1  0
 11 45  1  0
 15 46  1  0
 16 47  1  0
 18 48  1  0
 19 49  1  0
 20 50  1  0
 21 51  1  0
 25 52  1  0
 26 53  1  0
 27 54  1  0
 28 55  1  0
 29 56  1  0
M  END
>  <meeko>  (3) 
{"free_energy": -7.85, "intermolecular_energy": -9.94, "internal_energy": -2.59, "cluster_size": 2, "cluster_id": 5, "rank_in_cluster": 1}

$$$$

     RDKit          3D

 56 58  0  0  0  0  0  0  0  0999 V2000
  141.7570   77.8230  220.4130 C   0  0  0  0  0  0  0  0  0  0  0  0
  140.8780   77.3340  221.5060 C   0  0  0  0  0  0  0  0  0  0  0  0
  139.4460   77.6550  221.1220 C   0  0  0  0  0  0  0  0  0  0  0  0
  141.1590   78.2110  222.7370 C   0  0  0  0  0  0  0  0  0  0  0  0
  141.0660   75.9340  221.9480 C   0  0  0  0  0  0  0  0  0  0  0  0
  141.1680   74.8870  220.9020 C   0  0  2  0  0  0  0  0  0  0  0  0
  140.3060   73.7810  221.3630 N   0  0  0  0  0  0  0  0  0  0  0  0
  138.9460   73.7880  220.9170 C   0  0  0  0  0  0  0  0  0  0  0  0
  138.4920   74.6880  220.1690 O   0  0  0  0  0  0  0  0  0  0  0  0
  137.9940   72.7100  221.3300 C   0  0  0  0  0  0  0  0  0  0  0  0
  138.3930   72.2940  222.6580 N   0  0  0  0  0  0  0  0  0  0  0  0
  139.4940   71.3960  222.8440 C   0  0  0  0  0  0  0  0  0  0  0  0
  140.0720   71.0060  221.7940 O   0  0  0  0  0  0  0  0  0  0  0  0
  139.9080   70.9690  224.1790 C   0  0  0  0  0  0  0  0  0  0  0  0
  140.6480   71.8630  224.9270 C   0  0  0  0  0  0  0  0  0  0  0  0
  141.0680   71.5210  226.1900 C   0  0  0  0  0  0  0  0  0  0  0  0
  140.7270   70.2700  226.6750 C   0  0  0  0  0  0  0  0  0  0  0  0
  141.1190   69.8580  227.9440 C   0  0  0  0  0  0  0  0  0  0  0  0
  140.8100   68.6370  228.4670 C   0  0  0  0  0  0  0  0  0  0  0  0
  140.0660   67.7650  227.6890 C   0  0  0  0  0  0  0  0  0  0  0  0
  139.6570   68.1460  226.4100 C   0  0  0  0  0  0  0  0  0  0  0  0
  139.9800   69.3790  225.9090 C   0  0  0  0  0  0  0  0  0  0  0  0
  139.5840   69.7570  224.6620 N   0  0  0  0  0  0  0  0  0  0  0  0
  142.4940   74.2850  220.7160 C   0  0  0  0  0  0  0  0  0  0  0  0
  143.6370   74.9910  220.3990 C   0  0  0  0  0  0  0  0  0  0  0  0
  144.8690   74.4000  220.2250 C   0  0  0  0  0  0  0  0  0  0  0  0
  145.0190   73.0450  220.3630 C   0  0  0  0  0  0  0  0  0  0  0  0
  143.9030   72.3070  220.6800 C   0  0  0  0  0  0  0  0  0  0  0  0
  142.6650   72.9020  220.8540 C   0  0  0  0  0  0  0  0  0  0  0  0
  142.6409   78.3147  220.8455 H   0  0  0  0  0  0  0  0  0  0  0  0
  142.0772   76.9733  219.7920 H   0  0  0  0  0  0  0  0  0  0  0  0
  141.2039   78.5431  219.7920 H   0  0  0  0  0  0  0  0  0  0  0  0
  138.8437   77.7900  222.0325 H   0  0  0  0  0  0  0  0  0  0  0  0
  139.4244   78.5803  220.5275 H   0  0  0  0  0  0  0  0  0  0  0  0
  139.0315   76.8275  220.5275 H   0  0  0  0  0  0  0  0  0  0  0  0
  140.9726   77.6293  223.6518 H   0  0  0  0  0  0  0  0  0  0  0  0
  142.2080   78.5415  222.7200 H   0  0  0  0  0  0  0  0  0  0  0  0
  140.4974   79.0896  222.7200 H   0  0  0  0  0  0  0  0  0  0  0  0
  141.9926   75.8982  222.5397 H   0  0  0  0  0  0  0  0  0  0  0  0
  140.1439   75.6899  222.4958 H   0  0  0  0  0  0  0  0  0  0  0  0
  140.9006   75.3712  219.9512 H   0  0  0  0  0  0  0  0  0  0  0  0
  140.6710   73.0280  221.9850 H   0  0  0  0  0  0  0  0  0  0  0  0
  136.9649   73.0981  221.3468 H   0  0  0  0  0  0  0  0  0  0  0  0
  138.0195   71.8660  220.6250 H   0  0  0  0  0  0  0  0  0  0  0  0
  137.9190   72.6130  223.5350 H   0  0  0  0  0  0  0  0  0  0  0  0
  140.9015   72.8496  224.5117 H   0  0  0  0  0  0  0  0  0  0  0  0
  141.6586   72.2216  226.7985 H   0  0  0  0  0  0  0  0  0  0  0  0
  141.7095   70.5536  228.5584 H   0  0  0  0  0  0  0  0  0  0  0  0
  141.1417   68.3530  229.4766 H   0  0  0  0  0  0  0  0  0  0  0  0
  139.7975   66.7722  228.0792 H   0  0  0  0  0  0  0  0  0  0  0  0
  139.0682   67.4476  225.7972 H   0  0  0  0  0  0  0  0  0  0  0  0
  143.5600   76.0817  220.2792 H   0  0  0  0  0  0  0  0  0  0  0  0
  145.7407   75.0217  219.9729 H   0  0  0  0  0  0  0  0  0  0  0  0
  145.9986   72.5641  220.2249 H   0  0  0  0  0  0  0  0  0  0  0  0
  143.9960   71.2173  220.7982 H   0  0  0  0  0  0  0  0  0  0  0  0
  141.7971   72.2749  221.1061 H   0  0  0  0  0  0  0  0  0  0  0  0
  1  2  1  0
  2  3  1  0
  2  4  1  0
  2  5  1  0
  5  6  1  0
  6  7  1  0
  7  8  1  0
  8  9  2  0
  8 10  1  0
 10 11  1  0
 11 12  1  0
 12 13  2  0
 12 14  1  0
 14 15  2  0
 15 16  1  0
 16 17  2  0
 17 18  1  0
 18 19  2  0
 19 20  1  0
 20 21  2  0
 21 22  1  0
 22 23  2  0
  6 24  1  0
 24 25  2  0
 25 26  1  0
 26 27  2  0
 27 28  1  0
 28 29  2  0
 23 14  1  0
 29 24  1  0
 22 17  1  0
  1 30  1  0
  1 31  1  0
  1 32  1  0
  3 33  1  0
  3 34  1  0
  3 35  1  0
  4 36  1  0
  4 37  1  0
  4 38  1  0
  5 39  1  0
  5 40  1  0
  6 41  1  6
  7 42  1  0
 10 43  1  0
 10 44  1  0
 11 45  1  0
 15 46  1  0
 16 47  1  0
 18 48  1  0
 19 49  1  0
 20 50  1  0
 21 51  1  0
 25 52  1  0
 26 53  1  0
 27 54  1  0
 28 55  1  0
 29 56  1  0
M  END
>  <meeko>  (4) 
{"free_energy": -7.97, "intermolecular_energy": -10.06, "internal_energy": -2.44, "cluster_size": 9, "cluster_id": 3, "rank_in_cluster": 7}

$$$$

     RDKit          3D

 56 58  0  0  0  0  0  0  0  0999 V2000
  134.8600   75.0840  221.9030 C   0  0  0  0  0  0  0  0  0  0  0  0
  135.5220   74.9770  223.2290 C   0  0  0  0  0  0  0  0  0  0  0  0
  135.8100   73.5100  223.4820 C   0  0  0  0  0  0  0  0  0  0  0  0
  134.4740   75.3590  224.2880 C   0  0  0  0  0  0  0  0  0  0  0  0
  136.6900   75.8540  223.4730 C   0  0  0  0  0  0  0  0  0  0  0  0
  137.5970   76.1280  222.3320 C   0  0  2  0  0  0  0  0  0  0  0  0
  138.2850   74.8510  222.0570 N   0  0  0  0  0  0  0  0  0  0  0  0
  138.1550   74.3130  220.7380 C   0  0  0  0  0  0  0  0  0  0  0  0
  137.4870   74.8890  219.8430 O   0  0  0  0  0  0  0  0  0  0  0  0
  138.8140   73.0240  220.3610 C   0  0  0  0  0  0  0  0  0  0  0  0
  138.8130   72.1980  221.5500 N   0  0  0  0  0  0  0  0  0  0  0  0
  139.8110   72.3710  222.5630 C   0  0  0  0  0  0  0  0  0  0  0  0
  140.6680   73.2710  222.3470 O   0  0  0  0  0  0  0  0  0  0  0  0
  139.8200   71.5440  223.7680 C   0  0  0  0  0  0  0  0  0  0  0  0
  139.1620   70.3320  223.7080 C   0  0  0  0  0  0  0  0  0  0  0  0
  139.1340   69.5080  224.8080 C   0  0  0  0  0  0  0  0  0  0  0  0
  139.7790   69.9330  225.9570 C   0  0  0  0  0  0  0  0  0  0  0  0
  139.7910   69.1510  227.1070 C   0  0  0  0  0  0  0  0  0  0  0  0
  140.4100   69.5230  228.2630 C   0  0  0  0  0  0  0  0  0  0  0  0
  141.0610   70.7460  228.2890 C   0  0  0  0  0  0  0  0  0  0  0  0
  141.0680   71.5560  227.1520 C   0  0  0  0  0  0  0  0  0  0  0  0
  140.4390   71.1580  226.0030 C   0  0  0  0  0  0  0  0  0  0  0  0
  140.4420   71.9440  224.8910 N   0  0  0  0  0  0  0  0  0  0  0  0
  138.6740   77.0960  222.5790 C   0  0  0  0  0  0  0  0  0  0  0  0
  138.4790   78.3840  223.0360 C   0  0  0  0  0  0  0  0  0  0  0  0
  139.5070   79.2730  223.2550 C   0  0  0  0  0  0  0  0  0  0  0  0
  140.8080   78.9090  223.0220 C   0  0  0  0  0  0  0  0  0  0  0  0
  141.0420   77.6330  222.5660 C   0  0  0  0  0  0  0  0  0  0  0  0
  140.0080   76.7390  222.3460 C   0  0  0  0  0  0  0  0  0  0  0  0
  133.7830   75.2581  222.0438 H   0  0  0  0  0  0  0  0  0  0  0  0
  135.2968   75.9232  221.3418 H   0  0  0  0  0  0  0  0  0  0  0  0
  135.0101   74.1499  221.3418 H   0  0  0  0  0  0  0  0  0  0  0  0
  135.8463   73.3251  224.5657 H   0  0  0  0  0  0  0  0  0  0  0  0
  135.0150   72.8973  223.0319 H   0  0  0  0  0  0  0  0  0  0  0  0
  136.7776   73.2434  223.0319 H   0  0  0  0  0  0  0  0  0  0  0  0
  134.8950   75.2055  225.2926 H   0  0  0  0  0  0  0  0  0  0  0  0
  134.1963   76.4162  224.1644 H   0  0  0  0  0  0  0  0  0  0  0  0
  133.5811   74.7285  224.1644 H   0  0  0  0  0  0  0  0  0  0  0  0
  136.3057   76.8220  223.8269 H   0  0  0  0  0  0  0  0  0  0  0  0
  137.3090   75.2985  224.1929 H   0  0  0  0  0  0  0  0  0  0  0  0
  136.9699   76.5450  221.5303 H   0  0  0  0  0  0  0  0  0  0  0  0
  138.8430   74.3630  222.7910 H   0  0  0  0  0  0  0  0  0  0  0  0
  138.2506   72.5307  219.5553 H   0  0  0  0  0  0  0  0  0  0  0  0
  139.8375   73.1929  219.9951 H   0  0  0  0  0  0  0  0  0  0  0  0
  138.1050   71.4500  221.7380 H   0  0  0  0  0  0  0  0  0  0  0  0
  138.6595   70.0252  222.7788 H   0  0  0  0  0  0  0  0  0  0  0  0
  138.6142   68.5391  224.7762 H   0  0  0  0  0  0  0  0  0  0  0  0
  139.2734   68.1807  227.0824 H   0  0  0  0  0  0  0  0  0  0  0  0
  140.3933   68.8716  229.1492 H   0  0  0  0  0  0  0  0  0  0  0  0
  141.5718   71.0783  229.2048 H   0  0  0  0  0  0  0  0  0  0  0  0
  141.5854   72.5263  227.1797 H   0  0  0  0  0  0  0  0  0  0  0  0
  137.4497   78.7169  223.2353 H   0  0  0  0  0  0  0  0  0  0  0  0
  139.2822   80.2858  223.6207 H   0  0  0  0  0  0  0  0  0  0  0  0
  141.6356   79.6129  223.1938 H   0  0  0  0  0  0  0  0  0  0  0  0
  142.0767   77.3146  222.3711 H   0  0  0  0  0  0  0  0  0  0  0  0
  140.2390   75.7275  221.9807 H   0  0  0  0  0  0  0  0  0  0  0  0
  1  2  1  0
  2  3  1  0
  2  4  1  0
  2  5  1  0
  5  6  1  0
  6  7  1  0
  7  8  1  0
  8  9  2  0
  8 10  1  0
 10 11  1  0
 11 12  1  0
 12 13  2  0
 12 14  1  0
 14 15  2  0
 15 16  1  0
 16 17  2  0
 17 18  1  0
 18 19  2  0
 19 20  1  0
 20 21  2  0
 21 22  1  0
 22 23  2  0
  6 24  1  0
 24 25  2  0
 25 26  1  0
 26 27  2  0
 27 28  1  0
 28 29  2  0
 23 14  1  0
 29 24  1  0
 22 17  1  0
  1 30  1  0
  1 31  1  0
  1 32  1  0
  3 33  1  0
  3 34  1  0
  3 35  1  0
  4 36  1  0
  4 37  1  0
  4 38  1  0
  5 39  1  0
  5 40  1  0
  6 41  1  6
  7 42  1  0
 10 43  1  0
 10 44  1  0
 11 45  1  0
 15 46  1  0
 16 47  1  0
 18 48  1  0
 19 49  1  0
 20 50  1  0
 21 51  1  0
 25 52  1  0
 26 53  1  0
 27 54  1  0
 28 55  1  0
 29 56  1  0
M  END
>  <meeko>  (5) 
{"free_energy": -7.83, "intermolecular_energy": -9.92, "internal_energy": -2.6, "cluster_size": 2, "cluster_id": 5, "rank_in_cluster": 2}

$$$$

     RDKit          3D

 56 58  0  0  0  0  0  0  0  0999 V2000
  141.4110   78.6740  221.1470 C   0  0  0  0  0  0  0  0  0  0  0  0
  140.8480   78.2200  222.4450 C   0  0  0  0  0  0  0  0  0  0  0  0
  139.5470   78.9660  222.6680 C   0  0  0  0  0  0  0  0  0  0  0  0
  141.7890   78.7320  223.5470 C   0  0  0  0  0  0  0  0  0  0  0  0
  140.7290   76.7590  222.6540 C   0  0  0  0  0  0  0  0  0  0  0  0
  140.4690   75.9100  221.4660 C   0  0  2  0  0  0  0  0  0  0  0  0
  139.5240   74.8710  221.9200 N   0  0  0  0  0  0  0  0  0  0  0  0
  138.7160   74.2460  220.9180 C   0  0  0  0  0  0  0  0  0  0  0  0
  138.7940   74.5570  219.7040 O   0  0  0  0  0  0  0  0  0  0  0  0
  137.7270   73.1820  221.2770 C   0  0  0  0  0  0  0  0  0  0  0  0
  138.1650   72.6220  222.5380 N   0  0  0  0  0  0  0  0  0  0  0  0
  139.2830   71.7300  222.5940 C   0  0  0  0  0  0  0  0  0  0  0  0
  139.8430   71.4740  221.4930 O   0  0  0  0  0  0  0  0  0  0  0  0
  139.7360   71.1580  223.8610 C   0  0  0  0  0  0  0  0  0  0  0  0
  140.6730   71.8750  224.5780 C   0  0  0  0  0  0  0  0  0  0  0  0
  141.1410   71.3910  225.7770 C   0  0  0  0  0  0  0  0  0  0  0  0
  140.6440   70.1810  226.2290 C   0  0  0  0  0  0  0  0  0  0  0  0
  141.0710   69.6320  227.4330 C   0  0  0  0  0  0  0  0  0  0  0  0
  140.6140   68.4440  227.9230 C   0  0  0  0  0  0  0  0  0  0  0  0
  139.6740   67.7510  227.1780 C   0  0  0  0  0  0  0  0  0  0  0  0
  139.2230   68.2730  225.9640 C   0  0  0  0  0  0  0  0  0  0  0  0
  139.6990   69.4690  225.4960 C   0  0  0  0  0  0  0  0  0  0  0  0
  139.2630   69.9830  224.3120 N   0  0  0  0  0  0  0  0  0  0  0  0
  141.6220   75.1710  220.9340 C   0  0  0  0  0  0  0  0  0  0  0  0
  142.6080   75.7230  220.1410 C   0  0  0  0  0  0  0  0  0  0  0  0
  143.6760   75.0050  219.6520 C   0  0  0  0  0  0  0  0  0  0  0  0
  143.8110   73.6710  219.9380 C   0  0  0  0  0  0  0  0  0  0  0  0
  142.8490   73.0850  220.7250 C   0  0  0  0  0  0  0  0  0  0  0  0
  141.7750   73.8080  221.2170 C   0  0  0  0  0  0  0  0  0  0  0  0
  142.2551   79.3547  221.3315 H   0  0  0  0  0  0  0  0  0  0  0  0
  141.7611   77.8025  220.5743 H   0  0  0  0  0  0  0  0  0  0  0  0
  140.6335   79.2008  220.5743 H   0  0  0  0  0  0  0  0  0  0  0  0
  139.3647   79.0705  223.7477 H   0  0  0  0  0  0  0  0  0  0  0  0
  139.6130   79.9635  222.2090 H   0  0  0  0  0  0  0  0  0  0  0  0
  138.7194   78.4052  222.2090 H   0  0  0  0  0  0  0  0  0  0  0  0
  141.3603   78.4987  224.5328 H   0  0  0  0  0  0  0  0  0  0  0  0
  142.7694   78.2429  223.4485 H   0  0  0  0  0  0  0  0  0  0  0  0
  141.9108   79.8208  223.4485 H   0  0  0  0  0  0  0  0  0  0  0  0
  141.6716   76.4140  223.1040 H   0  0  0  0  0  0  0  0  0  0  0  0
  139.8329   76.6406  223.2809 H   0  0  0  0  0  0  0  0  0  0  0  0
  140.1276   76.5872  220.6693 H   0  0  0  0  0  0  0  0  0  0  0  0
  139.4490   74.6040  222.9240 H   0  0  0  0  0  0  0  0  0  0  0  0
  136.7224   73.6172  221.3830 H   0  0  0  0  0  0  0  0  0  0  0  0
  137.6731   72.4093  220.4960 H   0  0  0  0  0  0  0  0  0  0  0  0
  137.7070   72.8290  223.4570 H   0  0  0  0  0  0  0  0  0  0  0  0
  141.0455   72.8344  224.1897 H   0  0  0  0  0  0  0  0  0  0  0  0
  141.8885   71.9492  226.3598 H   0  0  0  0  0  0  0  0  0  0  0  0
  141.8173   70.1854  228.0218 H   0  0  0  0  0  0  0  0  0  0  0  0
  140.9810   68.0479  228.8814 H   0  0  0  0  0  0  0  0  0  0  0  0
  139.2829   66.7897  227.5427 H   0  0  0  0  0  0  0  0  0  0  0  0
  138.4770   67.7174  225.3768 H   0  0  0  0  0  0  0  0  0  0  0  0
  142.5367   76.7909  219.8869 H   0  0  0  0  0  0  0  0  0  0  0  0
  144.4284   75.5066  219.0256 H   0  0  0  0  0  0  0  0  0  0  0  0
  144.6606   73.0895  219.5506 H   0  0  0  0  0  0  0  0  0  0  0  0
  142.9339   72.0160  220.9701 H   0  0  0  0  0  0  0  0  0  0  0  0
  141.0263   73.3009  221.8433 H   0  0  0  0  0  0  0  0  0  0  0  0
  1  2  1  0
  2  3  1  0
  2  4  1  0
  2  5  1  0
  5  6  1  0
  6  7  1  0
  7  8  1  0
  8  9  2  0
  8 10  1  0
 10 11  1  0
 11 12  1  0
 12 13  2  0
 12 14  1  0
 14 15  2  0
 15 16  1  0
 16 17  2  0
 17 18  1  0
 18 19  2  0
 19 20  1  0
 20 21  2  0
 21 22  1  0
 22 23  2  0
  6 24  1  0
 24 25  2  0
 25 26  1  0
 26 27  2  0
 27 28  1  0
 28 29  2  0
 23 14  1  0
 29 24  1  0
 22 17  1  0
  1 30  1  0
  1 31  1  0
  1 32  1  0
  3 33  1  0
  3 34  1  0
  3 35  1  0
  4 36  1  0
  4 37  1  0
  4 38  1  0
  5 39  1  0
  5 40  1  0
  6 41  1  6
  7 42  1  0
 10 43  1  0
 10 44  1  0
 11 45  1  0
 15 46  1  0
 16 47  1  0
 18 48  1  0
 19 49  1  0
 20 50  1  0
 21 51  1  0
 25 52  1  0
 26 53  1  0
 27 54  1  0
 28 55  1  0
 29 56  1  0
M  END
>  <meeko>  (6) 
{"free_energy": -8.49, "intermolecular_energy": -10.58, "internal_energy": -2.0, "cluster_size": 9, "cluster_id": 3, "rank_in_cluster": 3}

$$$$

     RDKit          3D

 56 58  0  0  0  0  0  0  0  0999 V2000
  141.4740   78.7200  221.2180 C   0  0  0  0  0  0  0  0  0  0  0  0
  140.8940   78.2390  222.5000 C   0  0  0  0  0  0  0  0  0  0  0  0
  139.5920   78.9840  222.7230 C   0  0  0  0  0  0  0  0  0  0  0  0
  141.8230   78.7260  223.6240 C   0  0  0  0  0  0  0  0  0  0  0  0
  140.7680   76.7750  222.6760 C   0  0  0  0  0  0  0  0  0  0  0  0
  140.4870   75.9560  221.4720 C   0  0  2  0  0  0  0  0  0  0  0  0
  139.4670   74.9740  221.8900 N   0  0  0  0  0  0  0  0  0  0  0  0
  138.8120   74.2360  220.8530 C   0  0  0  0  0  0  0  0  0  0  0  0
  139.0810   74.4060  219.6390 O   0  0  0  0  0  0  0  0  0  0  0  0
  137.7630   73.2190  221.1750 C   0  0  0  0  0  0  0  0  0  0  0  0
  138.1440   72.6190  222.4370 N   0  0  0  0  0  0  0  0  0  0  0  0
  139.0160   71.4830  222.4740 C   0  0  0  0  0  0  0  0  0  0  0  0
  139.4150   71.0550  221.3570 O   0  0  0  0  0  0  0  0  0  0  0  0
  139.4090   70.8690  223.7410 C   0  0  0  0  0  0  0  0  0  0  0  0
  139.2360   69.5040  223.8620 C   0  0  0  0  0  0  0  0  0  0  0  0
  139.5850   68.8670  225.0280 C   0  0  0  0  0  0  0  0  0  0  0  0
  140.1090   69.6310  226.0570 C   0  0  0  0  0  0  0  0  0  0  0  0
  140.4840   69.0520  227.2650 C   0  0  0  0  0  0  0  0  0  0  0  0
  141.0040   69.7590  228.3090 C   0  0  0  0  0  0  0  0  0  0  0  0
  141.1640   71.1260  228.1530 C   0  0  0  0  0  0  0  0  0  0  0  0
  140.7970   71.7400  226.9540 C   0  0  0  0  0  0  0  0  0  0  0  0
  140.2780   71.0060  225.9210 C   0  0  0  0  0  0  0  0  0  0  0  0
  139.9180   71.5990  224.7490 N   0  0  0  0  0  0  0  0  0  0  0  0
  141.6040   75.1510  220.9600 C   0  0  0  0  0  0  0  0  0  0  0  0
  141.7930   73.8110  221.2340 C   0  0  0  0  0  0  0  0  0  0  0  0
  142.8520   73.0800  220.7440 C   0  0  0  0  0  0  0  0  0  0  0  0
  143.7950   73.6680  219.9420 C   0  0  0  0  0  0  0  0  0  0  0  0
  143.6410   75.0020  219.6470 C   0  0  0  0  0  0  0  0  0  0  0  0
  142.5750   75.7360  220.1390 C   0  0  0  0  0  0  0  0  0  0  0  0
  142.3052   79.4094  221.4274 H   0  0  0  0  0  0  0  0  0  0  0  0
  141.8462   77.8619  220.6391 H   0  0  0  0  0  0  0  0  0  0  0  0
  140.6996   79.2446  220.6391 H   0  0  0  0  0  0  0  0  0  0  0  0
  139.4096   79.0884  223.8027 H   0  0  0  0  0  0  0  0  0  0  0  0
  139.6571   79.9815  222.2640 H   0  0  0  0  0  0  0  0  0  0  0  0
  138.7650   78.4224  222.2640 H   0  0  0  0  0  0  0  0  0  0  0  0
  141.3730   78.4901  224.5996 H   0  0  0  0  0  0  0  0  0  0  0  0
  142.7973   78.2227  223.5383 H   0  0  0  0  0  0  0  0  0  0  0  0
  141.9633   79.8136  223.5383 H   0  0  0  0  0  0  0  0  0  0  0  0
  141.7140   76.4134  223.1054 H   0  0  0  0  0  0  0  0  0  0  0  0
  139.8793   76.6476  223.3116 H   0  0  0  0  0  0  0  0  0  0  0  0
  140.2105   76.6618  220.6749 H   0  0  0  0  0  0  0  0  0  0  0  0
  139.2340   74.8240  222.8950 H   0  0  0  0  0  0  0  0  0  0  0  0
  136.7797   73.7035  221.2663 H   0  0  0  0  0  0  0  0  0  0  0  0
  137.6876   72.4610  220.3814 H   0  0  0  0  0  0  0  0  0  0  0  0
  137.8190   72.9680  223.3680 H   0  0  0  0  0  0  0  0  0  0  0  0
  138.8184   68.9265  223.0240 H   0  0  0  0  0  0  0  0  0  0  0  0
  139.4520   67.7809  225.1409 H   0  0  0  0  0  0  0  0  0  0  0  0
  140.3542   67.9662  227.3846 H   0  0  0  0  0  0  0  0  0  0  0  0
  141.2878   69.2587  229.2466 H   0  0  0  0  0  0  0  0  0  0  0  0
  141.5804   71.7281  228.9741 H   0  0  0  0  0  0  0  0  0  0  0  0
  140.9263   72.8262  226.8378 H   0  0  0  0  0  0  0  0  0  0  0  0
  141.0600   73.3013  221.8766 H   0  0  0  0  0  0  0  0  0  0  0  0
  142.9420   72.0137  220.9988 H   0  0  0  0  0  0  0  0  0  0  0  0
  144.6456   73.0926  219.5479 H   0  0  0  0  0  0  0  0  0  0  0  0
  144.3830   75.4984  219.0043 H   0  0  0  0  0  0  0  0  0  0  0  0
  142.4894   76.8014  219.8791 H   0  0  0  0  0  0  0  0  0  0  0  0
  1  2  1  0
  2  3  1  0
  2  4  1  0
  2  5  1  0
  5  6  1  0
  6  7  1  0
  7  8  1  0
  8  9  2  0
  8 10  1  0
 10 11  1  0
 11 12  1  0
 12 13  2  0
 12 14  1  0
 14 15  2  0
 15 16  1  0
 16 17  2  0
 17 18  1  0
 18 19  2  0
 19 20  1  0
 20 21  2  0
 21 22  1  0
 22 23  2  0
  6 24  1  0
 24 25  2  0
 25 26  1  0
 26 27  2  0
 27 28  1  0
 28 29  2  0
 23 14  1  0
 29 24  1  0
 22 17  1  0
  1 30  1  0
  1 31  1  0
  1 32  1  0
  3 33  1  0
  3 34  1  0
  3 35  1  0
  4 36  1  0
  4 37  1  0
  4 38  1  0
  5 39  1  0
  5 40  1  0
  6 41  1  6
  7 42  1  0
 10 43  1  0
 10 44  1  0
 11 45  1  0
 15 46  1  0
 16 47  1  0
 18 48  1  0
 19 49  1  0
 20 50  1  0
 21 51  1  0
 25 52  1  0
 26 53  1  0
 27 54  1  0
 28 55  1  0
 29 56  1  0
M  END
>  <meeko>  (7) 
{"free_energy": -8.53, "intermolecular_energy": -10.61, "internal_energy": -1.89, "cluster_size": 9, "cluster_id": 3, "rank_in_cluster": 1}

$$$$

     RDKit          3D

 56 58  0  0  0  0  0  0  0  0999 V2000
  143.3060   76.6320  219.2780 C   0  0  0  0  0  0  0  0  0  0  0  0
  142.1500   77.2640  218.5900 C   0  0  0  0  0  0  0  0  0  0  0  0
  141.9570   76.5490  217.2670 C   0  0  0  0  0  0  0  0  0  0  0  0
  142.5780   78.6900  218.2070 C   0  0  0  0  0  0  0  0  0  0  0  0
  140.8980   77.4060  219.3670 C   0  0  0  0  0  0  0  0  0  0  0  0
  140.8860   76.8900  220.7580 C   0  0  2  0  0  0  0  0  0  0  0  0
  139.7580   75.9400  220.8170 N   0  0  0  0  0  0  0  0  0  0  0  0
  139.9920   74.6940  221.4810 C   0  0  0  0  0  0  0  0  0  0  0  0
  141.1010   74.4070  221.9940 O   0  0  0  0  0  0  0  0  0  0  0  0
  138.9120   73.6650  221.5940 C   0  0  0  0  0  0  0  0  0  0  0  0
  139.2600   72.8240  222.7200 N   0  0  0  0  0  0  0  0  0  0  0  0
  138.7010   71.5120  222.8540 C   0  0  0  0  0  0  0  0  0  0  0  0
  137.9050   71.1540  221.9440 O   0  0  0  0  0  0  0  0  0  0  0  0
  139.0450   70.6530  223.9860 C   0  0  0  0  0  0  0  0  0  0  0  0
  138.6390   69.3340  223.9230 C   0  0  0  0  0  0  0  0  0  0  0  0
  138.9300   68.4750  224.9560 C   0  0  0  0  0  0  0  0  0  0  0  0
  139.6340   68.9720  226.0390 C   0  0  0  0  0  0  0  0  0  0  0  0
  139.9640   68.1590  227.1180 C   0  0  0  0  0  0  0  0  0  0  0  0
  140.6550   68.5990  228.2080 C   0  0  0  0  0  0  0  0  0  0  0  0
  141.0470   69.9280  228.2380 C   0  0  0  0  0  0  0  0  0  0  0  0
  140.7320   70.7720  227.1710 C   0  0  0  0  0  0  0  0  0  0  0  0
  140.0380   70.3030  226.0880 C   0  0  0  0  0  0  0  0  0  0  0  0
  139.7280   71.1220  225.0440 N   0  0  0  0  0  0  0  0  0  0  0  0
  140.6110   77.8750  221.8120 C   0  0  0  0  0  0  0  0  0  0  0  0
  139.3710   78.0880  222.3800 C   0  0  0  0  0  0  0  0  0  0  0  0
  139.1400   79.0230  223.3650 C   0  0  0  0  0  0  0  0  0  0  0  0
  140.1610   79.8060  223.8380 C   0  0  0  0  0  0  0  0  0  0  0  0
  141.4110   79.6220  223.2970 C   0  0  0  0  0  0  0  0  0  0  0  0
  141.6430   78.6820  222.3070 C   0  0  0  0  0  0  0  0  0  0  0  0
  143.1700   76.7064  220.3670 H   0  0  0  0  0  0  0  0  0  0  0  0
  143.3710   75.5729  218.9881 H   0  0  0  0  0  0  0  0  0  0  0  0
  144.2326   77.1490  218.9881 H   0  0  0  0  0  0  0  0  0  0  0  0
  141.6745   75.5024  217.4536 H   0  0  0  0  0  0  0  0  0  0  0  0
  141.1611   77.0470  216.6938 H   0  0  0  0  0  0  0  0  0  0  0  0
  142.8954   76.5789  216.6938 H   0  0  0  0  0  0  0  0  0  0  0  0
  142.7544   79.2776  219.1200 H   0  0  0  0  0  0  0  0  0  0  0  0
  143.5032   78.6482  217.6135 H   0  0  0  0  0  0  0  0  0  0  0  0
  141.7827   79.1646  217.6135 H   0  0  0  0  0  0  0  0  0  0  0  0
  140.6599   78.4790  219.4128 H   0  0  0  0  0  0  0  0  0  0  0  0
  140.1674   76.7808  218.8328 H   0  0  0  0  0  0  0  0  0  0  0  0
  141.8926   76.4901  220.9499 H   0  0  0  0  0  0  0  0  0  0  0  0
  138.8310   76.1660  220.3960 H   0  0  0  0  0  0  0  0  0  0  0  0
  137.9409   74.1512  221.7689 H   0  0  0  0  0  0  0  0  0  0  0  0
  138.8266   73.0755  220.6692 H   0  0  0  0  0  0  0  0  0  0  0  0
  139.9200   73.1120  223.4790 H   0  0  0  0  0  0  0  0  0  0  0  0
  138.0828   68.9711  223.0461 H   0  0  0  0  0  0  0  0  0  0  0  0
  138.6123   67.4224  224.9228 H   0  0  0  0  0  0  0  0  0  0  0  0
  139.6509   67.1049  227.0906 H   0  0  0  0  0  0  0  0  0  0  0  0
  140.8943   67.9192  229.0390 H   0  0  0  0  0  0  0  0  0  0  0  0
  141.6058   70.3177  229.1016 H   0  0  0  0  0  0  0  0  0  0  0  0
  141.0451   71.8261  227.2010 H   0  0  0  0  0  0  0  0  0  0  0  0
  138.5243   77.4802  222.0282 H   0  0  0  0  0  0  0  0  0  0  0  0
  138.1266   79.1424  223.7759 H   0  0  0  0  0  0  0  0  0  0  0  0
  139.9859   80.5558  224.6236 H   0  0  0  0  0  0  0  0  0  0  0  0
  142.2480   80.2368  223.6595 H   0  0  0  0  0  0  0  0  0  0  0  0
  142.6588   78.5668  221.9010 H   0  0  0  0  0  0  0  0  0  0  0  0
  1  2  1  0
  2  3  1  0
  2  4  1  0
  2  5  1  0
  5  6  1  0
  6  7  1  0
  7  8  1  0
  8  9  2  0
  8 10  1  0
 10 11  1  0
 11 12  1  0
 12 13  2  0
 12 14  1  0
 14 15  2  0
 15 16  1  0
 16 17  2  0
 17 18  1  0
 18 19  2  0
 19 20  1  0
 20 21  2  0
 21 22  1  0
 22 23  2  0
  6 24  1  0
 24 25  2  0
 25 26  1  0
 26 27  2  0
 27 28  1  0
 28 29  2  0
 23 14  1  0
 29 24  1  0
 22 17  1  0
  1 30  1  0
  1 31  1  0
  1 32  1  0
  3 33  1  0
  3 34  1  0
  3 35  1  0
  4 36  1  0
  4 37  1  0
  4 38  1  0
  5 39  1  0
  5 40  1  0
  6 41  1  1
  7 42  1  0
 10 43  1  0
 10 44  1  0
 11 45  1  0
 15 46  1  0
 16 47  1  0
 18 48  1  0
 19 49  1  0
 20 50  1  0
 21 51  1  0
 25 52  1  0
 26 53  1  0
 27 54  1  0
 28 55  1  0
 29 56  1  0
M  END
>  <meeko>  (8) 
{"free_energy": -8.21, "intermolecular_energy": -10.3, "internal_energy": -2.18, "cluster_size": 4, "cluster_id": 4, "rank_in_cluster": 1}

$$$$

     RDKit          3D

 56 58  0  0  0  0  0  0  0  0999 V2000
  139.0220   78.6200  222.9920 C   0  0  0  0  0  0  0  0  0  0  0  0
  140.1580   77.9300  222.3270 C   0  0  0  0  0  0  0  0  0  0  0  0
  141.4330   78.6400  222.7430 C   0  0  0  0  0  0  0  0  0  0  0  0
  140.0310   78.2040  220.8190 C   0  0  0  0  0  0  0  0  0  0  0  0
  140.2330   76.4590  222.4720 C   0  0  0  0  0  0  0  0  0  0  0  0
  140.2530   75.6430  221.2340 C   0  0  2  0  0  0  0  0  0  0  0  0
  139.5120   74.4090  221.5610 N   0  0  0  0  0  0  0  0  0  0  0  0
  138.1500   74.3350  221.1280 C   0  0  0  0  0  0  0  0  0  0  0  0
  137.5960   75.2700  220.4990 O   0  0  0  0  0  0  0  0  0  0  0  0
  137.3150   73.1270  221.4120 C   0  0  0  0  0  0  0  0  0  0  0  0
  137.8160   72.5590  222.6460 N   0  0  0  0  0  0  0  0  0  0  0  0
  138.9960   71.7480  222.6520 C   0  0  0  0  0  0  0  0  0  0  0  0
  139.5500   71.5680  221.5340 O   0  0  0  0  0  0  0  0  0  0  0  0
  139.5130   71.1700  223.8910 C   0  0  0  0  0  0  0  0  0  0  0  0
  140.5070   71.8690  224.5470 C   0  0  0  0  0  0  0  0  0  0  0  0
  141.0360   71.3780  225.7170 C   0  0  0  0  0  0  0  0  0  0  0  0
  140.5430   70.1800  226.2040 C   0  0  0  0  0  0  0  0  0  0  0  0
  141.0310   69.6260  227.3820 C   0  0  0  0  0  0  0  0  0  0  0  0
  140.5800   68.4500  227.9040 C   0  0  0  0  0  0  0  0  0  0  0  0
  139.5810   67.7740  227.2200 C   0  0  0  0  0  0  0  0  0  0  0  0
  139.0690   68.3020  226.0340 C   0  0  0  0  0  0  0  0  0  0  0  0
  139.5400   69.4870  225.5330 C   0  0  0  0  0  0  0  0  0  0  0  0
  139.0440   70.0070  224.3760 N   0  0  0  0  0  0  0  0  0  0  0  0
  141.5740   75.1860  220.7810 C   0  0  0  0  0  0  0  0  0  0  0  0
  142.0590   73.9040  220.9500 C   0  0  0  0  0  0  0  0  0  0  0  0
  143.3040   73.5030  220.5190 C   0  0  0  0  0  0  0  0  0  0  0  0
  144.1420   74.3850  219.8860 C   0  0  0  0  0  0  0  0  0  0  0  0
  143.6930   75.6710  219.7000 C   0  0  0  0  0  0  0  0  0  0  0  0
  142.4420   76.0740  220.1330 C   0  0  0  0  0  0  0  0  0  0  0  0
  139.1384   78.5493  224.0835 H   0  0  0  0  0  0  0  0  0  0  0  0
  139.0097   79.6783  222.6923 H   0  0  0  0  0  0  0  0  0  0  0  0
  138.0772   78.1430  222.6923 H   0  0  0  0  0  0  0  0  0  0  0  0
  141.4927   78.6732  223.8409 H   0  0  0  0  0  0  0  0  0  0  0  0
  142.3022   78.0960  222.3448 H   0  0  0  0  0  0  0  0  0  0  0  0
  141.4283   79.6654  222.3448 H   0  0  0  0  0  0  0  0  0  0  0  0
  139.5731   79.1919  220.6631 H   0  0  0  0  0  0  0  0  0  0  0  0
  141.0294   78.1857  220.3576 H   0  0  0  0  0  0  0  0  0  0  0  0
  139.3997   77.4303  220.3576 H   0  0  0  0  0  0  0  0  0  0  0  0
  141.1528   76.2307  223.0305 H   0  0  0  0  0  0  0  0  0  0  0  0
  139.2934   76.1814  222.9720 H   0  0  0  0  0  0  0  0  0  0  0  0
  139.8438   76.2797  220.4358 H   0  0  0  0  0  0  0  0  0  0  0  0
  139.9610   73.6250  222.0830 H   0  0  0  0  0  0  0  0  0  0  0  0
  136.2593   73.4138  221.5272 H   0  0  0  0  0  0  0  0  0  0  0  0
  137.3746   72.4008  220.5880 H   0  0  0  0  0  0  0  0  0  0  0  0
  137.3630   72.7040  223.5780 H   0  0  0  0  0  0  0  0  0  0  0  0
  140.8757   72.8192  224.1331 H   0  0  0  0  0  0  0  0  0  0  0  0
  141.8289   71.9220  226.2512 H   0  0  0  0  0  0  0  0  0  0  0  0
  141.8234   70.1653  227.9218 H   0  0  0  0  0  0  0  0  0  0  0  0
  140.9963   68.0493  228.8400 H   0  0  0  0  0  0  0  0  0  0  0  0
  139.1924   66.8224  227.6119 H   0  0  0  0  0  0  0  0  0  0  0  0
  138.2778   67.7603  225.4950 H   0  0  0  0  0  0  0  0  0  0  0  0
  141.4183   73.1657  221.4545 H   0  0  0  0  0  0  0  0  0  0  0  0
  143.6294   72.4653  220.6840 H   0  0  0  0  0  0  0  0  0  0  0  0
  145.1386   74.0743  219.5392 H   0  0  0  0  0  0  0  0  0  0  0  0
  144.3449   76.3983  219.1940 H   0  0  0  0  0  0  0  0  0  0  0  0
  142.1227   77.1131  219.9648 H   0  0  0  0  0  0  0  0  0  0  0  0
  1  2  1  0
  2  3  1  0
  2  4  1  0
  2  5  1  0
  5  6  1  0
  6  7  1  0
  7  8  1  0
  8  9  2  0
  8 10  1  0
 10 11  1  0
 11 12  1  0
 12 13  2  0
 12 14  1  0
 14 15  2  0
 15 16  1  0
 16 17  2  0
 17 18  1  0
 18 19  2  0
 19 20  1  0
 20 21  2  0
 21 22  1  0
 22 23  2  0
  6 24  1  0
 24 25  2  0
 25 26  1  0
 26 27  2  0
 27 28  1  0
 28 29  2  0
 23 14  1  0
 29 24  1  0
 22 17  1  0
  1 30  1  0
  1 31  1  0
  1 32  1  0
  3 33  1  0
  3 34  1  0
  3 35  1  0
  4 36  1  0
  4 37  1  0
  4 38  1  0
  5 39  1  0
  5 40  1  0
  6 41  1  6
  7 42  1  0
 10 43  1  0
 10 44  1  0
 11 45  1  0
 15 46  1  0
 16 47  1  0
 18 48  1  0
 19 49  1  0
 20 50  1  0
 21 51  1  0
 25 52  1  0
 26 53  1  0
 27 54  1  0
 28 55  1  0
 29 56  1  0
M  END
>  <meeko>  (9) 
{"free_energy": -7.71, "intermolecular_energy": -9.8, "internal_energy": -2.46, "cluster_size": 9, "cluster_id": 3, "rank_in_cluster": 9}

$$$$

     RDKit          3D

 56 58  0  0  0  0  0  0  0  0999 V2000
  142.1420   76.6220  217.1960 C   0  0  0  0  0  0  0  0  0  0  0  0
  142.0840   77.3440  218.4940 C   0  0  0  0  0  0  0  0  0  0  0  0
  142.5830   78.7560  218.2560 C   0  0  0  0  0  0  0  0  0  0  0  0
  143.1390   76.7050  219.4120 C   0  0  0  0  0  0  0  0  0  0  0  0
  140.8060   77.2910  219.2380 C   0  0  0  0  0  0  0  0  0  0  0  0
  140.8260   76.7160  220.6050 C   0  0  2  0  0  0  0  0  0  0  0  0
  139.7740   75.6800  220.6140 N   0  0  0  0  0  0  0  0  0  0  0  0
  139.9810   74.5510  221.4680 C   0  0  0  0  0  0  0  0  0  0  0  0
  141.0070   74.4310  222.1830 O   0  0  0  0  0  0  0  0  0  0  0  0
  138.9740   73.4480  221.5470 C   0  0  0  0  0  0  0  0  0  0  0  0
  139.3170   72.6590  222.7120 N   0  0  0  0  0  0  0  0  0  0  0  0
  138.8770   71.3010  222.8320 C   0  0  0  0  0  0  0  0  0  0  0  0
  138.1860   70.8570  221.8750 O   0  0  0  0  0  0  0  0  0  0  0  0
  139.2170   70.4940  224.0020 C   0  0  0  0  0  0  0  0  0  0  0  0
  138.8660   69.1580  223.9710 C   0  0  0  0  0  0  0  0  0  0  0  0
  139.1580   68.3450  225.0410 C   0  0  0  0  0  0  0  0  0  0  0  0
  139.8050   68.9060  226.1280 C   0  0  0  0  0  0  0  0  0  0  0  0
  140.1310   68.1420  227.2440 C   0  0  0  0  0  0  0  0  0  0  0  0
  140.7670   68.6450  228.3400 C   0  0  0  0  0  0  0  0  0  0  0  0
  141.1050   69.9890  228.3380 C   0  0  0  0  0  0  0  0  0  0  0  0
  140.7920   70.7850  227.2340 C   0  0  0  0  0  0  0  0  0  0  0  0
  140.1530   70.2530  226.1450 C   0  0  0  0  0  0  0  0  0  0  0  0
  139.8450   71.0250  225.0660 N   0  0  0  0  0  0  0  0  0  0  0  0
  140.4690   77.6300  221.6980 C   0  0  0  0  0  0  0  0  0  0  0  0
  139.1770   77.9300  222.0780 C   0  0  0  0  0  0  0  0  0  0  0  0
  138.8710   78.7950  223.1050 C   0  0  0  0  0  0  0  0  0  0  0  0
  139.8650   79.4160  223.8150 C   0  0  0  0  0  0  0  0  0  0  0  0
  141.1660   79.1410  223.4670 C   0  0  0  0  0  0  0  0  0  0  0  0
  141.4740   78.2710  222.4350 C   0  0  0  0  0  0  0  0  0  0  0  0
  142.2288   75.5412  217.3812 H   0  0  0  0  0  0  0  0  0  0  0  0
  141.2248   76.8233  216.6231 H   0  0  0  0  0  0  0  0  0  0  0  0
  143.0153   76.9672  216.6231 H   0  0  0  0  0  0  0  0  0  0  0  0
  142.7579   79.2509  219.2227 H   0  0  0  0  0  0  0  0  0  0  0  0
  143.5234   78.7214  217.6863 H   0  0  0  0  0  0  0  0  0  0  0  0
  141.8297   79.3200  217.6863 H   0  0  0  0  0  0  0  0  0  0  0  0
  142.8610   76.8734  220.4629 H   0  0  0  0  0  0  0  0  0  0  0  0
  143.1901   75.6240  219.2149 H   0  0  0  0  0  0  0  0  0  0  0  0
  144.1207   77.1604  219.2149 H   0  0  0  0  0  0  0  0  0  0  0  0
  140.4315   78.3219  219.3210 H   0  0  0  0  0  0  0  0  0  0  0  0
  140.1749   76.6027  218.6567 H   0  0  0  0  0  0  0  0  0  0  0  0
  141.8596   76.3872  220.7879 H   0  0  0  0  0  0  0  0  0  0  0  0
  138.9180   75.7670  220.0250 H   0  0  0  0  0  0  0  0  0  0  0  0
  137.9618   73.8649  221.6552 H   0  0  0  0  0  0  0  0  0  0  0  0
  138.9848   72.8341  220.6343 H   0  0  0  0  0  0  0  0  0  0  0  0
  139.8900   73.0190  223.5100 H   0  0  0  0  0  0  0  0  0  0  0  0
  138.3529   68.7446  223.0902 H   0  0  0  0  0  0  0  0  0  0  0  0
  138.8851   67.2794  225.0330 H   0  0  0  0  0  0  0  0  0  0  0  0
  139.8613   67.0756  227.2420 H   0  0  0  0  0  0  0  0  0  0  0  0
  141.0049   68.0028  229.2008 H   0  0  0  0  0  0  0  0  0  0  0  0
  141.6194   70.4285  229.2053 H   0  0  0  0  0  0  0  0  0  0  0  0
  141.0616   71.8514  227.2388 H   0  0  0  0  0  0  0  0  0  0  0  0
  138.3488   77.4538  221.5327 H   0  0  0  0  0  0  0  0  0  0  0  0
  137.8182   78.9893  223.3579 H   0  0  0  0  0  0  0  0  0  0  0  0
  139.6299   80.1105  224.6350 H   0  0  0  0  0  0  0  0  0  0  0  0
  141.9831   79.6244  224.0225 H   0  0  0  0  0  0  0  0  0  0  0  0
  142.5287   78.0790  222.1886 H   0  0  0  0  0  0  0  0  0  0  0  0
  1  2  1  0
  2  3  1  0
  2  4  1  0
  2  5  1  0
  5  6  1  0
  6  7  1  0
  7  8  1  0
  8  9  2  0
  8 10  1  0
 10 11  1  0
 11 12  1  0
 12 13  2  0
 12 14  1  0
 14 15  2  0
 15 16  1  0
 16 17  2  0
 17 18  1  0
 18 19  2  0
 19 20  1  0
 20 21  2  0
 21 22  1  0
 22 23  2  0
  6 24  1  0
 24 25  2  0
 25 26  1  0
 26 27  2  0
 27 28  1  0
 28 29  2  0
 23 14  1  0
 29 24  1  0
 22 17  1  0
  1 30  1  0
  1 31  1  0
  1 32  1  0
  3 33  1  0
  3 34  1  0
  3 35  1  0
  4 36  1  0
  4 37  1  0
  4 38  1  0
  5 39  1  0
  5 40  1  0
  6 41  1  1
  7 42  1  0
 10 43  1  0
 10 44  1  0
 11 45  1  0
 15 46  1  0
 16 47  1  0
 18 48  1  0
 19 49  1  0
 20 50  1  0
 21 51  1  0
 25 52  1  0
 26 53  1  0
 27 54  1  0
 28 55  1  0
 29 56  1  0
M  END
>  <meeko>  (10) 
{"free_energy": -8.12, "intermolecular_energy": -10.21, "internal_energy": -2.28, "cluster_size": 4, "cluster_id": 4, "rank_in_cluster": 3}

$$$$

     RDKit          3D

 56 58  0  0  0  0  0  0  0  0999 V2000
  143.3230   76.6790  219.2460 C   0  0  0  0  0  0  0  0  0  0  0  0
  142.1600   77.3030  218.5630 C   0  0  0  0  0  0  0  0  0  0  0  0
  142.0670   76.7040  217.1730 C   0  0  0  0  0  0  0  0  0  0  0  0
  142.5140   78.7810  218.3300 C   0  0  0  0  0  0  0  0  0  0  0  0
  140.8700   77.3000  219.2890 C   0  0  0  0  0  0  0  0  0  0  0  0
  140.8520   76.7410  220.6640 C   0  0  2  0  0  0  0  0  0  0  0  0
  139.8000   75.7060  220.6570 N   0  0  0  0  0  0  0  0  0  0  0  0
  140.0000   74.5720  221.5060 C   0  0  0  0  0  0  0  0  0  0  0  0
  141.0190   74.4470  222.2270 O   0  0  0  0  0  0  0  0  0  0  0  0
  138.9910   73.4690  221.5700 C   0  0  0  0  0  0  0  0  0  0  0  0
  139.3270   72.6690  222.7280 N   0  0  0  0  0  0  0  0  0  0  0  0
  138.8720   71.3160  222.8410 C   0  0  0  0  0  0  0  0  0  0  0  0
  138.1730   70.8850  221.8830 O   0  0  0  0  0  0  0  0  0  0  0  0
  139.2050   70.4970  224.0050 C   0  0  0  0  0  0  0  0  0  0  0  0
  138.8550   69.1620  223.9600 C   0  0  0  0  0  0  0  0  0  0  0  0
  139.1400   68.3390  225.0230 C   0  0  0  0  0  0  0  0  0  0  0  0
  139.7820   68.8880  226.1190 C   0  0  0  0  0  0  0  0  0  0  0  0
  140.1020   68.1140  227.2300 C   0  0  0  0  0  0  0  0  0  0  0  0
  140.7320   68.6070  228.3340 C   0  0  0  0  0  0  0  0  0  0  0  0
  141.0700   69.9500  228.3460 C   0  0  0  0  0  0  0  0  0  0  0  0
  140.7630   70.7570  227.2480 C   0  0  0  0  0  0  0  0  0  0  0  0
  140.1300   70.2360  226.1510 C   0  0  0  0  0  0  0  0  0  0  0  0
  139.8280   71.0180  225.0770 N   0  0  0  0  0  0  0  0  0  0  0  0
  140.4680   77.6700  221.7350 C   0  0  0  0  0  0  0  0  0  0  0  0
  139.1660   77.9920  222.0620 C   0  0  0  0  0  0  0  0  0  0  0  0
  138.8330   78.8700  223.0690 C   0  0  0  0  0  0  0  0  0  0  0  0
  139.8080   79.4820  223.8130 C   0  0  0  0  0  0  0  0  0  0  0  0
  141.1180   79.1860  223.5170 C   0  0  0  0  0  0  0  0  0  0  0  0
  141.4520   78.3030  222.5040 C   0  0  0  0  0  0  0  0  0  0  0  0
  143.1899   76.7504  220.3356 H   0  0  0  0  0  0  0  0  0  0  0  0
  143.3953   75.6209  218.9540 H   0  0  0  0  0  0  0  0  0  0  0  0
  144.2446   77.2038  218.9540 H   0  0  0  0  0  0  0  0  0  0  0  0
  141.8987   75.6198  217.2515 H   0  0  0  0  0  0  0  0  0  0  0  0
  141.2299   77.1666  216.6296 H   0  0  0  0  0  0  0  0  0  0  0  0
  143.0049   76.8911  216.6296 H   0  0  0  0  0  0  0  0  0  0  0  0
  142.6350   79.2863  219.2996 H   0  0  0  0  0  0  0  0  0  0  0  0
  143.4536   78.8478  217.7619 H   0  0  0  0  0  0  0  0  0  0  0  0
  141.7067   79.2662  217.7619 H   0  0  0  0  0  0  0  0  0  0  0  0
  140.5276   78.3433  219.3543 H   0  0  0  0  0  0  0  0  0  0  0  0
  140.2255   76.6251  218.7067 H   0  0  0  0  0  0  0  0  0  0  0  0
  141.8794   76.4124  220.8796 H   0  0  0  0  0  0  0  0  0  0  0  0
  138.9480   75.7980  220.0630 H   0  0  0  0  0  0  0  0  0  0  0  0
  137.9788   73.8861  221.6774 H   0  0  0  0  0  0  0  0  0  0  0  0
  139.0056   72.8638  220.6516 H   0  0  0  0  0  0  0  0  0  0  0  0
  139.9070   73.0170  223.5270 H   0  0  0  0  0  0  0  0  0  0  0  0
  138.3474   68.7568  223.0722 H   0  0  0  0  0  0  0  0  0  0  0  0
  138.8656   67.2740  225.0032 H   0  0  0  0  0  0  0  0  0  0  0  0
  139.8324   67.0476  227.2169 H   0  0  0  0  0  0  0  0  0  0  0  0
  140.9650   67.9570  229.1903 H   0  0  0  0  0  0  0  0  0  0  0  0
  141.5801   70.3811  229.2200 H   0  0  0  0  0  0  0  0  0  0  0  0
  141.0328   71.8233  227.2646 H   0  0  0  0  0  0  0  0  0  0  0  0
  138.3528   77.5230  221.4886 H   0  0  0  0  0  0  0  0  0  0  0  0
  137.7742   79.0824  223.2784 H   0  0  0  0  0  0  0  0  0  0  0  0
  139.5516   80.1855  224.6188 H   0  0  0  0  0  0  0  0  0  0  0  0
  141.9204   79.6625  224.0994 H   0  0  0  0  0  0  0  0  0  0  0  0
  142.5125   78.0945  222.2992 H   0  0  0  0  0  0  0  0  0  0  0  0
  1  2  1  0
  2  3  1  0
  2  4  1  0
  2  5  1  0
  5  6  1  0
  6  7  1  0
  7  8  1  0
  8  9  2  0
  8 10  1  0
 10 11  1  0
 11 12  1  0
 12 13  2  0
 12 14  1  0
 14 15  2  0
 15 16  1  0
 16 17  2  0
 17 18  1  0
 18 19  2  0
 19 20  1  0
 20 21  2  0
 21 22  1  0
 22 23  2  0
  6 24  1  0
 24 25  2  0
 25 26  1  0
 26 27  2  0
 27 28  1  0
 28 29  2  0
 23 14  1  0
 29 24  1  0
 22 17  1  0
  1 30  1  0
  1 31  1  0
  1 32  1  0
  3 33  1  0
  3 34  1  0
  3 35  1  0
  4 36  1  0
  4 37  1  0
  4 38  1  0
  5 39  1  0
  5 40  1  0
  6 41  1  1
  7 42  1  0
 10 43  1  0
 10 44  1  0
 11 45  1  0
 15 46  1  0
 16 47  1  0
 18 48  1  0
 19 49  1  0
 20 50  1  0
 21 51  1  0
 25 52  1  0
 26 53  1  0
 27 54  1  0
 28 55  1  0
 29 56  1  0
M  END
>  <meeko>  (11) 
{"free_energy": -8.12, "intermolecular_energy": -10.21, "internal_energy": -2.27, "cluster_size": 4, "cluster_id": 4, "rank_in_cluster": 4}

$$$$

     RDKit          3D

 56 58  0  0  0  0  0  0  0  0999 V2000
  141.3730   78.7060  221.1850 C   0  0  0  0  0  0  0  0  0  0  0  0
  140.8180   78.2380  222.4820 C   0  0  0  0  0  0  0  0  0  0  0  0
  139.5050   78.9630  222.7080 C   0  0  0  0  0  0  0  0  0  0  0  0
  141.7510   78.7620  223.5860 C   0  0  0  0  0  0  0  0  0  0  0  0
  140.7220   76.7750  222.6860 C   0  0  0  0  0  0  0  0  0  0  0  0
  140.4600   75.9270  221.4970 C   0  0  2  0  0  0  0  0  0  0  0  0
  139.5090   74.8930  221.9500 N   0  0  0  0  0  0  0  0  0  0  0  0
  138.7270   74.2440  220.9430 C   0  0  0  0  0  0  0  0  0  0  0  0
  138.8320   74.5310  219.7250 O   0  0  0  0  0  0  0  0  0  0  0  0
  137.7360   73.1820  221.3010 C   0  0  0  0  0  0  0  0  0  0  0  0
  138.1710   72.6200  222.5620 N   0  0  0  0  0  0  0  0  0  0  0  0
  139.3010   71.7430  222.6210 C   0  0  0  0  0  0  0  0  0  0  0  0
  139.8730   71.5030  221.5240 O   0  0  0  0  0  0  0  0  0  0  0  0
  139.7520   71.1700  223.8890 C   0  0  0  0  0  0  0  0  0  0  0  0
  140.6740   71.8950  224.6170 C   0  0  0  0  0  0  0  0  0  0  0  0
  141.1380   71.4100  225.8170 C   0  0  0  0  0  0  0  0  0  0  0  0
  140.6530   70.1910  226.2590 C   0  0  0  0  0  0  0  0  0  0  0  0
  141.0780   69.6410  227.4630 C   0  0  0  0  0  0  0  0  0  0  0  0
  140.6330   68.4450  227.9430 C   0  0  0  0  0  0  0  0  0  0  0  0
  139.7070   67.7440  227.1860 C   0  0  0  0  0  0  0  0  0  0  0  0
  139.2590   68.2670  225.9720 C   0  0  0  0  0  0  0  0  0  0  0  0
  139.7230   69.4710  225.5140 C   0  0  0  0  0  0  0  0  0  0  0  0
  139.2900   69.9870  224.3300 N   0  0  0  0  0  0  0  0  0  0  0  0
  141.6090   75.1830  220.9670 C   0  0  0  0  0  0  0  0  0  0  0  0
  141.8610   73.8490  221.2160 C   0  0  0  0  0  0  0  0  0  0  0  0
  142.9500   73.1760  220.7090 C   0  0  0  0  0  0  0  0  0  0  0  0
  143.8600   73.8200  219.9120 C   0  0  0  0  0  0  0  0  0  0  0  0
  143.6440   75.1500  219.6410 C   0  0  0  0  0  0  0  0  0  0  0  0
  142.5480   75.8260  220.1510 C   0  0  0  0  0  0  0  0  0  0  0  0
  142.2017   79.4048  221.3716 H   0  0  0  0  0  0  0  0  0  0  0  0
  141.7430   77.8431  220.6118 H   0  0  0  0  0  0  0  0  0  0  0  0
  140.5850   79.2164  220.6118 H   0  0  0  0  0  0  0  0  0  0  0  0
  139.3229   79.0636  223.7881 H   0  0  0  0  0  0  0  0  0  0  0  0
  139.5541   79.9619  222.2499 H   0  0  0  0  0  0  0  0  0  0  0  0
  138.6858   78.3894  222.2499 H   0  0  0  0  0  0  0  0  0  0  0  0
  141.3242   78.5223  224.5711 H   0  0  0  0  0  0  0  0  0  0  0  0
  142.7380   78.2862  223.4884 H   0  0  0  0  0  0  0  0  0  0  0  0
  141.8584   79.8524  223.4884 H   0  0  0  0  0  0  0  0  0  0  0  0
  141.6745   76.4414  223.1236 H   0  0  0  0  0  0  0  0  0  0  0  0
  139.8350   76.6414  223.3227 H   0  0  0  0  0  0  0  0  0  0  0  0
  140.1237   76.6058  220.6994 H   0  0  0  0  0  0  0  0  0  0  0  0
  139.4120   74.6450  222.9580 H   0  0  0  0  0  0  0  0  0  0  0  0
  136.7322   73.6193  221.4063 H   0  0  0  0  0  0  0  0  0  0  0  0
  137.6819   72.4097  220.5196 H   0  0  0  0  0  0  0  0  0  0  0  0
  137.7030   72.8150  223.4780 H   0  0  0  0  0  0  0  0  0  0  0  0
  141.0376   72.8611  224.2369 H   0  0  0  0  0  0  0  0  0  0  0  0
  141.8736   71.9744  226.4089 H   0  0  0  0  0  0  0  0  0  0  0  0
  141.8127   70.2008  228.0604 H   0  0  0  0  0  0  0  0  0  0  0  0
  140.9977   68.0483  228.9019 H   0  0  0  0  0  0  0  0  0  0  0  0
  139.3254   66.7757  227.5421 H   0  0  0  0  0  0  0  0  0  0  0  0
  138.5245   67.7053  225.3762 H   0  0  0  0  0  0  0  0  0  0  0  0
  141.1554   73.2948  221.8524 H   0  0  0  0  0  0  0  0  0  0  0  0
  143.0909   72.1111  220.9460 H   0  0  0  0  0  0  0  0  0  0  0  0
  144.7333   73.2906  219.5032 H   0  0  0  0  0  0  0  0  0  0  0  0
  144.3590   75.6908  219.0035 H   0  0  0  0  0  0  0  0  0  0  0  0
  142.4123   76.8906  219.9099 H   0  0  0  0  0  0  0  0  0  0  0  0
  1  2  1  0
  2  3  1  0
  2  4  1  0
  2  5  1  0
  5  6  1  0
  6  7  1  0
  7  8  1  0
  8  9  2  0
  8 10  1  0
 10 11  1  0
 11 12  1  0
 12 13  2  0
 12 14  1  0
 14 15  2  0
 15 16  1  0
 16 17  2  0
 17 18  1  0
 18 19  2  0
 19 20  1  0
 20 21  2  0
 21 22  1  0
 22 23  2  0
  6 24  1  0
 24 25  2  0
 25 26  1  0
 26 27  2  0
 27 28  1  0
 28 29  2  0
 23 14  1  0
 29 24  1  0
 22 17  1  0
  1 30  1  0
  1 31  1  0
  1 32  1  0
  3 33  1  0
  3 34  1  0
  3 35  1  0
  4 36  1  0
  4 37  1  0
  4 38  1  0
  5 39  1  0
  5 40  1  0
  6 41  1  6
  7 42  1  0
 10 43  1  0
 10 44  1  0
 11 45  1  0
 15 46  1  0
 16 47  1  0
 18 48  1  0
 19 49  1  0
 20 50  1  0
 21 51  1  0
 25 52  1  0
 26 53  1  0
 27 54  1  0
 28 55  1  0
 29 56  1  0
M  END
>  <meeko>  (12) 
{"free_energy": -8.51, "intermolecular_energy": -10.6, "internal_energy": -2.01, "cluster_size": 9, "cluster_id": 3, "rank_in_cluster": 2}

$$$$

     RDKit          3D

 56 58  0  0  0  0  0  0  0  0999 V2000
  137.3310   79.2650  221.2450 C   0  0  0  0  0  0  0  0  0  0  0  0
  137.5630   78.6630  222.5830 C   0  0  0  0  0  0  0  0  0  0  0  0
  136.2380   78.1130  223.0750 C   0  0  0  0  0  0  0  0  0  0  0  0
  137.8910   79.8170  223.5450 C   0  0  0  0  0  0  0  0  0  0  0  0
  138.6790   77.6980  222.7050 C   0  0  0  0  0  0  0  0  0  0  0  0
  139.8750   77.9140  221.8540 C   0  0  2  0  0  0  0  0  0  0  0  0
  140.5320   76.5960  221.7520 N   0  0  0  0  0  0  0  0  0  0  0  0
  139.7900   75.5480  221.1190 C   0  0  0  0  0  0  0  0  0  0  0  0
  138.6310   75.7260  220.6680 O   0  0  0  0  0  0  0  0  0  0  0  0
  140.3680   74.1770  220.9670 C   0  0  0  0  0  0  0  0  0  0  0  0
  140.1030   73.4780  222.2070 N   0  0  0  0  0  0  0  0  0  0  0  0
  140.5240   72.1220  222.3880 C   0  0  0  0  0  0  0  0  0  0  0  0
  141.1260   71.5950  221.4130 O   0  0  0  0  0  0  0  0  0  0  0  0
  140.2640   71.4050  223.6360 C   0  0  0  0  0  0  0  0  0  0  0  0
  139.5660   70.2180  223.5480 C   0  0  0  0  0  0  0  0  0  0  0  0
  139.2880   69.4970  224.6850 C   0  0  0  0  0  0  0  0  0  0  0  0
  139.7290   69.9970  225.8980 C   0  0  0  0  0  0  0  0  0  0  0  0
  139.4840   69.3200  227.0880 C   0  0  0  0  0  0  0  0  0  0  0  0
  139.8950   69.7700  228.3080 C   0  0  0  0  0  0  0  0  0  0  0  0
  140.5940   70.9650  228.3590 C   0  0  0  0  0  0  0  0  0  0  0  0
  140.8560   71.6710  227.1840 C   0  0  0  0  0  0  0  0  0  0  0  0
  140.4320   71.1960  225.9710 C   0  0  0  0  0  0  0  0  0  0  0  0
  140.6850   71.8800  224.8210 N   0  0  0  0  0  0  0  0  0  0  0  0
  140.9030   78.8100  222.3990 C   0  0  0  0  0  0  0  0  0  0  0  0
  141.2600   78.8750  223.7310 C   0  0  0  0  0  0  0  0  0  0  0  0
  142.2260   79.7290  224.2150 C   0  0  0  0  0  0  0  0  0  0  0  0
  142.8940   80.5790  223.3720 C   0  0  0  0  0  0  0  0  0  0  0  0
  142.5660   80.5430  222.0370 C   0  0  0  0  0  0  0  0  0  0  0  0
  141.5960   79.6840  221.5510 C   0  0  0  0  0  0  0  0  0  0  0  0
  136.9378   80.2853  221.3652 H   0  0  0  0  0  0  0  0  0  0  0  0
  138.2798   79.3008  220.6895 H   0  0  0  0  0  0  0  0  0  0  0  0
  136.6036   78.6548  220.6895 H   0  0  0  0  0  0  0  0  0  0  0  0
  136.2284   78.1090  224.1749 H   0  0  0  0  0  0  0  0  0  0  0  0
  135.4180   78.7451  222.7034 H   0  0  0  0  0  0  0  0  0  0  0  0
  136.1066   77.0860  222.7034 H   0  0  0  0  0  0  0  0  0  0  0  0
  137.7918   79.4681  224.5835 H   0  0  0  0  0  0  0  0  0  0  0  0
  138.9218   80.1586  223.3698 H   0  0  0  0  0  0  0  0  0  0  0  0
  137.1940   80.6498  223.3698 H   0  0  0  0  0  0  0  0  0  0  0  0
  139.0141   77.7144  223.7526 H   0  0  0  0  0  0  0  0  0  0  0  0
  138.2593   76.7428  222.3565 H   0  0  0  0  0  0  0  0  0  0  0  0
  139.5137   78.3705  220.9207 H   0  0  0  0  0  0  0  0  0  0  0  0
  141.4930   76.4350  222.1220 H   0  0  0  0  0  0  0  0  0  0  0  0
  139.8889   73.6539  220.1263 H   0  0  0  0  0  0  0  0  0  0  0  0
  141.4472   74.2217  220.7589 H   0  0  0  0  0  0  0  0  0  0  0  0
  139.6050   73.9080  223.0220 H   0  0  0  0  0  0  0  0  0  0  0  0
  139.2317   69.8484  222.5674 H   0  0  0  0  0  0  0  0  0  0  0  0
  138.7310   68.5499  224.6323 H   0  0  0  0  0  0  0  0  0  0  0  0
  138.9292   68.3712  227.0427 H   0  0  0  0  0  0  0  0  0  0  0  0
  139.6780   69.2011  229.2241 H   0  0  0  0  0  0  0  0  0  0  0  0
  140.9425   71.3574  229.3257 H   0  0  0  0  0  0  0  0  0  0  0  0
  141.4096   72.6203  227.2324 H   0  0  0  0  0  0  0  0  0  0  0  0
  140.7467   78.2109  224.4420 H   0  0  0  0  0  0  0  0  0  0  0  0
  142.4640   79.7291  225.2889 H   0  0  0  0  0  0  0  0  0  0  0  0
  143.6654   81.2659  223.7502 H   0  0  0  0  0  0  0  0  0  0  0  0
  143.0876   81.2136  221.3382 H   0  0  0  0  0  0  0  0  0  0  0  0
  141.3640   79.6874  220.4757 H   0  0  0  0  0  0  0  0  0  0  0  0
  1  2  1  0
  2  3  1  0
  2  4  1  0
  2  5  1  0
  5  6  1  0
  6  7  1  0
  7  8  1  0
  8  9  2  0
  8 10  1  0
 10 11  1  0
 11 12  1  0
 12 13  2  0
 12 14  1  0
 14 15  2  0
 15 16  1  0
 16 17  2  0
 17 18  1  0
 18 19  2  0
 19 20  1  0
 20 21  2  0
 21 22  1  0
 22 23  2  0
  6 24  1  0
 24 25  2  0
 25 26  1  0
 26 27  2  0
 27 28  1  0
 28 29  2  0
 23 14  1  0
 29 24  1  0
 22 17  1  0
  1 30  1  0
  1 31  1  0
  1 32  1  0
  3 33  1  0
  3 34  1  0
  3 35  1  0
  4 36  1  0
  4 37  1  0
  4 38  1  0
  5 39  1  0
  5 40  1  0
  6 41  1  6
  7 42  1  0
 10 43  1  0
 10 44  1  0
 11 45  1  0
 15 46  1  0
 16 47  1  0
 18 48  1  0
 19 49  1  0
 20 50  1  0
 21 51  1  0
 25 52  1  0
 26 53  1  0
 27 54  1  0
 28 55  1  0
 29 56  1  0
M  END
>  <meeko>  (13) 
{"free_energy": -8.82, "intermolecular_energy": -10.91, "internal_energy": -1.53, "cluster_size": 2, "cluster_id": 2, "rank_in_cluster": 1}

$$$$

     RDKit          3D

 56 58  0  0  0  0  0  0  0  0999 V2000
  141.6470   77.8800  220.3760 C   0  0  0  0  0  0  0  0  0  0  0  0
  140.8870   77.4160  221.5670 C   0  0  0  0  0  0  0  0  0  0  0  0
  139.4350   77.8030  221.3640 C   0  0  0  0  0  0  0  0  0  0  0  0
  141.3570   78.2650  222.7590 C   0  0  0  0  0  0  0  0  0  0  0  0
  141.0660   76.0040  221.9730 C   0  0  0  0  0  0  0  0  0  0  0  0
  141.1540   74.9830  220.9010 C   0  0  2  0  0  0  0  0  0  0  0  0
  140.2980   73.8660  221.3460 N   0  0  0  0  0  0  0  0  0  0  0  0
  138.9510   73.8480  220.8650 C   0  0  0  0  0  0  0  0  0  0  0  0
  138.5010   74.7350  220.0990 O   0  0  0  0  0  0  0  0  0  0  0  0
  138.0050   72.7580  221.2600 C   0  0  0  0  0  0  0  0  0  0  0  0
  138.4010   72.3280  222.5850 N   0  0  0  0  0  0  0  0  0  0  0  0
  139.5090   71.4390  222.7650 C   0  0  0  0  0  0  0  0  0  0  0  0
  140.0970   71.0670  221.7140 O   0  0  0  0  0  0  0  0  0  0  0  0
  139.9200   70.9990  224.0970 C   0  0  0  0  0  0  0  0  0  0  0  0
  140.6830   71.8750  224.8440 C   0  0  0  0  0  0  0  0  0  0  0  0
  141.1020   71.5200  226.1040 C   0  0  0  0  0  0  0  0  0  0  0  0
  140.7360   70.2750  226.5870 C   0  0  0  0  0  0  0  0  0  0  0  0
  141.1240   69.8510  227.8530 C   0  0  0  0  0  0  0  0  0  0  0  0
  140.7900   68.6360  228.3750 C   0  0  0  0  0  0  0  0  0  0  0  0
  140.0230   67.7820  227.5990 C   0  0  0  0  0  0  0  0  0  0  0  0
  139.6170   68.1760  226.3230 C   0  0  0  0  0  0  0  0  0  0  0  0
  139.9650   69.4030  225.8230 C   0  0  0  0  0  0  0  0  0  0  0  0
  139.5720   69.7930  224.5790 N   0  0  0  0  0  0  0  0  0  0  0  0
  142.4780   74.3850  220.6830 C   0  0  0  0  0  0  0  0  0  0  0  0
  143.6030   75.0910  220.3050 C   0  0  0  0  0  0  0  0  0  0  0  0
  144.8320   74.5050  220.1030 C   0  0  0  0  0  0  0  0  0  0  0  0
  144.9980   73.1550  220.2710 C   0  0  0  0  0  0  0  0  0  0  0  0
  143.9010   72.4180  220.6480 C   0  0  0  0  0  0  0  0  0  0  0  0
  142.6650   73.0080  220.8510 C   0  0  0  0  0  0  0  0  0  0  0  0
  142.5433   78.4272  220.7034 H   0  0  0  0  0  0  0  0  0  0  0  0
  141.9479   77.0114  219.7718 H   0  0  0  0  0  0  0  0  0  0  0  0
  141.0119   78.5446  219.7718 H   0  0  0  0  0  0  0  0  0  0  0  0
  138.9497   77.9323  222.3427 H   0  0  0  0  0  0  0  0  0  0  0  0
  139.3823   78.7466  220.8010 H   0  0  0  0  0  0  0  0  0  0  0  0
  138.9197   77.0109  220.8010 H   0  0  0  0  0  0  0  0  0  0  0  0
  141.0796   77.7639  223.6981 H   0  0  0  0  0  0  0  0  0  0  0  0
  142.4497   78.3844  222.7160 H   0  0  0  0  0  0  0  0  0  0  0  0
  140.8781   79.2544  222.7160 H   0  0  0  0  0  0  0  0  0  0  0  0
  141.9954   75.9461  222.5586 H   0  0  0  0  0  0  0  0  0  0  0  0
  140.1449   75.7536  222.5196 H   0  0  0  0  0  0  0  0  0  0  0  0
  140.8744   75.4905  219.9660 H   0  0  0  0  0  0  0  0  0  0  0  0
  140.6590   73.1220  221.9820 H   0  0  0  0  0  0  0  0  0  0  0  0
  136.9730   73.1384  221.2768 H   0  0  0  0  0  0  0  0  0  0  0  0
  138.0399   71.9232  220.5445 H   0  0  0  0  0  0  0  0  0  0  0  0
  137.9190   72.6320  223.4630 H   0  0  0  0  0  0  0  0  0  0  0  0
  140.9555   72.8572  224.4304 H   0  0  0  0  0  0  0  0  0  0  0  0
  141.7109   72.2056  226.7116 H   0  0  0  0  0  0  0  0  0  0  0  0
  141.7327   70.5317  228.4663 H   0  0  0  0  0  0  0  0  0  0  0  0
  141.1199   68.3427  229.3825 H   0  0  0  0  0  0  0  0  0  0  0  0
  139.7343   66.7945  227.9881 H   0  0  0  0  0  0  0  0  0  0  0  0
  139.0099   67.4926  225.7111 H   0  0  0  0  0  0  0  0  0  0  0  0
  143.5123   76.1773  220.1578 H   0  0  0  0  0  0  0  0  0  0  0  0
  145.6891   75.1262  219.8039 H   0  0  0  0  0  0  0  0  0  0  0  0
  145.9758   72.6777  220.1096 H   0  0  0  0  0  0  0  0  0  0  0  0
  144.0075   71.3327  220.7920 H   0  0  0  0  0  0  0  0  0  0  0  0
  141.8120   72.3814  221.1506 H   0  0  0  0  0  0  0  0  0  0  0  0
  1  2  1  0
  2  3  1  0
  2  4  1  0
  2  5  1  0
  5  6  1  0
  6  7  1  0
  7  8  1  0
  8  9  2  0
  8 10  1  0
 10 11  1  0
 11 12  1  0
 12 13  2  0
 12 14  1  0
 14 15  2  0
 15 16  1  0
 16 17  2  0
 17 18  1  0
 18 19  2  0
 19 20  1  0
 20 21  2  0
 21 22  1  0
 22 23  2  0
  6 24  1  0
 24 25  2  0
 25 26  1  0
 26 27  2  0
 27 28  1  0
 28 29  2  0
 23 14  1  0
 29 24  1  0
 22 17  1  0
  1 30  1  0
  1 31  1  0
  1 32  1  0
  3 33  1  0
  3 34  1  0
  3 35  1  0
  4 36  1  0
  4 37  1  0
  4 38  1  0
  5 39  1  0
  5 40  1  0
  6 41  1  6
  7 42  1  0
 10 43  1  0
 10 44  1  0
 11 45  1  0
 15 46  1  0
 16 47  1  0
 18 48  1  0
 19 49  1  0
 20 50  1  0
 21 51  1  0
 25 52  1  0
 26 53  1  0
 27 54  1  0
 28 55  1  0
 29 56  1  0
M  END
>  <meeko>  (14) 
{"free_energy": -7.98, "intermolecular_energy": -10.07, "internal_energy": -2.45, "cluster_size": 9, "cluster_id": 3, "rank_in_cluster": 6}

$$$$

     RDKit          3D

 56 58  0  0  0  0  0  0  0  0999 V2000
  141.1360   78.7620  221.2200 C   0  0  0  0  0  0  0  0  0  0  0  0
  140.7540   78.2410  222.5580 C   0  0  0  0  0  0  0  0  0  0  0  0
  139.4820   78.9510  222.9810 C   0  0  0  0  0  0  0  0  0  0  0  0
  141.8220   78.7250  223.5520 C   0  0  0  0  0  0  0  0  0  0  0  0
  140.6830   76.7710  222.7150 C   0  0  0  0  0  0  0  0  0  0  0  0
  140.4430   75.9570  221.4980 C   0  0  2  0  0  0  0  0  0  0  0  0
  139.4520   74.9360  221.8930 N   0  0  0  0  0  0  0  0  0  0  0  0
  138.7140   74.3070  220.8420 C   0  0  0  0  0  0  0  0  0  0  0  0
  138.8870   74.6000  219.6330 O   0  0  0  0  0  0  0  0  0  0  0  0
  137.6870   73.2600  221.1400 C   0  0  0  0  0  0  0  0  0  0  0  0
  138.0590   72.6680  222.4080 N   0  0  0  0  0  0  0  0  0  0  0  0
  139.0620   71.6480  222.4730 C   0  0  0  0  0  0  0  0  0  0  0  0
  139.5830   71.3130  221.3740 O   0  0  0  0  0  0  0  0  0  0  0  0
  139.4480   71.0430  223.7470 C   0  0  0  0  0  0  0  0  0  0  0  0
  139.2340   69.6860  223.8910 C   0  0  0  0  0  0  0  0  0  0  0  0
  139.5740   69.0570  225.0650 C   0  0  0  0  0  0  0  0  0  0  0  0
  140.1300   69.8210  226.0770 C   0  0  0  0  0  0  0  0  0  0  0  0
  140.4980   69.2500  227.2900 C   0  0  0  0  0  0  0  0  0  0  0  0
  141.0490   69.9570  228.3180 C   0  0  0  0  0  0  0  0  0  0  0  0
  141.2510   71.3160  228.1390 C   0  0  0  0  0  0  0  0  0  0  0  0
  140.8920   71.9220  226.9330 C   0  0  0  0  0  0  0  0  0  0  0  0
  140.3410   71.1870  225.9170 C   0  0  0  0  0  0  0  0  0  0  0  0
  139.9890   71.7720  224.7380 N   0  0  0  0  0  0  0  0  0  0  0  0
  141.5920   75.1970  220.9900 C   0  0  0  0  0  0  0  0  0  0  0  0
  141.8120   73.8560  221.2310 C   0  0  0  0  0  0  0  0  0  0  0  0
  142.9020   73.1680  220.7460 C   0  0  0  0  0  0  0  0  0  0  0  0
  143.8440   73.8030  219.9790 C   0  0  0  0  0  0  0  0  0  0  0  0
  143.6590   75.1400  219.7170 C   0  0  0  0  0  0  0  0  0  0  0  0
  142.5640   75.8310  220.2050 C   0  0  0  0  0  0  0  0  0  0  0  0
  141.7825   79.6437  221.3408 H   0  0  0  0  0  0  0  0  0  0  0  0
  141.6785   77.9829  220.6643 H   0  0  0  0  0  0  0  0  0  0  0  0
  140.2298   79.0451  220.6643 H   0  0  0  0  0  0  0  0  0  0  0  0
  139.4271   78.9817  224.0792 H   0  0  0  0  0  0  0  0  0  0  0  0
  139.4860   79.9773  222.5853 H   0  0  0  0  0  0  0  0  0  0  0  0
  138.6105   78.4088  222.5853 H   0  0  0  0  0  0  0  0  0  0  0  0
  141.4659   78.5636  224.5802 H   0  0  0  0  0  0  0  0  0  0  0  0
  142.7529   78.1608  223.3936 H   0  0  0  0  0  0  0  0  0  0  0  0
  142.0114   79.7969  223.3936 H   0  0  0  0  0  0  0  0  0  0  0  0
  141.6388   76.4405  223.1477 H   0  0  0  0  0  0  0  0  0  0  0  0
  139.7950   76.6015  223.3417 H   0  0  0  0  0  0  0  0  0  0  0  0
  140.1512   76.6622  220.7058 H   0  0  0  0  0  0  0  0  0  0  0  0
  139.2990   74.6840  222.8930 H   0  0  0  0  0  0  0  0  0  0  0  0
  136.6888   73.7165  221.2121 H   0  0  0  0  0  0  0  0  0  0  0  0
  137.6487   72.5024  220.3434 H   0  0  0  0  0  0  0  0  0  0  0  0
  137.6330   72.9400  223.3240 H   0  0  0  0  0  0  0  0  0  0  0  0
  138.7914   69.1085  223.0660 H   0  0  0  0  0  0  0  0  0  0  0  0
  139.4091   67.9774  225.1967 H   0  0  0  0  0  0  0  0  0  0  0  0
  140.3362   68.1707  227.4280 H   0  0  0  0  0  0  0  0  0  0  0  0
  141.3248   69.4629  229.2613 H   0  0  0  0  0  0  0  0  0  0  0  0
  141.6940   71.9174  228.9465 H   0  0  0  0  0  0  0  0  0  0  0  0
  141.0535   73.0016  226.7976 H   0  0  0  0  0  0  0  0  0  0  0  0
  141.0791   73.3086  221.8419 H   0  0  0  0  0  0  0  0  0  0  0  0
  143.0178   72.0986  220.9763 H   0  0  0  0  0  0  0  0  0  0  0  0
  144.7176   73.2617  219.5867 H   0  0  0  0  0  0  0  0  0  0  0  0
  144.4001   75.6738  219.1040 H   0  0  0  0  0  0  0  0  0  0  0  0
  142.4544   76.9004  219.9718 H   0  0  0  0  0  0  0  0  0  0  0  0
  1  2  1  0
  2  3  1  0
  2  4  1  0
  2  5  1  0
  5  6  1  0
  6  7  1  0
  7  8  1  0
  8  9  2  0
  8 10  1  0
 10 11  1  0
 11 12  1  0
 12 13  2  0
 12 14  1  0
 14 15  2  0
 15 16  1  0
 16 17  2  0
 17 18  1  0
 18 19  2  0
 19 20  1  0
 20 21  2  0
 21 22  1  0
 22 23  2  0
  6 24  1  0
 24 25  2  0
 25 26  1  0
 26 27  2  0
 27 28  1  0
 28 29  2  0
 23 14  1  0
 29 24  1  0
 22 17  1  0
  1 30  1  0
  1 31  1  0
  1 32  1  0
  3 33  1  0
  3 34  1  0
  3 35  1  0
  4 36  1  0
  4 37  1  0
  4 38  1  0
  5 39  1  0
  5 40  1  0
  6 41  1  6
  7 42  1  0
 10 43  1  0
 10 44  1  0
 11 45  1  0
 15 46  1  0
 16 47  1  0
 18 48  1  0
 19 49  1  0
 20 50  1  0
 21 51  1  0
 25 52  1  0
 26 53  1  0
 27 54  1  0
 28 55  1  0
 29 56  1  0
M  END
>  <meeko>  (15) 
{"free_energy": -8.49, "intermolecular_energy": -10.58, "internal_energy": -2.02, "cluster_size": 9, "cluster_id": 3, "rank_in_cluster": 4}

$$$$

     RDKit          3D

 56 58  0  0  0  0  0  0  0  0999 V2000
  145.7470   73.7190  221.1830 C   0  0  0  0  0  0  0  0  0  0  0  0
  144.7760   73.2520  220.1600 C   0  0  0  0  0  0  0  0  0  0  0  0
  143.8030   72.3120  220.8450 C   0  0  0  0  0  0  0  0  0  0  0  0
  145.5530   72.3630  219.1750 C   0  0  0  0  0  0  0  0  0  0  0  0
  144.1100   74.2880  219.3390 C   0  0  0  0  0  0  0  0  0  0  0  0
  143.1170   75.1660  220.0070 C   0  0  2  0  0  0  0  0  0  0  0  0
  141.8410   74.4250  219.9640 N   0  0  0  0  0  0  0  0  0  0  0  0
  140.8660   74.7530  220.9590 C   0  0  0  0  0  0  0  0  0  0  0  0
  141.0730   75.6270  221.8360 O   0  0  0  0  0  0  0  0  0  0  0  0
  139.5420   74.0580  221.0000 C   0  0  0  0  0  0  0  0  0  0  0  0
  139.4980   73.3290  222.2500 N   0  0  0  0  0  0  0  0  0  0  0  0
  140.2020   72.0900  222.4000 C   0  0  0  0  0  0  0  0  0  0  0  0
  140.8440   71.6930  221.3900 O   0  0  0  0  0  0  0  0  0  0  0  0
  140.1660   71.3450  223.6570 C   0  0  0  0  0  0  0  0  0  0  0  0
  139.6120   70.0800  223.6250 C   0  0  0  0  0  0  0  0  0  0  0  0
  139.5480   69.3280  224.7740 C   0  0  0  0  0  0  0  0  0  0  0  0
  140.0530   69.8760  225.9410 C   0  0  0  0  0  0  0  0  0  0  0  0
  140.0220   69.1710  227.1390 C   0  0  0  0  0  0  0  0  0  0  0  0
  140.5050   69.6640  228.3150 C   0  0  0  0  0  0  0  0  0  0  0  0
  141.0550   70.9360  228.3110 C   0  0  0  0  0  0  0  0  0  0  0  0
  141.1010   71.6720  227.1250 C   0  0  0  0  0  0  0  0  0  0  0  0
  140.6100   71.1510  225.9570 C   0  0  0  0  0  0  0  0  0  0  0  0
  140.6520   71.8640  224.7970 N   0  0  0  0  0  0  0  0  0  0  0  0
  142.8370   76.4470  219.3460 C   0  0  0  0  0  0  0  0  0  0  0  0
  143.1540   76.7360  218.0330 C   0  0  0  0  0  0  0  0  0  0  0  0
  142.8830   77.9490  217.4390 C   0  0  0  0  0  0  0  0  0  0  0  0
  142.2710   78.9520  218.1440 C   0  0  0  0  0  0  0  0  0  0  0  0
  141.9410   78.7010  219.4550 C   0  0  0  0  0  0  0  0  0  0  0  0
  142.2120   77.4820  220.0520 C   0  0  0  0  0  0  0  0  0  0  0  0
  145.3431   73.5247  222.1876 H   0  0  0  0  0  0  0  0  0  0  0  0
  146.6977   73.1796  221.0594 H   0  0  0  0  0  0  0  0  0  0  0  0
  145.9191   74.7984  221.0594 H   0  0  0  0  0  0  0  0  0  0  0  0
  143.9047   72.4102  221.9359 H   0  0  0  0  0  0  0  0  0  0  0  0
  142.7752   72.5679  220.5480 H   0  0  0  0  0  0  0  0  0  0  0  0
  144.0233   71.2760  220.5480 H   0  0  0  0  0  0  0  0  0  0  0  0
  146.1755   71.6508  219.7365 H   0  0  0  0  0  0  0  0  0  0  0  0
  144.8434   71.8101  218.5419 H   0  0  0  0  0  0  0  0  0  0  0  0
  146.1959   72.9922  218.5419 H   0  0  0  0  0  0  0  0  0  0  0  0
  144.8971   74.9366  218.9270 H   0  0  0  0  0  0  0  0  0  0  0  0
  143.5262   73.7222  218.5981 H   0  0  0  0  0  0  0  0  0  0  0  0
  143.5292   75.4021  220.9992 H   0  0  0  0  0  0  0  0  0  0  0  0
  141.6580   73.6970  219.2410 H   0  0  0  0  0  0  0  0  0  0  0  0
  138.7253   74.7939  220.9605 H   0  0  0  0  0  0  0  0  0  0  0  0
  139.4215   73.3816  220.1410 H   0  0  0  0  0  0  0  0  0  0  0  0
  138.9680   73.6510  223.0930 H   0  0  0  0  0  0  0  0  0  0  0  0
  139.2219   69.6743  222.6799 H   0  0  0  0  0  0  0  0  0  0  0  0
  139.1082   68.3198  224.7665 H   0  0  0  0  0  0  0  0  0  0  0  0
  139.5845   68.1617  227.1381 H   0  0  0  0  0  0  0  0  0  0  0  0
  140.4594   69.0697  229.2395 H   0  0  0  0  0  0  0  0  0  0  0  0
  141.4550   71.3656  229.2413 H   0  0  0  0  0  0  0  0  0  0  0  0
  141.5367   72.6820  227.1287 H   0  0  0  0  0  0  0  0  0  0  0  0
  143.6477   75.9585  217.4315 H   0  0  0  0  0  0  0  0  0  0  0  0
  143.1608   78.1142  216.3876 H   0  0  0  0  0  0  0  0  0  0  0  0
  142.0514   79.9237  217.6776 H   0  0  0  0  0  0  0  0  0  0  0  0
  141.4491   79.4889  220.0443 H   0  0  0  0  0  0  0  0  0  0  0  0
  141.9304   77.3230  221.1034 H   0  0  0  0  0  0  0  0  0  0  0  0
  1  2  1  0
  2  3  1  0
  2  4  1  0
  2  5  1  0
  5  6  1  0
  6  7  1  0
  7  8  1  0
  8  9  2  0
  8 10  1  0
 10 11  1  0
 11 12  1  0
 12 13  2  0
 12 14  1  0
 14 15  2  0
 15 16  1  0
 16 17  2  0
 17 18  1  0
 18 19  2  0
 19 20  1  0
 20 21  2  0
 21 22  1  0
 22 23  2  0
  6 24  1  0
 24 25  2  0
 25 26  1  0
 26 27  2  0
 27 28  1  0
 28 29  2  0
 23 14  1  0
 29 24  1  0
 22 17  1  0
  1 30  1  0
  1 31  1  0
  1 32  1  0
  3 33  1  0
  3 34  1  0
  3 35  1  0
  4 36  1  0
  4 37  1  0
  4 38  1  0
  5 39  1  0
  5 40  1  0
  6 41  1  1
  7 42  1  0
 10 43  1  0
 10 44  1  0
 11 45  1  0
 15 46  1  0
 16 47  1  0
 18 48  1  0
 19 49  1  0
 20 50  1  0
 21 51  1  0
 25 52  1  0
 26 53  1  0
 27 54  1  0
 28 55  1  0
 29 56  1  0
M  END
>  <meeko>  (16) 
{"free_energy": -8.79, "intermolecular_energy": -10.88, "internal_energy": -1.72, "cluster_size": 3, "cluster_id": 1, "rank_in_cluster": 2}

$$$$

     RDKit          3D

 56 58  0  0  0  0  0  0  0  0999 V2000
  145.6860   73.7590  221.1420 C   0  0  0  0  0  0  0  0  0  0  0  0
  144.7250   73.2600  220.1240 C   0  0  0  0  0  0  0  0  0  0  0  0
  143.7400   72.3490  220.8320 C   0  0  0  0  0  0  0  0  0  0  0  0
  145.5080   72.3330  219.1810 C   0  0  0  0  0  0  0  0  0  0  0  0
  144.0720   74.2690  219.2600 C   0  0  0  0  0  0  0  0  0  0  0  0
  143.0890   75.1850  219.8890 C   0  0  2  0  0  0  0  0  0  0  0  0
  141.8000   74.4670  219.8530 N   0  0  0  0  0  0  0  0  0  0  0  0
  140.9490   74.6020  220.9950 C   0  0  0  0  0  0  0  0  0  0  0  0
  141.2710   75.2950  221.9920 O   0  0  0  0  0  0  0  0  0  0  0  0
  139.6220   73.9140  221.0550 C   0  0  0  0  0  0  0  0  0  0  0  0
  139.5850   73.1990  222.3130 N   0  0  0  0  0  0  0  0  0  0  0  0
  140.0830   71.8590  222.4090 C   0  0  0  0  0  0  0  0  0  0  0  0
  140.5420   71.3620  221.3450 O   0  0  0  0  0  0  0  0  0  0  0  0
  140.0520   71.1270  223.6740 C   0  0  0  0  0  0  0  0  0  0  0  0
  139.5060   69.8590  223.6560 C   0  0  0  0  0  0  0  0  0  0  0  0
  139.4470   69.1180  224.8130 C   0  0  0  0  0  0  0  0  0  0  0  0
  139.9480   69.6820  225.9740 C   0  0  0  0  0  0  0  0  0  0  0  0
  139.9210   68.9900  227.1800 C   0  0  0  0  0  0  0  0  0  0  0  0
  140.4010   69.4990  228.3500 C   0  0  0  0  0  0  0  0  0  0  0  0
  140.9430   70.7740  228.3320 C   0  0  0  0  0  0  0  0  0  0  0  0
  140.9840   71.4970  227.1390 C   0  0  0  0  0  0  0  0  0  0  0  0
  140.4970   70.9610  225.9770 C   0  0  0  0  0  0  0  0  0  0  0  0
  140.5350   71.6620  224.8090 N   0  0  0  0  0  0  0  0  0  0  0  0
  142.8410   76.4500  219.1860 C   0  0  0  0  0  0  0  0  0  0  0  0
  143.1830   76.6950  217.8710 C   0  0  0  0  0  0  0  0  0  0  0  0
  142.9420   77.8940  217.2370 C   0  0  0  0  0  0  0  0  0  0  0  0
  142.3370   78.9270  217.9020 C   0  0  0  0  0  0  0  0  0  0  0  0
  141.9820   78.7220  219.2150 C   0  0  0  0  0  0  0  0  0  0  0  0
  142.2230   77.5160  219.8520 C   0  0  0  0  0  0  0  0  0  0  0  0
  145.2926   73.5548  222.1488 H   0  0  0  0  0  0  0  0  0  0  0  0
  146.6522   73.2487  221.0154 H   0  0  0  0  0  0  0  0  0  0  0  0
  145.8244   74.8429  221.0154 H   0  0  0  0  0  0  0  0  0  0  0  0
  143.8573   72.4575  221.9203 H   0  0  0  0  0  0  0  0  0  0  0  0
  142.7144   72.6239  220.5445 H   0  0  0  0  0  0  0  0  0  0  0  0
  143.9341   71.3051  220.5445 H   0  0  0  0  0  0  0  0  0  0  0  0
  146.1055   71.6257  219.7749 H   0  0  0  0  0  0  0  0  0  0  0  0
  144.8034   71.7754  218.5466 H   0  0  0  0  0  0  0  0  0  0  0  0
  146.1756   72.9345  218.5466 H   0  0  0  0  0  0  0  0  0  0  0  0
  144.8671   74.8908  218.8229 H   0  0  0  0  0  0  0  0  0  0  0  0
  143.4823   73.6798  218.5423 H   0  0  0  0  0  0  0  0  0  0  0  0
  143.4942   75.4436  220.8784 H   0  0  0  0  0  0  0  0  0  0  0  0
  141.5210   73.8890  219.0310 H   0  0  0  0  0  0  0  0  0  0  0  0
  138.8086   74.6534  221.0143 H   0  0  0  0  0  0  0  0  0  0  0  0
  139.4909   73.2288  220.2045 H   0  0  0  0  0  0  0  0  0  0  0  0
  139.2070   73.6040  223.2010 H   0  0  0  0  0  0  0  0  0  0  0  0
  139.1178   69.4411  222.7154 H   0  0  0  0  0  0  0  0  0  0  0  0
  139.0144   68.1066  224.8160 H   0  0  0  0  0  0  0  0  0  0  0  0
  139.4894   67.9782  227.1904 H   0  0  0  0  0  0  0  0  0  0  0  0
  140.3592   68.9146  229.2810 H   0  0  0  0  0  0  0  0  0  0  0  0
  141.3407   71.2161  229.2574 H   0  0  0  0  0  0  0  0  0  0  0  0
  141.4128   72.5099  227.1321 H   0  0  0  0  0  0  0  0  0  0  0  0
  143.6728   75.8920  217.3006 H   0  0  0  0  0  0  0  0  0  0  0  0
  143.2386   78.0230  216.1856 H   0  0  0  0  0  0  0  0  0  0  0  0
  142.1416   79.8878  217.4032 H   0  0  0  0  0  0  0  0  0  0  0  0
  141.4949   79.5355  219.7726 H   0  0  0  0  0  0  0  0  0  0  0  0
  141.9228   77.3928  220.9030 H   0  0  0  0  0  0  0  0  0  0  0  0
  1  2  1  0
  2  3  1  0
  2  4  1  0
  2  5  1  0
  5  6  1  0
  6  7  1  0
  7  8  1  0
  8  9  2  0
  8 10  1  0
 10 11  1  0
 11 12  1  0
 12 13  2  0
 12 14  1  0
 14 15  2  0
 15 16  1  0
 16 17  2  0
 17 18  1  0
 18 19  2  0
 19 20  1  0
 20 21  2  0
 21 22  1  0
 22 23  2  0
  6 24  1  0
 24 25  2  0
 25 26  1  0
 26 27  2  0
 27 28  1  0
 28 29  2  0
 23 14  1  0
 29 24  1  0
 22 17  1  0
  1 30  1  0
  1 31  1  0
  1 32  1  0
  3 33  1  0
  3 34  1  0
  3 35  1  0
  4 36  1  0
  4 37  1  0
  4 38  1  0
  5 39  1  0
  5 40  1  0
  6 41  1  1
  7 42  1  0
 10 43  1  0
 10 44  1  0
 11 45  1  0
 15 46  1  0
 16 47  1  0
 18 48  1  0
 19 49  1  0
 20 50  1  0
 21 51  1  0
 25 52  1  0
 26 53  1  0
 27 54  1  0
 28 55  1  0
 29 56  1  0
M  END
>  <meeko>  (17) 
{"free_energy": -8.69, "intermolecular_energy": -10.78, "internal_energy": -1.84, "cluster_size": 3, "cluster_id": 1, "rank_in_cluster": 3}

$$$$

     RDKit          3D

 56 58  0  0  0  0  0  0  0  0999 V2000
  142.9180   78.2960  217.8520 C   0  0  0  0  0  0  0  0  0  0  0  0
  142.2840   77.1470  218.5500 C   0  0  0  0  0  0  0  0  0  0  0  0
  143.3710   76.4210  219.3200 C   0  0  0  0  0  0  0  0  0  0  0  0
  141.8400   76.1510  217.4660 C   0  0  0  0  0  0  0  0  0  0  0  0
  141.0810   77.4320  219.3640 C   0  0  0  0  0  0  0  0  0  0  0  0
  141.0490   76.9160  220.7540 C   0  0  2  0  0  0  0  0  0  0  0  0
  139.8950   75.9970  220.8090 N   0  0  0  0  0  0  0  0  0  0  0  0
  140.0910   74.7480  221.4800 C   0  0  0  0  0  0  0  0  0  0  0  0
  141.1890   74.4330  222.0010 O   0  0  0  0  0  0  0  0  0  0  0  0
  138.9840   73.7480  221.5880 C   0  0  0  0  0  0  0  0  0  0  0  0
  139.3110   72.8900  222.7070 N   0  0  0  0  0  0  0  0  0  0  0  0
  138.7530   71.5750  222.8100 C   0  0  0  0  0  0  0  0  0  0  0  0
  137.9760   71.2300  221.8780 O   0  0  0  0  0  0  0  0  0  0  0  0
  139.0770   70.6990  223.9340 C   0  0  0  0  0  0  0  0  0  0  0  0
  138.6380   69.3920  223.8610 C   0  0  0  0  0  0  0  0  0  0  0  0
  138.9090   68.5170  224.8870 C   0  0  0  0  0  0  0  0  0  0  0  0
  139.6260   68.9870  225.9730 C   0  0  0  0  0  0  0  0  0  0  0  0
  139.9360   68.1580  227.0450 C   0  0  0  0  0  0  0  0  0  0  0  0
  140.6400   68.5720  228.1380 C   0  0  0  0  0  0  0  0  0  0  0  0
  141.0650   69.8900  228.1770 C   0  0  0  0  0  0  0  0  0  0  0  0
  140.7700   70.7500  227.1180 C   0  0  0  0  0  0  0  0  0  0  0  0
  140.0630   70.3080  226.0320 C   0  0  0  0  0  0  0  0  0  0  0  0
  139.7720   71.1420  224.9950 N   0  0  0  0  0  0  0  0  0  0  0  0
  140.7960   77.9090  221.8070 C   0  0  0  0  0  0  0  0  0  0  0  0
  141.7690   78.6940  222.3920 C   0  0  0  0  0  0  0  0  0  0  0  0
  141.5050   79.6150  223.3810 C   0  0  0  0  0  0  0  0  0  0  0  0
  140.2280   79.7970  223.8440 C   0  0  0  0  0  0  0  0  0  0  0  0
  139.2310   79.0320  223.2860 C   0  0  0  0  0  0  0  0  0  0  0  0
  139.4970   78.1070  222.2910 C   0  0  0  0  0  0  0  0  0  0  0  0
  143.3097   79.0058  218.5955 H   0  0  0  0  0  0  0  0  0  0  0  0
  143.7431   77.9323  217.2220 H   0  0  0  0  0  0  0  0  0  0  0  0
  142.1704   78.8001  217.2220 H   0  0  0  0  0  0  0  0  0  0  0  0
  143.1960   76.5379  220.3997 H   0  0  0  0  0  0  0  0  0  0  0  0
  143.3537   75.3525  219.0593 H   0  0  0  0  0  0  0  0  0  0  0  0
  144.3514   76.8462  219.0593 H   0  0  0  0  0  0  0  0  0  0  0  0
  141.4364   75.2457  217.9430 H   0  0  0  0  0  0  0  0  0  0  0  0
  141.0626   76.6131  216.8397 H   0  0  0  0  0  0  0  0  0  0  0  0
  142.7033   75.8817  216.8397 H   0  0  0  0  0  0  0  0  0  0  0  0
  140.9722   78.5253  219.4172 H   0  0  0  0  0  0  0  0  0  0  0  0
  140.2668   76.8987  218.8515 H   0  0  0  0  0  0  0  0  0  0  0  0
  142.0433   76.4881  220.9495 H   0  0  0  0  0  0  0  0  0  0  0  0
  138.9780   76.2460  220.3800 H   0  0  0  0  0  0  0  0  0  0  0  0
  138.0268   74.2591  221.7684 H   0  0  0  0  0  0  0  0  0  0  0  0
  138.8811   73.1676  220.6593 H   0  0  0  0  0  0  0  0  0  0  0  0
  139.9560   73.1680  223.4840 H   0  0  0  0  0  0  0  0  0  0  0  0
  138.0714   69.0505  222.9822 H   0  0  0  0  0  0  0  0  0  0  0  0
  138.5654   67.4729  224.8453 H   0  0  0  0  0  0  0  0  0  0  0  0
  139.5956   67.1126  227.0102 H   0  0  0  0  0  0  0  0  0  0  0  0
  140.8634   67.8801  228.9634 H   0  0  0  0  0  0  0  0  0  0  0  0
  141.6349   70.2587  229.0426 H   0  0  0  0  0  0  0  0  0  0  0  0
  141.1096   71.7956  227.1564 H   0  0  0  0  0  0  0  0  0  0  0  0
  142.8083   78.5779  222.0507 H   0  0  0  0  0  0  0  0  0  0  0  0
  142.3274   80.2107  223.8037 H   0  0  0  0  0  0  0  0  0  0  0  0
  140.0083   80.5296  224.6345 H   0  0  0  0  0  0  0  0  0  0  0  0
  138.1968   79.1581  223.6388 H   0  0  0  0  0  0  0  0  0  0  0  0
  138.6703   77.5149  221.8716 H   0  0  0  0  0  0  0  0  0  0  0  0
  1  2  1  0
  2  3  1  0
  2  4  1  0
  2  5  1  0
  5  6  1  0
  6  7  1  0
  7  8  1  0
  8  9  2  0
  8 10  1  0
 10 11  1  0
 11 12  1  0
 12 13  2  0
 12 14  1  0
 14 15  2  0
 15 16  1  0
 16 17  2  0
 17 18  1  0
 18 19  2  0
 19 20  1  0
 20 21  2  0
 21 22  1  0
 22 23  2  0
  6 24  1  0
 24 25  2  0
 25 26  1  0
 26 27  2  0
 27 28  1  0
 28 29  2  0
 23 14  1  0
 29 24  1  0
 22 17  1  0
  1 30  1  0
  1 31  1  0
  1 32  1  0
  3 33  1  0
  3 34  1  0
  3 35  1  0
  4 36  1  0
  4 37  1  0
  4 38  1  0
  5 39  1  0
  5 40  1  0
  6 41  1  1
  7 42  1  0
 10 43  1  0
 10 44  1  0
 11 45  1  0
 15 46  1  0
 16 47  1  0
 18 48  1  0
 19 49  1  0
 20 50  1  0
 21 51  1  0
 25 52  1  0
 26 53  1  0
 27 54  1  0
 28 55  1  0
 29 56  1  0
M  END
>  <meeko>  (18) 
{"free_energy": -8.16, "intermolecular_energy": -10.25, "internal_energy": -2.18, "cluster_size": 4, "cluster_id": 4, "rank_in_cluster": 2}

$$$$

     RDKit          3D

 56 58  0  0  0  0  0  0  0  0999 V2000
  141.7940   77.9200  220.4610 C   0  0  0  0  0  0  0  0  0  0  0  0
  140.9660   77.4610  221.6060 C   0  0  0  0  0  0  0  0  0  0  0  0
  139.5380   77.9030  221.3460 C   0  0  0  0  0  0  0  0  0  0  0  0
  141.4090   78.2700  222.8360 C   0  0  0  0  0  0  0  0  0  0  0  0
  141.0760   76.0360  221.9900 C   0  0  0  0  0  0  0  0  0  0  0  0
  141.1360   75.0300  220.9020 C   0  0  2  0  0  0  0  0  0  0  0  0
  140.1530   73.9910  221.2690 N   0  0  0  0  0  0  0  0  0  0  0  0
  138.8000   74.2010  220.8540 C   0  0  0  0  0  0  0  0  0  0  0  0
  138.4480   75.2190  220.2090 O   0  0  0  0  0  0  0  0  0  0  0  0
  137.7300   73.2070  221.1780 C   0  0  0  0  0  0  0  0  0  0  0  0
  138.0950   72.6060  222.4440 N   0  0  0  0  0  0  0  0  0  0  0  0
  139.0650   71.5540  222.5030 C   0  0  0  0  0  0  0  0  0  0  0  0
  139.5620   71.1970  221.4000 O   0  0  0  0  0  0  0  0  0  0  0  0
  139.4430   70.9400  223.7740 C   0  0  0  0  0  0  0  0  0  0  0  0
  139.2390   69.5800  223.9050 C   0  0  0  0  0  0  0  0  0  0  0  0
  139.5730   68.9430  225.0760 C   0  0  0  0  0  0  0  0  0  0  0  0
  140.1130   69.7020  226.1000 C   0  0  0  0  0  0  0  0  0  0  0  0
  140.4750   69.1240  227.3120 C   0  0  0  0  0  0  0  0  0  0  0  0
  141.0100   69.8260  228.3510 C   0  0  0  0  0  0  0  0  0  0  0  0
  141.2010   71.1890  228.1860 C   0  0  0  0  0  0  0  0  0  0  0  0
  140.8490   71.8020  226.9820 C   0  0  0  0  0  0  0  0  0  0  0  0
  140.3140   71.0720  225.9540 C   0  0  0  0  0  0  0  0  0  0  0  0
  139.9680   71.6650  224.7770 N   0  0  0  0  0  0  0  0  0  0  0  0
  142.4090   74.3140  220.7510 C   0  0  0  0  0  0  0  0  0  0  0  0
  143.6130   74.9140  220.4400 C   0  0  0  0  0  0  0  0  0  0  0  0
  144.7920   74.2180  220.3000 C   0  0  0  0  0  0  0  0  0  0  0  0
  144.8250   72.8580  220.4660 C   0  0  0  0  0  0  0  0  0  0  0  0
  143.6450   72.2230  220.7770 C   0  0  0  0  0  0  0  0  0  0  0  0
  142.4590   72.9240  220.9180 C   0  0  0  0  0  0  0  0  0  0  0  0
  142.6974   78.4208  220.8393 H   0  0  0  0  0  0  0  0  0  0  0  0
  142.0843   77.0540  219.8480 H   0  0  0  0  0  0  0  0  0  0  0  0
  141.2134   78.6250  219.8480 H   0  0  0  0  0  0  0  0  0  0  0  0
  139.0231   78.0624  222.3049 H   0  0  0  0  0  0  0  0  0  0  0  0
  139.5434   78.8415  220.7723 H   0  0  0  0  0  0  0  0  0  0  0  0
  139.0122   77.1256  220.7723 H   0  0  0  0  0  0  0  0  0  0  0  0
  141.1161   77.7352  223.7515 H   0  0  0  0  0  0  0  0  0  0  0  0
  142.5017   78.3955  222.8183 H   0  0  0  0  0  0  0  0  0  0  0  0
  140.9261   79.2582  222.8183 H   0  0  0  0  0  0  0  0  0  0  0  0
  141.9925   75.9272  222.5886 H   0  0  0  0  0  0  0  0  0  0  0  0
  140.1360   75.8177  222.5180 H   0  0  0  0  0  0  0  0  0  0  0  0
  140.9644   75.5774  219.9635 H   0  0  0  0  0  0  0  0  0  0  0  0
  140.4320   73.1420  221.8050 H   0  0  0  0  0  0  0  0  0  0  0  0
  136.7563   73.7116  221.2638 H   0  0  0  0  0  0  0  0  0  0  0  0
  137.6418   72.4466  220.3880 H   0  0  0  0  0  0  0  0  0  0  0  0
  137.6890   72.8960  223.3640 H   0  0  0  0  0  0  0  0  0  0  0  0
  138.8087   69.0062  223.0710 H   0  0  0  0  0  0  0  0  0  0  0  0
  139.4157   67.8610  225.1962 H   0  0  0  0  0  0  0  0  0  0  0  0
  140.3214   68.0422  227.4391 H   0  0  0  0  0  0  0  0  0  0  0  0
  141.2820   69.3258  229.2922 H   0  0  0  0  0  0  0  0  0  0  0  0
  141.6297   71.7874  229.0034 H   0  0  0  0  0  0  0  0  0  0  0  0
  141.0032   72.8840  226.8575 H   0  0  0  0  0  0  0  0  0  0  0  0
  143.6308   76.0045  220.2967 H   0  0  0  0  0  0  0  0  0  0  0  0
  145.7173   74.7588  220.0523 H   0  0  0  0  0  0  0  0  0  0  0  0
  145.7626   72.2937  220.3544 H   0  0  0  0  0  0  0  0  0  0  0  0
  143.6434   71.1320  220.9171 H   0  0  0  0  0  0  0  0  0  0  0  0
  141.5370   72.3779  221.1663 H   0  0  0  0  0  0  0  0  0  0  0  0
  1  2  1  0
  2  3  1  0
  2  4  1  0
  2  5  1  0
  5  6  1  0
  6  7  1  0
  7  8  1  0
  8  9  2  0
  8 10  1  0
 10 11  1  0
 11 12  1  0
 12 13  2  0
 12 14  1  0
 14 15  2  0
 15 16  1  0
 16 17  2  0
 17 18  1  0
 18 19  2  0
 19 20  1  0
 20 21  2  0
 21 22  1  0
 22 23  2  0
  6 24  1  0
 24 25  2  0
 25 26  1  0
 26 27  2  0
 27 28  1  0
 28 29  2  0
 23 14  1  0
 29 24  1  0
 22 17  1  0
  1 30  1  0
  1 31  1  0
  1 32  1  0
  3 33  1  0
  3 34  1  0
  3 35  1  0
  4 36  1  0
  4 37  1  0
  4 38  1  0
  5 39  1  0
  5 40  1  0
  6 41  1  6
  7 42  1  0
 10 43  1  0
 10 44  1  0
 11 45  1  0
 15 46  1  0
 16 47  1  0
 18 48  1  0
 19 49  1  0
 20 50  1  0
 21 51  1  0
 25 52  1  0
 26 53  1  0
 27 54  1  0
 28 55  1  0
 29 56  1  0
M  END
>  <meeko>  (19) 
{"free_energy": -7.94, "intermolecular_energy": -10.03, "internal_energy": -2.51, "cluster_size": 9, "cluster_id": 3, "rank_in_cluster": 8}

$$$$

     RDKit          3D

 56 58  0  0  0  0  0  0  0  0999 V2000
  145.7520   73.7620  221.1790 C   0  0  0  0  0  0  0  0  0  0  0  0
  144.7560   73.3400  220.1610 C   0  0  0  0  0  0  0  0  0  0  0  0
  143.8080   72.3600  220.8240 C   0  0  0  0  0  0  0  0  0  0  0  0
  145.5100   72.5070  219.1110 C   0  0  0  0  0  0  0  0  0  0  0  0
  144.0610   74.4120  219.4120 C   0  0  0  0  0  0  0  0  0  0  0  0
  143.0410   75.2090  220.1360 C   0  0  2  0  0  0  0  0  0  0  0  0
  141.7870   74.4380  220.0290 N   0  0  0  0  0  0  0  0  0  0  0  0
  140.8010   74.6570  221.0430 C   0  0  0  0  0  0  0  0  0  0  0  0
  140.9800   75.4650  221.9870 O   0  0  0  0  0  0  0  0  0  0  0  0
  139.4980   73.9230  221.0230 C   0  0  0  0  0  0  0  0  0  0  0  0
  139.4250   73.1800  222.2640 N   0  0  0  0  0  0  0  0  0  0  0  0
  140.1970   71.9890  222.4500 C   0  0  0  0  0  0  0  0  0  0  0  0
  140.9250   71.6440  221.4790 O   0  0  0  0  0  0  0  0  0  0  0  0
  140.1340   71.2300  223.6980 C   0  0  0  0  0  0  0  0  0  0  0  0
  139.5520   69.9780  223.6470 C   0  0  0  0  0  0  0  0  0  0  0  0
  139.4610   69.2150  224.7860 C   0  0  0  0  0  0  0  0  0  0  0  0
  139.9660   69.7380  225.9640 C   0  0  0  0  0  0  0  0  0  0  0  0
  139.9080   69.0210  227.1540 C   0  0  0  0  0  0  0  0  0  0  0  0
  140.3900   69.4910  228.3400 C   0  0  0  0  0  0  0  0  0  0  0  0
  140.9680   70.7500  228.3550 C   0  0  0  0  0  0  0  0  0  0  0  0
  141.0420   71.4980  227.1780 C   0  0  0  0  0  0  0  0  0  0  0  0
  140.5500   71.0010  226.0000 C   0  0  0  0  0  0  0  0  0  0  0  0
  140.6200   71.7260  224.8490 N   0  0  0  0  0  0  0  0  0  0  0  0
  142.7270   76.5270  219.5680 C   0  0  0  0  0  0  0  0  0  0  0  0
  142.9750   76.8960  218.2610 C   0  0  0  0  0  0  0  0  0  0  0  0
  142.6750   78.1410  217.7550 C   0  0  0  0  0  0  0  0  0  0  0  0
  142.1000   79.0980  218.5510 C   0  0  0  0  0  0  0  0  0  0  0  0
  141.8370   78.7680  219.8590 C   0  0  0  0  0  0  0  0  0  0  0  0
  142.1390   77.5160  220.3670 C   0  0  0  0  0  0  0  0  0  0  0  0
  145.3434   73.5889  222.1855 H   0  0  0  0  0  0  0  0  0  0  0  0
  146.6755   73.1778  221.0527 H   0  0  0  0  0  0  0  0  0  0  0  0
  145.9747   74.8318  221.0527 H   0  0  0  0  0  0  0  0  0  0  0  0
  143.8941   72.4490  221.9170 H   0  0  0  0  0  0  0  0  0  0  0  0
  142.7755   72.5845  220.5180 H   0  0  0  0  0  0  0  0  0  0  0  0
  144.0666   71.3356  220.5180 H   0  0  0  0  0  0  0  0  0  0  0  0
  146.1650   71.7834  219.6184 H   0  0  0  0  0  0  0  0  0  0  0  0
  144.7863   71.9682  218.4818 H   0  0  0  0  0  0  0  0  0  0  0  0
  146.1180   73.1736  218.4818 H   0  0  0  0  0  0  0  0  0  0  0  0
  144.8292   75.1117  219.0511 H   0  0  0  0  0  0  0  0  0  0  0  0
  143.4968   73.8835  218.6294 H   0  0  0  0  0  0  0  0  0  0  0  0
  143.4414   75.3823  221.1458 H   0  0  0  0  0  0  0  0  0  0  0  0
  141.6260   73.7640  219.2500 H   0  0  0  0  0  0  0  0  0  0  0  0
  138.6620   74.6348  220.9566 H   0  0  0  0  0  0  0  0  0  0  0  0
  139.4328   73.2523  220.1536 H   0  0  0  0  0  0  0  0  0  0  0  0
  138.8240   73.4590  223.0750 H   0  0  0  0  0  0  0  0  0  0  0  0
  139.1613   69.5918  222.6940 H   0  0  0  0  0  0  0  0  0  0  0  0
  138.9998   68.2166  224.7625 H   0  0  0  0  0  0  0  0  0  0  0  0
  139.4489   68.0215  227.1379 H   0  0  0  0  0  0  0  0  0  0  0  0
  140.3219   68.8883  229.2576 H   0  0  0  0  0  0  0  0  0  0  0  0
  141.3685   71.1603  229.2937 H   0  0  0  0  0  0  0  0  0  0  0  0
  141.5006   72.4977  227.1970 H   0  0  0  0  0  0  0  0  0  0  0  0
  143.4361   76.1572  217.5890 H   0  0  0  0  0  0  0  0  0  0  0  0
  142.8987   78.3699  216.7026 H   0  0  0  0  0  0  0  0  0  0  0  0
  141.8575   80.0957  218.1562 H   0  0  0  0  0  0  0  0  0  0  0  0
  141.3751   79.5173  220.5187 H   0  0  0  0  0  0  0  0  0  0  0  0
  141.9125   77.2932  221.4201 H   0  0  0  0  0  0  0  0  0  0  0  0
  1  2  1  0
  2  3  1  0
  2  4  1  0
  2  5  1  0
  5  6  1  0
  6  7  1  0
  7  8  1  0
  8  9  2  0
  8 10  1  0
 10 11  1  0
 11 12  1  0
 12 13  2  0
 12 14  1  0
 14 15  2  0
 15 16  1  0
 16 17  2  0
 17 18  1  0
 18 19  2  0
 19 20  1  0
 20 21  2  0
 21 22  1  0
 22 23  2  0
  6 24  1  0
 24 25  2  0
 25 26  1  0
 26 27  2  0
 27 28  1  0
 28 29  2  0
 23 14  1  0
 29 24  1  0
 22 17  1  0
  1 30  1  0
  1 31  1  0
  1 32  1  0
  3 33  1  0
  3 34  1  0
  3 35  1  0
  4 36  1  0
  4 37  1  0
  4 38  1  0
  5 39  1  0
  5 40  1  0
  6 41  1  1
  7 42  1  0
 10 43  1  0
 10 44  1  0
 11 45  1  0
 15 46  1  0
 16 47  1  0
 18 48  1  0
 19 49  1  0
 20 50  1  0
 21 51  1  0
 25 52  1  0
 26 53  1  0
 27 54  1  0
 28 55  1  0
 29 56  1  0
M  END
>  <meeko>  (20) 
{"free_energy": -8.87, "intermolecular_energy": -10.96, "internal_energy": -1.71, "cluster_size": 3, "cluster_id": 1, "rank_in_cluster": 1}

$$$$
