
     RDKit          3D

 52 55  0  0  0  0  0  0  0  0999 V2000
  140.2000   70.9080  221.1800 O   0  0  0  0  0  0  0  0  0  0  0  0
  139.9650   71.5060  222.2530 C   0  0  0  0  0  0  0  0  0  0  0  0
  139.7890   72.9030  222.2180 N   0  0  0  0  0  0  0  0  0  0  0  0
  139.8900   73.5800  220.9440 C   0  0  0  0  0  0  0  0  0  0  0  0
  140.6440   74.8680  221.1790 C   0  0  0  0  0  0  0  0  0  0  0  0
  140.5310   75.3410  222.3350 O   0  0  0  0  0  0  0  0  0  0  0  0
  141.3960   75.4360  220.1320 N   0  0  0  0  0  0  0  0  0  0  0  0
  140.9630   76.6410  219.3770 C   0  0  0  0  0  0  0  0  0  0  0  0
  142.2050   77.4920  219.4930 C   0  0  0  0  0  0  0  0  0  0  0  0
  143.3340   76.4710  219.5680 C   0  0  0  0  0  0  0  0  0  0  0  0
  142.6550   75.1170  219.5260 C   0  0  1  0  0  0  0  0  0  0  0  0
  143.4380   73.9970  220.0860 C   0  0  0  0  0  0  0  0  0  0  0  0
  144.8680   74.4580  220.4670 C   0  0  0  0  0  0  0  0  0  0  0  0
  145.5970   73.1610  220.8350 C   0  0  0  0  0  0  0  0  0  0  0  0
  145.9980   72.6060  219.6260 O   0  0  0  0  0  0  0  0  0  0  0  0
  145.0680   72.7910  218.6140 C   0  0  0  0  0  0  0  0  0  0  0  0
  143.6400   72.8600  219.1000 C   0  0  0  0  0  0  0  0  0  0  0  0
  139.8720   70.7800  223.5180 C   0  0  0  0  0  0  0  0  0  0  0  0
  139.2600   69.5240  223.5260 C   0  0  0  0  0  0  0  0  0  0  0  0
  139.1700   68.8390  224.7080 C   0  0  0  0  0  0  0  0  0  0  0  0
  139.6830   69.3970  225.8600 C   0  0  0  0  0  0  0  0  0  0  0  0
  139.5940   68.7060  227.0610 C   0  0  0  0  0  0  0  0  0  0  0  0
  140.1110   69.2720  228.2180 C   0  0  0  0  0  0  0  0  0  0  0  0
  140.0060   68.5720  229.3580 F   0  0  0  0  0  0  0  0  0  0  0  0
  140.7160   70.5230  228.1880 C   0  0  0  0  0  0  0  0  0  0  0  0
  140.8100   71.2220  226.9920 C   0  0  0  0  0  0  0  0  0  0  0  0
  140.2920   70.6510  225.8460 C   0  0  0  0  0  0  0  0  0  0  0  0
  140.3600   71.2940  224.6530 N   0  0  0  0  0  0  0  0  0  0  0  0
  139.5920   73.4120  223.1190 H   0  0  0  0  0  0  0  0  0  0  0  0
  140.4349   72.9504  220.2252 H   0  0  0  0  0  0  0  0  0  0  0  0
  138.8912   73.7830  220.5303 H   0  0  0  0  0  0  0  0  0  0  0  0
  140.7293   76.4025  218.3289 H   0  0  0  0  0  0  0  0  0  0  0  0
  140.0437   77.1141  219.7524 H   0  0  0  0  0  0  0  0  0  0  0  0
  142.3202   78.1407  218.6121 H   0  0  0  0  0  0  0  0  0  0  0  0
  142.1809   78.1668  220.3614 H   0  0  0  0  0  0  0  0  0  0  0  0
  144.0151   76.5867  218.7120 H   0  0  0  0  0  0  0  0  0  0  0  0
  143.9399   76.5969  220.4774 H   0  0  0  0  0  0  0  0  0  0  0  0
  142.5342   74.6841  218.5220 H   0  0  0  0  0  0  0  0  0  0  0  0
  142.8551   73.6564  220.9544 H   0  0  0  0  0  0  0  0  0  0  0  0
  145.3581   74.9526  219.6154 H   0  0  0  0  0  0  0  0  0  0  0  0
  144.8695   75.1893  221.2887 H   0  0  0  0  0  0  0  0  0  0  0  0
  146.4706   73.3770  221.4677 H   0  0  0  0  0  0  0  0  0  0  0  0
  144.9510   72.4766  221.4044 H   0  0  0  0  0  0  0  0  0  0  0  0
  145.3031   73.7322  218.0954 H   0  0  0  0  0  0  0  0  0  0  0  0
  145.1379   71.9151  217.9523 H   0  0  0  0  0  0  0  0  0  0  0  0
  142.9764   73.0145  218.2365 H   0  0  0  0  0  0  0  0  0  0  0  0
  143.4056   71.9153  219.6124 H   0  0  0  0  0  0  0  0  0  0  0  0
  138.8571   69.0926  222.5978 H   0  0  0  0  0  0  0  0  0  0  0  0
  138.6912   67.8491  224.7386 H   0  0  0  0  0  0  0  0  0  0  0  0
  139.1165   67.7157  227.0953 H   0  0  0  0  0  0  0  0  0  0  0  0
  141.1208   70.9598  229.1129 H   0  0  0  0  0  0  0  0  0  0  0  0
  141.2881   72.2121  226.9578 H   0  0  0  0  0  0  0  0  0  0  0  0
  1  2  2  0
  2  3  1  0
  3  4  1  0
  4  5  1  0
  5  6  2  0
  5  7  1  0
  7  8  1  0
  8  9  1  0
  9 10  1  0
 10 11  1  0
 11 12  1  0
 12 13  1  0
 13 14  1  0
 14 15  1  0
 15 16  1  0
 16 17  1  0
  2 18  1  0
 18 19  2  0
 19 20  1  0
 20 21  2  0
 21 22  1  0
 22 23  2  0
 23 24  1  0
 23 25  1  0
 25 26  2  0
 26 27  1  0
 27 28  2  0
 11  7  1  0
 17 12  1  0
 28 18  1  0
 27 21  1  0
  3 29  1  0
  4 30  1  0
  4 31  1  0
  8 32  1  0
  8 33  1  0
  9 34  1  0
  9 35  1  0
 10 36  1  0
 10 37  1  0
 11 38  1  6
 12 39  1  0
 13 40  1  0
 13 41  1  0
 14 42  1  0
 14 43  1  0
 16 44  1  0
 16 45  1  0
 17 46  1  0
 17 47  1  0
 19 48  1  0
 20 49  1  0
 22 50  1  0
 25 51  1  0
 26 52  1  0
M  END
>  <meeko>  (1) 
{"free_energy": -8.55, "intermolecular_energy": -10.04, "internal_energy": -1.9, "cluster_size": 13, "cluster_id": 2, "rank_in_cluster": 6}

$$$$

     RDKit          3D

 52 55  0  0  0  0  0  0  0  0999 V2000
  140.1700   70.9500  221.1640 O   0  0  0  0  0  0  0  0  0  0  0  0
  139.9450   71.5440  222.2410 C   0  0  0  0  0  0  0  0  0  0  0  0
  139.7730   72.9410  222.2150 N   0  0  0  0  0  0  0  0  0  0  0  0
  139.8660   73.6240  220.9440 C   0  0  0  0  0  0  0  0  0  0  0  0
  140.6550   74.8920  221.1730 C   0  0  0  0  0  0  0  0  0  0  0  0
  140.5920   75.3470  222.3400 O   0  0  0  0  0  0  0  0  0  0  0  0
  141.3810   75.4630  220.1100 N   0  0  0  0  0  0  0  0  0  0  0  0
  140.9380   76.6800  219.3790 C   0  0  0  0  0  0  0  0  0  0  0  0
  142.1920   77.5160  219.4660 C   0  0  0  0  0  0  0  0  0  0  0  0
  143.3110   76.4830  219.4970 C   0  0  0  0  0  0  0  0  0  0  0  0
  142.6170   75.1370  219.4630 C   0  0  1  0  0  0  0  0  0  0  0  0
  143.4060   74.0030  219.9890 C   0  0  0  0  0  0  0  0  0  0  0  0
  144.8000   74.4760  220.4730 C   0  0  0  0  0  0  0  0  0  0  0  0
  145.5480   73.1780  220.7920 C   0  0  0  0  0  0  0  0  0  0  0  0
  146.0260   72.7160  219.5730 O   0  0  0  0  0  0  0  0  0  0  0  0
  145.1430   72.9420  218.5280 C   0  0  0  0  0  0  0  0  0  0  0  0
  143.6900   72.9410  218.9430 C   0  0  0  0  0  0  0  0  0  0  0  0
  139.8600   70.8110  223.5040 C   0  0  0  0  0  0  0  0  0  0  0  0
  139.2730   69.5430  223.5030 C   0  0  0  0  0  0  0  0  0  0  0  0
  139.1910   68.8520  224.6820 C   0  0  0  0  0  0  0  0  0  0  0  0
  139.6860   69.4160  225.8390 C   0  0  0  0  0  0  0  0  0  0  0  0
  139.6050   68.7190  227.0380 C   0  0  0  0  0  0  0  0  0  0  0  0
  140.1040   69.2910  228.1990 C   0  0  0  0  0  0  0  0  0  0  0  0
  140.0070   68.5850  229.3360 F   0  0  0  0  0  0  0  0  0  0  0  0
  140.6840   70.5530  228.1770 C   0  0  0  0  0  0  0  0  0  0  0  0
  140.7700   71.2590  226.9840 C   0  0  0  0  0  0  0  0  0  0  0  0
  140.2700   70.6820  225.8330 C   0  0  0  0  0  0  0  0  0  0  0  0
  140.3320   71.3310  224.6430 N   0  0  0  0  0  0  0  0  0  0  0  0
  139.5830   73.4460  223.1200 H   0  0  0  0  0  0  0  0  0  0  0  0
  140.3820   72.9866  220.2108 H   0  0  0  0  0  0  0  0  0  0  0  0
  138.8647   73.8536  220.5507 H   0  0  0  0  0  0  0  0  0  0  0  0
  140.6707   76.4540  218.3362 H   0  0  0  0  0  0  0  0  0  0  0  0
  140.0352   77.1592  219.7856 H   0  0  0  0  0  0  0  0  0  0  0  0
  142.2879   78.1724  218.5885 H   0  0  0  0  0  0  0  0  0  0  0  0
  142.2013   78.1820  220.3414 H   0  0  0  0  0  0  0  0  0  0  0  0
  143.9671   76.5999  218.6218 H   0  0  0  0  0  0  0  0  0  0  0  0
  143.9454   76.5937  220.3888 H   0  0  0  0  0  0  0  0  0  0  0  0
  142.4608   74.7149  218.4593 H   0  0  0  0  0  0  0  0  0  0  0  0
  142.7920   73.5894  220.8026 H   0  0  0  0  0  0  0  0  0  0  0  0
  145.3168   75.0397  219.6824 H   0  0  0  0  0  0  0  0  0  0  0  0
  144.7383   75.1504  221.3398 H   0  0  0  0  0  0  0  0  0  0  0  0
  146.3816   73.3744  221.4823 H   0  0  0  0  0  0  0  0  0  0  0  0
  144.8946   72.4400  221.2803 H   0  0  0  0  0  0  0  0  0  0  0  0
  145.3756   73.9210  218.0836 H   0  0  0  0  0  0  0  0  0  0  0  0
  145.2722   72.1136  217.8160 H   0  0  0  0  0  0  0  0  0  0  0  0
  143.0661   73.1358  218.0582 H   0  0  0  0  0  0  0  0  0  0  0  0
  143.4580   71.9583  219.3793 H   0  0  0  0  0  0  0  0  0  0  0  0
  138.8835   69.1075  222.5710 H   0  0  0  0  0  0  0  0  0  0  0  0
  138.7327   67.8523  224.7063 H   0  0  0  0  0  0  0  0  0  0  0  0
  139.1476   67.7190  227.0665 H   0  0  0  0  0  0  0  0  0  0  0  0
  141.0757   70.9938  229.1056 H   0  0  0  0  0  0  0  0  0  0  0  0
  141.2277   72.2589  226.9563 H   0  0  0  0  0  0  0  0  0  0  0  0
  1  2  2  0
  2  3  1  0
  3  4  1  0
  4  5  1  0
  5  6  2  0
  5  7  1  0
  7  8  1  0
  8  9  1  0
  9 10  1  0
 10 11  1  0
 11 12  1  0
 12 13  1  0
 13 14  1  0
 14 15  1  0
 15 16  1  0
 16 17  1  0
  2 18  1  0
 18 19  2  0
 19 20  1  0
 20 21  2  0
 21 22  1  0
 22 23  2  0
 23 24  1  0
 23 25  1  0
 25 26  2  0
 26 27  1  0
 27 28  2  0
 11  7  1  0
 17 12  1  0
 28 18  1  0
 27 21  1  0
  3 29  1  0
  4 30  1  0
  4 31  1  0
  8 32  1  0
  8 33  1  0
  9 34  1  0
  9 35  1  0
 10 36  1  0
 10 37  1  0
 11 38  1  6
 12 39  1  0
 13 40  1  0
 13 41  1  0
 14 42  1  0
 14 43  1  0
 16 44  1  0
 16 45  1  0
 17 46  1  0
 17 47  1  0
 19 48  1  0
 20 49  1  0
 22 50  1  0
 25 51  1  0
 26 52  1  0
M  END
>  <meeko>  (2) 
{"free_energy": -8.54, "intermolecular_energy": -10.04, "internal_energy": -1.9, "cluster_size": 13, "cluster_id": 2, "rank_in_cluster": 9}

$$$$

     RDKit          3D

 52 55  0  0  0  0  0  0  0  0999 V2000
  141.2600   72.2880  221.6370 O   0  0  0  0  0  0  0  0  0  0  0  0
  140.3590   72.4550  222.4870 C   0  0  0  0  0  0  0  0  0  0  0  0
  139.4710   73.5350  222.3220 N   0  0  0  0  0  0  0  0  0  0  0  0
  139.6440   74.4010  221.1760 C   0  0  0  0  0  0  0  0  0  0  0  0
  140.2310   75.6990  221.6800 C   0  0  0  0  0  0  0  0  0  0  0  0
  141.4320   75.6310  222.0340 O   0  0  0  0  0  0  0  0  0  0  0  0
  139.4300   76.8570  221.7210 N   0  0  0  0  0  0  0  0  0  0  0  0
  137.9610   76.8420  221.4920 C   0  0  0  0  0  0  0  0  0  0  0  0
  137.4910   77.5940  222.7140 C   0  0  0  0  0  0  0  0  0  0  0  0
  138.6430   78.5430  223.0160 C   0  0  0  0  0  0  0  0  0  0  0  0
  139.6980   78.2420  221.9710 C   0  0  1  0  0  0  0  0  0  0  0  0
  141.0770   78.6360  222.3290 C   0  0  0  0  0  0  0  0  0  0  0  0
  141.1080   79.3510  223.7040 C   0  0  0  0  0  0  0  0  0  0  0  0
  142.5480   79.8610  223.8300 C   0  0  0  0  0  0  0  0  0  0  0  0
  142.5840   81.0480  223.1090 O   0  0  0  0  0  0  0  0  0  0  0  0
  141.8040   81.0050  221.9640 C   0  0  0  0  0  0  0  0  0  0  0  0
  141.6840   79.6280  221.3540 C   0  0  0  0  0  0  0  0  0  0  0  0
  140.2220   71.5530  223.6300 C   0  0  0  0  0  0  0  0  0  0  0  0
  139.5960   70.3190  223.4380 C   0  0  0  0  0  0  0  0  0  0  0  0
  139.4660   69.4710  224.5050 C   0  0  0  0  0  0  0  0  0  0  0  0
  139.9530   69.8470  225.7390 C   0  0  0  0  0  0  0  0  0  0  0  0
  139.8230   68.9900  226.8240 C   0  0  0  0  0  0  0  0  0  0  0  0
  140.3150   69.3730  228.0640 C   0  0  0  0  0  0  0  0  0  0  0  0
  140.1700   68.5160  229.0860 F   0  0  0  0  0  0  0  0  0  0  0  0
  140.9340   70.6050  228.2330 C   0  0  0  0  0  0  0  0  0  0  0  0
  141.0700   71.4700  227.1550 C   0  0  0  0  0  0  0  0  0  0  0  0
  140.5770   71.0800  225.9240 C   0  0  0  0  0  0  0  0  0  0  0  0
  140.6850   71.8890  224.8400 N   0  0  0  0  0  0  0  0  0  0  0  0
  138.7100   73.6810  223.0360 H   0  0  0  0  0  0  0  0  0  0  0  0
  140.3276   73.9347  220.4513 H   0  0  0  0  0  0  0  0  0  0  0  0
  138.6824   74.5776  220.6718 H   0  0  0  0  0  0  0  0  0  0  0  0
  137.6884   77.3639  220.5629 H   0  0  0  0  0  0  0  0  0  0  0  0
  137.5236   75.8400  221.3710 H   0  0  0  0  0  0  0  0  0  0  0  0
  136.5678   78.1526  222.5003 H   0  0  0  0  0  0  0  0  0  0  0  0
  137.2515   76.9305  223.5581 H   0  0  0  0  0  0  0  0  0  0  0  0
  138.3108   79.5887  222.9372 H   0  0  0  0  0  0  0  0  0  0  0  0
  139.0284   78.4060  224.0371 H   0  0  0  0  0  0  0  0  0  0  0  0
  139.6381   78.8484  221.0552 H   0  0  0  0  0  0  0  0  0  0  0  0
  141.6461   77.6947  222.3263 H   0  0  0  0  0  0  0  0  0  0  0  0
  140.3945   80.1879  223.7247 H   0  0  0  0  0  0  0  0  0  0  0  0
  140.8228   78.6851  224.5318 H   0  0  0  0  0  0  0  0  0  0  0  0
  142.8005   80.0438  224.8849 H   0  0  0  0  0  0  0  0  0  0  0  0
  143.2757   79.1292  223.4493 H   0  0  0  0  0  0  0  0  0  0  0  0
  140.7945   81.3593  222.2196 H   0  0  0  0  0  0  0  0  0  0  0  0
  142.2998   81.6421  221.2169 H   0  0  0  0  0  0  0  0  0  0  0  0
  141.0445   79.6877  220.4610 H   0  0  0  0  0  0  0  0  0  0  0  0
  142.6936   79.2787  221.0917 H   0  0  0  0  0  0  0  0  0  0  0  0
  139.2141   70.0336  222.4467 H   0  0  0  0  0  0  0  0  0  0  0  0
  138.9755   68.4946  224.3785 H   0  0  0  0  0  0  0  0  0  0  0  0
  139.3328   68.0130  226.7013 H   0  0  0  0  0  0  0  0  0  0  0  0
  141.3171   70.8960  229.2222 H   0  0  0  0  0  0  0  0  0  0  0  0
  141.5607   72.4467  227.2785 H   0  0  0  0  0  0  0  0  0  0  0  0
  1  2  2  0
  2  3  1  0
  3  4  1  0
  4  5  1  0
  5  6  2  0
  5  7  1  0
  7  8  1  0
  8  9  1  0
  9 10  1  0
 10 11  1  0
 11 12  1  0
 12 13  1  0
 13 14  1  0
 14 15  1  0
 15 16  1  0
 16 17  1  0
  2 18  1  0
 18 19  2  0
 19 20  1  0
 20 21  2  0
 21 22  1  0
 22 23  2  0
 23 24  1  0
 23 25  1  0
 25 26  2  0
 26 27  1  0
 27 28  2  0
 11  7  1  0
 17 12  1  0
 28 18  1  0
 27 21  1  0
  3 29  1  0
  4 30  1  0
  4 31  1  0
  8 32  1  0
  8 33  1  0
  9 34  1  0
  9 35  1  0
 10 36  1  0
 10 37  1  0
 11 38  1  6
 12 39  1  0
 13 40  1  0
 13 41  1  0
 14 42  1  0
 14 43  1  0
 16 44  1  0
 16 45  1  0
 17 46  1  0
 17 47  1  0
 19 48  1  0
 20 49  1  0
 22 50  1  0
 25 51  1  0
 26 52  1  0
M  END
>  <meeko>  (3) 
{"free_energy": -8.68, "intermolecular_energy": -10.17, "internal_energy": -1.2, "cluster_size": 6, "cluster_id": 1, "rank_in_cluster": 5}

$$$$

     RDKit          3D

 52 55  0  0  0  0  0  0  0  0999 V2000
  140.9860   71.9670  221.2960 O   0  0  0  0  0  0  0  0  0  0  0  0
  140.4290   72.4000  222.3290 C   0  0  0  0  0  0  0  0  0  0  0  0
  139.9930   73.7390  222.3450 N   0  0  0  0  0  0  0  0  0  0  0  0
  140.2120   74.5500  221.1680 C   0  0  0  0  0  0  0  0  0  0  0  0
  140.4910   75.9590  221.6390 C   0  0  0  0  0  0  0  0  0  0  0  0
  139.8570   76.3050  222.6650 O   0  0  0  0  0  0  0  0  0  0  0  0
  141.4040   76.7630  220.9310 N   0  0  0  0  0  0  0  0  0  0  0  0
  142.2030   76.2690  219.7790 C   0  0  0  0  0  0  0  0  0  0  0  0
  141.8900   77.3370  218.7580 C   0  0  0  0  0  0  0  0  0  0  0  0
  141.6560   78.5840  219.6030 C   0  0  0  0  0  0  0  0  0  0  0  0
  141.8160   78.1310  221.0400 C   0  0  1  0  0  0  0  0  0  0  0  0
  141.1550   78.9840  222.0500 C   0  0  0  0  0  0  0  0  0  0  0  0
  141.2600   80.4810  221.6640 C   0  0  0  0  0  0  0  0  0  0  0  0
  140.7160   81.2240  222.8890 C   0  0  0  0  0  0  0  0  0  0  0  0
  141.7750   81.2860  223.7860 O   0  0  0  0  0  0  0  0  0  0  0  0
  142.5560   80.1410  223.7750 C   0  0  0  0  0  0  0  0  0  0  0  0
  141.7960   78.8840  223.4230 C   0  0  0  0  0  0  0  0  0  0  0  0
  140.2280   71.5420  223.4960 C   0  0  0  0  0  0  0  0  0  0  0  0
  139.5670   70.3230  223.3260 C   0  0  0  0  0  0  0  0  0  0  0  0
  139.3770   69.5170  224.4150 C   0  0  0  0  0  0  0  0  0  0  0  0
  139.8400   69.9180  225.6500 C   0  0  0  0  0  0  0  0  0  0  0  0
  139.6500   69.1030  226.7590 C   0  0  0  0  0  0  0  0  0  0  0  0
  140.1170   69.5110  227.9990 C   0  0  0  0  0  0  0  0  0  0  0  0
  139.9140   68.6950  229.0440 F   0  0  0  0  0  0  0  0  0  0  0  0
  140.7720   70.7280  228.1460 C   0  0  0  0  0  0  0  0  0  0  0  0
  140.9680   71.5510  227.0450 C   0  0  0  0  0  0  0  0  0  0  0  0
  140.4990   71.1350  225.8140 C   0  0  0  0  0  0  0  0  0  0  0  0
  140.6660   71.9040  224.7080 N   0  0  0  0  0  0  0  0  0  0  0  0
  139.5240   74.1090  223.2120 H   0  0  0  0  0  0  0  0  0  0  0  0
  141.0723   74.1654  220.6005 H   0  0  0  0  0  0  0  0  0  0  0  0
  139.3313   74.5266  220.5093 H   0  0  0  0  0  0  0  0  0  0  0  0
  143.2770   76.2325  220.0140 H   0  0  0  0  0  0  0  0  0  0  0  0
  141.9669   75.2430  219.4603 H   0  0  0  0  0  0  0  0  0  0  0  0
  142.7357   77.4821  218.0697 H   0  0  0  0  0  0  0  0  0  0  0  0
  141.0277   77.0825  218.1242 H   0  0  0  0  0  0  0  0  0  0  0  0
  142.3973   79.3592  219.3589 H   0  0  0  0  0  0  0  0  0  0  0  0
  140.6639   79.0224  219.4199 H   0  0  0  0  0  0  0  0  0  0  0  0
  142.8314   78.2260  221.4522 H   0  0  0  0  0  0  0  0  0  0  0  0
  140.1155   78.6255  222.0814 H   0  0  0  0  0  0  0  0  0  0  0  0
  142.3058   80.7615  221.4702 H   0  0  0  0  0  0  0  0  0  0  0  0
  140.7039   80.7193  220.7453 H   0  0  0  0  0  0  0  0  0  0  0  0
  140.3884   82.2365  222.6104 H   0  0  0  0  0  0  0  0  0  0  0  0
  139.8437   80.7128  223.3222 H   0  0  0  0  0  0  0  0  0  0  0  0
  143.3601   80.2775  223.0369 H   0  0  0  0  0  0  0  0  0  0  0  0
  142.9389   80.0064  224.7974 H   0  0  0  0  0  0  0  0  0  0  0  0
  142.4919   78.0322  223.4308 H   0  0  0  0  0  0  0  0  0  0  0  0
  140.9971   78.7456  224.1663 H   0  0  0  0  0  0  0  0  0  0  0  0
  139.2055   70.0165  222.3334 H   0  0  0  0  0  0  0  0  0  0  0  0
  138.8573   68.5537  224.3057 H   0  0  0  0  0  0  0  0  0  0  0  0
  139.1315   68.1386  226.6537 H   0  0  0  0  0  0  0  0  0  0  0  0
  141.1357   71.0397  229.1362 H   0  0  0  0  0  0  0  0  0  0  0  0
  141.4865   72.5153  227.1509 H   0  0  0  0  0  0  0  0  0  0  0  0
  1  2  2  0
  2  3  1  0
  3  4  1  0
  4  5  1  0
  5  6  2  0
  5  7  1  0
  7  8  1  0
  8  9  1  0
  9 10  1  0
 10 11  1  0
 11 12  1  0
 12 13  1  0
 13 14  1  0
 14 15  1  0
 15 16  1  0
 16 17  1  0
  2 18  1  0
 18 19  2  0
 19 20  1  0
 20 21  2  0
 21 22  1  0
 22 23  2  0
 23 24  1  0
 23 25  1  0
 25 26  2  0
 26 27  1  0
 27 28  2  0
 11  7  1  0
 17 12  1  0
 28 18  1  0
 27 21  1  0
  3 29  1  0
  4 30  1  0
  4 31  1  0
  8 32  1  0
  8 33  1  0
  9 34  1  0
  9 35  1  0
 10 36  1  0
 10 37  1  0
 11 38  1  1
 12 39  1  0
 13 40  1  0
 13 41  1  0
 14 42  1  0
 14 43  1  0
 16 44  1  0
 16 45  1  0
 17 46  1  0
 17 47  1  0
 19 48  1  0
 20 49  1  0
 22 50  1  0
 25 51  1  0
 26 52  1  0
M  END
>  <meeko>  (4) 
{"free_energy": -8.71, "intermolecular_energy": -10.2, "internal_energy": -1.69, "cluster_size": 6, "cluster_id": 1, "rank_in_cluster": 4}

$$$$

     RDKit          3D

 52 55  0  0  0  0  0  0  0  0999 V2000
  140.1710   70.8730  221.2050 O   0  0  0  0  0  0  0  0  0  0  0  0
  139.9680   71.4810  222.2780 C   0  0  0  0  0  0  0  0  0  0  0  0
  139.8320   72.8820  222.2410 N   0  0  0  0  0  0  0  0  0  0  0  0
  139.9340   73.5520  220.9630 C   0  0  0  0  0  0  0  0  0  0  0  0
  140.6270   74.8730  221.2030 C   0  0  0  0  0  0  0  0  0  0  0  0
  140.4490   75.3600  222.3450 O   0  0  0  0  0  0  0  0  0  0  0  0
  141.3960   75.4540  220.1760 N   0  0  0  0  0  0  0  0  0  0  0  0
  140.9570   76.6450  219.4020 C   0  0  0  0  0  0  0  0  0  0  0  0
  142.1760   77.5240  219.5500 C   0  0  0  0  0  0  0  0  0  0  0  0
  143.3250   76.5300  219.6630 C   0  0  0  0  0  0  0  0  0  0  0  0
  142.6790   75.1610  219.6090 C   0  0  1  0  0  0  0  0  0  0  0  0
  143.4710   74.0620  220.1980 C   0  0  0  0  0  0  0  0  0  0  0  0
  144.9320   74.5110  220.4580 C   0  0  0  0  0  0  0  0  0  0  0  0
  145.6530   73.2230  220.8720 C   0  0  0  0  0  0  0  0  0  0  0  0
  145.9670   72.5760  219.6830 O   0  0  0  0  0  0  0  0  0  0  0  0
  144.9800   72.7150  218.7190 C   0  0  0  0  0  0  0  0  0  0  0  0
  143.5860   72.8550  219.2840 C   0  0  0  0  0  0  0  0  0  0  0  0
  139.8720   70.7620  223.5480 C   0  0  0  0  0  0  0  0  0  0  0  0
  139.2960   69.4890  223.5540 C   0  0  0  0  0  0  0  0  0  0  0  0
  139.2040   68.8110  224.7390 C   0  0  0  0  0  0  0  0  0  0  0  0
  139.6790   69.3920  225.8960 C   0  0  0  0  0  0  0  0  0  0  0  0
  139.5880   68.7080  227.1020 C   0  0  0  0  0  0  0  0  0  0  0  0
  140.0670   69.2970  228.2630 C   0  0  0  0  0  0  0  0  0  0  0  0
  139.9610   68.6030  229.4060 F   0  0  0  0  0  0  0  0  0  0  0  0
  140.6370   70.5640  228.2340 C   0  0  0  0  0  0  0  0  0  0  0  0
  140.7330   71.2570  227.0350 C   0  0  0  0  0  0  0  0  0  0  0  0
  140.2530   70.6620  225.8830 C   0  0  0  0  0  0  0  0  0  0  0  0
  140.3250   71.2980  224.6870 N   0  0  0  0  0  0  0  0  0  0  0  0
  139.6610   73.4000  223.1430 H   0  0  0  0  0  0  0  0  0  0  0  0
  140.5218   72.9401  220.2629 H   0  0  0  0  0  0  0  0  0  0  0  0
  138.9374   73.7087  220.5245 H   0  0  0  0  0  0  0  0  0  0  0  0
  140.7595   76.3963  218.3488 H   0  0  0  0  0  0  0  0  0  0  0  0
  140.0163   77.0987  219.7473 H   0  0  0  0  0  0  0  0  0  0  0  0
  142.3022   78.1714  218.6697 H   0  0  0  0  0  0  0  0  0  0  0  0
  142.1112   78.2014  220.4142 H   0  0  0  0  0  0  0  0  0  0  0  0
  144.0277   76.6573  218.8263 H   0  0  0  0  0  0  0  0  0  0  0  0
  143.9013   76.6743  220.5888 H   0  0  0  0  0  0  0  0  0  0  0  0
  142.5976   74.7202  218.6045 H   0  0  0  0  0  0  0  0  0  0  0  0
  142.9363   73.7972  221.1221 H   0  0  0  0  0  0  0  0  0  0  0  0
  145.3790   74.9323  219.5454 H   0  0  0  0  0  0  0  0  0  0  0  0
  145.0012   75.2975  221.2239 H   0  0  0  0  0  0  0  0  0  0  0  0
  146.5682   73.4585  221.4351 H   0  0  0  0  0  0  0  0  0  0  0  0
  145.0277   72.5966  221.5252 H   0  0  0  0  0  0  0  0  0  0  0  0
  145.2031   73.6116  218.1220 H   0  0  0  0  0  0  0  0  0  0  0  0
  144.9893   71.7936  218.1182 H   0  0  0  0  0  0  0  0  0  0  0  0
  142.8739   72.9674  218.4532 H   0  0  0  0  0  0  0  0  0  0  0  0
  143.3624   71.9542  219.8745 H   0  0  0  0  0  0  0  0  0  0  0  0
  138.9229   69.0395  222.6220 H   0  0  0  0  0  0  0  0  0  0  0  0
  138.7536   67.8079  224.7686 H   0  0  0  0  0  0  0  0  0  0  0  0
  139.1384   67.7046  227.1360 H   0  0  0  0  0  0  0  0  0  0  0  0
  141.0127   71.0185  229.1626 H   0  0  0  0  0  0  0  0  0  0  0  0
  141.1824   72.2605  227.0021 H   0  0  0  0  0  0  0  0  0  0  0  0
  1  2  2  0
  2  3  1  0
  3  4  1  0
  4  5  1  0
  5  6  2  0
  5  7  1  0
  7  8  1  0
  8  9  1  0
  9 10  1  0
 10 11  1  0
 11 12  1  0
 12 13  1  0
 13 14  1  0
 14 15  1  0
 15 16  1  0
 16 17  1  0
  2 18  1  0
 18 19  2  0
 19 20  1  0
 20 21  2  0
 21 22  1  0
 22 23  2  0
 23 24  1  0
 23 25  1  0
 25 26  2  0
 26 27  1  0
 27 28  2  0
 11  7  1  0
 17 12  1  0
 28 18  1  0
 27 21  1  0
  3 29  1  0
  4 30  1  0
  4 31  1  0
  8 32  1  0
  8 33  1  0
  9 34  1  0
  9 35  1  0
 10 36  1  0
 10 37  1  0
 11 38  1  6
 12 39  1  0
 13 40  1  0
 13 41  1  0
 14 42  1  0
 14 43  1  0
 16 44  1  0
 16 45  1  0
 17 46  1  0
 17 47  1  0
 19 48  1  0
 20 49  1  0
 22 50  1  0
 25 51  1  0
 26 52  1  0
M  END
>  <meeko>  (5) 
{"free_energy": -8.48, "intermolecular_energy": -9.97, "internal_energy": -1.94, "cluster_size": 13, "cluster_id": 2, "rank_in_cluster": 11}

$$$$

     RDKit          3D

 52 55  0  0  0  0  0  0  0  0999 V2000
  140.2290   70.9130  221.1790 O   0  0  0  0  0  0  0  0  0  0  0  0
  139.9890   71.5100  222.2510 C   0  0  0  0  0  0  0  0  0  0  0  0
  139.8150   72.9070  222.2170 N   0  0  0  0  0  0  0  0  0  0  0  0
  139.9240   73.5850  220.9450 C   0  0  0  0  0  0  0  0  0  0  0  0
  140.7110   74.8540  221.1780 C   0  0  0  0  0  0  0  0  0  0  0  0
  140.6470   75.3050  222.3470 O   0  0  0  0  0  0  0  0  0  0  0  0
  141.4360   75.4300  220.1170 N   0  0  0  0  0  0  0  0  0  0  0  0
  141.0090   76.6690  219.4150 C   0  0  0  0  0  0  0  0  0  0  0  0
  142.2800   77.4780  219.5020 C   0  0  0  0  0  0  0  0  0  0  0  0
  143.3790   76.4230  219.5010 C   0  0  0  0  0  0  0  0  0  0  0  0
  142.6580   75.0920  219.4500 C   0  0  1  0  0  0  0  0  0  0  0  0
  143.4300   73.9330  219.9450 C   0  0  0  0  0  0  0  0  0  0  0  0
  144.8190   74.3770  220.4690 C   0  0  0  0  0  0  0  0  0  0  0  0
  145.5520   73.0620  220.7520 C   0  0  0  0  0  0  0  0  0  0  0  0
  146.0480   72.6420  219.5240 O   0  0  0  0  0  0  0  0  0  0  0  0
  145.1840   72.9150  218.4740 C   0  0  0  0  0  0  0  0  0  0  0  0
  143.7240   72.9090  218.8650 C   0  0  0  0  0  0  0  0  0  0  0  0
  139.8880   70.7820  223.5150 C   0  0  0  0  0  0  0  0  0  0  0  0
  139.2760   69.5260  223.5180 C   0  0  0  0  0  0  0  0  0  0  0  0
  139.1790   68.8400  224.6980 C   0  0  0  0  0  0  0  0  0  0  0  0
  139.6850   69.3970  225.8540 C   0  0  0  0  0  0  0  0  0  0  0  0
  139.5880   68.7050  227.0540 C   0  0  0  0  0  0  0  0  0  0  0  0
  140.0990   69.2690  228.2140 C   0  0  0  0  0  0  0  0  0  0  0  0
  139.9870   68.5680  229.3530 F   0  0  0  0  0  0  0  0  0  0  0  0
  140.7040   70.5190  228.1900 C   0  0  0  0  0  0  0  0  0  0  0  0
  140.8060   71.2200  226.9950 C   0  0  0  0  0  0  0  0  0  0  0  0
  140.2950   70.6500  225.8450 C   0  0  0  0  0  0  0  0  0  0  0  0
  140.3700   71.2950  224.6540 N   0  0  0  0  0  0  0  0  0  0  0  0
  139.6130   73.4150  223.1180 H   0  0  0  0  0  0  0  0  0  0  0  0
  140.4485   72.9444  220.2207 H   0  0  0  0  0  0  0  0  0  0  0  0
  138.9276   73.8138  220.5391 H   0  0  0  0  0  0  0  0  0  0  0  0
  140.7246   76.4684  218.3715 H   0  0  0  0  0  0  0  0  0  0  0  0
  140.1211   77.1581  219.8420 H   0  0  0  0  0  0  0  0  0  0  0  0
  142.3787   78.1483  218.6354 H   0  0  0  0  0  0  0  0  0  0  0  0
  142.3126   78.1274  220.3893 H   0  0  0  0  0  0  0  0  0  0  0  0
  144.0275   76.5435  218.6207 H   0  0  0  0  0  0  0  0  0  0  0  0
  144.0255   76.5046  220.3872 H   0  0  0  0  0  0  0  0  0  0  0  0
  142.4821   74.6920  218.4405 H   0  0  0  0  0  0  0  0  0  0  0  0
  142.7994   73.4936  220.7319 H   0  0  0  0  0  0  0  0  0  0  0  0
  145.3530   74.9654  219.7083 H   0  0  0  0  0  0  0  0  0  0  0  0
  144.7478   75.0196  221.3590 H   0  0  0  0  0  0  0  0  0  0  0  0
  146.3749   73.2259  221.4633 H   0  0  0  0  0  0  0  0  0  0  0  0
  144.8850   72.3114  221.2011 H   0  0  0  0  0  0  0  0  0  0  0  0
  145.4308   73.9086  218.0718 H   0  0  0  0  0  0  0  0  0  0  0  0
  145.3193   72.1138  217.7325 H   0  0  0  0  0  0  0  0  0  0  0  0
  143.1161   73.1412  217.9781 H   0  0  0  0  0  0  0  0  0  0  0  0
  143.4782   71.9123  219.2603 H   0  0  0  0  0  0  0  0  0  0  0  0
  138.8786   69.0956  222.5870 H   0  0  0  0  0  0  0  0  0  0  0  0
  138.7002   67.8500  224.7245 H   0  0  0  0  0  0  0  0  0  0  0  0
  139.1088   67.7154  227.0847 H   0  0  0  0  0  0  0  0  0  0  0  0
  141.1028   70.9543  229.1182 H   0  0  0  0  0  0  0  0  0  0  0  0
  141.2845   72.2100  226.9650 H   0  0  0  0  0  0  0  0  0  0  0  0
  1  2  2  0
  2  3  1  0
  3  4  1  0
  4  5  1  0
  5  6  2  0
  5  7  1  0
  7  8  1  0
  8  9  1  0
  9 10  1  0
 10 11  1  0
 11 12  1  0
 12 13  1  0
 13 14  1  0
 14 15  1  0
 15 16  1  0
 16 17  1  0
  2 18  1  0
 18 19  2  0
 19 20  1  0
 20 21  2  0
 21 22  1  0
 22 23  2  0
 23 24  1  0
 23 25  1  0
 25 26  2  0
 26 27  1  0
 27 28  2  0
 11  7  1  0
 17 12  1  0
 28 18  1  0
 27 21  1  0
  3 29  1  0
  4 30  1  0
  4 31  1  0
  8 32  1  0
  8 33  1  0
  9 34  1  0
  9 35  1  0
 10 36  1  0
 10 37  1  0
 11 38  1  6
 12 39  1  0
 13 40  1  0
 13 41  1  0
 14 42  1  0
 14 43  1  0
 16 44  1  0
 16 45  1  0
 17 46  1  0
 17 47  1  0
 19 48  1  0
 20 49  1  0
 22 50  1  0
 25 51  1  0
 26 52  1  0
M  END
>  <meeko>  (6) 
{"free_energy": -8.55, "intermolecular_energy": -10.04, "internal_energy": -1.89, "cluster_size": 13, "cluster_id": 2, "rank_in_cluster": 7}

$$$$

     RDKit          3D

 52 55  0  0  0  0  0  0  0  0999 V2000
  141.3460   71.7950  221.6200 O   0  0  0  0  0  0  0  0  0  0  0  0
  140.3740   72.0190  222.3730 C   0  0  0  0  0  0  0  0  0  0  0  0
  139.4630   73.0300  222.0120 N   0  0  0  0  0  0  0  0  0  0  0  0
  139.6970   73.7630  220.7870 C   0  0  0  0  0  0  0  0  0  0  0  0
  140.6320   74.9040  221.1180 C   0  0  0  0  0  0  0  0  0  0  0  0
  140.6470   75.2370  222.3270 O   0  0  0  0  0  0  0  0  0  0  0  0
  141.3960   75.4980  220.0950 N   0  0  0  0  0  0  0  0  0  0  0  0
  140.9900   76.7430  219.3920 C   0  0  0  0  0  0  0  0  0  0  0  0
  142.2510   77.5590  219.5410 C   0  0  0  0  0  0  0  0  0  0  0  0
  143.3560   76.5110  219.5720 C   0  0  0  0  0  0  0  0  0  0  0  0
  142.6470   75.1760  219.4750 C   0  0  1  0  0  0  0  0  0  0  0  0
  143.4050   74.0160  219.9870 C   0  0  0  0  0  0  0  0  0  0  0  0
  144.8190   74.4430  220.4570 C   0  0  0  0  0  0  0  0  0  0  0  0
  145.5290   73.1200  220.7630 C   0  0  0  0  0  0  0  0  0  0  0  0
  145.9800   72.6490  219.5360 O   0  0  0  0  0  0  0  0  0  0  0  0
  145.0930   72.9080  218.5020 C   0  0  0  0  0  0  0  0  0  0  0  0
  143.6450   72.9500  218.9330 C   0  0  0  0  0  0  0  0  0  0  0  0
  140.1780   71.2520  223.6030 C   0  0  0  0  0  0  0  0  0  0  0  0
  139.4530   70.0590  223.5390 C   0  0  0  0  0  0  0  0  0  0  0  0
  139.2670   69.3370  224.6870 C   0  0  0  0  0  0  0  0  0  0  0  0
  139.7960   69.7960  225.8750 C   0  0  0  0  0  0  0  0  0  0  0  0
  139.6090   69.0670  227.0430 C   0  0  0  0  0  0  0  0  0  0  0  0
  140.1430   69.5330  228.2350 C   0  0  0  0  0  0  0  0  0  0  0  0
  139.9410   68.7990  229.3400 F   0  0  0  0  0  0  0  0  0  0  0  0
  140.8610   70.7220  228.2760 C   0  0  0  0  0  0  0  0  0  0  0  0
  141.0530   71.4590  227.1150 C   0  0  0  0  0  0  0  0  0  0  0  0
  140.5180   70.9870  225.9320 C   0  0  0  0  0  0  0  0  0  0  0  0
  140.6780   71.6700  224.7710 N   0  0  0  0  0  0  0  0  0  0  0  0
  138.6420   73.2240  222.6430 H   0  0  0  0  0  0  0  0  0  0  0  0
  140.1579   73.1042  220.0362 H   0  0  0  0  0  0  0  0  0  0  0  0
  138.7510   74.1420  220.3730 H   0  0  0  0  0  0  0  0  0  0  0  0
  140.7498   76.5541  218.3353 H   0  0  0  0  0  0  0  0  0  0  0  0
  140.0822   77.2211  219.7886 H   0  0  0  0  0  0  0  0  0  0  0  0
  142.3805   78.2408  218.6875 H   0  0  0  0  0  0  0  0  0  0  0  0
  142.2430   78.1974  220.4367 H   0  0  0  0  0  0  0  0  0  0  0  0
  144.0392   76.6467  218.7206 H   0  0  0  0  0  0  0  0  0  0  0  0
  143.9649   76.5854  220.4851 H   0  0  0  0  0  0  0  0  0  0  0  0
  142.5161   74.7876  218.4542 H   0  0  0  0  0  0  0  0  0  0  0  0
  142.7868   73.6182  220.8053 H   0  0  0  0  0  0  0  0  0  0  0  0
  145.3446   74.9931  219.6626 H   0  0  0  0  0  0  0  0  0  0  0  0
  144.7886   75.1158  221.3267 H   0  0  0  0  0  0  0  0  0  0  0  0
  146.3754   73.2867  221.4456 H   0  0  0  0  0  0  0  0  0  0  0  0
  144.8578   72.4006  221.2549 H   0  0  0  0  0  0  0  0  0  0  0  0
  145.3511   73.8817  218.0600 H   0  0  0  0  0  0  0  0  0  0  0  0
  145.1886   72.0797  217.7845 H   0  0  0  0  0  0  0  0  0  0  0  0
  143.0179   73.1679  218.0559 H   0  0  0  0  0  0  0  0  0  0  0  0
  143.3875   71.9729  219.3678 H   0  0  0  0  0  0  0  0  0  0  0  0
  139.0391   69.7063  222.5828 H   0  0  0  0  0  0  0  0  0  0  0  0
  138.6985   68.3956  224.6621 H   0  0  0  0  0  0  0  0  0  0  0  0
  139.0405   68.1255  227.0223 H   0  0  0  0  0  0  0  0  0  0  0  0
  141.2776   71.0797  229.2291 H   0  0  0  0  0  0  0  0  0  0  0  0
  141.6205   72.4011  227.1368 H   0  0  0  0  0  0  0  0  0  0  0  0
  1  2  2  0
  2  3  1  0
  3  4  1  0
  4  5  1  0
  5  6  2  0
  5  7  1  0
  7  8  1  0
  8  9  1  0
  9 10  1  0
 10 11  1  0
 11 12  1  0
 12 13  1  0
 13 14  1  0
 14 15  1  0
 15 16  1  0
 16 17  1  0
  2 18  1  0
 18 19  2  0
 19 20  1  0
 20 21  2  0
 21 22  1  0
 22 23  2  0
 23 24  1  0
 23 25  1  0
 25 26  2  0
 26 27  1  0
 27 28  2  0
 11  7  1  0
 17 12  1  0
 28 18  1  0
 27 21  1  0
  3 29  1  0
  4 30  1  0
  4 31  1  0
  8 32  1  0
  8 33  1  0
  9 34  1  0
  9 35  1  0
 10 36  1  0
 10 37  1  0
 11 38  1  6
 12 39  1  0
 13 40  1  0
 13 41  1  0
 14 42  1  0
 14 43  1  0
 16 44  1  0
 16 45  1  0
 17 46  1  0
 17 47  1  0
 19 48  1  0
 20 49  1  0
 22 50  1  0
 25 51  1  0
 26 52  1  0
M  END
>  <meeko>  (7) 
{"free_energy": -8.61, "intermolecular_energy": -10.1, "internal_energy": -1.53, "cluster_size": 13, "cluster_id": 2, "rank_in_cluster": 1}

$$$$

     RDKit          3D

 52 55  0  0  0  0  0  0  0  0999 V2000
  141.1910   71.9990  221.3890 O   0  0  0  0  0  0  0  0  0  0  0  0
  140.5050   72.3960  222.3560 C   0  0  0  0  0  0  0  0  0  0  0  0
  139.9540   73.6910  222.3020 N   0  0  0  0  0  0  0  0  0  0  0  0
  140.2080   74.5000  221.1300 C   0  0  0  0  0  0  0  0  0  0  0  0
  140.4240   75.9190  221.6030 C   0  0  0  0  0  0  0  0  0  0  0  0
  139.7200   76.2590  222.5850 O   0  0  0  0  0  0  0  0  0  0  0  0
  141.3590   76.7400  220.9440 N   0  0  0  0  0  0  0  0  0  0  0  0
  142.1620   76.2870  219.7770 C   0  0  0  0  0  0  0  0  0  0  0  0
  141.8790   77.4080  218.8060 C   0  0  0  0  0  0  0  0  0  0  0  0
  141.6570   78.6160  219.7060 C   0  0  0  0  0  0  0  0  0  0  0  0
  141.7930   78.0930  221.1220 C   0  0  1  0  0  0  0  0  0  0  0  0
  141.1370   78.9090  222.1650 C   0  0  0  0  0  0  0  0  0  0  0  0
  141.0970   80.4030  221.7550 C   0  0  0  0  0  0  0  0  0  0  0  0
  140.5790   81.1220  223.0050 C   0  0  0  0  0  0  0  0  0  0  0  0
  141.6870   81.2820  223.8270 O   0  0  0  0  0  0  0  0  0  0  0  0
  142.5540   80.2010  223.7770 C   0  0  0  0  0  0  0  0  0  0  0  0
  141.8740   78.8820  223.4910 C   0  0  0  0  0  0  0  0  0  0  0  0
  140.2750   71.5420  223.5210 C   0  0  0  0  0  0  0  0  0  0  0  0
  139.5710   70.3480  223.3460 C   0  0  0  0  0  0  0  0  0  0  0  0
  139.3530   69.5450  224.4330 C   0  0  0  0  0  0  0  0  0  0  0  0
  139.8290   69.9260  225.6700 C   0  0  0  0  0  0  0  0  0  0  0  0
  139.6100   69.1140  226.7750 C   0  0  0  0  0  0  0  0  0  0  0  0
  140.0910   69.5020  228.0170 C   0  0  0  0  0  0  0  0  0  0  0  0
  139.8590   68.6900  229.0600 F   0  0  0  0  0  0  0  0  0  0  0  0
  140.7890   70.6940  228.1690 C   0  0  0  0  0  0  0  0  0  0  0  0
  141.0130   71.5130  227.0700 C   0  0  0  0  0  0  0  0  0  0  0  0
  140.5300   71.1190  225.8370 C   0  0  0  0  0  0  0  0  0  0  0  0
  140.7240   71.8840  224.7340 N   0  0  0  0  0  0  0  0  0  0  0  0
  139.3760   74.0310  223.1140 H   0  0  0  0  0  0  0  0  0  0  0  0
  141.1055   74.1361  220.6085 H   0  0  0  0  0  0  0  0  0  0  0  0
  139.3620   74.4472  220.4290 H   0  0  0  0  0  0  0  0  0  0  0  0
  143.2326   76.2197  220.0207 H   0  0  0  0  0  0  0  0  0  0  0  0
  141.9113   75.2819  219.4069 H   0  0  0  0  0  0  0  0  0  0  0  0
  142.7348   77.5709  218.1344 H   0  0  0  0  0  0  0  0  0  0  0  0
  141.0195   77.1993  218.1520 H   0  0  0  0  0  0  0  0  0  0  0  0
  142.4141   79.3888  219.5067 H   0  0  0  0  0  0  0  0  0  0  0  0
  140.6745   79.0796  219.5336 H   0  0  0  0  0  0  0  0  0  0  0  0
  142.8052   78.1506  221.5488 H   0  0  0  0  0  0  0  0  0  0  0  0
  140.1335   78.4714  222.2720 H   0  0  0  0  0  0  0  0  0  0  0  0
  142.1020   80.7611  221.4873 H   0  0  0  0  0  0  0  0  0  0  0  0
  140.4636   80.5812  220.8735 H   0  0  0  0  0  0  0  0  0  0  0  0
  140.1544   82.1008  222.7373 H   0  0  0  0  0  0  0  0  0  0  0  0
  139.7807   80.5517  223.5025 H   0  0  0  0  0  0  0  0  0  0  0  0
  143.2945   80.3875  222.9852 H   0  0  0  0  0  0  0  0  0  0  0  0
  143.0127   80.1139  224.7730 H   0  0  0  0  0  0  0  0  0  0  0  0
  142.6343   78.0877  223.4606 H   0  0  0  0  0  0  0  0  0  0  0  0
  141.1402   78.6934  224.2885 H   0  0  0  0  0  0  0  0  0  0  0  0
  139.1985   70.0583  222.3524 H   0  0  0  0  0  0  0  0  0  0  0  0
  138.8008   68.6003  224.3203 H   0  0  0  0  0  0  0  0  0  0  0  0
  139.0583   68.1686  226.6661 H   0  0  0  0  0  0  0  0  0  0  0  0
  141.1642   70.9889  229.1601 H   0  0  0  0  0  0  0  0  0  0  0  0
  141.5649   72.4582  227.1792 H   0  0  0  0  0  0  0  0  0  0  0  0
  1  2  2  0
  2  3  1  0
  3  4  1  0
  4  5  1  0
  5  6  2  0
  5  7  1  0
  7  8  1  0
  8  9  1  0
  9 10  1  0
 10 11  1  0
 11 12  1  0
 12 13  1  0
 13 14  1  0
 14 15  1  0
 15 16  1  0
 16 17  1  0
  2 18  1  0
 18 19  2  0
 19 20  1  0
 20 21  2  0
 21 22  1  0
 22 23  2  0
 23 24  1  0
 23 25  1  0
 25 26  2  0
 26 27  1  0
 27 28  2  0
 11  7  1  0
 17 12  1  0
 28 18  1  0
 27 21  1  0
  3 29  1  0
  4 30  1  0
  4 31  1  0
  8 32  1  0
  8 33  1  0
  9 34  1  0
  9 35  1  0
 10 36  1  0
 10 37  1  0
 11 38  1  1
 12 39  1  0
 13 40  1  0
 13 41  1  0
 14 42  1  0
 14 43  1  0
 16 44  1  0
 16 45  1  0
 17 46  1  0
 17 47  1  0
 19 48  1  0
 20 49  1  0
 22 50  1  0
 25 51  1  0
 26 52  1  0
M  END
>  <meeko>  (8) 
{"free_energy": -8.75, "intermolecular_energy": -10.24, "internal_energy": -1.63, "cluster_size": 6, "cluster_id": 1, "rank_in_cluster": 1}

$$$$

     RDKit          3D

 52 55  0  0  0  0  0  0  0  0999 V2000
  139.2330   71.0620  221.2600 O   0  0  0  0  0  0  0  0  0  0  0  0
  139.5060   71.5710  222.3700 C   0  0  0  0  0  0  0  0  0  0  0  0
  139.6970   72.9640  222.4410 N   0  0  0  0  0  0  0  0  0  0  0  0
  139.5700   73.7410  221.2280 C   0  0  0  0  0  0  0  0  0  0  0  0
  140.7300   74.7080  221.1910 C   0  0  0  0  0  0  0  0  0  0  0  0
  141.0760   75.1570  222.3100 O   0  0  0  0  0  0  0  0  0  0  0  0
  141.3270   75.0340  219.9580 N   0  0  0  0  0  0  0  0  0  0  0  0
  140.7210   75.9770  218.9820 C   0  0  0  0  0  0  0  0  0  0  0  0
  141.8910   76.9020  218.7410 C   0  0  0  0  0  0  0  0  0  0  0  0
  143.1050   76.0040  218.9380 C   0  0  0  0  0  0  0  0  0  0  0  0
  142.5460   74.6460  219.3100 C   0  0  1  0  0  0  0  0  0  0  0  0
  143.4730   73.7560  220.0380 C   0  0  0  0  0  0  0  0  0  0  0  0
  144.8380   74.4510  220.2730 C   0  0  0  0  0  0  0  0  0  0  0  0
  145.7300   73.3450  220.8470 C   0  0  0  0  0  0  0  0  0  0  0  0
  146.1820   72.6260  219.7470 O   0  0  0  0  0  0  0  0  0  0  0  0
  145.2220   72.5020  218.7540 C   0  0  0  0  0  0  0  0  0  0  0  0
  143.8030   72.4870  219.2730 C   0  0  0  0  0  0  0  0  0  0  0  0
  139.6240   70.7450  223.5710 C   0  0  0  0  0  0  0  0  0  0  0  0
  139.1220   69.4410  223.5390 C   0  0  0  0  0  0  0  0  0  0  0  0
  139.2310   68.6640  224.6600 C   0  0  0  0  0  0  0  0  0  0  0  0
  139.8300   69.1780  225.7910 C   0  0  0  0  0  0  0  0  0  0  0  0
  139.9420   68.3930  226.9320 C   0  0  0  0  0  0  0  0  0  0  0  0
  140.5450   68.9150  228.0670 C   0  0  0  0  0  0  0  0  0  0  0  0
  140.6350   68.1240  229.1470 F   0  0  0  0  0  0  0  0  0  0  0  0
  141.0380   70.2140  228.0770 C   0  0  0  0  0  0  0  0  0  0  0  0
  140.9310   71.0070  226.9430 C   0  0  0  0  0  0  0  0  0  0  0  0
  140.3280   70.4800  225.8170 C   0  0  0  0  0  0  0  0  0  0  0  0
  140.2000   71.2150  224.6830 N   0  0  0  0  0  0  0  0  0  0  0  0
  139.9270   73.3980  223.3730 H   0  0  0  0  0  0  0  0  0  0  0  0
  139.6043   73.0781  220.3509 H   0  0  0  0  0  0  0  0  0  0  0  0
  138.6118   74.2810  221.2097 H   0  0  0  0  0  0  0  0  0  0  0  0
  140.4102   75.4645  218.0596 H   0  0  0  0  0  0  0  0  0  0  0  0
  139.8038   76.4746  219.3300 H   0  0  0  0  0  0  0  0  0  0  0  0
  141.8656   77.3093  217.7195 H   0  0  0  0  0  0  0  0  0  0  0  0
  141.8914   77.7739  219.4117 H   0  0  0  0  0  0  0  0  0  0  0  0
  143.6895   75.9379  218.0085 H   0  0  0  0  0  0  0  0  0  0  0  0
  143.7805   76.3943  219.7135 H   0  0  0  0  0  0  0  0  0  0  0  0
  142.3689   73.9641  218.4652 H   0  0  0  0  0  0  0  0  0  0  0  0
  142.9507   73.5172  220.9762 H   0  0  0  0  0  0  0  0  0  0  0  0
  145.2496   74.8322  219.3268 H   0  0  0  0  0  0  0  0  0  0  0  0
  144.7586   75.3187  220.9444 H   0  0  0  0  0  0  0  0  0  0  0  0
  146.5775   73.7807  221.3965 H   0  0  0  0  0  0  0  0  0  0  0  0
  145.1835   72.7061  221.5563 H   0  0  0  0  0  0  0  0  0  0  0  0
  145.3286   73.3499  218.0614 H   0  0  0  0  0  0  0  0  0  0  0  0
  145.3930   71.5323  218.2637 H   0  0  0  0  0  0  0  0  0  0  0  0
  143.1127   72.3940  218.4216 H   0  0  0  0  0  0  0  0  0  0  0  0
  143.6975   71.6345  219.9600 H   0  0  0  0  0  0  0  0  0  0  0  0
  138.6475   69.0462  222.6285 H   0  0  0  0  0  0  0  0  0  0  0  0
  138.8429   67.6347  224.6591 H   0  0  0  0  0  0  0  0  0  0  0  0
  139.5547   67.3634  226.9353 H   0  0  0  0  0  0  0  0  0  0  0  0
  141.5135   70.6143  228.9845 H   0  0  0  0  0  0  0  0  0  0  0  0
  141.3192   72.0362  226.9407 H   0  0  0  0  0  0  0  0  0  0  0  0
  1  2  2  0
  2  3  1  0
  3  4  1  0
  4  5  1  0
  5  6  2  0
  5  7  1  0
  7  8  1  0
  8  9  1  0
  9 10  1  0
 10 11  1  0
 11 12  1  0
 12 13  1  0
 13 14  1  0
 14 15  1  0
 15 16  1  0
 16 17  1  0
  2 18  1  0
 18 19  2  0
 19 20  1  0
 20 21  2  0
 21 22  1  0
 22 23  2  0
 23 24  1  0
 23 25  1  0
 25 26  2  0
 26 27  1  0
 27 28  2  0
 11  7  1  0
 17 12  1  0
 28 18  1  0
 27 21  1  0
  3 29  1  0
  4 30  1  0
  4 31  1  0
  8 32  1  0
  8 33  1  0
  9 34  1  0
  9 35  1  0
 10 36  1  0
 10 37  1  0
 11 38  1  6
 12 39  1  0
 13 40  1  0
 13 41  1  0
 14 42  1  0
 14 43  1  0
 16 44  1  0
 16 45  1  0
 17 46  1  0
 17 47  1  0
 19 48  1  0
 20 49  1  0
 22 50  1  0
 25 51  1  0
 26 52  1  0
M  END
>  <meeko>  (9) 
{"free_energy": -8.11, "intermolecular_energy": -9.6, "internal_energy": -1.87, "cluster_size": 13, "cluster_id": 2, "rank_in_cluster": 13}

$$$$

     RDKit          3D

 52 55  0  0  0  0  0  0  0  0999 V2000
  140.1390   70.9420  221.1440 O   0  0  0  0  0  0  0  0  0  0  0  0
  139.9270   71.5300  222.2260 C   0  0  0  0  0  0  0  0  0  0  0  0
  139.7590   72.9280  222.2090 N   0  0  0  0  0  0  0  0  0  0  0  0
  139.8410   73.6180  220.9400 C   0  0  0  0  0  0  0  0  0  0  0  0
  140.6640   74.8660  221.1610 C   0  0  0  0  0  0  0  0  0  0  0  0
  140.6280   75.3190  222.3300 O   0  0  0  0  0  0  0  0  0  0  0  0
  141.3880   75.4220  220.0890 N   0  0  0  0  0  0  0  0  0  0  0  0
  140.9430   76.6280  219.3420 C   0  0  0  0  0  0  0  0  0  0  0  0
  142.1960   77.4670  219.4140 C   0  0  0  0  0  0  0  0  0  0  0  0
  143.3160   76.4350  219.4590 C   0  0  0  0  0  0  0  0  0  0  0  0
  142.6240   75.0880  219.4450 C   0  0  1  0  0  0  0  0  0  0  0  0
  143.4130   73.9630  219.9850 C   0  0  0  0  0  0  0  0  0  0  0  0
  144.8130   74.4410  220.4470 C   0  0  0  0  0  0  0  0  0  0  0  0
  145.5610   73.1470  220.7850 C   0  0  0  0  0  0  0  0  0  0  0  0
  146.0270   72.6600  219.5710 O   0  0  0  0  0  0  0  0  0  0  0  0
  145.1350   72.8680  218.5300 C   0  0  0  0  0  0  0  0  0  0  0  0
  143.6850   72.8790  218.9580 C   0  0  0  0  0  0  0  0  0  0  0  0
  139.8520   70.7910  223.4860 C   0  0  0  0  0  0  0  0  0  0  0  0
  139.2670   69.5220  223.4840 C   0  0  0  0  0  0  0  0  0  0  0  0
  139.1950   68.8260  224.6600 C   0  0  0  0  0  0  0  0  0  0  0  0
  139.6970   69.3850  225.8160 C   0  0  0  0  0  0  0  0  0  0  0  0
  139.6250   68.6830  227.0120 C   0  0  0  0  0  0  0  0  0  0  0  0
  140.1310   69.2500  228.1720 C   0  0  0  0  0  0  0  0  0  0  0  0
  140.0430   68.5390  229.3070 F   0  0  0  0  0  0  0  0  0  0  0  0
  140.7080   70.5140  228.1530 C   0  0  0  0  0  0  0  0  0  0  0  0
  140.7850   71.2260  226.9620 C   0  0  0  0  0  0  0  0  0  0  0  0
  140.2780   70.6520  225.8120 C   0  0  0  0  0  0  0  0  0  0  0  0
  140.3300   71.3070  224.6240 N   0  0  0  0  0  0  0  0  0  0  0  0
  139.5800   73.4290  223.1190 H   0  0  0  0  0  0  0  0  0  0  0  0
  140.3266   72.9742  220.1919 H   0  0  0  0  0  0  0  0  0  0  0  0
  138.8373   73.8733  220.5693 H   0  0  0  0  0  0  0  0  0  0  0  0
  140.6737   76.3869  218.3031 H   0  0  0  0  0  0  0  0  0  0  0  0
  140.0408   77.1121  219.7442 H   0  0  0  0  0  0  0  0  0  0  0  0
  142.2897   78.1099  218.5264 H   0  0  0  0  0  0  0  0  0  0  0  0
  142.2061   78.1468  220.2787 H   0  0  0  0  0  0  0  0  0  0  0  0
  143.9712   76.5400  218.5817 H   0  0  0  0  0  0  0  0  0  0  0  0
  143.9506   76.5592  220.3489 H   0  0  0  0  0  0  0  0  0  0  0  0
  142.4680   74.6517  218.4474 H   0  0  0  0  0  0  0  0  0  0  0  0
  142.8043   73.5674  220.8115 H   0  0  0  0  0  0  0  0  0  0  0  0
  145.3241   74.9875  219.6407 H   0  0  0  0  0  0  0  0  0  0  0  0
  144.7609   75.1323  221.3011 H   0  0  0  0  0  0  0  0  0  0  0  0
  146.4012   73.3548  221.4639 H   0  0  0  0  0  0  0  0  0  0  0  0
  144.9103   72.4204  221.2935 H   0  0  0  0  0  0  0  0  0  0  0  0
  145.3660   73.8375  218.0646 H   0  0  0  0  0  0  0  0  0  0  0  0
  145.2556   72.0254  217.8333 H   0  0  0  0  0  0  0  0  0  0  0  0
  143.0537   73.0575  218.0751 H   0  0  0  0  0  0  0  0  0  0  0  0
  143.4544   71.9059  219.4161 H   0  0  0  0  0  0  0  0  0  0  0  0
  138.8711   69.0899  222.5531 H   0  0  0  0  0  0  0  0  0  0  0  0
  138.7388   67.8253  224.6829 H   0  0  0  0  0  0  0  0  0  0  0  0
  139.1690   67.6824  227.0391 H   0  0  0  0  0  0  0  0  0  0  0  0
  141.1041   70.9513  229.0814 H   0  0  0  0  0  0  0  0  0  0  0  0
  141.2406   72.2268  226.9354 H   0  0  0  0  0  0  0  0  0  0  0  0
  1  2  2  0
  2  3  1  0
  3  4  1  0
  4  5  1  0
  5  6  2  0
  5  7  1  0
  7  8  1  0
  8  9  1  0
  9 10  1  0
 10 11  1  0
 11 12  1  0
 12 13  1  0
 13 14  1  0
 14 15  1  0
 15 16  1  0
 16 17  1  0
  2 18  1  0
 18 19  2  0
 19 20  1  0
 20 21  2  0
 21 22  1  0
 22 23  2  0
 23 24  1  0
 23 25  1  0
 25 26  2  0
 26 27  1  0
 27 28  2  0
 11  7  1  0
 17 12  1  0
 28 18  1  0
 27 21  1  0
  3 29  1  0
  4 30  1  0
  4 31  1  0
  8 32  1  0
  8 33  1  0
  9 34  1  0
  9 35  1  0
 10 36  1  0
 10 37  1  0
 11 38  1  6
 12 39  1  0
 13 40  1  0
 13 41  1  0
 14 42  1  0
 14 43  1  0
 16 44  1  0
 16 45  1  0
 17 46  1  0
 17 47  1  0
 19 48  1  0
 20 49  1  0
 22 50  1  0
 25 51  1  0
 26 52  1  0
M  END
>  <meeko>  (10) 
{"free_energy": -8.55, "intermolecular_energy": -10.04, "internal_energy": -1.89, "cluster_size": 13, "cluster_id": 2, "rank_in_cluster": 5}

$$$$

     RDKit          3D

 52 55  0  0  0  0  0  0  0  0999 V2000
  140.2420   70.8950  221.1840 O   0  0  0  0  0  0  0  0  0  0  0  0
  139.9970   71.4930  222.2550 C   0  0  0  0  0  0  0  0  0  0  0  0
  139.8130   72.8880  222.2170 N   0  0  0  0  0  0  0  0  0  0  0  0
  139.9190   73.5640  220.9430 C   0  0  0  0  0  0  0  0  0  0  0  0
  140.6770   74.8500  221.1790 C   0  0  0  0  0  0  0  0  0  0  0  0
  140.5810   75.3110  222.3420 O   0  0  0  0  0  0  0  0  0  0  0  0
  141.4120   75.4290  220.1270 N   0  0  0  0  0  0  0  0  0  0  0  0
  140.9810   76.6580  219.4100 C   0  0  0  0  0  0  0  0  0  0  0  0
  142.2410   77.4850  219.5140 C   0  0  0  0  0  0  0  0  0  0  0  0
  143.3530   76.4430  219.5370 C   0  0  0  0  0  0  0  0  0  0  0  0
  142.6490   75.1030  219.4820 C   0  0  1  0  0  0  0  0  0  0  0  0
  143.4270   73.9570  219.9970 C   0  0  0  0  0  0  0  0  0  0  0  0
  144.8320   74.4090  220.4700 C   0  0  0  0  0  0  0  0  0  0  0  0
  145.5650   73.0990  220.7790 C   0  0  0  0  0  0  0  0  0  0  0  0
  146.0260   72.6360  219.5540 O   0  0  0  0  0  0  0  0  0  0  0  0
  145.1370   72.8780  218.5180 C   0  0  0  0  0  0  0  0  0  0  0  0
  143.6880   72.8940  218.9450 C   0  0  0  0  0  0  0  0  0  0  0  0
  139.8990   70.7670  223.5200 C   0  0  0  0  0  0  0  0  0  0  0  0
  139.2920   69.5080  223.5250 C   0  0  0  0  0  0  0  0  0  0  0  0
  139.1980   68.8250  224.7070 C   0  0  0  0  0  0  0  0  0  0  0  0
  139.7010   69.3860  225.8620 C   0  0  0  0  0  0  0  0  0  0  0  0
  139.6080   68.6960  227.0640 C   0  0  0  0  0  0  0  0  0  0  0  0
  140.1150   69.2650  228.2230 C   0  0  0  0  0  0  0  0  0  0  0  0
  140.0060   68.5660  229.3630 F   0  0  0  0  0  0  0  0  0  0  0  0
  140.7150   70.5180  228.1960 C   0  0  0  0  0  0  0  0  0  0  0  0
  140.8130   71.2170  227.0000 C   0  0  0  0  0  0  0  0  0  0  0  0
  140.3050   70.6420  225.8510 C   0  0  0  0  0  0  0  0  0  0  0  0
  140.3770   71.2850  224.6580 N   0  0  0  0  0  0  0  0  0  0  0  0
  139.6060   73.3970  223.1160 H   0  0  0  0  0  0  0  0  0  0  0  0
  140.4634   72.9323  220.2257 H   0  0  0  0  0  0  0  0  0  0  0  0
  138.9218   73.7702  220.5271 H   0  0  0  0  0  0  0  0  0  0  0  0
  140.7173   76.4474  218.3630 H   0  0  0  0  0  0  0  0  0  0  0  0
  140.0795   77.1379  219.8185 H   0  0  0  0  0  0  0  0  0  0  0  0
  142.3457   78.1520  218.6456 H   0  0  0  0  0  0  0  0  0  0  0  0
  142.2506   78.1398  220.3978 H   0  0  0  0  0  0  0  0  0  0  0  0
  144.0143   76.5664  218.6667 H   0  0  0  0  0  0  0  0  0  0  0  0
  143.9839   76.5374  220.4331 H   0  0  0  0  0  0  0  0  0  0  0  0
  142.4944   74.6957  218.4720 H   0  0  0  0  0  0  0  0  0  0  0  0
  142.8141   73.5496  220.8145 H   0  0  0  0  0  0  0  0  0  0  0  0
  145.3497   74.9677  219.6763 H   0  0  0  0  0  0  0  0  0  0  0  0
  144.7874   75.0816  221.3392 H   0  0  0  0  0  0  0  0  0  0  0  0
  146.4070   73.2813  221.4630 H   0  0  0  0  0  0  0  0  0  0  0  0
  144.9062   72.3681  221.2707 H   0  0  0  0  0  0  0  0  0  0  0  0
  145.3785   73.8559  218.0759 H   0  0  0  0  0  0  0  0  0  0  0  0
  145.2493   72.0509  217.8016 H   0  0  0  0  0  0  0  0  0  0  0  0
  143.0591   73.0995  218.0662 H   0  0  0  0  0  0  0  0  0  0  0  0
  143.4467   71.9129  219.3800 H   0  0  0  0  0  0  0  0  0  0  0  0
  138.8967   69.0737  222.5949 H   0  0  0  0  0  0  0  0  0  0  0  0
  138.7234   67.8331  224.7358 H   0  0  0  0  0  0  0  0  0  0  0  0
  139.1348   67.7035  227.0966 H   0  0  0  0  0  0  0  0  0  0  0  0
  141.1128   70.9567  229.1230 H   0  0  0  0  0  0  0  0  0  0  0  0
  141.2861   72.2096  226.9681 H   0  0  0  0  0  0  0  0  0  0  0  0
  1  2  2  0
  2  3  1  0
  3  4  1  0
  4  5  1  0
  5  6  2  0
  5  7  1  0
  7  8  1  0
  8  9  1  0
  9 10  1  0
 10 11  1  0
 11 12  1  0
 12 13  1  0
 13 14  1  0
 14 15  1  0
 15 16  1  0
 16 17  1  0
  2 18  1  0
 18 19  2  0
 19 20  1  0
 20 21  2  0
 21 22  1  0
 22 23  2  0
 23 24  1  0
 23 25  1  0
 25 26  2  0
 26 27  1  0
 27 28  2  0
 11  7  1  0
 17 12  1  0
 28 18  1  0
 27 21  1  0
  3 29  1  0
  4 30  1  0
  4 31  1  0
  8 32  1  0
  8 33  1  0
  9 34  1  0
  9 35  1  0
 10 36  1  0
 10 37  1  0
 11 38  1  6
 12 39  1  0
 13 40  1  0
 13 41  1  0
 14 42  1  0
 14 43  1  0
 16 44  1  0
 16 45  1  0
 17 46  1  0
 17 47  1  0
 19 48  1  0
 20 49  1  0
 22 50  1  0
 25 51  1  0
 26 52  1  0
M  END
>  <meeko>  (11) 
{"free_energy": -8.56, "intermolecular_energy": -10.05, "internal_energy": -1.9, "cluster_size": 13, "cluster_id": 2, "rank_in_cluster": 4}

$$$$

     RDKit          3D

 52 55  0  0  0  0  0  0  0  0999 V2000
  140.0030   71.2220  221.0910 O   0  0  0  0  0  0  0  0  0  0  0  0
  139.8650   71.7690  222.2070 C   0  0  0  0  0  0  0  0  0  0  0  0
  139.7230   73.1700  222.2550 N   0  0  0  0  0  0  0  0  0  0  0  0
  139.7450   73.9080  221.0110 C   0  0  0  0  0  0  0  0  0  0  0  0
  140.7280   75.0430  221.1810 C   0  0  0  0  0  0  0  0  0  0  0  0
  140.8240   75.4850  222.3510 O   0  0  0  0  0  0  0  0  0  0  0  0
  141.4460   75.5160  220.0660 N   0  0  0  0  0  0  0  0  0  0  0  0
  141.0170   76.6870  219.2560 C   0  0  0  0  0  0  0  0  0  0  0  0
  142.2920   77.4960  219.2580 C   0  0  0  0  0  0  0  0  0  0  0  0
  143.3870   76.4400  219.3450 C   0  0  0  0  0  0  0  0  0  0  0  0
  142.6610   75.1130  219.4220 C   0  0  1  0  0  0  0  0  0  0  0  0
  143.4330   74.0020  220.0160 C   0  0  0  0  0  0  0  0  0  0  0  0
  144.8370   74.4810  220.4650 C   0  0  0  0  0  0  0  0  0  0  0  0
  145.5650   73.1930  220.8640 C   0  0  0  0  0  0  0  0  0  0  0  0
  146.0310   72.6480  219.6740 O   0  0  0  0  0  0  0  0  0  0  0  0
  145.1480   72.8230  218.6200 C   0  0  0  0  0  0  0  0  0  0  0  0
  143.6970   72.8710  219.0380 C   0  0  0  0  0  0  0  0  0  0  0  0
  139.8480   70.9810  223.4390 C   0  0  0  0  0  0  0  0  0  0  0  0
  139.2820   69.7040  223.4090 C   0  0  0  0  0  0  0  0  0  0  0  0
  139.2650   68.9620  224.5590 C   0  0  0  0  0  0  0  0  0  0  0  0
  139.8030   69.4850  225.7160 C   0  0  0  0  0  0  0  0  0  0  0  0
  139.7870   68.7360  226.8860 C   0  0  0  0  0  0  0  0  0  0  0  0
  140.3290   69.2660  228.0480 C   0  0  0  0  0  0  0  0  0  0  0  0
  140.2950   68.5100  229.1560 F   0  0  0  0  0  0  0  0  0  0  0  0
  140.8870   70.5390  228.0550 C   0  0  0  0  0  0  0  0  0  0  0  0
  140.9080   71.2960  226.8920 C   0  0  0  0  0  0  0  0  0  0  0  0
  140.3650   70.7600  225.7400 C   0  0  0  0  0  0  0  0  0  0  0  0
  140.3620   71.4600  224.5780 N   0  0  0  0  0  0  0  0  0  0  0  0
  139.6070   73.6360  223.1920 H   0  0  0  0  0  0  0  0  0  0  0  0
  140.0663   73.2513  220.1891 H   0  0  0  0  0  0  0  0  0  0  0  0
  138.7435   74.2925  220.7678 H   0  0  0  0  0  0  0  0  0  0  0  0
  140.7233   76.3922  218.2377 H   0  0  0  0  0  0  0  0  0  0  0  0
  140.1342   77.2168  219.6431 H   0  0  0  0  0  0  0  0  0  0  0  0
  142.3857   78.0835  218.3327 H   0  0  0  0  0  0  0  0  0  0  0  0
  142.3345   78.2243  220.0813 H   0  0  0  0  0  0  0  0  0  0  0  0
  144.0286   76.4764  218.4522 H   0  0  0  0  0  0  0  0  0  0  0  0
  144.0409   76.5996  220.2150 H   0  0  0  0  0  0  0  0  0  0  0  0
  142.4750   74.6232  218.4548 H   0  0  0  0  0  0  0  0  0  0  0  0
  142.8146   73.6513  220.8554 H   0  0  0  0  0  0  0  0  0  0  0  0
  145.3600   74.9845  219.6386 H   0  0  0  0  0  0  0  0  0  0  0  0
  144.7900   75.2100  221.2874 H   0  0  0  0  0  0  0  0  0  0  0  0
  146.4042   73.4185  221.5385 H   0  0  0  0  0  0  0  0  0  0  0  0
  144.9019   72.4979  221.3999 H   0  0  0  0  0  0  0  0  0  0  0  0
  145.3944   73.7688  218.1152 H   0  0  0  0  0  0  0  0  0  0  0  0
  145.2614   71.9500  217.9604 H   0  0  0  0  0  0  0  0  0  0  0  0
  143.0730   73.0192  218.1443 H   0  0  0  0  0  0  0  0  0  0  0  0
  143.4514   71.9216  219.5363 H   0  0  0  0  0  0  0  0  0  0  0  0
  138.8574   69.3019  222.4773 H   0  0  0  0  0  0  0  0  0  0  0  0
  138.8246   67.9540  224.5603 H   0  0  0  0  0  0  0  0  0  0  0  0
  139.3469   67.7279  226.8911 H   0  0  0  0  0  0  0  0  0  0  0  0
  141.3125   70.9470  228.9837 H   0  0  0  0  0  0  0  0  0  0  0  0
  141.3487   72.3039  226.8874 H   0  0  0  0  0  0  0  0  0  0  0  0
  1  2  2  0
  2  3  1  0
  3  4  1  0
  4  5  1  0
  5  6  2  0
  5  7  1  0
  7  8  1  0
  8  9  1  0
  9 10  1  0
 10 11  1  0
 11 12  1  0
 12 13  1  0
 13 14  1  0
 14 15  1  0
 15 16  1  0
 16 17  1  0
  2 18  1  0
 18 19  2  0
 19 20  1  0
 20 21  2  0
 21 22  1  0
 22 23  2  0
 23 24  1  0
 23 25  1  0
 25 26  2  0
 26 27  1  0
 27 28  2  0
 11  7  1  0
 17 12  1  0
 28 18  1  0
 27 21  1  0
  3 29  1  0
  4 30  1  0
  4 31  1  0
  8 32  1  0
  8 33  1  0
  9 34  1  0
  9 35  1  0
 10 36  1  0
 10 37  1  0
 11 38  1  6
 12 39  1  0
 13 40  1  0
 13 41  1  0
 14 42  1  0
 14 43  1  0
 16 44  1  0
 16 45  1  0
 17 46  1  0
 17 47  1  0
 19 48  1  0
 20 49  1  0
 22 50  1  0
 25 51  1  0
 26 52  1  0
M  END
>  <meeko>  (12) 
{"free_energy": -8.54, "intermolecular_energy": -10.04, "internal_energy": -1.84, "cluster_size": 13, "cluster_id": 2, "rank_in_cluster": 8}

$$$$

     RDKit          3D

 52 55  0  0  0  0  0  0  0  0999 V2000
  141.2140   72.4690  221.8010 O   0  0  0  0  0  0  0  0  0  0  0  0
  140.2350   72.4760  222.5800 C   0  0  0  0  0  0  0  0  0  0  0  0
  139.1970   73.3990  222.3450 N   0  0  0  0  0  0  0  0  0  0  0  0
  139.3130   74.2940  221.2150 C   0  0  0  0  0  0  0  0  0  0  0  0
  139.9780   75.5570  221.7100 C   0  0  0  0  0  0  0  0  0  0  0  0
  141.1800   75.4220  222.0460 O   0  0  0  0  0  0  0  0  0  0  0  0
  139.2440   76.7580  221.7630 N   0  0  0  0  0  0  0  0  0  0  0  0
  137.7860   76.8350  221.4830 C   0  0  0  0  0  0  0  0  0  0  0  0
  137.3150   77.5730  222.7140 C   0  0  0  0  0  0  0  0  0  0  0  0
  138.5070   78.4440  223.0880 C   0  0  0  0  0  0  0  0  0  0  0  0
  139.5810   78.1160  222.0710 C   0  0  1  0  0  0  0  0  0  0  0  0
  140.9650   78.4170  222.4890 C   0  0  0  0  0  0  0  0  0  0  0  0
  140.9810   79.4490  223.6460 C   0  0  0  0  0  0  0  0  0  0  0  0
  142.4640   79.7960  223.8200 C   0  0  0  0  0  0  0  0  0  0  0  0
  142.7390   80.7470  222.8460 O   0  0  0  0  0  0  0  0  0  0  0  0
  142.0640   80.5100  221.6580 C   0  0  0  0  0  0  0  0  0  0  0  0
  141.7960   79.0480  221.3870 C   0  0  0  0  0  0  0  0  0  0  0  0
  140.1620   71.5510  223.7100 C   0  0  0  0  0  0  0  0  0  0  0  0
  139.5930   70.2910  223.5080 C   0  0  0  0  0  0  0  0  0  0  0  0
  139.5220   69.4220  224.5620 C   0  0  0  0  0  0  0  0  0  0  0  0
  140.0110   69.8020  225.7940 C   0  0  0  0  0  0  0  0  0  0  0  0
  139.9410   68.9220  226.8680 C   0  0  0  0  0  0  0  0  0  0  0  0
  140.4340   69.3100  228.1050 C   0  0  0  0  0  0  0  0  0  0  0  0
  140.3480   68.4310  229.1160 F   0  0  0  0  0  0  0  0  0  0  0  0
  140.9960   70.5670  228.2840 C   0  0  0  0  0  0  0  0  0  0  0  0
  141.0710   71.4550  227.2180 C   0  0  0  0  0  0  0  0  0  0  0  0
  140.5770   71.0600  225.9900 C   0  0  0  0  0  0  0  0  0  0  0  0
  140.6280   71.8900  224.9180 N   0  0  0  0  0  0  0  0  0  0  0  0
  138.3710   73.4100  222.9980 H   0  0  0  0  0  0  0  0  0  0  0  0
  139.9253   73.8295  220.4280 H   0  0  0  0  0  0  0  0  0  0  0  0
  138.3230   74.5155  220.7899 H   0  0  0  0  0  0  0  0  0  0  0  0
  137.5772   77.4017  220.5636 H   0  0  0  0  0  0  0  0  0  0  0  0
  137.2974   75.8644  221.3122 H   0  0  0  0  0  0  0  0  0  0  0  0
  136.4330   78.1904  222.4883 H   0  0  0  0  0  0  0  0  0  0  0  0
  137.0082   76.8973  223.5260 H   0  0  0  0  0  0  0  0  0  0  0  0
  138.2375   79.5091  223.0330 H   0  0  0  0  0  0  0  0  0  0  0  0
  138.8462   78.2527  224.1168 H   0  0  0  0  0  0  0  0  0  0  0  0
  139.5894   78.7549  221.1756 H   0  0  0  0  0  0  0  0  0  0  0  0
  141.3858   77.4434  222.7807 H   0  0  0  0  0  0  0  0  0  0  0  0
  140.3997   80.3438  223.3787 H   0  0  0  0  0  0  0  0  0  0  0  0
  140.5295   79.0549  224.5684 H   0  0  0  0  0  0  0  0  0  0  0  0
  142.6472   80.2088  224.8230 H   0  0  0  0  0  0  0  0  0  0  0  0
  143.1057   78.9086  223.7168 H   0  0  0  0  0  0  0  0  0  0  0  0
  141.0995   81.0375  221.6966 H   0  0  0  0  0  0  0  0  0  0  0  0
  142.7112   80.8718  220.8455 H   0  0  0  0  0  0  0  0  0  0  0  0
  141.2542   78.9554  220.4342 H   0  0  0  0  0  0  0  0  0  0  0  0
  142.7623   78.5242  221.3429 H   0  0  0  0  0  0  0  0  0  0  0  0
  139.2087   70.0028  222.5184 H   0  0  0  0  0  0  0  0  0  0  0  0
  139.0771   68.4250  224.4274 H   0  0  0  0  0  0  0  0  0  0  0  0
  139.4973   67.9240  226.7375 H   0  0  0  0  0  0  0  0  0  0  0  0
  141.3824   70.8602  229.2713 H   0  0  0  0  0  0  0  0  0  0  0  0
  141.5150   72.4528  227.3494 H   0  0  0  0  0  0  0  0  0  0  0  0
  1  2  2  0
  2  3  1  0
  3  4  1  0
  4  5  1  0
  5  6  2  0
  5  7  1  0
  7  8  1  0
  8  9  1  0
  9 10  1  0
 10 11  1  0
 11 12  1  0
 12 13  1  0
 13 14  1  0
 14 15  1  0
 15 16  1  0
 16 17  1  0
  2 18  1  0
 18 19  2  0
 19 20  1  0
 20 21  2  0
 21 22  1  0
 22 23  2  0
 23 24  1  0
 23 25  1  0
 25 26  2  0
 26 27  1  0
 27 28  2  0
 11  7  1  0
 17 12  1  0
 28 18  1  0
 27 21  1  0
  3 29  1  0
  4 30  1  0
  4 31  1  0
  8 32  1  0
  8 33  1  0
  9 34  1  0
  9 35  1  0
 10 36  1  0
 10 37  1  0
 11 38  1  6
 12 39  1  0
 13 40  1  0
 13 41  1  0
 14 42  1  0
 14 43  1  0
 16 44  1  0
 16 45  1  0
 17 46  1  0
 17 47  1  0
 19 48  1  0
 20 49  1  0
 22 50  1  0
 25 51  1  0
 26 52  1  0
M  END
>  <meeko>  (13) 
{"free_energy": -8.72, "intermolecular_energy": -10.21, "internal_energy": -1.18, "cluster_size": 6, "cluster_id": 1, "rank_in_cluster": 3}

$$$$

     RDKit          3D

 52 55  0  0  0  0  0  0  0  0999 V2000
  140.3200   70.8460  221.2200 O   0  0  0  0  0  0  0  0  0  0  0  0
  140.0320   71.4490  222.2770 C   0  0  0  0  0  0  0  0  0  0  0  0
  139.8210   72.8410  222.2190 N   0  0  0  0  0  0  0  0  0  0  0  0
  139.9490   73.5060  220.9420 C   0  0  0  0  0  0  0  0  0  0  0  0
  140.6320   74.8300  221.1920 C   0  0  0  0  0  0  0  0  0  0  0  0
  140.4700   75.2960  222.3460 O   0  0  0  0  0  0  0  0  0  0  0  0
  141.3770   75.4370  220.1620 N   0  0  0  0  0  0  0  0  0  0  0  0
  140.9460   76.6780  219.4670 C   0  0  0  0  0  0  0  0  0  0  0  0
  142.1990   77.5100  219.6030 C   0  0  0  0  0  0  0  0  0  0  0  0
  143.3170   76.4750  219.6180 C   0  0  0  0  0  0  0  0  0  0  0  0
  142.6240   75.1320  219.5250 C   0  0  1  0  0  0  0  0  0  0  0  0
  143.4020   73.9800  220.0250 C   0  0  0  0  0  0  0  0  0  0  0  0
  144.8220   74.4200  220.4630 C   0  0  0  0  0  0  0  0  0  0  0  0
  145.5500   73.1050  220.7590 C   0  0  0  0  0  0  0  0  0  0  0  0
  145.9780   72.6330  219.5240 O   0  0  0  0  0  0  0  0  0  0  0  0
  145.0660   72.8800  218.5090 C   0  0  0  0  0  0  0  0  0  0  0  0
  143.6280   72.9120  218.9710 C   0  0  0  0  0  0  0  0  0  0  0  0
  139.9130   70.7340  223.5460 C   0  0  0  0  0  0  0  0  0  0  0  0
  139.2520   69.5040  223.5630 C   0  0  0  0  0  0  0  0  0  0  0  0
  139.1380   68.8300  224.7490 C   0  0  0  0  0  0  0  0  0  0  0  0
  139.6760   69.3740  225.8960 C   0  0  0  0  0  0  0  0  0  0  0  0
  139.5630   68.6940  227.1020 C   0  0  0  0  0  0  0  0  0  0  0  0
  140.1050   69.2450  228.2540 C   0  0  0  0  0  0  0  0  0  0  0  0
  139.9760   68.5560  229.3990 F   0  0  0  0  0  0  0  0  0  0  0  0
  140.7590   70.4700  228.2160 C   0  0  0  0  0  0  0  0  0  0  0  0
  140.8780   71.1590  227.0160 C   0  0  0  0  0  0  0  0  0  0  0  0
  140.3350   70.6020  225.8740 C   0  0  0  0  0  0  0  0  0  0  0  0
  140.4250   71.2350  224.6770 N   0  0  0  0  0  0  0  0  0  0  0  0
  139.5790   73.3540  223.1070 H   0  0  0  0  0  0  0  0  0  0  0  0
  140.5542   72.8935  220.2575 H   0  0  0  0  0  0  0  0  0  0  0  0
  138.9618   73.6577  220.4810 H   0  0  0  0  0  0  0  0  0  0  0  0
  140.6954   76.4884  218.4128 H   0  0  0  0  0  0  0  0  0  0  0  0
  140.0368   77.1433  219.8754 H   0  0  0  0  0  0  0  0  0  0  0  0
  142.3098   78.1954  218.7498 H   0  0  0  0  0  0  0  0  0  0  0  0
  142.1939   78.1465  220.5002 H   0  0  0  0  0  0  0  0  0  0  0  0
  143.9886   76.6217  218.7592 H   0  0  0  0  0  0  0  0  0  0  0  0
  143.9351   76.5541  220.5245 H   0  0  0  0  0  0  0  0  0  0  0  0
  142.4860   74.7453  218.5045 H   0  0  0  0  0  0  0  0  0  0  0  0
  142.8044   73.5807  220.8577 H   0  0  0  0  0  0  0  0  0  0  0  0
  145.3258   74.9713  219.6554 H   0  0  0  0  0  0  0  0  0  0  0  0
  144.8041   75.0956  221.3309 H   0  0  0  0  0  0  0  0  0  0  0  0
  146.4096   73.2820  221.4221 H   0  0  0  0  0  0  0  0  0  0  0  0
  144.8964   72.3818  221.2688 H   0  0  0  0  0  0  0  0  0  0  0  0
  145.3062   73.8538  218.0573 H   0  0  0  0  0  0  0  0  0  0  0  0
  145.1525   72.0490  217.7935 H   0  0  0  0  0  0  0  0  0  0  0  0
  142.9803   73.1210  218.1068 H   0  0  0  0  0  0  0  0  0  0  0  0
  143.3883   71.9348  219.4154 H   0  0  0  0  0  0  0  0  0  0  0  0
  138.8298   69.0835  222.6384 H   0  0  0  0  0  0  0  0  0  0  0  0
  138.6203   67.8602  224.7867 H   0  0  0  0  0  0  0  0  0  0  0  0
  139.0465   67.7237  227.1433 H   0  0  0  0  0  0  0  0  0  0  0  0
  141.1832   70.8949  229.1377 H   0  0  0  0  0  0  0  0  0  0  0  0
  141.3945   72.1293  226.9755 H   0  0  0  0  0  0  0  0  0  0  0  0
  1  2  2  0
  2  3  1  0
  3  4  1  0
  4  5  1  0
  5  6  2  0
  5  7  1  0
  7  8  1  0
  8  9  1  0
  9 10  1  0
 10 11  1  0
 11 12  1  0
 12 13  1  0
 13 14  1  0
 14 15  1  0
 15 16  1  0
 16 17  1  0
  2 18  1  0
 18 19  2  0
 19 20  1  0
 20 21  2  0
 21 22  1  0
 22 23  2  0
 23 24  1  0
 23 25  1  0
 25 26  2  0
 26 27  1  0
 27 28  2  0
 11  7  1  0
 17 12  1  0
 28 18  1  0
 27 21  1  0
  3 29  1  0
  4 30  1  0
  4 31  1  0
  8 32  1  0
  8 33  1  0
  9 34  1  0
  9 35  1  0
 10 36  1  0
 10 37  1  0
 11 38  1  6
 12 39  1  0
 13 40  1  0
 13 41  1  0
 14 42  1  0
 14 43  1  0
 16 44  1  0
 16 45  1  0
 17 46  1  0
 17 47  1  0
 19 48  1  0
 20 49  1  0
 22 50  1  0
 25 51  1  0
 26 52  1  0
M  END
>  <meeko>  (14) 
{"free_energy": -8.56, "intermolecular_energy": -10.05, "internal_energy": -1.9, "cluster_size": 13, "cluster_id": 2, "rank_in_cluster": 3}

$$$$

     RDKit          3D

 52 55  0  0  0  0  0  0  0  0999 V2000
  140.2490   70.8950  221.1970 O   0  0  0  0  0  0  0  0  0  0  0  0
  139.9930   71.4970  222.2620 C   0  0  0  0  0  0  0  0  0  0  0  0
  139.8020   72.8910  222.2170 N   0  0  0  0  0  0  0  0  0  0  0  0
  139.9140   73.5610  220.9400 C   0  0  0  0  0  0  0  0  0  0  0  0
  140.6700   74.8490  221.1730 C   0  0  0  0  0  0  0  0  0  0  0  0
  140.5910   75.3010  222.3410 O   0  0  0  0  0  0  0  0  0  0  0  0
  141.3850   75.4390  220.1140 N   0  0  0  0  0  0  0  0  0  0  0  0
  140.9540   76.6890  219.4350 C   0  0  0  0  0  0  0  0  0  0  0  0
  142.2280   77.4950  219.5200 C   0  0  0  0  0  0  0  0  0  0  0  0
  143.3240   76.4370  219.4920 C   0  0  0  0  0  0  0  0  0  0  0  0
  142.6000   75.1080  219.4290 C   0  0  1  0  0  0  0  0  0  0  0  0
  143.3730   73.9410  219.8980 C   0  0  0  0  0  0  0  0  0  0  0  0
  144.7450   74.3800  220.4720 C   0  0  0  0  0  0  0  0  0  0  0  0
  145.4870   73.0630  220.7220 C   0  0  0  0  0  0  0  0  0  0  0  0
  146.0160   72.6970  219.4920 O   0  0  0  0  0  0  0  0  0  0  0  0
  145.1740   72.9990  218.4320 C   0  0  0  0  0  0  0  0  0  0  0  0
  143.7060   72.9610  218.7870 C   0  0  0  0  0  0  0  0  0  0  0  0
  139.8890   70.7770  223.5310 C   0  0  0  0  0  0  0  0  0  0  0  0
  139.2800   69.5200  223.5400 C   0  0  0  0  0  0  0  0  0  0  0  0
  139.1810   68.8420  224.7250 C   0  0  0  0  0  0  0  0  0  0  0  0
  139.6820   69.4070  225.8780 C   0  0  0  0  0  0  0  0  0  0  0  0
  139.5830   68.7230  227.0830 C   0  0  0  0  0  0  0  0  0  0  0  0
  140.0880   69.2970  228.2410 C   0  0  0  0  0  0  0  0  0  0  0  0
  139.9740   68.6030  229.3840 F   0  0  0  0  0  0  0  0  0  0  0  0
  140.6900   70.5480  228.2100 C   0  0  0  0  0  0  0  0  0  0  0  0
  140.7940   71.2420  227.0110 C   0  0  0  0  0  0  0  0  0  0  0  0
  140.2880   70.6620  225.8630 C   0  0  0  0  0  0  0  0  0  0  0  0
  140.3650   71.2990  224.6680 N   0  0  0  0  0  0  0  0  0  0  0  0
  139.5860   73.4040  223.1110 H   0  0  0  0  0  0  0  0  0  0  0  0
  140.4624   72.9261  220.2286 H   0  0  0  0  0  0  0  0  0  0  0  0
  138.9186   73.7645  220.5183 H   0  0  0  0  0  0  0  0  0  0  0  0
  140.6581   76.5043  218.3918 H   0  0  0  0  0  0  0  0  0  0  0  0
  140.0720   77.1736  219.8790 H   0  0  0  0  0  0  0  0  0  0  0  0
  142.3189   78.1775  218.6621 H   0  0  0  0  0  0  0  0  0  0  0  0
  142.2717   78.1320  220.4157 H   0  0  0  0  0  0  0  0  0  0  0  0
  143.9636   76.5690  218.6068 H   0  0  0  0  0  0  0  0  0  0  0  0
  143.9793   76.5040  220.3729 H   0  0  0  0  0  0  0  0  0  0  0  0
  142.4135   74.7233  218.4155 H   0  0  0  0  0  0  0  0  0  0  0  0
  142.7285   73.4656  220.6521 H   0  0  0  0  0  0  0  0  0  0  0  0
  145.2897   75.0031  219.7474 H   0  0  0  0  0  0  0  0  0  0  0  0
  144.6453   74.9870  221.3840 H   0  0  0  0  0  0  0  0  0  0  0  0
  146.2910   73.2084  221.4585 H   0  0  0  0  0  0  0  0  0  0  0  0
  144.8189   72.2882  221.1261 H   0  0  0  0  0  0  0  0  0  0  0  0
  145.4176   74.0099  218.0732 H   0  0  0  0  0  0  0  0  0  0  0  0
  145.3372   72.2280  217.6646 H   0  0  0  0  0  0  0  0  0  0  0  0
  143.1164   73.2191  217.8950 H   0  0  0  0  0  0  0  0  0  0  0  0
  143.4637   71.9474  219.1389 H   0  0  0  0  0  0  0  0  0  0  0  0
  138.8866   69.0824  222.6106 H   0  0  0  0  0  0  0  0  0  0  0  0
  138.7040   67.8513  224.7569 H   0  0  0  0  0  0  0  0  0  0  0  0
  139.1070   67.7320  227.1190 H   0  0  0  0  0  0  0  0  0  0  0  0
  141.0852   70.9902  229.1364 H   0  0  0  0  0  0  0  0  0  0  0  0
  141.2696   72.2333  226.9760 H   0  0  0  0  0  0  0  0  0  0  0  0
  1  2  2  0
  2  3  1  0
  3  4  1  0
  4  5  1  0
  5  6  2  0
  5  7  1  0
  7  8  1  0
  8  9  1  0
  9 10  1  0
 10 11  1  0
 11 12  1  0
 12 13  1  0
 13 14  1  0
 14 15  1  0
 15 16  1  0
 16 17  1  0
  2 18  1  0
 18 19  2  0
 19 20  1  0
 20 21  2  0
 21 22  1  0
 22 23  2  0
 23 24  1  0
 23 25  1  0
 25 26  2  0
 26 27  1  0
 27 28  2  0
 11  7  1  0
 17 12  1  0
 28 18  1  0
 27 21  1  0
  3 29  1  0
  4 30  1  0
  4 31  1  0
  8 32  1  0
  8 33  1  0
  9 34  1  0
  9 35  1  0
 10 36  1  0
 10 37  1  0
 11 38  1  6
 12 39  1  0
 13 40  1  0
 13 41  1  0
 14 42  1  0
 14 43  1  0
 16 44  1  0
 16 45  1  0
 17 46  1  0
 17 47  1  0
 19 48  1  0
 20 49  1  0
 22 50  1  0
 25 51  1  0
 26 52  1  0
M  END
>  <meeko>  (15) 
{"free_energy": -8.54, "intermolecular_energy": -10.03, "internal_energy": -1.9, "cluster_size": 13, "cluster_id": 2, "rank_in_cluster": 10}

$$$$

     RDKit          3D

 52 55  0  0  0  0  0  0  0  0999 V2000
  141.0960   73.6080  220.3500 O   0  0  0  0  0  0  0  0  0  0  0  0
  140.6010   74.3720  221.2060 C   0  0  0  0  0  0  0  0  0  0  0  0
  139.6440   73.8510  222.0990 N   0  0  0  0  0  0  0  0  0  0  0  0
  139.2780   72.4570  221.9810 C   0  0  0  0  0  0  0  0  0  0  0  0
  139.5610   71.8050  223.3150 C   0  0  0  0  0  0  0  0  0  0  0  0
  140.7040   72.0340  223.7800 O   0  0  0  0  0  0  0  0  0  0  0  0
  138.5700   71.0150  223.9290 N   0  0  0  0  0  0  0  0  0  0  0  0
  137.1350   71.0640  223.5460 C   0  0  0  0  0  0  0  0  0  0  0  0
  136.8640   69.5940  223.3290 C   0  0  0  0  0  0  0  0  0  0  0  0
  137.8200   68.9070  224.2960 C   0  0  0  0  0  0  0  0  0  0  0  0
  138.5890   70.0270  224.9660 C   0  0  1  0  0  0  0  0  0  0  0  0
  139.8930   69.6430  225.5450 C   0  0  0  0  0  0  0  0  0  0  0  0
  139.7790   68.3110  226.3300 C   0  0  0  0  0  0  0  0  0  0  0  0
  141.1390   68.1640  227.0200 C   0  0  0  0  0  0  0  0  0  0  0  0
  141.0620   68.9500  228.1630 O   0  0  0  0  0  0  0  0  0  0  0  0
  140.3420   70.1190  227.9640 C   0  0  0  0  0  0  0  0  0  0  0  0
  140.4160   70.6510  226.5520 C   0  0  0  0  0  0  0  0  0  0  0  0
  141.0010   75.7770  221.2880 C   0  0  0  0  0  0  0  0  0  0  0  0
  141.8160   76.3000  220.2810 C   0  0  0  0  0  0  0  0  0  0  0  0
  142.1940   77.6130  220.3520 C   0  0  0  0  0  0  0  0  0  0  0  0
  141.7640   78.3900  221.4070 C   0  0  0  0  0  0  0  0  0  0  0  0
  142.1450   79.7240  221.4840 C   0  0  0  0  0  0  0  0  0  0  0  0
  141.7110   80.5020  222.5470 C   0  0  0  0  0  0  0  0  0  0  0  0
  142.1000   81.7850  222.5840 F   0  0  0  0  0  0  0  0  0  0  0  0
  140.9000   79.9610  223.5380 C   0  0  0  0  0  0  0  0  0  0  0  0
  140.5140   78.6290  223.4720 C   0  0  0  0  0  0  0  0  0  0  0  0
  140.9510   77.8630  222.4090 C   0  0  0  0  0  0  0  0  0  0  0  0
  140.6010   76.5560  222.2990 N   0  0  0  0  0  0  0  0  0  0  0  0
  139.2230   74.4910  222.8220 H   0  0  0  0  0  0  0  0  0  0  0  0
  138.2091   72.3675  221.7372 H   0  0  0  0  0  0  0  0  0  0  0  0
  139.8519   71.9696  221.1791 H   0  0  0  0  0  0  0  0  0  0  0  0
  136.5122   71.4780  224.3527 H   0  0  0  0  0  0  0  0  0  0  0  0
  136.9105   71.7064  222.6817 H   0  0  0  0  0  0  0  0  0  0  0  0
  135.8190   69.3477  223.5684 H   0  0  0  0  0  0  0  0  0  0  0  0
  137.0140   69.2812  222.2851 H   0  0  0  0  0  0  0  0  0  0  0  0
  137.2598   68.3247  225.0424 H   0  0  0  0  0  0  0  0  0  0  0  0
  138.4894   68.2038  223.7788 H   0  0  0  0  0  0  0  0  0  0  0  0
  138.1514   70.4016  225.9031 H   0  0  0  0  0  0  0  0  0  0  0  0
  140.5713   69.5711  224.6820 H   0  0  0  0  0  0  0  0  0  0  0  0
  138.9687   68.3636  227.0720 H   0  0  0  0  0  0  0  0  0  0  0  0
  139.5425   67.4568  225.6785 H   0  0  0  0  0  0  0  0  0  0  0  0
  141.3227   67.1130  227.2878 H   0  0  0  0  0  0  0  0  0  0  0  0
  141.9652   68.4767  226.3645 H   0  0  0  0  0  0  0  0  0  0  0  0
  139.2870   69.9212  228.2047 H   0  0  0  0  0  0  0  0  0  0  0  0
  140.7881   70.8836  228.6170 H   0  0  0  0  0  0  0  0  0  0  0  0
  139.8128   71.5684  226.4845 H   0  0  0  0  0  0  0  0  0  0  0  0
  141.4710   70.8552  226.3170 H   0  0  0  0  0  0  0  0  0  0  0  0
  142.1482   75.6668  219.4451 H   0  0  0  0  0  0  0  0  0  0  0  0
  142.8372   78.0464  219.5720 H   0  0  0  0  0  0  0  0  0  0  0  0
  142.7878   80.1610  220.7056 H   0  0  0  0  0  0  0  0  0  0  0  0
  140.5635   80.5893  224.3759 H   0  0  0  0  0  0  0  0  0  0  0  0
  139.8724   78.1921  224.2514 H   0  0  0  0  0  0  0  0  0  0  0  0
  1  2  2  0
  2  3  1  0
  3  4  1  0
  4  5  1  0
  5  6  2  0
  5  7  1  0
  7  8  1  0
  8  9  1  0
  9 10  1  0
 10 11  1  0
 11 12  1  0
 12 13  1  0
 13 14  1  0
 14 15  1  0
 15 16  1  0
 16 17  1  0
  2 18  1  0
 18 19  2  0
 19 20  1  0
 20 21  2  0
 21 22  1  0
 22 23  2  0
 23 24  1  0
 23 25  1  0
 25 26  2  0
 26 27  1  0
 27 28  2  0
 11  7  1  0
 17 12  1  0
 28 18  1  0
 27 21  1  0
  3 29  1  0
  4 30  1  0
  4 31  1  0
  8 32  1  0
  8 33  1  0
  9 34  1  0
  9 35  1  0
 10 36  1  0
 10 37  1  0
 11 38  1  1
 12 39  1  0
 13 40  1  0
 13 41  1  0
 14 42  1  0
 14 43  1  0
 16 44  1  0
 16 45  1  0
 17 46  1  0
 17 47  1  0
 19 48  1  0
 20 49  1  0
 22 50  1  0
 25 51  1  0
 26 52  1  0
M  END
>  <meeko>  (16) 
{"free_energy": -7.88, "intermolecular_energy": -9.37, "internal_energy": -1.42, "cluster_size": 1, "cluster_id": 3, "rank_in_cluster": 1}

$$$$

     RDKit          3D

 52 55  0  0  0  0  0  0  0  0999 V2000
  139.6540   71.0330  221.1310 O   0  0  0  0  0  0  0  0  0  0  0  0
  139.7480   71.5840  222.2490 C   0  0  0  0  0  0  0  0  0  0  0  0
  139.8280   72.9890  222.3010 N   0  0  0  0  0  0  0  0  0  0  0  0
  139.7980   73.7280  221.0580 C   0  0  0  0  0  0  0  0  0  0  0  0
  140.7870   74.8640  221.1870 C   0  0  0  0  0  0  0  0  0  0  0  0
  140.8460   75.3820  222.3280 O   0  0  0  0  0  0  0  0  0  0  0  0
  141.5500   75.2550  220.0690 N   0  0  0  0  0  0  0  0  0  0  0  0
  141.0680   76.2270  219.0530 C   0  0  0  0  0  0  0  0  0  0  0  0
  142.2350   77.1850  219.0240 C   0  0  0  0  0  0  0  0  0  0  0  0
  143.4310   76.3040  219.3630 C   0  0  0  0  0  0  0  0  0  0  0  0
  142.8600   74.9210  219.5940 C   0  0  1  0  0  0  0  0  0  0  0  0
  143.6940   74.0190  220.4150 C   0  0  0  0  0  0  0  0  0  0  0  0
  145.1590   74.5220  220.4740 C   0  0  0  0  0  0  0  0  0  0  0  0
  145.9160   73.3910  221.1790 C   0  0  0  0  0  0  0  0  0  0  0  0
  146.1820   72.4510  220.1910 O   0  0  0  0  0  0  0  0  0  0  0  0
  145.1490   72.3280  219.2740 C   0  0  0  0  0  0  0  0  0  0  0  0
  143.7820   72.6120  219.8500 C   0  0  0  0  0  0  0  0  0  0  0  0
  139.7750   70.7960  223.4800 C   0  0  0  0  0  0  0  0  0  0  0  0
  139.2160   69.5150  223.4670 C   0  0  0  0  0  0  0  0  0  0  0  0
  139.2380   68.7730  224.6170 C   0  0  0  0  0  0  0  0  0  0  0  0
  139.8080   69.2980  225.7570 C   0  0  0  0  0  0  0  0  0  0  0  0
  139.8330   68.5490  226.9260 C   0  0  0  0  0  0  0  0  0  0  0  0
  140.4080   69.0810  228.0710 C   0  0  0  0  0  0  0  0  0  0  0  0
  140.4120   68.3250  229.1790 F   0  0  0  0  0  0  0  0  0  0  0  0
  140.9580   70.3570  228.0620 C   0  0  0  0  0  0  0  0  0  0  0  0
  140.9380   71.1160  226.8990 C   0  0  0  0  0  0  0  0  0  0  0  0
  140.3640   70.5770  225.7640 C   0  0  0  0  0  0  0  0  0  0  0  0
  140.3210   71.2770  224.6030 N   0  0  0  0  0  0  0  0  0  0  0  0
  139.9080   73.4590  223.2400 H   0  0  0  0  0  0  0  0  0  0  0  0
  140.0849   73.0720  220.2229 H   0  0  0  0  0  0  0  0  0  0  0  0
  138.7870   74.1124  220.8575 H   0  0  0  0  0  0  0  0  0  0  0  0
  140.9091   75.7489  218.0751 H   0  0  0  0  0  0  0  0  0  0  0  0
  140.0968   76.6900  219.2820 H   0  0  0  0  0  0  0  0  0  0  0  0
  142.3489   77.6350  218.0267 H   0  0  0  0  0  0  0  0  0  0  0  0
  142.1137   78.0273  219.7210 H   0  0  0  0  0  0  0  0  0  0  0  0
  144.1474   76.2900  218.5284 H   0  0  0  0  0  0  0  0  0  0  0  0
  143.9746   76.6743  220.2447 H   0  0  0  0  0  0  0  0  0  0  0  0
  142.8269   74.2728  218.7059 H   0  0  0  0  0  0  0  0  0  0  0  0
  143.2076   74.0095  221.4016 H   0  0  0  0  0  0  0  0  0  0  0  0
  145.5565   74.6857  219.4615 H   0  0  0  0  0  0  0  0  0  0  0  0
  145.2537   75.4840  220.9990 H   0  0  0  0  0  0  0  0  0  0  0  0
  146.8536   73.7682  221.6134 H   0  0  0  0  0  0  0  0  0  0  0  0
  145.3307   72.9608  222.0051 H   0  0  0  0  0  0  0  0  0  0  0  0
  145.3312   73.0340  218.4503 H   0  0  0  0  0  0  0  0  0  0  0  0
  145.1428   71.2803  218.9388 H   0  0  0  0  0  0  0  0  0  0  0  0
  143.0295   72.4987  219.0557 H   0  0  0  0  0  0  0  0  0  0  0  0
  143.5994   71.9006  220.6689 H   0  0  0  0  0  0  0  0  0  0  0  0
  138.7662   69.1101  222.5484 H   0  0  0  0  0  0  0  0  0  0  0  0
  138.8030   67.7628  224.6314 H   0  0  0  0  0  0  0  0  0  0  0  0
  139.3989   67.5385  226.9441 H   0  0  0  0  0  0  0  0  0  0  0  0
  141.4099   70.7667  228.9774 H   0  0  0  0  0  0  0  0  0  0  0  0
  141.3710   72.1270  226.8820 H   0  0  0  0  0  0  0  0  0  0  0  0
  1  2  2  0
  2  3  1  0
  3  4  1  0
  4  5  1  0
  5  6  2  0
  5  7  1  0
  7  8  1  0
  8  9  1  0
  9 10  1  0
 10 11  1  0
 11 12  1  0
 12 13  1  0
 13 14  1  0
 14 15  1  0
 15 16  1  0
 16 17  1  0
  2 18  1  0
 18 19  2  0
 19 20  1  0
 20 21  2  0
 21 22  1  0
 22 23  2  0
 23 24  1  0
 23 25  1  0
 25 26  2  0
 26 27  1  0
 27 28  2  0
 11  7  1  0
 17 12  1  0
 28 18  1  0
 27 21  1  0
  3 29  1  0
  4 30  1  0
  4 31  1  0
  8 32  1  0
  8 33  1  0
  9 34  1  0
  9 35  1  0
 10 36  1  0
 10 37  1  0
 11 38  1  6
 12 39  1  0
 13 40  1  0
 13 41  1  0
 14 42  1  0
 14 43  1  0
 16 44  1  0
 16 45  1  0
 17 46  1  0
 17 47  1  0
 19 48  1  0
 20 49  1  0
 22 50  1  0
 25 51  1  0
 26 52  1  0
M  END
>  <meeko>  (17) 
{"free_energy": -8.31, "intermolecular_energy": -9.8, "internal_energy": -1.91, "cluster_size": 13, "cluster_id": 2, "rank_in_cluster": 12}

$$$$

     RDKit          3D

 52 55  0  0  0  0  0  0  0  0999 V2000
  140.0950   71.0700  221.1070 O   0  0  0  0  0  0  0  0  0  0  0  0
  139.9040   71.6370  222.2050 C   0  0  0  0  0  0  0  0  0  0  0  0
  139.7330   73.0350  222.2170 N   0  0  0  0  0  0  0  0  0  0  0  0
  139.7880   73.7480  220.9600 C   0  0  0  0  0  0  0  0  0  0  0  0
  140.6580   74.9650  221.1720 C   0  0  0  0  0  0  0  0  0  0  0  0
  140.6530   75.4180  222.3420 O   0  0  0  0  0  0  0  0  0  0  0  0
  141.3890   75.4950  220.0920 N   0  0  0  0  0  0  0  0  0  0  0  0
  140.9520   76.6860  219.3170 C   0  0  0  0  0  0  0  0  0  0  0  0
  142.2080   77.5220  219.3780 C   0  0  0  0  0  0  0  0  0  0  0  0
  143.3250   76.4880  219.4510 C   0  0  0  0  0  0  0  0  0  0  0  0
  142.6270   75.1430  219.4620 C   0  0  1  0  0  0  0  0  0  0  0  0
  143.4110   74.0270  220.0310 C   0  0  0  0  0  0  0  0  0  0  0  0
  144.8270   74.5000  220.4450 C   0  0  0  0  0  0  0  0  0  0  0  0
  145.5610   73.2080  220.8190 C   0  0  0  0  0  0  0  0  0  0  0  0
  145.9930   72.6650  219.6160 O   0  0  0  0  0  0  0  0  0  0  0  0
  145.0830   72.8470  218.5860 C   0  0  0  0  0  0  0  0  0  0  0  0
  143.6440   72.8990  219.0420 C   0  0  0  0  0  0  0  0  0  0  0  0
  139.8570   70.8750  223.4520 C   0  0  0  0  0  0  0  0  0  0  0  0
  139.2590   69.6120  223.4420 C   0  0  0  0  0  0  0  0  0  0  0  0
  139.2120   68.8940  224.6070 C   0  0  0  0  0  0  0  0  0  0  0  0
  139.7530   69.4260  225.7580 C   0  0  0  0  0  0  0  0  0  0  0  0
  139.7080   68.7010  226.9420 C   0  0  0  0  0  0  0  0  0  0  0  0
  140.2530   69.2410  228.0980 C   0  0  0  0  0  0  0  0  0  0  0  0
  140.1900   68.5080  229.2210 F   0  0  0  0  0  0  0  0  0  0  0  0
  140.8430   70.4980  228.0860 C   0  0  0  0  0  0  0  0  0  0  0  0
  140.8940   71.2320  226.9080 C   0  0  0  0  0  0  0  0  0  0  0  0
  140.3480   70.6870  225.7610 C   0  0  0  0  0  0  0  0  0  0  0  0
  140.3730   71.3630  224.5860 N   0  0  0  0  0  0  0  0  0  0  0  0
  139.5720   73.5190  223.1390 H   0  0  0  0  0  0  0  0  0  0  0  0
  140.2235   73.1049  220.1811 H   0  0  0  0  0  0  0  0  0  0  0  0
  138.7793   74.0421  220.6344 H   0  0  0  0  0  0  0  0  0  0  0  0
  140.6874   76.4237  218.2820 H   0  0  0  0  0  0  0  0  0  0  0  0
  140.0493   77.1816  219.7037 H   0  0  0  0  0  0  0  0  0  0  0  0
  142.3086   78.1456  218.4774 H   0  0  0  0  0  0  0  0  0  0  0  0
  142.2157   78.2195  220.2285 H   0  0  0  0  0  0  0  0  0  0  0  0
  143.9852   76.5720  218.5752 H   0  0  0  0  0  0  0  0  0  0  0  0
  143.9560   76.6291  220.3409 H   0  0  0  0  0  0  0  0  0  0  0  0
  142.4732   74.6858  218.4734 H   0  0  0  0  0  0  0  0  0  0  0  0
  142.8146   73.6744  220.8854 H   0  0  0  0  0  0  0  0  0  0  0  0
  145.3297   75.0057  219.6074 H   0  0  0  0  0  0  0  0  0  0  0  0
  144.8038   75.2255  221.2715 H   0  0  0  0  0  0  0  0  0  0  0  0
  146.4188   73.4283  221.4714 H   0  0  0  0  0  0  0  0  0  0  0  0
  144.9096   72.5134  221.3696 H   0  0  0  0  0  0  0  0  0  0  0  0
  145.3197   73.7936  218.0781 H   0  0  0  0  0  0  0  0  0  0  0  0
  145.1756   71.9758  217.9208 H   0  0  0  0  0  0  0  0  0  0  0  0
  142.9973   73.0534  218.1657 H   0  0  0  0  0  0  0  0  0  0  0  0
  143.4074   71.9485  219.5426 H   0  0  0  0  0  0  0  0  0  0  0  0
  138.8334   69.2017  222.5143 H   0  0  0  0  0  0  0  0  0  0  0  0
  138.7451   67.8981  224.6244 H   0  0  0  0  0  0  0  0  0  0  0  0
  139.2429   67.7044  226.9630 H   0  0  0  0  0  0  0  0  0  0  0  0
  141.2705   70.9130  229.0107 H   0  0  0  0  0  0  0  0  0  0  0  0
  141.3601   72.2282  226.8882 H   0  0  0  0  0  0  0  0  0  0  0  0
  1  2  2  0
  2  3  1  0
  3  4  1  0
  4  5  1  0
  5  6  2  0
  5  7  1  0
  7  8  1  0
  8  9  1  0
  9 10  1  0
 10 11  1  0
 11 12  1  0
 12 13  1  0
 13 14  1  0
 14 15  1  0
 15 16  1  0
 16 17  1  0
  2 18  1  0
 18 19  2  0
 19 20  1  0
 20 21  2  0
 21 22  1  0
 22 23  2  0
 23 24  1  0
 23 25  1  0
 25 26  2  0
 26 27  1  0
 27 28  2  0
 11  7  1  0
 17 12  1  0
 28 18  1  0
 27 21  1  0
  3 29  1  0
  4 30  1  0
  4 31  1  0
  8 32  1  0
  8 33  1  0
  9 34  1  0
  9 35  1  0
 10 36  1  0
 10 37  1  0
 11 38  1  6
 12 39  1  0
 13 40  1  0
 13 41  1  0
 14 42  1  0
 14 43  1  0
 16 44  1  0
 16 45  1  0
 17 46  1  0
 17 47  1  0
 19 48  1  0
 20 49  1  0
 22 50  1  0
 25 51  1  0
 26 52  1  0
M  END
>  <meeko>  (18) 
{"free_energy": -8.57, "intermolecular_energy": -10.06, "internal_energy": -1.86, "cluster_size": 13, "cluster_id": 2, "rank_in_cluster": 2}

$$$$

     RDKit          3D

 52 55  0  0  0  0  0  0  0  0999 V2000
  141.0880   71.9780  221.3230 O   0  0  0  0  0  0  0  0  0  0  0  0
  140.4950   72.4010  222.3390 C   0  0  0  0  0  0  0  0  0  0  0  0
  140.0320   73.7310  222.3420 N   0  0  0  0  0  0  0  0  0  0  0  0
  140.2660   74.5460  221.1700 C   0  0  0  0  0  0  0  0  0  0  0  0
  140.5100   75.9580  221.6460 C   0  0  0  0  0  0  0  0  0  0  0  0
  139.8680   76.2860  222.6730 O   0  0  0  0  0  0  0  0  0  0  0  0
  141.4050   76.7870  220.9420 N   0  0  0  0  0  0  0  0  0  0  0  0
  142.1910   76.3260  219.7670 C   0  0  0  0  0  0  0  0  0  0  0  0
  141.8530   77.4120  218.7740 C   0  0  0  0  0  0  0  0  0  0  0  0
  141.6190   78.6370  219.6490 C   0  0  0  0  0  0  0  0  0  0  0  0
  141.8050   78.1570  221.0730 C   0  0  1  0  0  0  0  0  0  0  0  0
  141.1510   78.9810  222.1110 C   0  0  0  0  0  0  0  0  0  0  0  0
  141.2110   80.4850  221.7420 C   0  0  0  0  0  0  0  0  0  0  0  0
  140.6820   81.2000  222.9900 C   0  0  0  0  0  0  0  0  0  0  0  0
  141.7620   81.2760  223.8590 O   0  0  0  0  0  0  0  0  0  0  0  0
  142.5700   80.1490  223.8140 C   0  0  0  0  0  0  0  0  0  0  0  0
  141.8290   78.8790  223.4650 C   0  0  0  0  0  0  0  0  0  0  0  0
  140.2810   71.5410  223.5020 C   0  0  0  0  0  0  0  0  0  0  0  0
  139.5980   70.3350  223.3260 C   0  0  0  0  0  0  0  0  0  0  0  0
  139.3960   69.5260  224.4120 C   0  0  0  0  0  0  0  0  0  0  0  0
  139.8660   69.9130  225.6480 C   0  0  0  0  0  0  0  0  0  0  0  0
  139.6630   69.0950  226.7530 C   0  0  0  0  0  0  0  0  0  0  0  0
  140.1390   69.4890  227.9950 C   0  0  0  0  0  0  0  0  0  0  0  0
  139.9220   68.6700  229.0360 F   0  0  0  0  0  0  0  0  0  0  0  0
  140.8150   70.6930  228.1480 C   0  0  0  0  0  0  0  0  0  0  0  0
  141.0240   71.5180  227.0510 C   0  0  0  0  0  0  0  0  0  0  0  0
  140.5470   71.1180  225.8180 C   0  0  0  0  0  0  0  0  0  0  0  0
  140.7260   71.8890  224.7160 N   0  0  0  0  0  0  0  0  0  0  0  0
  139.5320   74.0930  223.1960 H   0  0  0  0  0  0  0  0  0  0  0  0
  141.1460   74.1757  220.6236 H   0  0  0  0  0  0  0  0  0  0  0  0
  139.4017   74.5081  220.4906 H   0  0  0  0  0  0  0  0  0  0  0  0
  143.2687   76.2948  219.9850 H   0  0  0  0  0  0  0  0  0  0  0  0
  141.9592   75.3050  219.4296 H   0  0  0  0  0  0  0  0  0  0  0  0
  142.6873   77.5806  218.0772 H   0  0  0  0  0  0  0  0  0  0  0  0
  140.9845   77.1625  218.1467 H   0  0  0  0  0  0  0  0  0  0  0  0
  142.3483   79.4251  219.4104 H   0  0  0  0  0  0  0  0  0  0  0  0
  140.6193   79.0676  219.4903 H   0  0  0  0  0  0  0  0  0  0  0  0
  142.8256   78.2553  221.4712 H   0  0  0  0  0  0  0  0  0  0  0  0
  140.1214   78.5974  222.1646 H   0  0  0  0  0  0  0  0  0  0  0  0
  142.2446   80.7925  221.5250 H   0  0  0  0  0  0  0  0  0  0  0  0
  140.6256   80.7214  220.8412 H   0  0  0  0  0  0  0  0  0  0  0  0
  140.3236   82.2077  222.7330 H   0  0  0  0  0  0  0  0  0  0  0  0
  139.8334   80.6633  223.4392 H   0  0  0  0  0  0  0  0  0  0  0  0
  143.3517   80.3131  223.0577 H   0  0  0  0  0  0  0  0  0  0  0  0
  142.9828   80.0110  224.8242 H   0  0  0  0  0  0  0  0  0  0  0  0
  142.5437   78.0431  223.4441 H   0  0  0  0  0  0  0  0  0  0  0  0
  141.0527   78.7137  224.2266 H   0  0  0  0  0  0  0  0  0  0  0  0
  139.2290   70.0406  222.3324 H   0  0  0  0  0  0  0  0  0  0  0  0
  138.8610   68.5716  224.2982 H   0  0  0  0  0  0  0  0  0  0  0  0
  139.1277   68.1403  226.6434 H   0  0  0  0  0  0  0  0  0  0  0  0
  141.1851   70.9931  229.1394 H   0  0  0  0  0  0  0  0  0  0  0  0
  141.5595   72.4724  227.1618 H   0  0  0  0  0  0  0  0  0  0  0  0
  1  2  2  0
  2  3  1  0
  3  4  1  0
  4  5  1  0
  5  6  2  0
  5  7  1  0
  7  8  1  0
  8  9  1  0
  9 10  1  0
 10 11  1  0
 11 12  1  0
 12 13  1  0
 13 14  1  0
 14 15  1  0
 15 16  1  0
 16 17  1  0
  2 18  1  0
 18 19  2  0
 19 20  1  0
 20 21  2  0
 21 22  1  0
 22 23  2  0
 23 24  1  0
 23 25  1  0
 25 26  2  0
 26 27  1  0
 27 28  2  0
 11  7  1  0
 17 12  1  0
 28 18  1  0
 27 21  1  0
  3 29  1  0
  4 30  1  0
  4 31  1  0
  8 32  1  0
  8 33  1  0
  9 34  1  0
  9 35  1  0
 10 36  1  0
 10 37  1  0
 11 38  1  1
 12 39  1  0
 13 40  1  0
 13 41  1  0
 14 42  1  0
 14 43  1  0
 16 44  1  0
 16 45  1  0
 17 46  1  0
 17 47  1  0
 19 48  1  0
 20 49  1  0
 22 50  1  0
 25 51  1  0
 26 52  1  0
M  END
>  <meeko>  (19) 
{"free_energy": -8.72, "intermolecular_energy": -10.21, "internal_energy": -1.69, "cluster_size": 6, "cluster_id": 1, "rank_in_cluster": 2}

$$$$

     RDKit          3D

 52 55  0  0  0  0  0  0  0  0999 V2000
  138.5140   71.1050  221.6200 O   0  0  0  0  0  0  0  0  0  0  0  0
  139.0860   71.5430  222.6420 C   0  0  0  0  0  0  0  0  0  0  0  0
  139.4640   72.9000  222.6700 N   0  0  0  0  0  0  0  0  0  0  0  0
  139.1750   73.7210  221.5160 C   0  0  0  0  0  0  0  0  0  0  0  0
  139.8760   75.0440  221.7190 C   0  0  0  0  0  0  0  0  0  0  0  0
  141.1000   74.9560  221.9790 O   0  0  0  0  0  0  0  0  0  0  0  0
  139.1470   76.2440  221.6100 N   0  0  0  0  0  0  0  0  0  0  0  0
  137.7210   76.2960  221.1920 C   0  0  0  0  0  0  0  0  0  0  0  0
  137.1440   77.1280  222.3120 C   0  0  0  0  0  0  0  0  0  0  0  0
  138.3020   78.0280  222.7240 C   0  0  0  0  0  0  0  0  0  0  0  0
  139.4610   77.6230  221.8380 C   0  0  1  0  0  0  0  0  0  0  0  0
  140.8040   77.9580  222.3570 C   0  0  0  0  0  0  0  0  0  0  0  0
  140.7090   78.9910  223.5090 C   0  0  0  0  0  0  0  0  0  0  0  0
  142.1660   79.3740  223.7920 C   0  0  0  0  0  0  0  0  0  0  0  0
  142.4890   80.3300  222.8380 O   0  0  0  0  0  0  0  0  0  0  0  0
  141.9100   80.0760  221.6030 C   0  0  0  0  0  0  0  0  0  0  0  0
  141.6980   78.6080  221.3170 C   0  0  0  0  0  0  0  0  0  0  0  0
  139.3590   70.6750  223.7860 C   0  0  0  0  0  0  0  0  0  0  0  0
  138.9880   69.3300  223.7090 C   0  0  0  0  0  0  0  0  0  0  0  0
  139.2410   68.5120  224.7770 C   0  0  0  0  0  0  0  0  0  0  0  0
  139.8530   69.0270  225.9000 C   0  0  0  0  0  0  0  0  0  0  0  0
  140.1120   68.2010  226.9870 C   0  0  0  0  0  0  0  0  0  0  0  0
  140.7280   68.7240  228.1150 C   0  0  0  0  0  0  0  0  0  0  0  0
  140.9610   67.8930  229.1420 F   0  0  0  0  0  0  0  0  0  0  0  0
  141.0890   70.0650  228.1700 C   0  0  0  0  0  0  0  0  0  0  0  0
  140.8350   70.8990  227.0900 C   0  0  0  0  0  0  0  0  0  0  0  0
  140.2210   70.3700  225.9710 C   0  0  0  0  0  0  0  0  0  0  0  0
  139.9520   71.1440  224.8900 N   0  0  0  0  0  0  0  0  0  0  0  0
  139.9470   73.2740  223.5290 H   0  0  0  0  0  0  0  0  0  0  0  0
  139.5487   73.2330  220.6037 H   0  0  0  0  0  0  0  0  0  0  0  0
  138.0906   73.8679  221.4043 H   0  0  0  0  0  0  0  0  0  0  0  0
  137.6004   76.7878  220.2155 H   0  0  0  0  0  0  0  0  0  0  0  0
  137.2446   75.3141  221.0542 H   0  0  0  0  0  0  0  0  0  0  0  0
  136.2899   77.7242  221.9583 H   0  0  0  0  0  0  0  0  0  0  0  0
  136.7604   76.5181  223.1432 H   0  0  0  0  0  0  0  0  0  0  0  0
  138.0445   79.0850  222.5616 H   0  0  0  0  0  0  0  0  0  0  0  0
  138.5453   77.9188  223.7912 H   0  0  0  0  0  0  0  0  0  0  0  0
  139.5530   78.1889  220.8992 H   0  0  0  0  0  0  0  0  0  0  0  0
  141.2261   76.9956  222.6821 H   0  0  0  0  0  0  0  0  0  0  0  0
  140.1279   79.8712  223.1967 H   0  0  0  0  0  0  0  0  0  0  0  0
  140.1997   78.5868  224.3963 H   0  0  0  0  0  0  0  0  0  0  0  0
  142.2640   79.7925  224.8045 H   0  0  0  0  0  0  0  0  0  0  0  0
  142.8351   78.5025  223.7400 H   0  0  0  0  0  0  0  0  0  0  0  0
  140.9330   80.5803  221.5681 H   0  0  0  0  0  0  0  0  0  0  0  0
  142.6070   80.4527  220.8399 H   0  0  0  0  0  0  0  0  0  0  0  0
  141.2298   78.5014  220.3274 H   0  0  0  0  0  0  0  0  0  0  0  0
  142.6773   78.1078  221.3451 H   0  0  0  0  0  0  0  0  0  0  0  0
  138.5008   68.9352  222.8053 H   0  0  0  0  0  0  0  0  0  0  0  0
  138.9576   67.4498  224.7395 H   0  0  0  0  0  0  0  0  0  0  0  0
  139.8302   67.1382  226.9534 H   0  0  0  0  0  0  0  0  0  0  0  0
  141.5767   70.4660  229.0707 H   0  0  0  0  0  0  0  0  0  0  0  0
  141.1174   71.9616  227.1243 H   0  0  0  0  0  0  0  0  0  0  0  0
  1  2  2  0
  2  3  1  0
  3  4  1  0
  4  5  1  0
  5  6  2  0
  5  7  1  0
  7  8  1  0
  8  9  1  0
  9 10  1  0
 10 11  1  0
 11 12  1  0
 12 13  1  0
 13 14  1  0
 14 15  1  0
 15 16  1  0
 16 17  1  0
  2 18  1  0
 18 19  2  0
 19 20  1  0
 20 21  2  0
 21 22  1  0
 22 23  2  0
 23 24  1  0
 23 25  1  0
 25 26  2  0
 26 27  1  0
 27 28  2  0
 11  7  1  0
 17 12  1  0
 28 18  1  0
 27 21  1  0
  3 29  1  0
  4 30  1  0
  4 31  1  0
  8 32  1  0
  8 33  1  0
  9 34  1  0
  9 35  1  0
 10 36  1  0
 10 37  1  0
 11 38  1  6
 12 39  1  0
 13 40  1  0
 13 41  1  0
 14 42  1  0
 14 43  1  0
 16 44  1  0
 16 45  1  0
 17 46  1  0
 17 47  1  0
 19 48  1  0
 20 49  1  0
 22 50  1  0
 25 51  1  0
 26 52  1  0
M  END
>  <meeko>  (20) 
{"free_energy": -8.19, "intermolecular_energy": -9.68, "internal_energy": -1.6, "cluster_size": 6, "cluster_id": 1, "rank_in_cluster": 6}

$$$$
