
     RDKit          3D

 52 55  0  0  0  0  0  0  0  0999 V2000
  141.4700   71.8600  221.4530 O   0  0  0  0  0  0  0  0  0  0  0  0
  140.6090   72.2820  222.2730 C   0  0  0  0  0  0  0  0  0  0  0  0
  139.8920   73.5040  222.0760 N   0  0  0  0  0  0  0  0  0  0  0  0
  140.1710   74.3030  220.8670 C   0  0  0  0  0  0  0  0  0  0  0  0
  141.1030   75.3830  221.1640 C   0  0  0  0  0  0  0  0  0  0  0  0
  140.9430   75.9320  222.3340 O   0  0  0  0  0  0  0  0  0  0  0  0
  142.1280   75.9250  220.4000 N   0  0  0  0  0  0  0  0  0  0  0  0
  142.0760   77.3900  220.0420 C   0  0  0  0  0  0  0  0  0  0  0  0
  142.6820   77.4460  218.6480 C   0  0  0  0  0  0  0  0  0  0  0  0
  143.0010   75.9810  218.3140 C   0  0  0  0  0  0  0  0  0  0  0  0
  143.3240   75.5100  219.7490 C   0  0  2  0  0  0  0  0  0  0  0  0
  143.7590   74.1100  219.8050 C   0  0  0  0  0  0  0  0  0  0  0  0
  144.8390   73.8950  220.8050 C   0  0  0  0  0  0  0  0  0  0  0  0
  146.1320   73.4660  220.1170 C   0  0  0  0  0  0  0  0  0  0  0  0
  145.9540   72.2870  219.4180 O   0  0  0  0  0  0  0  0  0  0  0  0
  144.9670   72.3890  218.4660 C   0  0  0  0  0  0  0  0  0  0  0  0
  144.3320   73.7580  218.4220 C   0  0  0  0  0  0  0  0  0  0  0  0
  140.3250   71.5000  223.4740 C   0  0  0  0  0  0  0  0  0  0  0  0
  139.6130   70.3200  223.3890 C   0  0  0  0  0  0  0  0  0  0  0  0
  139.3100   69.5340  224.4770 C   0  0  0  0  0  0  0  0  0  0  0  0
  139.7510   69.9680  225.7160 C   0  0  0  0  0  0  0  0  0  0  0  0
  139.4640   69.2030  226.8330 C   0  0  0  0  0  0  0  0  0  0  0  0
  139.9030   69.6340  228.0830 C   0  0  0  0  0  0  0  0  0  0  0  0
  139.6240   68.8830  229.1940 F   0  0  0  0  0  0  0  0  0  0  0  0
  140.6220   70.8200  228.1950 C   0  0  0  0  0  0  0  0  0  0  0  0
  140.8880   71.5590  227.0430 C   0  0  0  0  0  0  0  0  0  0  0  0
  140.4620   71.1520  225.7950 C   0  0  0  0  0  0  0  0  0  0  0  0
  140.7280   71.8770  224.6980 N   0  0  0  0  0  0  0  0  0  0  0  0
  139.1990   73.7910  222.7890 H   0  0  0  0  0  0  0  0  0  0  0  0
  140.6085   73.6508  220.0968 H   0  0  0  0  0  0  0  0  0  0  0  0
  139.2276   74.7402  220.5080 H   0  0  0  0  0  0  0  0  0  0  0  0
  141.0381   77.7543  220.0328 H   0  0  0  0  0  0  0  0  0  0  0  0
  142.6123   78.0231  220.7642 H   0  0  0  0  0  0  0  0  0  0  0  0
  141.9632   77.8625  217.9270 H   0  0  0  0  0  0  0  0  0  0  0  0
  143.5719   78.0910  218.6021 H   0  0  0  0  0  0  0  0  0  0  0  0
  142.1373   75.4522  217.8846 H   0  0  0  0  0  0  0  0  0  0  0  0
  143.7833   75.8133  217.5591 H   0  0  0  0  0  0  0  0  0  0  0  0
  144.2054   75.9289  220.2567 H   0  0  0  0  0  0  0  0  0  0  0  0
  142.8984   73.4868  220.0895 H   0  0  0  0  0  0  0  0  0  0  0  0
  145.0153   74.8320  221.3535 H   0  0  0  0  0  0  0  0  0  0  0  0
  144.5264   73.1005  221.4986 H   0  0  0  0  0  0  0  0  0  0  0  0
  146.4461   74.2548  219.4176 H   0  0  0  0  0  0  0  0  0  0  0  0
  146.9012   73.3043  220.8865 H   0  0  0  0  0  0  0  0  0  0  0  0
  145.4062   72.1741  217.4807 H   0  0  0  0  0  0  0  0  0  0  0  0
  144.1790   71.6681  218.7291 H   0  0  0  0  0  0  0  0  0  0  0  0
  145.0901   74.5035  218.1401 H   0  0  0  0  0  0  0  0  0  0  0  0
  143.5192   73.7582  217.6808 H   0  0  0  0  0  0  0  0  0  0  0  0
  139.2693   69.9903  222.3975 H   0  0  0  0  0  0  0  0  0  0  0  0
  138.7408   68.5992  224.3672 H   0  0  0  0  0  0  0  0  0  0  0  0
  138.8962   68.2660  226.7351 H   0  0  0  0  0  0  0  0  0  0  0  0
  140.9749   71.1690  229.1767 H   0  0  0  0  0  0  0  0  0  0  0  0
  141.4559   72.4969  227.1317 H   0  0  0  0  0  0  0  0  0  0  0  0
  1  2  2  0
  2  3  1  0
  3  4  1  0
  4  5  1  0
  5  6  2  0
  5  7  1  0
  7  8  1  0
  8  9  1  0
  9 10  1  0
 10 11  1  0
 11 12  1  0
 12 13  1  0
 13 14  1  0
 14 15  1  0
 15 16  1  0
 16 17  1  0
  2 18  1  0
 18 19  2  0
 19 20  1  0
 20 21  2  0
 21 22  1  0
 22 23  2  0
 23 24  1  0
 23 25  1  0
 25 26  2  0
 26 27  1  0
 27 28  2  0
 11  7  1  0
 17 12  1  0
 28 18  1  0
 27 21  1  0
  3 29  1  0
  4 30  1  0
  4 31  1  0
  8 32  1  0
  8 33  1  0
  9 34  1  0
  9 35  1  0
 10 36  1  0
 10 37  1  0
 11 38  1  1
 12 39  1  0
 13 40  1  0
 13 41  1  0
 14 42  1  0
 14 43  1  0
 16 44  1  0
 16 45  1  0
 17 46  1  0
 17 47  1  0
 19 48  1  0
 20 49  1  0
 22 50  1  0
 25 51  1  0
 26 52  1  0
M  END
>  <meeko>  (1) 
{"free_energy": -8.82, "intermolecular_energy": -10.31, "internal_energy": -1.47, "cluster_size": 14, "cluster_id": 1, "rank_in_cluster": 2}

$$$$

     RDKit          3D

 52 55  0  0  0  0  0  0  0  0999 V2000
  140.0440   71.4370  221.0780 O   0  0  0  0  0  0  0  0  0  0  0  0
  139.9480   71.9810  222.2130 C   0  0  0  0  0  0  0  0  0  0  0  0
  139.8330   73.3970  222.3800 N   0  0  0  0  0  0  0  0  0  0  0  0
  139.8290   74.2550  221.1800 C   0  0  0  0  0  0  0  0  0  0  0  0
  140.9720   75.1600  221.1850 C   0  0  0  0  0  0  0  0  0  0  0  0
  141.2270   75.7050  222.3400 O   0  0  0  0  0  0  0  0  0  0  0  0
  141.8280   75.5370  220.1600 N   0  0  0  0  0  0  0  0  0  0  0  0
  141.5100   76.7790  219.3630 C   0  0  0  0  0  0  0  0  0  0  0  0
  141.9800   76.4390  217.9560 C   0  0  0  0  0  0  0  0  0  0  0  0
  142.5010   74.9980  218.0680 C   0  0  0  0  0  0  0  0  0  0  0  0
  143.0160   75.0790  219.5220 C   0  0  2  0  0  0  0  0  0  0  0  0
  143.6740   73.8450  219.9630 C   0  0  0  0  0  0  0  0  0  0  0  0
  144.8750   74.1140  220.7980 C   0  0  0  0  0  0  0  0  0  0  0  0
  146.1390   73.6260  220.0960 C   0  0  0  0  0  0  0  0  0  0  0  0
  146.0800   72.2660  219.8570 O   0  0  0  0  0  0  0  0  0  0  0  0
  144.9930   71.9190  219.0880 C   0  0  0  0  0  0  0  0  0  0  0  0
  144.1450   73.1050  218.7000 C   0  0  0  0  0  0  0  0  0  0  0  0
  139.9510   71.1420  223.4090 C   0  0  0  0  0  0  0  0  0  0  0  0
  139.5330   69.8270  223.3440 C   0  0  0  0  0  0  0  0  0  0  0  0
  139.5110   68.9820  224.4290 C   0  0  0  0  0  0  0  0  0  0  0  0
  139.9340   69.4950  225.6430 C   0  0  0  0  0  0  0  0  0  0  0  0
  139.9240   68.6730  226.7570 C   0  0  0  0  0  0  0  0  0  0  0  0
  140.3470   69.1840  227.9820 C   0  0  0  0  0  0  0  0  0  0  0  0
  140.3410   68.3760  229.0880 F   0  0  0  0  0  0  0  0  0  0  0  0
  140.7730   70.5040  228.0730 C   0  0  0  0  0  0  0  0  0  0  0  0
  140.7650   71.2970  226.9260 C   0  0  0  0  0  0  0  0  0  0  0  0
  140.3500   70.8130  225.7030 C   0  0  0  0  0  0  0  0  0  0  0  0
  140.3500   71.5910  224.6090 N   0  0  0  0  0  0  0  0  0  0  0  0
  139.7580   73.7770  223.3400 H   0  0  0  0  0  0  0  0  0  0  0  0
  139.8760   73.6201  220.2829 H   0  0  0  0  0  0  0  0  0  0  0  0
  138.9061   74.8536  221.1785 H   0  0  0  0  0  0  0  0  0  0  0  0
  140.4298   76.9867  219.3757 H   0  0  0  0  0  0  0  0  0  0  0  0
  141.9957   77.6794  219.7673 H   0  0  0  0  0  0  0  0  0  0  0  0
  141.1456   76.4973  217.2416 H   0  0  0  0  0  0  0  0  0  0  0  0
  142.7476   77.1363  217.5892 H   0  0  0  0  0  0  0  0  0  0  0  0
  141.7003   74.2533  217.9488 H   0  0  0  0  0  0  0  0  0  0  0  0
  143.2334   74.6852  217.3092 H   0  0  0  0  0  0  0  0  0  0  0  0
  143.8582   75.7496  219.7476 H   0  0  0  0  0  0  0  0  0  0  0  0
  142.9599   73.2639  220.5650 H   0  0  0  0  0  0  0  0  0  0  0  0
  144.9559   75.1964  220.9765 H   0  0  0  0  0  0  0  0  0  0  0  0
  144.7702   73.5771  221.7524 H   0  0  0  0  0  0  0  0  0  0  0  0
  146.2451   74.1552  219.1375 H   0  0  0  0  0  0  0  0  0  0  0  0
  147.0020   73.8300  220.7469 H   0  0  0  0  0  0  0  0  0  0  0  0
  145.3537   71.4305  218.1708 H   0  0  0  0  0  0  0  0  0  0  0  0
  144.3641   71.2467  219.6901 H   0  0  0  0  0  0  0  0  0  0  0  0
  144.7383   73.7894  218.0758 H   0  0  0  0  0  0  0  0  0  0  0  0
  143.2678   72.7549  218.1361 H   0  0  0  0  0  0  0  0  0  0  0  0
  139.1997   69.4344  222.3720 H   0  0  0  0  0  0  0  0  0  0  0  0
  139.1708   67.9401  224.3357 H   0  0  0  0  0  0  0  0  0  0  0  0
  139.5862   67.6293  226.6758 H   0  0  0  0  0  0  0  0  0  0  0  0
  141.1112   70.9167  229.0349 H   0  0  0  0  0  0  0  0  0  0  0  0
  141.1004   72.3421  226.9990 H   0  0  0  0  0  0  0  0  0  0  0  0
  1  2  2  0
  2  3  1  0
  3  4  1  0
  4  5  1  0
  5  6  2  0
  5  7  1  0
  7  8  1  0
  8  9  1  0
  9 10  1  0
 10 11  1  0
 11 12  1  0
 12 13  1  0
 13 14  1  0
 14 15  1  0
 15 16  1  0
 16 17  1  0
  2 18  1  0
 18 19  2  0
 19 20  1  0
 20 21  2  0
 21 22  1  0
 22 23  2  0
 23 24  1  0
 23 25  1  0
 25 26  2  0
 26 27  1  0
 27 28  2  0
 11  7  1  0
 17 12  1  0
 28 18  1  0
 27 21  1  0
  3 29  1  0
  4 30  1  0
  4 31  1  0
  8 32  1  0
  8 33  1  0
  9 34  1  0
  9 35  1  0
 10 36  1  0
 10 37  1  0
 11 38  1  6
 12 39  1  0
 13 40  1  0
 13 41  1  0
 14 42  1  0
 14 43  1  0
 16 44  1  0
 16 45  1  0
 17 46  1  0
 17 47  1  0
 19 48  1  0
 20 49  1  0
 22 50  1  0
 25 51  1  0
 26 52  1  0
M  END
>  <meeko>  (2) 
{"free_energy": -7.81, "intermolecular_energy": -9.3, "internal_energy": -1.63, "cluster_size": 14, "cluster_id": 1, "rank_in_cluster": 14}

$$$$

     RDKit          3D

 52 55  0  0  0  0  0  0  0  0999 V2000
  141.4510   71.8470  221.4600 O   0  0  0  0  0  0  0  0  0  0  0  0
  140.5950   72.2760  222.2830 C   0  0  0  0  0  0  0  0  0  0  0  0
  139.8850   73.5020  222.0850 N   0  0  0  0  0  0  0  0  0  0  0  0
  140.1640   74.2970  220.8750 C   0  0  0  0  0  0  0  0  0  0  0  0
  141.0930   75.3810  221.1690 C   0  0  0  0  0  0  0  0  0  0  0  0
  140.9300   75.9330  222.3380 O   0  0  0  0  0  0  0  0  0  0  0  0
  142.1180   75.9240  220.4060 N   0  0  0  0  0  0  0  0  0  0  0  0
  142.0620   77.3880  220.0440 C   0  0  0  0  0  0  0  0  0  0  0  0
  142.6710   77.4410  218.6510 C   0  0  0  0  0  0  0  0  0  0  0  0
  142.9930   75.9760  218.3210 C   0  0  0  0  0  0  0  0  0  0  0  0
  143.3160   75.5090  219.7570 C   0  0  2  0  0  0  0  0  0  0  0  0
  143.7540   74.1110  219.8180 C   0  0  0  0  0  0  0  0  0  0  0  0
  144.8150   73.8960  220.8380 C   0  0  0  0  0  0  0  0  0  0  0  0
  146.1220   73.4740  220.1740 C   0  0  0  0  0  0  0  0  0  0  0  0
  145.9620   72.2970  219.4690 O   0  0  0  0  0  0  0  0  0  0  0  0
  144.9940   72.3980  218.4970 C   0  0  0  0  0  0  0  0  0  0  0  0
  144.3550   73.7650  218.4450 C   0  0  0  0  0  0  0  0  0  0  0  0
  140.3100   71.4980  223.4860 C   0  0  0  0  0  0  0  0  0  0  0  0
  139.5990   70.3160  223.4040 C   0  0  0  0  0  0  0  0  0  0  0  0
  139.2960   69.5340  224.4940 C   0  0  0  0  0  0  0  0  0  0  0  0
  139.7340   69.9720  225.7320 C   0  0  0  0  0  0  0  0  0  0  0  0
  139.4460   69.2110  226.8520 C   0  0  0  0  0  0  0  0  0  0  0  0
  139.8840   69.6470  228.1000 C   0  0  0  0  0  0  0  0  0  0  0  0
  139.6040   68.8990  229.2130 F   0  0  0  0  0  0  0  0  0  0  0  0
  140.6010   70.8340  228.2090 C   0  0  0  0  0  0  0  0  0  0  0  0
  140.8680   71.5690  227.0550 C   0  0  0  0  0  0  0  0  0  0  0  0
  140.4440   71.1570  225.8080 C   0  0  0  0  0  0  0  0  0  0  0  0
  140.7110   71.8790  224.7090 N   0  0  0  0  0  0  0  0  0  0  0  0
  139.1960   73.7940  222.8000 H   0  0  0  0  0  0  0  0  0  0  0  0
  140.6043   73.6431  220.1078 H   0  0  0  0  0  0  0  0  0  0  0  0
  139.2200   74.7308  220.5135 H   0  0  0  0  0  0  0  0  0  0  0  0
  141.0230   77.7491  220.0314 H   0  0  0  0  0  0  0  0  0  0  0  0
  142.5943   78.0252  220.7655 H   0  0  0  0  0  0  0  0  0  0  0  0
  141.9531   77.8546  217.9274 H   0  0  0  0  0  0  0  0  0  0  0  0
  143.5602   78.0870  218.6056 H   0  0  0  0  0  0  0  0  0  0  0  0
  142.1306   75.4445  217.8924 H   0  0  0  0  0  0  0  0  0  0  0  0
  143.7762   75.8080  217.5671 H   0  0  0  0  0  0  0  0  0  0  0  0
  144.1966   75.9304  220.2640 H   0  0  0  0  0  0  0  0  0  0  0  0
  142.8900   73.4845  220.0845 H   0  0  0  0  0  0  0  0  0  0  0  0
  144.9774   74.8316  221.3932 H   0  0  0  0  0  0  0  0  0  0  0  0
  144.4917   73.0980  221.5226 H   0  0  0  0  0  0  0  0  0  0  0  0
  146.4464   74.2659  219.4829 H   0  0  0  0  0  0  0  0  0  0  0  0
  146.8770   73.3131  220.9576 H   0  0  0  0  0  0  0  0  0  0  0  0
  145.4541   72.1881  217.5201 H   0  0  0  0  0  0  0  0  0  0  0  0
  144.2037   71.6729  218.7411 H   0  0  0  0  0  0  0  0  0  0  0  0
  145.1157   74.5140  218.1800 H   0  0  0  0  0  0  0  0  0  0  0  0
  143.5565   73.7645  217.6884 H   0  0  0  0  0  0  0  0  0  0  0  0
  139.2568   69.9824  222.4132 H   0  0  0  0  0  0  0  0  0  0  0  0
  138.7283   68.5979  224.3864 H   0  0  0  0  0  0  0  0  0  0  0  0
  138.8783   68.2736  226.7574 H   0  0  0  0  0  0  0  0  0  0  0  0
  140.9517   71.1870  229.1900 H   0  0  0  0  0  0  0  0  0  0  0  0
  141.4349   72.5077  227.1411 H   0  0  0  0  0  0  0  0  0  0  0  0
  1  2  2  0
  2  3  1  0
  3  4  1  0
  4  5  1  0
  5  6  2  0
  5  7  1  0
  7  8  1  0
  8  9  1  0
  9 10  1  0
 10 11  1  0
 11 12  1  0
 12 13  1  0
 13 14  1  0
 14 15  1  0
 15 16  1  0
 16 17  1  0
  2 18  1  0
 18 19  2  0
 19 20  1  0
 20 21  2  0
 21 22  1  0
 22 23  2  0
 23 24  1  0
 23 25  1  0
 25 26  2  0
 26 27  1  0
 27 28  2  0
 11  7  1  0
 17 12  1  0
 28 18  1  0
 27 21  1  0
  3 29  1  0
  4 30  1  0
  4 31  1  0
  8 32  1  0
  8 33  1  0
  9 34  1  0
  9 35  1  0
 10 36  1  0
 10 37  1  0
 11 38  1  1
 12 39  1  0
 13 40  1  0
 13 41  1  0
 14 42  1  0
 14 43  1  0
 16 44  1  0
 16 45  1  0
 17 46  1  0
 17 47  1  0
 19 48  1  0
 20 49  1  0
 22 50  1  0
 25 51  1  0
 26 52  1  0
M  END
>  <meeko>  (3) 
{"free_energy": -8.82, "intermolecular_energy": -10.32, "internal_energy": -1.47, "cluster_size": 14, "cluster_id": 1, "rank_in_cluster": 1}

$$$$

     RDKit          3D

 52 55  0  0  0  0  0  0  0  0999 V2000
  141.0130   71.3330  221.3690 O   0  0  0  0  0  0  0  0  0  0  0  0
  140.4470   71.9310  222.3250 C   0  0  0  0  0  0  0  0  0  0  0  0
  140.0300   73.2970  222.2400 N   0  0  0  0  0  0  0  0  0  0  0  0
  140.2750   74.0360  220.9870 C   0  0  0  0  0  0  0  0  0  0  0  0
  141.0670   75.2330  221.2370 C   0  0  0  0  0  0  0  0  0  0  0  0
  140.7690   75.8620  222.3390 O   0  0  0  0  0  0  0  0  0  0  0  0
  142.0840   75.8140  220.4920 N   0  0  0  0  0  0  0  0  0  0  0  0
  142.0100   77.2890  220.1810 C   0  0  0  0  0  0  0  0  0  0  0  0
  142.6150   77.3990  218.7890 C   0  0  0  0  0  0  0  0  0  0  0  0
  142.9540   75.9500  218.4080 C   0  0  0  0  0  0  0  0  0  0  0  0
  143.2850   75.4370  219.8260 C   0  0  2  0  0  0  0  0  0  0  0  0
  143.7400   74.0430  219.8370 C   0  0  0  0  0  0  0  0  0  0  0  0
  144.8290   73.8120  220.8240 C   0  0  0  0  0  0  0  0  0  0  0  0
  146.1230   73.4230  220.1150 C   0  0  0  0  0  0  0  0  0  0  0  0
  145.9580   72.2640  219.3810 O   0  0  0  0  0  0  0  0  0  0  0  0
  144.9640   72.3810  218.4380 C   0  0  0  0  0  0  0  0  0  0  0  0
  144.3090   73.7410  218.4410 C   0  0  0  0  0  0  0  0  0  0  0  0
  140.2000   71.2090  223.5710 C   0  0  0  0  0  0  0  0  0  0  0  0
  139.5570   69.9870  223.5580 C   0  0  0  0  0  0  0  0  0  0  0  0
  139.2930   69.2550  224.6920 C   0  0  0  0  0  0  0  0  0  0  0  0
  139.7010   69.7880  225.9020 C   0  0  0  0  0  0  0  0  0  0  0  0
  139.4510   69.0780  227.0650 C   0  0  0  0  0  0  0  0  0  0  0  0
  139.8580   69.6110  228.2860 C   0  0  0  0  0  0  0  0  0  0  0  0
  139.6150   68.9140  229.4410 F   0  0  0  0  0  0  0  0  0  0  0  0
  140.5070   70.8400  228.3260 C   0  0  0  0  0  0  0  0  0  0  0  0
  140.7370   71.5210  227.1320 C   0  0  0  0  0  0  0  0  0  0  0  0
  140.3430   71.0130  225.9100 C   0  0  0  0  0  0  0  0  0  0  0  0
  140.5740   71.6830  224.7700 N   0  0  0  0  0  0  0  0  0  0  0  0
  139.5710   73.7250  223.0630 H   0  0  0  0  0  0  0  0  0  0  0  0
  140.8171   73.3854  220.2850 H   0  0  0  0  0  0  0  0  0  0  0  0
  139.3066   74.3374  220.5611 H   0  0  0  0  0  0  0  0  0  0  0  0
  140.9668   77.6378  220.1832 H   0  0  0  0  0  0  0  0  0  0  0  0
  142.5370   77.9065  220.9232 H   0  0  0  0  0  0  0  0  0  0  0  0
  141.8903   77.8287  218.0818 H   0  0  0  0  0  0  0  0  0  0  0  0
  143.4957   78.0576  218.7639 H   0  0  0  0  0  0  0  0  0  0  0  0
  142.0972   75.4235  217.9622 H   0  0  0  0  0  0  0  0  0  0  0  0
  143.7380   75.8179  217.6478 H   0  0  0  0  0  0  0  0  0  0  0  0
  144.1613   75.8516  220.3458 H   0  0  0  0  0  0  0  0  0  0  0  0
  142.8897   73.3998  220.1077 H   0  0  0  0  0  0  0  0  0  0  0  0
  144.9958   74.7338  221.4006 H   0  0  0  0  0  0  0  0  0  0  0  0
  144.5318   72.9922  221.4945 H   0  0  0  0  0  0  0  0  0  0  0  0
  146.4210   74.2375  219.4385 H   0  0  0  0  0  0  0  0  0  0  0  0
  146.8992   73.2484  220.8746 H   0  0  0  0  0  0  0  0  0  0  0  0
  145.4005   72.2038  217.4440 H   0  0  0  0  0  0  0  0  0  0  0  0
  144.1883   71.6403  218.6822 H   0  0  0  0  0  0  0  0  0  0  0  0
  145.0545   74.5057  218.1774 H   0  0  0  0  0  0  0  0  0  0  0  0
  143.4909   73.7513  217.7058 H   0  0  0  0  0  0  0  0  0  0  0  0
  139.2388   69.5769  222.5882 H   0  0  0  0  0  0  0  0  0  0  0  0
  138.7780   68.2844  224.6392 H   0  0  0  0  0  0  0  0  0  0  0  0
  138.9377   68.1059  227.0248 H   0  0  0  0  0  0  0  0  0  0  0  0
  140.8338   71.2681  229.2851 H   0  0  0  0  0  0  0  0  0  0  0  0
  141.2487   72.4942  227.1641 H   0  0  0  0  0  0  0  0  0  0  0  0
  1  2  2  0
  2  3  1  0
  3  4  1  0
  4  5  1  0
  5  6  2  0
  5  7  1  0
  7  8  1  0
  8  9  1  0
  9 10  1  0
 10 11  1  0
 11 12  1  0
 12 13  1  0
 13 14  1  0
 14 15  1  0
 15 16  1  0
 16 17  1  0
  2 18  1  0
 18 19  2  0
 19 20  1  0
 20 21  2  0
 21 22  1  0
 22 23  2  0
 23 24  1  0
 23 25  1  0
 25 26  2  0
 26 27  1  0
 27 28  2  0
 11  7  1  0
 17 12  1  0
 28 18  1  0
 27 21  1  0
  3 29  1  0
  4 30  1  0
  4 31  1  0
  8 32  1  0
  8 33  1  0
  9 34  1  0
  9 35  1  0
 10 36  1  0
 10 37  1  0
 11 38  1  1
 12 39  1  0
 13 40  1  0
 13 41  1  0
 14 42  1  0
 14 43  1  0
 16 44  1  0
 16 45  1  0
 17 46  1  0
 17 47  1  0
 19 48  1  0
 20 49  1  0
 22 50  1  0
 25 51  1  0
 26 52  1  0
M  END
>  <meeko>  (4) 
{"free_energy": -8.72, "intermolecular_energy": -10.21, "internal_energy": -1.56, "cluster_size": 14, "cluster_id": 1, "rank_in_cluster": 9}

$$$$

     RDKit          3D

 52 55  0  0  0  0  0  0  0  0999 V2000
  141.4720   71.8250  221.4930 O   0  0  0  0  0  0  0  0  0  0  0  0
  140.6070   72.2550  222.3060 C   0  0  0  0  0  0  0  0  0  0  0  0
  139.8940   73.4770  222.0940 N   0  0  0  0  0  0  0  0  0  0  0  0
  140.1820   74.2650  220.8800 C   0  0  0  0  0  0  0  0  0  0  0  0
  141.0780   75.3750  221.1830 C   0  0  0  0  0  0  0  0  0  0  0  0
  140.8700   75.9420  222.3370 O   0  0  0  0  0  0  0  0  0  0  0  0
  142.1120   75.9270  220.4400 N   0  0  0  0  0  0  0  0  0  0  0  0
  142.0620   77.3970  220.0990 C   0  0  0  0  0  0  0  0  0  0  0  0
  142.6870   77.4710  218.7140 C   0  0  0  0  0  0  0  0  0  0  0  0
  143.0120   76.0100  218.3660 C   0  0  0  0  0  0  0  0  0  0  0  0
  143.3170   75.5210  219.7980 C   0  0  2  0  0  0  0  0  0  0  0  0
  143.7530   74.1220  219.8420 C   0  0  0  0  0  0  0  0  0  0  0  0
  144.8320   73.8990  220.8420 C   0  0  0  0  0  0  0  0  0  0  0  0
  146.1260   73.4770  220.1510 C   0  0  0  0  0  0  0  0  0  0  0  0
  145.9500   72.3040  219.4420 O   0  0  0  0  0  0  0  0  0  0  0  0
  144.9640   72.4140  218.4890 C   0  0  0  0  0  0  0  0  0  0  0  0
  144.3280   73.7820  218.4570 C   0  0  0  0  0  0  0  0  0  0  0  0
  140.3140   71.4840  223.5110 C   0  0  0  0  0  0  0  0  0  0  0  0
  139.6120   70.2980  223.4300 C   0  0  0  0  0  0  0  0  0  0  0  0
  139.3020   69.5220  224.5230 C   0  0  0  0  0  0  0  0  0  0  0  0
  139.7250   69.9710  225.7620 C   0  0  0  0  0  0  0  0  0  0  0  0
  139.4300   69.2160  226.8840 C   0  0  0  0  0  0  0  0  0  0  0  0
  139.8520   69.6630  228.1340 C   0  0  0  0  0  0  0  0  0  0  0  0
  139.5650   68.9210  229.2490 F   0  0  0  0  0  0  0  0  0  0  0  0
  140.5610   70.8550  228.2420 C   0  0  0  0  0  0  0  0  0  0  0  0
  140.8360   71.5840  227.0850 C   0  0  0  0  0  0  0  0  0  0  0  0
  140.4270   71.1600  225.8370 C   0  0  0  0  0  0  0  0  0  0  0  0
  140.7010   71.8760  224.7350 N   0  0  0  0  0  0  0  0  0  0  0  0
  139.1980   73.7720  222.8010 H   0  0  0  0  0  0  0  0  0  0  0  0
  140.6558   73.6133  220.1311 H   0  0  0  0  0  0  0  0  0  0  0  0
  139.2367   74.6713  220.4911 H   0  0  0  0  0  0  0  0  0  0  0  0
  141.0236   77.7596  220.0800 H   0  0  0  0  0  0  0  0  0  0  0  0
  142.5871   78.0223  220.8361 H   0  0  0  0  0  0  0  0  0  0  0  0
  141.9777   77.8959  217.9885 H   0  0  0  0  0  0  0  0  0  0  0  0
  143.5768   78.1172  218.6883 H   0  0  0  0  0  0  0  0  0  0  0  0
  142.1544   75.4859  217.9189 H   0  0  0  0  0  0  0  0  0  0  0  0
  143.8043   75.8527  217.6194 H   0  0  0  0  0  0  0  0  0  0  0  0
  144.1916   75.9341  220.3219 H   0  0  0  0  0  0  0  0  0  0  0  0
  142.8923   73.4958  220.1197 H   0  0  0  0  0  0  0  0  0  0  0  0
  145.0070   74.8313  221.3990 H   0  0  0  0  0  0  0  0  0  0  0  0
  144.5193   73.0985  221.5286 H   0  0  0  0  0  0  0  0  0  0  0  0
  146.4397   74.2721  219.4585 H   0  0  0  0  0  0  0  0  0  0  0  0
  146.8948   73.3094  220.9197 H   0  0  0  0  0  0  0  0  0  0  0  0
  145.4051   72.2089  217.5024 H   0  0  0  0  0  0  0  0  0  0  0  0
  144.1763   71.6897  218.7440 H   0  0  0  0  0  0  0  0  0  0  0  0
  145.0858   74.5306  218.1825 H   0  0  0  0  0  0  0  0  0  0  0  0
  143.5156   73.7874  217.7153 H   0  0  0  0  0  0  0  0  0  0  0  0
  139.2828   69.9549  222.4381 H   0  0  0  0  0  0  0  0  0  0  0  0
  138.7404   68.5822  224.4164 H   0  0  0  0  0  0  0  0  0  0  0  0
  138.8691   68.2745  226.7897 H   0  0  0  0  0  0  0  0  0  0  0  0
  140.8994   71.2169  229.2241 H   0  0  0  0  0  0  0  0  0  0  0  0
  141.3966   72.5266  227.1700 H   0  0  0  0  0  0  0  0  0  0  0  0
  1  2  2  0
  2  3  1  0
  3  4  1  0
  4  5  1  0
  5  6  2  0
  5  7  1  0
  7  8  1  0
  8  9  1  0
  9 10  1  0
 10 11  1  0
 11 12  1  0
 12 13  1  0
 13 14  1  0
 14 15  1  0
 15 16  1  0
 16 17  1  0
  2 18  1  0
 18 19  2  0
 19 20  1  0
 20 21  2  0
 21 22  1  0
 22 23  2  0
 23 24  1  0
 23 25  1  0
 25 26  2  0
 26 27  1  0
 27 28  2  0
 11  7  1  0
 17 12  1  0
 28 18  1  0
 27 21  1  0
  3 29  1  0
  4 30  1  0
  4 31  1  0
  8 32  1  0
  8 33  1  0
  9 34  1  0
  9 35  1  0
 10 36  1  0
 10 37  1  0
 11 38  1  1
 12 39  1  0
 13 40  1  0
 13 41  1  0
 14 42  1  0
 14 43  1  0
 16 44  1  0
 16 45  1  0
 17 46  1  0
 17 47  1  0
 19 48  1  0
 20 49  1  0
 22 50  1  0
 25 51  1  0
 26 52  1  0
M  END
>  <meeko>  (5) 
{"free_energy": -8.82, "intermolecular_energy": -10.31, "internal_energy": -1.47, "cluster_size": 14, "cluster_id": 1, "rank_in_cluster": 3}

$$$$

     RDKit          3D

 52 55  0  0  0  0  0  0  0  0999 V2000
  141.0370   71.6590  221.2190 O   0  0  0  0  0  0  0  0  0  0  0  0
  140.4710   72.2000  222.2090 C   0  0  0  0  0  0  0  0  0  0  0  0
  140.0220   73.5570  222.1920 N   0  0  0  0  0  0  0  0  0  0  0  0
  140.2300   74.3580  220.9700 C   0  0  0  0  0  0  0  0  0  0  0  0
  141.1630   75.4490  221.2170 C   0  0  0  0  0  0  0  0  0  0  0  0
  141.0240   76.0310  222.3730 O   0  0  0  0  0  0  0  0  0  0  0  0
  142.1730   75.9700  220.4190 N   0  0  0  0  0  0  0  0  0  0  0  0
  142.1230   77.4300  220.0390 C   0  0  0  0  0  0  0  0  0  0  0  0
  142.6940   77.4590  218.6290 C   0  0  0  0  0  0  0  0  0  0  0  0
  142.9930   75.9860  218.3110 C   0  0  0  0  0  0  0  0  0  0  0  0
  143.3490   75.5340  219.7430 C   0  0  2  0  0  0  0  0  0  0  0  0
  143.7740   74.1320  219.8110 C   0  0  0  0  0  0  0  0  0  0  0  0
  144.8560   73.9180  220.8080 C   0  0  0  0  0  0  0  0  0  0  0  0
  146.1430   73.4740  220.1180 C   0  0  0  0  0  0  0  0  0  0  0  0
  145.9540   72.2900  219.4310 O   0  0  0  0  0  0  0  0  0  0  0  0
  144.9630   72.3900  218.4820 C   0  0  0  0  0  0  0  0  0  0  0  0
  144.3380   73.7630  218.4290 C   0  0  0  0  0  0  0  0  0  0  0  0
  140.2610   71.4170  223.4250 C   0  0  0  0  0  0  0  0  0  0  0  0
  139.6090   70.2010  223.3710 C   0  0  0  0  0  0  0  0  0  0  0  0
  139.3780   69.4130  224.4750 C   0  0  0  0  0  0  0  0  0  0  0  0
  139.8290   69.8830  225.6960 C   0  0  0  0  0  0  0  0  0  0  0  0
  139.6130   69.1170  226.8290 C   0  0  0  0  0  0  0  0  0  0  0  0
  140.0630   69.5840  228.0620 C   0  0  0  0  0  0  0  0  0  0  0  0
  139.8540   68.8320  229.1870 F   0  0  0  0  0  0  0  0  0  0  0  0
  140.7220   70.8060  228.1420 C   0  0  0  0  0  0  0  0  0  0  0  0
  140.9180   71.5450  226.9760 C   0  0  0  0  0  0  0  0  0  0  0  0
  140.4790   71.1020  225.7450 C   0  0  0  0  0  0  0  0  0  0  0  0
  140.6770   71.8280  224.6330 N   0  0  0  0  0  0  0  0  0  0  0  0
  139.5650   73.9370  223.0390 H   0  0  0  0  0  0  0  0  0  0  0  0
  140.6349   73.7098  220.1789 H   0  0  0  0  0  0  0  0  0  0  0  0
  139.2644   74.7842  220.6602 H   0  0  0  0  0  0  0  0  0  0  0  0
  141.0880   77.8024  220.0502 H   0  0  0  0  0  0  0  0  0  0  0  0
  142.6822   78.0702  220.7372 H   0  0  0  0  0  0  0  0  0  0  0  0
  141.9604   77.8697  217.9197 H   0  0  0  0  0  0  0  0  0  0  0  0
  143.5873   78.0960  218.5500 H   0  0  0  0  0  0  0  0  0  0  0  0
  142.1144   75.4578  217.9122 H   0  0  0  0  0  0  0  0  0  0  0  0
  143.7548   75.8005  217.5395 H   0  0  0  0  0  0  0  0  0  0  0  0
  144.2473   75.9526  220.2202 H   0  0  0  0  0  0  0  0  0  0  0  0
  142.9102   73.5180  220.1058 H   0  0  0  0  0  0  0  0  0  0  0  0
  145.0412   74.8584  221.3478 H   0  0  0  0  0  0  0  0  0  0  0  0
  144.5408   73.1318  221.5098 H   0  0  0  0  0  0  0  0  0  0  0  0
  146.4590   74.2542  219.4099 H   0  0  0  0  0  0  0  0  0  0  0  0
  146.9147   73.3143  220.8854 H   0  0  0  0  0  0  0  0  0  0  0  0
  145.3962   72.1631  217.4967 H   0  0  0  0  0  0  0  0  0  0  0  0
  144.1712   71.6768  218.7546 H   0  0  0  0  0  0  0  0  0  0  0  0
  145.1003   74.5003  218.1369 H   0  0  0  0  0  0  0  0  0  0  0  0
  143.5216   73.7623  217.6918 H   0  0  0  0  0  0  0  0  0  0  0  0
  139.2553   69.8431  222.3929 H   0  0  0  0  0  0  0  0  0  0  0  0
  138.8560   68.4485  224.3905 H   0  0  0  0  0  0  0  0  0  0  0  0
  139.0921   68.1509  226.7564 H   0  0  0  0  0  0  0  0  0  0  0  0
  141.0830   71.1837  229.1100 H   0  0  0  0  0  0  0  0  0  0  0  0
  141.4390   72.5117  227.0394 H   0  0  0  0  0  0  0  0  0  0  0  0
  1  2  2  0
  2  3  1  0
  3  4  1  0
  4  5  1  0
  5  6  2  0
  5  7  1  0
  7  8  1  0
  8  9  1  0
  9 10  1  0
 10 11  1  0
 11 12  1  0
 12 13  1  0
 13 14  1  0
 14 15  1  0
 15 16  1  0
 16 17  1  0
  2 18  1  0
 18 19  2  0
 19 20  1  0
 20 21  2  0
 21 22  1  0
 22 23  2  0
 23 24  1  0
 23 25  1  0
 25 26  2  0
 26 27  1  0
 27 28  2  0
 11  7  1  0
 17 12  1  0
 28 18  1  0
 27 21  1  0
  3 29  1  0
  4 30  1  0
  4 31  1  0
  8 32  1  0
  8 33  1  0
  9 34  1  0
  9 35  1  0
 10 36  1  0
 10 37  1  0
 11 38  1  1
 12 39  1  0
 13 40  1  0
 13 41  1  0
 14 42  1  0
 14 43  1  0
 16 44  1  0
 16 45  1  0
 17 46  1  0
 17 47  1  0
 19 48  1  0
 20 49  1  0
 22 50  1  0
 25 51  1  0
 26 52  1  0
M  END
>  <meeko>  (6) 
{"free_energy": -8.72, "intermolecular_energy": -10.21, "internal_energy": -1.54, "cluster_size": 14, "cluster_id": 1, "rank_in_cluster": 10}

$$$$

     RDKit          3D

 52 55  0  0  0  0  0  0  0  0999 V2000
  141.5010   71.8850  221.5190 O   0  0  0  0  0  0  0  0  0  0  0  0
  140.6110   72.2930  222.3160 C   0  0  0  0  0  0  0  0  0  0  0  0
  139.8720   73.4980  222.0930 N   0  0  0  0  0  0  0  0  0  0  0  0
  140.1630   74.2950  220.8860 C   0  0  0  0  0  0  0  0  0  0  0  0
  141.1140   75.3590  221.1840 C   0  0  0  0  0  0  0  0  0  0  0  0
  140.9880   75.8830  222.3700 O   0  0  0  0  0  0  0  0  0  0  0  0
  142.1270   75.9060  220.4090 N   0  0  0  0  0  0  0  0  0  0  0  0
  142.0580   77.3690  220.0440 C   0  0  0  0  0  0  0  0  0  0  0  0
  142.6510   77.4240  218.6450 C   0  0  0  0  0  0  0  0  0  0  0  0
  142.9800   75.9610  218.3150 C   0  0  0  0  0  0  0  0  0  0  0  0
  143.3210   75.4990  219.7480 C   0  0  2  0  0  0  0  0  0  0  0  0
  143.7690   74.1040  219.8060 C   0  0  0  0  0  0  0  0  0  0  0  0
  144.8340   73.8960  220.8240 C   0  0  0  0  0  0  0  0  0  0  0  0
  146.1430   73.4830  220.1560 C   0  0  0  0  0  0  0  0  0  0  0  0
  145.9890   72.3050  219.4500 O   0  0  0  0  0  0  0  0  0  0  0  0
  145.0170   72.4000  218.4820 C   0  0  0  0  0  0  0  0  0  0  0  0
  144.3690   73.7620  218.4320 C   0  0  0  0  0  0  0  0  0  0  0  0
  140.3140   71.5120  223.5140 C   0  0  0  0  0  0  0  0  0  0  0  0
  139.5850   70.3430  223.4260 C   0  0  0  0  0  0  0  0  0  0  0  0
  139.2700   69.5600  224.5120 C   0  0  0  0  0  0  0  0  0  0  0  0
  139.7160   69.9840  225.7520 C   0  0  0  0  0  0  0  0  0  0  0  0
  139.4170   69.2200  226.8680 C   0  0  0  0  0  0  0  0  0  0  0  0
  139.8630   69.6420  228.1190 C   0  0  0  0  0  0  0  0  0  0  0  0
  139.5720   68.8920  229.2270 F   0  0  0  0  0  0  0  0  0  0  0  0
  140.5990   70.8160  228.2330 C   0  0  0  0  0  0  0  0  0  0  0  0
  140.8770   71.5540  227.0840 C   0  0  0  0  0  0  0  0  0  0  0  0
  140.4450   71.1560  225.8350 C   0  0  0  0  0  0  0  0  0  0  0  0
  140.7220   71.8800  224.7390 N   0  0  0  0  0  0  0  0  0  0  0  0
  139.1560   73.7740  222.7860 H   0  0  0  0  0  0  0  0  0  0  0  0
  140.5883   73.6373  220.1136 H   0  0  0  0  0  0  0  0  0  0  0  0
  139.2266   74.7492  220.5296 H   0  0  0  0  0  0  0  0  0  0  0  0
  141.0167   77.7234  220.0421 H   0  0  0  0  0  0  0  0  0  0  0  0
  142.5947   78.0107  220.7583 H   0  0  0  0  0  0  0  0  0  0  0  0
  141.9222   77.8307  217.9285 H   0  0  0  0  0  0  0  0  0  0  0  0
  143.5346   78.0767  218.5883 H   0  0  0  0  0  0  0  0  0  0  0  0
  142.1170   75.4225  217.8963 H   0  0  0  0  0  0  0  0  0  0  0  0
  143.7568   75.7972  217.5536 H   0  0  0  0  0  0  0  0  0  0  0  0
  144.2036   75.9279  220.2451 H   0  0  0  0  0  0  0  0  0  0  0  0
  142.9096   73.4714  220.0732 H   0  0  0  0  0  0  0  0  0  0  0  0
  144.9913   74.8326  221.3791 H   0  0  0  0  0  0  0  0  0  0  0  0
  144.5179   73.0958  221.5093 H   0  0  0  0  0  0  0  0  0  0  0  0
  146.4604   74.2777  219.4648 H   0  0  0  0  0  0  0  0  0  0  0  0
  146.9010   73.3264  220.9376 H   0  0  0  0  0  0  0  0  0  0  0  0
  145.4748   72.1930  217.5034 H   0  0  0  0  0  0  0  0  0  0  0  0
  144.2322   71.6700  218.7295 H   0  0  0  0  0  0  0  0  0  0  0  0
  145.1241   74.5161  218.1653 H   0  0  0  0  0  0  0  0  0  0  0  0
  143.5686   73.7560  217.6774 H   0  0  0  0  0  0  0  0  0  0  0  0
  139.2372   70.0203  222.4336 H   0  0  0  0  0  0  0  0  0  0  0  0
  138.6870   68.6340  224.3997 H   0  0  0  0  0  0  0  0  0  0  0  0
  138.8349   68.2920  226.7681 H   0  0  0  0  0  0  0  0  0  0  0  0
  140.9566   71.1573  229.2157 H   0  0  0  0  0  0  0  0  0  0  0  0
  141.4590   72.4829  227.1754 H   0  0  0  0  0  0  0  0  0  0  0  0
  1  2  2  0
  2  3  1  0
  3  4  1  0
  4  5  1  0
  5  6  2  0
  5  7  1  0
  7  8  1  0
  8  9  1  0
  9 10  1  0
 10 11  1  0
 11 12  1  0
 12 13  1  0
 13 14  1  0
 14 15  1  0
 15 16  1  0
 16 17  1  0
  2 18  1  0
 18 19  2  0
 19 20  1  0
 20 21  2  0
 21 22  1  0
 22 23  2  0
 23 24  1  0
 23 25  1  0
 25 26  2  0
 26 27  1  0
 27 28  2  0
 11  7  1  0
 17 12  1  0
 28 18  1  0
 27 21  1  0
  3 29  1  0
  4 30  1  0
  4 31  1  0
  8 32  1  0
  8 33  1  0
  9 34  1  0
  9 35  1  0
 10 36  1  0
 10 37  1  0
 11 38  1  1
 12 39  1  0
 13 40  1  0
 13 41  1  0
 14 42  1  0
 14 43  1  0
 16 44  1  0
 16 45  1  0
 17 46  1  0
 17 47  1  0
 19 48  1  0
 20 49  1  0
 22 50  1  0
 25 51  1  0
 26 52  1  0
M  END
>  <meeko>  (7) 
{"free_energy": -8.82, "intermolecular_energy": -10.31, "internal_energy": -1.46, "cluster_size": 14, "cluster_id": 1, "rank_in_cluster": 5}

$$$$

     RDKit          3D

 52 55  0  0  0  0  0  0  0  0999 V2000
  140.3710   71.4730  221.1140 O   0  0  0  0  0  0  0  0  0  0  0  0
  140.0880   72.0080  222.2220 C   0  0  0  0  0  0  0  0  0  0  0  0
  139.7990   73.4030  222.3500 N   0  0  0  0  0  0  0  0  0  0  0  0
  139.8330   74.2490  221.1420 C   0  0  0  0  0  0  0  0  0  0  0  0
  139.9320   75.6590  221.4990 C   0  0  0  0  0  0  0  0  0  0  0  0
  139.5650   75.9380  222.7170 O   0  0  0  0  0  0  0  0  0  0  0  0
  140.3490   76.7510  220.7510 N   0  0  0  0  0  0  0  0  0  0  0  0
  140.2040   76.7060  219.2490 C   0  0  0  0  0  0  0  0  0  0  0  0
  141.4210   77.4660  218.7430 C   0  0  0  0  0  0  0  0  0  0  0  0
  142.1830   77.8540  220.0190 C   0  0  0  0  0  0  0  0  0  0  0  0
  140.9600   78.0230  220.9450 C   0  0  2  0  0  0  0  0  0  0  0  0
  141.3220   78.4810  222.2900 C   0  0  0  0  0  0  0  0  0  0  0  0
  140.1520   79.0130  223.0390 C   0  0  0  0  0  0  0  0  0  0  0  0
  140.3270   80.5030  223.3200 C   0  0  0  0  0  0  0  0  0  0  0  0
  141.4600   80.7360  224.0760 O   0  0  0  0  0  0  0  0  0  0  0  0
  142.6000   80.2730  223.4610 C   0  0  0  0  0  0  0  0  0  0  0  0
  142.3270   79.6330  222.1220 C   0  0  0  0  0  0  0  0  0  0  0  0
  140.0510   71.1810  223.4250 C   0  0  0  0  0  0  0  0  0  0  0  0
  139.5420   69.8980  223.3780 C   0  0  0  0  0  0  0  0  0  0  0  0
  139.4770   69.0650  224.4700 C   0  0  0  0  0  0  0  0  0  0  0  0
  139.9510   69.5570  225.6740 C   0  0  0  0  0  0  0  0  0  0  0  0
  139.9010   68.7470  226.7950 C   0  0  0  0  0  0  0  0  0  0  0  0
  140.3760   69.2380  228.0100 C   0  0  0  0  0  0  0  0  0  0  0  0
  140.3300   68.4420  229.1240 F   0  0  0  0  0  0  0  0  0  0  0  0
  140.8930   70.5260  228.0830 C   0  0  0  0  0  0  0  0  0  0  0  0
  140.9240   71.3080  226.9290 C   0  0  0  0  0  0  0  0  0  0  0  0
  140.4580   70.8440  225.7160 C   0  0  0  0  0  0  0  0  0  0  0  0
  140.4970   71.6110  224.6160 N   0  0  0  0  0  0  0  0  0  0  0  0
  139.5740   73.7760  223.2890 H   0  0  0  0  0  0  0  0  0  0  0  0
  140.7040   73.9699  220.5308 H   0  0  0  0  0  0  0  0  0  0  0  0
  138.9023   74.0933  220.5767 H   0  0  0  0  0  0  0  0  0  0  0  0
  140.2116   75.6678  218.8857 H   0  0  0  0  0  0  0  0  0  0  0  0
  139.2559   77.1413  218.9003 H   0  0  0  0  0  0  0  0  0  0  0  0
  142.0407   76.8250  218.0987 H   0  0  0  0  0  0  0  0  0  0  0  0
  141.1475   78.3404  218.1343 H   0  0  0  0  0  0  0  0  0  0  0  0
  142.8594   77.0567  220.3609 H   0  0  0  0  0  0  0  0  0  0  0  0
  142.8557   78.7206  219.9390 H   0  0  0  0  0  0  0  0  0  0  0  0
  140.2449   78.8315  220.7329 H   0  0  0  0  0  0  0  0  0  0  0  0
  141.7301   77.6279  222.8518 H   0  0  0  0  0  0  0  0  0  0  0  0
  139.2410   78.8623  222.4412 H   0  0  0  0  0  0  0  0  0  0  0  0
  140.0710   78.4784  223.9969 H   0  0  0  0  0  0  0  0  0  0  0  0
  140.4154   81.0410  222.3646 H   0  0  0  0  0  0  0  0  0  0  0  0
  139.4514   80.8579  223.8834 H   0  0  0  0  0  0  0  0  0  0  0  0
  143.2867   81.1193  223.3119 H   0  0  0  0  0  0  0  0  0  0  0  0
  143.0361   79.5015  224.1125 H   0  0  0  0  0  0  0  0  0  0  0  0
  141.9092   80.3849  221.4363 H   0  0  0  0  0  0  0  0  0  0  0  0
  143.2672   79.2374  221.7103 H   0  0  0  0  0  0  0  0  0  0  0  0
  139.1682   69.5220  222.4142 H   0  0  0  0  0  0  0  0  0  0  0  0
  139.0648   68.0483  224.3901 H   0  0  0  0  0  0  0  0  0  0  0  0
  139.4915   67.7283  226.7280 H   0  0  0  0  0  0  0  0  0  0  0  0
  141.2719   70.9224  229.0365 H   0  0  0  0  0  0  0  0  0  0  0  0
  141.3330   72.3274  226.9875 H   0  0  0  0  0  0  0  0  0  0  0  0
  1  2  2  0
  2  3  1  0
  3  4  1  0
  4  5  1  0
  5  6  2  0
  5  7  1  0
  7  8  1  0
  8  9  1  0
  9 10  1  0
 10 11  1  0
 11 12  1  0
 12 13  1  0
 13 14  1  0
 14 15  1  0
 15 16  1  0
 16 17  1  0
  2 18  1  0
 18 19  2  0
 19 20  1  0
 20 21  2  0
 21 22  1  0
 22 23  2  0
 23 24  1  0
 23 25  1  0
 25 26  2  0
 26 27  1  0
 27 28  2  0
 11  7  1  0
 17 12  1  0
 28 18  1  0
 27 21  1  0
  3 29  1  0
  4 30  1  0
  4 31  1  0
  8 32  1  0
  8 33  1  0
  9 34  1  0
  9 35  1  0
 10 36  1  0
 10 37  1  0
 11 38  1  6
 12 39  1  0
 13 40  1  0
 13 41  1  0
 14 42  1  0
 14 43  1  0
 16 44  1  0
 16 45  1  0
 17 46  1  0
 17 47  1  0
 19 48  1  0
 20 49  1  0
 22 50  1  0
 25 51  1  0
 26 52  1  0
M  END
>  <meeko>  (8) 
{"free_energy": -8.25, "intermolecular_energy": -9.74, "internal_energy": -1.78, "cluster_size": 5, "cluster_id": 2, "rank_in_cluster": 3}

$$$$

     RDKit          3D

 52 55  0  0  0  0  0  0  0  0999 V2000
  140.9760   71.3710  221.3290 O   0  0  0  0  0  0  0  0  0  0  0  0
  140.4270   71.9650  222.2980 C   0  0  0  0  0  0  0  0  0  0  0  0
  140.0220   73.3350  222.2310 N   0  0  0  0  0  0  0  0  0  0  0  0
  140.2560   74.0840  220.9820 C   0  0  0  0  0  0  0  0  0  0  0  0
  141.0710   75.2660  221.2310 C   0  0  0  0  0  0  0  0  0  0  0  0
  140.7980   75.8900  222.3410 O   0  0  0  0  0  0  0  0  0  0  0  0
  142.0880   75.8360  220.4770 N   0  0  0  0  0  0  0  0  0  0  0  0
  142.0190   77.3090  220.1540 C   0  0  0  0  0  0  0  0  0  0  0  0
  142.6190   77.4040  218.7590 C   0  0  0  0  0  0  0  0  0  0  0  0
  142.9510   75.9510  218.3890 C   0  0  0  0  0  0  0  0  0  0  0  0
  143.2850   75.4490  219.8100 C   0  0  2  0  0  0  0  0  0  0  0  0
  143.7340   74.0530  219.8310 C   0  0  0  0  0  0  0  0  0  0  0  0
  144.8060   73.8200  220.8360 C   0  0  0  0  0  0  0  0  0  0  0  0
  146.1100   73.4250  220.1490 C   0  0  0  0  0  0  0  0  0  0  0  0
  145.9530   72.2650  219.4160 O   0  0  0  0  0  0  0  0  0  0  0  0
  144.9750   72.3840  218.4560 C   0  0  0  0  0  0  0  0  0  0  0  0
  144.3250   73.7460  218.4450 C   0  0  0  0  0  0  0  0  0  0  0  0
  140.1900   71.2340  223.5400 C   0  0  0  0  0  0  0  0  0  0  0  0
  139.5620   70.0040  223.5210 C   0  0  0  0  0  0  0  0  0  0  0  0
  139.3070   69.2620  224.6510 C   0  0  0  0  0  0  0  0  0  0  0  0
  139.7100   69.7940  225.8640 C   0  0  0  0  0  0  0  0  0  0  0  0
  139.4690   69.0750  227.0230 C   0  0  0  0  0  0  0  0  0  0  0  0
  139.8710   69.6050  228.2470 C   0  0  0  0  0  0  0  0  0  0  0  0
  139.6380   68.9000  229.3970 F   0  0  0  0  0  0  0  0  0  0  0  0
  140.5050   70.8420  228.2920 C   0  0  0  0  0  0  0  0  0  0  0  0
  140.7270   71.5320  227.1010 C   0  0  0  0  0  0  0  0  0  0  0  0
  140.3370   71.0260  225.8780 C   0  0  0  0  0  0  0  0  0  0  0  0
  140.5590   71.7060  224.7410 N   0  0  0  0  0  0  0  0  0  0  0  0
  139.5770   73.7600  223.0630 H   0  0  0  0  0  0  0  0  0  0  0  0
  140.7753   73.4330  220.2633 H   0  0  0  0  0  0  0  0  0  0  0  0
  139.2850   74.4049  220.5767 H   0  0  0  0  0  0  0  0  0  0  0  0
  140.9773   77.6624  220.1573 H   0  0  0  0  0  0  0  0  0  0  0  0
  142.5513   77.9307  220.8889 H   0  0  0  0  0  0  0  0  0  0  0  0
  141.8932   77.8303  218.0509 H   0  0  0  0  0  0  0  0  0  0  0  0
  143.5023   78.0587  218.7251 H   0  0  0  0  0  0  0  0  0  0  0  0
  142.0907   75.4240  217.9507 H   0  0  0  0  0  0  0  0  0  0  0  0
  143.7317   75.8094  217.6272 H   0  0  0  0  0  0  0  0  0  0  0  0
  144.1648   75.8648  220.3230 H   0  0  0  0  0  0  0  0  0  0  0  0
  142.8767   73.4137  220.0888 H   0  0  0  0  0  0  0  0  0  0  0  0
  144.9667   74.7423  221.4135 H   0  0  0  0  0  0  0  0  0  0  0  0
  144.4950   73.0025  221.5030 H   0  0  0  0  0  0  0  0  0  0  0  0
  146.4215   74.2367  219.4751 H   0  0  0  0  0  0  0  0  0  0  0  0
  146.8734   73.2502  220.9214 H   0  0  0  0  0  0  0  0  0  0  0  0
  145.4275   72.2031  217.4698 H   0  0  0  0  0  0  0  0  0  0  0  0
  144.1925   71.6468  218.6890 H   0  0  0  0  0  0  0  0  0  0  0  0
  145.0774   74.5076  218.1921 H   0  0  0  0  0  0  0  0  0  0  0  0
  143.5193   73.7576  217.6962 H   0  0  0  0  0  0  0  0  0  0  0  0
  139.2485   69.5953  222.5490 H   0  0  0  0  0  0  0  0  0  0  0  0
  138.8034   68.2858  224.5932 H   0  0  0  0  0  0  0  0  0  0  0  0
  138.9664   68.0976  226.9776 H   0  0  0  0  0  0  0  0  0  0  0  0
  140.8266   71.2697  229.2531 H   0  0  0  0  0  0  0  0  0  0  0  0
  141.2287   72.5102  227.1375 H   0  0  0  0  0  0  0  0  0  0  0  0
  1  2  2  0
  2  3  1  0
  3  4  1  0
  4  5  1  0
  5  6  2  0
  5  7  1  0
  7  8  1  0
  8  9  1  0
  9 10  1  0
 10 11  1  0
 11 12  1  0
 12 13  1  0
 13 14  1  0
 14 15  1  0
 15 16  1  0
 16 17  1  0
  2 18  1  0
 18 19  2  0
 19 20  1  0
 20 21  2  0
 21 22  1  0
 22 23  2  0
 23 24  1  0
 23 25  1  0
 25 26  2  0
 26 27  1  0
 27 28  2  0
 11  7  1  0
 17 12  1  0
 28 18  1  0
 27 21  1  0
  3 29  1  0
  4 30  1  0
  4 31  1  0
  8 32  1  0
  8 33  1  0
  9 34  1  0
  9 35  1  0
 10 36  1  0
 10 37  1  0
 11 38  1  1
 12 39  1  0
 13 40  1  0
 13 41  1  0
 14 42  1  0
 14 43  1  0
 16 44  1  0
 16 45  1  0
 17 46  1  0
 17 47  1  0
 19 48  1  0
 20 49  1  0
 22 50  1  0
 25 51  1  0
 26 52  1  0
M  END
>  <meeko>  (9) 
{"free_energy": -8.72, "intermolecular_energy": -10.21, "internal_energy": -1.56, "cluster_size": 14, "cluster_id": 1, "rank_in_cluster": 8}

$$$$

     RDKit          3D

 52 55  0  0  0  0  0  0  0  0999 V2000
  141.2950   72.0070  221.4970 O   0  0  0  0  0  0  0  0  0  0  0  0
  140.4220   72.3330  222.3470 C   0  0  0  0  0  0  0  0  0  0  0  0
  139.5940   73.4900  222.1960 N   0  0  0  0  0  0  0  0  0  0  0  0
  139.7710   74.3370  221.0000 C   0  0  0  0  0  0  0  0  0  0  0  0
  140.2030   75.6780  221.3740 C   0  0  0  0  0  0  0  0  0  0  0  0
  141.3440   76.0430  220.8630 O   0  0  0  0  0  0  0  0  0  0  0  0
  139.5980   76.6260  222.1880 N   0  0  0  0  0  0  0  0  0  0  0  0
  138.1810   76.3930  222.6520 C   0  0  0  0  0  0  0  0  0  0  0  0
  137.5750   77.7880  222.6850 C   0  0  0  0  0  0  0  0  0  0  0  0
  138.7070   78.7050  222.1980 C   0  0  0  0  0  0  0  0  0  0  0  0
  139.8890   77.8930  222.7700 C   0  0  2  0  0  0  0  0  0  0  0  0
  141.1870   78.5380  222.5450 C   0  0  0  0  0  0  0  0  0  0  0  0
  141.8140   79.0000  223.8130 C   0  0  0  0  0  0  0  0  0  0  0  0
  141.9260   80.5220  223.8330 C   0  0  0  0  0  0  0  0  0  0  0  0
  142.7000   80.9770  222.7830 O   0  0  0  0  0  0  0  0  0  0  0  0
  142.1970   80.5940  221.5610 C   0  0  0  0  0  0  0  0  0  0  0  0
  140.9300   79.7810  221.6760 C   0  0  0  0  0  0  0  0  0  0  0  0
  140.2380   71.5020  223.5350 C   0  0  0  0  0  0  0  0  0  0  0  0
  139.5740   70.2950  223.4500 C   0  0  0  0  0  0  0  0  0  0  0  0
  139.3660   69.4640  224.5270 C   0  0  0  0  0  0  0  0  0  0  0  0
  139.8560   69.8790  225.7530 C   0  0  0  0  0  0  0  0  0  0  0  0
  139.6650   69.0680  226.8590 C   0  0  0  0  0  0  0  0  0  0  0  0
  140.1550   69.4800  228.0960 C   0  0  0  0  0  0  0  0  0  0  0  0
  139.9710   68.6830  229.1950 F   0  0  0  0  0  0  0  0  0  0  0  0
  140.8280   70.6920  228.2070 C   0  0  0  0  0  0  0  0  0  0  0  0
  140.9970   71.4770  227.0680 C   0  0  0  0  0  0  0  0  0  0  0  0
  140.5200   71.0890  225.8330 C   0  0  0  0  0  0  0  0  0  0  0  0
  140.6930   71.8590  224.7470 N   0  0  0  0  0  0  0  0  0  0  0  0
  138.8970   73.6990  222.9320 H   0  0  0  0  0  0  0  0  0  0  0  0
  140.5300   73.8830  220.3459 H   0  0  0  0  0  0  0  0  0  0  0  0
  138.8073   74.4110  220.4749 H   0  0  0  0  0  0  0  0  0  0  0  0
  137.6388   75.7470  221.9458 H   0  0  0  0  0  0  0  0  0  0  0  0
  138.1309   75.8847  223.6262 H   0  0  0  0  0  0  0  0  0  0  0  0
  136.7060   77.8514  222.0135 H   0  0  0  0  0  0  0  0  0  0  0  0
  137.2110   78.0646  223.6855 H   0  0  0  0  0  0  0  0  0  0  0  0
  138.7425   78.7791  221.1011 H   0  0  0  0  0  0  0  0  0  0  0  0
  138.6462   79.7589  222.5072 H   0  0  0  0  0  0  0  0  0  0  0  0
  139.9885   77.8039  223.8619 H   0  0  0  0  0  0  0  0  0  0  0  0
  141.8632   77.8102  222.0726 H   0  0  0  0  0  0  0  0  0  0  0  0
  141.1967   78.6717  224.6622 H   0  0  0  0  0  0  0  0  0  0  0  0
  142.8233   78.5689  223.8874 H   0  0  0  0  0  0  0  0  0  0  0  0
  140.9191   80.9575  223.7523 H   0  0  0  0  0  0  0  0  0  0  0  0
  142.4036   80.8251  224.7764 H   0  0  0  0  0  0  0  0  0  0  0  0
  141.9821   81.4973  220.9711 H   0  0  0  0  0  0  0  0  0  0  0  0
  142.9537   79.9593  221.0767 H   0  0  0  0  0  0  0  0  0  0  0  0
  140.1431   80.3943  222.1392 H   0  0  0  0  0  0  0  0  0  0  0  0
  140.6093   79.4635  220.6728 H   0  0  0  0  0  0  0  0  0  0  0  0
  139.1903   69.9803  222.4683 H   0  0  0  0  0  0  0  0  0  0  0  0
  138.8319   68.5086  224.4179 H   0  0  0  0  0  0  0  0  0  0  0  0
  139.1328   68.1102  226.7619 H   0  0  0  0  0  0  0  0  0  0  0  0
  141.2208   71.0258  229.1787 H   0  0  0  0  0  0  0  0  0  0  0  0
  141.5276   72.4365  227.1565 H   0  0  0  0  0  0  0  0  0  0  0  0
  1  2  2  0
  2  3  1  0
  3  4  1  0
  4  5  1  0
  5  6  2  0
  5  7  1  0
  7  8  1  0
  8  9  1  0
  9 10  1  0
 10 11  1  0
 11 12  1  0
 12 13  1  0
 13 14  1  0
 14 15  1  0
 15 16  1  0
 16 17  1  0
  2 18  1  0
 18 19  2  0
 19 20  1  0
 20 21  2  0
 21 22  1  0
 22 23  2  0
 23 24  1  0
 23 25  1  0
 25 26  2  0
 26 27  1  0
 27 28  2  0
 11  7  1  0
 17 12  1  0
 28 18  1  0
 27 21  1  0
  3 29  1  0
  4 30  1  0
  4 31  1  0
  8 32  1  0
  8 33  1  0
  9 34  1  0
  9 35  1  0
 10 36  1  0
 10 37  1  0
 11 38  1  1
 12 39  1  0
 13 40  1  0
 13 41  1  0
 14 42  1  0
 14 43  1  0
 16 44  1  0
 16 45  1  0
 17 46  1  0
 17 47  1  0
 19 48  1  0
 20 49  1  0
 22 50  1  0
 25 51  1  0
 26 52  1  0
M  END
>  <meeko>  (10) 
{"free_energy": -8.51, "intermolecular_energy": -10.01, "internal_energy": -1.18, "cluster_size": 5, "cluster_id": 2, "rank_in_cluster": 2}

$$$$

     RDKit          3D

 52 55  0  0  0  0  0  0  0  0999 V2000
  141.4080   72.5080  221.8750 O   0  0  0  0  0  0  0  0  0  0  0  0
  140.3660   72.5290  222.5880 C   0  0  0  0  0  0  0  0  0  0  0  0
  139.2830   73.4290  222.3400 N   0  0  0  0  0  0  0  0  0  0  0  0
  139.3870   74.3700  221.2090 C   0  0  0  0  0  0  0  0  0  0  0  0
  139.9710   75.6340  221.6380 C   0  0  0  0  0  0  0  0  0  0  0  0
  141.2360   75.7700  221.3600 O   0  0  0  0  0  0  0  0  0  0  0  0
  139.4000   76.7140  222.2980 N   0  0  0  0  0  0  0  0  0  0  0  0
  137.9540   76.6280  222.7230 C   0  0  0  0  0  0  0  0  0  0  0  0
  137.4400   78.0500  222.5530 C   0  0  0  0  0  0  0  0  0  0  0  0
  138.6470   78.8270  222.0060 C   0  0  0  0  0  0  0  0  0  0  0  0
  139.7510   78.0250  222.7280 C   0  0  2  0  0  0  0  0  0  0  0  0
  141.0960   78.5570  222.4830 C   0  0  0  0  0  0  0  0  0  0  0  0
  141.8200   78.8620  223.7460 C   0  0  0  0  0  0  0  0  0  0  0  0
  142.0850   80.3610  223.8660 C   0  0  0  0  0  0  0  0  0  0  0  0
  142.8530   80.8150  222.8110 O   0  0  0  0  0  0  0  0  0  0  0  0
  142.2620   80.5730  221.5930 C   0  0  0  0  0  0  0  0  0  0  0  0
  140.9270   79.8790  221.7160 C   0  0  0  0  0  0  0  0  0  0  0  0
  140.2520   71.6020  223.7110 C   0  0  0  0  0  0  0  0  0  0  0  0
  139.6530   70.3690  223.5440 C   0  0  0  0  0  0  0  0  0  0  0  0
  139.5120   69.4480  224.5560 C   0  0  0  0  0  0  0  0  0  0  0  0
  140.0030   69.7950  225.8030 C   0  0  0  0  0  0  0  0  0  0  0  0
  139.8790   68.8930  226.8460 C   0  0  0  0  0  0  0  0  0  0  0  0
  140.3700   69.2370  228.1040 C   0  0  0  0  0  0  0  0  0  0  0  0
  140.2510   68.3500  229.1410 F   0  0  0  0  0  0  0  0  0  0  0  0
  140.9770   70.4730  228.2970 C   0  0  0  0  0  0  0  0  0  0  0  0
  141.0810   71.3510  227.2190 C   0  0  0  0  0  0  0  0  0  0  0  0
  140.6010   71.0320  225.9650 C   0  0  0  0  0  0  0  0  0  0  0  0
  140.7100   71.8900  224.9390 N   0  0  0  0  0  0  0  0  0  0  0  0
  138.4580   73.3920  222.9640 H   0  0  0  0  0  0  0  0  0  0  0  0
  140.0221   73.9262  220.4281 H   0  0  0  0  0  0  0  0  0  0  0  0
  138.3772   74.5635  220.8181 H   0  0  0  0  0  0  0  0  0  0  0  0
  137.3974   75.9307  222.0797 H   0  0  0  0  0  0  0  0  0  0  0  0
  137.8343   76.2525  223.7500 H   0  0  0  0  0  0  0  0  0  0  0  0
  136.6025   78.0790  221.8405 H   0  0  0  0  0  0  0  0  0  0  0  0
  137.0583   78.4742  223.4934 H   0  0  0  0  0  0  0  0  0  0  0  0
  138.7278   78.7577  220.9112 H   0  0  0  0  0  0  0  0  0  0  0  0
  138.6442   79.9136  222.1773 H   0  0  0  0  0  0  0  0  0  0  0  0
  139.8036   78.0704  223.8258 H   0  0  0  0  0  0  0  0  0  0  0  0
  141.6750   77.8041  221.9282 H   0  0  0  0  0  0  0  0  0  0  0  0
  141.2102   78.5333  224.6005 H   0  0  0  0  0  0  0  0  0  0  0  0
  142.7835   78.3313  223.7390 H   0  0  0  0  0  0  0  0  0  0  0  0
  141.1244   80.8969  223.8682 H   0  0  0  0  0  0  0  0  0  0  0  0
  142.6321   80.5459  224.8022 H   0  0  0  0  0  0  0  0  0  0  0  0
  142.1122   81.5336  221.0784 H   0  0  0  0  0  0  0  0  0  0  0  0
  142.9302   79.9062  221.0283 H   0  0  0  0  0  0  0  0  0  0  0  0
  140.2260   80.5295  222.2595 H   0  0  0  0  0  0  0  0  0  0  0  0
  140.5334   79.6679  220.7108 H   0  0  0  0  0  0  0  0  0  0  0  0
  139.2675   70.1091  222.5471 H   0  0  0  0  0  0  0  0  0  0  0  0
  139.0287   68.4754  224.3815 H   0  0  0  0  0  0  0  0  0  0  0  0
  139.3988   67.9168  226.6837 H   0  0  0  0  0  0  0  0  0  0  0  0
  141.3693   70.7539  229.2855 H   0  0  0  0  0  0  0  0  0  0  0  0
  141.5608   72.3288  227.3728 H   0  0  0  0  0  0  0  0  0  0  0  0
  1  2  2  0
  2  3  1  0
  3  4  1  0
  4  5  1  0
  5  6  2  0
  5  7  1  0
  7  8  1  0
  8  9  1  0
  9 10  1  0
 10 11  1  0
 11 12  1  0
 12 13  1  0
 13 14  1  0
 14 15  1  0
 15 16  1  0
 16 17  1  0
  2 18  1  0
 18 19  2  0
 19 20  1  0
 20 21  2  0
 21 22  1  0
 22 23  2  0
 23 24  1  0
 23 25  1  0
 25 26  2  0
 26 27  1  0
 27 28  2  0
 11  7  1  0
 17 12  1  0
 28 18  1  0
 27 21  1  0
  3 29  1  0
  4 30  1  0
  4 31  1  0
  8 32  1  0
  8 33  1  0
  9 34  1  0
  9 35  1  0
 10 36  1  0
 10 37  1  0
 11 38  1  1
 12 39  1  0
 13 40  1  0
 13 41  1  0
 14 42  1  0
 14 43  1  0
 16 44  1  0
 16 45  1  0
 17 46  1  0
 17 47  1  0
 19 48  1  0
 20 49  1  0
 22 50  1  0
 25 51  1  0
 26 52  1  0
M  END
>  <meeko>  (11) 
{"free_energy": -8.64, "intermolecular_energy": -10.13, "internal_energy": -1.16, "cluster_size": 5, "cluster_id": 2, "rank_in_cluster": 1}

$$$$

     RDKit          3D

 52 55  0  0  0  0  0  0  0  0999 V2000
  141.0510   71.4060  221.3670 O   0  0  0  0  0  0  0  0  0  0  0  0
  140.4560   71.9910  222.3140 C   0  0  0  0  0  0  0  0  0  0  0  0
  140.0140   73.3480  222.2220 N   0  0  0  0  0  0  0  0  0  0  0  0
  140.2650   74.0940  220.9740 C   0  0  0  0  0  0  0  0  0  0  0  0
  141.0880   75.2690  221.2290 C   0  0  0  0  0  0  0  0  0  0  0  0
  140.8320   75.8790  222.3500 O   0  0  0  0  0  0  0  0  0  0  0  0
  142.0970   75.8450  220.4690 N   0  0  0  0  0  0  0  0  0  0  0  0
  142.0230   77.3190  220.1540 C   0  0  0  0  0  0  0  0  0  0  0  0
  142.6110   77.4230  218.7550 C   0  0  0  0  0  0  0  0  0  0  0  0
  142.9420   75.9720  218.3740 C   0  0  0  0  0  0  0  0  0  0  0  0
  143.2890   75.4630  219.7900 C   0  0  2  0  0  0  0  0  0  0  0  0
  143.7410   74.0680  219.7990 C   0  0  0  0  0  0  0  0  0  0  0  0
  144.7780   73.8170  220.8360 C   0  0  0  0  0  0  0  0  0  0  0  0
  146.1060   73.4380  220.1880 C   0  0  0  0  0  0  0  0  0  0  0  0
  145.9770   72.2910  219.4270 O   0  0  0  0  0  0  0  0  0  0  0  0
  145.0320   72.4270  218.4360 C   0  0  0  0  0  0  0  0  0  0  0  0
  144.3800   73.7890  218.4290 C   0  0  0  0  0  0  0  0  0  0  0  0
  140.2020   71.2630  223.5550 C   0  0  0  0  0  0  0  0  0  0  0  0
  139.5500   70.0460  223.5330 C   0  0  0  0  0  0  0  0  0  0  0  0
  139.2790   69.3090  224.6610 C   0  0  0  0  0  0  0  0  0  0  0  0
  139.6890   69.8310  225.8760 C   0  0  0  0  0  0  0  0  0  0  0  0
  139.4320   69.1160  227.0330 C   0  0  0  0  0  0  0  0  0  0  0  0
  139.8420   69.6370  228.2590 C   0  0  0  0  0  0  0  0  0  0  0  0
  139.5930   68.9350  229.4080 F   0  0  0  0  0  0  0  0  0  0  0  0
  140.5000   70.8600  228.3070 C   0  0  0  0  0  0  0  0  0  0  0  0
  140.7380   71.5470  227.1170 C   0  0  0  0  0  0  0  0  0  0  0  0
  140.3400   71.0510  225.8920 C   0  0  0  0  0  0  0  0  0  0  0  0
  140.5780   71.7270  224.7570 N   0  0  0  0  0  0  0  0  0  0  0  0
  139.5310   73.7670  223.0370 H   0  0  0  0  0  0  0  0  0  0  0  0
  140.7847   73.4379  220.2602 H   0  0  0  0  0  0  0  0  0  0  0  0
  139.3003   74.4228  220.5602 H   0  0  0  0  0  0  0  0  0  0  0  0
  140.9808   77.6705  220.1678 H   0  0  0  0  0  0  0  0  0  0  0  0
  142.5607   77.9375  220.8877 H   0  0  0  0  0  0  0  0  0  0  0  0
  141.8787   77.8523  218.0554 H   0  0  0  0  0  0  0  0  0  0  0  0
  143.4930   78.0792  218.7174 H   0  0  0  0  0  0  0  0  0  0  0  0
  142.0787   75.4460  217.9403 H   0  0  0  0  0  0  0  0  0  0  0  0
  143.7162   75.8355  217.6046 H   0  0  0  0  0  0  0  0  0  0  0  0
  144.1721   75.8771  220.2986 H   0  0  0  0  0  0  0  0  0  0  0  0
  142.8769   73.4223  220.0142 H   0  0  0  0  0  0  0  0  0  0  0  0
  144.9161   74.7280  221.4368 H   0  0  0  0  0  0  0  0  0  0  0  0
  144.4458   72.9857  221.4752 H   0  0  0  0  0  0  0  0  0  0  0  0
  146.4390   74.2631  219.5412 H   0  0  0  0  0  0  0  0  0  0  0  0
  146.8425   73.2498  220.9830 H   0  0  0  0  0  0  0  0  0  0  0  0
  145.5183   72.2656  217.4626 H   0  0  0  0  0  0  0  0  0  0  0  0
  144.2434   71.6844  218.6276 H   0  0  0  0  0  0  0  0  0  0  0  0
  145.1394   74.5562  218.2173 H   0  0  0  0  0  0  0  0  0  0  0  0
  143.6007   73.8144  217.6531 H   0  0  0  0  0  0  0  0  0  0  0  0
  139.2302   69.6446  222.5601 H   0  0  0  0  0  0  0  0  0  0  0  0
  138.7570   68.3426  224.6008 H   0  0  0  0  0  0  0  0  0  0  0  0
  138.9107   68.1486  226.9855 H   0  0  0  0  0  0  0  0  0  0  0  0
  140.8282   71.2799  229.2693 H   0  0  0  0  0  0  0  0  0  0  0  0
  141.2594   72.5148  227.1558 H   0  0  0  0  0  0  0  0  0  0  0  0
  1  2  2  0
  2  3  1  0
  3  4  1  0
  4  5  1  0
  5  6  2  0
  5  7  1  0
  7  8  1  0
  8  9  1  0
  9 10  1  0
 10 11  1  0
 11 12  1  0
 12 13  1  0
 13 14  1  0
 14 15  1  0
 15 16  1  0
 16 17  1  0
  2 18  1  0
 18 19  2  0
 19 20  1  0
 20 21  2  0
 21 22  1  0
 22 23  2  0
 23 24  1  0
 23 25  1  0
 25 26  2  0
 26 27  1  0
 27 28  2  0
 11  7  1  0
 17 12  1  0
 28 18  1  0
 27 21  1  0
  3 29  1  0
  4 30  1  0
  4 31  1  0
  8 32  1  0
  8 33  1  0
  9 34  1  0
  9 35  1  0
 10 36  1  0
 10 37  1  0
 11 38  1  1
 12 39  1  0
 13 40  1  0
 13 41  1  0
 14 42  1  0
 14 43  1  0
 16 44  1  0
 16 45  1  0
 17 46  1  0
 17 47  1  0
 19 48  1  0
 20 49  1  0
 22 50  1  0
 25 51  1  0
 26 52  1  0
M  END
>  <meeko>  (12) 
{"free_energy": -8.72, "intermolecular_energy": -10.21, "internal_energy": -1.55, "cluster_size": 14, "cluster_id": 1, "rank_in_cluster": 11}

$$$$

     RDKit          3D

 52 55  0  0  0  0  0  0  0  0999 V2000
  139.4260   71.2100  221.1190 O   0  0  0  0  0  0  0  0  0  0  0  0
  139.5270   71.8010  222.2290 C   0  0  0  0  0  0  0  0  0  0  0  0
  139.5040   73.2260  222.3470 N   0  0  0  0  0  0  0  0  0  0  0  0
  139.3580   74.0370  221.1230 C   0  0  0  0  0  0  0  0  0  0  0  0
  140.6140   74.0930  220.3860 C   0  0  0  0  0  0  0  0  0  0  0  0
  140.7400   73.1890  219.4570 O   0  0  0  0  0  0  0  0  0  0  0  0
  141.6980   74.9500  220.5170 N   0  0  0  0  0  0  0  0  0  0  0  0
  141.4440   76.4150  220.7800 C   0  0  0  0  0  0  0  0  0  0  0  0
  142.5610   77.1200  220.0240 C   0  0  0  0  0  0  0  0  0  0  0  0
  143.3460   75.9800  219.3580 C   0  0  0  0  0  0  0  0  0  0  0  0
  143.1200   74.9110  220.4490 C   0  0  2  0  0  0  0  0  0  0  0  0
  143.8210   73.6530  220.1680 C   0  0  0  0  0  0  0  0  0  0  0  0
  144.9800   73.4390  221.0750 C   0  0  0  0  0  0  0  0  0  0  0  0
  146.2870   73.4490  220.2880 C   0  0  0  0  0  0  0  0  0  0  0  0
  146.3000   72.4490  219.3340 O   0  0  0  0  0  0  0  0  0  0  0  0
  145.2560   72.5640  218.4460 C   0  0  0  0  0  0  0  0  0  0  0  0
  144.3660   73.7480  218.7340 C   0  0  0  0  0  0  0  0  0  0  0  0
  139.6720   71.0080  223.4480 C   0  0  0  0  0  0  0  0  0  0  0  0
  139.2450   69.6960  223.4850 C   0  0  0  0  0  0  0  0  0  0  0  0
  139.3510   68.8930  224.5970 C   0  0  0  0  0  0  0  0  0  0  0  0
  139.9180   69.4490  225.7310 C   0  0  0  0  0  0  0  0  0  0  0  0
  140.0410   68.6710  226.8690 C   0  0  0  0  0  0  0  0  0  0  0  0
  140.6100   69.2260  228.0130 C   0  0  0  0  0  0  0  0  0  0  0  0
  140.7350   68.4620  229.1430 F   0  0  0  0  0  0  0  0  0  0  0  0
  141.0470   70.5450  228.0010 C   0  0  0  0  0  0  0  0  0  0  0  0
  140.9040   71.2930  226.8330 C   0  0  0  0  0  0  0  0  0  0  0  0
  140.3430   70.7650  225.6880 C   0  0  0  0  0  0  0  0  0  0  0  0
  140.2130   71.5010  224.5730 N   0  0  0  0  0  0  0  0  0  0  0  0
  139.5910   73.6450  223.2890 H   0  0  0  0  0  0  0  0  0  0  0  0
  138.5842   73.5879  220.4831 H   0  0  0  0  0  0  0  0  0  0  0  0
  139.0718   75.0596  221.4099 H   0  0  0  0  0  0  0  0  0  0  0  0
  140.4590   76.7170  220.3947 H   0  0  0  0  0  0  0  0  0  0  0  0
  141.4370   76.6591  221.8525 H   0  0  0  0  0  0  0  0  0  0  0  0
  142.1485   77.8033  219.2671 H   0  0  0  0  0  0  0  0  0  0  0  0
  143.1911   77.7357  220.6827 H   0  0  0  0  0  0  0  0  0  0  0  0
  142.9158   75.6863  218.3892 H   0  0  0  0  0  0  0  0  0  0  0  0
  144.3928   76.1969  219.0990 H   0  0  0  0  0  0  0  0  0  0  0  0
  143.5584   75.0722  221.4449 H   0  0  0  0  0  0  0  0  0  0  0  0
  143.1163   72.8203  220.3093 H   0  0  0  0  0  0  0  0  0  0  0  0
  145.0042   74.2422  221.8262 H   0  0  0  0  0  0  0  0  0  0  0  0
  144.8696   72.4612  221.5667 H   0  0  0  0  0  0  0  0  0  0  0  0
  146.3988   74.4230  219.7893 H   0  0  0  0  0  0  0  0  0  0  0  0
  147.1179   73.2758  220.9877 H   0  0  0  0  0  0  0  0  0  0  0  0
  145.6684   72.6736  217.4321 H   0  0  0  0  0  0  0  0  0  0  0  0
  144.6401   71.6577  218.5424 H   0  0  0  0  0  0  0  0  0  0  0  0
  144.9462   74.6761  218.6246 H   0  0  0  0  0  0  0  0  0  0  0  0
  143.5248   73.7510  218.0252 H   0  0  0  0  0  0  0  0  0  0  0  0
  138.7956   69.2693  222.5761 H   0  0  0  0  0  0  0  0  0  0  0  0
  138.9993   67.8508  224.5856 H   0  0  0  0  0  0  0  0  0  0  0  0
  139.6937   67.6273  226.8701 H   0  0  0  0  0  0  0  0  0  0  0  0
  141.4987   70.9920  228.8989 H   0  0  0  0  0  0  0  0  0  0  0  0
  141.2494   72.3373  226.8239 H   0  0  0  0  0  0  0  0  0  0  0  0
  1  2  2  0
  2  3  1  0
  3  4  1  0
  4  5  1  0
  5  6  2  0
  5  7  1  0
  7  8  1  0
  8  9  1  0
  9 10  1  0
 10 11  1  0
 11 12  1  0
 12 13  1  0
 13 14  1  0
 14 15  1  0
 15 16  1  0
 16 17  1  0
  2 18  1  0
 18 19  2  0
 19 20  1  0
 20 21  2  0
 21 22  1  0
 22 23  2  0
 23 24  1  0
 23 25  1  0
 25 26  2  0
 26 27  1  0
 27 28  2  0
 11  7  1  0
 17 12  1  0
 28 18  1  0
 27 21  1  0
  3 29  1  0
  4 30  1  0
  4 31  1  0
  8 32  1  0
  8 33  1  0
  9 34  1  0
  9 35  1  0
 10 36  1  0
 10 37  1  0
 11 38  1  1
 12 39  1  0
 13 40  1  0
 13 41  1  0
 14 42  1  0
 14 43  1  0
 16 44  1  0
 16 45  1  0
 17 46  1  0
 17 47  1  0
 19 48  1  0
 20 49  1  0
 22 50  1  0
 25 51  1  0
 26 52  1  0
M  END
>  <meeko>  (13) 
{"free_energy": -8.26, "intermolecular_energy": -9.75, "internal_energy": -1.47, "cluster_size": 14, "cluster_id": 1, "rank_in_cluster": 12}

$$$$

     RDKit          3D

 52 55  0  0  0  0  0  0  0  0999 V2000
  140.9650   73.6460  220.3940 O   0  0  0  0  0  0  0  0  0  0  0  0
  140.4500   74.3940  221.2700 C   0  0  0  0  0  0  0  0  0  0  0  0
  139.4580   73.9310  222.1900 N   0  0  0  0  0  0  0  0  0  0  0  0
  139.0180   72.5250  222.1110 C   0  0  0  0  0  0  0  0  0  0  0  0
  139.8200   71.6810  222.9870 C   0  0  0  0  0  0  0  0  0  0  0  0
  140.9990   72.1560  223.2690 O   0  0  0  0  0  0  0  0  0  0  0  0
  139.5320   70.4520  223.5660 N   0  0  0  0  0  0  0  0  0  0  0  0
  138.4970   69.5650  222.9190 C   0  0  0  0  0  0  0  0  0  0  0  0
  137.8170   68.8810  224.0960 C   0  0  0  0  0  0  0  0  0  0  0  0
  138.5120   69.4730  225.3320 C   0  0  0  0  0  0  0  0  0  0  0  0
  139.9070   69.6800  224.7030 C   0  0  2  0  0  0  0  0  0  0  0  0
  140.8940   70.1900  225.6610 C   0  0  0  0  0  0  0  0  0  0  0  0
  141.0700   69.2820  226.8260 C   0  0  0  0  0  0  0  0  0  0  0  0
  140.6090   69.9620  228.1120 C   0  0  0  0  0  0  0  0  0  0  0  0
  141.3360   71.1120  228.3520 O   0  0  0  0  0  0  0  0  0  0  0  0
  141.2360   72.0170  227.3220 C   0  0  0  0  0  0  0  0  0  0  0  0
  140.3590   71.5290  226.1940 C   0  0  0  0  0  0  0  0  0  0  0  0
  140.8780   75.7880  221.3580 C   0  0  0  0  0  0  0  0  0  0  0  0
  141.7080   76.3290  220.3960 C   0  0  0  0  0  0  0  0  0  0  0  0
  142.1480   77.6320  220.4160 C   0  0  0  0  0  0  0  0  0  0  0  0
  141.7260   78.4290  221.4670 C   0  0  0  0  0  0  0  0  0  0  0  0
  142.1500   79.7460  221.5200 C   0  0  0  0  0  0  0  0  0  0  0  0
  141.7300   80.5520  222.5750 C   0  0  0  0  0  0  0  0  0  0  0  0
  142.1440   81.8570  222.6340 F   0  0  0  0  0  0  0  0  0  0  0  0
  140.8940   80.0310  223.5560 C   0  0  0  0  0  0  0  0  0  0  0  0
  140.4920   78.7000  223.4640 C   0  0  0  0  0  0  0  0  0  0  0  0
  140.8960   77.8820  222.4280 C   0  0  0  0  0  0  0  0  0  0  0  0
  140.4980   76.6020  222.3560 N   0  0  0  0  0  0  0  0  0  0  0  0
  139.0780   74.5990  222.8840 H   0  0  0  0  0  0  0  0  0  0  0  0
  137.9628   72.4599  222.4148 H   0  0  0  0  0  0  0  0  0  0  0  0
  139.1411   72.1751  221.0754 H   0  0  0  0  0  0  0  0  0  0  0  0
  137.7750   70.1618  222.3423 H   0  0  0  0  0  0  0  0  0  0  0  0
  138.9351   68.8500  222.2071 H   0  0  0  0  0  0  0  0  0  0  0  0
  136.7404   69.1064  224.1089 H   0  0  0  0  0  0  0  0  0  0  0  0
  137.9009   67.7851  224.0511 H   0  0  0  0  0  0  0  0  0  0  0  0
  138.0546   70.4195  225.6558 H   0  0  0  0  0  0  0  0  0  0  0  0
  138.4768   68.8647  226.2478 H   0  0  0  0  0  0  0  0  0  0  0  0
  140.4849   68.7958  224.3961 H   0  0  0  0  0  0  0  0  0  0  0  0
  141.8631   70.2835  225.1490 H   0  0  0  0  0  0  0  0  0  0  0  0
  140.4760   68.3700  226.6664 H   0  0  0  0  0  0  0  0  0  0  0  0
  142.1365   69.0300  226.9210 H   0  0  0  0  0  0  0  0  0  0  0  0
  139.5442   70.2223  228.0195 H   0  0  0  0  0  0  0  0  0  0  0  0
  140.7645   69.2676  228.9508 H   0  0  0  0  0  0  0  0  0  0  0  0
  140.8123   72.9523  227.7165 H   0  0  0  0  0  0  0  0  0  0  0  0
  142.2466   72.1654  226.9138 H   0  0  0  0  0  0  0  0  0  0  0  0
  139.3320   71.3911  226.5632 H   0  0  0  0  0  0  0  0  0  0  0  0
  140.3642   72.2714  225.3823 H   0  0  0  0  0  0  0  0  0  0  0  0
  142.0351   75.6825  219.5684 H   0  0  0  0  0  0  0  0  0  0  0  0
  142.8084   78.0251  219.6290 H   0  0  0  0  0  0  0  0  0  0  0  0
  142.8102   80.1505  220.7387 H   0  0  0  0  0  0  0  0  0  0  0  0
  140.5550   80.6600  224.3923 H   0  0  0  0  0  0  0  0  0  0  0  0
  139.8319   78.2881  224.2415 H   0  0  0  0  0  0  0  0  0  0  0  0
  1  2  2  0
  2  3  1  0
  3  4  1  0
  4  5  1  0
  5  6  2  0
  5  7  1  0
  7  8  1  0
  8  9  1  0
  9 10  1  0
 10 11  1  0
 11 12  1  0
 12 13  1  0
 13 14  1  0
 14 15  1  0
 15 16  1  0
 16 17  1  0
  2 18  1  0
 18 19  2  0
 19 20  1  0
 20 21  2  0
 21 22  1  0
 22 23  2  0
 23 24  1  0
 23 25  1  0
 25 26  2  0
 26 27  1  0
 27 28  2  0
 11  7  1  0
 17 12  1  0
 28 18  1  0
 27 21  1  0
  3 29  1  0
  4 30  1  0
  4 31  1  0
  8 32  1  0
  8 33  1  0
  9 34  1  0
  9 35  1  0
 10 36  1  0
 10 37  1  0
 11 38  1  6
 12 39  1  0
 13 40  1  0
 13 41  1  0
 14 42  1  0
 14 43  1  0
 16 44  1  0
 16 45  1  0
 17 46  1  0
 17 47  1  0
 19 48  1  0
 20 49  1  0
 22 50  1  0
 25 51  1  0
 26 52  1  0
M  END
>  <meeko>  (14) 
{"free_energy": -8.18, "intermolecular_energy": -9.67, "internal_energy": -1.49, "cluster_size": 1, "cluster_id": 3, "rank_in_cluster": 1}

$$$$

     RDKit          3D

 52 55  0  0  0  0  0  0  0  0999 V2000
  141.4530   71.8870  221.4500 O   0  0  0  0  0  0  0  0  0  0  0  0
  140.5990   72.3100  222.2770 C   0  0  0  0  0  0  0  0  0  0  0  0
  139.8880   73.5370  222.0880 N   0  0  0  0  0  0  0  0  0  0  0  0
  140.1660   74.3390  220.8810 C   0  0  0  0  0  0  0  0  0  0  0  0
  141.1180   75.4030  221.1740 C   0  0  0  0  0  0  0  0  0  0  0  0
  140.9840   75.9430  222.3510 O   0  0  0  0  0  0  0  0  0  0  0  0
  142.1400   75.9370  220.4000 N   0  0  0  0  0  0  0  0  0  0  0  0
  142.0870   77.3990  220.0290 C   0  0  0  0  0  0  0  0  0  0  0  0
  142.6870   77.4420  218.6310 C   0  0  0  0  0  0  0  0  0  0  0  0
  143.0020   75.9730  218.3100 C   0  0  0  0  0  0  0  0  0  0  0  0
  143.3320   75.5150  219.7460 C   0  0  2  0  0  0  0  0  0  0  0  0
  143.7660   74.1150  219.8130 C   0  0  0  0  0  0  0  0  0  0  0  0
  144.8420   73.9050  220.8190 C   0  0  0  0  0  0  0  0  0  0  0  0
  146.1370   73.4720  220.1380 C   0  0  0  0  0  0  0  0  0  0  0  0
  145.9610   72.2880  219.4460 O   0  0  0  0  0  0  0  0  0  0  0  0
  144.9780   72.3850  218.4890 C   0  0  0  0  0  0  0  0  0  0  0  0
  144.3430   73.7540  218.4350 C   0  0  0  0  0  0  0  0  0  0  0  0
  140.3150   71.5250  223.4760 C   0  0  0  0  0  0  0  0  0  0  0  0
  139.5950   70.3500  223.3900 C   0  0  0  0  0  0  0  0  0  0  0  0
  139.2930   69.5620  224.4760 C   0  0  0  0  0  0  0  0  0  0  0  0
  139.7430   69.9870  225.7140 C   0  0  0  0  0  0  0  0  0  0  0  0
  139.4570   69.2190  226.8300 C   0  0  0  0  0  0  0  0  0  0  0  0
  139.9060   69.6430  228.0790 C   0  0  0  0  0  0  0  0  0  0  0  0
  139.6270   68.8880  229.1880 F   0  0  0  0  0  0  0  0  0  0  0  0
  140.6330   70.8230  228.1920 C   0  0  0  0  0  0  0  0  0  0  0  0
  140.8980   71.5650  227.0420 C   0  0  0  0  0  0  0  0  0  0  0  0
  140.4620   71.1660  225.7950 C   0  0  0  0  0  0  0  0  0  0  0  0
  140.7270   71.8940  224.6990 N   0  0  0  0  0  0  0  0  0  0  0  0
  139.2000   73.8250  222.8050 H   0  0  0  0  0  0  0  0  0  0  0  0
  140.5848   73.6849  220.1021 H   0  0  0  0  0  0  0  0  0  0  0  0
  139.2256   74.7929  220.5352 H   0  0  0  0  0  0  0  0  0  0  0  0
  141.0493   77.7637  220.0212 H   0  0  0  0  0  0  0  0  0  0  0  0
  142.6269   78.0384  220.7430 H   0  0  0  0  0  0  0  0  0  0  0  0
  141.9655   77.8529  217.9094 H   0  0  0  0  0  0  0  0  0  0  0  0
  143.5773   78.0856  218.5745 H   0  0  0  0  0  0  0  0  0  0  0  0
  142.1351   75.4415  217.8905 H   0  0  0  0  0  0  0  0  0  0  0  0
  143.7802   75.7970  217.5528 H   0  0  0  0  0  0  0  0  0  0  0  0
  144.2168   75.9377  220.2445 H   0  0  0  0  0  0  0  0  0  0  0  0
  142.9040   73.4942  220.0988 H   0  0  0  0  0  0  0  0  0  0  0  0
  145.0165   74.8449  221.3632 H   0  0  0  0  0  0  0  0  0  0  0  0
  144.5264   73.1146  221.5160 H   0  0  0  0  0  0  0  0  0  0  0  0
  146.4531   74.2563  219.4345 H   0  0  0  0  0  0  0  0  0  0  0  0
  146.9040   73.3156  220.9108 H   0  0  0  0  0  0  0  0  0  0  0  0
  145.4216   72.1649  217.5068 H   0  0  0  0  0  0  0  0  0  0  0  0
  144.1888   71.6654  218.7525 H   0  0  0  0  0  0  0  0  0  0  0  0
  145.1020   74.4977  218.1507 H   0  0  0  0  0  0  0  0  0  0  0  0
  143.5322   73.7492  217.6917 H   0  0  0  0  0  0  0  0  0  0  0  0
  139.2438   70.0266  222.3990 H   0  0  0  0  0  0  0  0  0  0  0  0
  138.7170   68.6314  224.3652 H   0  0  0  0  0  0  0  0  0  0  0  0
  138.8826   68.2860  226.7318 H   0  0  0  0  0  0  0  0  0  0  0  0
  140.9933   71.1655  229.1733 H   0  0  0  0  0  0  0  0  0  0  0  0
  141.4730   72.4984  227.1314 H   0  0  0  0  0  0  0  0  0  0  0  0
  1  2  2  0
  2  3  1  0
  3  4  1  0
  4  5  1  0
  5  6  2  0
  5  7  1  0
  7  8  1  0
  8  9  1  0
  9 10  1  0
 10 11  1  0
 11 12  1  0
 12 13  1  0
 13 14  1  0
 14 15  1  0
 15 16  1  0
 16 17  1  0
  2 18  1  0
 18 19  2  0
 19 20  1  0
 20 21  2  0
 21 22  1  0
 22 23  2  0
 23 24  1  0
 23 25  1  0
 25 26  2  0
 26 27  1  0
 27 28  2  0
 11  7  1  0
 17 12  1  0
 28 18  1  0
 27 21  1  0
  3 29  1  0
  4 30  1  0
  4 31  1  0
  8 32  1  0
  8 33  1  0
  9 34  1  0
  9 35  1  0
 10 36  1  0
 10 37  1  0
 11 38  1  1
 12 39  1  0
 13 40  1  0
 13 41  1  0
 14 42  1  0
 14 43  1  0
 16 44  1  0
 16 45  1  0
 17 46  1  0
 17 47  1  0
 19 48  1  0
 20 49  1  0
 22 50  1  0
 25 51  1  0
 26 52  1  0
M  END
>  <meeko>  (15) 
{"free_energy": -8.82, "intermolecular_energy": -10.31, "internal_energy": -1.47, "cluster_size": 14, "cluster_id": 1, "rank_in_cluster": 4}

$$$$

     RDKit          3D

 52 55  0  0  0  0  0  0  0  0999 V2000
  141.4280   71.7800  221.4630 O   0  0  0  0  0  0  0  0  0  0  0  0
  140.5930   72.2280  222.2970 C   0  0  0  0  0  0  0  0  0  0  0  0
  139.9070   73.4690  222.1070 N   0  0  0  0  0  0  0  0  0  0  0  0
  140.1880   74.2560  220.8910 C   0  0  0  0  0  0  0  0  0  0  0  0
  141.0910   75.3610  221.1860 C   0  0  0  0  0  0  0  0  0  0  0  0
  140.8990   75.9260  222.3440 O   0  0  0  0  0  0  0  0  0  0  0  0
  142.1200   75.9110  220.4330 N   0  0  0  0  0  0  0  0  0  0  0  0
  142.0720   77.3810  220.0950 C   0  0  0  0  0  0  0  0  0  0  0  0
  142.6820   77.4540  218.7030 C   0  0  0  0  0  0  0  0  0  0  0  0
  142.9980   75.9930  218.3500 C   0  0  0  0  0  0  0  0  0  0  0  0
  143.3160   75.5010  219.7780 C   0  0  2  0  0  0  0  0  0  0  0  0
  143.7470   74.1000  219.8160 C   0  0  0  0  0  0  0  0  0  0  0  0
  144.8010   73.8610  220.8390 C   0  0  0  0  0  0  0  0  0  0  0  0
  146.1100   73.4440  220.1750 C   0  0  0  0  0  0  0  0  0  0  0  0
  145.9490   72.2810  219.4470 O   0  0  0  0  0  0  0  0  0  0  0  0
  144.9870   72.4050  218.4720 C   0  0  0  0  0  0  0  0  0  0  0  0
  144.3560   73.7760  218.4410 C   0  0  0  0  0  0  0  0  0  0  0  0
  140.3070   71.4580  223.5040 C   0  0  0  0  0  0  0  0  0  0  0  0
  139.6070   70.2700  223.4280 C   0  0  0  0  0  0  0  0  0  0  0  0
  139.3030   69.4950  224.5230 C   0  0  0  0  0  0  0  0  0  0  0  0
  139.7300   69.9470  225.7600 C   0  0  0  0  0  0  0  0  0  0  0  0
  139.4420   69.1930  226.8850 C   0  0  0  0  0  0  0  0  0  0  0  0
  139.8690   69.6430  228.1320 C   0  0  0  0  0  0  0  0  0  0  0  0
  139.5880   68.9020  229.2500 F   0  0  0  0  0  0  0  0  0  0  0  0
  140.5750   70.8360  228.2350 C   0  0  0  0  0  0  0  0  0  0  0  0
  140.8430   71.5640  227.0770 C   0  0  0  0  0  0  0  0  0  0  0  0
  140.4300   71.1380  225.8310 C   0  0  0  0  0  0  0  0  0  0  0  0
  140.6970   71.8530  224.7260 N   0  0  0  0  0  0  0  0  0  0  0  0
  139.2340   73.7770  222.8300 H   0  0  0  0  0  0  0  0  0  0  0  0
  140.6522   73.6023  220.1378 H   0  0  0  0  0  0  0  0  0  0  0  0
  139.2411   74.6668  220.5107 H   0  0  0  0  0  0  0  0  0  0  0  0
  141.0350   77.7477  220.0880 H   0  0  0  0  0  0  0  0  0  0  0  0
  142.6075   78.0033  220.8271 H   0  0  0  0  0  0  0  0  0  0  0  0
  141.9662   77.8821  217.9858 H   0  0  0  0  0  0  0  0  0  0  0  0
  143.5738   78.0971  218.6681 H   0  0  0  0  0  0  0  0  0  0  0  0
  142.1340   75.4726  217.9111 H   0  0  0  0  0  0  0  0  0  0  0  0
  143.7821   75.8339  217.5951 H   0  0  0  0  0  0  0  0  0  0  0  0
  144.1977   75.9099  220.2930 H   0  0  0  0  0  0  0  0  0  0  0  0
  142.8780   73.4733  220.0652 H   0  0  0  0  0  0  0  0  0  0  0  0
  144.9649   74.7856  221.4119 H   0  0  0  0  0  0  0  0  0  0  0  0
  144.4694   73.0527  221.5073 H   0  0  0  0  0  0  0  0  0  0  0  0
  146.4427   74.2469  219.5008 H   0  0  0  0  0  0  0  0  0  0  0  0
  146.8588   73.2642  220.9604 H   0  0  0  0  0  0  0  0  0  0  0  0
  145.4512   72.2100  217.4940 H   0  0  0  0  0  0  0  0  0  0  0  0
  144.1913   71.6802  218.6990 H   0  0  0  0  0  0  0  0  0  0  0  0
  145.1227   74.5255  218.1953 H   0  0  0  0  0  0  0  0  0  0  0  0
  143.5629   73.7939  217.6789 H   0  0  0  0  0  0  0  0  0  0  0  0
  139.2744   69.9247  222.4380 H   0  0  0  0  0  0  0  0  0  0  0  0
  138.7430   68.5538  224.4200 H   0  0  0  0  0  0  0  0  0  0  0  0
  138.8828   68.2501  226.7950 H   0  0  0  0  0  0  0  0  0  0  0  0
  140.9169   71.1999  229.2152 H   0  0  0  0  0  0  0  0  0  0  0  0
  141.4015   72.5081  227.1589 H   0  0  0  0  0  0  0  0  0  0  0  0
  1  2  2  0
  2  3  1  0
  3  4  1  0
  4  5  1  0
  5  6  2  0
  5  7  1  0
  7  8  1  0
  8  9  1  0
  9 10  1  0
 10 11  1  0
 11 12  1  0
 12 13  1  0
 13 14  1  0
 14 15  1  0
 15 16  1  0
 16 17  1  0
  2 18  1  0
 18 19  2  0
 19 20  1  0
 20 21  2  0
 21 22  1  0
 22 23  2  0
 23 24  1  0
 23 25  1  0
 25 26  2  0
 26 27  1  0
 27 28  2  0
 11  7  1  0
 17 12  1  0
 28 18  1  0
 27 21  1  0
  3 29  1  0
  4 30  1  0
  4 31  1  0
  8 32  1  0
  8 33  1  0
  9 34  1  0
  9 35  1  0
 10 36  1  0
 10 37  1  0
 11 38  1  1
 12 39  1  0
 13 40  1  0
 13 41  1  0
 14 42  1  0
 14 43  1  0
 16 44  1  0
 16 45  1  0
 17 46  1  0
 17 47  1  0
 19 48  1  0
 20 49  1  0
 22 50  1  0
 25 51  1  0
 26 52  1  0
M  END
>  <meeko>  (16) 
{"free_energy": -8.82, "intermolecular_energy": -10.31, "internal_energy": -1.48, "cluster_size": 14, "cluster_id": 1, "rank_in_cluster": 6}

$$$$

     RDKit          3D

 52 55  0  0  0  0  0  0  0  0999 V2000
  139.0090   71.0050  221.4400 O   0  0  0  0  0  0  0  0  0  0  0  0
  139.3890   71.5630  222.5070 C   0  0  0  0  0  0  0  0  0  0  0  0
  139.6300   72.9700  222.5960 N   0  0  0  0  0  0  0  0  0  0  0  0
  139.4300   73.8010  221.3940 C   0  0  0  0  0  0  0  0  0  0  0  0
  140.6430   73.8480  220.5870 C   0  0  0  0  0  0  0  0  0  0  0  0
  140.7520   72.8880  219.7140 O   0  0  0  0  0  0  0  0  0  0  0  0
  141.7020   74.7460  220.6020 N   0  0  0  0  0  0  0  0  0  0  0  0
  141.4080   76.2180  220.7580 C   0  0  0  0  0  0  0  0  0  0  0  0
  142.4680   76.8930  219.9010 C   0  0  0  0  0  0  0  0  0  0  0  0
  143.2640   75.7280  219.2940 C   0  0  0  0  0  0  0  0  0  0  0  0
  143.1200   74.7440  220.4760 C   0  0  2  0  0  0  0  0  0  0  0  0
  143.8510   73.4900  220.2660 C   0  0  0  0  0  0  0  0  0  0  0  0
  145.0890   73.4150  221.0880 C   0  0  0  0  0  0  0  0  0  0  0  0
  146.3260   73.3900  220.1960 C   0  0  0  0  0  0  0  0  0  0  0  0
  146.3060   72.2960  219.3510 O   0  0  0  0  0  0  0  0  0  0  0  0
  145.1900   72.2780  218.5480 C   0  0  0  0  0  0  0  0  0  0  0  0
  144.2740   73.4530  218.7890 C   0  0  0  0  0  0  0  0  0  0  0  0
  139.5910   70.7500  223.7040 C   0  0  0  0  0  0  0  0  0  0  0  0
  139.2180   69.4200  223.7190 C   0  0  0  0  0  0  0  0  0  0  0  0
  139.3800   68.5980  224.8100 C   0  0  0  0  0  0  0  0  0  0  0  0
  139.9480   69.1510  225.9440 C   0  0  0  0  0  0  0  0  0  0  0  0
  140.1260   68.3520  227.0610 C   0  0  0  0  0  0  0  0  0  0  0  0
  140.6970   68.9030  228.2060 C   0  0  0  0  0  0  0  0  0  0  0  0
  140.8760   68.1200  229.3150 F   0  0  0  0  0  0  0  0  0  0  0  0
  141.0810   70.2400  228.2160 C   0  0  0  0  0  0  0  0  0  0  0  0
  140.8830   71.0070  227.0690 C   0  0  0  0  0  0  0  0  0  0  0  0
  140.3190   70.4830  225.9240 C   0  0  0  0  0  0  0  0  0  0  0  0
  140.1360   71.2380  224.8290 N   0  0  0  0  0  0  0  0  0  0  0  0
  139.9400   73.3610  223.5020 H   0  0  0  0  0  0  0  0  0  0  0  0
  138.6136   73.3743  220.7928 H   0  0  0  0  0  0  0  0  0  0  0  0
  139.1789   74.8238  221.7114 H   0  0  0  0  0  0  0  0  0  0  0  0
  140.3983   76.4568  220.3926 H   0  0  0  0  0  0  0  0  0  0  0  0
  141.4355   76.5483  221.8069 H   0  0  0  0  0  0  0  0  0  0  0  0
  142.0018   77.4999  219.1108 H   0  0  0  0  0  0  0  0  0  0  0  0
  143.1031   77.5788  220.4809 H   0  0  0  0  0  0  0  0  0  0  0  0
  142.8048   75.3435  218.3713 H   0  0  0  0  0  0  0  0  0  0  0  0
  144.2912   75.9557  218.9730 H   0  0  0  0  0  0  0  0  0  0  0  0
  143.5935   74.9976  221.4359 H   0  0  0  0  0  0  0  0  0  0  0  0
  143.1975   72.6523  220.5509 H   0  0  0  0  0  0  0  0  0  0  0  0
  145.1377   74.2930  221.7488 H   0  0  0  0  0  0  0  0  0  0  0  0
  145.0632   72.4907  221.6838 H   0  0  0  0  0  0  0  0  0  0  0  0
  146.3533   74.3096  219.5931 H   0  0  0  0  0  0  0  0  0  0  0  0
  147.2180   73.3219  220.8360 H   0  0  0  0  0  0  0  0  0  0  0  0
  145.5136   72.2951  217.4968 H   0  0  0  0  0  0  0  0  0  0  0  0
  144.6255   71.3648  218.7878 H   0  0  0  0  0  0  0  0  0  0  0  0
  144.8015   74.3848  218.5369 H   0  0  0  0  0  0  0  0  0  0  0  0
  143.3790   73.3508  218.1577 H   0  0  0  0  0  0  0  0  0  0  0  0
  138.7673   68.9955  222.8098 H   0  0  0  0  0  0  0  0  0  0  0  0
  139.0703   67.5429  224.7820 H   0  0  0  0  0  0  0  0  0  0  0  0
  139.8203   67.2954  227.0444 H   0  0  0  0  0  0  0  0  0  0  0  0
  141.5336   70.6848  229.1145 H   0  0  0  0  0  0  0  0  0  0  0  0
  141.1862   72.0643  227.0770 H   0  0  0  0  0  0  0  0  0  0  0  0
  1  2  2  0
  2  3  1  0
  3  4  1  0
  4  5  1  0
  5  6  2  0
  5  7  1  0
  7  8  1  0
  8  9  1  0
  9 10  1  0
 10 11  1  0
 11 12  1  0
 12 13  1  0
 13 14  1  0
 14 15  1  0
 15 16  1  0
 16 17  1  0
  2 18  1  0
 18 19  2  0
 19 20  1  0
 20 21  2  0
 21 22  1  0
 22 23  2  0
 23 24  1  0
 23 25  1  0
 25 26  2  0
 26 27  1  0
 27 28  2  0
 11  7  1  0
 17 12  1  0
 28 18  1  0
 27 21  1  0
  3 29  1  0
  4 30  1  0
  4 31  1  0
  8 32  1  0
  8 33  1  0
  9 34  1  0
  9 35  1  0
 10 36  1  0
 10 37  1  0
 11 38  1  1
 12 39  1  0
 13 40  1  0
 13 41  1  0
 14 42  1  0
 14 43  1  0
 16 44  1  0
 16 45  1  0
 17 46  1  0
 17 47  1  0
 19 48  1  0
 20 49  1  0
 22 50  1  0
 25 51  1  0
 26 52  1  0
M  END
>  <meeko>  (17) 
{"free_energy": -8.23, "intermolecular_energy": -9.72, "internal_energy": -1.49, "cluster_size": 14, "cluster_id": 1, "rank_in_cluster": 13}

$$$$

     RDKit          3D

 52 55  0  0  0  0  0  0  0  0999 V2000
  141.0060   71.8750  221.2430 O   0  0  0  0  0  0  0  0  0  0  0  0
  140.4560   72.3800  222.2600 C   0  0  0  0  0  0  0  0  0  0  0  0
  140.0200   73.7420  222.3020 N   0  0  0  0  0  0  0  0  0  0  0  0
  140.2230   74.5880  221.1100 C   0  0  0  0  0  0  0  0  0  0  0  0
  139.2560   75.6790  221.0790 C   0  0  0  0  0  0  0  0  0  0  0  0
  138.6020   75.7930  219.9580 O   0  0  0  0  0  0  0  0  0  0  0  0
  138.9230   76.6170  222.0470 N   0  0  0  0  0  0  0  0  0  0  0  0
  137.5350   76.5960  222.6380 C   0  0  0  0  0  0  0  0  0  0  0  0
  137.2190   78.0640  222.8790 C   0  0  0  0  0  0  0  0  0  0  0  0
  138.4610   78.8080  222.3650 C   0  0  0  0  0  0  0  0  0  0  0  0
  139.5070   77.7290  222.7180 C   0  0  2  0  0  0  0  0  0  0  0  0
  140.8800   78.1470  222.4180 C   0  0  0  0  0  0  0  0  0  0  0  0
  141.7070   78.2930  223.6460 C   0  0  0  0  0  0  0  0  0  0  0  0
  142.1250   79.7470  223.8440 C   0  0  0  0  0  0  0  0  0  0  0  0
  142.8700   80.1990  222.7710 O   0  0  0  0  0  0  0  0  0  0  0  0
  142.1850   80.1010  221.5820 C   0  0  0  0  0  0  0  0  0  0  0  0
  140.7980   79.5300  221.7490 C   0  0  0  0  0  0  0  0  0  0  0  0
  140.2500   71.5520  223.4450 C   0  0  0  0  0  0  0  0  0  0  0  0
  139.5630   70.3570  223.3550 C   0  0  0  0  0  0  0  0  0  0  0  0
  139.3340   69.5290  224.4290 C   0  0  0  0  0  0  0  0  0  0  0  0
  139.8250   69.9320  225.6590 C   0  0  0  0  0  0  0  0  0  0  0  0
  139.6120   69.1240  226.7620 C   0  0  0  0  0  0  0  0  0  0  0  0
  140.1030   69.5240  228.0030 C   0  0  0  0  0  0  0  0  0  0  0  0
  139.8980   68.7300  229.0990 F   0  0  0  0  0  0  0  0  0  0  0  0
  140.7980   70.7230  228.1200 C   0  0  0  0  0  0  0  0  0  0  0  0
  140.9890   71.5070  226.9820 C   0  0  0  0  0  0  0  0  0  0  0  0
  140.5110   71.1300  225.7440 C   0  0  0  0  0  0  0  0  0  0  0  0
  140.7050   71.8980  224.6600 N   0  0  0  0  0  0  0  0  0  0  0  0
  139.5760   74.0920  223.1680 H   0  0  0  0  0  0  0  0  0  0  0  0
  141.2395   75.0076  221.1344 H   0  0  0  0  0  0  0  0  0  0  0  0
  140.0858   73.9694  220.2109 H   0  0  0  0  0  0  0  0  0  0  0  0
  136.8163   76.1512  221.9339 H   0  0  0  0  0  0  0  0  0  0  0  0
  137.4732   75.9922  223.5554 H   0  0  0  0  0  0  0  0  0  0  0  0
  136.3229   78.3671  222.3176 H   0  0  0  0  0  0  0  0  0  0  0  0
  137.0066   78.2805  223.9364 H   0  0  0  0  0  0  0  0  0  0  0  0
  138.4125   79.0057  221.2840 H   0  0  0  0  0  0  0  0  0  0  0  0
  138.6356   79.8100  222.7839 H   0  0  0  0  0  0  0  0  0  0  0  0
  139.6842   77.4911  223.7772 H   0  0  0  0  0  0  0  0  0  0  0  0
  141.3458   77.3825  221.7789 H   0  0  0  0  0  0  0  0  0  0  0  0
  141.1216   77.9636  224.5171 H   0  0  0  0  0  0  0  0  0  0  0  0
  142.6114   77.6761  223.5391 H   0  0  0  0  0  0  0  0  0  0  0  0
  141.2239   80.3699  223.9440 H   0  0  0  0  0  0  0  0  0  0  0  0
  142.7424   79.8135  224.7520 H   0  0  0  0  0  0  0  0  0  0  0  0
  142.1004   81.1055  221.1418 H   0  0  0  0  0  0  0  0  0  0  0  0
  142.7483   79.4154  220.9319 H   0  0  0  0  0  0  0  0  0  0  0  0
  140.1987   80.2048  222.3779 H   0  0  0  0  0  0  0  0  0  0  0  0
  140.3263   79.4276  220.7605 H   0  0  0  0  0  0  0  0  0  0  0  0
  139.1782   70.0510  222.3710 H   0  0  0  0  0  0  0  0  0  0  0  0
  138.7826   68.5840  224.3152 H   0  0  0  0  0  0  0  0  0  0  0  0
  139.0615   68.1771  226.6602 H   0  0  0  0  0  0  0  0  0  0  0  0
  141.1910   71.0480  229.0946 H   0  0  0  0  0  0  0  0  0  0  0  0
  141.5380   72.4557  227.0747 H   0  0  0  0  0  0  0  0  0  0  0  0
  1  2  2  0
  2  3  1  0
  3  4  1  0
  4  5  1  0
  5  6  2  0
  5  7  1  0
  7  8  1  0
  8  9  1  0
  9 10  1  0
 10 11  1  0
 11 12  1  0
 12 13  1  0
 13 14  1  0
 14 15  1  0
 15 16  1  0
 16 17  1  0
  2 18  1  0
 18 19  2  0
 19 20  1  0
 20 21  2  0
 21 22  1  0
 22 23  2  0
 23 24  1  0
 23 25  1  0
 25 26  2  0
 26 27  1  0
 27 28  2  0
 11  7  1  0
 17 12  1  0
 28 18  1  0
 27 21  1  0
  3 29  1  0
  4 30  1  0
  4 31  1  0
  8 32  1  0
  8 33  1  0
  9 34  1  0
  9 35  1  0
 10 36  1  0
 10 37  1  0
 11 38  1  1
 12 39  1  0
 13 40  1  0
 13 41  1  0
 14 42  1  0
 14 43  1  0
 16 44  1  0
 16 45  1  0
 17 46  1  0
 17 47  1  0
 19 48  1  0
 20 49  1  0
 22 50  1  0
 25 51  1  0
 26 52  1  0
M  END
>  <meeko>  (18) 
{"free_energy": -7.9, "intermolecular_energy": -9.4, "internal_energy": -1.23, "cluster_size": 5, "cluster_id": 2, "rank_in_cluster": 5}

$$$$

     RDKit          3D

 52 55  0  0  0  0  0  0  0  0999 V2000
  140.4220   71.6990  221.1090 O   0  0  0  0  0  0  0  0  0  0  0  0
  140.1140   72.2240  222.2150 C   0  0  0  0  0  0  0  0  0  0  0  0
  139.8070   73.6150  222.3460 N   0  0  0  0  0  0  0  0  0  0  0  0
  139.8540   74.4690  221.1440 C   0  0  0  0  0  0  0  0  0  0  0  0
  139.9170   75.8780  221.5100 C   0  0  0  0  0  0  0  0  0  0  0  0
  139.6600   76.1260  222.7630 O   0  0  0  0  0  0  0  0  0  0  0  0
  140.2020   76.9980  220.7410 N   0  0  0  0  0  0  0  0  0  0  0  0
  140.1320   76.8880  219.2380 C   0  0  0  0  0  0  0  0  0  0  0  0
  141.2460   77.8050  218.7540 C   0  0  0  0  0  0  0  0  0  0  0  0
  141.8850   78.3400  220.0440 C   0  0  0  0  0  0  0  0  0  0  0  0
  140.6100   78.3520  220.9150 C   0  0  2  0  0  0  0  0  0  0  0  0
  140.8400   78.8970  222.2560 C   0  0  0  0  0  0  0  0  0  0  0  0
  139.9830   80.0810  222.5390 C   0  0  0  0  0  0  0  0  0  0  0  0
  140.8380   81.3320  222.7200 C   0  0  0  0  0  0  0  0  0  0  0  0
  141.7200   81.1810  223.7730 O   0  0  0  0  0  0  0  0  0  0  0  0
  142.5580   80.1040  223.6020 C   0  0  0  0  0  0  0  0  0  0  0  0
  142.3040   79.3630  222.3110 C   0  0  0  0  0  0  0  0  0  0  0  0
  140.0650   71.3890  223.4120 C   0  0  0  0  0  0  0  0  0  0  0  0
  139.5730   70.1010  223.3480 C   0  0  0  0  0  0  0  0  0  0  0  0
  139.4990   69.2610  224.4350 C   0  0  0  0  0  0  0  0  0  0  0  0
  139.9440   69.7520  225.6500 C   0  0  0  0  0  0  0  0  0  0  0  0
  139.8830   68.9340  226.7650 C   0  0  0  0  0  0  0  0  0  0  0  0
  140.3290   69.4230  227.9910 C   0  0  0  0  0  0  0  0  0  0  0  0
  140.2730   68.6200  229.0990 F   0  0  0  0  0  0  0  0  0  0  0  0
  140.8290   70.7180  228.0810 C   0  0  0  0  0  0  0  0  0  0  0  0
  140.8710   71.5070  226.9330 C   0  0  0  0  0  0  0  0  0  0  0  0
  140.4340   71.0440  225.7080 C   0  0  0  0  0  0  0  0  0  0  0  0
  140.4830   71.8180  224.6130 N   0  0  0  0  0  0  0  0  0  0  0  0
  139.5620   73.9810  223.2830 H   0  0  0  0  0  0  0  0  0  0  0  0
  140.7448   74.2102  220.5528 H   0  0  0  0  0  0  0  0  0  0  0  0
  138.9401   74.2990  220.5558 H   0  0  0  0  0  0  0  0  0  0  0  0
  140.3080   75.8521  218.9124 H   0  0  0  0  0  0  0  0  0  0  0  0
  139.1467   77.1675  218.8367 H   0  0  0  0  0  0  0  0  0  0  0  0
  141.9814   77.2440  218.1586 H   0  0  0  0  0  0  0  0  0  0  0  0
  140.8743   78.6107  218.1038 H   0  0  0  0  0  0  0  0  0  0  0  0
  142.6560   77.6631  220.4406 H   0  0  0  0  0  0  0  0  0  0  0  0
  142.4250   79.2946  219.9594 H   0  0  0  0  0  0  0  0  0  0  0  0
  139.7939   79.0391  220.6469 H   0  0  0  0  0  0  0  0  0  0  0  0
  140.6042   78.1174  222.9954 H   0  0  0  0  0  0  0  0  0  0  0  0
  139.2903   80.2351  221.6985 H   0  0  0  0  0  0  0  0  0  0  0  0
  139.4210   79.8983  223.4668 H   0  0  0  0  0  0  0  0  0  0  0  0
  141.4077   81.5150  221.7970 H   0  0  0  0  0  0  0  0  0  0  0  0
  140.1742   82.1816  222.9380 H   0  0  0  0  0  0  0  0  0  0  0  0
  143.5974   80.4642  223.6017 H   0  0  0  0  0  0  0  0  0  0  0  0
  142.3688   79.4031  224.4284 H   0  0  0  0  0  0  0  0  0  0  0  0
  142.5066   80.0310  221.4609 H   0  0  0  0  0  0  0  0  0  0  0  0
  142.9660   78.4860  222.2599 H   0  0  0  0  0  0  0  0  0  0  0  0
  139.2212   69.7260  222.3756 H   0  0  0  0  0  0  0  0  0  0  0  0
  139.1018   68.2394  224.3421 H   0  0  0  0  0  0  0  0  0  0  0  0
  139.4874   67.9108  226.6841 H   0  0  0  0  0  0  0  0  0  0  0  0
  141.1858   71.1132  229.0436 H   0  0  0  0  0  0  0  0  0  0  0  0
  141.2650   72.5315  227.0052 H   0  0  0  0  0  0  0  0  0  0  0  0
  1  2  2  0
  2  3  1  0
  3  4  1  0
  4  5  1  0
  5  6  2  0
  5  7  1  0
  7  8  1  0
  8  9  1  0
  9 10  1  0
 10 11  1  0
 11 12  1  0
 12 13  1  0
 13 14  1  0
 14 15  1  0
 15 16  1  0
 16 17  1  0
  2 18  1  0
 18 19  2  0
 19 20  1  0
 20 21  2  0
 21 22  1  0
 22 23  2  0
 23 24  1  0
 23 25  1  0
 25 26  2  0
 26 27  1  0
 27 28  2  0
 11  7  1  0
 17 12  1  0
 28 18  1  0
 27 21  1  0
  3 29  1  0
  4 30  1  0
  4 31  1  0
  8 32  1  0
  8 33  1  0
  9 34  1  0
  9 35  1  0
 10 36  1  0
 10 37  1  0
 11 38  1  6
 12 39  1  0
 13 40  1  0
 13 41  1  0
 14 42  1  0
 14 43  1  0
 16 44  1  0
 16 45  1  0
 17 46  1  0
 17 47  1  0
 19 48  1  0
 20 49  1  0
 22 50  1  0
 25 51  1  0
 26 52  1  0
M  END
>  <meeko>  (19) 
{"free_energy": -8.08, "intermolecular_energy": -9.57, "internal_energy": -1.81, "cluster_size": 5, "cluster_id": 2, "rank_in_cluster": 4}

$$$$

     RDKit          3D

 52 55  0  0  0  0  0  0  0  0999 V2000
  141.0530   71.3300  221.3760 O   0  0  0  0  0  0  0  0  0  0  0  0
  140.4670   71.9210  222.3250 C   0  0  0  0  0  0  0  0  0  0  0  0
  140.0340   73.2810  222.2340 N   0  0  0  0  0  0  0  0  0  0  0  0
  140.2820   74.0220  220.9820 C   0  0  0  0  0  0  0  0  0  0  0  0
  141.0750   75.2180  221.2370 C   0  0  0  0  0  0  0  0  0  0  0  0
  140.7830   75.8380  222.3450 O   0  0  0  0  0  0  0  0  0  0  0  0
  142.0870   75.8060  220.4890 N   0  0  0  0  0  0  0  0  0  0  0  0
  142.0130   77.2840  220.1950 C   0  0  0  0  0  0  0  0  0  0  0  0
  142.6070   77.4080  218.8000 C   0  0  0  0  0  0  0  0  0  0  0  0
  142.9410   75.9630  218.4010 C   0  0  0  0  0  0  0  0  0  0  0  0
  143.2820   75.4340  219.8110 C   0  0  2  0  0  0  0  0  0  0  0  0
  143.7350   74.0390  219.8030 C   0  0  0  0  0  0  0  0  0  0  0  0
  144.7950   73.7850  220.8150 C   0  0  0  0  0  0  0  0  0  0  0  0
  146.1090   73.4100  220.1340 C   0  0  0  0  0  0  0  0  0  0  0  0
  145.9630   72.2670  219.3700 O   0  0  0  0  0  0  0  0  0  0  0  0
  144.9970   72.4070  218.4020 C   0  0  0  0  0  0  0  0  0  0  0  0
  144.3440   73.7680  218.4170 C   0  0  0  0  0  0  0  0  0  0  0  0
  140.2160   71.1970  223.5690 C   0  0  0  0  0  0  0  0  0  0  0  0
  139.5620   69.9810  223.5520 C   0  0  0  0  0  0  0  0  0  0  0  0
  139.2930   69.2470  224.6840 C   0  0  0  0  0  0  0  0  0  0  0  0
  139.7080   69.7720  225.8960 C   0  0  0  0  0  0  0  0  0  0  0  0
  139.4530   69.0610  227.0560 C   0  0  0  0  0  0  0  0  0  0  0  0
  139.8670   69.5850  228.2780 C   0  0  0  0  0  0  0  0  0  0  0  0
  139.6200   68.8870  229.4310 F   0  0  0  0  0  0  0  0  0  0  0  0
  140.5280   70.8080  228.3210 C   0  0  0  0  0  0  0  0  0  0  0  0
  140.7630   71.4910  227.1290 C   0  0  0  0  0  0  0  0  0  0  0  0
  140.3610   70.9920  225.9070 C   0  0  0  0  0  0  0  0  0  0  0  0
  140.5960   71.6640  224.7690 N   0  0  0  0  0  0  0  0  0  0  0  0
  139.5590   73.7040  223.0500 H   0  0  0  0  0  0  0  0  0  0  0  0
  140.8249   73.3722  220.2798 H   0  0  0  0  0  0  0  0  0  0  0  0
  139.3150   74.3247  220.5539 H   0  0  0  0  0  0  0  0  0  0  0  0
  140.9704   77.6344  220.2093 H   0  0  0  0  0  0  0  0  0  0  0  0
  142.5468   77.8926  220.9398 H   0  0  0  0  0  0  0  0  0  0  0  0
  141.8773   77.8461  218.1031 H   0  0  0  0  0  0  0  0  0  0  0  0
  143.4884   78.0657  218.7750 H   0  0  0  0  0  0  0  0  0  0  0  0
  142.0801   75.4425  217.9560 H   0  0  0  0  0  0  0  0  0  0  0  0
  143.7191   75.8381  217.6336 H   0  0  0  0  0  0  0  0  0  0  0  0
  144.1628   75.8409  220.3294 H   0  0  0  0  0  0  0  0  0  0  0  0
  142.8768   73.3908  220.0340 H   0  0  0  0  0  0  0  0  0  0  0  0
  144.9459   74.6936  221.4164 H   0  0  0  0  0  0  0  0  0  0  0  0
  144.4784   72.9510  221.4586 H   0  0  0  0  0  0  0  0  0  0  0  0
  146.4266   74.2388  219.4842 H   0  0  0  0  0  0  0  0  0  0  0  0
  146.8638   73.2180  220.9108 H   0  0  0  0  0  0  0  0  0  0  0  0
  145.4617   72.2514  217.4172 H   0  0  0  0  0  0  0  0  0  0  0  0
  144.2136   71.6625  218.6069 H   0  0  0  0  0  0  0  0  0  0  0  0
  145.0978   74.5371  218.1927 H   0  0  0  0  0  0  0  0  0  0  0  0
  143.5477   73.7969  217.6587 H   0  0  0  0  0  0  0  0  0  0  0  0
  139.2387   69.5775  222.5811 H   0  0  0  0  0  0  0  0  0  0  0  0
  138.7690   68.2814  224.6284 H   0  0  0  0  0  0  0  0  0  0  0  0
  138.9299   68.0943  227.0131 H   0  0  0  0  0  0  0  0  0  0  0  0
  140.8602   71.2297  229.2811 H   0  0  0  0  0  0  0  0  0  0  0  0
  141.2855   72.4584  227.1635 H   0  0  0  0  0  0  0  0  0  0  0  0
  1  2  2  0
  2  3  1  0
  3  4  1  0
  4  5  1  0
  5  6  2  0
  5  7  1  0
  7  8  1  0
  8  9  1  0
  9 10  1  0
 10 11  1  0
 11 12  1  0
 12 13  1  0
 13 14  1  0
 14 15  1  0
 15 16  1  0
 16 17  1  0
  2 18  1  0
 18 19  2  0
 19 20  1  0
 20 21  2  0
 21 22  1  0
 22 23  2  0
 23 24  1  0
 23 25  1  0
 25 26  2  0
 26 27  1  0
 27 28  2  0
 11  7  1  0
 17 12  1  0
 28 18  1  0
 27 21  1  0
  3 29  1  0
  4 30  1  0
  4 31  1  0
  8 32  1  0
  8 33  1  0
  9 34  1  0
  9 35  1  0
 10 36  1  0
 10 37  1  0
 11 38  1  1
 12 39  1  0
 13 40  1  0
 13 41  1  0
 14 42  1  0
 14 43  1  0
 16 44  1  0
 16 45  1  0
 17 46  1  0
 17 47  1  0
 19 48  1  0
 20 49  1  0
 22 50  1  0
 25 51  1  0
 26 52  1  0
M  END
>  <meeko>  (20) 
{"free_energy": -8.72, "intermolecular_energy": -10.21, "internal_energy": -1.55, "cluster_size": 14, "cluster_id": 1, "rank_in_cluster": 7}

$$$$
