
     RDKit          3D

 43 45  0  0  0  0  0  0  0  0999 V2000
  138.8300   67.9750  225.3460 O   0  0  0  0  0  0  0  0  0  0  0  0
  138.7580   69.2460  225.3550 C   0  0  0  0  0  0  0  0  0  0  0  0
  137.7570   69.8040  224.5030 N   0  0  0  0  0  0  0  0  0  0  0  0
  136.8880   68.9870  223.6900 C   0  0  0  0  0  0  0  0  0  0  0  0
  135.4650   69.1760  224.0110 C   0  0  0  0  0  0  0  0  0  0  0  0
  134.6590   68.2460  224.2700 O   0  0  0  0  0  0  0  0  0  0  0  0
  134.9570   70.5030  224.0300 N   0  0  0  0  0  0  0  0  0  0  0  0
  134.0210   71.0770  223.0670 C   0  0  0  0  0  0  0  0  0  0  0  0
  134.3230   72.5720  223.0590 C   0  0  0  0  0  0  0  0  0  0  0  0
  135.5060   72.7020  223.9940 C   0  0  2  0  0  0  0  0  0  0  0  0
  136.6330   72.3410  223.2640 O   0  0  0  0  0  0  0  0  0  0  0  0
  135.2230   71.5790  224.9700 C   0  0  1  0  0  0  0  0  0  0  0  0
  133.9920   71.8000  225.7580 C   0  0  0  0  0  0  0  0  0  0  0  0
  133.1600   70.7220  226.0370 C   0  0  0  0  0  0  0  0  0  0  0  0
  131.9910   70.8910  226.7800 C   0  0  0  0  0  0  0  0  0  0  0  0
  131.6270   72.1370  227.2590 C   0  0  0  0  0  0  0  0  0  0  0  0
  132.4480   73.1930  226.9810 C   0  0  0  0  0  0  0  0  0  0  0  0
  131.9690   74.7720  227.5980 Cl  0  0  0  0  0  0  0  0  0  0  0  0
  133.6070   73.0190  226.2450 C   0  0  0  0  0  0  0  0  0  0  0  0
  139.6280   70.0700  226.1690 C   0  0  0  0  0  0  0  0  0  0  0  0
  140.3520   71.1390  225.6880 C   0  0  0  0  0  0  0  0  0  0  0  0
  141.1660   71.8910  226.5090 C   0  0  0  0  0  0  0  0  0  0  0  0
  141.2570   71.5750  227.8070 N   0  0  0  0  0  0  0  0  0  0  0  0
  140.5620   70.5370  228.3050 C   0  0  0  0  0  0  0  0  0  0  0  0
  139.7330   69.7580  227.5120 C   0  0  0  0  0  0  0  0  0  0  0  0
  137.6230   70.8370  224.4440 H   0  0  0  0  0  0  0  0  0  0  0  0
  137.0477   69.2474  222.6333 H   0  0  0  0  0  0  0  0  0  0  0  0
  137.1368   67.9348  223.8925 H   0  0  0  0  0  0  0  0  0  0  0  0
  134.1821   70.6455  222.0681 H   0  0  0  0  0  0  0  0  0  0  0  0
  132.9748   70.8701  223.3367 H   0  0  0  0  0  0  0  0  0  0  0  0
  134.5832   72.9145  222.0466 H   0  0  0  0  0  0  0  0  0  0  0  0
  133.4631   73.1831  223.3707 H   0  0  0  0  0  0  0  0  0  0  0  0
  135.6501   73.6933  224.4485 H   0  0  0  0  0  0  0  0  0  0  0  0
  137.4160   72.9110  223.4810 H   0  0  0  0  0  0  0  0  0  0  0  0
  136.0275   71.4328  225.7058 H   0  0  0  0  0  0  0  0  0  0  0  0
  133.4270   69.7212  225.6667 H   0  0  0  0  0  0  0  0  0  0  0  0
  131.3500   70.0216  226.9878 H   0  0  0  0  0  0  0  0  0  0  0  0
  130.7060   72.2730  227.8449 H   0  0  0  0  0  0  0  0  0  0  0  0
  134.2426   73.8940  226.0440 H   0  0  0  0  0  0  0  0  0  0  0  0
  140.2789   71.3994  224.6218 H   0  0  0  0  0  0  0  0  0  0  0  0
  141.7340   72.7406  226.1022 H   0  0  0  0  0  0  0  0  0  0  0  0
  140.6540   70.2984  229.3749 H   0  0  0  0  0  0  0  0  0  0  0  0
  139.1733   68.9135  227.9403 H   0  0  0  0  0  0  0  0  0  0  0  0
  1  2  2  0
  2  3  1  0
  3  4  1  0
  4  5  1  0
  5  6  2  0
  5  7  1  0
  7  8  1  0
  8  9  1  0
  9 10  1  0
 10 11  1  0
 10 12  1  0
 12 13  1  0
 13 14  2  0
 14 15  1  0
 15 16  2  0
 16 17  1  0
 17 18  1  0
 17 19  2  0
  2 20  1  0
 20 21  2  0
 21 22  1  0
 22 23  2  0
 23 24  1  0
 24 25  2  0
 12  7  1  0
 19 13  1  0
 25 20  1  0
  3 26  1  0
  4 27  1  0
  4 28  1  0
  8 29  1  0
  8 30  1  0
  9 31  1  0
  9 32  1  0
 10 33  1  1
 11 34  1  0
 12 35  1  1
 14 36  1  0
 15 37  1  0
 16 38  1  0
 19 39  1  0
 21 40  1  0
 22 41  1  0
 24 42  1  0
 25 43  1  0
M  END
>  <meeko>  (1) 
{"free_energy": -6.68, "intermolecular_energy": -8.47, "internal_energy": -1.94, "cluster_size": 1, "cluster_id": 2, "rank_in_cluster": 1}

$$$$

     RDKit          3D

 43 45  0  0  0  0  0  0  0  0999 V2000
  140.3620   77.4650  220.0140 O   0  0  0  0  0  0  0  0  0  0  0  0
  141.5040   77.8870  220.3860 C   0  0  0  0  0  0  0  0  0  0  0  0
  142.5910   77.5360  219.5270 N   0  0  0  0  0  0  0  0  0  0  0  0
  142.4080   76.7600  218.3240 C   0  0  0  0  0  0  0  0  0  0  0  0
  143.5020   75.8050  218.0910 C   0  0  0  0  0  0  0  0  0  0  0  0
  144.2000   75.7560  217.0460 O   0  0  0  0  0  0  0  0  0  0  0  0
  143.7970   74.8660  219.1170 N   0  0  0  0  0  0  0  0  0  0  0  0
  144.4820   75.1570  220.3730 C   0  0  0  0  0  0  0  0  0  0  0  0
  145.1650   73.8510  220.7660 C   0  0  0  0  0  0  0  0  0  0  0  0
  144.8620   72.9260  219.6070 C   0  0  2  0  0  0  0  0  0  0  0  0
  145.7640   73.2430  218.5980 O   0  0  0  0  0  0  0  0  0  0  0  0
  143.5050   73.4450  219.1770 C   0  0  1  0  0  0  0  0  0  0  0  0
  142.4620   73.2440  220.2050 C   0  0  0  0  0  0  0  0  0  0  0  0
  142.3860   72.0250  220.8690 C   0  0  0  0  0  0  0  0  0  0  0  0
  141.4160   71.7980  221.8460 C   0  0  0  0  0  0  0  0  0  0  0  0
  140.5020   72.7800  222.1810 C   0  0  0  0  0  0  0  0  0  0  0  0
  140.5800   73.9760  221.5260 C   0  0  0  0  0  0  0  0  0  0  0  0
  139.4090   75.2170  221.9650 Cl  0  0  0  0  0  0  0  0  0  0  0  0
  141.5450   74.1960  220.5580 C   0  0  0  0  0  0  0  0  0  0  0  0
  141.6930   78.6670  221.5920 C   0  0  0  0  0  0  0  0  0  0  0  0
  141.4280   78.2010  222.8620 C   0  0  0  0  0  0  0  0  0  0  0  0
  141.6250   78.9870  223.9780 C   0  0  0  0  0  0  0  0  0  0  0  0
  142.0860   80.2360  223.8250 N   0  0  0  0  0  0  0  0  0  0  0  0
  142.3530   80.7170  222.5980 C   0  0  0  0  0  0  0  0  0  0  0  0
  142.1680   79.9580  221.4530 C   0  0  0  0  0  0  0  0  0  0  0  0
  143.5640   77.8380  219.7500 H   0  0  0  0  0  0  0  0  0  0  0  0
  141.4645   76.2006  218.4065 H   0  0  0  0  0  0  0  0  0  0  0  0
  142.3934   77.4608  217.4763 H   0  0  0  0  0  0  0  0  0  0  0  0
  145.2263   75.9544  220.2310 H   0  0  0  0  0  0  0  0  0  0  0  0
  143.7865   75.5079  221.1496 H   0  0  0  0  0  0  0  0  0  0  0  0
  146.2496   73.9943  220.8805 H   0  0  0  0  0  0  0  0  0  0  0  0
  144.8105   73.4574  221.7301 H   0  0  0  0  0  0  0  0  0  0  0  0
  144.9044   71.8495  219.8292 H   0  0  0  0  0  0  0  0  0  0  0  0
  145.5570   74.1170  218.1730 H   0  0  0  0  0  0  0  0  0  0  0  0
  143.1251   72.9592  218.2661 H   0  0  0  0  0  0  0  0  0  0  0  0
  143.1014   71.2273  220.6204 H   0  0  0  0  0  0  0  0  0  0  0  0
  141.3779   70.8245  222.3567 H   0  0  0  0  0  0  0  0  0  0  0  0
  139.7362   72.6036  222.9507 H   0  0  0  0  0  0  0  0  0  0  0  0
  141.5756   75.1731  220.0537 H   0  0  0  0  0  0  0  0  0  0  0  0
  141.0497   77.1759  222.9886 H   0  0  0  0  0  0  0  0  0  0  0  0
  141.4064   78.5934  224.9816 H   0  0  0  0  0  0  0  0  0  0  0  0
  142.7303   81.7456  222.4998 H   0  0  0  0  0  0  0  0  0  0  0  0
  142.3933   80.3722  220.4592 H   0  0  0  0  0  0  0  0  0  0  0  0
  1  2  2  0
  2  3  1  0
  3  4  1  0
  4  5  1  0
  5  6  2  0
  5  7  1  0
  7  8  1  0
  8  9  1  0
  9 10  1  0
 10 11  1  0
 10 12  1  0
 12 13  1  0
 13 14  2  0
 14 15  1  0
 15 16  2  0
 16 17  1  0
 17 18  1  0
 17 19  2  0
  2 20  1  0
 20 21  2  0
 21 22  1  0
 22 23  2  0
 23 24  1  0
 24 25  2  0
 12  7  1  0
 19 13  1  0
 25 20  1  0
  3 26  1  0
  4 27  1  0
  4 28  1  0
  8 29  1  0
  8 30  1  0
  9 31  1  0
  9 32  1  0
 10 33  1  1
 11 34  1  0
 12 35  1  6
 14 36  1  0
 15 37  1  0
 16 38  1  0
 19 39  1  0
 21 40  1  0
 22 41  1  0
 24 42  1  0
 25 43  1  0
M  END
>  <meeko>  (2) 
{"free_energy": -6.51, "intermolecular_energy": -8.3, "internal_energy": -2.16, "cluster_size": 6, "cluster_id": 4, "rank_in_cluster": 6}

$$$$

     RDKit          3D

 43 45  0  0  0  0  0  0  0  0999 V2000
  141.7960   74.6290  220.5800 O   0  0  0  0  0  0  0  0  0  0  0  0
  142.8830   75.1740  220.2010 C   0  0  0  0  0  0  0  0  0  0  0  0
  142.8390   76.5980  220.0820 N   0  0  0  0  0  0  0  0  0  0  0  0
  141.6490   77.3630  220.3700 C   0  0  0  0  0  0  0  0  0  0  0  0
  141.8480   78.8100  220.1970 C   0  0  0  0  0  0  0  0  0  0  0  0
  142.2960   79.3500  219.1530 O   0  0  0  0  0  0  0  0  0  0  0  0
  141.5120   79.6640  221.2810 N   0  0  0  0  0  0  0  0  0  0  0  0
  141.3030   81.1080  221.2020 C   0  0  0  0  0  0  0  0  0  0  0  0
  141.6690   81.6400  222.5840 C   0  0  0  0  0  0  0  0  0  0  0  0
  142.1520   80.4120  223.3230 C   0  0  2  0  0  0  0  0  0  0  0  0
  143.4640   80.1930  222.9200 O   0  0  0  0  0  0  0  0  0  0  0  0
  141.2980   79.3380  222.6800 C   0  0  1  0  0  0  0  0  0  0  0  0
  139.8560   79.5040  222.9640 C   0  0  0  0  0  0  0  0  0  0  0  0
  138.9300   78.7780  222.2250 C   0  0  0  0  0  0  0  0  0  0  0  0
  137.5610   78.9070  222.4650 C   0  0  0  0  0  0  0  0  0  0  0  0
  137.0880   79.7610  223.4450 C   0  0  0  0  0  0  0  0  0  0  0  0
  138.0030   80.4720  224.1680 C   0  0  0  0  0  0  0  0  0  0  0  0
  137.3850   81.5560  225.4120 Cl  0  0  0  0  0  0  0  0  0  0  0  0
  139.3600   80.3400  223.9270 C   0  0  0  0  0  0  0  0  0  0  0  0
  144.0790   74.4110  219.9120 C   0  0  0  0  0  0  0  0  0  0  0  0
  145.0760   74.1600  220.8300 C   0  0  0  0  0  0  0  0  0  0  0  0
  146.1960   73.4260  220.5000 C   0  0  0  0  0  0  0  0  0  0  0  0
  146.3190   72.9440  219.2570 N   0  0  0  0  0  0  0  0  0  0  0  0
  145.3620   73.1720  218.3400 C   0  0  0  0  0  0  0  0  0  0  0  0
  144.2220   73.9050  218.6330 C   0  0  0  0  0  0  0  0  0  0  0  0
  143.6810   77.1320  219.7790 H   0  0  0  0  0  0  0  0  0  0  0  0
  140.8471   77.0347  219.6923 H   0  0  0  0  0  0  0  0  0  0  0  0
  141.3885   77.1874  221.4242 H   0  0  0  0  0  0  0  0  0  0  0  0
  141.9535   81.5506  220.4333 H   0  0  0  0  0  0  0  0  0  0  0  0
  140.2687   81.3597  220.9247 H   0  0  0  0  0  0  0  0  0  0  0  0
  142.4656   82.3954  222.5154 H   0  0  0  0  0  0  0  0  0  0  0  0
  140.8264   82.1370  223.0870 H   0  0  0  0  0  0  0  0  0  0  0  0
  142.0963   80.4616  224.4205 H   0  0  0  0  0  0  0  0  0  0  0  0
  143.5120   79.7800  222.0170 H   0  0  0  0  0  0  0  0  0  0  0  0
  141.5544   78.3227  223.0169 H   0  0  0  0  0  0  0  0  0  0  0  0
  139.2807   78.0920  221.4399 H   0  0  0  0  0  0  0  0  0  0  0  0
  136.8481   78.3211  221.8662 H   0  0  0  0  0  0  0  0  0  0  0  0
  136.0096   79.8642  223.6359 H   0  0  0  0  0  0  0  0  0  0  0  0
  140.0653   80.9288  224.5319 H   0  0  0  0  0  0  0  0  0  0  0  0
  144.9759   74.5551  221.8517 H   0  0  0  0  0  0  0  0  0  0  0  0
  146.9792   73.2388  221.2494 H   0  0  0  0  0  0  0  0  0  0  0  0
  145.4875   72.7643  217.3261 H   0  0  0  0  0  0  0  0  0  0  0  0
  143.4513   74.0795  217.8678 H   0  0  0  0  0  0  0  0  0  0  0  0
  1  2  2  0
  2  3  1  0
  3  4  1  0
  4  5  1  0
  5  6  2  0
  5  7  1  0
  7  8  1  0
  8  9  1  0
  9 10  1  0
 10 11  1  0
 10 12  1  0
 12 13  1  0
 13 14  2  0
 14 15  1  0
 15 16  2  0
 16 17  1  0
 17 18  1  0
 17 19  2  0
  2 20  1  0
 20 21  2  0
 21 22  1  0
 22 23  2  0
 23 24  1  0
 24 25  2  0
 12  7  1  0
 19 13  1  0
 25 20  1  0
  3 26  1  0
  4 27  1  0
  4 28  1  0
  8 29  1  0
  8 30  1  0
  9 31  1  0
  9 32  1  0
 10 33  1  1
 11 34  1  0
 12 35  1  6
 14 36  1  0
 15 37  1  0
 16 38  1  0
 19 39  1  0
 21 40  1  0
 22 41  1  0
 24 42  1  0
 25 43  1  0
M  END
>  <meeko>  (3) 
{"free_energy": -7.44, "intermolecular_energy": -9.23, "internal_energy": -1.2, "cluster_size": 4, "cluster_id": 1, "rank_in_cluster": 2}

$$$$

     RDKit          3D

 43 45  0  0  0  0  0  0  0  0999 V2000
  135.2810   71.6240  222.9970 O   0  0  0  0  0  0  0  0  0  0  0  0
  135.4990   72.7140  223.6180 C   0  0  0  0  0  0  0  0  0  0  0  0
  136.5750   73.5010  223.1040 N   0  0  0  0  0  0  0  0  0  0  0  0
  137.3580   73.0920  221.9630 C   0  0  0  0  0  0  0  0  0  0  0  0
  138.7040   72.6300  222.3340 C   0  0  0  0  0  0  0  0  0  0  0  0
  139.7320   73.3550  222.3450 O   0  0  0  0  0  0  0  0  0  0  0  0
  138.8630   71.2680  222.7070 N   0  0  0  0  0  0  0  0  0  0  0  0
  139.8970   70.3610  222.2190 C   0  0  0  0  0  0  0  0  0  0  0  0
  139.2790   68.9680  222.3050 C   0  0  0  0  0  0  0  0  0  0  0  0
  137.8650   69.2340  222.7740 C   0  0  2  0  0  0  0  0  0  0  0  0
  137.1410   69.6250  221.6540 O   0  0  0  0  0  0  0  0  0  0  0  0
  138.0760   70.4670  223.6280 C   0  0  1  0  0  0  0  0  0  0  0  0
  138.9090   70.2050  224.8200 C   0  0  0  0  0  0  0  0  0  0  0  0
  138.9260   68.9280  225.3710 C   0  0  0  0  0  0  0  0  0  0  0  0
  139.7020   68.6420  226.4950 C   0  0  0  0  0  0  0  0  0  0  0  0
  140.4750   69.6200  227.0940 C   0  0  0  0  0  0  0  0  0  0  0  0
  140.4540   70.8730  226.5490 C   0  0  0  0  0  0  0  0  0  0  0  0
  141.4440   72.1070  227.3240 Cl  0  0  0  0  0  0  0  0  0  0  0  0
  139.6840   71.1510  225.4330 C   0  0  0  0  0  0  0  0  0  0  0  0
  134.7150   73.1290  224.7630 C   0  0  0  0  0  0  0  0  0  0  0  0
  134.0430   72.2590  225.5950 C   0  0  0  0  0  0  0  0  0  0  0  0
  133.3090   72.7090  226.6720 C   0  0  0  0  0  0  0  0  0  0  0  0
  133.2470   74.0240  226.9180 N   0  0  0  0  0  0  0  0  0  0  0  0
  133.8930   74.8960  226.1240 C   0  0  0  0  0  0  0  0  0  0  0  0
  134.6400   74.4830  225.0310 C   0  0  0  0  0  0  0  0  0  0  0  0
  136.8270   74.4110  223.5480 H   0  0  0  0  0  0  0  0  0  0  0  0
  136.8329   72.2717  221.4518 H   0  0  0  0  0  0  0  0  0  0  0  0
  137.4763   73.9691  221.3098 H   0  0  0  0  0  0  0  0  0  0  0  0
  140.1623   70.6020  221.1790 H   0  0  0  0  0  0  0  0  0  0  0  0
  140.8229   70.4375  222.8079 H   0  0  0  0  0  0  0  0  0  0  0  0
  139.2804   68.4764  221.3210 H   0  0  0  0  0  0  0  0  0  0  0  0
  139.8327   68.2956  222.9768 H   0  0  0  0  0  0  0  0  0  0  0  0
  137.3611   68.3956  223.2772 H   0  0  0  0  0  0  0  0  0  0  0  0
  136.6120   70.4490  221.8220 H   0  0  0  0  0  0  0  0  0  0  0  0
  137.1366   70.8946  224.0084 H   0  0  0  0  0  0  0  0  0  0  0  0
  138.3192   68.1323  224.9143 H   0  0  0  0  0  0  0  0  0  0  0  0
  139.6988   67.6236  226.9108 H   0  0  0  0  0  0  0  0  0  0  0  0
  141.0869   69.3965  227.9804 H   0  0  0  0  0  0  0  0  0  0  0  0
  139.6957   72.1718  225.0233 H   0  0  0  0  0  0  0  0  0  0  0  0
  134.0937   71.1786  225.3946 H   0  0  0  0  0  0  0  0  0  0  0  0
  132.7804   71.9960  227.3218 H   0  0  0  0  0  0  0  0  0  0  0  0
  133.8269   75.9708  226.3485 H   0  0  0  0  0  0  0  0  0  0  0  0
  135.1594   75.2139  224.3938 H   0  0  0  0  0  0  0  0  0  0  0  0
  1  2  2  0
  2  3  1  0
  3  4  1  0
  4  5  1  0
  5  6  2  0
  5  7  1  0
  7  8  1  0
  8  9  1  0
  9 10  1  0
 10 11  1  0
 10 12  1  0
 12 13  1  0
 13 14  2  0
 14 15  1  0
 15 16  2  0
 16 17  1  0
 17 18  1  0
 17 19  2  0
  2 20  1  0
 20 21  2  0
 21 22  1  0
 22 23  2  0
 23 24  1  0
 24 25  2  0
 12  7  1  0
 19 13  1  0
 25 20  1  0
  3 26  1  0
  4 27  1  0
  4 28  1  0
  8 29  1  0
  8 30  1  0
  9 31  1  0
  9 32  1  0
 10 33  1  1
 11 34  1  0
 12 35  1  1
 14 36  1  0
 15 37  1  0
 16 38  1  0
 19 39  1  0
 21 40  1  0
 22 41  1  0
 24 42  1  0
 25 43  1  0
M  END
>  <meeko>  (4) 
{"free_energy": -6.47, "intermolecular_energy": -8.26, "internal_energy": -2.23, "cluster_size": 4, "cluster_id": 5, "rank_in_cluster": 1}

$$$$

     RDKit          3D

 43 45  0  0  0  0  0  0  0  0999 V2000
  140.4880   77.6440  219.7310 O   0  0  0  0  0  0  0  0  0  0  0  0
  141.6220   77.8910  220.2530 C   0  0  0  0  0  0  0  0  0  0  0  0
  142.7450   77.3630  219.5440 N   0  0  0  0  0  0  0  0  0  0  0  0
  142.6040   76.6040  218.3240 C   0  0  0  0  0  0  0  0  0  0  0  0
  143.6920   75.6350  218.1280 C   0  0  0  0  0  0  0  0  0  0  0  0
  144.4190   75.5710  217.1030 O   0  0  0  0  0  0  0  0  0  0  0  0
  143.9470   74.6990  219.1680 N   0  0  0  0  0  0  0  0  0  0  0  0
  144.6130   74.9880  220.4350 C   0  0  0  0  0  0  0  0  0  0  0  0
  145.2610   73.6720  220.8540 C   0  0  0  0  0  0  0  0  0  0  0  0
  144.9630   72.7430  219.6970 C   0  0  2  0  0  0  0  0  0  0  0  0
  145.8910   73.0320  218.7030 O   0  0  0  0  0  0  0  0  0  0  0  0
  143.6250   73.2850  219.2340 C   0  0  1  0  0  0  0  0  0  0  0  0
  142.5570   73.1150  220.2420 C   0  0  0  0  0  0  0  0  0  0  0  0
  142.4280   71.8950  220.8970 C   0  0  0  0  0  0  0  0  0  0  0  0
  141.4340   71.6970  221.8550 C   0  0  0  0  0  0  0  0  0  0  0  0
  140.5480   72.7080  222.1800 C   0  0  0  0  0  0  0  0  0  0  0  0
  140.6790   73.9040  221.5340 C   0  0  0  0  0  0  0  0  0  0  0  0
  139.5430   75.1820  221.9600 Cl  0  0  0  0  0  0  0  0  0  0  0  0
  141.6680   74.0960  220.5850 C   0  0  0  0  0  0  0  0  0  0  0  0
  141.7680   78.6510  221.4770 C   0  0  0  0  0  0  0  0  0  0  0  0
  142.2030   79.9580  221.5270 C   0  0  0  0  0  0  0  0  0  0  0  0
  142.3240   80.6360  222.7220 C   0  0  0  0  0  0  0  0  0  0  0  0
  142.0120   80.0100  223.8630 N   0  0  0  0  0  0  0  0  0  0  0  0
  141.5850   78.7350  223.8450 C   0  0  0  0  0  0  0  0  0  0  0  0
  141.4500   78.0200  222.6650 C   0  0  0  0  0  0  0  0  0  0  0  0
  143.7150   77.5140  219.8960 H   0  0  0  0  0  0  0  0  0  0  0  0
  141.6493   76.0587  218.3575 H   0  0  0  0  0  0  0  0  0  0  0  0
  142.6381   77.3150  217.4853 H   0  0  0  0  0  0  0  0  0  0  0  0
  145.3764   75.7685  220.3005 H   0  0  0  0  0  0  0  0  0  0  0  0
  143.9096   75.3606  221.1942 H   0  0  0  0  0  0  0  0  0  0  0  0
  146.3457   73.7943  220.9899 H   0  0  0  0  0  0  0  0  0  0  0  0
  144.8789   73.2946  221.8140 H   0  0  0  0  0  0  0  0  0  0  0  0
  144.9795   71.6681  219.9303 H   0  0  0  0  0  0  0  0  0  0  0  0
  145.7110   73.9070  218.2680 H   0  0  0  0  0  0  0  0  0  0  0  0
  143.2543   72.7982  218.3199 H   0  0  0  0  0  0  0  0  0  0  0  0
  143.1198   71.0745  220.6560 H   0  0  0  0  0  0  0  0  0  0  0  0
  141.3535   70.7228  222.3593 H   0  0  0  0  0  0  0  0  0  0  0  0
  139.7628   72.5537  222.9348 H   0  0  0  0  0  0  0  0  0  0  0  0
  141.7418   75.0745  220.0879 H   0  0  0  0  0  0  0  0  0  0  0  0
  142.4602   80.4735  220.5899 H   0  0  0  0  0  0  0  0  0  0  0  0
  142.6729   81.6791  222.7371 H   0  0  0  0  0  0  0  0  0  0  0  0
  141.3349   78.2437  224.7969 H   0  0  0  0  0  0  0  0  0  0  0  0
  141.0989   76.9776  222.6739 H   0  0  0  0  0  0  0  0  0  0  0  0
  1  2  2  0
  2  3  1  0
  3  4  1  0
  4  5  1  0
  5  6  2  0
  5  7  1  0
  7  8  1  0
  8  9  1  0
  9 10  1  0
 10 11  1  0
 10 12  1  0
 12 13  1  0
 13 14  2  0
 14 15  1  0
 15 16  2  0
 16 17  1  0
 17 18  1  0
 17 19  2  0
  2 20  1  0
 20 21  2  0
 21 22  1  0
 22 23  2  0
 23 24  1  0
 24 25  2  0
 12  7  1  0
 19 13  1  0
 25 20  1  0
  3 26  1  0
  4 27  1  0
  4 28  1  0
  8 29  1  0
  8 30  1  0
  9 31  1  0
  9 32  1  0
 10 33  1  1
 11 34  1  0
 12 35  1  6
 14 36  1  0
 15 37  1  0
 16 38  1  0
 19 39  1  0
 21 40  1  0
 22 41  1  0
 24 42  1  0
 25 43  1  0
M  END
>  <meeko>  (5) 
{"free_energy": -6.57, "intermolecular_energy": -8.36, "internal_energy": -2.14, "cluster_size": 6, "cluster_id": 4, "rank_in_cluster": 2}

$$$$

     RDKit          3D

 43 45  0  0  0  0  0  0  0  0999 V2000
  135.1350   77.1650  223.5950 O   0  0  0  0  0  0  0  0  0  0  0  0
  135.4690   75.9890  223.9500 C   0  0  0  0  0  0  0  0  0  0  0  0
  136.6180   75.4570  223.2890 N   0  0  0  0  0  0  0  0  0  0  0  0
  137.3500   76.1990  222.2900 C   0  0  0  0  0  0  0  0  0  0  0  0
  138.7130   75.6850  222.0850 C   0  0  0  0  0  0  0  0  0  0  0  0
  139.0830   74.5120  222.3480 O   0  0  0  0  0  0  0  0  0  0  0  0
  139.6870   76.5730  221.5530 N   0  0  0  0  0  0  0  0  0  0  0  0
  139.5380   77.3850  220.3480 C   0  0  0  0  0  0  0  0  0  0  0  0
  140.9560   77.5740  219.8170 C   0  0  0  0  0  0  0  0  0  0  0  0
  141.8030   76.7470  220.7600 C   0  0  2  0  0  0  0  0  0  0  0  0
  141.6870   75.4250  220.3460 O   0  0  0  0  0  0  0  0  0  0  0  0
  141.0160   76.8860  222.0470 C   0  0  1  0  0  0  0  0  0  0  0  0
  140.9900   78.2740  222.5560 C   0  0  0  0  0  0  0  0  0  0  0  0
  142.1490   79.0400  222.5020 C   0  0  0  0  0  0  0  0  0  0  0  0
  142.1630   80.3540  222.9720 C   0  0  0  0  0  0  0  0  0  0  0  0
  141.0240   80.9310  223.5050 C   0  0  0  0  0  0  0  0  0  0  0  0
  139.8880   80.1730  223.5550 C   0  0  0  0  0  0  0  0  0  0  0  0
  138.4470   80.9230  224.2370 Cl  0  0  0  0  0  0  0  0  0  0  0  0
  139.8800   78.8710  223.0870 C   0  0  0  0  0  0  0  0  0  0  0  0
  134.7380   75.2410  224.9530 C   0  0  0  0  0  0  0  0  0  0  0  0
  133.9120   75.8150  225.8950 C   0  0  0  0  0  0  0  0  0  0  0  0
  133.2400   75.0540  226.8290 C   0  0  0  0  0  0  0  0  0  0  0  0
  133.3920   73.7240  226.8200 N   0  0  0  0  0  0  0  0  0  0  0  0
  134.1900   73.1360  225.9120 C   0  0  0  0  0  0  0  0  0  0  0  0
  134.8830   73.8660  224.9580 C   0  0  0  0  0  0  0  0  0  0  0  0
  136.9670   74.5000  223.5150 H   0  0  0  0  0  0  0  0  0  0  0  0
  136.8042   76.1385  221.3369 H   0  0  0  0  0  0  0  0  0  0  0  0
  137.4366   77.2367  222.6446 H   0  0  0  0  0  0  0  0  0  0  0  0
  138.9143   76.8644  219.6064 H   0  0  0  0  0  0  0  0  0  0  0  0
  139.0452   78.3459  220.5573 H   0  0  0  0  0  0  0  0  0  0  0  0
  141.0414   77.2032  218.7849 H   0  0  0  0  0  0  0  0  0  0  0  0
  141.2620   78.6300  219.7826 H   0  0  0  0  0  0  0  0  0  0  0  0
  142.8634   77.0323  220.8251 H   0  0  0  0  0  0  0  0  0  0  0  0
  140.9650   74.9450  220.8300 H   0  0  0  0  0  0  0  0  0  0  0  0
  141.4172   76.2732  222.8676 H   0  0  0  0  0  0  0  0  0  0  0  0
  143.0679   78.6042  222.0829 H   0  0  0  0  0  0  0  0  0  0  0  0
  143.0928   80.9393  222.9179 H   0  0  0  0  0  0  0  0  0  0  0  0
  141.0326   81.9663  223.8765 H   0  0  0  0  0  0  0  0  0  0  0  0
  138.9452   78.2940  223.1442 H   0  0  0  0  0  0  0  0  0  0  0  0
  133.7853   76.9077  225.9024 H   0  0  0  0  0  0  0  0  0  0  0  0
  132.5869   75.5344  227.5724 H   0  0  0  0  0  0  0  0  0  0  0  0
  134.2967   72.0413  225.9261 H   0  0  0  0  0  0  0  0  0  0  0  0
  135.5311   73.3642  224.2244 H   0  0  0  0  0  0  0  0  0  0  0  0
  1  2  2  0
  2  3  1  0
  3  4  1  0
  4  5  1  0
  5  6  2  0
  5  7  1  0
  7  8  1  0
  8  9  1  0
  9 10  1  0
 10 11  1  0
 10 12  1  0
 12 13  1  0
 13 14  2  0
 14 15  1  0
 15 16  2  0
 16 17  1  0
 17 18  1  0
 17 19  2  0
  2 20  1  0
 20 21  2  0
 21 22  1  0
 22 23  2  0
 23 24  1  0
 24 25  2  0
 12  7  1  0
 19 13  1  0
 25 20  1  0
  3 26  1  0
  4 27  1  0
  4 28  1  0
  8 29  1  0
  8 30  1  0
  9 31  1  0
  9 32  1  0
 10 33  1  1
 11 34  1  0
 12 35  1  1
 14 36  1  0
 15 37  1  0
 16 38  1  0
 19 39  1  0
 21 40  1  0
 22 41  1  0
 24 42  1  0
 25 43  1  0
M  END
>  <meeko>  (6) 
{"free_energy": -6.48, "intermolecular_energy": -8.27, "internal_energy": -1.84, "cluster_size": 5, "cluster_id": 3, "rank_in_cluster": 4}

$$$$

     RDKit          3D

 43 45  0  0  0  0  0  0  0  0999 V2000
  135.3260   71.6260  223.0180 O   0  0  0  0  0  0  0  0  0  0  0  0
  135.5170   72.7300  223.6230 C   0  0  0  0  0  0  0  0  0  0  0  0
  136.5670   73.5400  223.0910 N   0  0  0  0  0  0  0  0  0  0  0  0
  137.3540   73.1380  221.9500 C   0  0  0  0  0  0  0  0  0  0  0  0
  138.7000   72.6770  222.3220 C   0  0  0  0  0  0  0  0  0  0  0  0
  139.7260   73.4040  222.3400 O   0  0  0  0  0  0  0  0  0  0  0  0
  138.8600   71.3130  222.6870 N   0  0  0  0  0  0  0  0  0  0  0  0
  139.8900   70.4070  222.1870 C   0  0  0  0  0  0  0  0  0  0  0  0
  139.2720   69.0150  222.2710 C   0  0  0  0  0  0  0  0  0  0  0  0
  137.8620   69.2780  222.7510 C   0  0  2  0  0  0  0  0  0  0  0  0
  137.1290   69.6760  221.6390 O   0  0  0  0  0  0  0  0  0  0  0  0
  138.0790   70.5080  223.6100 C   0  0  1  0  0  0  0  0  0  0  0  0
  138.9210   70.2390  224.7950 C   0  0  0  0  0  0  0  0  0  0  0  0
  138.9550   68.9550  225.3280 C   0  0  0  0  0  0  0  0  0  0  0  0
  139.7390   68.6630  226.4440 C   0  0  0  0  0  0  0  0  0  0  0  0
  140.5040   69.6410  227.0530 C   0  0  0  0  0  0  0  0  0  0  0  0
  140.4660   70.9010  226.5250 C   0  0  0  0  0  0  0  0  0  0  0  0
  141.4450   72.1360  227.3120 Cl  0  0  0  0  0  0  0  0  0  0  0  0
  139.6870   71.1860  225.4170 C   0  0  0  0  0  0  0  0  0  0  0  0
  134.7290   73.1380  224.7680 C   0  0  0  0  0  0  0  0  0  0  0  0
  134.0550   72.2630  225.5930 C   0  0  0  0  0  0  0  0  0  0  0  0
  133.3180   72.7060  226.6710 C   0  0  0  0  0  0  0  0  0  0  0  0
  133.2550   74.0200  226.9240 N   0  0  0  0  0  0  0  0  0  0  0  0
  133.9030   74.8970  226.1360 C   0  0  0  0  0  0  0  0  0  0  0  0
  134.6530   74.4900  225.0440 C   0  0  0  0  0  0  0  0  0  0  0  0
  136.7960   74.4630  223.5210 H   0  0  0  0  0  0  0  0  0  0  0  0
  136.8319   72.3190  221.4335 H   0  0  0  0  0  0  0  0  0  0  0  0
  137.4722   74.0186  221.3015 H   0  0  0  0  0  0  0  0  0  0  0  0
  140.1478   70.6526  221.1462 H   0  0  0  0  0  0  0  0  0  0  0  0
  140.8203   70.4800  222.7695 H   0  0  0  0  0  0  0  0  0  0  0  0
  139.2663   68.5280  221.2847 H   0  0  0  0  0  0  0  0  0  0  0  0
  139.8302   68.3399  222.9363 H   0  0  0  0  0  0  0  0  0  0  0  0
  137.3626   68.4361  223.2528 H   0  0  0  0  0  0  0  0  0  0  0  0
  136.3860   70.2890  221.8810 H   0  0  0  0  0  0  0  0  0  0  0  0
  137.1427   70.9345  223.9990 H   0  0  0  0  0  0  0  0  0  0  0  0
  138.3553   68.1587  224.8630 H   0  0  0  0  0  0  0  0  0  0  0  0
  139.7490   67.6391  226.8459 H   0  0  0  0  0  0  0  0  0  0  0  0
  141.1226   69.4123  227.9333 H   0  0  0  0  0  0  0  0  0  0  0  0
  139.6839   72.2126  225.0219 H   0  0  0  0  0  0  0  0  0  0  0  0
  134.1064   71.1839  225.3861 H   0  0  0  0  0  0  0  0  0  0  0  0
  132.7882   71.9891  227.3154 H   0  0  0  0  0  0  0  0  0  0  0  0
  133.8354   75.9706  226.3656 H   0  0  0  0  0  0  0  0  0  0  0  0
  135.1746   75.2245  224.4129 H   0  0  0  0  0  0  0  0  0  0  0  0
  1  2  2  0
  2  3  1  0
  3  4  1  0
  4  5  1  0
  5  6  2  0
  5  7  1  0
  7  8  1  0
  8  9  1  0
  9 10  1  0
 10 11  1  0
 10 12  1  0
 12 13  1  0
 13 14  2  0
 14 15  1  0
 15 16  2  0
 16 17  1  0
 17 18  1  0
 17 19  2  0
  2 20  1  0
 20 21  2  0
 21 22  1  0
 22 23  2  0
 23 24  1  0
 24 25  2  0
 12  7  1  0
 19 13  1  0
 25 20  1  0
  3 26  1  0
  4 27  1  0
  4 28  1  0
  8 29  1  0
  8 30  1  0
  9 31  1  0
  9 32  1  0
 10 33  1  1
 11 34  1  0
 12 35  1  1
 14 36  1  0
 15 37  1  0
 16 38  1  0
 19 39  1  0
 21 40  1  0
 22 41  1  0
 24 42  1  0
 25 43  1  0
M  END
>  <meeko>  (7) 
{"free_energy": -6.46, "intermolecular_energy": -8.25, "internal_energy": -2.22, "cluster_size": 4, "cluster_id": 5, "rank_in_cluster": 3}

$$$$

     RDKit          3D

 43 45  0  0  0  0  0  0  0  0999 V2000
  135.2130   77.1140  223.4450 O   0  0  0  0  0  0  0  0  0  0  0  0
  135.5520   75.9490  223.8290 C   0  0  0  0  0  0  0  0  0  0  0  0
  136.6930   75.3990  223.1670 N   0  0  0  0  0  0  0  0  0  0  0  0
  137.4090   76.1120  222.1370 C   0  0  0  0  0  0  0  0  0  0  0  0
  138.8120   75.6870  222.0210 C   0  0  0  0  0  0  0  0  0  0  0  0
  139.2450   74.5510  222.3470 O   0  0  0  0  0  0  0  0  0  0  0  0
  139.7530   76.6200  221.5070 N   0  0  0  0  0  0  0  0  0  0  0  0
  139.5560   77.4800  220.3430 C   0  0  0  0  0  0  0  0  0  0  0  0
  140.9560   77.7260  219.7890 C   0  0  0  0  0  0  0  0  0  0  0  0
  141.8450   76.8800  220.6740 C   0  0  2  0  0  0  0  0  0  0  0  0
  141.7500   75.5750  220.2050 O   0  0  0  0  0  0  0  0  0  0  0  0
  141.0850   76.9440  221.9840 C   0  0  1  0  0  0  0  0  0  0  0  0
  141.0380   78.3080  222.5540 C   0  0  0  0  0  0  0  0  0  0  0  0
  142.2010   79.0680  222.5950 C   0  0  0  0  0  0  0  0  0  0  0  0
  142.1960   80.3590  223.1240 C   0  0  0  0  0  0  0  0  0  0  0  0
  141.0340   80.9180  223.6240 C   0  0  0  0  0  0  0  0  0  0  0  0
  139.8940   80.1660  223.5820 C   0  0  0  0  0  0  0  0  0  0  0  0
  138.4230   80.8930  224.2220 Cl  0  0  0  0  0  0  0  0  0  0  0  0
  139.9050   78.8870  223.0550 C   0  0  0  0  0  0  0  0  0  0  0  0
  134.8360   75.2290  224.8630 C   0  0  0  0  0  0  0  0  0  0  0  0
  134.7930   73.8550  224.9590 C   0  0  0  0  0  0  0  0  0  0  0  0
  134.0940   73.2210  225.9650 C   0  0  0  0  0  0  0  0  0  0  0  0
  133.4420   73.9580  226.8730 N   0  0  0  0  0  0  0  0  0  0  0  0
  133.4670   75.3010  226.8040 C   0  0  0  0  0  0  0  0  0  0  0  0
  134.1570   75.9750  225.8090 C   0  0  0  0  0  0  0  0  0  0  0  0
  137.0460   74.4490  223.4150 H   0  0  0  0  0  0  0  0  0  0  0  0
  136.9075   75.9359  221.1739 H   0  0  0  0  0  0  0  0  0  0  0  0
  137.4068   77.1779  222.4088 H   0  0  0  0  0  0  0  0  0  0  0  0
  138.9269   76.9774  219.5936 H   0  0  0  0  0  0  0  0  0  0  0  0
  139.0459   78.4185  220.6056 H   0  0  0  0  0  0  0  0  0  0  0  0
  141.0252   77.4028  218.7398 H   0  0  0  0  0  0  0  0  0  0  0  0
  141.2363   78.7897  219.7950 H   0  0  0  0  0  0  0  0  0  0  0  0
  142.8998   77.1876  220.7270 H   0  0  0  0  0  0  0  0  0  0  0  0
  141.0580   75.0540  220.6910 H   0  0  0  0  0  0  0  0  0  0  0  0
  141.5200   76.3065  222.7678 H   0  0  0  0  0  0  0  0  0  0  0  0
  143.1387   78.6456  222.2048 H   0  0  0  0  0  0  0  0  0  0  0  0
  143.1295   80.9405  223.1437 H   0  0  0  0  0  0  0  0  0  0  0  0
  141.0278   81.9354  224.0421 H   0  0  0  0  0  0  0  0  0  0  0  0
  138.9663   78.3138  223.0383 H   0  0  0  0  0  0  0  0  0  0  0  0
  135.3297   73.2485  224.2146 H   0  0  0  0  0  0  0  0  0  0  0  0
  134.0724   72.1226  226.0206 H   0  0  0  0  0  0  0  0  0  0  0  0
  132.9222   75.8831  227.5618 H   0  0  0  0  0  0  0  0  0  0  0  0
  134.1644   77.0744  225.7726 H   0  0  0  0  0  0  0  0  0  0  0  0
  1  2  2  0
  2  3  1  0
  3  4  1  0
  4  5  1  0
  5  6  2  0
  5  7  1  0
  7  8  1  0
  8  9  1  0
  9 10  1  0
 10 11  1  0
 10 12  1  0
 12 13  1  0
 13 14  2  0
 14 15  1  0
 15 16  2  0
 16 17  1  0
 17 18  1  0
 17 19  2  0
  2 20  1  0
 20 21  2  0
 21 22  1  0
 22 23  2  0
 23 24  1  0
 24 25  2  0
 12  7  1  0
 19 13  1  0
 25 20  1  0
  3 26  1  0
  4 27  1  0
  4 28  1  0
  8 29  1  0
  8 30  1  0
  9 31  1  0
  9 32  1  0
 10 33  1  1
 11 34  1  0
 12 35  1  1
 14 36  1  0
 15 37  1  0
 16 38  1  0
 19 39  1  0
 21 40  1  0
 22 41  1  0
 24 42  1  0
 25 43  1  0
M  END
>  <meeko>  (8) 
{"free_energy": -6.63, "intermolecular_energy": -8.42, "internal_energy": -1.75, "cluster_size": 5, "cluster_id": 3, "rank_in_cluster": 2}

$$$$

     RDKit          3D

 43 45  0  0  0  0  0  0  0  0999 V2000
  140.5730   78.0220  219.5390 O   0  0  0  0  0  0  0  0  0  0  0  0
  141.6550   78.0340  220.2090 C   0  0  0  0  0  0  0  0  0  0  0  0
  142.7460   77.3280  219.6150 N   0  0  0  0  0  0  0  0  0  0  0  0
  142.6300   76.6490  218.3460 C   0  0  0  0  0  0  0  0  0  0  0  0
  143.6950   75.6570  218.1330 C   0  0  0  0  0  0  0  0  0  0  0  0
  144.3980   75.5730  217.0930 O   0  0  0  0  0  0  0  0  0  0  0  0
  143.9550   74.7230  219.1730 N   0  0  0  0  0  0  0  0  0  0  0  0
  144.6100   75.0170  220.4440 C   0  0  0  0  0  0  0  0  0  0  0  0
  145.2710   73.7080  220.8640 C   0  0  0  0  0  0  0  0  0  0  0  0
  144.9900   72.7780  219.7040 C   0  0  2  0  0  0  0  0  0  0  0  0
  145.9200   73.0790  218.7160 O   0  0  0  0  0  0  0  0  0  0  0  0
  143.6490   73.3050  219.2350 C   0  0  1  0  0  0  0  0  0  0  0  0
  142.5780   73.1210  220.2370 C   0  0  0  0  0  0  0  0  0  0  0  0
  142.4490   71.8940  220.8780 C   0  0  0  0  0  0  0  0  0  0  0  0
  141.4520   71.6830  221.8300 C   0  0  0  0  0  0  0  0  0  0  0  0
  140.5620   72.6880  222.1630 C   0  0  0  0  0  0  0  0  0  0  0  0
  140.6920   73.8910  221.5300 C   0  0  0  0  0  0  0  0  0  0  0  0
  139.5510   75.1610  221.9640 Cl  0  0  0  0  0  0  0  0  0  0  0  0
  141.6840   74.0960  220.5870 C   0  0  0  0  0  0  0  0  0  0  0  0
  141.7760   78.7150  221.4820 C   0  0  0  0  0  0  0  0  0  0  0  0
  142.1960   80.0190  221.6230 C   0  0  0  0  0  0  0  0  0  0  0  0
  142.2940   80.6190  222.8610 C   0  0  0  0  0  0  0  0  0  0  0  0
  141.9710   79.9170  223.9550 N   0  0  0  0  0  0  0  0  0  0  0  0
  141.5570   78.6420  223.8480 C   0  0  0  0  0  0  0  0  0  0  0  0
  141.4460   78.0050  222.6210 C   0  0  0  0  0  0  0  0  0  0  0  0
  143.6730   77.2830  220.0910 H   0  0  0  0  0  0  0  0  0  0  0  0
  141.6581   76.1351  218.3095 H   0  0  0  0  0  0  0  0  0  0  0  0
  142.7194   77.4074  217.5542 H   0  0  0  0  0  0  0  0  0  0  0  0
  145.3649   75.8067  220.3156 H   0  0  0  0  0  0  0  0  0  0  0  0
  143.8979   75.3796  221.1999 H   0  0  0  0  0  0  0  0  0  0  0  0
  146.3535   73.8427  221.0059 H   0  0  0  0  0  0  0  0  0  0  0  0
  144.8883   73.3243  221.8212 H   0  0  0  0  0  0  0  0  0  0  0  0
  145.0175   71.7030  219.9354 H   0  0  0  0  0  0  0  0  0  0  0  0
  145.7280   73.9480  218.2750 H   0  0  0  0  0  0  0  0  0  0  0  0
  143.2887   72.8155  218.3181 H   0  0  0  0  0  0  0  0  0  0  0  0
  143.1436   71.0777  220.6306 H   0  0  0  0  0  0  0  0  0  0  0  0
  141.3722   70.7030  222.3233 H   0  0  0  0  0  0  0  0  0  0  0  0
  139.7748   72.5235  222.9135 H   0  0  0  0  0  0  0  0  0  0  0  0
  141.7565   75.0799  220.1005 H   0  0  0  0  0  0  0  0  0  0  0  0
  142.4601   80.5969  220.7251 H   0  0  0  0  0  0  0  0  0  0  0  0
  142.6334   81.6616  222.9488 H   0  0  0  0  0  0  0  0  0  0  0  0
  141.2984   78.0871  224.7619 H   0  0  0  0  0  0  0  0  0  0  0  0
  141.1041   76.9615  222.5560 H   0  0  0  0  0  0  0  0  0  0  0  0
  1  2  2  0
  2  3  1  0
  3  4  1  0
  4  5  1  0
  5  6  2  0
  5  7  1  0
  7  8  1  0
  8  9  1  0
  9 10  1  0
 10 11  1  0
 10 12  1  0
 12 13  1  0
 13 14  2  0
 14 15  1  0
 15 16  2  0
 16 17  1  0
 17 18  1  0
 17 19  2  0
  2 20  1  0
 20 21  2  0
 21 22  1  0
 22 23  2  0
 23 24  1  0
 24 25  2  0
 12  7  1  0
 19 13  1  0
 25 20  1  0
  3 26  1  0
  4 27  1  0
  4 28  1  0
  8 29  1  0
  8 30  1  0
  9 31  1  0
  9 32  1  0
 10 33  1  1
 11 34  1  0
 12 35  1  6
 14 36  1  0
 15 37  1  0
 16 38  1  0
 19 39  1  0
 21 40  1  0
 22 41  1  0
 24 42  1  0
 25 43  1  0
M  END
>  <meeko>  (9) 
{"free_energy": -6.58, "intermolecular_energy": -8.37, "internal_energy": -2.1, "cluster_size": 6, "cluster_id": 4, "rank_in_cluster": 1}

$$$$

     RDKit          3D

 43 45  0  0  0  0  0  0  0  0999 V2000
  140.4900   77.7500  219.6690 O   0  0  0  0  0  0  0  0  0  0  0  0
  141.6080   77.9140  220.2560 C   0  0  0  0  0  0  0  0  0  0  0  0
  142.7360   77.3480  219.5860 N   0  0  0  0  0  0  0  0  0  0  0  0
  142.6180   76.6410  218.3330 C   0  0  0  0  0  0  0  0  0  0  0  0
  143.6900   75.6540  218.1350 C   0  0  0  0  0  0  0  0  0  0  0  0
  144.4090   75.5760  217.1060 O   0  0  0  0  0  0  0  0  0  0  0  0
  143.9360   74.7180  219.1760 N   0  0  0  0  0  0  0  0  0  0  0  0
  144.6160   74.9980  220.4370 C   0  0  0  0  0  0  0  0  0  0  0  0
  145.2430   73.6710  220.8540 C   0  0  0  0  0  0  0  0  0  0  0  0
  144.9180   72.7440  219.7030 C   0  0  2  0  0  0  0  0  0  0  0  0
  145.8440   73.0130  218.7020 O   0  0  0  0  0  0  0  0  0  0  0  0
  143.5880   73.3090  219.2500 C   0  0  1  0  0  0  0  0  0  0  0  0
  142.5250   73.1630  220.2670 C   0  0  0  0  0  0  0  0  0  0  0  0
  142.3930   71.9550  220.9430 C   0  0  0  0  0  0  0  0  0  0  0  0
  141.4030   71.7790  221.9100 C   0  0  0  0  0  0  0  0  0  0  0  0
  140.5250   72.8010  222.2240 C   0  0  0  0  0  0  0  0  0  0  0  0
  140.6600   73.9850  221.5560 C   0  0  0  0  0  0  0  0  0  0  0  0
  139.5340   75.2770  221.9680 Cl  0  0  0  0  0  0  0  0  0  0  0  0
  141.6440   74.1550  220.5980 C   0  0  0  0  0  0  0  0  0  0  0  0
  141.7310   78.6240  221.5130 C   0  0  0  0  0  0  0  0  0  0  0  0
  141.4400   78.0730  222.7430 C   0  0  0  0  0  0  0  0  0  0  0  0
  141.5740   78.7960  223.9100 C   0  0  0  0  0  0  0  0  0  0  0  0
  141.9990   80.0640  223.8490 N   0  0  0  0  0  0  0  0  0  0  0  0
  142.2910   80.6270  222.6630 C   0  0  0  0  0  0  0  0  0  0  0  0
  142.1680   79.9340  221.4680 C   0  0  0  0  0  0  0  0  0  0  0  0
  143.6930   77.4330  219.9910 H   0  0  0  0  0  0  0  0  0  0  0  0
  141.6504   76.1182  218.3137 H   0  0  0  0  0  0  0  0  0  0  0  0
  142.6959   77.3827  217.5244 H   0  0  0  0  0  0  0  0  0  0  0  0
  145.3924   75.7642  220.2952 H   0  0  0  0  0  0  0  0  0  0  0  0
  143.9253   75.3853  221.2005 H   0  0  0  0  0  0  0  0  0  0  0  0
  146.3309   73.7735  220.9801 H   0  0  0  0  0  0  0  0  0  0  0  0
  144.8619   73.3036  221.8183 H   0  0  0  0  0  0  0  0  0  0  0  0
  144.9155   71.6696  219.9387 H   0  0  0  0  0  0  0  0  0  0  0  0
  145.6850   73.8950  218.2730 H   0  0  0  0  0  0  0  0  0  0  0  0
  143.2008   72.8256  218.3409 H   0  0  0  0  0  0  0  0  0  0  0  0
  143.0788   71.1266  220.7120 H   0  0  0  0  0  0  0  0  0  0  0  0
  141.3193   70.8135  222.4304 H   0  0  0  0  0  0  0  0  0  0  0  0
  139.7439   72.6647  222.9864 H   0  0  0  0  0  0  0  0  0  0  0  0
  141.7203   75.1243  220.0836 H   0  0  0  0  0  0  0  0  0  0  0  0
  141.0923   77.0307  222.7949 H   0  0  0  0  0  0  0  0  0  0  0  0
  141.3343   78.3358  224.8800 H   0  0  0  0  0  0  0  0  0  0  0  0
  142.6385   81.6704  222.6401 H   0  0  0  0  0  0  0  0  0  0  0  0
  142.4120   80.4148  220.5092 H   0  0  0  0  0  0  0  0  0  0  0  0
  1  2  2  0
  2  3  1  0
  3  4  1  0
  4  5  1  0
  5  6  2  0
  5  7  1  0
  7  8  1  0
  8  9  1  0
  9 10  1  0
 10 11  1  0
 10 12  1  0
 12 13  1  0
 13 14  2  0
 14 15  1  0
 15 16  2  0
 16 17  1  0
 17 18  1  0
 17 19  2  0
  2 20  1  0
 20 21  2  0
 21 22  1  0
 22 23  2  0
 23 24  1  0
 24 25  2  0
 12  7  1  0
 19 13  1  0
 25 20  1  0
  3 26  1  0
  4 27  1  0
  4 28  1  0
  8 29  1  0
  8 30  1  0
  9 31  1  0
  9 32  1  0
 10 33  1  1
 11 34  1  0
 12 35  1  6
 14 36  1  0
 15 37  1  0
 16 38  1  0
 19 39  1  0
 21 40  1  0
 22 41  1  0
 24 42  1  0
 25 43  1  0
M  END
>  <meeko>  (10) 
{"free_energy": -6.55, "intermolecular_energy": -8.34, "internal_energy": -2.15, "cluster_size": 6, "cluster_id": 4, "rank_in_cluster": 4}

$$$$

     RDKit          3D

 43 45  0  0  0  0  0  0  0  0999 V2000
  141.7670   74.6090  220.4830 O   0  0  0  0  0  0  0  0  0  0  0  0
  142.8670   75.1600  220.1520 C   0  0  0  0  0  0  0  0  0  0  0  0
  142.8310   76.5850  220.0650 N   0  0  0  0  0  0  0  0  0  0  0  0
  141.6350   77.3480  220.3320 C   0  0  0  0  0  0  0  0  0  0  0  0
  141.8310   78.7940  220.1540 C   0  0  0  0  0  0  0  0  0  0  0  0
  142.2390   79.3370  219.0950 O   0  0  0  0  0  0  0  0  0  0  0  0
  141.5420   79.6470  221.2540 N   0  0  0  0  0  0  0  0  0  0  0  0
  141.3610   81.0950  221.1910 C   0  0  0  0  0  0  0  0  0  0  0  0
  141.7740   81.6090  222.5660 C   0  0  0  0  0  0  0  0  0  0  0  0
  142.2510   80.3650  223.2840 C   0  0  2  0  0  0  0  0  0  0  0  0
  143.5470   80.1220  222.8440 O   0  0  0  0  0  0  0  0  0  0  0  0
  141.3580   79.3140  222.6560 C   0  0  1  0  0  0  0  0  0  0  0  0
  139.9280   79.5080  222.9790 C   0  0  0  0  0  0  0  0  0  0  0  0
  139.5780   80.3160  224.0550 C   0  0  0  0  0  0  0  0  0  0  0  0
  138.2400   80.5230  224.3900 C   0  0  0  0  0  0  0  0  0  0  0  0
  137.2240   79.9300  223.6620 C   0  0  0  0  0  0  0  0  0  0  0  0
  137.5740   79.1370  222.6070 C   0  0  0  0  0  0  0  0  0  0  0  0
  136.2680   78.3890  221.6900 Cl  0  0  0  0  0  0  0  0  0  0  0  0
  138.9030   78.9350  222.2780 C   0  0  0  0  0  0  0  0  0  0  0  0
  144.0700   74.3980  219.8840 C   0  0  0  0  0  0  0  0  0  0  0  0
  145.0740   74.1910  220.8040 C   0  0  0  0  0  0  0  0  0  0  0  0
  146.2010   73.4580  220.4950 C   0  0  0  0  0  0  0  0  0  0  0  0
  146.3220   72.9320  219.2690 N   0  0  0  0  0  0  0  0  0  0  0  0
  145.3580   73.1180  218.3500 C   0  0  0  0  0  0  0  0  0  0  0  0
  144.2120   73.8490  218.6230 C   0  0  0  0  0  0  0  0  0  0  0  0
  143.6840   77.1240  219.8010 H   0  0  0  0  0  0  0  0  0  0  0  0
  140.8437   77.0133  219.6451 H   0  0  0  0  0  0  0  0  0  0  0  0
  141.3609   77.1776  221.3836 H   0  0  0  0  0  0  0  0  0  0  0  0
  142.0000   81.5301  220.4085 H   0  0  0  0  0  0  0  0  0  0  0  0
  140.3251   81.3697  220.9432 H   0  0  0  0  0  0  0  0  0  0  0  0
  142.5840   82.3484  222.4816 H   0  0  0  0  0  0  0  0  0  0  0  0
  140.9554   82.1195  223.0945 H   0  0  0  0  0  0  0  0  0  0  0  0
  142.2256   80.4073  224.3829 H   0  0  0  0  0  0  0  0  0  0  0  0
  143.5620   79.6280  221.9820 H   0  0  0  0  0  0  0  0  0  0  0  0
  141.6017   78.2910  222.9785 H   0  0  0  0  0  0  0  0  0  0  0  0
  140.3672   80.7986  224.6502 H   0  0  0  0  0  0  0  0  0  0  0  0
  137.9889   81.1672  225.2456 H   0  0  0  0  0  0  0  0  0  0  0  0
  136.1682   80.0921  223.9246 H   0  0  0  0  0  0  0  0  0  0  0  0
  139.1439   78.2894  221.4206 H   0  0  0  0  0  0  0  0  0  0  0  0
  144.9745   74.6214  221.8114 H   0  0  0  0  0  0  0  0  0  0  0  0
  146.9905   73.3073  221.2460 H   0  0  0  0  0  0  0  0  0  0  0  0
  145.4826   72.6763  217.3503 H   0  0  0  0  0  0  0  0  0  0  0  0
  143.4358   73.9886  217.8562 H   0  0  0  0  0  0  0  0  0  0  0  0
  1  2  2  0
  2  3  1  0
  3  4  1  0
  4  5  1  0
  5  6  2  0
  5  7  1  0
  7  8  1  0
  8  9  1  0
  9 10  1  0
 10 11  1  0
 10 12  1  0
 12 13  1  0
 13 14  2  0
 14 15  1  0
 15 16  2  0
 16 17  1  0
 17 18  1  0
 17 19  2  0
  2 20  1  0
 20 21  2  0
 21 22  1  0
 22 23  2  0
 23 24  1  0
 24 25  2  0
 12  7  1  0
 19 13  1  0
 25 20  1  0
  3 26  1  0
  4 27  1  0
  4 28  1  0
  8 29  1  0
  8 30  1  0
  9 31  1  0
  9 32  1  0
 10 33  1  1
 11 34  1  0
 12 35  1  6
 14 36  1  0
 15 37  1  0
 16 38  1  0
 19 39  1  0
 21 40  1  0
 22 41  1  0
 24 42  1  0
 25 43  1  0
M  END
>  <meeko>  (11) 
{"free_energy": -7.11, "intermolecular_energy": -8.9, "internal_energy": -1.15, "cluster_size": 4, "cluster_id": 1, "rank_in_cluster": 4}

$$$$

     RDKit          3D

 43 45  0  0  0  0  0  0  0  0999 V2000
  137.4460   76.0160  223.6450 O   0  0  0  0  0  0  0  0  0  0  0  0
  136.1980   75.8360  223.4680 C   0  0  0  0  0  0  0  0  0  0  0  0
  135.7170   76.1540  222.1610 N   0  0  0  0  0  0  0  0  0  0  0  0
  136.5830   76.6440  221.1150 C   0  0  0  0  0  0  0  0  0  0  0  0
  137.4200   77.7720  221.5510 C   0  0  0  0  0  0  0  0  0  0  0  0
  136.9800   78.8960  221.9050 O   0  0  0  0  0  0  0  0  0  0  0  0
  138.8290   77.5850  221.5780 N   0  0  0  0  0  0  0  0  0  0  0  0
  139.6950   77.4330  220.4120 C   0  0  0  0  0  0  0  0  0  0  0  0
  140.8750   76.5970  220.8980 C   0  0  0  0  0  0  0  0  0  0  0  0
  140.5140   76.2680  222.3300 C   0  0  2  0  0  0  0  0  0  0  0  0
  139.6170   75.2070  222.2810 O   0  0  0  0  0  0  0  0  0  0  0  0
  139.7270   77.5040  222.7160 C   0  0  1  0  0  0  0  0  0  0  0  0
  140.5530   78.7300  222.7250 C   0  0  0  0  0  0  0  0  0  0  0  0
  141.8150   78.6950  223.3060 C   0  0  0  0  0  0  0  0  0  0  0  0
  142.6240   79.8320  223.3320 C   0  0  0  0  0  0  0  0  0  0  0  0
  142.1920   81.0250  222.7820 C   0  0  0  0  0  0  0  0  0  0  0  0
  140.9500   81.0540  222.2140 C   0  0  0  0  0  0  0  0  0  0  0  0
  140.4150   82.5810  221.5180 Cl  0  0  0  0  0  0  0  0  0  0  0  0
  140.1530   79.9230  222.1890 C   0  0  0  0  0  0  0  0  0  0  0  0
  135.3260   75.3440  224.5150 C   0  0  0  0  0  0  0  0  0  0  0  0
  134.6500   76.1540  225.4020 C   0  0  0  0  0  0  0  0  0  0  0  0
  133.8320   75.6320  226.3810 C   0  0  0  0  0  0  0  0  0  0  0  0
  133.6880   74.3030  226.4730 N   0  0  0  0  0  0  0  0  0  0  0  0
  134.3340   73.4880  225.6210 C   0  0  0  0  0  0  0  0  0  0  0  0
  135.1660   73.9750  224.6240 C   0  0  0  0  0  0  0  0  0  0  0  0
  134.7090   76.0390  221.9220 H   0  0  0  0  0  0  0  0  0  0  0  0
  137.2399   75.8240  220.7894 H   0  0  0  0  0  0  0  0  0  0  0  0
  135.9429   77.0033  220.2957 H   0  0  0  0  0  0  0  0  0  0  0  0
  139.1628   76.9145  219.6009 H   0  0  0  0  0  0  0  0  0  0  0  0
  140.0171   78.4045  220.0090 H   0  0  0  0  0  0  0  0  0  0  0  0
  140.9797   75.6803  220.2991 H   0  0  0  0  0  0  0  0  0  0  0  0
  141.8364   77.1243  220.8105 H   0  0  0  0  0  0  0  0  0  0  0  0
  141.3573   76.0221  222.9921 H   0  0  0  0  0  0  0  0  0  0  0  0
  139.0650   75.1470  223.1040 H   0  0  0  0  0  0  0  0  0  0  0  0
  139.2805   77.4366  223.7190 H   0  0  0  0  0  0  0  0  0  0  0  0
  142.1813   77.7583  223.7515 H   0  0  0  0  0  0  0  0  0  0  0  0
  143.6196   79.7784  223.7967 H   0  0  0  0  0  0  0  0  0  0  0  0
  142.8283   81.9221  222.8013 H   0  0  0  0  0  0  0  0  0  0  0  0
  139.1599   79.9859  221.7201 H   0  0  0  0  0  0  0  0  0  0  0  0
  134.7663   77.2452  225.3267 H   0  0  0  0  0  0  0  0  0  0  0  0
  133.3037   76.2986  227.0785 H   0  0  0  0  0  0  0  0  0  0  0  0
  134.1984   72.4007  225.7177 H   0  0  0  0  0  0  0  0  0  0  0  0
  135.6852   73.2898  223.9377 H   0  0  0  0  0  0  0  0  0  0  0  0
  1  2  2  0
  2  3  1  0
  3  4  1  0
  4  5  1  0
  5  6  2  0
  5  7  1  0
  7  8  1  0
  8  9  1  0
  9 10  1  0
 10 11  1  0
 10 12  1  0
 12 13  1  0
 13 14  2  0
 14 15  1  0
 15 16  2  0
 16 17  1  0
 17 18  1  0
 17 19  2  0
  2 20  1  0
 20 21  2  0
 21 22  1  0
 22 23  2  0
 23 24  1  0
 24 25  2  0
 12  7  1  0
 19 13  1  0
 25 20  1  0
  3 26  1  0
  4 27  1  0
  4 28  1  0
  8 29  1  0
  8 30  1  0
  9 31  1  0
  9 32  1  0
 10 33  1  1
 11 34  1  0
 12 35  1  1
 14 36  1  0
 15 37  1  0
 16 38  1  0
 19 39  1  0
 21 40  1  0
 22 41  1  0
 24 42  1  0
 25 43  1  0
M  END
>  <meeko>  (12) 
{"free_energy": -6.2, "intermolecular_energy": -7.99, "internal_energy": -1.94, "cluster_size": 5, "cluster_id": 3, "rank_in_cluster": 5}

$$$$

     RDKit          3D

 43 45  0  0  0  0  0  0  0  0999 V2000
  135.2980   71.5830  223.0750 O   0  0  0  0  0  0  0  0  0  0  0  0
  135.4930   72.7080  223.6380 C   0  0  0  0  0  0  0  0  0  0  0  0
  136.5510   73.4900  223.0830 N   0  0  0  0  0  0  0  0  0  0  0  0
  137.3430   73.0400  221.9630 C   0  0  0  0  0  0  0  0  0  0  0  0
  138.7110   72.6620  222.3490 C   0  0  0  0  0  0  0  0  0  0  0  0
  139.7180   73.4060  222.2360 O   0  0  0  0  0  0  0  0  0  0  0  0
  138.9170   71.3630  222.8900 N   0  0  0  0  0  0  0  0  0  0  0  0
  139.8170   70.3450  222.3540 C   0  0  0  0  0  0  0  0  0  0  0  0
  139.2040   69.0120  222.7730 C   0  0  0  0  0  0  0  0  0  0  0  0
  137.9180   69.4110  223.4620 C   0  0  2  0  0  0  0  0  0  0  0  0
  136.9900   69.6670  222.4580 O   0  0  0  0  0  0  0  0  0  0  0  0
  138.3160   70.7450  224.0580 C   0  0  1  0  0  0  0  0  0  0  0  0
  139.3660   70.6220  225.0910 C   0  0  0  0  0  0  0  0  0  0  0  0
  140.3490   71.6010  225.1820 C   0  0  0  0  0  0  0  0  0  0  0  0
  141.3560   71.5200  226.1440 C   0  0  0  0  0  0  0  0  0  0  0  0
  141.4060   70.4620  227.0340 C   0  0  0  0  0  0  0  0  0  0  0  0
  140.4380   69.5030  226.9400 C   0  0  0  0  0  0  0  0  0  0  0  0
  140.5160   68.1620  228.0810 Cl  0  0  0  0  0  0  0  0  0  0  0  0
  139.4410   69.5890  225.9840 C   0  0  0  0  0  0  0  0  0  0  0  0
  134.7010   73.1640  224.7620 C   0  0  0  0  0  0  0  0  0  0  0  0
  133.9770   72.3300  225.5870 C   0  0  0  0  0  0  0  0  0  0  0  0
  133.2380   72.8190  226.6440 C   0  0  0  0  0  0  0  0  0  0  0  0
  133.2230   74.1380  226.8750 N   0  0  0  0  0  0  0  0  0  0  0  0
  133.9190   74.9760  226.0870 C   0  0  0  0  0  0  0  0  0  0  0  0
  134.6730   74.5230  225.0160 C   0  0  0  0  0  0  0  0  0  0  0  0
  136.7850   74.4270  223.4780 H   0  0  0  0  0  0  0  0  0  0  0  0
  136.8504   72.1656  221.5126 H   0  0  0  0  0  0  0  0  0  0  0  0
  137.4180   73.8764  221.2524 H   0  0  0  0  0  0  0  0  0  0  0  0
  139.8723   70.4170  221.2578 H   0  0  0  0  0  0  0  0  0  0  0  0
  140.8437   70.4630  222.7307 H   0  0  0  0  0  0  0  0  0  0  0  0
  138.9997   68.3809  221.8955 H   0  0  0  0  0  0  0  0  0  0  0  0
  139.8691   68.4209  223.4197 H   0  0  0  0  0  0  0  0  0  0  0  0
  137.5114   68.6804  224.1768 H   0  0  0  0  0  0  0  0  0  0  0  0
  136.4460   70.4750  222.6510 H   0  0  0  0  0  0  0  0  0  0  0  0
  137.4788   71.2682  224.5432 H   0  0  0  0  0  0  0  0  0  0  0  0
  140.3324   72.4520  224.4852 H   0  0  0  0  0  0  0  0  0  0  0  0
  142.1212   72.3086  226.1956 H   0  0  0  0  0  0  0  0  0  0  0  0
  142.1996   70.3953  227.7927 H   0  0  0  0  0  0  0  0  0  0  0  0
  138.6798   68.7961  225.9408 H   0  0  0  0  0  0  0  0  0  0  0  0
  133.9890   71.2465  225.3975 H   0  0  0  0  0  0  0  0  0  0  0  0
  132.6681   72.1341  227.2891 H   0  0  0  0  0  0  0  0  0  0  0  0
  133.8891   76.0550  226.2990 H   0  0  0  0  0  0  0  0  0  0  0  0
  135.2349   75.2266  224.3841 H   0  0  0  0  0  0  0  0  0  0  0  0
  1  2  2  0
  2  3  1  0
  3  4  1  0
  4  5  1  0
  5  6  2  0
  5  7  1  0
  7  8  1  0
  8  9  1  0
  9 10  1  0
 10 11  1  0
 10 12  1  0
 12 13  1  0
 13 14  2  0
 14 15  1  0
 15 16  2  0
 16 17  1  0
 17 18  1  0
 17 19  2  0
  2 20  1  0
 20 21  2  0
 21 22  1  0
 22 23  2  0
 23 24  1  0
 24 25  2  0
 12  7  1  0
 19 13  1  0
 25 20  1  0
  3 26  1  0
  4 27  1  0
  4 28  1  0
  8 29  1  0
  8 30  1  0
  9 31  1  0
  9 32  1  0
 10 33  1  1
 11 34  1  0
 12 35  1  1
 14 36  1  0
 15 37  1  0
 16 38  1  0
 19 39  1  0
 21 40  1  0
 22 41  1  0
 24 42  1  0
 25 43  1  0
M  END
>  <meeko>  (13) 
{"free_energy": -6.43, "intermolecular_energy": -8.22, "internal_energy": -2.22, "cluster_size": 4, "cluster_id": 5, "rank_in_cluster": 4}

$$$$

     RDKit          3D

 43 45  0  0  0  0  0  0  0  0999 V2000
  135.1660   77.0870  223.4800 O   0  0  0  0  0  0  0  0  0  0  0  0
  135.5200   75.9230  223.8560 C   0  0  0  0  0  0  0  0  0  0  0  0
  136.6820   75.4030  223.2060 N   0  0  0  0  0  0  0  0  0  0  0  0
  137.4030   76.1420  222.1980 C   0  0  0  0  0  0  0  0  0  0  0  0
  138.7920   75.6850  222.0430 C   0  0  0  0  0  0  0  0  0  0  0  0
  139.2060   74.5360  222.3440 O   0  0  0  0  0  0  0  0  0  0  0  0
  139.7410   76.6030  221.5160 N   0  0  0  0  0  0  0  0  0  0  0  0
  139.5560   77.4450  220.3370 C   0  0  0  0  0  0  0  0  0  0  0  0
  140.9590   77.6710  219.7840 C   0  0  0  0  0  0  0  0  0  0  0  0
  141.8380   76.8340  220.6870 C   0  0  2  0  0  0  0  0  0  0  0  0
  141.7350   75.5220  220.2400 O   0  0  0  0  0  0  0  0  0  0  0  0
  141.0740   76.9260  221.9930 C   0  0  1  0  0  0  0  0  0  0  0  0
  141.0350   78.2990  222.5390 C   0  0  0  0  0  0  0  0  0  0  0  0
  142.1960   79.0640  222.5410 C   0  0  0  0  0  0  0  0  0  0  0  0
  142.1980   80.3640  223.0470 C   0  0  0  0  0  0  0  0  0  0  0  0
  141.0450   80.9290  223.5620 C   0  0  0  0  0  0  0  0  0  0  0  0
  139.9070   80.1720  223.5580 C   0  0  0  0  0  0  0  0  0  0  0  0
  138.4470   80.9060  224.2170 Cl  0  0  0  0  0  0  0  0  0  0  0  0
  139.9110   78.8840  223.0540 C   0  0  0  0  0  0  0  0  0  0  0  0
  134.8000   75.1780  224.8680 C   0  0  0  0  0  0  0  0  0  0  0  0
  134.7770   73.8020  224.9440 C   0  0  0  0  0  0  0  0  0  0  0  0
  134.0730   73.1430  225.9290 C   0  0  0  0  0  0  0  0  0  0  0  0
  133.3950   73.8560  226.8370 N   0  0  0  0  0  0  0  0  0  0  0  0
  133.3990   75.2000  226.7880 C   0  0  0  0  0  0  0  0  0  0  0  0
  134.0940   75.8990  225.8130 C   0  0  0  0  0  0  0  0  0  0  0  0
  137.0470   74.4560  223.4490 H   0  0  0  0  0  0  0  0  0  0  0  0
  136.8839   76.0225  221.2356 H   0  0  0  0  0  0  0  0  0  0  0  0
  137.4335   77.1945  222.5163 H   0  0  0  0  0  0  0  0  0  0  0  0
  138.9257   76.9350  219.5936 H   0  0  0  0  0  0  0  0  0  0  0  0
  139.0530   78.3920  220.5825 H   0  0  0  0  0  0  0  0  0  0  0  0
  141.0295   77.3291  218.7409 H   0  0  0  0  0  0  0  0  0  0  0  0
  141.2473   78.7325  219.7722 H   0  0  0  0  0  0  0  0  0  0  0  0
  142.8948   77.1349  220.7389 H   0  0  0  0  0  0  0  0  0  0  0  0
  141.0300   75.0170  220.7240 H   0  0  0  0  0  0  0  0  0  0  0  0
  141.5014   76.2992  222.7895 H   0  0  0  0  0  0  0  0  0  0  0  0
  143.1265   78.6379  222.1377 H   0  0  0  0  0  0  0  0  0  0  0  0
  143.1299   80.9483  223.0363 H   0  0  0  0  0  0  0  0  0  0  0  0
  141.0441   81.9539  223.9616 H   0  0  0  0  0  0  0  0  0  0  0  0
  138.9740   78.3079  223.0679 H   0  0  0  0  0  0  0  0  0  0  0  0
  135.3347   73.2147  224.1996 H   0  0  0  0  0  0  0  0  0  0  0  0
  134.0683   72.0437  225.9686 H   0  0  0  0  0  0  0  0  0  0  0  0
  132.8331   75.7624  227.5453 H   0  0  0  0  0  0  0  0  0  0  0  0
  134.0839   76.9988  225.7919 H   0  0  0  0  0  0  0  0  0  0  0  0
  1  2  2  0
  2  3  1  0
  3  4  1  0
  4  5  1  0
  5  6  2  0
  5  7  1  0
  7  8  1  0
  8  9  1  0
  9 10  1  0
 10 11  1  0
 10 12  1  0
 12 13  1  0
 13 14  2  0
 14 15  1  0
 15 16  2  0
 16 17  1  0
 17 18  1  0
 17 19  2  0
  2 20  1  0
 20 21  2  0
 21 22  1  0
 22 23  2  0
 23 24  1  0
 24 25  2  0
 12  7  1  0
 19 13  1  0
 25 20  1  0
  3 26  1  0
  4 27  1  0
  4 28  1  0
  8 29  1  0
  8 30  1  0
  9 31  1  0
  9 32  1  0
 10 33  1  1
 11 34  1  0
 12 35  1  1
 14 36  1  0
 15 37  1  0
 16 38  1  0
 19 39  1  0
 21 40  1  0
 22 41  1  0
 24 42  1  0
 25 43  1  0
M  END
>  <meeko>  (14) 
{"free_energy": -6.62, "intermolecular_energy": -8.41, "internal_energy": -1.79, "cluster_size": 5, "cluster_id": 3, "rank_in_cluster": 3}

$$$$

     RDKit          3D

 43 45  0  0  0  0  0  0  0  0999 V2000
  141.7700   74.6360  220.4990 O   0  0  0  0  0  0  0  0  0  0  0  0
  142.8660   75.1870  220.1580 C   0  0  0  0  0  0  0  0  0  0  0  0
  142.8240   76.6120  220.0590 N   0  0  0  0  0  0  0  0  0  0  0  0
  141.6270   77.3730  220.3260 C   0  0  0  0  0  0  0  0  0  0  0  0
  141.8320   78.8220  220.1890 C   0  0  0  0  0  0  0  0  0  0  0  0
  142.2830   79.3880  219.1600 O   0  0  0  0  0  0  0  0  0  0  0  0
  141.5010   79.6510  221.2960 N   0  0  0  0  0  0  0  0  0  0  0  0
  141.2980   81.0960  221.2530 C   0  0  0  0  0  0  0  0  0  0  0  0
  141.6680   81.5910  222.6480 C   0  0  0  0  0  0  0  0  0  0  0  0
  142.1450   80.3420  223.3560 C   0  0  2  0  0  0  0  0  0  0  0  0
  143.4560   80.1270  222.9460 O   0  0  0  0  0  0  0  0  0  0  0  0
  141.2860   79.2890  222.6860 C   0  0  1  0  0  0  0  0  0  0  0  0
  139.8460   79.4540  222.9750 C   0  0  0  0  0  0  0  0  0  0  0  0
  138.9180   78.7080  222.2580 C   0  0  0  0  0  0  0  0  0  0  0  0
  137.5510   78.8350  222.5030 C   0  0  0  0  0  0  0  0  0  0  0  0
  137.0790   79.7090  223.4670 C   0  0  0  0  0  0  0  0  0  0  0  0
  137.9950   80.4400  224.1680 C   0  0  0  0  0  0  0  0  0  0  0  0
  137.3790   81.5480  225.3920 Cl  0  0  0  0  0  0  0  0  0  0  0  0
  139.3510   80.3090  223.9210 C   0  0  0  0  0  0  0  0  0  0  0  0
  144.0700   74.4280  219.8900 C   0  0  0  0  0  0  0  0  0  0  0  0
  145.0450   74.1690  220.8290 C   0  0  0  0  0  0  0  0  0  0  0  0
  146.1740   73.4400  220.5190 C   0  0  0  0  0  0  0  0  0  0  0  0
  146.3270   72.9700  219.2740 N   0  0  0  0  0  0  0  0  0  0  0  0
  145.3910   73.2060  218.3380 C   0  0  0  0  0  0  0  0  0  0  0  0
  144.2440   73.9340  218.6110 C   0  0  0  0  0  0  0  0  0  0  0  0
  143.6740   77.1510  219.7860 H   0  0  0  0  0  0  0  0  0  0  0  0
  140.8459   77.0598  219.6176 H   0  0  0  0  0  0  0  0  0  0  0  0
  141.3347   77.1765  221.3681 H   0  0  0  0  0  0  0  0  0  0  0  0
  141.9495   81.5551  220.4949 H   0  0  0  0  0  0  0  0  0  0  0  0
  140.2647   81.3592  220.9829 H   0  0  0  0  0  0  0  0  0  0  0  0
  142.4687   82.3436  222.5978 H   0  0  0  0  0  0  0  0  0  0  0  0
  140.8283   82.0795  223.1640 H   0  0  0  0  0  0  0  0  0  0  0  0
  142.0897   80.3639  224.4544 H   0  0  0  0  0  0  0  0  0  0  0  0
  143.5020   79.7180  222.0420 H   0  0  0  0  0  0  0  0  0  0  0  0
  141.5377   78.2640  222.9960 H   0  0  0  0  0  0  0  0  0  0  0  0
  139.2671   78.0069  221.4856 H   0  0  0  0  0  0  0  0  0  0  0  0
  136.8377   78.2320  221.9219 H   0  0  0  0  0  0  0  0  0  0  0  0
  136.0013   79.8114  223.6620 H   0  0  0  0  0  0  0  0  0  0  0  0
  140.0568   80.9153  224.5076 H   0  0  0  0  0  0  0  0  0  0  0  0
  144.9195   74.5536  221.8519 H   0  0  0  0  0  0  0  0  0  0  0  0
  146.9396   73.2469  221.2849 H   0  0  0  0  0  0  0  0  0  0  0  0
  145.5406   72.8085  217.3233 H   0  0  0  0  0  0  0  0  0  0  0  0
  143.4911   74.1142  217.8296 H   0  0  0  0  0  0  0  0  0  0  0  0
  1  2  2  0
  2  3  1  0
  3  4  1  0
  4  5  1  0
  5  6  2  0
  5  7  1  0
  7  8  1  0
  8  9  1  0
  9 10  1  0
 10 11  1  0
 10 12  1  0
 12 13  1  0
 13 14  2  0
 14 15  1  0
 15 16  2  0
 16 17  1  0
 17 18  1  0
 17 19  2  0
  2 20  1  0
 20 21  2  0
 21 22  1  0
 22 23  2  0
 23 24  1  0
 24 25  2  0
 12  7  1  0
 19 13  1  0
 25 20  1  0
  3 26  1  0
  4 27  1  0
  4 28  1  0
  8 29  1  0
  8 30  1  0
  9 31  1  0
  9 32  1  0
 10 33  1  1
 11 34  1  0
 12 35  1  6
 14 36  1  0
 15 37  1  0
 16 38  1  0
 19 39  1  0
 21 40  1  0
 22 41  1  0
 24 42  1  0
 25 43  1  0
M  END
>  <meeko>  (15) 
{"free_energy": -7.48, "intermolecular_energy": -9.27, "internal_energy": -1.17, "cluster_size": 4, "cluster_id": 1, "rank_in_cluster": 1}

$$$$

     RDKit          3D

 43 45  0  0  0  0  0  0  0  0999 V2000
  140.4550   77.3640  219.9740 O   0  0  0  0  0  0  0  0  0  0  0  0
  141.5850   77.8210  220.3420 C   0  0  0  0  0  0  0  0  0  0  0  0
  142.6870   77.4620  219.5060 N   0  0  0  0  0  0  0  0  0  0  0  0
  142.5310   76.6410  218.3290 C   0  0  0  0  0  0  0  0  0  0  0  0
  143.6500   75.7070  218.1360 C   0  0  0  0  0  0  0  0  0  0  0  0
  144.3890   75.6760  217.1180 O   0  0  0  0  0  0  0  0  0  0  0  0
  143.9220   74.7680  219.1680 N   0  0  0  0  0  0  0  0  0  0  0  0
  144.5770   75.0600  220.4400 C   0  0  0  0  0  0  0  0  0  0  0  0
  145.2510   73.7540  220.8500 C   0  0  0  0  0  0  0  0  0  0  0  0
  144.9770   72.8300  219.6840 C   0  0  2  0  0  0  0  0  0  0  0  0
  145.9020   73.1470  218.6960 O   0  0  0  0  0  0  0  0  0  0  0  0
  143.6300   73.3470  219.2220 C   0  0  1  0  0  0  0  0  0  0  0  0
  142.5620   73.1450  220.2250 C   0  0  0  0  0  0  0  0  0  0  0  0
  142.4490   71.9130  220.8590 C   0  0  0  0  0  0  0  0  0  0  0  0
  141.4560   71.6860  221.8110 C   0  0  0  0  0  0  0  0  0  0  0  0
  140.5550   72.6790  222.1510 C   0  0  0  0  0  0  0  0  0  0  0  0
  140.6710   73.8870  221.5240 C   0  0  0  0  0  0  0  0  0  0  0  0
  139.5160   75.1420  221.9690 Cl  0  0  0  0  0  0  0  0  0  0  0  0
  141.6590   74.1080  220.5810 C   0  0  0  0  0  0  0  0  0  0  0  0
  141.7460   78.6460  221.5220 C   0  0  0  0  0  0  0  0  0  0  0  0
  142.1990   79.9470  221.4990 C   0  0  0  0  0  0  0  0  0  0  0  0
  142.3350   80.6880  222.6550 C   0  0  0  0  0  0  0  0  0  0  0  0
  142.0160   80.1300  223.8300 N   0  0  0  0  0  0  0  0  0  0  0  0
  141.5710   78.8620  223.8830 C   0  0  0  0  0  0  0  0  0  0  0  0
  141.4220   78.0860  222.7440 C   0  0  0  0  0  0  0  0  0  0  0  0
  143.6520   77.7910  219.7280 H   0  0  0  0  0  0  0  0  0  0  0  0
  141.6012   76.0611  218.4252 H   0  0  0  0  0  0  0  0  0  0  0  0
  142.5040   77.3116  217.4575 H   0  0  0  0  0  0  0  0  0  0  0  0
  145.3243   75.8575  220.3153 H   0  0  0  0  0  0  0  0  0  0  0  0
  143.8632   75.4112  221.1997 H   0  0  0  0  0  0  0  0  0  0  0  0
  146.3324   73.8978  220.9913 H   0  0  0  0  0  0  0  0  0  0  0  0
  144.8734   73.3600  221.8051 H   0  0  0  0  0  0  0  0  0  0  0  0
  145.0158   71.7536  219.9074 H   0  0  0  0  0  0  0  0  0  0  0  0
  145.6980   74.0160  218.2600 H   0  0  0  0  0  0  0  0  0  0  0  0
  143.2722   72.8601  218.3028 H   0  0  0  0  0  0  0  0  0  0  0  0
  143.1527   71.1062  220.6061 H   0  0  0  0  0  0  0  0  0  0  0  0
  141.3880   70.7025  222.2990 H   0  0  0  0  0  0  0  0  0  0  0  0
  139.7708   72.5017  222.9017 H   0  0  0  0  0  0  0  0  0  0  0  0
  141.7203   75.0952  220.0997 H   0  0  0  0  0  0  0  0  0  0  0  0
  142.4590   80.4068  220.5341 H   0  0  0  0  0  0  0  0  0  0  0  0
  142.7010   81.7244  222.6120 H   0  0  0  0  0  0  0  0  0  0  0  0
  141.3173   78.4269  224.8609 H   0  0  0  0  0  0  0  0  0  0  0  0
  141.0553   77.0511  222.8107 H   0  0  0  0  0  0  0  0  0  0  0  0
  1  2  2  0
  2  3  1  0
  3  4  1  0
  4  5  1  0
  5  6  2  0
  5  7  1  0
  7  8  1  0
  8  9  1  0
  9 10  1  0
 10 11  1  0
 10 12  1  0
 12 13  1  0
 13 14  2  0
 14 15  1  0
 15 16  2  0
 16 17  1  0
 17 18  1  0
 17 19  2  0
  2 20  1  0
 20 21  2  0
 21 22  1  0
 22 23  2  0
 23 24  1  0
 24 25  2  0
 12  7  1  0
 19 13  1  0
 25 20  1  0
  3 26  1  0
  4 27  1  0
  4 28  1  0
  8 29  1  0
  8 30  1  0
  9 31  1  0
  9 32  1  0
 10 33  1  1
 11 34  1  0
 12 35  1  6
 14 36  1  0
 15 37  1  0
 16 38  1  0
 19 39  1  0
 21 40  1  0
 22 41  1  0
 24 42  1  0
 25 43  1  0
M  END
>  <meeko>  (16) 
{"free_energy": -6.54, "intermolecular_energy": -8.33, "internal_energy": -2.16, "cluster_size": 6, "cluster_id": 4, "rank_in_cluster": 5}

$$$$

     RDKit          3D

 43 45  0  0  0  0  0  0  0  0999 V2000
  135.1270   76.9910  223.2990 O   0  0  0  0  0  0  0  0  0  0  0  0
  135.5170   75.8680  223.7540 C   0  0  0  0  0  0  0  0  0  0  0  0
  136.7030   75.3470  223.1500 N   0  0  0  0  0  0  0  0  0  0  0  0
  137.4090   76.0430  222.1010 C   0  0  0  0  0  0  0  0  0  0  0  0
  138.8220   75.6490  222.0070 C   0  0  0  0  0  0  0  0  0  0  0  0
  139.2760   74.5270  222.3490 O   0  0  0  0  0  0  0  0  0  0  0  0
  139.7470   76.5990  221.4950 N   0  0  0  0  0  0  0  0  0  0  0  0
  139.5340   77.4640  220.3390 C   0  0  0  0  0  0  0  0  0  0  0  0
  140.9290   77.7330  219.7800 C   0  0  0  0  0  0  0  0  0  0  0  0
  141.8320   76.8930  220.6560 C   0  0  2  0  0  0  0  0  0  0  0  0
  141.7530   75.5910  220.1780 O   0  0  0  0  0  0  0  0  0  0  0  0
  141.0780   76.9380  221.9690 C   0  0  1  0  0  0  0  0  0  0  0  0
  141.0150   78.2960  222.5490 C   0  0  0  0  0  0  0  0  0  0  0  0
  142.1660   79.0740  222.5870 C   0  0  0  0  0  0  0  0  0  0  0  0
  142.1460   80.3600  223.1260 C   0  0  0  0  0  0  0  0  0  0  0  0
  140.9800   80.8990  223.6380 C   0  0  0  0  0  0  0  0  0  0  0  0
  139.8510   80.1300  223.5980 C   0  0  0  0  0  0  0  0  0  0  0  0
  138.3730   80.8310  224.2550 Cl  0  0  0  0  0  0  0  0  0  0  0  0
  139.8760   78.8550  223.0620 C   0  0  0  0  0  0  0  0  0  0  0  0
  134.8130   75.1660  224.8070 C   0  0  0  0  0  0  0  0  0  0  0  0
  134.7380   73.7930  224.9040 C   0  0  0  0  0  0  0  0  0  0  0  0
  134.0520   73.1750  225.9290 C   0  0  0  0  0  0  0  0  0  0  0  0
  133.4430   73.9280  226.8550 N   0  0  0  0  0  0  0  0  0  0  0  0
  133.5000   75.2700  226.7850 C   0  0  0  0  0  0  0  0  0  0  0  0
  134.1780   75.9270  225.7710 C   0  0  0  0  0  0  0  0  0  0  0  0
  137.0990   74.4320  223.4580 H   0  0  0  0  0  0  0  0  0  0  0  0
  136.9183   75.8233  221.1414 H   0  0  0  0  0  0  0  0  0  0  0  0
  137.3796   77.1168  222.3379 H   0  0  0  0  0  0  0  0  0  0  0  0
  138.9083   76.9585  219.5887 H   0  0  0  0  0  0  0  0  0  0  0  0
  139.0130   78.3938  220.6109 H   0  0  0  0  0  0  0  0  0  0  0  0
  140.9981   77.4177  218.7284 H   0  0  0  0  0  0  0  0  0  0  0  0
  141.1952   78.8002  219.7913 H   0  0  0  0  0  0  0  0  0  0  0  0
  142.8827   77.2144  220.7074 H   0  0  0  0  0  0  0  0  0  0  0  0
  141.0850   75.0510  220.6770 H   0  0  0  0  0  0  0  0  0  0  0  0
  141.5255   76.3013  222.7464 H   0  0  0  0  0  0  0  0  0  0  0  0
  143.1069   78.6693  222.1859 H   0  0  0  0  0  0  0  0  0  0  0  0
  143.0714   80.9544  223.1442 H   0  0  0  0  0  0  0  0  0  0  0  0
  140.9618   81.9132  224.0634 H   0  0  0  0  0  0  0  0  0  0  0  0
  138.9455   78.2685  223.0476 H   0  0  0  0  0  0  0  0  0  0  0  0
  135.2381   73.1741  224.1445 H   0  0  0  0  0  0  0  0  0  0  0  0
  134.0055   72.0774  225.9854 H   0  0  0  0  0  0  0  0  0  0  0  0
  132.9918   75.8652  227.5580 H   0  0  0  0  0  0  0  0  0  0  0  0
  134.2103   77.0259  225.7338 H   0  0  0  0  0  0  0  0  0  0  0  0
  1  2  2  0
  2  3  1  0
  3  4  1  0
  4  5  1  0
  5  6  2  0
  5  7  1  0
  7  8  1  0
  8  9  1  0
  9 10  1  0
 10 11  1  0
 10 12  1  0
 12 13  1  0
 13 14  2  0
 14 15  1  0
 15 16  2  0
 16 17  1  0
 17 18  1  0
 17 19  2  0
  2 20  1  0
 20 21  2  0
 21 22  1  0
 22 23  2  0
 23 24  1  0
 24 25  2  0
 12  7  1  0
 19 13  1  0
 25 20  1  0
  3 26  1  0
  4 27  1  0
  4 28  1  0
  8 29  1  0
  8 30  1  0
  9 31  1  0
  9 32  1  0
 10 33  1  1
 11 34  1  0
 12 35  1  1
 14 36  1  0
 15 37  1  0
 16 38  1  0
 19 39  1  0
 21 40  1  0
 22 41  1  0
 24 42  1  0
 25 43  1  0
M  END
>  <meeko>  (17) 
{"free_energy": -6.64, "intermolecular_energy": -8.43, "internal_energy": -1.75, "cluster_size": 5, "cluster_id": 3, "rank_in_cluster": 1}

$$$$

     RDKit          3D

 43 45  0  0  0  0  0  0  0  0999 V2000
  135.2950   71.6060  222.9750 O   0  0  0  0  0  0  0  0  0  0  0  0
  135.4980   72.7020  223.5910 C   0  0  0  0  0  0  0  0  0  0  0  0
  136.5650   73.5010  223.0740 N   0  0  0  0  0  0  0  0  0  0  0  0
  137.3550   73.0950  221.9360 C   0  0  0  0  0  0  0  0  0  0  0  0
  138.7050   72.6480  222.3120 C   0  0  0  0  0  0  0  0  0  0  0  0
  139.7240   73.3840  222.3310 O   0  0  0  0  0  0  0  0  0  0  0  0
  138.8770   71.2860  222.6810 N   0  0  0  0  0  0  0  0  0  0  0  0
  139.9280   70.3940  222.1990 C   0  0  0  0  0  0  0  0  0  0  0  0
  139.3280   68.9940  222.2730 C   0  0  0  0  0  0  0  0  0  0  0  0
  137.9060   69.2380  222.7290 C   0  0  2  0  0  0  0  0  0  0  0  0
  137.1880   69.6250  221.6040 O   0  0  0  0  0  0  0  0  0  0  0  0
  138.0910   70.4700  223.5910 C   0  0  1  0  0  0  0  0  0  0  0  0
  138.9160   70.2140  224.7900 C   0  0  0  0  0  0  0  0  0  0  0  0
  138.9330   68.9390  225.3440 C   0  0  0  0  0  0  0  0  0  0  0  0
  139.7000   68.6580  226.4750 C   0  0  0  0  0  0  0  0  0  0  0  0
  140.4660   69.6390  227.0770 C   0  0  0  0  0  0  0  0  0  0  0  0
  140.4460   70.8910  226.5290 C   0  0  0  0  0  0  0  0  0  0  0  0
  141.4260   72.1300  227.3070 Cl  0  0  0  0  0  0  0  0  0  0  0  0
  139.6830   71.1640  225.4060 C   0  0  0  0  0  0  0  0  0  0  0  0
  134.7070   73.1130  224.7320 C   0  0  0  0  0  0  0  0  0  0  0  0
  134.0310   72.2410  225.5580 C   0  0  0  0  0  0  0  0  0  0  0  0
  133.2910   72.6870  226.6330 C   0  0  0  0  0  0  0  0  0  0  0  0
  133.2270   74.0010  226.8820 N   0  0  0  0  0  0  0  0  0  0  0  0
  133.8770   74.8760  226.0940 C   0  0  0  0  0  0  0  0  0  0  0  0
  134.6310   74.4660  225.0050 C   0  0  0  0  0  0  0  0  0  0  0  0
  136.8050   74.4160  223.5130 H   0  0  0  0  0  0  0  0  0  0  0  0
  136.8394   72.2673  221.4270 H   0  0  0  0  0  0  0  0  0  0  0  0
  137.4660   73.9706  221.2794 H   0  0  0  0  0  0  0  0  0  0  0  0
  140.2002   70.6429  221.1627 H   0  0  0  0  0  0  0  0  0  0  0  0
  140.8471   70.4799  222.7973 H   0  0  0  0  0  0  0  0  0  0  0  0
  139.3458   68.5068  221.2869 H   0  0  0  0  0  0  0  0  0  0  0  0
  139.8840   68.3266  222.9479 H   0  0  0  0  0  0  0  0  0  0  0  0
  137.4091   68.3900  223.2230 H   0  0  0  0  0  0  0  0  0  0  0  0
  136.5840   70.3910  221.7920 H   0  0  0  0  0  0  0  0  0  0  0  0
  137.1420   70.8828  223.9638 H   0  0  0  0  0  0  0  0  0  0  0  0
  138.3330   68.1401  224.8839 H   0  0  0  0  0  0  0  0  0  0  0  0
  139.6952   67.6409  226.8940 H   0  0  0  0  0  0  0  0  0  0  0  0
  141.0720   69.4190  227.9683 H   0  0  0  0  0  0  0  0  0  0  0  0
  139.6943   72.1838  224.9938 H   0  0  0  0  0  0  0  0  0  0  0  0
  134.0831   71.1612  225.3545 H   0  0  0  0  0  0  0  0  0  0  0  0
  132.7597   71.9717  227.2781 H   0  0  0  0  0  0  0  0  0  0  0  0
  133.8083   75.9502  226.3205 H   0  0  0  0  0  0  0  0  0  0  0  0
  135.1554   75.1989  224.3742 H   0  0  0  0  0  0  0  0  0  0  0  0
  1  2  2  0
  2  3  1  0
  3  4  1  0
  4  5  1  0
  5  6  2  0
  5  7  1  0
  7  8  1  0
  8  9  1  0
  9 10  1  0
 10 11  1  0
 10 12  1  0
 12 13  1  0
 13 14  2  0
 14 15  1  0
 15 16  2  0
 16 17  1  0
 17 18  1  0
 17 19  2  0
  2 20  1  0
 20 21  2  0
 21 22  1  0
 22 23  2  0
 23 24  1  0
 24 25  2  0
 12  7  1  0
 19 13  1  0
 25 20  1  0
  3 26  1  0
  4 27  1  0
  4 28  1  0
  8 29  1  0
  8 30  1  0
  9 31  1  0
  9 32  1  0
 10 33  1  1
 11 34  1  0
 12 35  1  1
 14 36  1  0
 15 37  1  0
 16 38  1  0
 19 39  1  0
 21 40  1  0
 22 41  1  0
 24 42  1  0
 25 43  1  0
M  END
>  <meeko>  (18) 
{"free_energy": -6.47, "intermolecular_energy": -8.26, "internal_energy": -2.24, "cluster_size": 4, "cluster_id": 5, "rank_in_cluster": 2}

$$$$

     RDKit          3D

 43 45  0  0  0  0  0  0  0  0999 V2000
  140.4860   77.6610  219.7160 O   0  0  0  0  0  0  0  0  0  0  0  0
  141.6180   77.8920  220.2500 C   0  0  0  0  0  0  0  0  0  0  0  0
  142.7410   77.3560  219.5480 N   0  0  0  0  0  0  0  0  0  0  0  0
  142.6030   76.6060  218.3220 C   0  0  0  0  0  0  0  0  0  0  0  0
  143.6870   75.6310  218.1270 C   0  0  0  0  0  0  0  0  0  0  0  0
  144.4090   75.5590  217.0990 O   0  0  0  0  0  0  0  0  0  0  0  0
  143.9420   74.7000  219.1700 N   0  0  0  0  0  0  0  0  0  0  0  0
  144.6110   74.9920  220.4350 C   0  0  0  0  0  0  0  0  0  0  0  0
  145.2570   73.6770  220.8580 C   0  0  0  0  0  0  0  0  0  0  0  0
  144.9550   72.7440  219.7060 C   0  0  2  0  0  0  0  0  0  0  0  0
  145.8820   73.0270  218.7090 O   0  0  0  0  0  0  0  0  0  0  0  0
  143.6180   73.2860  219.2440 C   0  0  1  0  0  0  0  0  0  0  0  0
  142.5520   73.1220  220.2550 C   0  0  0  0  0  0  0  0  0  0  0  0
  142.4230   71.9070  220.9160 C   0  0  0  0  0  0  0  0  0  0  0  0
  141.4300   71.7150  221.8780 C   0  0  0  0  0  0  0  0  0  0  0  0
  140.5450   72.7280  222.1990 C   0  0  0  0  0  0  0  0  0  0  0  0
  140.6760   73.9210  221.5450 C   0  0  0  0  0  0  0  0  0  0  0  0
  139.5420   75.2020  221.9660 Cl  0  0  0  0  0  0  0  0  0  0  0  0
  141.6640   74.1060  220.5930 C   0  0  0  0  0  0  0  0  0  0  0  0
  141.7620   78.6450  221.4790 C   0  0  0  0  0  0  0  0  0  0  0  0
  142.1950   79.9520  221.5390 C   0  0  0  0  0  0  0  0  0  0  0  0
  142.3150   80.6210  222.7380 C   0  0  0  0  0  0  0  0  0  0  0  0
  142.0000   79.9870  223.8750 N   0  0  0  0  0  0  0  0  0  0  0  0
  141.5740   78.7120  223.8480 C   0  0  0  0  0  0  0  0  0  0  0  0
  141.4420   78.0050  222.6620 C   0  0  0  0  0  0  0  0  0  0  0  0
  143.7100   77.4950  219.9090 H   0  0  0  0  0  0  0  0  0  0  0  0
  141.6447   76.0665  218.3457 H   0  0  0  0  0  0  0  0  0  0  0  0
  142.6467   77.3221  217.4882 H   0  0  0  0  0  0  0  0  0  0  0  0
  145.3757   75.7705  220.2963 H   0  0  0  0  0  0  0  0  0  0  0  0
  143.9094   75.3685  221.1940 H   0  0  0  0  0  0  0  0  0  0  0  0
  146.3422   73.7978  220.9912 H   0  0  0  0  0  0  0  0  0  0  0  0
  144.8761   73.3044  221.8203 H   0  0  0  0  0  0  0  0  0  0  0  0
  144.9699   71.6701  219.9435 H   0  0  0  0  0  0  0  0  0  0  0  0
  145.7050   73.9020  218.2730 H   0  0  0  0  0  0  0  0  0  0  0  0
  143.2444   72.7957  218.3329 H   0  0  0  0  0  0  0  0  0  0  0  0
  143.1133   71.0844  220.6779 H   0  0  0  0  0  0  0  0  0  0  0  0
  141.3502   70.7438  222.3882 H   0  0  0  0  0  0  0  0  0  0  0  0
  139.7611   72.5785  222.9561 H   0  0  0  0  0  0  0  0  0  0  0  0
  141.7377   75.0812  220.0894 H   0  0  0  0  0  0  0  0  0  0  0  0
  142.4515   80.4748  220.6058 H   0  0  0  0  0  0  0  0  0  0  0  0
  142.6654   81.6635  222.7609 H   0  0  0  0  0  0  0  0  0  0  0  0
  141.3223   78.2141  224.7960 H   0  0  0  0  0  0  0  0  0  0  0  0
  141.0918   76.9622  222.6626 H   0  0  0  0  0  0  0  0  0  0  0  0
  1  2  2  0
  2  3  1  0
  3  4  1  0
  4  5  1  0
  5  6  2  0
  5  7  1  0
  7  8  1  0
  8  9  1  0
  9 10  1  0
 10 11  1  0
 10 12  1  0
 12 13  1  0
 13 14  2  0
 14 15  1  0
 15 16  2  0
 16 17  1  0
 17 18  1  0
 17 19  2  0
  2 20  1  0
 20 21  2  0
 21 22  1  0
 22 23  2  0
 23 24  1  0
 24 25  2  0
 12  7  1  0
 19 13  1  0
 25 20  1  0
  3 26  1  0
  4 27  1  0
  4 28  1  0
  8 29  1  0
  8 30  1  0
  9 31  1  0
  9 32  1  0
 10 33  1  1
 11 34  1  0
 12 35  1  6
 14 36  1  0
 15 37  1  0
 16 38  1  0
 19 39  1  0
 21 40  1  0
 22 41  1  0
 24 42  1  0
 25 43  1  0
M  END
>  <meeko>  (19) 
{"free_energy": -6.57, "intermolecular_energy": -8.36, "internal_energy": -2.14, "cluster_size": 6, "cluster_id": 4, "rank_in_cluster": 3}

$$$$

     RDKit          3D

 43 45  0  0  0  0  0  0  0  0999 V2000
  141.8030   74.6340  220.6330 O   0  0  0  0  0  0  0  0  0  0  0  0
  142.8640   75.1810  220.1900 C   0  0  0  0  0  0  0  0  0  0  0  0
  142.8170   76.6060  220.0910 N   0  0  0  0  0  0  0  0  0  0  0  0
  141.6520   77.3710  220.4660 C   0  0  0  0  0  0  0  0  0  0  0  0
  141.8240   78.8140  220.2470 C   0  0  0  0  0  0  0  0  0  0  0  0
  142.2620   79.3300  219.1860 O   0  0  0  0  0  0  0  0  0  0  0  0
  141.4740   79.6970  221.3040 N   0  0  0  0  0  0  0  0  0  0  0  0
  141.2550   81.1360  221.1830 C   0  0  0  0  0  0  0  0  0  0  0  0
  141.6070   81.7090  222.5520 C   0  0  0  0  0  0  0  0  0  0  0  0
  142.0930   80.5060  223.3290 C   0  0  2  0  0  0  0  0  0  0  0  0
  143.4100   80.2850  222.9410 O   0  0  0  0  0  0  0  0  0  0  0  0
  141.2520   79.4080  222.7100 C   0  0  1  0  0  0  0  0  0  0  0  0
  139.8070   79.5720  222.9800 C   0  0  0  0  0  0  0  0  0  0  0  0
  138.8900   78.8420  222.2330 C   0  0  0  0  0  0  0  0  0  0  0  0
  137.5190   78.9680  222.4580 C   0  0  0  0  0  0  0  0  0  0  0  0
  137.0340   79.8230  223.4310 C   0  0  0  0  0  0  0  0  0  0  0  0
  137.9400   80.5380  224.1620 C   0  0  0  0  0  0  0  0  0  0  0  0
  137.3060   81.6230  225.3970 Cl  0  0  0  0  0  0  0  0  0  0  0  0
  139.2990   80.4090  223.9340 C   0  0  0  0  0  0  0  0  0  0  0  0
  144.0360   74.4180  219.8120 C   0  0  0  0  0  0  0  0  0  0  0  0
  144.2730   73.9470  218.5390 C   0  0  0  0  0  0  0  0  0  0  0  0
  145.4070   73.2230  218.2340 C   0  0  0  0  0  0  0  0  0  0  0  0
  146.3010   72.9720  219.1990 N   0  0  0  0  0  0  0  0  0  0  0  0
  146.0960   73.4190  220.4500 C   0  0  0  0  0  0  0  0  0  0  0  0
  144.9690   74.1490  220.7960 C   0  0  0  0  0  0  0  0  0  0  0  0
  143.6390   77.1420  219.7380 H   0  0  0  0  0  0  0  0  0  0  0  0
  140.7963   77.0242  219.8680 H   0  0  0  0  0  0  0  0  0  0  0  0
  141.4866   77.2166  221.5425 H   0  0  0  0  0  0  0  0  0  0  0  0
  141.9078   81.5619  220.4068 H   0  0  0  0  0  0  0  0  0  0  0  0
  140.2210   81.3720  220.8913 H   0  0  0  0  0  0  0  0  0  0  0  0
  142.3988   82.4679  222.4680 H   0  0  0  0  0  0  0  0  0  0  0  0
  140.7571   82.2137  223.0346 H   0  0  0  0  0  0  0  0  0  0  0  0
  142.0286   80.5863  224.4242 H   0  0  0  0  0  0  0  0  0  0  0  0
  143.4670   79.7960  222.0780 H   0  0  0  0  0  0  0  0  0  0  0  0
  141.5131   78.4040  223.0759 H   0  0  0  0  0  0  0  0  0  0  0  0
  139.2505   78.1550  221.4532 H   0  0  0  0  0  0  0  0  0  0  0  0
  136.8138   78.3791  221.8531 H   0  0  0  0  0  0  0  0  0  0  0  0
  135.9535   79.9240  223.6105 H   0  0  0  0  0  0  0  0  0  0  0  0
  139.9966   81.0023  224.5434 H   0  0  0  0  0  0  0  0  0  0  0  0
  143.5394   74.1535  217.7458 H   0  0  0  0  0  0  0  0  0  0  0  0
  145.5749   72.8563  217.2106 H   0  0  0  0  0  0  0  0  0  0  0  0
  146.8461   73.1987  221.2238 H   0  0  0  0  0  0  0  0  0  0  0  0
  144.8212   74.5047  221.8264 H   0  0  0  0  0  0  0  0  0  0  0  0
  1  2  2  0
  2  3  1  0
  3  4  1  0
  4  5  1  0
  5  6  2  0
  5  7  1  0
  7  8  1  0
  8  9  1  0
  9 10  1  0
 10 11  1  0
 10 12  1  0
 12 13  1  0
 13 14  2  0
 14 15  1  0
 15 16  2  0
 16 17  1  0
 17 18  1  0
 17 19  2  0
  2 20  1  0
 20 21  2  0
 21 22  1  0
 22 23  2  0
 23 24  1  0
 24 25  2  0
 12  7  1  0
 19 13  1  0
 25 20  1  0
  3 26  1  0
  4 27  1  0
  4 28  1  0
  8 29  1  0
  8 30  1  0
  9 31  1  0
  9 32  1  0
 10 33  1  1
 11 34  1  0
 12 35  1  1
 14 36  1  0
 15 37  1  0
 16 38  1  0
 19 39  1  0
 21 40  1  0
 22 41  1  0
 24 42  1  0
 25 43  1  0
M  END
>  <meeko>  (20) 
{"free_energy": -7.35, "intermolecular_energy": -9.14, "internal_energy": -1.24, "cluster_size": 4, "cluster_id": 1, "rank_in_cluster": 3}

$$$$
