
     RDKit          3D

 56 59  0  0  0  0  0  0  0  0999 V2000
  137.3800   72.6270  222.6180 O   0  0  0  0  0  0  0  0  0  0  0  0
  138.3770   71.8780  222.4740 C   0  0  0  0  0  0  0  0  0  0  0  0
  139.1340   71.9240  221.2640 N   0  0  0  0  0  0  0  0  0  0  0  0
  140.5460   72.2740  221.2150 C   0  0  0  0  0  0  0  0  0  0  0  0
  140.7100   73.7640  221.3610 C   0  0  0  0  0  0  0  0  0  0  0  0
  139.8910   74.3810  222.3210 O   0  0  0  0  0  0  0  0  0  0  0  0
  141.5380   74.4680  220.6180 N   0  0  0  0  0  0  0  0  0  0  0  0
  142.4200   73.8470  219.6320 C   0  0  0  0  0  0  0  0  0  0  0  0
  143.5130   74.8620  219.3090 C   0  0  2  0  0  0  0  0  0  0  0  0
  144.7180   74.5180  219.9490 O   0  0  0  0  0  0  0  0  0  0  0  0
  143.0120   76.2050  219.8380 C   0  0  0  0  0  0  0  0  0  0  0  0
  141.8180   75.9060  220.7650 C   0  0  1  0  0  0  0  0  0  0  0  0
  140.5810   76.7840  220.4150 C   0  0  0  0  0  0  0  0  0  0  0  0
  139.9160   77.2050  221.6030 O   0  0  0  0  0  0  0  0  0  0  0  0
  140.8240   77.4060  222.6760 C   0  0  0  0  0  0  0  0  0  0  0  0
  141.1900   78.8610  222.8200 C   0  0  0  0  0  0  0  0  0  0  0  0
  142.2050   79.2440  223.7130 C   0  0  0  0  0  0  0  0  0  0  0  0
  142.5600   80.5900  223.8400 C   0  0  0  0  0  0  0  0  0  0  0  0
  141.8980   81.5600  223.0820 C   0  0  0  0  0  0  0  0  0  0  0  0
  140.8830   81.1850  222.1950 C   0  0  0  0  0  0  0  0  0  0  0  0
  140.5310   79.8390  222.0620 C   0  0  0  0  0  0  0  0  0  0  0  0
  138.7930   70.9900  223.5790 C   0  0  0  0  0  0  0  0  0  0  0  0
  138.4620   69.6250  223.5690 C   0  0  0  0  0  0  0  0  0  0  0  0
  138.8770   68.8040  224.6280 C   0  0  0  0  0  0  0  0  0  0  0  0
  139.6080   69.3510  225.6880 C   0  0  0  0  0  0  0  0  0  0  0  0
  140.0520   68.5510  226.7590 C   0  0  0  0  0  0  0  0  0  0  0  0
  140.8030   69.1240  227.7930 C   0  0  0  0  0  0  0  0  0  0  0  0
  141.3960   68.1240  229.1050 Cl  0  0  0  0  0  0  0  0  0  0  0  0
  141.1030   70.4910  227.7740 C   0  0  0  0  0  0  0  0  0  0  0  0
  140.6600   71.2940  226.7160 C   0  0  0  0  0  0  0  0  0  0  0  0
  139.9160   70.7350  225.6610 C   0  0  0  0  0  0  0  0  0  0  0  0
  139.5120   71.5030  224.6160 N   0  0  0  0  0  0  0  0  0  0  0  0
  141.0762   71.7667  222.0344 H   0  0  0  0  0  0  0  0  0  0  0  0
  140.9645   71.9565  220.2485 H   0  0  0  0  0  0  0  0  0  0  0  0
  139.0970   73.9290  222.7570 H   0  0  0  0  0  0  0  0  0  0  0  0
  142.8657   72.9313  220.0476 H   0  0  0  0  0  0  0  0  0  0  0  0
  141.8618   73.5695  218.7257 H   0  0  0  0  0  0  0  0  0  0  0  0
  143.7134   74.8946  218.2279 H   0  0  0  0  0  0  0  0  0  0  0  0
  145.4200   74.5200  219.2420 H   0  0  0  0  0  0  0  0  0  0  0  0
  143.8101   76.7109  220.4010 H   0  0  0  0  0  0  0  0  0  0  0  0
  142.7118   76.8656  219.0113 H   0  0  0  0  0  0  0  0  0  0  0  0
  142.0549   76.1528  221.8105 H   0  0  0  0  0  0  0  0  0  0  0  0
  140.9128   77.6693  219.8527 H   0  0  0  0  0  0  0  0  0  0  0  0
  139.8826   76.1892  219.8079 H   0  0  0  0  0  0  0  0  0  0  0  0
  140.3569   77.0601  223.6099 H   0  0  0  0  0  0  0  0  0  0  0  0
  141.7414   76.8370  222.4650 H   0  0  0  0  0  0  0  0  0  0  0  0
  142.7221   78.4818  224.3143 H   0  0  0  0  0  0  0  0  0  0  0  0
  143.3593   80.8855  224.5356 H   0  0  0  0  0  0  0  0  0  0  0  0
  142.1754   82.6196  223.1830 H   0  0  0  0  0  0  0  0  0  0  0  0
  140.3614   81.9504  221.6017 H   0  0  0  0  0  0  0  0  0  0  0  0
  139.7353   79.5464  221.3611 H   0  0  0  0  0  0  0  0  0  0  0  0
  137.8810   69.2025  222.7360 H   0  0  0  0  0  0  0  0  0  0  0  0
  138.6282   67.7325  224.6250 H   0  0  0  0  0  0  0  0  0  0  0  0
  139.8094   67.4784  226.7832 H   0  0  0  0  0  0  0  0  0  0  0  0
  141.6883   70.9356  228.5924 H   0  0  0  0  0  0  0  0  0  0  0  0
  140.8952   72.3685  226.7097 H   0  0  0  0  0  0  0  0  0  0  0  0
  1  2  2  0
  2  3  1  0
  3  4  1  0
  4  5  1  0
  5  6  1  0
  5  7  2  0
  7  8  1  0
  8  9  1  0
  9 10  1  0
  9 11  1  0
 11 12  1  0
 12 13  1  0
 13 14  1  0
 14 15  1  0
 15 16  1  0
 16 17  2  0
 17 18  1  0
 18 19  2  0
 19 20  1  0
 20 21  2  0
  2 22  1  0
 22 23  2  0
 23 24  1  0
 24 25  2  0
 25 26  1  0
 26 27  2  0
 27 28  1  0
 27 29  1  0
 29 30  2  0
 30 31  1  0
 31 32  2  0
 12  7  1  0
 21 16  1  0
 32 22  1  0
 31 25  1  0
  4 33  1  0
  4 34  1  0
  6 35  1  0
  8 36  1  0
  8 37  1  0
  9 38  1  6
 10 39  1  0
 11 40  1  0
 11 41  1  0
 12 42  1  1
 13 43  1  0
 13 44  1  0
 15 45  1  0
 15 46  1  0
 17 47  1  0
 18 48  1  0
 19 49  1  0
 20 50  1  0
 21 51  1  0
 23 52  1  0
 24 53  1  0
 26 54  1  0
 29 55  1  0
 30 56  1  0
M  CHG  2   3  -1   7   1
M  END
>  <meeko>  (1) 
{"free_energy": -8.63, "intermolecular_energy": -11.91, "internal_energy": -2.55, "cluster_size": 8, "cluster_id": 1, "rank_in_cluster": 1}

$$$$

     RDKit          3D

 56 59  0  0  0  0  0  0  0  0999 V2000
  140.1000   75.9870  222.7190 O   0  0  0  0  0  0  0  0  0  0  0  0
  138.9950   76.1490  222.1470 C   0  0  0  0  0  0  0  0  0  0  0  0
  138.5500   75.2010  221.1750 N   0  0  0  0  0  0  0  0  0  0  0  0
  139.4490   74.4850  220.2840 C   0  0  0  0  0  0  0  0  0  0  0  0
  140.6490   73.9950  221.0520 C   0  0  0  0  0  0  0  0  0  0  0  0
  140.3940   73.5050  222.3430 O   0  0  0  0  0  0  0  0  0  0  0  0
  141.8740   74.0490  220.5730 N   0  0  0  0  0  0  0  0  0  0  0  0
  142.6390   72.8460  220.2510 C   0  0  0  0  0  0  0  0  0  0  0  0
  144.1060   73.2580  220.1690 C   0  0  2  0  0  0  0  0  0  0  0  0
  144.8040   72.8560  221.3220 O   0  0  0  0  0  0  0  0  0  0  0  0
  144.1110   74.7830  220.0670 C   0  0  0  0  0  0  0  0  0  0  0  0
  142.6970   75.2640  220.4470 C   0  0  1  0  0  0  0  0  0  0  0  0
  142.1220   76.2540  219.3920 C   0  0  0  0  0  0  0  0  0  0  0  0
  142.2720   77.5990  219.8370 O   0  0  0  0  0  0  0  0  0  0  0  0
  141.1200   78.0600  220.5280 C   0  0  0  0  0  0  0  0  0  0  0  0
  141.4840   79.0550  221.6000 C   0  0  0  0  0  0  0  0  0  0  0  0
  141.5130   80.4270  221.3040 C   0  0  0  0  0  0  0  0  0  0  0  0
  141.8350   81.3560  222.2980 C   0  0  0  0  0  0  0  0  0  0  0  0
  142.1380   80.9170  223.5900 C   0  0  0  0  0  0  0  0  0  0  0  0
  142.1160   79.5500  223.8900 C   0  0  0  0  0  0  0  0  0  0  0  0
  141.7880   78.6210  222.8990 C   0  0  0  0  0  0  0  0  0  0  0  0
  138.1360   77.2920  222.5180 C   0  0  0  0  0  0  0  0  0  0  0  0
  136.7620   77.2840  222.2280 C   0  0  0  0  0  0  0  0  0  0  0  0
  135.9690   78.3810  222.5980 C   0  0  0  0  0  0  0  0  0  0  0  0
  136.5540   79.4750  223.2450 C   0  0  0  0  0  0  0  0  0  0  0  0
  135.7830   80.5850  223.6430 C   0  0  0  0  0  0  0  0  0  0  0  0
  136.3930   81.6540  224.3110 C   0  0  0  0  0  0  0  0  0  0  0  0
  135.4300   83.0170  224.8480 Cl  0  0  0  0  0  0  0  0  0  0  0  0
  137.7670   81.6320  224.5720 C   0  0  0  0  0  0  0  0  0  0  0  0
  138.5410   80.5340  224.1740 C   0  0  0  0  0  0  0  0  0  0  0  0
  137.9450   79.4450  223.5140 C   0  0  0  0  0  0  0  0  0  0  0  0
  138.6850   78.3630  223.1550 N   0  0  0  0  0  0  0  0  0  0  0  0
  138.9204   73.6255  219.8460 H   0  0  0  0  0  0  0  0  0  0  0  0
  139.7826   75.1630  219.4846 H   0  0  0  0  0  0  0  0  0  0  0  0
  139.6650   73.8650  222.9470 H   0  0  0  0  0  0  0  0  0  0  0  0
  142.5026   72.0898  221.0381 H   0  0  0  0  0  0  0  0  0  0  0  0
  142.3006   72.4087  219.3001 H   0  0  0  0  0  0  0  0  0  0  0  0
  144.5995   72.7857  219.3068 H   0  0  0  0  0  0  0  0  0  0  0  0
  144.9510   71.8750  221.2320 H   0  0  0  0  0  0  0  0  0  0  0  0
  144.8530   75.2057  220.7604 H   0  0  0  0  0  0  0  0  0  0  0  0
  144.3763   75.1078  219.0501 H   0  0  0  0  0  0  0  0  0  0  0  0
  142.7090   75.8282  221.3912 H   0  0  0  0  0  0  0  0  0  0  0  0
  142.6615   76.1245  218.4421 H   0  0  0  0  0  0  0  0  0  0  0  0
  141.0516   76.0427  219.2517 H   0  0  0  0  0  0  0  0  0  0  0  0
  140.4399   78.5407  219.8094 H   0  0  0  0  0  0  0  0  0  0  0  0
  140.6346   77.1968  221.0069 H   0  0  0  0  0  0  0  0  0  0  0  0
  141.2814   80.7726  220.2857 H   0  0  0  0  0  0  0  0  0  0  0  0
  141.8499   82.4307  222.0637 H   0  0  0  0  0  0  0  0  0  0  0  0
  142.3941   81.6469  224.3721 H   0  0  0  0  0  0  0  0  0  0  0  0
  142.3571   79.2067  224.9068 H   0  0  0  0  0  0  0  0  0  0  0  0
  141.7681   77.5474  223.1379 H   0  0  0  0  0  0  0  0  0  0  0  0
  136.3100   76.4230  221.7139 H   0  0  0  0  0  0  0  0  0  0  0  0
  134.8908   78.3808  222.3801 H   0  0  0  0  0  0  0  0  0  0  0  0
  134.7043   80.6119  223.4295 H   0  0  0  0  0  0  0  0  0  0  0  0
  138.2408   82.4784  225.0908 H   0  0  0  0  0  0  0  0  0  0  0  0
  139.6217   80.5239  224.3792 H   0  0  0  0  0  0  0  0  0  0  0  0
  1  2  2  0
  2  3  1  0
  3  4  1  0
  4  5  1  0
  5  6  1  0
  5  7  2  0
  7  8  1  0
  8  9  1  0
  9 10  1  0
  9 11  1  0
 11 12  1  0
 12 13  1  0
 13 14  1  0
 14 15  1  0
 15 16  1  0
 16 17  2  0
 17 18  1  0
 18 19  2  0
 19 20  1  0
 20 21  2  0
  2 22  1  0
 22 23  2  0
 23 24  1  0
 24 25  2  0
 25 26  1  0
 26 27  2  0
 27 28  1  0
 27 29  1  0
 29 30  2  0
 30 31  1  0
 31 32  2  0
 12  7  1  0
 21 16  1  0
 32 22  1  0
 31 25  1  0
  4 33  1  0
  4 34  1  0
  6 35  1  0
  8 36  1  0
  8 37  1  0
  9 38  1  6
 10 39  1  0
 11 40  1  0
 11 41  1  0
 12 42  1  1
 13 43  1  0
 13 44  1  0
 15 45  1  0
 15 46  1  0
 17 47  1  0
 18 48  1  0
 19 49  1  0
 20 50  1  0
 21 51  1  0
 23 52  1  0
 24 53  1  0
 26 54  1  0
 29 55  1  0
 30 56  1  0
M  CHG  2   3  -1   7   1
M  END
>  <meeko>  (2) 
{"free_energy": -6.25, "intermolecular_energy": -9.54, "internal_energy": -3.59, "cluster_size": 1, "cluster_id": 6, "rank_in_cluster": 1}

$$$$

     RDKit          3D

 56 59  0  0  0  0  0  0  0  0999 V2000
  137.5500   72.5820  221.5920 O   0  0  0  0  0  0  0  0  0  0  0  0
  138.6320   71.9480  221.6420 C   0  0  0  0  0  0  0  0  0  0  0  0
  139.5860   72.0810  220.5860 N   0  0  0  0  0  0  0  0  0  0  0  0
  140.8530   72.7790  220.7340 C   0  0  0  0  0  0  0  0  0  0  0  0
  140.6160   74.1630  221.2810 C   0  0  0  0  0  0  0  0  0  0  0  0
  139.7990   74.2410  222.4210 O   0  0  0  0  0  0  0  0  0  0  0  0
  141.1060   75.2470  220.7170 N   0  0  0  0  0  0  0  0  0  0  0  0
  141.9160   75.1960  219.5030 C   0  0  0  0  0  0  0  0  0  0  0  0
  142.6610   76.5240  219.4060 C   0  0  2  0  0  0  0  0  0  0  0  0
  144.0090   76.3690  219.7800 O   0  0  0  0  0  0  0  0  0  0  0  0
  141.9620   77.4720  220.3790 C   0  0  0  0  0  0  0  0  0  0  0  0
  141.0610   76.6070  221.2810 C   0  0  1  0  0  0  0  0  0  0  0  0
  139.6090   77.1640  221.3530 C   0  0  0  0  0  0  0  0  0  0  0  0
  139.1860   77.2850  222.7080 O   0  0  0  0  0  0  0  0  0  0  0  0
  138.9530   78.6380  223.0720 C   0  0  0  0  0  0  0  0  0  0  0  0
  140.2340   79.4310  223.0910 C   0  0  0  0  0  0  0  0  0  0  0  0
  141.3420   78.9550  223.8100 C   0  0  0  0  0  0  0  0  0  0  0  0
  142.5400   79.6780  223.8190 C   0  0  0  0  0  0  0  0  0  0  0  0
  142.6310   80.8840  223.1170 C   0  0  0  0  0  0  0  0  0  0  0  0
  141.5280   81.3640  222.4030 C   0  0  0  0  0  0  0  0  0  0  0  0
  140.3330   80.6400  222.3870 C   0  0  0  0  0  0  0  0  0  0  0  0
  138.9390   71.1100  222.8180 C   0  0  0  0  0  0  0  0  0  0  0  0
  138.5050   69.7750  222.8840 C   0  0  0  0  0  0  0  0  0  0  0  0
  138.8160   68.9990  224.0110 C   0  0  0  0  0  0  0  0  0  0  0  0
  139.5470   69.5620  225.0620 C   0  0  0  0  0  0  0  0  0  0  0  0
  139.8890   68.8060  226.2010 C   0  0  0  0  0  0  0  0  0  0  0  0
  140.6440   69.3910  227.2260 C   0  0  0  0  0  0  0  0  0  0  0  0
  141.1100   68.4420  228.6240 Cl  0  0  0  0  0  0  0  0  0  0  0  0
  141.0480   70.7280  227.1300 C   0  0  0  0  0  0  0  0  0  0  0  0
  140.7070   71.4870  226.0040 C   0  0  0  0  0  0  0  0  0  0  0  0
  139.9610   70.9140  224.9580 C   0  0  0  0  0  0  0  0  0  0  0  0
  139.6560   71.6370  223.8490 N   0  0  0  0  0  0  0  0  0  0  0  0
  141.4991   72.2191  221.4261 H   0  0  0  0  0  0  0  0  0  0  0  0
  141.3402   72.8570  219.7509 H   0  0  0  0  0  0  0  0  0  0  0  0
  139.2040   73.4860  222.7390 H   0  0  0  0  0  0  0  0  0  0  0  0
  142.6333   74.3642  219.5624 H   0  0  0  0  0  0  0  0  0  0  0  0
  141.2844   75.0352  218.6169 H   0  0  0  0  0  0  0  0  0  0  0  0
  142.6483   76.9080  218.3753 H   0  0  0  0  0  0  0  0  0  0  0  0
  144.2230   77.1370  220.3770 H   0  0  0  0  0  0  0  0  0  0  0  0
  142.7069   78.0046  220.9885 H   0  0  0  0  0  0  0  0  0  0  0  0
  141.3694   78.2239  219.8373 H   0  0  0  0  0  0  0  0  0  0  0  0
  141.4189   76.6116  222.3211 H   0  0  0  0  0  0  0  0  0  0  0  0
  139.5772   78.1539  220.8744 H   0  0  0  0  0  0  0  0  0  0  0  0
  138.9354   76.4680  220.8316 H   0  0  0  0  0  0  0  0  0  0  0  0
  138.2628   79.0905  222.3447 H   0  0  0  0  0  0  0  0  0  0  0  0
  138.5207   78.6547  224.0833 H   0  0  0  0  0  0  0  0  0  0  0  0
  141.2681   78.0101  224.3683 H   0  0  0  0  0  0  0  0  0  0  0  0
  143.4085   79.2984  224.3772 H   0  0  0  0  0  0  0  0  0  0  0  0
  143.5707   81.4557  223.1263 H   0  0  0  0  0  0  0  0  0  0  0  0
  141.6016   82.3137  221.8528 H   0  0  0  0  0  0  0  0  0  0  0  0
  139.4688   81.0187  221.8215 H   0  0  0  0  0  0  0  0  0  0  0  0
  137.9246   69.3407  222.0566 H   0  0  0  0  0  0  0  0  0  0  0  0
  138.4859   67.9512  224.0676 H   0  0  0  0  0  0  0  0  0  0  0  0
  139.5638   67.7585  226.2852 H   0  0  0  0  0  0  0  0  0  0  0  0
  141.6349   71.1833  227.9413 H   0  0  0  0  0  0  0  0  0  0  0  0
  141.0244   72.5381  225.9368 H   0  0  0  0  0  0  0  0  0  0  0  0
  1  2  2  0
  2  3  1  0
  3  4  1  0
  4  5  1  0
  5  6  1  0
  5  7  2  0
  7  8  1  0
  8  9  1  0
  9 10  1  0
  9 11  1  0
 11 12  1  0
 12 13  1  0
 13 14  1  0
 14 15  1  0
 15 16  1  0
 16 17  2  0
 17 18  1  0
 18 19  2  0
 19 20  1  0
 20 21  2  0
  2 22  1  0
 22 23  2  0
 23 24  1  0
 24 25  2  0
 25 26  1  0
 26 27  2  0
 27 28  1  0
 27 29  1  0
 29 30  2  0
 30 31  1  0
 31 32  2  0
 12  7  1  0
 21 16  1  0
 32 22  1  0
 31 25  1  0
  4 33  1  0
  4 34  1  0
  6 35  1  0
  8 36  1  0
  8 37  1  0
  9 38  1  6
 10 39  1  0
 11 40  1  0
 11 41  1  0
 12 42  1  1
 13 43  1  0
 13 44  1  0
 15 45  1  0
 15 46  1  0
 17 47  1  0
 18 48  1  0
 19 49  1  0
 20 50  1  0
 21 51  1  0
 23 52  1  0
 24 53  1  0
 26 54  1  0
 29 55  1  0
 30 56  1  0
M  CHG  2   3  -1   7   1
M  END
>  <meeko>  (3) 
{"free_energy": -8.61, "intermolecular_energy": -11.89, "internal_energy": -2.83, "cluster_size": 8, "cluster_id": 1, "rank_in_cluster": 2}

$$$$

     RDKit          3D

 56 59  0  0  0  0  0  0  0  0999 V2000
  137.3200   72.8060  221.8670 O   0  0  0  0  0  0  0  0  0  0  0  0
  138.3690   72.1160  221.8660 C   0  0  0  0  0  0  0  0  0  0  0  0
  139.2780   72.2010  220.7670 N   0  0  0  0  0  0  0  0  0  0  0  0
  139.5460   73.4340  220.0430 C   0  0  0  0  0  0  0  0  0  0  0  0
  140.1530   74.4530  220.9720 C   0  0  0  0  0  0  0  0  0  0  0  0
  140.0390   74.1770  222.3440 O   0  0  0  0  0  0  0  0  0  0  0  0
  140.7270   75.5580  220.5440 N   0  0  0  0  0  0  0  0  0  0  0  0
  141.5430   75.5940  219.3320 C   0  0  0  0  0  0  0  0  0  0  0  0
  142.3850   76.8650  219.3980 C   0  0  2  0  0  0  0  0  0  0  0  0
  143.7140   76.5660  219.7520 O   0  0  0  0  0  0  0  0  0  0  0  0
  141.7470   77.7380  220.4770 C   0  0  0  0  0  0  0  0  0  0  0  0
  140.7760   76.8400  221.2680 C   0  0  1  0  0  0  0  0  0  0  0  0
  139.3690   77.4910  221.4040 C   0  0  0  0  0  0  0  0  0  0  0  0
  138.9750   77.5470  222.7720 O   0  0  0  0  0  0  0  0  0  0  0  0
  138.8160   78.8840  223.2230 C   0  0  0  0  0  0  0  0  0  0  0  0
  140.1310   79.6200  223.2380 C   0  0  0  0  0  0  0  0  0  0  0  0
  140.2250   80.9000  222.6700 C   0  0  0  0  0  0  0  0  0  0  0  0
  141.4390   81.5940  222.6940 C   0  0  0  0  0  0  0  0  0  0  0  0
  142.5660   81.0080  223.2790 C   0  0  0  0  0  0  0  0  0  0  0  0
  142.4780   79.7300  223.8420 C   0  0  0  0  0  0  0  0  0  0  0  0
  141.2640   79.0370  223.8240 C   0  0  0  0  0  0  0  0  0  0  0  0
  138.6850   71.2600  223.0270 C   0  0  0  0  0  0  0  0  0  0  0  0
  138.1110   69.9850  223.1580 C   0  0  0  0  0  0  0  0  0  0  0  0
  138.4340   69.1890  224.2680 C   0  0  0  0  0  0  0  0  0  0  0  0
  139.3180   69.6750  225.2370 C   0  0  0  0  0  0  0  0  0  0  0  0
  139.6750   68.8960  226.3560 C   0  0  0  0  0  0  0  0  0  0  0  0
  140.5810   69.4010  227.2970 C   0  0  0  0  0  0  0  0  0  0  0  0
  141.0630   68.4170  228.6660 Cl  0  0  0  0  0  0  0  0  0  0  0  0
  141.1230   70.6810  227.1390 C   0  0  0  0  0  0  0  0  0  0  0  0
  140.7690   71.4630  226.0330 C   0  0  0  0  0  0  0  0  0  0  0  0
  139.8710   70.9690  225.0700 C   0  0  0  0  0  0  0  0  0  0  0  0
  139.5490   71.7110  223.9780 N   0  0  0  0  0  0  0  0  0  0  0  0
  140.2459   73.2286  219.2196 H   0  0  0  0  0  0  0  0  0  0  0  0
  138.6022   73.8291  219.6392 H   0  0  0  0  0  0  0  0  0  0  0  0
  139.3200   73.5850  222.7420 H   0  0  0  0  0  0  0  0  0  0  0  0
  142.1962   74.7100  219.2901 H   0  0  0  0  0  0  0  0  0  0  0  0
  140.9099   75.5891  218.4325 H   0  0  0  0  0  0  0  0  0  0  0  0
  142.4119   77.3708  218.4216 H   0  0  0  0  0  0  0  0  0  0  0  0
  144.1010   77.4080  220.1160 H   0  0  0  0  0  0  0  0  0  0  0  0
  142.5226   78.1376  221.1469 H   0  0  0  0  0  0  0  0  0  0  0  0
  141.2159   78.5906  220.0286 H   0  0  0  0  0  0  0  0  0  0  0  0
  141.1222   76.6927  222.3016 H   0  0  0  0  0  0  0  0  0  0  0  0
  139.4012   78.5114  220.9946 H   0  0  0  0  0  0  0  0  0  0  0  0
  138.6403   76.8823  220.8486 H   0  0  0  0  0  0  0  0  0  0  0  0
  138.1204   79.4079  222.5510 H   0  0  0  0  0  0  0  0  0  0  0  0
  138.4223   78.8582  224.2498 H   0  0  0  0  0  0  0  0  0  0  0  0
  139.3405   81.3591  222.2042 H   0  0  0  0  0  0  0  0  0  0  0  0
  141.5073   82.5995  222.2533 H   0  0  0  0  0  0  0  0  0  0  0  0
  143.5219   81.5519  223.2966 H   0  0  0  0  0  0  0  0  0  0  0  0
  143.3660   79.2696  224.2997 H   0  0  0  0  0  0  0  0  0  0  0  0
  141.1974   78.0336  224.2698 H   0  0  0  0  0  0  0  0  0  0  0  0
  137.4120   69.6122  222.3948 H   0  0  0  0  0  0  0  0  0  0  0  0
  137.9936   68.1867  224.3755 H   0  0  0  0  0  0  0  0  0  0  0  0
  139.2429   67.8933  226.4900 H   0  0  0  0  0  0  0  0  0  0  0  0
  141.8289   71.0739  227.8855 H   0  0  0  0  0  0  0  0  0  0  0  0
  141.1959   72.4701  225.9165 H   0  0  0  0  0  0  0  0  0  0  0  0
  1  2  2  0
  2  3  1  0
  3  4  1  0
  4  5  1  0
  5  6  1  0
  5  7  2  0
  7  8  1  0
  8  9  1  0
  9 10  1  0
  9 11  1  0
 11 12  1  0
 12 13  1  0
 13 14  1  0
 14 15  1  0
 15 16  1  0
 16 17  2  0
 17 18  1  0
 18 19  2  0
 19 20  1  0
 20 21  2  0
  2 22  1  0
 22 23  2  0
 23 24  1  0
 24 25  2  0
 25 26  1  0
 26 27  2  0
 27 28  1  0
 27 29  1  0
 29 30  2  0
 30 31  1  0
 31 32  2  0
 12  7  1  0
 21 16  1  0
 32 22  1  0
 31 25  1  0
  4 33  1  0
  4 34  1  0
  6 35  1  0
  8 36  1  0
  8 37  1  0
  9 38  1  6
 10 39  1  0
 11 40  1  0
 11 41  1  0
 12 42  1  1
 13 43  1  0
 13 44  1  0
 15 45  1  0
 15 46  1  0
 17 47  1  0
 18 48  1  0
 19 49  1  0
 20 50  1  0
 21 51  1  0
 23 52  1  0
 24 53  1  0
 26 54  1  0
 29 55  1  0
 30 56  1  0
M  CHG  2   3  -1   7   1
M  END
>  <meeko>  (4) 
{"free_energy": -8.49, "intermolecular_energy": -11.77, "internal_energy": -2.74, "cluster_size": 8, "cluster_id": 1, "rank_in_cluster": 3}

$$$$

     RDKit          3D

 56 59  0  0  0  0  0  0  0  0999 V2000
  140.8530   73.7530  221.9910 O   0  0  0  0  0  0  0  0  0  0  0  0
  140.0110   72.8220  221.9700 C   0  0  0  0  0  0  0  0  0  0  0  0
  139.0970   72.7120  220.8770 N   0  0  0  0  0  0  0  0  0  0  0  0
  137.7840   73.3380  220.8650 C   0  0  0  0  0  0  0  0  0  0  0  0
  137.8190   74.6170  221.6600 C   0  0  0  0  0  0  0  0  0  0  0  0
  136.8590   74.7330  222.6790 O   0  0  0  0  0  0  0  0  0  0  0  0
  138.6650   75.5940  221.4060 N   0  0  0  0  0  0  0  0  0  0  0  0
  139.4520   75.6420  220.1760 C   0  0  0  0  0  0  0  0  0  0  0  0
  140.6050   76.6120  220.4220 C   0  0  2  0  0  0  0  0  0  0  0  0
  141.8070   75.9140  220.6400 O   0  0  0  0  0  0  0  0  0  0  0  0
  140.2320   77.4020  221.6750 C   0  0  0  0  0  0  0  0  0  0  0  0
  139.0610   76.6570  222.3440 C   0  0  1  0  0  0  0  0  0  0  0  0
  137.8800   77.6160  222.6760 C   0  0  0  0  0  0  0  0  0  0  0  0
  138.2040   78.9530  222.3050 O   0  0  0  0  0  0  0  0  0  0  0  0
  138.5990   79.7330  223.4250 C   0  0  0  0  0  0  0  0  0  0  0  0
  140.0510   80.1240  223.3380 C   0  0  0  0  0  0  0  0  0  0  0  0
  140.4250   81.2830  222.6390 C   0  0  0  0  0  0  0  0  0  0  0  0
  141.7700   81.6600  222.5680 C   0  0  0  0  0  0  0  0  0  0  0  0
  142.7470   80.8750  223.1860 C   0  0  0  0  0  0  0  0  0  0  0  0
  142.3810   79.7150  223.8790 C   0  0  0  0  0  0  0  0  0  0  0  0
  141.0370   79.3410  223.9570 C   0  0  0  0  0  0  0  0  0  0  0  0
  140.0040   71.8140  223.0490 C   0  0  0  0  0  0  0  0  0  0  0  0
  139.5070   70.5200  222.8220 C   0  0  0  0  0  0  0  0  0  0  0  0
  139.5180   69.5800  223.8640 C   0  0  0  0  0  0  0  0  0  0  0  0
  140.0150   69.9410  225.1200 C   0  0  0  0  0  0  0  0  0  0  0  0
  140.0550   69.0160  226.1830 C   0  0  0  0  0  0  0  0  0  0  0  0
  140.5810   69.4010  227.4230 C   0  0  0  0  0  0  0  0  0  0  0  0
  140.6740   68.2420  228.7350 Cl  0  0  0  0  0  0  0  0  0  0  0  0
  141.0560   70.7030  227.6150 C   0  0  0  0  0  0  0  0  0  0  0  0
  141.0150   71.6290  226.5650 C   0  0  0  0  0  0  0  0  0  0  0  0
  140.5020   71.2580  225.3090 C   0  0  0  0  0  0  0  0  0  0  0  0
  140.4910   72.1430  224.2770 N   0  0  0  0  0  0  0  0  0  0  0  0
  137.4958   73.5613  219.8272 H   0  0  0  0  0  0  0  0  0  0  0  0
  137.0513   72.6518  221.3147 H   0  0  0  0  0  0  0  0  0  0  0  0
  136.8460   74.1540  223.5090 H   0  0  0  0  0  0  0  0  0  0  0  0
  139.8437   74.6419  219.9388 H   0  0  0  0  0  0  0  0  0  0  0  0
  138.8349   75.9725  219.3275 H   0  0  0  0  0  0  0  0  0  0  0  0
  140.7599   77.2679  219.5527 H   0  0  0  0  0  0  0  0  0  0  0  0
  141.8210   75.6770  221.6070 H   0  0  0  0  0  0  0  0  0  0  0  0
  141.0906   77.4501  222.3610 H   0  0  0  0  0  0  0  0  0  0  0  0
  139.9468   78.4331  221.4191 H   0  0  0  0  0  0  0  0  0  0  0  0
  139.3628   76.2313  223.3124 H   0  0  0  0  0  0  0  0  0  0  0  0
  136.9854   77.2935  222.1232 H   0  0  0  0  0  0  0  0  0  0  0  0
  137.6887   77.5835  223.7587 H   0  0  0  0  0  0  0  0  0  0  0  0
  137.9844   80.6446  223.4609 H   0  0  0  0  0  0  0  0  0  0  0  0
  138.4567   79.1302  224.3341 H   0  0  0  0  0  0  0  0  0  0  0  0
  139.6572   81.8968  222.1454 H   0  0  0  0  0  0  0  0  0  0  0  0
  142.0583   82.5731  222.0265 H   0  0  0  0  0  0  0  0  0  0  0  0
  143.8054   81.1690  223.1279 H   0  0  0  0  0  0  0  0  0  0  0  0
  143.1522   79.0974  224.3625 H   0  0  0  0  0  0  0  0  0  0  0  0
  140.7514   78.4309  224.5048 H   0  0  0  0  0  0  0  0  0  0  0  0
  139.1114   70.2450  221.8331 H   0  0  0  0  0  0  0  0  0  0  0  0
  139.1368   68.5624  223.6931 H   0  0  0  0  0  0  0  0  0  0  0  0
  139.6740   67.9942  226.0391 H   0  0  0  0  0  0  0  0  0  0  0  0
  141.4626   71.0001  228.5930 H   0  0  0  0  0  0  0  0  0  0  0  0
  141.3861   72.6523  226.7235 H   0  0  0  0  0  0  0  0  0  0  0  0
  1  2  2  0
  2  3  1  0
  3  4  1  0
  4  5  1  0
  5  6  1  0
  5  7  2  0
  7  8  1  0
  8  9  1  0
  9 10  1  0
  9 11  1  0
 11 12  1  0
 12 13  1  0
 13 14  1  0
 14 15  1  0
 15 16  1  0
 16 17  2  0
 17 18  1  0
 18 19  2  0
 19 20  1  0
 20 21  2  0
  2 22  1  0
 22 23  2  0
 23 24  1  0
 24 25  2  0
 25 26  1  0
 26 27  2  0
 27 28  1  0
 27 29  1  0
 29 30  2  0
 30 31  1  0
 31 32  2  0
 12  7  1  0
 21 16  1  0
 32 22  1  0
 31 25  1  0
  4 33  1  0
  4 34  1  0
  6 35  1  0
  8 36  1  0
  8 37  1  0
  9 38  1  6
 10 39  1  0
 11 40  1  0
 11 41  1  0
 12 42  1  1
 13 43  1  0
 13 44  1  0
 15 45  1  0
 15 46  1  0
 17 47  1  0
 18 48  1  0
 19 49  1  0
 20 50  1  0
 21 51  1  0
 23 52  1  0
 24 53  1  0
 26 54  1  0
 29 55  1  0
 30 56  1  0
M  CHG  2   3  -1   7   1
M  END
>  <meeko>  (5) 
{"free_energy": -8.02, "intermolecular_energy": -11.3, "internal_energy": -2.55, "cluster_size": 8, "cluster_id": 1, "rank_in_cluster": 5}

$$$$

     RDKit          3D

 56 59  0  0  0  0  0  0  0  0999 V2000
  140.2810   72.3740  220.5690 O   0  0  0  0  0  0  0  0  0  0  0  0
  140.1120   72.7870  221.7420 C   0  0  0  0  0  0  0  0  0  0  0  0
  139.8880   74.1780  221.9830 N   0  0  0  0  0  0  0  0  0  0  0  0
  140.9440   75.1770  221.9480 C   0  0  0  0  0  0  0  0  0  0  0  0
  140.3880   76.5250  222.3280 C   0  0  0  0  0  0  0  0  0  0  0  0
  139.1320   76.5160  222.9570 O   0  0  0  0  0  0  0  0  0  0  0  0
  141.0090   77.6540  222.0610 N   0  0  0  0  0  0  0  0  0  0  0  0
  141.7120   78.4190  223.0890 C   0  0  0  0  0  0  0  0  0  0  0  0
  141.9020   79.8310  222.5430 C   0  0  2  0  0  0  0  0  0  0  0  0
  140.9870   80.7220  223.1350 O   0  0  0  0  0  0  0  0  0  0  0  0
  141.6390   79.7430  221.0410 C   0  0  0  0  0  0  0  0  0  0  0  0
  140.9600   78.3840  220.7820 C   0  0  1  0  0  0  0  0  0  0  0  0
  141.6570   77.6000  219.6330 C   0  0  0  0  0  0  0  0  0  0  0  0
  142.7960   76.8990  220.1250 O   0  0  0  0  0  0  0  0  0  0  0  0
  143.3430   76.0250  219.1480 C   0  0  0  0  0  0  0  0  0  0  0  0
  143.7780   74.7190  219.7610 C   0  0  0  0  0  0  0  0  0  0  0  0
  142.9750   73.5750  219.6190 C   0  0  0  0  0  0  0  0  0  0  0  0
  143.3790   72.3570  220.1730 C   0  0  0  0  0  0  0  0  0  0  0  0
  144.5840   72.2780  220.8780 C   0  0  0  0  0  0  0  0  0  0  0  0
  145.3860   73.4150  221.0270 C   0  0  0  0  0  0  0  0  0  0  0  0
  144.9860   74.6320  220.4690 C   0  0  0  0  0  0  0  0  0  0  0  0
  140.0920   71.8260  222.8630 C   0  0  0  0  0  0  0  0  0  0  0  0
  139.5990   70.5230  222.6860 C   0  0  0  0  0  0  0  0  0  0  0  0
  139.5980   69.6280  223.7670 C   0  0  0  0  0  0  0  0  0  0  0  0
  140.0810   70.0430  225.0130 C   0  0  0  0  0  0  0  0  0  0  0  0
  140.1080   69.1650  226.1150 C   0  0  0  0  0  0  0  0  0  0  0  0
  140.6190   69.6030  227.3430 C   0  0  0  0  0  0  0  0  0  0  0  0
  140.6970   68.5010  228.7040 Cl  0  0  0  0  0  0  0  0  0  0  0  0
  141.0910   70.9130  227.4850 C   0  0  0  0  0  0  0  0  0  0  0  0
  141.0620   71.7930  226.3960 C   0  0  0  0  0  0  0  0  0  0  0  0
  140.5640   71.3680  225.1510 C   0  0  0  0  0  0  0  0  0  0  0  0
  140.5640   72.2080  224.0820 N   0  0  0  0  0  0  0  0  0  0  0  0
  141.7357   74.8958  222.6580 H   0  0  0  0  0  0  0  0  0  0  0  0
  141.3585   75.2301  220.9305 H   0  0  0  0  0  0  0  0  0  0  0  0
  138.6140   75.6720  223.1660 H   0  0  0  0  0  0  0  0  0  0  0  0
  141.1151   78.4483  224.0125 H   0  0  0  0  0  0  0  0  0  0  0  0
  142.6812   77.9569  223.3280 H   0  0  0  0  0  0  0  0  0  0  0  0
  142.9131   80.2049  222.7619 H   0  0  0  0  0  0  0  0  0  0  0  0
  140.2390   80.1640  223.4830 H   0  0  0  0  0  0  0  0  0  0  0  0
  140.9770   80.5626  220.7246 H   0  0  0  0  0  0  0  0  0  0  0  0
  142.5768   79.8283  220.4724 H   0  0  0  0  0  0  0  0  0  0  0  0
  139.9208   78.5165  220.4465 H   0  0  0  0  0  0  0  0  0  0  0  0
  140.9459   76.8788  219.2038 H   0  0  0  0  0  0  0  0  0  0  0  0
  141.9846   78.3143  218.8633 H   0  0  0  0  0  0  0  0  0  0  0  0
  142.5809   75.8240  218.3807 H   0  0  0  0  0  0  0  0  0  0  0  0
  144.2249   76.5101  218.7043 H   0  0  0  0  0  0  0  0  0  0  0  0
  142.0242   73.6381  219.0694 H   0  0  0  0  0  0  0  0  0  0  0  0
  142.7502   71.4623  220.0546 H   0  0  0  0  0  0  0  0  0  0  0  0
  144.9020   71.3205  221.3162 H   0  0  0  0  0  0  0  0  0  0  0  0
  146.3324   73.3506  221.5840 H   0  0  0  0  0  0  0  0  0  0  0  0
  145.6196   75.5237  220.5851 H   0  0  0  0  0  0  0  0  0  0  0  0
  139.2156   70.2055  221.7051 H   0  0  0  0  0  0  0  0  0  0  0  0
  139.2189   68.6038  223.6352 H   0  0  0  0  0  0  0  0  0  0  0  0
  139.7285   68.1378  226.0108 H   0  0  0  0  0  0  0  0  0  0  0  0
  141.4856   71.2521  228.4542 H   0  0  0  0  0  0  0  0  0  0  0  0
  141.4308   72.8225  226.5149 H   0  0  0  0  0  0  0  0  0  0  0  0
  1  2  2  0
  2  3  1  0
  3  4  1  0
  4  5  1  0
  5  6  1  0
  5  7  2  0
  7  8  1  0
  8  9  1  0
  9 10  1  0
  9 11  1  0
 11 12  1  0
 12 13  1  0
 13 14  1  0
 14 15  1  0
 15 16  1  0
 16 17  2  0
 17 18  1  0
 18 19  2  0
 19 20  1  0
 20 21  2  0
  2 22  1  0
 22 23  2  0
 23 24  1  0
 24 25  2  0
 25 26  1  0
 26 27  2  0
 27 28  1  0
 27 29  1  0
 29 30  2  0
 30 31  1  0
 31 32  2  0
 12  7  1  0
 21 16  1  0
 32 22  1  0
 31 25  1  0
  4 33  1  0
  4 34  1  0
  6 35  1  0
  8 36  1  0
  8 37  1  0
  9 38  1  6
 10 39  1  0
 11 40  1  0
 11 41  1  0
 12 42  1  6
 13 43  1  0
 13 44  1  0
 15 45  1  0
 15 46  1  0
 17 47  1  0
 18 48  1  0
 19 49  1  0
 20 50  1  0
 21 51  1  0
 23 52  1  0
 24 53  1  0
 26 54  1  0
 29 55  1  0
 30 56  1  0
M  CHG  2   3  -1   7   1
M  END
>  <meeko>  (6) 
{"free_energy": -7.87, "intermolecular_energy": -11.15, "internal_energy": -2.72, "cluster_size": 1, "cluster_id": 2, "rank_in_cluster": 1}

$$$$

     RDKit          3D

 56 59  0  0  0  0  0  0  0  0999 V2000
  138.8550   73.0000  221.4330 O   0  0  0  0  0  0  0  0  0  0  0  0
  139.8850   72.8700  222.1390 C   0  0  0  0  0  0  0  0  0  0  0  0
  140.9910   73.7570  221.9560 N   0  0  0  0  0  0  0  0  0  0  0  0
  141.1550   74.6010  220.7830 C   0  0  0  0  0  0  0  0  0  0  0  0
  140.6320   75.9850  221.0690 C   0  0  0  0  0  0  0  0  0  0  0  0
  141.5880   77.0140  221.0690 O   0  0  0  0  0  0  0  0  0  0  0  0
  139.3680   76.2290  221.3420 N   0  0  0  0  0  0  0  0  0  0  0  0
  138.8210   76.0910  222.6900 C   0  0  0  0  0  0  0  0  0  0  0  0
  137.3040   76.0040  222.5510 C   0  0  2  0  0  0  0  0  0  0  0  0
  136.8620   74.6780  222.7150 O   0  0  0  0  0  0  0  0  0  0  0  0
  136.9820   76.4840  221.1360 C   0  0  0  0  0  0  0  0  0  0  0  0
  138.3100   76.5040  220.3550 C   0  0  1  0  0  0  0  0  0  0  0  0
  138.5300   77.8610  219.6240 C   0  0  0  0  0  0  0  0  0  0  0  0
  139.7100   78.5000  220.1010 O   0  0  0  0  0  0  0  0  0  0  0  0
  139.4140   79.5330  221.0310 C   0  0  0  0  0  0  0  0  0  0  0  0
  140.5280   79.7070  222.0310 C   0  0  0  0  0  0  0  0  0  0  0  0
  141.5400   80.6530  221.7970 C   0  0  0  0  0  0  0  0  0  0  0  0
  142.5670   80.8300  222.7280 C   0  0  0  0  0  0  0  0  0  0  0  0
  142.5940   80.0570  223.8930 C   0  0  0  0  0  0  0  0  0  0  0  0
  141.5910   79.1100  224.1290 C   0  0  0  0  0  0  0  0  0  0  0  0
  140.5600   78.9360  223.2020 C   0  0  0  0  0  0  0  0  0  0  0  0
  139.9300   71.8340  223.1910 C   0  0  0  0  0  0  0  0  0  0  0  0
  139.4840   70.5270  222.9330 C   0  0  0  0  0  0  0  0  0  0  0  0
  139.5440   69.5610  223.9490 C   0  0  0  0  0  0  0  0  0  0  0  0
  140.0380   69.9100  225.2110 C   0  0  0  0  0  0  0  0  0  0  0  0
  140.1250   68.9600  226.2490 C   0  0  0  0  0  0  0  0  0  0  0  0
  140.6470   69.3340  227.4940 C   0  0  0  0  0  0  0  0  0  0  0  0
  140.7990   68.1450  228.7730 Cl  0  0  0  0  0  0  0  0  0  0  0  0
  141.0690   70.6490  227.7170 C   0  0  0  0  0  0  0  0  0  0  0  0
  140.9800   71.5990  226.6920 C   0  0  0  0  0  0  0  0  0  0  0  0
  140.4710   71.2410  225.4300 C   0  0  0  0  0  0  0  0  0  0  0  0
  140.4140   72.1510  224.4230 N   0  0  0  0  0  0  0  0  0  0  0  0
  142.2222   74.6610  220.5233 H   0  0  0  0  0  0  0  0  0  0  0  0
  140.5915   74.1675  219.9436 H   0  0  0  0  0  0  0  0  0  0  0  0
  142.5760   76.8650  221.2320 H   0  0  0  0  0  0  0  0  0  0  0  0
  139.2097   75.1773  223.1634 H   0  0  0  0  0  0  0  0  0  0  0  0
  139.1084   76.9464  223.3190 H   0  0  0  0  0  0  0  0  0  0  0  0
  136.8030   76.6136  223.3174 H   0  0  0  0  0  0  0  0  0  0  0  0
  137.6820   74.1200  222.8080 H   0  0  0  0  0  0  0  0  0  0  0  0
  136.2715   75.7951  220.6558 H   0  0  0  0  0  0  0  0  0  0  0  0
  136.5223   77.4832  221.1551 H   0  0  0  0  0  0  0  0  0  0  0  0
  138.3125   75.7466  219.5573 H   0  0  0  0  0  0  0  0  0  0  0  0
  138.6290   77.6782  218.5438 H   0  0  0  0  0  0  0  0  0  0  0  0
  137.6675   78.5147  219.8210 H   0  0  0  0  0  0  0  0  0  0  0  0
  139.2727   80.4771  220.4845 H   0  0  0  0  0  0  0  0  0  0  0  0
  138.4991   79.2572  221.5758 H   0  0  0  0  0  0  0  0  0  0  0  0
  141.5239   81.2566  220.8775 H   0  0  0  0  0  0  0  0  0  0  0  0
  143.3536   81.5768  222.5446 H   0  0  0  0  0  0  0  0  0  0  0  0
  143.4042   80.1934  224.6244 H   0  0  0  0  0  0  0  0  0  0  0  0
  141.6143   78.5019  225.0453 H   0  0  0  0  0  0  0  0  0  0  0  0
  139.7717   78.1925  223.3912 H   0  0  0  0  0  0  0  0  0  0  0  0
  139.0901   70.2625  221.9406 H   0  0  0  0  0  0  0  0  0  0  0  0
  139.2040   68.5332  223.7542 H   0  0  0  0  0  0  0  0  0  0  0  0
  139.7839   67.9277  226.0817 H   0  0  0  0  0  0  0  0  0  0  0  0
  141.4715   70.9373  228.6993 H   0  0  0  0  0  0  0  0  0  0  0  0
  141.3103   72.6322  226.8747 H   0  0  0  0  0  0  0  0  0  0  0  0
  1  2  2  0
  2  3  1  0
  3  4  1  0
  4  5  1  0
  5  6  1  0
  5  7  2  0
  7  8  1  0
  8  9  1  0
  9 10  1  0
  9 11  1  0
 11 12  1  0
 12 13  1  0
 13 14  1  0
 14 15  1  0
 15 16  1  0
 16 17  2  0
 17 18  1  0
 18 19  2  0
 19 20  1  0
 20 21  2  0
  2 22  1  0
 22 23  2  0
 23 24  1  0
 24 25  2  0
 25 26  1  0
 26 27  2  0
 27 28  1  0
 27 29  1  0
 29 30  2  0
 30 31  1  0
 31 32  2  0
 12  7  1  0
 21 16  1  0
 32 22  1  0
 31 25  1  0
  4 33  1  0
  4 34  1  0
  6 35  1  0
  8 36  1  0
  8 37  1  0
  9 38  1  1
 10 39  1  0
 11 40  1  0
 11 41  1  0
 12 42  1  6
 13 43  1  0
 13 44  1  0
 15 45  1  0
 15 46  1  0
 17 47  1  0
 18 48  1  0
 19 49  1  0
 20 50  1  0
 21 51  1  0
 23 52  1  0
 24 53  1  0
 26 54  1  0
 29 55  1  0
 30 56  1  0
M  CHG  2   3  -1   7   1
M  END
>  <meeko>  (7) 
{"free_energy": -7.74, "intermolecular_energy": -11.03, "internal_energy": -2.9, "cluster_size": 8, "cluster_id": 1, "rank_in_cluster": 6}

$$$$

     RDKit          3D

 56 59  0  0  0  0  0  0  0  0999 V2000
  138.8190   73.0820  220.8270 O   0  0  0  0  0  0  0  0  0  0  0  0
  139.8260   72.9180  221.5590 C   0  0  0  0  0  0  0  0  0  0  0  0
  141.0090   73.6840  221.3250 N   0  0  0  0  0  0  0  0  0  0  0  0
  140.9920   75.0580  220.8460 C   0  0  0  0  0  0  0  0  0  0  0  0
  140.3510   75.9520  221.8750 C   0  0  0  0  0  0  0  0  0  0  0  0
  139.5070   75.3160  222.8010 O   0  0  0  0  0  0  0  0  0  0  0  0
  140.5290   77.2560  221.8990 N   0  0  0  0  0  0  0  0  0  0  0  0
  141.6420   77.9030  221.2080 C   0  0  0  0  0  0  0  0  0  0  0  0
  141.7920   79.2970  221.8100 C   0  0  2  0  0  0  0  0  0  0  0  0
  142.8900   79.3460  222.6900 O   0  0  0  0  0  0  0  0  0  0  0  0
  140.5010   79.5650  222.5810 C   0  0  0  0  0  0  0  0  0  0  0  0
  139.7720   78.2150  222.7220 C   0  0  1  0  0  0  0  0  0  0  0  0
  138.2820   78.3150  222.2830 C   0  0  0  0  0  0  0  0  0  0  0  0
  137.4770   77.4180  223.0430 O   0  0  0  0  0  0  0  0  0  0  0  0
  136.9080   76.3990  222.2310 C   0  0  0  0  0  0  0  0  0  0  0  0
  136.3160   75.2960  223.0690 C   0  0  0  0  0  0  0  0  0  0  0  0
  135.6450   75.6050  224.2640 C   0  0  0  0  0  0  0  0  0  0  0  0
  135.0800   74.5880  225.0380 C   0  0  0  0  0  0  0  0  0  0  0  0
  135.1900   73.2560  224.6270 C   0  0  0  0  0  0  0  0  0  0  0  0
  135.8610   72.9420  223.4400 C   0  0  0  0  0  0  0  0  0  0  0  0
  136.4210   73.9580  222.6620 C   0  0  0  0  0  0  0  0  0  0  0  0
  139.7660   71.9700  222.6900 C   0  0  0  0  0  0  0  0  0  0  0  0
  139.1170   70.7320  222.5580 C   0  0  0  0  0  0  0  0  0  0  0  0
  139.0800   69.8480  223.6480 C   0  0  0  0  0  0  0  0  0  0  0  0
  139.6820   70.2120  224.8580 C   0  0  0  0  0  0  0  0  0  0  0  0
  139.6760   69.3420  225.9660 C   0  0  0  0  0  0  0  0  0  0  0  0
  140.3080   69.7240  227.1560 C   0  0  0  0  0  0  0  0  0  0  0  0
  140.3430   68.6270  228.5230 Cl  0  0  0  0  0  0  0  0  0  0  0  0
  140.9340   70.9720  227.2540 C   0  0  0  0  0  0  0  0  0  0  0  0
  140.9390   71.8440  226.1580 C   0  0  0  0  0  0  0  0  0  0  0  0
  140.3210   71.4730  224.9500 C   0  0  0  0  0  0  0  0  0  0  0  0
  140.3520   72.3020  223.8740 N   0  0  0  0  0  0  0  0  0  0  0  0
  142.0236   75.3934  220.6634 H   0  0  0  0  0  0  0  0  0  0  0  0
  140.4136   75.1086  219.9117 H   0  0  0  0  0  0  0  0  0  0  0  0
  139.5530   74.3290  223.0190 H   0  0  0  0  0  0  0  0  0  0  0  0
  142.5663   77.3256  221.3575 H   0  0  0  0  0  0  0  0  0  0  0  0
  141.4514   77.9613  220.1262 H   0  0  0  0  0  0  0  0  0  0  0  0
  141.9667   80.0477  221.0252 H   0  0  0  0  0  0  0  0  0  0  0  0
  143.6660   78.9730  222.1890 H   0  0  0  0  0  0  0  0  0  0  0  0
  140.7329   79.9748  223.5751 H   0  0  0  0  0  0  0  0  0  0  0  0
  139.8728   80.2970  222.0523 H   0  0  0  0  0  0  0  0  0  0  0  0
  139.7385   77.8890  223.7720 H   0  0  0  0  0  0  0  0  0  0  0  0
  137.9261   79.3437  222.4414 H   0  0  0  0  0  0  0  0  0  0  0  0
  138.2057   78.0472  221.2188 H   0  0  0  0  0  0  0  0  0  0  0  0
  136.1161   76.8389  221.6070 H   0  0  0  0  0  0  0  0  0  0  0  0
  137.7042   75.9695  221.6053 H   0  0  0  0  0  0  0  0  0  0  0  0
  135.5641   76.6519  224.5918 H   0  0  0  0  0  0  0  0  0  0  0  0
  134.5494   74.8349  225.9694 H   0  0  0  0  0  0  0  0  0  0  0  0
  134.7487   72.4543  225.2374 H   0  0  0  0  0  0  0  0  0  0  0  0
  135.9476   71.8934  223.1190 H   0  0  0  0  0  0  0  0  0  0  0  0
  136.9456   73.7081  221.7280 H   0  0  0  0  0  0  0  0  0  0  0  0
  138.6402   70.4563  221.6058 H   0  0  0  0  0  0  0  0  0  0  0  0
  138.5798   68.8731  223.5515 H   0  0  0  0  0  0  0  0  0  0  0  0
  139.1759   68.3647  225.8967 H   0  0  0  0  0  0  0  0  0  0  0  0
  141.4230   71.2685  228.1936 H   0  0  0  0  0  0  0  0  0  0  0  0
  141.4292   72.8251  226.2424 H   0  0  0  0  0  0  0  0  0  0  0  0
  1  2  2  0
  2  3  1  0
  3  4  1  0
  4  5  1  0
  5  6  1  0
  5  7  2  0
  7  8  1  0
  8  9  1  0
  9 10  1  0
  9 11  1  0
 11 12  1  0
 12 13  1  0
 13 14  1  0
 14 15  1  0
 15 16  1  0
 16 17  2  0
 17 18  1  0
 18 19  2  0
 19 20  1  0
 20 21  2  0
  2 22  1  0
 22 23  2  0
 23 24  1  0
 24 25  2  0
 25 26  1  0
 26 27  2  0
 27 28  1  0
 27 29  1  0
 29 30  2  0
 30 31  1  0
 31 32  2  0
 12  7  1  0
 21 16  1  0
 32 22  1  0
 31 25  1  0
  4 33  1  0
  4 34  1  0
  6 35  1  0
  8 36  1  0
  8 37  1  0
  9 38  1  6
 10 39  1  0
 11 40  1  0
 11 41  1  0
 12 42  1  1
 13 43  1  0
 13 44  1  0
 15 45  1  0
 15 46  1  0
 17 47  1  0
 18 48  1  0
 19 49  1  0
 20 50  1  0
 21 51  1  0
 23 52  1  0
 24 53  1  0
 26 54  1  0
 29 55  1  0
 30 56  1  0
M  CHG  2   3  -1   7   1
M  END
>  <meeko>  (8) 
{"free_energy": -7.4, "intermolecular_energy": -10.68, "internal_energy": -3.24, "cluster_size": 3, "cluster_id": 4, "rank_in_cluster": 1}

$$$$

     RDKit          3D

 56 59  0  0  0  0  0  0  0  0999 V2000
  139.7740   73.4040  222.6700 O   0  0  0  0  0  0  0  0  0  0  0  0
  140.5250   73.6970  221.7090 C   0  0  0  0  0  0  0  0  0  0  0  0
  141.0620   72.6630  220.8820 N   0  0  0  0  0  0  0  0  0  0  0  0
  141.0690   71.2580  221.2600 C   0  0  0  0  0  0  0  0  0  0  0  0
  139.7150   70.6510  221.0020 C   0  0  0  0  0  0  0  0  0  0  0  0
  139.5530   70.0150  219.7590 O   0  0  0  0  0  0  0  0  0  0  0  0
  138.7200   70.7330  221.8600 N   0  0  0  0  0  0  0  0  0  0  0  0
  137.4250   71.3070  221.5000 C   0  0  0  0  0  0  0  0  0  0  0  0
  136.7100   71.6480  222.8030 C   0  0  2  0  0  0  0  0  0  0  0  0
  136.7550   73.0330  223.0510 O   0  0  0  0  0  0  0  0  0  0  0  0
  137.4600   70.9020  223.9050 C   0  0  0  0  0  0  0  0  0  0  0  0
  138.7960   70.4290  223.2990 C   0  0  1  0  0  0  0  0  0  0  0  0
  139.0480   68.9170  223.5670 C   0  0  0  0  0  0  0  0  0  0  0  0
  138.7570   68.5940  224.9240 O   0  0  0  0  0  0  0  0  0  0  0  0
  139.9380   68.4520  225.7000 C   0  0  0  0  0  0  0  0  0  0  0  0
  140.3160   69.7490  226.3670 C   0  0  0  0  0  0  0  0  0  0  0  0
  139.8920   70.0120  227.6800 C   0  0  0  0  0  0  0  0  0  0  0  0
  140.2520   71.2060  228.3110 C   0  0  0  0  0  0  0  0  0  0  0  0
  141.0300   72.1480  227.6300 C   0  0  0  0  0  0  0  0  0  0  0  0
  141.4510   71.8930  226.3190 C   0  0  0  0  0  0  0  0  0  0  0  0
  141.0970   70.6970  225.6900 C   0  0  0  0  0  0  0  0  0  0  0  0
  140.8090   75.1140  221.4040 C   0  0  0  0  0  0  0  0  0  0  0  0
  141.0820   75.5280  220.0900 C   0  0  0  0  0  0  0  0  0  0  0  0
  141.3420   76.8820  219.8290 C   0  0  0  0  0  0  0  0  0  0  0  0
  141.3360   77.8060  220.8790 C   0  0  0  0  0  0  0  0  0  0  0  0
  141.5780   79.1750  220.6490 C   0  0  0  0  0  0  0  0  0  0  0  0
  141.5410   80.0790  221.7180 C   0  0  0  0  0  0  0  0  0  0  0  0
  141.7970   81.7890  221.4290 Cl  0  0  0  0  0  0  0  0  0  0  0  0
  141.2780   79.6280  223.0160 C   0  0  0  0  0  0  0  0  0  0  0  0
  141.0410   78.2680  223.2530 C   0  0  0  0  0  0  0  0  0  0  0  0
  141.0620   77.3460  222.1910 C   0  0  0  0  0  0  0  0  0  0  0  0
  140.8010   76.0310  222.4120 N   0  0  0  0  0  0  0  0  0  0  0  0
  141.8268   70.7246  220.6673 H   0  0  0  0  0  0  0  0  0  0  0  0
  141.3063   71.1722  222.3307 H   0  0  0  0  0  0  0  0  0  0  0  0
  139.9900   70.3340  218.9040 H   0  0  0  0  0  0  0  0  0  0  0  0
  137.5692   72.2170  220.8990 H   0  0  0  0  0  0  0  0  0  0  0  0
  136.8340   70.5975  220.9023 H   0  0  0  0  0  0  0  0  0  0  0  0
  135.6501   71.3575  222.7569 H   0  0  0  0  0  0  0  0  0  0  0  0
  137.7070   73.2500  223.2470 H   0  0  0  0  0  0  0  0  0  0  0  0
  137.6477   71.5736  224.7558 H   0  0  0  0  0  0  0  0  0  0  0  0
  136.8713   70.0486  224.2726 H   0  0  0  0  0  0  0  0  0  0  0  0
  139.6489   70.9458  223.7632 H   0  0  0  0  0  0  0  0  0  0  0  0
  138.4020   68.3200  222.9065 H   0  0  0  0  0  0  0  0  0  0  0  0
  140.1062   68.6925  223.3676 H   0  0  0  0  0  0  0  0  0  0  0  0
  139.7688   67.6879  226.4730 H   0  0  0  0  0  0  0  0  0  0  0  0
  140.7587   68.1546  225.0307 H   0  0  0  0  0  0  0  0  0  0  0  0
  139.2740   69.2751  228.2139 H   0  0  0  0  0  0  0  0  0  0  0  0
  139.9239   71.4047  229.3420 H   0  0  0  0  0  0  0  0  0  0  0  0
  141.3113   73.0895  228.1244 H   0  0  0  0  0  0  0  0  0  0  0  0
  142.0612   72.6354  225.7838 H   0  0  0  0  0  0  0  0  0  0  0  0
  141.4316   70.4982  224.6612 H   0  0  0  0  0  0  0  0  0  0  0  0
  141.0919   74.7949  219.2700 H   0  0  0  0  0  0  0  0  0  0  0  0
  141.5499   77.2157  218.8017 H   0  0  0  0  0  0  0  0  0  0  0  0
  141.7955   79.5329  219.6319 H   0  0  0  0  0  0  0  0  0  0  0  0
  141.2573   80.3427  223.8519 H   0  0  0  0  0  0  0  0  0  0  0  0
  140.8372   77.9188  224.2760 H   0  0  0  0  0  0  0  0  0  0  0  0
  1  2  2  0
  2  3  1  0
  3  4  1  0
  4  5  1  0
  5  6  1  0
  5  7  2  0
  7  8  1  0
  8  9  1  0
  9 10  1  0
  9 11  1  0
 11 12  1  0
 12 13  1  0
 13 14  1  0
 14 15  1  0
 15 16  1  0
 16 17  2  0
 17 18  1  0
 18 19  2  0
 19 20  1  0
 20 21  2  0
  2 22  1  0
 22 23  2  0
 23 24  1  0
 24 25  2  0
 25 26  1  0
 26 27  2  0
 27 28  1  0
 27 29  1  0
 29 30  2  0
 30 31  1  0
 31 32  2  0
 12  7  1  0
 21 16  1  0
 32 22  1  0
 31 25  1  0
  4 33  1  0
  4 34  1  0
  6 35  1  0
  8 36  1  0
  8 37  1  0
  9 38  1  6
 10 39  1  0
 11 40  1  0
 11 41  1  0
 12 42  1  1
 13 43  1  0
 13 44  1  0
 15 45  1  0
 15 46  1  0
 17 47  1  0
 18 48  1  0
 19 49  1  0
 20 50  1  0
 21 51  1  0
 23 52  1  0
 24 53  1  0
 26 54  1  0
 29 55  1  0
 30 56  1  0
M  CHG  2   3  -1   7   1
M  END
>  <meeko>  (9) 
{"free_energy": -7.46, "intermolecular_energy": -10.74, "internal_energy": -2.78, "cluster_size": 6, "cluster_id": 3, "rank_in_cluster": 2}

$$$$

     RDKit          3D

 56 59  0  0  0  0  0  0  0  0999 V2000
  141.2430   72.8020  221.0180 O   0  0  0  0  0  0  0  0  0  0  0  0
  140.3210   72.9200  221.8630 C   0  0  0  0  0  0  0  0  0  0  0  0
  139.3560   73.9640  221.7230 N   0  0  0  0  0  0  0  0  0  0  0  0
  139.5020   75.2760  222.3340 C   0  0  0  0  0  0  0  0  0  0  0  0
  140.2810   76.1840  221.4180 C   0  0  0  0  0  0  0  0  0  0  0  0
  140.7790   75.5930  220.2460 O   0  0  0  0  0  0  0  0  0  0  0  0
  140.5240   77.4470  221.7010 N   0  0  0  0  0  0  0  0  0  0  0  0
  141.6770   78.1600  221.1580 C   0  0  0  0  0  0  0  0  0  0  0  0
  141.8870   79.3970  222.0250 C   0  0  2  0  0  0  0  0  0  0  0  0
  142.9720   79.2150  222.9020 O   0  0  0  0  0  0  0  0  0  0  0  0
  140.5990   79.5740  222.8280 C   0  0  0  0  0  0  0  0  0  0  0  0
  139.8020   78.2610  222.6940 C   0  0  1  0  0  0  0  0  0  0  0  0
  138.3250   78.5220  222.2770 C   0  0  0  0  0  0  0  0  0  0  0  0
  137.4370   77.7350  223.0650 O   0  0  0  0  0  0  0  0  0  0  0  0
  136.6660   76.8480  222.2680 C   0  0  0  0  0  0  0  0  0  0  0  0
  136.1240   75.7040  223.0850 C   0  0  0  0  0  0  0  0  0  0  0  0
  136.2920   74.3820  222.6410 C   0  0  0  0  0  0  0  0  0  0  0  0
  135.8050   73.3160  223.4030 C   0  0  0  0  0  0  0  0  0  0  0  0
  135.1400   73.5660  224.6070 C   0  0  0  0  0  0  0  0  0  0  0  0
  134.9650   74.8810  225.0520 C   0  0  0  0  0  0  0  0  0  0  0  0
  135.4570   75.9480  224.2950 C   0  0  0  0  0  0  0  0  0  0  0  0
  140.2080   71.9460  222.9670 C   0  0  0  0  0  0  0  0  0  0  0  0
  139.6120   70.6910  222.7610 C   0  0  0  0  0  0  0  0  0  0  0  0
  139.5240   69.7820  223.8270 C   0  0  0  0  0  0  0  0  0  0  0  0
  140.0230   70.1360  225.0860 C   0  0  0  0  0  0  0  0  0  0  0  0
  139.9630   69.2410  226.1730 C   0  0  0  0  0  0  0  0  0  0  0  0
  140.4940   69.6160  227.4140 C   0  0  0  0  0  0  0  0  0  0  0  0
  140.4630   68.4900  228.7570 Cl  0  0  0  0  0  0  0  0  0  0  0  0
  141.0690   70.8800  227.5830 C   0  0  0  0  0  0  0  0  0  0  0  0
  141.1270   71.7760  226.5090 C   0  0  0  0  0  0  0  0  0  0  0  0
  140.6120   71.4140  225.2510 C   0  0  0  0  0  0  0  0  0  0  0  0
  140.6940   72.2680  224.1970 N   0  0  0  0  0  0  0  0  0  0  0  0
  138.5063   75.7071  222.5147 H   0  0  0  0  0  0  0  0  0  0  0  0
  140.0412   75.1738  223.2873 H   0  0  0  0  0  0  0  0  0  0  0  0
  140.6610   74.6140  220.0150 H   0  0  0  0  0  0  0  0  0  0  0  0
  142.5693   77.5178  221.1942 H   0  0  0  0  0  0  0  0  0  0  0  0
  141.5052   78.4415  220.1086 H   0  0  0  0  0  0  0  0  0  0  0  0
  142.1106   80.2778  221.4051 H   0  0  0  0  0  0  0  0  0  0  0  0
  143.6870   78.7670  222.3720 H   0  0  0  0  0  0  0  0  0  0  0  0
  140.8358   79.7663  223.8849 H   0  0  0  0  0  0  0  0  0  0  0  0
  140.0159   80.4279  222.4527 H   0  0  0  0  0  0  0  0  0  0  0  0
  139.7363   77.7350  223.6578 H   0  0  0  0  0  0  0  0  0  0  0  0
  138.0907   79.5869  222.4224 H   0  0  0  0  0  0  0  0  0  0  0  0
  138.2003   78.2469  221.2193 H   0  0  0  0  0  0  0  0  0  0  0  0
  135.8248   77.4028  221.8269 H   0  0  0  0  0  0  0  0  0  0  0  0
  137.3160   76.4348  221.4827 H   0  0  0  0  0  0  0  0  0  0  0  0
  136.8087   74.1848  221.6902 H   0  0  0  0  0  0  0  0  0  0  0  0
  135.9449   72.2817  223.0556 H   0  0  0  0  0  0  0  0  0  0  0  0
  134.7538   72.7277  225.2054 H   0  0  0  0  0  0  0  0  0  0  0  0
  134.4396   75.0753  225.9987 H   0  0  0  0  0  0  0  0  0  0  0  0
  135.3210   76.9807  224.6485 H   0  0  0  0  0  0  0  0  0  0  0  0
  139.2166   70.4221  221.7704 H   0  0  0  0  0  0  0  0  0  0  0  0
  139.0643   68.7945  223.6735 H   0  0  0  0  0  0  0  0  0  0  0  0
  139.5006   68.2509  226.0474 H   0  0  0  0  0  0  0  0  0  0  0  0
  141.4767   71.1706  228.5624 H   0  0  0  0  0  0  0  0  0  0  0  0
  141.5781   72.7693  226.6497 H   0  0  0  0  0  0  0  0  0  0  0  0
  1  2  2  0
  2  3  1  0
  3  4  1  0
  4  5  1  0
  5  6  1  0
  5  7  2  0
  7  8  1  0
  8  9  1  0
  9 10  1  0
  9 11  1  0
 11 12  1  0
 12 13  1  0
 13 14  1  0
 14 15  1  0
 15 16  1  0
 16 17  2  0
 17 18  1  0
 18 19  2  0
 19 20  1  0
 20 21  2  0
  2 22  1  0
 22 23  2  0
 23 24  1  0
 24 25  2  0
 25 26  1  0
 26 27  2  0
 27 28  1  0
 27 29  1  0
 29 30  2  0
 30 31  1  0
 31 32  2  0
 12  7  1  0
 21 16  1  0
 32 22  1  0
 31 25  1  0
  4 33  1  0
  4 34  1  0
  6 35  1  0
  8 36  1  0
  8 37  1  0
  9 38  1  6
 10 39  1  0
 11 40  1  0
 11 41  1  0
 12 42  1  1
 13 43  1  0
 13 44  1  0
 15 45  1  0
 15 46  1  0
 17 47  1  0
 18 48  1  0
 19 49  1  0
 20 50  1  0
 21 51  1  0
 23 52  1  0
 24 53  1  0
 26 54  1  0
 29 55  1  0
 30 56  1  0
M  CHG  2   3  -1   7   1
M  END
>  <meeko>  (10) 
{"free_energy": -6.72, "intermolecular_energy": -10.0, "internal_energy": -3.23, "cluster_size": 3, "cluster_id": 4, "rank_in_cluster": 2}

$$$$

     RDKit          3D

 56 59  0  0  0  0  0  0  0  0999 V2000
  136.8190   71.9160  221.6110 O   0  0  0  0  0  0  0  0  0  0  0  0
  137.9950   71.4890  221.7150 C   0  0  0  0  0  0  0  0  0  0  0  0
  138.9520   71.7790  220.6930 N   0  0  0  0  0  0  0  0  0  0  0  0
  139.4720   73.1130  220.4380 C   0  0  0  0  0  0  0  0  0  0  0  0
  140.6940   73.3580  221.2840 C   0  0  0  0  0  0  0  0  0  0  0  0
  140.4850   73.3780  222.6730 O   0  0  0  0  0  0  0  0  0  0  0  0
  141.8860   73.5790  220.7700 N   0  0  0  0  0  0  0  0  0  0  0  0
  142.7840   72.4920  220.3900 C   0  0  0  0  0  0  0  0  0  0  0  0
  144.1840   73.0890  220.2750 C   0  0  2  0  0  0  0  0  0  0  0  0
  144.9660   72.7500  221.3950 O   0  0  0  0  0  0  0  0  0  0  0  0
  143.9940   74.6040  220.2180 C   0  0  0  0  0  0  0  0  0  0  0  0
  142.5440   74.8920  220.6540 C   0  0  1  0  0  0  0  0  0  0  0  0
  141.8130   75.8270  219.6460 C   0  0  0  0  0  0  0  0  0  0  0  0
  141.0530   76.8120  220.3410 O   0  0  0  0  0  0  0  0  0  0  0  0
  141.5610   78.1210  220.1250 C   0  0  0  0  0  0  0  0  0  0  0  0
  141.7340   78.8640  221.4240 C   0  0  0  0  0  0  0  0  0  0  0  0
  141.4420   78.2270  222.6410 C   0  0  0  0  0  0  0  0  0  0  0  0
  141.6160   78.9060  223.8510 C   0  0  0  0  0  0  0  0  0  0  0  0
  142.0740   80.2270  223.8500 C   0  0  0  0  0  0  0  0  0  0  0  0
  142.3620   80.8680  222.6400 C   0  0  0  0  0  0  0  0  0  0  0  0
  142.1950   80.1890  221.4300 C   0  0  0  0  0  0  0  0  0  0  0  0
  138.3990   70.7350  222.9190 C   0  0  0  0  0  0  0  0  0  0  0  0
  137.9290   69.4300  223.1410 C   0  0  0  0  0  0  0  0  0  0  0  0
  138.3340   68.7330  224.2900 C   0  0  0  0  0  0  0  0  0  0  0  0
  139.1940   69.3470  225.2080 C   0  0  0  0  0  0  0  0  0  0  0  0
  139.6320   68.6700  226.3640 C   0  0  0  0  0  0  0  0  0  0  0  0
  140.5120   69.3020  227.2510 C   0  0  0  0  0  0  0  0  0  0  0  0
  141.0950   68.4480  228.6660 Cl  0  0  0  0  0  0  0  0  0  0  0  0
  140.9490   70.6070  227.0010 C   0  0  0  0  0  0  0  0  0  0  0  0
  140.5140   71.2880  225.8570 C   0  0  0  0  0  0  0  0  0  0  0  0
  139.6400   70.6660  224.9480 C   0  0  0  0  0  0  0  0  0  0  0  0
  139.2420   71.3110  223.8200 N   0  0  0  0  0  0  0  0  0  0  0  0
  139.7405   73.2027  219.3750 H   0  0  0  0  0  0  0  0  0  0  0  0
  138.7016   73.8562  220.6912 H   0  0  0  0  0  0  0  0  0  0  0  0
  139.5810   73.2500  223.1080 H   0  0  0  0  0  0  0  0  0  0  0  0
  142.7709   71.7051  221.1585 H   0  0  0  0  0  0  0  0  0  0  0  0
  142.4710   72.0391  219.4377 H   0  0  0  0  0  0  0  0  0  0  0  0
  144.7031   72.7050  219.3844 H   0  0  0  0  0  0  0  0  0  0  0  0
  145.3230   71.8370  221.2200 H   0  0  0  0  0  0  0  0  0  0  0  0
  144.6996   75.0994  220.9012 H   0  0  0  0  0  0  0  0  0  0  0  0
  144.1826   74.9858  219.2038 H   0  0  0  0  0  0  0  0  0  0  0  0
  142.5162   75.4300  221.6131 H   0  0  0  0  0  0  0  0  0  0  0  0
  142.5582   76.3269  219.0099 H   0  0  0  0  0  0  0  0  0  0  0  0
  141.1325   75.2223  219.0286 H   0  0  0  0  0  0  0  0  0  0  0  0
  142.5364   78.0480  219.6217 H   0  0  0  0  0  0  0  0  0  0  0  0
  140.8415   78.6736  219.5029 H   0  0  0  0  0  0  0  0  0  0  0  0
  141.0750   77.1900  222.6425 H   0  0  0  0  0  0  0  0  0  0  0  0
  141.3928   78.4014  224.8026 H   0  0  0  0  0  0  0  0  0  0  0  0
  142.2081   80.7629  224.8013 H   0  0  0  0  0  0  0  0  0  0  0  0
  142.7204   81.9080  222.6412 H   0  0  0  0  0  0  0  0  0  0  0  0
  142.4255   80.6944  220.4805 H   0  0  0  0  0  0  0  0  0  0  0  0
  137.2475   68.9571  222.4186 H   0  0  0  0  0  0  0  0  0  0  0  0
  137.9769   67.7080  224.4684 H   0  0  0  0  0  0  0  0  0  0  0  0
  139.2832   67.6471  226.5690 H   0  0  0  0  0  0  0  0  0  0  0  0
  141.6361   71.0997  227.7047 H   0  0  0  0  0  0  0  0  0  0  0  0
  140.8582   72.3156  225.6685 H   0  0  0  0  0  0  0  0  0  0  0  0
  1  2  2  0
  2  3  1  0
  3  4  1  0
  4  5  1  0
  5  6  1  0
  5  7  2  0
  7  8  1  0
  8  9  1  0
  9 10  1  0
  9 11  1  0
 11 12  1  0
 12 13  1  0
 13 14  1  0
 14 15  1  0
 15 16  1  0
 16 17  2  0
 17 18  1  0
 18 19  2  0
 19 20  1  0
 20 21  2  0
  2 22  1  0
 22 23  2  0
 23 24  1  0
 24 25  2  0
 25 26  1  0
 26 27  2  0
 27 28  1  0
 27 29  1  0
 29 30  2  0
 30 31  1  0
 31 32  2  0
 12  7  1  0
 21 16  1  0
 32 22  1  0
 31 25  1  0
  4 33  1  0
  4 34  1  0
  6 35  1  0
  8 36  1  0
  8 37  1  0
  9 38  1  6
 10 39  1  0
 11 40  1  0
 11 41  1  0
 12 42  1  1
 13 43  1  0
 13 44  1  0
 15 45  1  0
 15 46  1  0
 17 47  1  0
 18 48  1  0
 19 49  1  0
 20 50  1  0
 21 51  1  0
 23 52  1  0
 24 53  1  0
 26 54  1  0
 29 55  1  0
 30 56  1  0
M  CHG  2   3  -1   7   1
M  END
>  <meeko>  (11) 
{"free_energy": -8.16, "intermolecular_energy": -11.44, "internal_energy": -2.24, "cluster_size": 8, "cluster_id": 1, "rank_in_cluster": 4}

$$$$

     RDKit          3D

 56 59  0  0  0  0  0  0  0  0999 V2000
  138.3000   70.9740  220.8550 O   0  0  0  0  0  0  0  0  0  0  0  0
  138.0580   71.3500  222.0280 C   0  0  0  0  0  0  0  0  0  0  0  0
  137.2710   72.5220  222.2540 N   0  0  0  0  0  0  0  0  0  0  0  0
  137.3300   73.7020  221.4050 C   0  0  0  0  0  0  0  0  0  0  0  0
  138.7040   74.3170  221.4770 C   0  0  0  0  0  0  0  0  0  0  0  0
  139.5830   73.7490  222.4140 O   0  0  0  0  0  0  0  0  0  0  0  0
  139.0640   75.3480  220.7420 N   0  0  0  0  0  0  0  0  0  0  0  0
  138.0880   76.2380  220.1160 C   0  0  0  0  0  0  0  0  0  0  0  0
  138.8200   77.0010  219.0160 C   0  0  2  0  0  0  0  0  0  0  0  0
  138.4980   76.4820  217.7480 O   0  0  0  0  0  0  0  0  0  0  0  0
  140.3110   76.8080  219.2890 C   0  0  0  0  0  0  0  0  0  0  0  0
  140.4370   75.6620  220.3110 C   0  0  1  0  0  0  0  0  0  0  0  0
  141.3510   76.0550  221.5090 C   0  0  0  0  0  0  0  0  0  0  0  0
  140.5650   76.3710  222.6550 O   0  0  0  0  0  0  0  0  0  0  0  0
  139.9340   77.6380  222.5320 C   0  0  0  0  0  0  0  0  0  0  0  0
  140.9350   78.7600  222.6150 C   0  0  0  0  0  0  0  0  0  0  0  0
  141.5850   79.0320  223.8310 C   0  0  0  0  0  0  0  0  0  0  0  0
  142.5260   80.0620  223.9120 C   0  0  0  0  0  0  0  0  0  0  0  0
  142.8160   80.8320  222.7810 C   0  0  0  0  0  0  0  0  0  0  0  0
  142.1680   80.5690  221.5690 C   0  0  0  0  0  0  0  0  0  0  0  0
  141.2320   79.5350  221.4850 C   0  0  0  0  0  0  0  0  0  0  0  0
  138.5450   70.5510  223.1700 C   0  0  0  0  0  0  0  0  0  0  0  0
  138.3090   69.1680  223.2330 C   0  0  0  0  0  0  0  0  0  0  0  0
  138.7880   68.4310  224.3280 C   0  0  0  0  0  0  0  0  0  0  0  0
  139.4900   69.0810  225.3490 C   0  0  0  0  0  0  0  0  0  0  0  0
  139.9980   68.3690  226.4540 C   0  0  0  0  0  0  0  0  0  0  0  0
  140.7170   69.0440  227.4480 C   0  0  0  0  0  0  0  0  0  0  0  0
  141.3900   68.1550  228.8010 Cl  0  0  0  0  0  0  0  0  0  0  0  0
  140.9220   70.4250  227.3560 C   0  0  0  0  0  0  0  0  0  0  0  0
  140.4160   71.1400  226.2640 C   0  0  0  0  0  0  0  0  0  0  0  0
  139.7020   70.4790  225.2490 C   0  0  0  0  0  0  0  0  0  0  0  0
  139.2370   71.1630  224.1710 N   0  0  0  0  0  0  0  0  0  0  0  0
  137.1129   73.4148  220.3656 H   0  0  0  0  0  0  0  0  0  0  0  0
  136.5864   74.4350  221.7511 H   0  0  0  0  0  0  0  0  0  0  0  0
  139.3070   73.0510  223.0930 H   0  0  0  0  0  0  0  0  0  0  0  0
  137.2640   75.6509  219.6842 H   0  0  0  0  0  0  0  0  0  0  0  0
  137.6585   76.9307  220.8547 H   0  0  0  0  0  0  0  0  0  0  0  0
  138.5347   78.0634  219.0174 H   0  0  0  0  0  0  0  0  0  0  0  0
  137.5780   76.1070  217.8260 H   0  0  0  0  0  0  0  0  0  0  0  0
  140.8343   76.5435  218.3583 H   0  0  0  0  0  0  0  0  0  0  0  0
  140.7618   77.7327  219.6785 H   0  0  0  0  0  0  0  0  0  0  0  0
  140.9178   74.7803  219.8622 H   0  0  0  0  0  0  0  0  0  0  0  0
  142.0166   75.2124  221.7479 H   0  0  0  0  0  0  0  0  0  0  0  0
  141.9429   76.9390  221.2293 H   0  0  0  0  0  0  0  0  0  0  0  0
  139.4190   77.6887  221.5613 H   0  0  0  0  0  0  0  0  0  0  0  0
  139.2182   77.7504  223.3596 H   0  0  0  0  0  0  0  0  0  0  0  0
  141.3521   78.4316  224.7228 H   0  0  0  0  0  0  0  0  0  0  0  0
  143.0379   80.2668  224.8639 H   0  0  0  0  0  0  0  0  0  0  0  0
  143.5541   81.6451  222.8443 H   0  0  0  0  0  0  0  0  0  0  0  0
  142.3958   81.1771  220.6811 H   0  0  0  0  0  0  0  0  0  0  0  0
  140.7269   79.3285  220.5299 H   0  0  0  0  0  0  0  0  0  0  0  0
  137.7520   68.6649  222.4289 H   0  0  0  0  0  0  0  0  0  0  0  0
  138.6120   67.3466  224.3830 H   0  0  0  0  0  0  0  0  0  0  0  0
  139.8300   67.2850  226.5355 H   0  0  0  0  0  0  0  0  0  0  0  0
  141.4821   70.9502  228.1437 H   0  0  0  0  0  0  0  0  0  0  0  0
  140.5781   72.2261  226.1996 H   0  0  0  0  0  0  0  0  0  0  0  0
  1  2  2  0
  2  3  1  0
  3  4  1  0
  4  5  1  0
  5  6  1  0
  5  7  2  0
  7  8  1  0
  8  9  1  0
  9 10  1  0
  9 11  1  0
 11 12  1  0
 12 13  1  0
 13 14  1  0
 14 15  1  0
 15 16  1  0
 16 17  2  0
 17 18  1  0
 18 19  2  0
 19 20  1  0
 20 21  2  0
  2 22  1  0
 22 23  2  0
 23 24  1  0
 24 25  2  0
 25 26  1  0
 26 27  2  0
 27 28  1  0
 27 29  1  0
 29 30  2  0
 30 31  1  0
 31 32  2  0
 12  7  1  0
 21 16  1  0
 32 22  1  0
 31 25  1  0
  4 33  1  0
  4 34  1  0
  6 35  1  0
  8 36  1  0
  8 37  1  0
  9 38  1  6
 10 39  1  0
 11 40  1  0
 11 41  1  0
 12 42  1  6
 13 43  1  0
 13 44  1  0
 15 45  1  0
 15 46  1  0
 17 47  1  0
 18 48  1  0
 19 49  1  0
 20 50  1  0
 21 51  1  0
 23 52  1  0
 24 53  1  0
 26 54  1  0
 29 55  1  0
 30 56  1  0
M  CHG  2   3  -1   7   1
M  END
>  <meeko>  (12) 
{"free_energy": -6.92, "intermolecular_energy": -10.2, "internal_energy": -2.95, "cluster_size": 8, "cluster_id": 1, "rank_in_cluster": 8}

$$$$

     RDKit          3D

 56 59  0  0  0  0  0  0  0  0999 V2000
  140.3960   73.8500  218.2940 O   0  0  0  0  0  0  0  0  0  0  0  0
  140.7680   73.9570  219.4880 C   0  0  0  0  0  0  0  0  0  0  0  0
  140.8680   72.7920  220.3100 N   0  0  0  0  0  0  0  0  0  0  0  0
  139.7160   72.0250  220.7560 C   0  0  0  0  0  0  0  0  0  0  0  0
  139.1820   72.6020  222.0410 C   0  0  0  0  0  0  0  0  0  0  0  0
  139.9480   73.6270  222.6190 O   0  0  0  0  0  0  0  0  0  0  0  0
  138.0860   72.1590  222.6220 N   0  0  0  0  0  0  0  0  0  0  0  0
  136.7780   72.7620  222.3800 C   0  0  0  0  0  0  0  0  0  0  0  0
  135.8640   72.3180  223.5180 C   0  0  2  0  0  0  0  0  0  0  0  0
  135.6790   73.3590  224.4470 O   0  0  0  0  0  0  0  0  0  0  0  0
  136.5710   71.1440  224.1940 C   0  0  0  0  0  0  0  0  0  0  0  0
  138.0250   71.1420  223.6860 C   0  0  1  0  0  0  0  0  0  0  0  0
  138.4580   69.7360  223.1770 C   0  0  0  0  0  0  0  0  0  0  0  0
  139.7070   69.3600  223.7500 O   0  0  0  0  0  0  0  0  0  0  0  0
  139.5620   68.9130  225.0910 C   0  0  0  0  0  0  0  0  0  0  0  0
  140.0850   69.9320  226.0700 C   0  0  0  0  0  0  0  0  0  0  0  0
  140.9550   70.9440  225.6310 C   0  0  0  0  0  0  0  0  0  0  0  0
  141.4310   71.9020  226.5310 C   0  0  0  0  0  0  0  0  0  0  0  0
  141.0470   71.8480  227.8750 C   0  0  0  0  0  0  0  0  0  0  0  0
  140.1850   70.8390  228.3170 C   0  0  0  0  0  0  0  0  0  0  0  0
  139.7030   69.8850  227.4180 C   0  0  0  0  0  0  0  0  0  0  0  0
  141.1510   75.2790  220.0220 C   0  0  0  0  0  0  0  0  0  0  0  0
  142.1940   76.0170  219.4380 C   0  0  0  0  0  0  0  0  0  0  0  0
  142.5330   77.2740  219.9620 C   0  0  0  0  0  0  0  0  0  0  0  0
  141.8350   77.7780  221.0650 C   0  0  0  0  0  0  0  0  0  0  0  0
  142.1390   79.0420  221.6060 C   0  0  0  0  0  0  0  0  0  0  0  0
  141.4060   79.5300  222.6960 C   0  0  0  0  0  0  0  0  0  0  0  0
  141.7520   81.1220  223.3440 Cl  0  0  0  0  0  0  0  0  0  0  0  0
  140.3820   78.7610  223.2590 C   0  0  0  0  0  0  0  0  0  0  0  0
  140.0770   77.5000  222.7290 C   0  0  0  0  0  0  0  0  0  0  0  0
  140.7930   76.9990  221.6280 C   0  0  0  0  0  0  0  0  0  0  0  0
  140.4790   75.7910  221.0900 N   0  0  0  0  0  0  0  0  0  0  0  0
  138.9319   72.0632  219.9855 H   0  0  0  0  0  0  0  0  0  0  0  0
  140.0196   70.9815  220.9262 H   0  0  0  0  0  0  0  0  0  0  0  0
  140.7290   74.0750  222.1570 H   0  0  0  0  0  0  0  0  0  0  0  0
  136.8637   73.8586  222.3704 H   0  0  0  0  0  0  0  0  0  0  0  0
  136.3744   72.4461  221.4067 H   0  0  0  0  0  0  0  0  0  0  0  0
  134.8707   72.0379  223.1374 H   0  0  0  0  0  0  0  0  0  0  0  0
  136.5530   73.8310  224.5150 H   0  0  0  0  0  0  0  0  0  0  0  0
  136.5526   71.2702  225.2866 H   0  0  0  0  0  0  0  0  0  0  0  0
  136.0703   70.1940  223.9558 H   0  0  0  0  0  0  0  0  0  0  0  0
  138.7289   71.3804  224.4970 H   0  0  0  0  0  0  0  0  0  0  0  0
  137.6933   68.9975  223.4596 H   0  0  0  0  0  0  0  0  0  0  0  0
  138.5652   69.7716  222.0828 H   0  0  0  0  0  0  0  0  0  0  0  0
  138.4960   68.7346  225.2954 H   0  0  0  0  0  0  0  0  0  0  0  0
  140.1431   67.9869  225.2119 H   0  0  0  0  0  0  0  0  0  0  0  0
  141.2627   70.9827  224.5756 H   0  0  0  0  0  0  0  0  0  0  0  0
  142.1066   72.6972  226.1828 H   0  0  0  0  0  0  0  0  0  0  0  0
  141.4232   72.5995  228.5847 H   0  0  0  0  0  0  0  0  0  0  0  0
  139.8861   70.7968  229.3748 H   0  0  0  0  0  0  0  0  0  0  0  0
  139.0223   69.0952  227.7684 H   0  0  0  0  0  0  0  0  0  0  0  0
  142.7420   75.6118  218.5746 H   0  0  0  0  0  0  0  0  0  0  0  0
  143.3446   77.8610  219.5072 H   0  0  0  0  0  0  0  0  0  0  0  0
  142.9507   79.6455  221.1736 H   0  0  0  0  0  0  0  0  0  0  0  0
  139.8152   79.1467  224.1192 H   0  0  0  0  0  0  0  0  0  0  0  0
  139.2724   76.8986  223.1773 H   0  0  0  0  0  0  0  0  0  0  0  0
  1  2  2  0
  2  3  1  0
  3  4  1  0
  4  5  1  0
  5  6  1  0
  5  7  2  0
  7  8  1  0
  8  9  1  0
  9 10  1  0
  9 11  1  0
 11 12  1  0
 12 13  1  0
 13 14  1  0
 14 15  1  0
 15 16  1  0
 16 17  2  0
 17 18  1  0
 18 19  2  0
 19 20  1  0
 20 21  2  0
  2 22  1  0
 22 23  2  0
 23 24  1  0
 24 25  2  0
 25 26  1  0
 26 27  2  0
 27 28  1  0
 27 29  1  0
 29 30  2  0
 30 31  1  0
 31 32  2  0
 12  7  1  0
 21 16  1  0
 32 22  1  0
 31 25  1  0
  4 33  1  0
  4 34  1  0
  6 35  1  0
  8 36  1  0
  8 37  1  0
  9 38  1  6
 10 39  1  0
 11 40  1  0
 11 41  1  0
 12 42  1  1
 13 43  1  0
 13 44  1  0
 15 45  1  0
 15 46  1  0
 17 47  1  0
 18 48  1  0
 19 49  1  0
 20 50  1  0
 21 51  1  0
 23 52  1  0
 24 53  1  0
 26 54  1  0
 29 55  1  0
 30 56  1  0
M  CHG  2   3  -1   7   1
M  END
>  <meeko>  (13) 
{"free_energy": -7.01, "intermolecular_energy": -10.29, "internal_energy": -3.04, "cluster_size": 6, "cluster_id": 3, "rank_in_cluster": 5}

$$$$

     RDKit          3D

 56 59  0  0  0  0  0  0  0  0999 V2000
  140.4550   72.9850  220.1070 O   0  0  0  0  0  0  0  0  0  0  0  0
  140.4570   73.3070  221.3210 C   0  0  0  0  0  0  0  0  0  0  0  0
  141.0710   72.4490  222.2850 N   0  0  0  0  0  0  0  0  0  0  0  0
  140.3230   71.7130  223.2920 C   0  0  0  0  0  0  0  0  0  0  0  0
  139.3310   70.7950  222.6260 C   0  0  0  0  0  0  0  0  0  0  0  0
  139.5270   70.5710  221.2540 O   0  0  0  0  0  0  0  0  0  0  0  0
  138.3130   70.2580  223.2670 N   0  0  0  0  0  0  0  0  0  0  0  0
  136.9320   70.4400  222.8260 C   0  0  0  0  0  0  0  0  0  0  0  0
  136.0360   70.0860  224.0100 C   0  0  2  0  0  0  0  0  0  0  0  0
  135.5280   71.2490  224.6170 O   0  0  0  0  0  0  0  0  0  0  0  0
  136.9220   69.3320  225.0000 C   0  0  0  0  0  0  0  0  0  0  0  0
  138.3810   69.5600  224.5610 C   0  0  1  0  0  0  0  0  0  0  0  0
  139.1710   68.2220  224.4650 C   0  0  0  0  0  0  0  0  0  0  0  0
  139.1830   67.5570  225.7250 O   0  0  0  0  0  0  0  0  0  0  0  0
  140.3880   67.7980  226.4390 C   0  0  0  0  0  0  0  0  0  0  0  0
  140.5090   69.2460  226.8390 C   0  0  0  0  0  0  0  0  0  0  0  0
  141.2790   70.1250  226.0610 C   0  0  0  0  0  0  0  0  0  0  0  0
  141.3840   71.4740  226.4170 C   0  0  0  0  0  0  0  0  0  0  0  0
  140.7270   71.9460  227.5570 C   0  0  0  0  0  0  0  0  0  0  0  0
  139.9620   71.0720  228.3390 C   0  0  0  0  0  0  0  0  0  0  0  0
  139.8510   69.7260  227.9800 C   0  0  0  0  0  0  0  0  0  0  0  0
  139.8710   74.5960  221.7400 C   0  0  0  0  0  0  0  0  0  0  0  0
  138.4800   74.7510  221.8570 C   0  0  0  0  0  0  0  0  0  0  0  0
  137.9510   75.9860  222.2640 C   0  0  0  0  0  0  0  0  0  0  0  0
  138.8120   77.0530  222.5410 C   0  0  0  0  0  0  0  0  0  0  0  0
  138.3150   78.3010  222.9660 C   0  0  0  0  0  0  0  0  0  0  0  0
  139.2040   79.3430  223.2600 C   0  0  0  0  0  0  0  0  0  0  0  0
  138.5920   80.8830  223.8320 Cl  0  0  0  0  0  0  0  0  0  0  0  0
  140.5830   79.1550  223.1190 C   0  0  0  0  0  0  0  0  0  0  0  0
  141.0850   77.9190  222.6920 C   0  0  0  0  0  0  0  0  0  0  0  0
  140.2090   76.8560  222.4050 C   0  0  0  0  0  0  0  0  0  0  0  0
  140.6930   75.6450  222.0220 N   0  0  0  0  0  0  0  0  0  0  0  0
  141.0194   71.1174  223.9005 H   0  0  0  0  0  0  0  0  0  0  0  0
  139.7830   72.4248  223.9337 H   0  0  0  0  0  0  0  0  0  0  0  0
  140.1890   71.0870  220.6880 H   0  0  0  0  0  0  0  0  0  0  0  0
  136.7659   71.4850  222.5255 H   0  0  0  0  0  0  0  0  0  0  0  0
  136.7088   69.8004  221.9593 H   0  0  0  0  0  0  0  0  0  0  0  0
  135.1754   69.4826  223.6855 H   0  0  0  0  0  0  0  0  0  0  0  0
  134.5660   71.2990  224.3640 H   0  0  0  0  0  0  0  0  0  0  0  0
  136.7682   69.7212  226.0173 H   0  0  0  0  0  0  0  0  0  0  0  0
  136.6772   68.2596  225.0088 H   0  0  0  0  0  0  0  0  0  0  0  0
  138.9291   70.1616  225.3010 H   0  0  0  0  0  0  0  0  0  0  0  0
  138.6926   67.5722  223.7175 H   0  0  0  0  0  0  0  0  0  0  0  0
  140.2075   68.4418  224.1693 H   0  0  0  0  0  0  0  0  0  0  0  0
  140.3982   67.1742  227.3450 H   0  0  0  0  0  0  0  0  0  0  0  0
  141.2352   67.5476  225.7836 H   0  0  0  0  0  0  0  0  0  0  0  0
  141.8018   69.7517  225.1681 H   0  0  0  0  0  0  0  0  0  0  0  0
  141.9822   72.1617  225.8012 H   0  0  0  0  0  0  0  0  0  0  0  0
  140.8111   73.0056  227.8402 H   0  0  0  0  0  0  0  0  0  0  0  0
  139.4478   71.4453  229.2369 H   0  0  0  0  0  0  0  0  0  0  0  0
  139.2463   69.0421  228.5937 H   0  0  0  0  0  0  0  0  0  0  0  0
  137.8088   73.9093  221.6309 H   0  0  0  0  0  0  0  0  0  0  0  0
  136.8632   76.1142  222.3648 H   0  0  0  0  0  0  0  0  0  0  0  0
  137.2308   78.4569  223.0668 H   0  0  0  0  0  0  0  0  0  0  0  0
  141.2749   79.9800  223.3441 H   0  0  0  0  0  0  0  0  0  0  0  0
  142.1703   77.7786  222.5804 H   0  0  0  0  0  0  0  0  0  0  0  0
  1  2  2  0
  2  3  1  0
  3  4  1  0
  4  5  1  0
  5  6  1  0
  5  7  2  0
  7  8  1  0
  8  9  1  0
  9 10  1  0
  9 11  1  0
 11 12  1  0
 12 13  1  0
 13 14  1  0
 14 15  1  0
 15 16  1  0
 16 17  2  0
 17 18  1  0
 18 19  2  0
 19 20  1  0
 20 21  2  0
  2 22  1  0
 22 23  2  0
 23 24  1  0
 24 25  2  0
 25 26  1  0
 26 27  2  0
 27 28  1  0
 27 29  1  0
 29 30  2  0
 30 31  1  0
 31 32  2  0
 12  7  1  0
 21 16  1  0
 32 22  1  0
 31 25  1  0
  4 33  1  0
  4 34  1  0
  6 35  1  0
  8 36  1  0
  8 37  1  0
  9 38  1  6
 10 39  1  0
 11 40  1  0
 11 41  1  0
 12 42  1  1
 13 43  1  0
 13 44  1  0
 15 45  1  0
 15 46  1  0
 17 47  1  0
 18 48  1  0
 19 49  1  0
 20 50  1  0
 21 51  1  0
 23 52  1  0
 24 53  1  0
 26 54  1  0
 29 55  1  0
 30 56  1  0
M  CHG  2   3  -1   7   1
M  END
>  <meeko>  (14) 
{"free_energy": -7.55, "intermolecular_energy": -10.83, "internal_energy": -3.16, "cluster_size": 6, "cluster_id": 3, "rank_in_cluster": 1}

$$$$

     RDKit          3D

 56 59  0  0  0  0  0  0  0  0999 V2000
  139.9600   74.1030  222.1440 O   0  0  0  0  0  0  0  0  0  0  0  0
  139.8970   72.8790  221.8720 C   0  0  0  0  0  0  0  0  0  0  0  0
  139.8710   72.4520  220.5080 N   0  0  0  0  0  0  0  0  0  0  0  0
  140.9980   72.6030  219.6010 C   0  0  0  0  0  0  0  0  0  0  0  0
  141.7800   73.8400  219.9560 C   0  0  0  0  0  0  0  0  0  0  0  0
  142.4200   73.8240  221.2070 O   0  0  0  0  0  0  0  0  0  0  0  0
  141.8420   74.8960  219.1720 N   0  0  0  0  0  0  0  0  0  0  0  0
  142.2830   74.8100  217.7820 C   0  0  0  0  0  0  0  0  0  0  0  0
  142.6550   76.2230  217.3430 C   0  0  2  0  0  0  0  0  0  0  0  0
  144.0530   76.3850  217.3120 O   0  0  0  0  0  0  0  0  0  0  0  0
  142.0500   77.1620  218.3850 C   0  0  0  0  0  0  0  0  0  0  0  0
  141.6460   76.2940  219.5920 C   0  0  1  0  0  0  0  0  0  0  0  0
  140.1800   76.5720  220.0390 C   0  0  0  0  0  0  0  0  0  0  0  0
  140.1360   77.6580  220.9600 O   0  0  0  0  0  0  0  0  0  0  0  0
  141.1480   77.5530  221.9520 C   0  0  0  0  0  0  0  0  0  0  0  0
  141.4130   78.8820  222.6100 C   0  0  0  0  0  0  0  0  0  0  0  0
  140.3430   79.6440  223.1070 C   0  0  0  0  0  0  0  0  0  0  0  0
  140.5830   80.8720  223.7330 C   0  0  0  0  0  0  0  0  0  0  0  0
  141.8930   81.3470  223.8550 C   0  0  0  0  0  0  0  0  0  0  0  0
  142.9610   80.5940  223.3570 C   0  0  0  0  0  0  0  0  0  0  0  0
  142.7230   79.3640  222.7380 C   0  0  0  0  0  0  0  0  0  0  0  0
  139.9030   71.8830  222.9630 C   0  0  0  0  0  0  0  0  0  0  0  0
  139.4180   70.5820  222.7520 C   0  0  0  0  0  0  0  0  0  0  0  0
  139.4420   69.6540  223.8050 C   0  0  0  0  0  0  0  0  0  0  0  0
  139.9400   70.0350  225.0560 C   0  0  0  0  0  0  0  0  0  0  0  0
  139.9920   69.1240  226.1290 C   0  0  0  0  0  0  0  0  0  0  0  0
  140.5200   69.5280  227.3620 C   0  0  0  0  0  0  0  0  0  0  0  0
  140.6280   68.3850  228.6870 Cl  0  0  0  0  0  0  0  0  0  0  0  0
  140.9830   70.8370  227.5370 C   0  0  0  0  0  0  0  0  0  0  0  0
  140.9290   71.7490  226.4770 C   0  0  0  0  0  0  0  0  0  0  0  0
  140.4150   71.3590  225.2270 C   0  0  0  0  0  0  0  0  0  0  0  0
  140.3910   72.2320  224.1850 N   0  0  0  0  0  0  0  0  0  0  0  0
  141.6520   71.7223  219.6823 H   0  0  0  0  0  0  0  0  0  0  0  0
  140.6237   72.6946  218.5707 H   0  0  0  0  0  0  0  0  0  0  0  0
  142.0100   73.4290  222.0430 H   0  0  0  0  0  0  0  0  0  0  0  0
  143.1577   74.1476  217.7036 H   0  0  0  0  0  0  0  0  0  0  0  0
  141.4883   74.3972  217.1432 H   0  0  0  0  0  0  0  0  0  0  0  0
  142.2779   76.4326  216.3311 H   0  0  0  0  0  0  0  0  0  0  0  0
  144.4280   75.6880  217.9160 H   0  0  0  0  0  0  0  0  0  0  0  0
  142.7917   77.9141  218.6918 H   0  0  0  0  0  0  0  0  0  0  0  0
  141.1792   77.6947  217.9752 H   0  0  0  0  0  0  0  0  0  0  0  0
  142.2614   76.5277  220.4733 H   0  0  0  0  0  0  0  0  0  0  0  0
  139.5736   76.8217  219.1559 H   0  0  0  0  0  0  0  0  0  0  0  0
  139.7817   75.6724  220.5309 H   0  0  0  0  0  0  0  0  0  0  0  0
  140.8250   76.8326  222.7179 H   0  0  0  0  0  0  0  0  0  0  0  0
  142.0756   77.2164  221.4659 H   0  0  0  0  0  0  0  0  0  0  0  0
  139.3123   79.2739  223.0037 H   0  0  0  0  0  0  0  0  0  0  0  0
  139.7434   81.4626  224.1283 H   0  0  0  0  0  0  0  0  0  0  0  0
  142.0834   82.3141  224.3433 H   0  0  0  0  0  0  0  0  0  0  0  0
  143.9901   80.9706  223.4527 H   0  0  0  0  0  0  0  0  0  0  0  0
  143.5656   78.7726  222.3503 H   0  0  0  0  0  0  0  0  0  0  0  0
  139.0218   70.2920  221.7677 H   0  0  0  0  0  0  0  0  0  0  0  0
  139.0706   68.6307  223.6473 H   0  0  0  0  0  0  0  0  0  0  0  0
  139.6188   68.0974  225.9990 H   0  0  0  0  0  0  0  0  0  0  0  0
  141.3902   71.1497  228.5098 H   0  0  0  0  0  0  0  0  0  0  0  0
  141.2909   72.7776  226.6222 H   0  0  0  0  0  0  0  0  0  0  0  0
  1  2  2  0
  2  3  1  0
  3  4  1  0
  4  5  1  0
  5  6  1  0
  5  7  2  0
  7  8  1  0
  8  9  1  0
  9 10  1  0
  9 11  1  0
 11 12  1  0
 12 13  1  0
 13 14  1  0
 14 15  1  0
 15 16  1  0
 16 17  2  0
 17 18  1  0
 18 19  2  0
 19 20  1  0
 20 21  2  0
  2 22  1  0
 22 23  2  0
 23 24  1  0
 24 25  2  0
 25 26  1  0
 26 27  2  0
 27 28  1  0
 27 29  1  0
 29 30  2  0
 30 31  1  0
 31 32  2  0
 12  7  1  0
 21 16  1  0
 32 22  1  0
 31 25  1  0
  4 33  1  0
  4 34  1  0
  6 35  1  0
  8 36  1  0
  8 37  1  0
  9 38  1  6
 10 39  1  0
 11 40  1  0
 11 41  1  0
 12 42  1  1
 13 43  1  0
 13 44  1  0
 15 45  1  0
 15 46  1  0
 17 47  1  0
 18 48  1  0
 19 49  1  0
 20 50  1  0
 21 51  1  0
 23 52  1  0
 24 53  1  0
 26 54  1  0
 29 55  1  0
 30 56  1  0
M  CHG  2   3  -1   7   1
M  END
>  <meeko>  (15) 
{"free_energy": -7.53, "intermolecular_energy": -10.81, "internal_energy": -2.38, "cluster_size": 8, "cluster_id": 1, "rank_in_cluster": 7}

$$$$

     RDKit          3D

 56 59  0  0  0  0  0  0  0  0999 V2000
  135.9160   74.9170  223.1680 O   0  0  0  0  0  0  0  0  0  0  0  0
  136.8510   74.7050  222.3570 C   0  0  0  0  0  0  0  0  0  0  0  0
  136.7230   73.6720  221.3770 N   0  0  0  0  0  0  0  0  0  0  0  0
  136.2190   72.3410  221.6770 C   0  0  0  0  0  0  0  0  0  0  0  0
  136.9630   71.7640  222.8530 C   0  0  0  0  0  0  0  0  0  0  0  0
  136.6000   72.2630  224.1140 O   0  0  0  0  0  0  0  0  0  0  0  0
  137.9230   70.8730  222.7220 N   0  0  0  0  0  0  0  0  0  0  0  0
  139.0670   71.0830  221.8370 C   0  0  0  0  0  0  0  0  0  0  0  0
  139.7030   69.7170  221.5960 C   0  0  2  0  0  0  0  0  0  0  0  0
  139.3690   69.2290  220.3200 O   0  0  0  0  0  0  0  0  0  0  0  0
  139.1320   68.7910  222.6690 C   0  0  0  0  0  0  0  0  0  0  0  0
  137.9210   69.5140  223.2900 C   0  0  1  0  0  0  0  0  0  0  0  0
  137.9930   69.5280  224.8450 C   0  0  0  0  0  0  0  0  0  0  0  0
  138.4810   68.2820  225.3340 O   0  0  0  0  0  0  0  0  0  0  0  0
  139.8660   68.3400  225.6450 C   0  0  0  0  0  0  0  0  0  0  0  0
  140.2120   69.6110  226.3760 C   0  0  0  0  0  0  0  0  0  0  0  0
  140.9960   70.5920  225.7460 C   0  0  0  0  0  0  0  0  0  0  0  0
  141.3080   71.7800  226.4130 C   0  0  0  0  0  0  0  0  0  0  0  0
  140.8460   71.9900  227.7160 C   0  0  0  0  0  0  0  0  0  0  0  0
  140.0690   71.0140  228.3500 C   0  0  0  0  0  0  0  0  0  0  0  0
  139.7510   69.8290  227.6820 C   0  0  0  0  0  0  0  0  0  0  0  0
  138.0560   75.5580  222.3850 C   0  0  0  0  0  0  0  0  0  0  0  0
  139.2990   75.0610  221.9610 C   0  0  0  0  0  0  0  0  0  0  0  0
  140.4270   75.8960  221.9930 C   0  0  0  0  0  0  0  0  0  0  0  0
  140.3050   77.2120  222.4540 C   0  0  0  0  0  0  0  0  0  0  0  0
  141.4140   78.0810  222.4840 C   0  0  0  0  0  0  0  0  0  0  0  0
  141.2550   79.3990  222.9290 C   0  0  0  0  0  0  0  0  0  0  0  0
  142.6210   80.4970  222.9260 Cl  0  0  0  0  0  0  0  0  0  0  0  0
  140.0020   79.8540  223.3550 C   0  0  0  0  0  0  0  0  0  0  0  0
  138.8970   78.9950  223.3330 C   0  0  0  0  0  0  0  0  0  0  0  0
  139.0330   77.6710  222.8780 C   0  0  0  0  0  0  0  0  0  0  0  0
  137.9570   76.8430  222.8240 N   0  0  0  0  0  0  0  0  0  0  0  0
  135.1475   72.4025  221.9179 H   0  0  0  0  0  0  0  0  0  0  0  0
  136.3666   71.6920  220.8012 H   0  0  0  0  0  0  0  0  0  0  0  0
  136.6010   73.2470  224.3520 H   0  0  0  0  0  0  0  0  0  0  0  0
  138.7319   71.5170  220.8834 H   0  0  0  0  0  0  0  0  0  0  0  0
  139.7901   71.7778  222.2892 H   0  0  0  0  0  0  0  0  0  0  0  0
  140.8001   69.7787  221.6463 H   0  0  0  0  0  0  0  0  0  0  0  0
  138.5120   69.6690  220.0680 H   0  0  0  0  0  0  0  0  0  0  0  0
  138.8133   67.8402  222.2169 H   0  0  0  0  0  0  0  0  0  0  0  0
  139.8885   68.5638  223.4346 H   0  0  0  0  0  0  0  0  0  0  0  0
  136.9818   68.9928  223.0530 H   0  0  0  0  0  0  0  0  0  0  0  0
  138.6687   70.3334  225.1687 H   0  0  0  0  0  0  0  0  0  0  0  0
  136.9826   69.6960  225.2460 H   0  0  0  0  0  0  0  0  0  0  0  0
  140.1268   67.4799  226.2792 H   0  0  0  0  0  0  0  0  0  0  0  0
  140.4338   68.3166  224.7032 H   0  0  0  0  0  0  0  0  0  0  0  0
  141.3658   70.4244  224.7237 H   0  0  0  0  0  0  0  0  0  0  0  0
  141.9161   72.5487  225.9136 H   0  0  0  0  0  0  0  0  0  0  0  0
  141.0935   72.9232  228.2431 H   0  0  0  0  0  0  0  0  0  0  0  0
  139.7081   71.1801  229.3758 H   0  0  0  0  0  0  0  0  0  0  0  0
  139.1374   69.0651  228.1819 H   0  0  0  0  0  0  0  0  0  0  0  0
  139.3883   74.0237  221.6060 H   0  0  0  0  0  0  0  0  0  0  0  0
  141.4036   75.5174  221.6569 H   0  0  0  0  0  0  0  0  0  0  0  0
  142.4025   77.7246  222.1585 H   0  0  0  0  0  0  0  0  0  0  0  0
  139.8852   80.8892  223.7080 H   0  0  0  0  0  0  0  0  0  0  0  0
  137.9160   79.3577  223.6737 H   0  0  0  0  0  0  0  0  0  0  0  0
  1  2  2  0
  2  3  1  0
  3  4  1  0
  4  5  1  0
  5  6  1  0
  5  7  2  0
  7  8  1  0
  8  9  1  0
  9 10  1  0
  9 11  1  0
 11 12  1  0
 12 13  1  0
 13 14  1  0
 14 15  1  0
 15 16  1  0
 16 17  2  0
 17 18  1  0
 18 19  2  0
 19 20  1  0
 20 21  2  0
  2 22  1  0
 22 23  2  0
 23 24  1  0
 24 25  2  0
 25 26  1  0
 26 27  2  0
 27 28  1  0
 27 29  1  0
 29 30  2  0
 30 31  1  0
 31 32  2  0
 12  7  1  0
 21 16  1  0
 32 22  1  0
 31 25  1  0
  4 33  1  0
  4 34  1  0
  6 35  1  0
  8 36  1  0
  8 37  1  0
  9 38  1  6
 10 39  1  0
 11 40  1  0
 11 41  1  0
 12 42  1  1
 13 43  1  0
 13 44  1  0
 15 45  1  0
 15 46  1  0
 17 47  1  0
 18 48  1  0
 19 49  1  0
 20 50  1  0
 21 51  1  0
 23 52  1  0
 24 53  1  0
 26 54  1  0
 29 55  1  0
 30 56  1  0
M  CHG  2   3  -1   7   1
M  END
>  <meeko>  (16) 
{"free_energy": -7.21, "intermolecular_energy": -10.5, "internal_energy": -2.46, "cluster_size": 6, "cluster_id": 3, "rank_in_cluster": 4}

$$$$

     RDKit          3D

 56 59  0  0  0  0  0  0  0  0999 V2000
  141.4190   71.4630  220.4950 O   0  0  0  0  0  0  0  0  0  0  0  0
  141.1690   72.2740  221.4200 C   0  0  0  0  0  0  0  0  0  0  0  0
  140.7350   71.7910  222.6930 N   0  0  0  0  0  0  0  0  0  0  0  0
  139.3430   71.5080  223.0090 C   0  0  0  0  0  0  0  0  0  0  0  0
  138.9900   70.1120  222.5640 C   0  0  0  0  0  0  0  0  0  0  0  0
  139.9260   69.4770  221.7320 O   0  0  0  0  0  0  0  0  0  0  0  0
  137.8600   69.5220  222.8940 N   0  0  0  0  0  0  0  0  0  0  0  0
  137.1270   68.6680  221.9630 C   0  0  0  0  0  0  0  0  0  0  0  0
  135.7030   68.5410  222.4990 C   0  0  2  0  0  0  0  0  0  0  0  0
  134.8180   69.3490  221.7610 O   0  0  0  0  0  0  0  0  0  0  0  0
  135.7540   69.0210  223.9480 C   0  0  0  0  0  0  0  0  0  0  0  0
  137.1000   69.7480  224.1350 C   0  0  1  0  0  0  0  0  0  0  0  0
  137.8630   69.2350  225.3910 C   0  0  0  0  0  0  0  0  0  0  0  0
  138.7970   68.2220  225.0290 O   0  0  0  0  0  0  0  0  0  0  0  0
  139.8370   68.0930  225.9890 C   0  0  0  0  0  0  0  0  0  0  0  0
  140.2660   69.4360  226.5180 C   0  0  0  0  0  0  0  0  0  0  0  0
  141.0010   70.3100  225.7010 C   0  0  0  0  0  0  0  0  0  0  0  0
  141.3890   71.5650  226.1800 C   0  0  0  0  0  0  0  0  0  0  0  0
  141.0520   71.9480  227.4820 C   0  0  0  0  0  0  0  0  0  0  0  0
  140.3240   71.0790  228.3030 C   0  0  0  0  0  0  0  0  0  0  0  0
  139.9300   69.8270  227.8220 C   0  0  0  0  0  0  0  0  0  0  0  0
  141.3760   73.7200  221.2050 C   0  0  0  0  0  0  0  0  0  0  0  0
  142.2550   74.1810  220.2120 C   0  0  0  0  0  0  0  0  0  0  0  0
  142.4280   75.5620  220.0250 C   0  0  0  0  0  0  0  0  0  0  0  0
  141.7300   76.4650  220.8340 C   0  0  0  0  0  0  0  0  0  0  0  0
  141.8690   77.8570  220.6630 C   0  0  0  0  0  0  0  0  0  0  0  0
  141.1390   78.7360  221.4730 C   0  0  0  0  0  0  0  0  0  0  0  0
  141.2750   80.4670  221.2340 Cl  0  0  0  0  0  0  0  0  0  0  0  0
  140.2820   78.2380  222.4610 C   0  0  0  0  0  0  0  0  0  0  0  0
  140.1430   76.8560  222.6400 C   0  0  0  0  0  0  0  0  0  0  0  0
  140.8580   75.9570  221.8290 C   0  0  0  0  0  0  0  0  0  0  0  0
  140.7010   74.6160  221.9770 N   0  0  0  0  0  0  0  0  0  0  0  0
  139.1906   71.5942  224.0950 H   0  0  0  0  0  0  0  0  0  0  0  0
  138.6986   72.2292  222.4849 H   0  0  0  0  0  0  0  0  0  0  0  0
  140.7860   69.9110  221.4190 H   0  0  0  0  0  0  0  0  0  0  0  0
  137.1145   69.1241  220.9621 H   0  0  0  0  0  0  0  0  0  0  0  0
  137.6037   67.6803  221.8783 H   0  0  0  0  0  0  0  0  0  0  0  0
  135.3432   67.5044  222.4208 H   0  0  0  0  0  0  0  0  0  0  0  0
  135.3850   69.9400  221.1950 H   0  0  0  0  0  0  0  0  0  0  0  0
  134.9210   69.7114  224.1467 H   0  0  0  0  0  0  0  0  0  0  0  0
  135.6648   68.1748  224.6451 H   0  0  0  0  0  0  0  0  0  0  0  0
  136.9503   70.8233  224.3119 H   0  0  0  0  0  0  0  0  0  0  0  0
  138.4014   70.0744  225.8552 H   0  0  0  0  0  0  0  0  0  0  0  0
  137.1364   68.8116  226.1000 H   0  0  0  0  0  0  0  0  0  0  0  0
  139.4769   67.4770  226.8262 H   0  0  0  0  0  0  0  0  0  0  0  0
  140.7022   67.6207  225.5008 H   0  0  0  0  0  0  0  0  0  0  0  0
  141.2728   70.0059  224.6794 H   0  0  0  0  0  0  0  0  0  0  0  0
  141.9582   72.2496  225.5340 H   0  0  0  0  0  0  0  0  0  0  0  0
  141.3595   72.9336  227.8615 H   0  0  0  0  0  0  0  0  0  0  0  0
  140.0617   71.3815  229.3275 H   0  0  0  0  0  0  0  0  0  0  0  0
  139.3551   69.1471  228.4679 H   0  0  0  0  0  0  0  0  0  0  0  0
  142.8050   73.4646  219.5841 H   0  0  0  0  0  0  0  0  0  0  0  0
  143.1098   75.9323  219.2453 H   0  0  0  0  0  0  0  0  0  0  0  0
  142.5497   78.2524  219.8947 H   0  0  0  0  0  0  0  0  0  0  0  0
  139.7163   78.9336  223.0983 H   0  0  0  0  0  0  0  0  0  0  0  0
  139.4699   76.4712  223.4203 H   0  0  0  0  0  0  0  0  0  0  0  0
  1  2  2  0
  2  3  1  0
  3  4  1  0
  4  5  1  0
  5  6  1  0
  5  7  2  0
  7  8  1  0
  8  9  1  0
  9 10  1  0
  9 11  1  0
 11 12  1  0
 12 13  1  0
 13 14  1  0
 14 15  1  0
 15 16  1  0
 16 17  2  0
 17 18  1  0
 18 19  2  0
 19 20  1  0
 20 21  2  0
  2 22  1  0
 22 23  2  0
 23 24  1  0
 24 25  2  0
 25 26  1  0
 26 27  2  0
 27 28  1  0
 27 29  1  0
 29 30  2  0
 30 31  1  0
 31 32  2  0
 12  7  1  0
 21 16  1  0
 32 22  1  0
 31 25  1  0
  4 33  1  0
  4 34  1  0
  6 35  1  0
  8 36  1  0
  8 37  1  0
  9 38  1  1
 10 39  1  0
 11 40  1  0
 11 41  1  0
 12 42  1  1
 13 43  1  0
 13 44  1  0
 15 45  1  0
 15 46  1  0
 17 47  1  0
 18 48  1  0
 19 49  1  0
 20 50  1  0
 21 51  1  0
 23 52  1  0
 24 53  1  0
 26 54  1  0
 29 55  1  0
 30 56  1  0
M  CHG  2   3  -1   7   1
M  END
>  <meeko>  (17) 
{"free_energy": -6.73, "intermolecular_energy": -10.01, "internal_energy": -3.28, "cluster_size": 6, "cluster_id": 3, "rank_in_cluster": 6}

$$$$

     RDKit          3D

 56 59  0  0  0  0  0  0  0  0999 V2000
  138.6570   75.0810  219.0020 O   0  0  0  0  0  0  0  0  0  0  0  0
  139.8320   74.9890  219.4330 C   0  0  0  0  0  0  0  0  0  0  0  0
  140.5580   73.7690  219.2680 N   0  0  0  0  0  0  0  0  0  0  0  0
  140.8740   72.8700  220.3670 C   0  0  0  0  0  0  0  0  0  0  0  0
  139.7770   72.9160  221.3990 C   0  0  0  0  0  0  0  0  0  0  0  0
  140.1450   73.3980  222.6660 O   0  0  0  0  0  0  0  0  0  0  0  0
  138.5520   72.4980  221.1570 N   0  0  0  0  0  0  0  0  0  0  0  0
  138.0470   72.3080  219.7990 C   0  0  0  0  0  0  0  0  0  0  0  0
  136.5240   72.2710  219.8900 C   0  0  2  0  0  0  0  0  0  0  0  0
  135.9670   73.4860  219.4510 O   0  0  0  0  0  0  0  0  0  0  0  0
  136.1940   72.0550  221.3660 C   0  0  0  0  0  0  0  0  0  0  0  0
  137.4870   72.3230  222.1600 C   0  0  1  0  0  0  0  0  0  0  0  0
  137.8040   71.1690  223.1550 C   0  0  0  0  0  0  0  0  0  0  0  0
  139.0120   71.4360  223.8610 O   0  0  0  0  0  0  0  0  0  0  0  0
  139.4530   70.3060  224.6020 C   0  0  0  0  0  0  0  0  0  0  0  0
  140.0740   70.7170  225.9120 C   0  0  0  0  0  0  0  0  0  0  0  0
  139.8850   69.9250  227.0570 C   0  0  0  0  0  0  0  0  0  0  0  0
  140.4720   70.2920  228.2720 C   0  0  0  0  0  0  0  0  0  0  0  0
  141.2410   71.4580  228.3510 C   0  0  0  0  0  0  0  0  0  0  0  0
  141.4270   72.2530  227.2140 C   0  0  0  0  0  0  0  0  0  0  0  0
  140.8470   71.8840  225.9980 C   0  0  0  0  0  0  0  0  0  0  0  0
  140.4770   76.1580  220.0640 C   0  0  0  0  0  0  0  0  0  0  0  0
  141.6110   76.7530  219.4860 C   0  0  0  0  0  0  0  0  0  0  0  0
  142.2000   77.8670  220.1030 C   0  0  0  0  0  0  0  0  0  0  0  0
  141.6590   78.3710  221.2910 C   0  0  0  0  0  0  0  0  0  0  0  0
  142.2160   79.4980  221.9280 C   0  0  0  0  0  0  0  0  0  0  0  0
  141.6370   79.9930  223.1030 C   0  0  0  0  0  0  0  0  0  0  0  0
  142.3000   81.4210  223.8740 Cl  0  0  0  0  0  0  0  0  0  0  0  0
  140.5140   79.3660  223.6550 C   0  0  0  0  0  0  0  0  0  0  0  0
  139.9580   78.2430  223.0300 C   0  0  0  0  0  0  0  0  0  0  0  0
  140.5170   77.7380  221.8430 C   0  0  0  0  0  0  0  0  0  0  0  0
  139.9610   76.6680  221.2160 N   0  0  0  0  0  0  0  0  0  0  0  0
  140.9703   71.8439  219.9826 H   0  0  0  0  0  0  0  0  0  0  0  0
  141.8208   73.1838  220.8308 H   0  0  0  0  0  0  0  0  0  0  0  0
  139.5110   73.4500  223.4530 H   0  0  0  0  0  0  0  0  0  0  0  0
  138.3669   73.1419  219.1569 H   0  0  0  0  0  0  0  0  0  0  0  0
  138.4367   71.3767  219.3621 H   0  0  0  0  0  0  0  0  0  0  0  0
  136.1115   71.4733  219.2548 H   0  0  0  0  0  0  0  0  0  0  0  0
  136.7350   74.0900  219.2550 H   0  0  0  0  0  0  0  0  0  0  0  0
  135.4046   72.7526  221.6827 H   0  0  0  0  0  0  0  0  0  0  0  0
  135.8302   71.0318  221.5415 H   0  0  0  0  0  0  0  0  0  0  0  0
  137.3885   73.2210  222.7876 H   0  0  0  0  0  0  0  0  0  0  0  0
  136.9775   71.0745  223.8747 H   0  0  0  0  0  0  0  0  0  0  0  0
  137.9227   70.2336  222.5884 H   0  0  0  0  0  0  0  0  0  0  0  0
  138.5920   69.6517  224.8035 H   0  0  0  0  0  0  0  0  0  0  0  0
  140.2137   69.7777  224.0085 H   0  0  0  0  0  0  0  0  0  0  0  0
  139.2730   69.0129  226.9975 H   0  0  0  0  0  0  0  0  0  0  0  0
  140.3293   69.6648  229.1643 H   0  0  0  0  0  0  0  0  0  0  0  0
  141.6997   71.7502  229.3071 H   0  0  0  0  0  0  0  0  0  0  0  0
  142.0311   73.1701  227.2782 H   0  0  0  0  0  0  0  0  0  0  0  0
  140.9969   72.5101  225.1060 H   0  0  0  0  0  0  0  0  0  0  0  0
  142.0346   76.3478  218.5552 H   0  0  0  0  0  0  0  0  0  0  0  0
  143.0844   78.3427  219.6542 H   0  0  0  0  0  0  0  0  0  0  0  0
  143.1043   79.9881  221.5028 H   0  0  0  0  0  0  0  0  0  0  0  0
  140.0674   79.7561  224.5815 H   0  0  0  0  0  0  0  0  0  0  0  0
  139.0776   77.7525  223.4709 H   0  0  0  0  0  0  0  0  0  0  0  0
  1  2  2  0
  2  3  1  0
  3  4  1  0
  4  5  1  0
  5  6  1  0
  5  7  2  0
  7  8  1  0
  8  9  1  0
  9 10  1  0
  9 11  1  0
 11 12  1  0
 12 13  1  0
 13 14  1  0
 14 15  1  0
 15 16  1  0
 16 17  2  0
 17 18  1  0
 18 19  2  0
 19 20  1  0
 20 21  2  0
  2 22  1  0
 22 23  2  0
 23 24  1  0
 24 25  2  0
 25 26  1  0
 26 27  2  0
 27 28  1  0
 27 29  1  0
 29 30  2  0
 30 31  1  0
 31 32  2  0
 12  7  1  0
 21 16  1  0
 32 22  1  0
 31 25  1  0
  4 33  1  0
  4 34  1  0
  6 35  1  0
  8 36  1  0
  8 37  1  0
  9 38  1  6
 10 39  1  0
 11 40  1  0
 11 41  1  0
 12 42  1  1
 13 43  1  0
 13 44  1  0
 15 45  1  0
 15 46  1  0
 17 47  1  0
 18 48  1  0
 19 49  1  0
 20 50  1  0
 21 51  1  0
 23 52  1  0
 24 53  1  0
 26 54  1  0
 29 55  1  0
 30 56  1  0
M  CHG  2   3  -1   7   1
M  END
>  <meeko>  (18) 
{"free_energy": -6.55, "intermolecular_energy": -9.83, "internal_energy": -3.04, "cluster_size": 1, "cluster_id": 5, "rank_in_cluster": 1}

$$$$

     RDKit          3D

 56 59  0  0  0  0  0  0  0  0999 V2000
  138.5260   73.6330  221.4960 O   0  0  0  0  0  0  0  0  0  0  0  0
  139.6130   73.9640  222.0290 C   0  0  0  0  0  0  0  0  0  0  0  0
  140.3650   73.0020  222.7710 N   0  0  0  0  0  0  0  0  0  0  0  0
  140.5390   71.6220  222.3460 C   0  0  0  0  0  0  0  0  0  0  0  0
  139.2570   70.8570  222.5490 C   0  0  0  0  0  0  0  0  0  0  0  0
  138.2370   71.5380  223.2330 O   0  0  0  0  0  0  0  0  0  0  0  0
  139.0970   69.6130  222.1500 N   0  0  0  0  0  0  0  0  0  0  0  0
  139.4590   69.1730  220.8040 C   0  0  0  0  0  0  0  0  0  0  0  0
  138.7380   67.8510  220.5570 C   0  0  2  0  0  0  0  0  0  0  0  0
  137.6250   68.0380  219.7170 O   0  0  0  0  0  0  0  0  0  0  0  0
  138.2740   67.3610  221.9270 C   0  0  0  0  0  0  0  0  0  0  0  0
  138.4070   68.5490  222.8990 C   0  0  1  0  0  0  0  0  0  0  0  0
  139.1740   68.1520  224.1940 C   0  0  0  0  0  0  0  0  0  0  0  0
  138.5030   68.6550  225.3460 O   0  0  0  0  0  0  0  0  0  0  0  0
  139.3080   68.5590  226.5130 C   0  0  0  0  0  0  0  0  0  0  0  0
  140.0170   69.8570  226.8000 C   0  0  0  0  0  0  0  0  0  0  0  0
  140.6950   70.5290  225.7700 C   0  0  0  0  0  0  0  0  0  0  0  0
  141.3420   71.7420  226.0270 C   0  0  0  0  0  0  0  0  0  0  0  0
  141.3210   72.2830  227.3160 C   0  0  0  0  0  0  0  0  0  0  0  0
  140.6510   71.6150  228.3470 C   0  0  0  0  0  0  0  0  0  0  0  0
  139.9990   70.4060  228.0910 C   0  0  0  0  0  0  0  0  0  0  0  0
  140.1350   75.3330  221.8430 C   0  0  0  0  0  0  0  0  0  0  0  0
  141.1230   75.6030  220.8820 C   0  0  0  0  0  0  0  0  0  0  0  0
  141.5960   76.9140  220.7230 C   0  0  0  0  0  0  0  0  0  0  0  0
  141.0860   77.9390  221.5270 C   0  0  0  0  0  0  0  0  0  0  0  0
  141.5290   79.2690  221.3820 C   0  0  0  0  0  0  0  0  0  0  0  0
  140.9820   80.2780  222.1860 C   0  0  0  0  0  0  0  0  0  0  0  0
  141.4970   81.9410  221.9780 Cl  0  0  0  0  0  0  0  0  0  0  0  0
  140.0080   79.9690  223.1410 C   0  0  0  0  0  0  0  0  0  0  0  0
  139.5670   78.6480  223.2940 C   0  0  0  0  0  0  0  0  0  0  0  0
  140.0940   77.6240  222.4880 C   0  0  0  0  0  0  0  0  0  0  0  0
  139.6460   76.3470  222.6110 N   0  0  0  0  0  0  0  0  0  0  0  0
  140.8119   71.6002  221.2806 H   0  0  0  0  0  0  0  0  0  0  0  0
  141.3366   71.1569  222.9439 H   0  0  0  0  0  0  0  0  0  0  0  0
  138.2160   72.5430  223.3550 H   0  0  0  0  0  0  0  0  0  0  0  0
  139.1399   69.9212  220.0635 H   0  0  0  0  0  0  0  0  0  0  0  0
  140.5481   69.0491  220.7114 H   0  0  0  0  0  0  0  0  0  0  0  0
  139.4027   67.1265  220.0638 H   0  0  0  0  0  0  0  0  0  0  0  0
  137.3620   68.9940  219.8100 H   0  0  0  0  0  0  0  0  0  0  0  0
  137.2260   67.0308  221.8751 H   0  0  0  0  0  0  0  0  0  0  0  0
  138.8803   66.5076  222.2648 H   0  0  0  0  0  0  0  0  0  0  0  0
  137.4208   68.8913  223.2456 H   0  0  0  0  0  0  0  0  0  0  0  0
  139.2316   67.0554  224.2587 H   0  0  0  0  0  0  0  0  0  0  0  0
  140.1851   68.5834  224.1548 H   0  0  0  0  0  0  0  0  0  0  0  0
  138.6671   68.3042  227.3699 H   0  0  0  0  0  0  0  0  0  0  0  0
  140.0663   67.7796  226.3473 H   0  0  0  0  0  0  0  0  0  0  0  0
  140.7173   70.0998  224.7574 H   0  0  0  0  0  0  0  0  0  0  0  0
  141.8664   72.2694  225.2165 H   0  0  0  0  0  0  0  0  0  0  0  0
  141.8321   73.2354  227.5201 H   0  0  0  0  0  0  0  0  0  0  0  0
  140.6376   72.0423  229.3605 H   0  0  0  0  0  0  0  0  0  0  0  0
  139.4710   69.8840  228.9026 H   0  0  0  0  0  0  0  0  0  0  0  0
  141.5237   74.7909  220.2575 H   0  0  0  0  0  0  0  0  0  0  0  0
  142.3654   77.1354  219.9686 H   0  0  0  0  0  0  0  0  0  0  0  0
  142.3025   79.5145  220.6394 H   0  0  0  0  0  0  0  0  0  0  0  0
  139.5873   80.7648  223.7733 H   0  0  0  0  0  0  0  0  0  0  0  0
  138.8036   78.4107  224.0496 H   0  0  0  0  0  0  0  0  0  0  0  0
  1  2  2  0
  2  3  1  0
  3  4  1  0
  4  5  1  0
  5  6  1  0
  5  7  2  0
  7  8  1  0
  8  9  1  0
  9 10  1  0
  9 11  1  0
 11 12  1  0
 12 13  1  0
 13 14  1  0
 14 15  1  0
 15 16  1  0
 16 17  2  0
 17 18  1  0
 18 19  2  0
 19 20  1  0
 20 21  2  0
  2 22  1  0
 22 23  2  0
 23 24  1  0
 24 25  2  0
 25 26  1  0
 26 27  2  0
 27 28  1  0
 27 29  1  0
 29 30  2  0
 30 31  1  0
 31 32  2  0
 12  7  1  0
 21 16  1  0
 32 22  1  0
 31 25  1  0
  4 33  1  0
  4 34  1  0
  6 35  1  0
  8 36  1  0
  8 37  1  0
  9 38  1  6
 10 39  1  0
 11 40  1  0
 11 41  1  0
 12 42  1  1
 13 43  1  0
 13 44  1  0
 15 45  1  0
 15 46  1  0
 17 47  1  0
 18 48  1  0
 19 49  1  0
 20 50  1  0
 21 51  1  0
 23 52  1  0
 24 53  1  0
 26 54  1  0
 29 55  1  0
 30 56  1  0
M  CHG  2   3  -1   7   1
M  END
>  <meeko>  (19) 
{"free_energy": -7.39, "intermolecular_energy": -10.67, "internal_energy": -2.96, "cluster_size": 6, "cluster_id": 3, "rank_in_cluster": 3}

$$$$

     RDKit          3D

 56 59  0  0  0  0  0  0  0  0999 V2000
  137.8070   72.6600  220.3370 O   0  0  0  0  0  0  0  0  0  0  0  0
  138.8660   72.6320  221.0100 C   0  0  0  0  0  0  0  0  0  0  0  0
  139.9890   73.4190  220.6070 N   0  0  0  0  0  0  0  0  0  0  0  0
  139.9000   74.8350  220.2870 C   0  0  0  0  0  0  0  0  0  0  0  0
  139.8710   75.6480  221.5550 C   0  0  0  0  0  0  0  0  0  0  0  0
  139.5750   74.9390  222.7310 O   0  0  0  0  0  0  0  0  0  0  0  0
  140.0720   76.9490  221.5750 N   0  0  0  0  0  0  0  0  0  0  0  0
  141.0810   77.5940  220.7380 C   0  0  0  0  0  0  0  0  0  0  0  0
  141.3400   78.9740  221.3360 C   0  0  2  0  0  0  0  0  0  0  0  0
  142.5570   78.9910  222.0440 O   0  0  0  0  0  0  0  0  0  0  0  0
  140.1820   79.2440  222.2950 C   0  0  0  0  0  0  0  0  0  0  0  0
  139.4600   77.9010  222.5180 C   0  0  1  0  0  0  0  0  0  0  0  0
  137.9230   78.0290  222.3070 C   0  0  0  0  0  0  0  0  0  0  0  0
  137.4730   77.0930  221.3310 O   0  0  0  0  0  0  0  0  0  0  0  0
  136.0940   76.7900  221.4840 C   0  0  0  0  0  0  0  0  0  0  0  0
  135.8730   75.7640  222.5650 C   0  0  0  0  0  0  0  0  0  0  0  0
  136.0540   74.4000  222.2840 C   0  0  0  0  0  0  0  0  0  0  0  0
  135.8660   73.4430  223.2860 C   0  0  0  0  0  0  0  0  0  0  0  0
  135.4880   73.8450  224.5710 C   0  0  0  0  0  0  0  0  0  0  0  0
  135.3010   75.2030  224.8550 C   0  0  0  0  0  0  0  0  0  0  0  0
  135.4950   76.1600  223.8560 C   0  0  0  0  0  0  0  0  0  0  0  0
  138.9290   71.8260  222.2460 C   0  0  0  0  0  0  0  0  0  0  0  0
  138.0620   70.7390  222.4420 C   0  0  0  0  0  0  0  0  0  0  0  0
  138.1480   69.9860  223.6230 C   0  0  0  0  0  0  0  0  0  0  0  0
  139.0910   70.3280  224.5980 C   0  0  0  0  0  0  0  0  0  0  0  0
  139.2150   69.5840  225.7880 C   0  0  0  0  0  0  0  0  0  0  0  0
  140.1850   69.9370  226.7340 C   0  0  0  0  0  0  0  0  0  0  0  0
  140.3720   68.9870  228.1950 Cl  0  0  0  0  0  0  0  0  0  0  0  0
  141.0240   71.0340  226.5090 C   0  0  0  0  0  0  0  0  0  0  0  0
  140.9040   71.7820  225.3310 C   0  0  0  0  0  0  0  0  0  0  0  0
  139.9440   71.4360  224.3630 C   0  0  0  0  0  0  0  0  0  0  0  0
  139.8460   72.1380  223.2040 N   0  0  0  0  0  0  0  0  0  0  0  0
  140.7732   75.1284  219.6859 H   0  0  0  0  0  0  0  0  0  0  0  0
  138.9769   75.0197  219.7180 H   0  0  0  0  0  0  0  0  0  0  0  0
  139.2520   73.9800  222.7440 H   0  0  0  0  0  0  0  0  0  0  0  0
  142.0079   77.0016  220.7392 H   0  0  0  0  0  0  0  0  0  0  0  0
  140.7343   77.6756  219.6973 H   0  0  0  0  0  0  0  0  0  0  0  0
  141.4077   79.7378  220.5473 H   0  0  0  0  0  0  0  0  0  0  0  0
  143.1380   78.3050  221.6160 H   0  0  0  0  0  0  0  0  0  0  0  0
  140.5653   79.6303  223.2510 H   0  0  0  0  0  0  0  0  0  0  0  0
  139.4945   79.9952  221.8790 H   0  0  0  0  0  0  0  0  0  0  0  0
  139.5765   77.5544  223.5554 H   0  0  0  0  0  0  0  0  0  0  0  0
  137.4094   77.8334  223.2599 H   0  0  0  0  0  0  0  0  0  0  0  0
  137.6959   79.0462  221.9553 H   0  0  0  0  0  0  0  0  0  0  0  0
  135.5525   77.7104  221.7481 H   0  0  0  0  0  0  0  0  0  0  0  0
  135.7228   76.3775  220.5342 H   0  0  0  0  0  0  0  0  0  0  0  0
  136.3448   74.0832  221.2716 H   0  0  0  0  0  0  0  0  0  0  0  0
  136.0151   72.3760  223.0639 H   0  0  0  0  0  0  0  0  0  0  0  0
  135.3374   73.0931  225.3597 H   0  0  0  0  0  0  0  0  0  0  0  0
  135.0010   75.5168  225.8657 H   0  0  0  0  0  0  0  0  0  0  0  0
  135.3509   77.2267  224.0826 H   0  0  0  0  0  0  0  0  0  0  0  0
  137.3191   70.4790  221.6736 H   0  0  0  0  0  0  0  0  0  0  0  0
  137.4761   69.1296  223.7816 H   0  0  0  0  0  0  0  0  0  0  0  0
  138.5507   68.7271  225.9736 H   0  0  0  0  0  0  0  0  0  0  0  0
  141.7797   71.3096  227.2593 H   0  0  0  0  0  0  0  0  0  0  0  0
  141.5645   72.6452  225.1618 H   0  0  0  0  0  0  0  0  0  0  0  0
  1  2  2  0
  2  3  1  0
  3  4  1  0
  4  5  1  0
  5  6  1  0
  5  7  2  0
  7  8  1  0
  8  9  1  0
  9 10  1  0
  9 11  1  0
 11 12  1  0
 12 13  1  0
 13 14  1  0
 14 15  1  0
 15 16  1  0
 16 17  2  0
 17 18  1  0
 18 19  2  0
 19 20  1  0
 20 21  2  0
  2 22  1  0
 22 23  2  0
 23 24  1  0
 24 25  2  0
 25 26  1  0
 26 27  2  0
 27 28  1  0
 27 29  1  0
 29 30  2  0
 30 31  1  0
 31 32  2  0
 12  7  1  0
 21 16  1  0
 32 22  1  0
 31 25  1  0
  4 33  1  0
  4 34  1  0
  6 35  1  0
  8 36  1  0
  8 37  1  0
  9 38  1  6
 10 39  1  0
 11 40  1  0
 11 41  1  0
 12 42  1  1
 13 43  1  0
 13 44  1  0
 15 45  1  0
 15 46  1  0
 17 47  1  0
 18 48  1  0
 19 49  1  0
 20 50  1  0
 21 51  1  0
 23 52  1  0
 24 53  1  0
 26 54  1  0
 29 55  1  0
 30 56  1  0
M  CHG  2   3  -1   7   1
M  END
>  <meeko>  (20) 
{"free_energy": -6.07, "intermolecular_energy": -9.35, "internal_energy": -3.73, "cluster_size": 3, "cluster_id": 4, "rank_in_cluster": 3}

$$$$
