
     RDKit          3D

 56 59  0  0  0  0  0  0  0  0999 V2000
  137.0940   70.6010  220.8250 O   0  0  0  0  0  0  0  0  0  0  0  0
  137.9820   71.1080  221.5640 C   0  0  0  0  0  0  0  0  0  0  0  0
  138.5820   72.3590  221.2120 N   0  0  0  0  0  0  0  0  0  0  0  0
  139.9210   72.4750  220.6450 C   0  0  0  0  0  0  0  0  0  0  0  0
  140.5570   73.7610  221.0990 C   0  0  0  0  0  0  0  0  0  0  0  0
  140.1160   74.2760  222.3240 O   0  0  0  0  0  0  0  0  0  0  0  0
  141.4570   74.3840  220.3660 N   0  0  0  0  0  0  0  0  0  0  0  0
  141.9420   73.8800  219.0820 C   0  0  0  0  0  0  0  0  0  0  0  0
  143.0090   74.8670  218.6120 C   0  0  2  0  0  0  0  0  0  0  0  0
  144.1230   74.2050  218.0740 O   0  0  0  0  0  0  0  0  0  0  0  0
  143.4000   75.6470  219.8620 C   0  0  0  0  0  0  0  0  0  0  0  0
  142.1580   75.6110  220.7550 C   0  0  1  0  0  0  0  0  0  0  0  0
  141.2800   76.8530  220.4990 C   0  0  0  0  0  0  0  0  0  0  0  0
  140.0810   76.7720  221.2380 O   0  0  0  0  0  0  0  0  0  0  0  0
  139.5840   78.0700  221.4880 C   0  0  0  0  0  0  0  0  0  0  0  0
  140.6840   78.9100  222.0710 C   0  0  0  0  0  0  0  0  0  0  0  0
  141.2050   80.0060  221.3620 C   0  0  0  0  0  0  0  0  0  0  0  0
  142.2310   80.7790  221.9150 C   0  0  0  0  0  0  0  0  0  0  0  0
  142.7310   80.4750  223.1830 C   0  0  0  0  0  0  0  0  0  0  0  0
  142.2090   79.3950  223.9000 C   0  0  0  0  0  0  0  0  0  0  0  0
  141.1880   78.6140  223.3470 C   0  0  0  0  0  0  0  0  0  0  0  0
  138.4130   70.4160  222.7900 C   0  0  0  0  0  0  0  0  0  0  0  0
  138.1050   69.0630  223.0090 C   0  0  0  0  0  0  0  0  0  0  0  0
  138.5540   68.4290  224.1680 C   0  0  0  0  0  0  0  0  0  0  0  0
  139.3020   69.1460  225.1100 C   0  0  0  0  0  0  0  0  0  0  0  0
  139.7710   68.5400  226.2840 C   0  0  0  0  0  0  0  0  0  0  0  0
  140.5130   69.2880  227.2080 C   0  0  0  0  0  0  0  0  0  0  0  0
  141.0990   68.5300  228.6770 Cl  0  0  0  0  0  0  0  0  0  0  0  0
  140.7840   70.6390  226.9630 C   0  0  0  0  0  0  0  0  0  0  0  0
  140.3220   71.2490  225.7920 C   0  0  0  0  0  0  0  0  0  0  0  0
  139.5820   70.5090  224.8630 C   0  0  0  0  0  0  0  0  0  0  0  0
  139.1360   71.0970  223.7220 N   0  0  0  0  0  0  0  0  0  0  0  0
  140.5345   71.6258  220.9805 H   0  0  0  0  0  0  0  0  0  0  0  0
  139.8521   72.4716  219.5472 H   0  0  0  0  0  0  0  0  0  0  0  0
  139.2470   74.0200  222.7710 H   0  0  0  0  0  0  0  0  0  0  0  0
  142.3779   72.8777  219.2059 H   0  0  0  0  0  0  0  0  0  0  0  0
  141.1249   73.7947  218.3505 H   0  0  0  0  0  0  0  0  0  0  0  0
  142.6303   75.5193  217.8113 H   0  0  0  0  0  0  0  0  0  0  0  0
  144.8440   74.8840  218.0030 H   0  0  0  0  0  0  0  0  0  0  0  0
  144.2526   75.1681  220.3658 H   0  0  0  0  0  0  0  0  0  0  0  0
  143.7107   76.6757  219.6271 H   0  0  0  0  0  0  0  0  0  0  0  0
  142.4069   75.6198  221.8264 H   0  0  0  0  0  0  0  0  0  0  0  0
  141.8318   77.7550  220.8022 H   0  0  0  0  0  0  0  0  0  0  0  0
  141.0348   76.9003  219.4277 H   0  0  0  0  0  0  0  0  0  0  0  0
  139.2361   78.5196  220.5463 H   0  0  0  0  0  0  0  0  0  0  0  0
  138.7426   78.0164  222.1945 H   0  0  0  0  0  0  0  0  0  0  0  0
  140.8044   80.2567  220.3687 H   0  0  0  0  0  0  0  0  0  0  0  0
  142.6447   81.6276  221.3504 H   0  0  0  0  0  0  0  0  0  0  0  0
  143.5360   81.0859  223.6176 H   0  0  0  0  0  0  0  0  0  0  0  0
  142.6011   79.1586  224.9002 H   0  0  0  0  0  0  0  0  0  0  0  0
  140.7790   77.7650  223.9144 H   0  0  0  0  0  0  0  0  0  0  0  0
  137.5119   68.5053  222.2693 H   0  0  0  0  0  0  0  0  0  0  0  0
  138.3209   67.3681  224.3414 H   0  0  0  0  0  0  0  0  0  0  0  0
  139.5569   67.4789  226.4796 H   0  0  0  0  0  0  0  0  0  0  0  0
  141.3623   71.2233  227.6939 H   0  0  0  0  0  0  0  0  0  0  0  0
  140.5404   72.3101  225.6015 H   0  0  0  0  0  0  0  0  0  0  0  0
  1  2  2  0
  2  3  1  0
  3  4  1  0
  4  5  1  0
  5  6  1  0
  5  7  2  0
  7  8  1  0
  8  9  1  0
  9 10  1  0
  9 11  1  0
 11 12  1  0
 12 13  1  0
 13 14  1  0
 14 15  1  0
 15 16  1  0
 16 17  2  0
 17 18  1  0
 18 19  2  0
 19 20  1  0
 20 21  2  0
  2 22  1  0
 22 23  2  0
 23 24  1  0
 24 25  2  0
 25 26  1  0
 26 27  2  0
 27 28  1  0
 27 29  1  0
 29 30  2  0
 30 31  1  0
 31 32  2  0
 12  7  1  0
 21 16  1  0
 32 22  1  0
 31 25  1  0
  4 33  1  0
  4 34  1  0
  6 35  1  0
  8 36  1  0
  8 37  1  0
  9 38  1  6
 10 39  1  0
 11 40  1  0
 11 41  1  0
 12 42  1  1
 13 43  1  0
 13 44  1  0
 15 45  1  0
 15 46  1  0
 17 47  1  0
 18 48  1  0
 19 49  1  0
 20 50  1  0
 21 51  1  0
 23 52  1  0
 24 53  1  0
 26 54  1  0
 29 55  1  0
 30 56  1  0
M  CHG  2   3  -1   7   1
M  END
>  <meeko>  (1) 
{"free_energy": -7.74, "intermolecular_energy": -11.02, "internal_energy": -2.07, "cluster_size": 9, "cluster_id": 2, "rank_in_cluster": 7}

$$$$

     RDKit          3D

 56 59  0  0  0  0  0  0  0  0999 V2000
  140.2970   72.1730  220.6740 O   0  0  0  0  0  0  0  0  0  0  0  0
  140.0780   72.5540  221.8570 C   0  0  0  0  0  0  0  0  0  0  0  0
  139.8690   73.9420  222.1370 N   0  0  0  0  0  0  0  0  0  0  0  0
  140.7120   75.0040  221.6010 C   0  0  0  0  0  0  0  0  0  0  0  0
  140.2500   76.3370  222.1280 C   0  0  0  0  0  0  0  0  0  0  0  0
  139.0120   76.3540  222.7800 O   0  0  0  0  0  0  0  0  0  0  0  0
  140.9620   77.4320  221.9560 N   0  0  0  0  0  0  0  0  0  0  0  0
  141.4330   78.2700  223.0580 C   0  0  0  0  0  0  0  0  0  0  0  0
  142.1520   79.4550  222.4150 C   0  0  2  0  0  0  0  0  0  0  0  0
  141.8330   80.6620  223.0550 O   0  0  0  0  0  0  0  0  0  0  0  0
  141.6690   79.4700  220.9690 C   0  0  0  0  0  0  0  0  0  0  0  0
  141.3110   78.0150  220.6570 C   0  0  1  0  0  0  0  0  0  0  0  0
  142.5210   77.2880  220.0350 C   0  0  0  0  0  0  0  0  0  0  0  0
  142.0890   76.2310  219.2070 O   0  0  0  0  0  0  0  0  0  0  0  0
  143.2030   75.6250  218.5850 C   0  0  0  0  0  0  0  0  0  0  0  0
  143.6500   74.4550  219.4130 C   0  0  0  0  0  0  0  0  0  0  0  0
  144.7810   74.5490  220.2410 C   0  0  0  0  0  0  0  0  0  0  0  0
  145.1880   73.4500  221.0050 C   0  0  0  0  0  0  0  0  0  0  0  0
  144.4590   72.2590  220.9620 C   0  0  0  0  0  0  0  0  0  0  0  0
  143.3240   72.1620  220.1520 C   0  0  0  0  0  0  0  0  0  0  0  0
  142.9190   73.2560  219.3800 C   0  0  0  0  0  0  0  0  0  0  0  0
  140.0430   71.5780  222.9590 C   0  0  0  0  0  0  0  0  0  0  0  0
  139.5280   70.2850  222.7700 C   0  0  0  0  0  0  0  0  0  0  0  0
  139.5370   69.3750  223.8280 C   0  0  0  0  0  0  0  0  0  0  0  0
  140.0510   69.7570  225.0720 C   0  0  0  0  0  0  0  0  0  0  0  0
  140.0770   68.8670  226.1550 C   0  0  0  0  0  0  0  0  0  0  0  0
  140.5950   69.2830  227.3890 C   0  0  0  0  0  0  0  0  0  0  0  0
  140.6270   68.1710  228.7440 Cl  0  0  0  0  0  0  0  0  0  0  0  0
  141.0830   70.5870  227.5440 C   0  0  0  0  0  0  0  0  0  0  0  0
  141.0630   71.4780  226.4660 C   0  0  0  0  0  0  0  0  0  0  0  0
  140.5490   71.0700  225.2300 C   0  0  0  0  0  0  0  0  0  0  0  0
  140.5320   71.9320  224.1800 N   0  0  0  0  0  0  0  0  0  0  0  0
  141.7546   74.8320  221.9066 H   0  0  0  0  0  0  0  0  0  0  0  0
  140.6427   75.0036  220.5032 H   0  0  0  0  0  0  0  0  0  0  0  0
  138.5240   75.5290  223.0990 H   0  0  0  0  0  0  0  0  0  0  0  0
  140.5823   78.6213  223.6605 H   0  0  0  0  0  0  0  0  0  0  0  0
  142.1020   77.7112  223.7290 H   0  0  0  0  0  0  0  0  0  0  0  0
  143.2446   79.3531  222.4919 H   0  0  0  0  0  0  0  0  0  0  0  0
  141.0150   81.0070  222.6110 H   0  0  0  0  0  0  0  0  0  0  0  0
  140.7857   80.1170  220.8629 H   0  0  0  0  0  0  0  0  0  0  0  0
  142.4322   79.8646  220.2821 H   0  0  0  0  0  0  0  0  0  0  0  0
  140.4878   77.9288  219.9325 H   0  0  0  0  0  0  0  0  0  0  0  0
  143.1039   78.0027  219.4355 H   0  0  0  0  0  0  0  0  0  0  0  0
  143.1429   76.8759  220.8433 H   0  0  0  0  0  0  0  0  0  0  0  0
  142.9208   75.2788  217.5798 H   0  0  0  0  0  0  0  0  0  0  0  0
  144.0224   76.3539  218.4995 H   0  0  0  0  0  0  0  0  0  0  0  0
  145.3486   75.4901  220.2888 H   0  0  0  0  0  0  0  0  0  0  0  0
  146.0830   73.5237  221.6403 H   0  0  0  0  0  0  0  0  0  0  0  0
  144.7784   71.3970  221.5660 H   0  0  0  0  0  0  0  0  0  0  0  0
  142.7489   71.2248  220.1216 H   0  0  0  0  0  0  0  0  0  0  0  0
  142.0246   73.1770  218.7446 H   0  0  0  0  0  0  0  0  0  0  0  0
  139.1192   69.9909  221.7920 H   0  0  0  0  0  0  0  0  0  0  0  0
  139.1406   68.3590  223.6842 H   0  0  0  0  0  0  0  0  0  0  0  0
  139.6914   67.8437  226.0363 H   0  0  0  0  0  0  0  0  0  0  0  0
  141.4830   70.9111  228.5161 H   0  0  0  0  0  0  0  0  0  0  0  0
  141.4514   72.4997  226.5898 H   0  0  0  0  0  0  0  0  0  0  0  0
  1  2  2  0
  2  3  1  0
  3  4  1  0
  4  5  1  0
  5  6  1  0
  5  7  2  0
  7  8  1  0
  8  9  1  0
  9 10  1  0
  9 11  1  0
 11 12  1  0
 12 13  1  0
 13 14  1  0
 14 15  1  0
 15 16  1  0
 16 17  2  0
 17 18  1  0
 18 19  2  0
 19 20  1  0
 20 21  2  0
  2 22  1  0
 22 23  2  0
 23 24  1  0
 24 25  2  0
 25 26  1  0
 26 27  2  0
 27 28  1  0
 27 29  1  0
 29 30  2  0
 30 31  1  0
 31 32  2  0
 12  7  1  0
 21 16  1  0
 32 22  1  0
 31 25  1  0
  4 33  1  0
  4 34  1  0
  6 35  1  0
  8 36  1  0
  8 37  1  0
  9 38  1  6
 10 39  1  0
 11 40  1  0
 11 41  1  0
 12 42  1  6
 13 43  1  0
 13 44  1  0
 15 45  1  0
 15 46  1  0
 17 47  1  0
 18 48  1  0
 19 49  1  0
 20 50  1  0
 21 51  1  0
 23 52  1  0
 24 53  1  0
 26 54  1  0
 29 55  1  0
 30 56  1  0
M  CHG  2   3  -1   7   1
M  END
>  <meeko>  (2) 
{"free_energy": -7.95, "intermolecular_energy": -11.23, "internal_energy": -2.55, "cluster_size": 2, "cluster_id": 3, "rank_in_cluster": 1}

$$$$

     RDKit          3D

 56 59  0  0  0  0  0  0  0  0999 V2000
  137.4700   72.4360  221.6130 O   0  0  0  0  0  0  0  0  0  0  0  0
  138.6150   71.9220  221.7440 C   0  0  0  0  0  0  0  0  0  0  0  0
  139.6230   72.1520  220.7540 N   0  0  0  0  0  0  0  0  0  0  0  0
  140.8160   72.9550  220.9950 C   0  0  0  0  0  0  0  0  0  0  0  0
  140.4250   74.2860  221.5780 C   0  0  0  0  0  0  0  0  0  0  0  0
  139.5860   74.2540  222.6980 O   0  0  0  0  0  0  0  0  0  0  0  0
  140.8260   75.4210  221.0420 N   0  0  0  0  0  0  0  0  0  0  0  0
  141.5000   75.5090  219.7470 C   0  0  0  0  0  0  0  0  0  0  0  0
  141.8410   76.9840  219.5440 C   0  0  2  0  0  0  0  0  0  0  0  0
  143.1310   77.1480  219.0180 O   0  0  0  0  0  0  0  0  0  0  0  0
  141.7450   77.6050  220.9330 C   0  0  0  0  0  0  0  0  0  0  0  0
  140.7360   76.7350  221.6850 C   0  0  1  0  0  0  0  0  0  0  0  0
  139.3150   77.3220  221.5440 C   0  0  0  0  0  0  0  0  0  0  0  0
  138.8130   77.7070  222.8050 O   0  0  0  0  0  0  0  0  0  0  0  0
  138.6920   79.1130  222.8620 C   0  0  0  0  0  0  0  0  0  0  0  0
  140.0620   79.7180  222.9630 C   0  0  0  0  0  0  0  0  0  0  0  0
  140.4240   80.8170  222.1650 C   0  0  0  0  0  0  0  0  0  0  0  0
  141.7050   81.3690  222.2660 C   0  0  0  0  0  0  0  0  0  0  0  0
  142.6250   80.8420  223.1760 C   0  0  0  0  0  0  0  0  0  0  0  0
  142.2680   79.7580  223.9830 C   0  0  0  0  0  0  0  0  0  0  0  0
  140.9910   79.1970  223.8780 C   0  0  0  0  0  0  0  0  0  0  0  0
  138.9230   71.0790  222.9110 C   0  0  0  0  0  0  0  0  0  0  0  0
  138.5480   69.7250  222.9500 C   0  0  0  0  0  0  0  0  0  0  0  0
  138.8810   68.9470  224.0600 C   0  0  0  0  0  0  0  0  0  0  0  0
  139.5800   69.5200  225.1290 C   0  0  0  0  0  0  0  0  0  0  0  0
  139.9330   68.7660  226.2570 C   0  0  0  0  0  0  0  0  0  0  0  0
  140.6280   69.3700  227.3120 C   0  0  0  0  0  0  0  0  0  0  0  0
  141.0690   68.4280  228.7240 Cl  0  0  0  0  0  0  0  0  0  0  0  0
  140.9690   70.7270  227.2440 C   0  0  0  0  0  0  0  0  0  0  0  0
  140.6230   71.4840  226.1200 C   0  0  0  0  0  0  0  0  0  0  0  0
  139.9300   70.8870  225.0610 C   0  0  0  0  0  0  0  0  0  0  0  0
  139.5960   71.6180  223.9650 N   0  0  0  0  0  0  0  0  0  0  0  0
  141.4754   72.4271  221.6997 H   0  0  0  0  0  0  0  0  0  0  0  0
  141.3438   73.1161  220.0434 H   0  0  0  0  0  0  0  0  0  0  0  0
  138.9600   73.4920  222.9200 H   0  0  0  0  0  0  0  0  0  0  0  0
  142.4178   74.9026  219.7527 H   0  0  0  0  0  0  0  0  0  0  0  0
  140.8611   75.1298  218.9358 H   0  0  0  0  0  0  0  0  0  0  0  0
  141.1590   77.4593  218.8236 H   0  0  0  0  0  0  0  0  0  0  0  0
  143.6810   77.5480  219.7410 H   0  0  0  0  0  0  0  0  0  0  0  0
  142.7237   77.5840  221.4347 H   0  0  0  0  0  0  0  0  0  0  0  0
  141.4343   78.6595  220.8943 H   0  0  0  0  0  0  0  0  0  0  0  0
  140.9465   76.6797  222.7633 H   0  0  0  0  0  0  0  0  0  0  0  0
  139.3503   78.2015  220.8843 H   0  0  0  0  0  0  0  0  0  0  0  0
  138.6533   76.5542  221.1165 H   0  0  0  0  0  0  0  0  0  0  0  0
  138.1942   79.4775  221.9513 H   0  0  0  0  0  0  0  0  0  0  0  0
  138.0939   79.3991  223.7397 H   0  0  0  0  0  0  0  0  0  0  0  0
  139.6972   81.2444  221.4585 H   0  0  0  0  0  0  0  0  0  0  0  0
  141.9886   82.2192  221.6282 H   0  0  0  0  0  0  0  0  0  0  0  0
  143.6306   81.2803  223.2574 H   0  0  0  0  0  0  0  0  0  0  0  0
  142.9920   79.3458  224.7013 H   0  0  0  0  0  0  0  0  0  0  0  0
  140.7133   78.3442  224.5149 H   0  0  0  0  0  0  0  0  0  0  0  0
  137.9946   69.2805  222.1096 H   0  0  0  0  0  0  0  0  0  0  0  0
  138.5947   67.8855  224.0947 H   0  0  0  0  0  0  0  0  0  0  0  0
  139.6642   67.7008  226.3133 H   0  0  0  0  0  0  0  0  0  0  0  0
  141.5106   71.1987  228.0772 H   0  0  0  0  0  0  0  0  0  0  0  0
  140.8956   72.5484  226.0685 H   0  0  0  0  0  0  0  0  0  0  0  0
  1  2  2  0
  2  3  1  0
  3  4  1  0
  4  5  1  0
  5  6  1  0
  5  7  2  0
  7  8  1  0
  8  9  1  0
  9 10  1  0
  9 11  1  0
 11 12  1  0
 12 13  1  0
 13 14  1  0
 14 15  1  0
 15 16  1  0
 16 17  2  0
 17 18  1  0
 18 19  2  0
 19 20  1  0
 20 21  2  0
  2 22  1  0
 22 23  2  0
 23 24  1  0
 24 25  2  0
 25 26  1  0
 26 27  2  0
 27 28  1  0
 27 29  1  0
 29 30  2  0
 30 31  1  0
 31 32  2  0
 12  7  1  0
 21 16  1  0
 32 22  1  0
 31 25  1  0
  4 33  1  0
  4 34  1  0
  6 35  1  0
  8 36  1  0
  8 37  1  0
  9 38  1  6
 10 39  1  0
 11 40  1  0
 11 41  1  0
 12 42  1  1
 13 43  1  0
 13 44  1  0
 15 45  1  0
 15 46  1  0
 17 47  1  0
 18 48  1  0
 19 49  1  0
 20 50  1  0
 21 51  1  0
 23 52  1  0
 24 53  1  0
 26 54  1  0
 29 55  1  0
 30 56  1  0
M  CHG  2   3  -1   7   1
M  END
>  <meeko>  (3) 
{"free_energy": -8.41, "intermolecular_energy": -11.7, "internal_energy": -2.8, "cluster_size": 9, "cluster_id": 2, "rank_in_cluster": 3}

$$$$

     RDKit          3D

 56 59  0  0  0  0  0  0  0  0999 V2000
  134.0220   69.9270  226.9000 O   0  0  0  0  0  0  0  0  0  0  0  0
  133.6720   70.8200  226.0790 C   0  0  0  0  0  0  0  0  0  0  0  0
  133.8480   70.6140  224.6740 N   0  0  0  0  0  0  0  0  0  0  0  0
  135.0520   71.0050  223.9510 C   0  0  0  0  0  0  0  0  0  0  0  0
  136.1610   70.0280  224.2410 C   0  0  0  0  0  0  0  0  0  0  0  0
  135.8060   68.8760  224.9530 O   0  0  0  0  0  0  0  0  0  0  0  0
  137.4030   70.2620  223.8710 N   0  0  0  0  0  0  0  0  0  0  0  0
  138.1220   71.4960  224.1870 C   0  0  0  0  0  0  0  0  0  0  0  0
  139.4910   71.3750  223.5210 C   0  0  2  0  0  0  0  0  0  0  0  0
  139.8750   72.5770  222.9090 O   0  0  0  0  0  0  0  0  0  0  0  0
  139.3260   70.2720  222.4820 C   0  0  0  0  0  0  0  0  0  0  0  0
  138.2130   69.3760  223.0300 C   0  0  1  0  0  0  0  0  0  0  0  0
  138.8160   68.2250  223.8630 C   0  0  0  0  0  0  0  0  0  0  0  0
  138.5070   68.3900  225.2290 O   0  0  0  0  0  0  0  0  0  0  0  0
  139.6650   68.1790  226.0090 C   0  0  0  0  0  0  0  0  0  0  0  0
  140.1100   69.4920  226.5880 C   0  0  0  0  0  0  0  0  0  0  0  0
  141.0400   70.2990  225.9110 C   0  0  0  0  0  0  0  0  0  0  0  0
  141.4480   71.5170  226.4620 C   0  0  0  0  0  0  0  0  0  0  0  0
  140.9180   71.9470  227.6810 C   0  0  0  0  0  0  0  0  0  0  0  0
  139.9820   71.1570  228.3540 C   0  0  0  0  0  0  0  0  0  0  0  0
  139.5780   69.9340  227.8100 C   0  0  0  0  0  0  0  0  0  0  0  0
  133.0850   72.0830  226.5600 C   0  0  0  0  0  0  0  0  0  0  0  0
  131.8730   72.0980  227.2700 C   0  0  0  0  0  0  0  0  0  0  0  0
  131.3600   73.3090  227.7360 C   0  0  0  0  0  0  0  0  0  0  0  0
  132.0510   74.5010  227.4880 C   0  0  0  0  0  0  0  0  0  0  0  0
  131.5650   75.7350  227.9450 C   0  0  0  0  0  0  0  0  0  0  0  0
  132.2790   76.9100  227.6760 C   0  0  0  0  0  0  0  0  0  0  0  0
  131.6710   78.4530  228.2460 Cl  0  0  0  0  0  0  0  0  0  0  0  0
  133.4750   76.8550  226.9490 C   0  0  0  0  0  0  0  0  0  0  0  0
  133.9670   75.6280  226.4940 C   0  0  0  0  0  0  0  0  0  0  0  0
  133.2600   74.4490  226.7600 C   0  0  0  0  0  0  0  0  0  0  0  0
  133.7380   73.2540  226.3230 N   0  0  0  0  0  0  0  0  0  0  0  0
  134.8437   71.0109  222.8709 H   0  0  0  0  0  0  0  0  0  0  0  0
  135.3597   72.0103  224.2746 H   0  0  0  0  0  0  0  0  0  0  0  0
  134.9080   68.7310  225.3920 H   0  0  0  0  0  0  0  0  0  0  0  0
  137.5796   72.3659  223.7882 H   0  0  0  0  0  0  0  0  0  0  0  0
  138.2164   71.6374  225.2738 H   0  0  0  0  0  0  0  0  0  0  0  0
  140.2776   71.1461  224.2550 H   0  0  0  0  0  0  0  0  0  0  0  0
  139.1780   73.2450  223.1400 H   0  0  0  0  0  0  0  0  0  0  0  0
  139.0369   70.6969  221.5095 H   0  0  0  0  0  0  0  0  0  0  0  0
  140.2608   69.7161  222.3171 H   0  0  0  0  0  0  0  0  0  0  0  0
  137.6167   68.9074  222.2332 H   0  0  0  0  0  0  0  0  0  0  0  0
  138.4025   67.2683  223.5113 H   0  0  0  0  0  0  0  0  0  0  0  0
  139.9093   68.2328  223.7419 H   0  0  0  0  0  0  0  0  0  0  0  0
  139.4382   67.4748  226.8230 H   0  0  0  0  0  0  0  0  0  0  0  0
  140.4648   67.7592  225.3812 H   0  0  0  0  0  0  0  0  0  0  0  0
  141.4484   69.9710  224.9438 H   0  0  0  0  0  0  0  0  0  0  0  0
  142.1875   72.1379  225.9351 H   0  0  0  0  0  0  0  0  0  0  0  0
  141.2375   72.9076  228.1112 H   0  0  0  0  0  0  0  0  0  0  0  0
  139.5629   71.4976  229.3123 H   0  0  0  0  0  0  0  0  0  0  0  0
  138.8401   69.3153  228.3417 H   0  0  0  0  0  0  0  0  0  0  0  0
  131.3309   71.1594  227.4577 H   0  0  0  0  0  0  0  0  0  0  0  0
  130.4142   73.3271  228.2973 H   0  0  0  0  0  0  0  0  0  0  0  0
  130.6246   75.7800  228.5138 H   0  0  0  0  0  0  0  0  0  0  0  0
  134.0293   77.7808  226.7353 H   0  0  0  0  0  0  0  0  0  0  0  0
  134.9090   75.5888  225.9274 H   0  0  0  0  0  0  0  0  0  0  0  0
  1  2  2  0
  2  3  1  0
  3  4  1  0
  4  5  1  0
  5  6  1  0
  5  7  2  0
  7  8  1  0
  8  9  1  0
  9 10  1  0
  9 11  1  0
 11 12  1  0
 12 13  1  0
 13 14  1  0
 14 15  1  0
 15 16  1  0
 16 17  2  0
 17 18  1  0
 18 19  2  0
 19 20  1  0
 20 21  2  0
  2 22  1  0
 22 23  2  0
 23 24  1  0
 24 25  2  0
 25 26  1  0
 26 27  2  0
 27 28  1  0
 27 29  1  0
 29 30  2  0
 30 31  1  0
 31 32  2  0
 12  7  1  0
 21 16  1  0
 32 22  1  0
 31 25  1  0
  4 33  1  0
  4 34  1  0
  6 35  1  0
  8 36  1  0
  8 37  1  0
  9 38  1  1
 10 39  1  0
 11 40  1  0
 11 41  1  0
 12 42  1  6
 13 43  1  0
 13 44  1  0
 15 45  1  0
 15 46  1  0
 17 47  1  0
 18 48  1  0
 19 49  1  0
 20 50  1  0
 21 51  1  0
 23 52  1  0
 24 53  1  0
 26 54  1  0
 29 55  1  0
 30 56  1  0
M  CHG  2   3  -1   7   1
M  END
>  <meeko>  (4) 
{"free_energy": -8.6, "intermolecular_energy": -11.89, "internal_energy": -3.25, "cluster_size": 1, "cluster_id": 1, "rank_in_cluster": 1}

$$$$

     RDKit          3D

 56 59  0  0  0  0  0  0  0  0999 V2000
  137.6050   72.5320  221.5760 O   0  0  0  0  0  0  0  0  0  0  0  0
  138.7270   71.9690  221.7010 C   0  0  0  0  0  0  0  0  0  0  0  0
  139.7330   72.1390  220.6970 N   0  0  0  0  0  0  0  0  0  0  0  0
  139.9600   73.3970  219.9960 C   0  0  0  0  0  0  0  0  0  0  0  0
  140.3260   74.4730  220.9840 C   0  0  0  0  0  0  0  0  0  0  0  0
  140.1400   74.1660  222.3370 O   0  0  0  0  0  0  0  0  0  0  0  0
  140.7680   75.6510  220.5920 N   0  0  0  0  0  0  0  0  0  0  0  0
  141.3730   75.8910  219.2820 C   0  0  0  0  0  0  0  0  0  0  0  0
  141.7950   77.3600  219.2710 C   0  0  2  0  0  0  0  0  0  0  0  0
  143.0610   77.5290  218.6920 O   0  0  0  0  0  0  0  0  0  0  0  0
  141.8160   77.7730  220.7390 C   0  0  0  0  0  0  0  0  0  0  0  0
  140.7970   76.8580  221.4220 C   0  0  1  0  0  0  0  0  0  0  0  0
  139.4110   77.5360  221.4590 C   0  0  0  0  0  0  0  0  0  0  0  0
  138.9520   77.6480  222.7880 O   0  0  0  0  0  0  0  0  0  0  0  0
  138.7580   79.0080  223.1130 C   0  0  0  0  0  0  0  0  0  0  0  0
  140.0950   79.6910  223.1750 C   0  0  0  0  0  0  0  0  0  0  0  0
  141.1770   79.0950  223.8440 C   0  0  0  0  0  0  0  0  0  0  0  0
  142.4150   79.7430  223.8970 C   0  0  0  0  0  0  0  0  0  0  0  0
  142.5860   80.9790  223.2690 C   0  0  0  0  0  0  0  0  0  0  0  0
  141.5180   81.5720  222.5900 C   0  0  0  0  0  0  0  0  0  0  0  0
  140.2760   80.9310  222.5420 C   0  0  0  0  0  0  0  0  0  0  0  0
  139.0100   71.1280  222.8770 C   0  0  0  0  0  0  0  0  0  0  0  0
  138.5800   69.7920  222.9370 C   0  0  0  0  0  0  0  0  0  0  0  0
  138.8900   69.0150  224.0530 C   0  0  0  0  0  0  0  0  0  0  0  0
  139.6210   69.5720  225.1100 C   0  0  0  0  0  0  0  0  0  0  0  0
  139.9520   68.8180  226.2450 C   0  0  0  0  0  0  0  0  0  0  0  0
  140.6800   69.4070  227.2870 C   0  0  0  0  0  0  0  0  0  0  0  0
  141.0940   68.4650  228.7070 Cl  0  0  0  0  0  0  0  0  0  0  0  0
  141.0760   70.7480  227.1980 C   0  0  0  0  0  0  0  0  0  0  0  0
  140.7520   71.5040  226.0670 C   0  0  0  0  0  0  0  0  0  0  0  0
  140.0260   70.9220  225.0210 C   0  0  0  0  0  0  0  0  0  0  0  0
  139.7130   71.6530  223.9180 N   0  0  0  0  0  0  0  0  0  0  0  0
  140.7802   73.2699  219.2741 H   0  0  0  0  0  0  0  0  0  0  0  0
  139.0412   73.6882  219.4659 H   0  0  0  0  0  0  0  0  0  0  0  0
  139.4650   73.4990  222.6820 H   0  0  0  0  0  0  0  0  0  0  0  0
  142.2494   75.2412  219.1417 H   0  0  0  0  0  0  0  0  0  0  0  0
  140.6673   75.6701  218.4676 H   0  0  0  0  0  0  0  0  0  0  0  0
  141.1058   77.9732  218.6718 H   0  0  0  0  0  0  0  0  0  0  0  0
  143.7080   77.5850  219.4430 H   0  0  0  0  0  0  0  0  0  0  0  0
  142.8178   77.6244  221.1682 H   0  0  0  0  0  0  0  0  0  0  0  0
  141.5710   78.8370  220.8726 H   0  0  0  0  0  0  0  0  0  0  0  0
  141.0629   76.6329  222.4654 H   0  0  0  0  0  0  0  0  0  0  0  0
  139.4871   78.5401  221.0163 H   0  0  0  0  0  0  0  0  0  0  0  0
  138.6992   76.9228  220.8869 H   0  0  0  0  0  0  0  0  0  0  0  0
  138.1348   79.4861  222.3429 H   0  0  0  0  0  0  0  0  0  0  0  0
  138.2533   79.0893  224.0870 H   0  0  0  0  0  0  0  0  0  0  0  0
  141.0499   78.1153  224.3278 H   0  0  0  0  0  0  0  0  0  0  0  0
  143.2554   79.2788  224.4340 H   0  0  0  0  0  0  0  0  0  0  0  0
  143.5615   81.4857  223.3089 H   0  0  0  0  0  0  0  0  0  0  0  0
  141.6545   82.5437  222.0929 H   0  0  0  0  0  0  0  0  0  0  0  0
  139.4377   81.4002  222.0062 H   0  0  0  0  0  0  0  0  0  0  0  0
  138.0011   69.3604  222.1072 H   0  0  0  0  0  0  0  0  0  0  0  0
  138.5610   67.9666  224.1030 H   0  0  0  0  0  0  0  0  0  0  0  0
  139.6405   67.7655  226.3171 H   0  0  0  0  0  0  0  0  0  0  0  0
  141.6437   71.2077  228.0205 H   0  0  0  0  0  0  0  0  0  0  0  0
  141.0675   72.5556  225.9993 H   0  0  0  0  0  0  0  0  0  0  0  0
  1  2  2  0
  2  3  1  0
  3  4  1  0
  4  5  1  0
  5  6  1  0
  5  7  2  0
  7  8  1  0
  8  9  1  0
  9 10  1  0
  9 11  1  0
 11 12  1  0
 12 13  1  0
 13 14  1  0
 14 15  1  0
 15 16  1  0
 16 17  2  0
 17 18  1  0
 18 19  2  0
 19 20  1  0
 20 21  2  0
  2 22  1  0
 22 23  2  0
 23 24  1  0
 24 25  2  0
 25 26  1  0
 26 27  2  0
 27 28  1  0
 27 29  1  0
 29 30  2  0
 30 31  1  0
 31 32  2  0
 12  7  1  0
 21 16  1  0
 32 22  1  0
 31 25  1  0
  4 33  1  0
  4 34  1  0
  6 35  1  0
  8 36  1  0
  8 37  1  0
  9 38  1  6
 10 39  1  0
 11 40  1  0
 11 41  1  0
 12 42  1  1
 13 43  1  0
 13 44  1  0
 15 45  1  0
 15 46  1  0
 17 47  1  0
 18 48  1  0
 19 49  1  0
 20 50  1  0
 21 51  1  0
 23 52  1  0
 24 53  1  0
 26 54  1  0
 29 55  1  0
 30 56  1  0
M  CHG  2   3  -1   7   1
M  END
>  <meeko>  (5) 
{"free_energy": -8.28, "intermolecular_energy": -11.56, "internal_energy": -2.7, "cluster_size": 9, "cluster_id": 2, "rank_in_cluster": 5}

$$$$

     RDKit          3D

 56 59  0  0  0  0  0  0  0  0999 V2000
  138.4360   71.7330  221.0280 O   0  0  0  0  0  0  0  0  0  0  0  0
  139.0960   72.1100  222.0350 C   0  0  0  0  0  0  0  0  0  0  0  0
  139.6350   73.4340  222.0870 N   0  0  0  0  0  0  0  0  0  0  0  0
  141.0520   73.7300  221.9080 C   0  0  0  0  0  0  0  0  0  0  0  0
  141.4810   73.3490  220.5170 C   0  0  0  0  0  0  0  0  0  0  0  0
  140.4800   72.8670  219.6660 O   0  0  0  0  0  0  0  0  0  0  0  0
  142.7390   73.4340  220.1330 N   0  0  0  0  0  0  0  0  0  0  0  0
  143.5270   72.2860  219.6870 C   0  0  0  0  0  0  0  0  0  0  0  0
  144.9300   72.8170  219.4020 C   0  0  2  0  0  0  0  0  0  0  0  0
  145.9200   71.9460  219.8820 O   0  0  0  0  0  0  0  0  0  0  0  0
  144.9970   74.1580  220.1260 C   0  0  0  0  0  0  0  0  0  0  0  0
  143.5510   74.6540  220.1730 C   0  0  1  0  0  0  0  0  0  0  0  0
  143.2540   75.5540  218.9560 C   0  0  0  0  0  0  0  0  0  0  0  0
  143.4080   76.9130  219.2980 O   0  0  0  0  0  0  0  0  0  0  0  0
  142.1650   77.5750  219.1990 C   0  0  0  0  0  0  0  0  0  0  0  0
  141.6870   77.9260  220.5790 C   0  0  0  0  0  0  0  0  0  0  0  0
  141.0680   76.9620  221.3930 C   0  0  0  0  0  0  0  0  0  0  0  0
  140.6240   77.3020  222.6750 C   0  0  0  0  0  0  0  0  0  0  0  0
  140.8120   78.5990  223.1590 C   0  0  0  0  0  0  0  0  0  0  0  0
  141.4390   79.5600  222.3610 C   0  0  0  0  0  0  0  0  0  0  0  0
  141.8760   79.2260  221.0750 C   0  0  0  0  0  0  0  0  0  0  0  0
  139.3220   71.1890  223.1630 C   0  0  0  0  0  0  0  0  0  0  0  0
  138.9360   69.8400  223.0900 C   0  0  0  0  0  0  0  0  0  0  0  0
  139.1920   68.9880  224.1650 C   0  0  0  0  0  0  0  0  0  0  0  0
  139.8240   69.4840  225.3120 C   0  0  0  0  0  0  0  0  0  0  0  0
  140.0970   68.6550  226.4100 C   0  0  0  0  0  0  0  0  0  0  0  0
  140.7260   69.1840  227.5450 C   0  0  0  0  0  0  0  0  0  0  0  0
  141.0690   68.1480  228.9180 Cl  0  0  0  0  0  0  0  0  0  0  0  0
  141.0790   70.5380  227.5870 C   0  0  0  0  0  0  0  0  0  0  0  0
  140.8120   71.3690  226.4940 C   0  0  0  0  0  0  0  0  0  0  0  0
  140.1850   70.8490  225.3560 C   0  0  0  0  0  0  0  0  0  0  0  0
  139.9280   71.6530  224.2910 N   0  0  0  0  0  0  0  0  0  0  0  0
  141.2224   74.8059  222.0608 H   0  0  0  0  0  0  0  0  0  0  0  0
  141.6383   73.1542  222.6392 H   0  0  0  0  0  0  0  0  0  0  0  0
  139.5150   72.7400  219.9350 H   0  0  0  0  0  0  0  0  0  0  0  0
  143.5624   71.5187  220.4744 H   0  0  0  0  0  0  0  0  0  0  0  0
  143.0858   71.8198  218.7937 H   0  0  0  0  0  0  0  0  0  0  0  0
  145.1124   72.9132  218.3215 H   0  0  0  0  0  0  0  0  0  0  0  0
  145.7430   71.8290  220.8520 H   0  0  0  0  0  0  0  0  0  0  0  0
  145.3949   74.0288  221.1434 H   0  0  0  0  0  0  0  0  0  0  0  0
  145.6622   74.8704  219.6162 H   0  0  0  0  0  0  0  0  0  0  0  0
  143.3408   75.2590  221.0673 H   0  0  0  0  0  0  0  0  0  0  0  0
  143.9508   75.3042  218.1423 H   0  0  0  0  0  0  0  0  0  0  0  0
  142.2166   75.3838  218.6322 H   0  0  0  0  0  0  0  0  0  0  0  0
  142.2824   78.4931  218.6047 H   0  0  0  0  0  0  0  0  0  0  0  0
  141.4321   76.9182  218.7075 H   0  0  0  0  0  0  0  0  0  0  0  0
  140.9321   75.9360  221.0204 H   0  0  0  0  0  0  0  0  0  0  0  0
  140.1265   76.5478  223.3025 H   0  0  0  0  0  0  0  0  0  0  0  0
  140.4662   78.8641  224.1690 H   0  0  0  0  0  0  0  0  0  0  0  0
  141.5889   80.5800  222.7447 H   0  0  0  0  0  0  0  0  0  0  0  0
  142.3696   79.9846  220.4498 H   0  0  0  0  0  0  0  0  0  0  0  0
  138.4341   69.4571  222.1892 H   0  0  0  0  0  0  0  0  0  0  0  0
  138.8981   67.9293  224.1116 H   0  0  0  0  0  0  0  0  0  0  0  0
  139.8178   67.5914  226.3802 H   0  0  0  0  0  0  0  0  0  0  0  0
  141.5678   70.9497  228.4823 H   0  0  0  0  0  0  0  0  0  0  0  0
  141.0949   72.4314  226.5289 H   0  0  0  0  0  0  0  0  0  0  0  0
  1  2  2  0
  2  3  1  0
  3  4  1  0
  4  5  1  0
  5  6  1  0
  5  7  2  0
  7  8  1  0
  8  9  1  0
  9 10  1  0
  9 11  1  0
 11 12  1  0
 12 13  1  0
 13 14  1  0
 14 15  1  0
 15 16  1  0
 16 17  2  0
 17 18  1  0
 18 19  2  0
 19 20  1  0
 20 21  2  0
  2 22  1  0
 22 23  2  0
 23 24  1  0
 24 25  2  0
 25 26  1  0
 26 27  2  0
 27 28  1  0
 27 29  1  0
 29 30  2  0
 30 31  1  0
 31 32  2  0
 12  7  1  0
 21 16  1  0
 32 22  1  0
 31 25  1  0
  4 33  1  0
  4 34  1  0
  6 35  1  0
  8 36  1  0
  8 37  1  0
  9 38  1  6
 10 39  1  0
 11 40  1  0
 11 41  1  0
 12 42  1  1
 13 43  1  0
 13 44  1  0
 15 45  1  0
 15 46  1  0
 17 47  1  0
 18 48  1  0
 19 49  1  0
 20 50  1  0
 21 51  1  0
 23 52  1  0
 24 53  1  0
 26 54  1  0
 29 55  1  0
 30 56  1  0
M  CHG  2   3  -1   7   1
M  END
>  <meeko>  (6) 
{"free_energy": -7.55, "intermolecular_energy": -10.84, "internal_energy": -3.05, "cluster_size": 9, "cluster_id": 2, "rank_in_cluster": 9}

$$$$

     RDKit          3D

 56 59  0  0  0  0  0  0  0  0999 V2000
  139.2540   73.3000  220.7950 O   0  0  0  0  0  0  0  0  0  0  0  0
  140.1590   73.7180  221.5680 C   0  0  0  0  0  0  0  0  0  0  0  0
  140.7320   72.8420  222.5430 N   0  0  0  0  0  0  0  0  0  0  0  0
  139.9380   71.9940  223.4240 C   0  0  0  0  0  0  0  0  0  0  0  0
  139.3180   70.8750  222.6320 C   0  0  0  0  0  0  0  0  0  0  0  0
  139.7920   70.6980  221.3260 O   0  0  0  0  0  0  0  0  0  0  0  0
  138.3580   70.1230  223.1310 N   0  0  0  0  0  0  0  0  0  0  0  0
  137.1070   69.8370  222.4280 C   0  0  0  0  0  0  0  0  0  0  0  0
  136.2660   68.9920  223.3820 C   0  0  2  0  0  0  0  0  0  0  0  0
  134.9220   69.3960  223.3810 O   0  0  0  0  0  0  0  0  0  0  0  0
  136.8900   69.2110  224.7560 C   0  0  0  0  0  0  0  0  0  0  0  0
  138.3590   69.5370  224.4740 C   0  0  1  0  0  0  0  0  0  0  0  0
  139.2090   68.2510  224.5150 C   0  0  0  0  0  0  0  0  0  0  0  0
  139.1900   67.6870  225.8080 O   0  0  0  0  0  0  0  0  0  0  0  0
  140.4450   67.8730  226.4290 C   0  0  0  0  0  0  0  0  0  0  0  0
  140.5840   69.3160  226.8250 C   0  0  0  0  0  0  0  0  0  0  0  0
  141.3470   70.2040  226.0480 C   0  0  0  0  0  0  0  0  0  0  0  0
  141.4720   71.5440  226.4300 C   0  0  0  0  0  0  0  0  0  0  0  0
  140.8220   72.0090  227.5760 C   0  0  0  0  0  0  0  0  0  0  0  0
  140.0500   71.1340  228.3460 C   0  0  0  0  0  0  0  0  0  0  0  0
  139.9300   69.7920  227.9730 C   0  0  0  0  0  0  0  0  0  0  0  0
  140.6300   75.1110  221.4770 C   0  0  0  0  0  0  0  0  0  0  0  0
  141.6110   75.4890  220.5450 C   0  0  0  0  0  0  0  0  0  0  0  0
  142.0130   76.8230  220.4660 C   0  0  0  0  0  0  0  0  0  0  0  0
  141.4420   77.7750  221.3200 C   0  0  0  0  0  0  0  0  0  0  0  0
  141.8210   79.1240  221.2650 C   0  0  0  0  0  0  0  0  0  0  0  0
  141.2330   80.0500  222.1360 C   0  0  0  0  0  0  0  0  0  0  0  0
  141.7070   81.7370  222.0690 Cl  0  0  0  0  0  0  0  0  0  0  0  0
  140.2710   79.6310  223.0640 C   0  0  0  0  0  0  0  0  0  0  0  0
  139.8870   78.2880  223.1210 C   0  0  0  0  0  0  0  0  0  0  0  0
  140.4670   77.3560  222.2530 C   0  0  0  0  0  0  0  0  0  0  0  0
  140.0920   76.0510  222.3030 N   0  0  0  0  0  0  0  0  0  0  0  0
  140.5861   71.5722  224.2063 H   0  0  0  0  0  0  0  0  0  0  0  0
  139.1419   72.5958  223.8867 H   0  0  0  0  0  0  0  0  0  0  0  0
  140.2950   71.4000  220.8030 H   0  0  0  0  0  0  0  0  0  0  0  0
  136.5832   70.7734  222.1853 H   0  0  0  0  0  0  0  0  0  0  0  0
  137.2911   69.3088  221.4808 H   0  0  0  0  0  0  0  0  0  0  0  0
  136.2635   67.9327  223.0856 H   0  0  0  0  0  0  0  0  0  0  0  0
  134.5220   69.0330  222.5480 H   0  0  0  0  0  0  0  0  0  0  0  0
  136.4003   70.0485  225.2744 H   0  0  0  0  0  0  0  0  0  0  0  0
  136.7786   68.3309  225.4064 H   0  0  0  0  0  0  0  0  0  0  0  0
  138.7911   70.2206  225.2197 H   0  0  0  0  0  0  0  0  0  0  0  0
  138.8009   67.5243  223.7971 H   0  0  0  0  0  0  0  0  0  0  0  0
  140.2471   68.5022  224.2518 H   0  0  0  0  0  0  0  0  0  0  0  0
  140.5120   67.2366  227.3237 H   0  0  0  0  0  0  0  0  0  0  0  0
  141.2500   67.5992  225.7311 H   0  0  0  0  0  0  0  0  0  0  0  0
  141.8474   69.8445  225.1368 H   0  0  0  0  0  0  0  0  0  0  0  0
  142.0828   72.2323  225.8274 H   0  0  0  0  0  0  0  0  0  0  0  0
  140.9177   73.0639  227.8725 H   0  0  0  0  0  0  0  0  0  0  0  0
  139.5364   71.5019  229.2464 H   0  0  0  0  0  0  0  0  0  0  0  0
  139.3212   69.1065  228.5809 H   0  0  0  0  0  0  0  0  0  0  0  0
  142.0603   74.7365  219.8803 H   0  0  0  0  0  0  0  0  0  0  0  0
  142.7767   77.1262  219.7346 H   0  0  0  0  0  0  0  0  0  0  0  0
  142.5787   79.4543  220.5392 H   0  0  0  0  0  0  0  0  0  0  0  0
  139.8163   80.3609  223.7499 H   0  0  0  0  0  0  0  0  0  0  0  0
  139.1285   77.9636  223.8486 H   0  0  0  0  0  0  0  0  0  0  0  0
  1  2  2  0
  2  3  1  0
  3  4  1  0
  4  5  1  0
  5  6  1  0
  5  7  2  0
  7  8  1  0
  8  9  1  0
  9 10  1  0
  9 11  1  0
 11 12  1  0
 12 13  1  0
 13 14  1  0
 14 15  1  0
 15 16  1  0
 16 17  2  0
 17 18  1  0
 18 19  2  0
 19 20  1  0
 20 21  2  0
  2 22  1  0
 22 23  2  0
 23 24  1  0
 24 25  2  0
 25 26  1  0
 26 27  2  0
 27 28  1  0
 27 29  1  0
 29 30  2  0
 30 31  1  0
 31 32  2  0
 12  7  1  0
 21 16  1  0
 32 22  1  0
 31 25  1  0
  4 33  1  0
  4 34  1  0
  6 35  1  0
  8 36  1  0
  8 37  1  0
  9 38  1  6
 10 39  1  0
 11 40  1  0
 11 41  1  0
 12 42  1  1
 13 43  1  0
 13 44  1  0
 15 45  1  0
 15 46  1  0
 17 47  1  0
 18 48  1  0
 19 49  1  0
 20 50  1  0
 21 51  1  0
 23 52  1  0
 24 53  1  0
 26 54  1  0
 29 55  1  0
 30 56  1  0
M  CHG  2   3  -1   7   1
M  END
>  <meeko>  (7) 
{"free_energy": -7.71, "intermolecular_energy": -10.99, "internal_energy": -3.04, "cluster_size": 2, "cluster_id": 5, "rank_in_cluster": 1}

$$$$

     RDKit          3D

 56 59  0  0  0  0  0  0  0  0999 V2000
  139.4110   72.4380  220.6040 O   0  0  0  0  0  0  0  0  0  0  0  0
  139.8040   72.7980  221.7480 C   0  0  0  0  0  0  0  0  0  0  0  0
  140.2190   74.1490  221.9730 N   0  0  0  0  0  0  0  0  0  0  0  0
  141.4500   74.7100  221.4280 C   0  0  0  0  0  0  0  0  0  0  0  0
  141.7440   74.0910  220.0880 C   0  0  0  0  0  0  0  0  0  0  0  0
  140.7790   74.2760  219.0910 O   0  0  0  0  0  0  0  0  0  0  0  0
  142.8360   73.3850  219.8770 N   0  0  0  0  0  0  0  0  0  0  0  0
  144.1550   73.7660  220.3830 C   0  0  0  0  0  0  0  0  0  0  0  0
  145.1320   72.7160  219.8590 C   0  0  2  0  0  0  0  0  0  0  0  0
  146.3250   73.3010  219.4070 O   0  0  0  0  0  0  0  0  0  0  0  0
  144.3980   72.0350  218.7090 C   0  0  0  0  0  0  0  0  0  0  0  0
  142.9130   72.1780  219.0490 C   0  0  1  0  0  0  0  0  0  0  0  0
  142.4220   70.9410  219.8290 C   0  0  0  0  0  0  0  0  0  0  0  0
  142.1740   69.8680  218.9480 O   0  0  0  0  0  0  0  0  0  0  0  0
  142.1990   68.6490  219.6600 C   0  0  0  0  0  0  0  0  0  0  0  0
  143.5170   67.9690  219.4180 C   0  0  0  0  0  0  0  0  0  0  0  0
  143.5680   66.6400  218.9660 C   0  0  0  0  0  0  0  0  0  0  0  0
  144.8010   66.0170  218.7470 C   0  0  0  0  0  0  0  0  0  0  0  0
  145.9880   66.7220  218.9600 C   0  0  0  0  0  0  0  0  0  0  0  0
  145.9460   68.0490  219.3960 C   0  0  0  0  0  0  0  0  0  0  0  0
  144.7150   68.6720  219.6240 C   0  0  0  0  0  0  0  0  0  0  0  0
  139.8450   71.8310  222.8590 C   0  0  0  0  0  0  0  0  0  0  0  0
  139.3900   70.5120  222.6930 C   0  0  0  0  0  0  0  0  0  0  0  0
  139.4710   69.6140  223.7580 C   0  0  0  0  0  0  0  0  0  0  0  0
  139.9950   70.0340  224.9860 C   0  0  0  0  0  0  0  0  0  0  0  0
  140.0920   69.1560  226.0760 C   0  0  0  0  0  0  0  0  0  0  0  0
  140.6170   69.6090  227.2930 C   0  0  0  0  0  0  0  0  0  0  0  0
  140.7380   68.5130  228.6560 Cl  0  0  0  0  0  0  0  0  0  0  0  0
  141.0430   70.9370  227.4240 C   0  0  0  0  0  0  0  0  0  0  0  0
  140.9520   71.8160  226.3400 C   0  0  0  0  0  0  0  0  0  0  0  0
  140.4300   71.3710  225.1210 C   0  0  0  0  0  0  0  0  0  0  0  0
  140.3440   72.2210  224.0640 N   0  0  0  0  0  0  0  0  0  0  0  0
  141.3347   75.7976  221.3103 H   0  0  0  0  0  0  0  0  0  0  0  0
  142.2814   74.4973  222.1161 H   0  0  0  0  0  0  0  0  0  0  0  0
  139.8050   74.0280  219.1870 H   0  0  0  0  0  0  0  0  0  0  0  0
  144.4322   74.7637  220.0118 H   0  0  0  0  0  0  0  0  0  0  0  0
  144.1653   73.8099  221.4821 H   0  0  0  0  0  0  0  0  0  0  0  0
  145.4240   72.0077  220.6483 H   0  0  0  0  0  0  0  0  0  0  0  0
  146.1400   74.2710  219.3060 H   0  0  0  0  0  0  0  0  0  0  0  0
  144.6262   72.5333  217.7553 H   0  0  0  0  0  0  0  0  0  0  0  0
  144.6964   70.9826  218.5931 H   0  0  0  0  0  0  0  0  0  0  0  0
  142.2795   72.2539  218.1529 H   0  0  0  0  0  0  0  0  0  0  0  0
  143.1918   70.6422  220.5557 H   0  0  0  0  0  0  0  0  0  0  0  0
  141.4876   71.1968  220.3500 H   0  0  0  0  0  0  0  0  0  0  0  0
  142.0780   68.8472  220.7352 H   0  0  0  0  0  0  0  0  0  0  0  0
  141.3781   68.0016  219.3181 H   0  0  0  0  0  0  0  0  0  0  0  0
  142.6347   66.0871  218.7836 H   0  0  0  0  0  0  0  0  0  0  0  0
  144.8360   64.9715  218.4069 H   0  0  0  0  0  0  0  0  0  0  0  0
  146.9570   66.2320  218.7843 H   0  0  0  0  0  0  0  0  0  0  0  0
  146.8816   68.6037  219.5599 H   0  0  0  0  0  0  0  0  0  0  0  0
  144.6850   69.7170  219.9661 H   0  0  0  0  0  0  0  0  0  0  0  0
  138.9720   70.1889  221.7282 H   0  0  0  0  0  0  0  0  0  0  0  0
  139.1236   68.5778  223.6326 H   0  0  0  0  0  0  0  0  0  0  0  0
  139.7562   68.1134  225.9750 H   0  0  0  0  0  0  0  0  0  0  0  0
  141.4506   71.2897  228.3829 H   0  0  0  0  0  0  0  0  0  0  0  0
  141.2909   72.8571  226.4460 H   0  0  0  0  0  0  0  0  0  0  0  0
  1  2  2  0
  2  3  1  0
  3  4  1  0
  4  5  1  0
  5  6  1  0
  5  7  2  0
  7  8  1  0
  8  9  1  0
  9 10  1  0
  9 11  1  0
 11 12  1  0
 12 13  1  0
 13 14  1  0
 14 15  1  0
 15 16  1  0
 16 17  2  0
 17 18  1  0
 18 19  2  0
 19 20  1  0
 20 21  2  0
  2 22  1  0
 22 23  2  0
 23 24  1  0
 24 25  2  0
 25 26  1  0
 26 27  2  0
 27 28  1  0
 27 29  1  0
 29 30  2  0
 30 31  1  0
 31 32  2  0
 12  7  1  0
 21 16  1  0
 32 22  1  0
 31 25  1  0
  4 33  1  0
  4 34  1  0
  6 35  1  0
  8 36  1  0
  8 37  1  0
  9 38  1  1
 10 39  1  0
 11 40  1  0
 11 41  1  0
 12 42  1  6
 13 43  1  0
 13 44  1  0
 15 45  1  0
 15 46  1  0
 17 47  1  0
 18 48  1  0
 19 49  1  0
 20 50  1  0
 21 51  1  0
 23 52  1  0
 24 53  1  0
 26 54  1  0
 29 55  1  0
 30 56  1  0
M  CHG  2   3  -1   7   1
M  END
>  <meeko>  (8) 
{"free_energy": -7.77, "intermolecular_energy": -11.05, "internal_energy": -2.76, "cluster_size": 3, "cluster_id": 4, "rank_in_cluster": 1}

$$$$

     RDKit          3D

 56 59  0  0  0  0  0  0  0  0999 V2000
  140.6460   73.3110  222.6040 O   0  0  0  0  0  0  0  0  0  0  0  0
  140.4630   73.9360  221.5220 C   0  0  0  0  0  0  0  0  0  0  0  0
  139.9090   73.2630  220.3880 N   0  0  0  0  0  0  0  0  0  0  0  0
  139.3570   71.9140  220.4470 C   0  0  0  0  0  0  0  0  0  0  0  0
  138.6150   71.7230  221.7420 C   0  0  0  0  0  0  0  0  0  0  0  0
  137.9910   72.8570  222.2760 O   0  0  0  0  0  0  0  0  0  0  0  0
  138.5830   70.5570  222.3560 N   0  0  0  0  0  0  0  0  0  0  0  0
  139.1090   69.3230  221.7730 C   0  0  0  0  0  0  0  0  0  0  0  0
  138.8120   68.2150  222.7820 C   0  0  2  0  0  0  0  0  0  0  0  0
  138.3550   67.0500  222.1490 O   0  0  0  0  0  0  0  0  0  0  0  0
  137.7330   68.7910  223.6920 C   0  0  0  0  0  0  0  0  0  0  0  0
  137.9520   70.3050  223.6540 C   0  0  1  0  0  0  0  0  0  0  0  0
  138.8760   70.7410  224.8100 C   0  0  0  0  0  0  0  0  0  0  0  0
  140.1530   71.0830  224.3190 O   0  0  0  0  0  0  0  0  0  0  0  0
  141.0410   71.2880  225.3970 C   0  0  0  0  0  0  0  0  0  0  0  0
  140.8570   70.1840  226.3980 C   0  0  0  0  0  0  0  0  0  0  0  0
  141.2470   68.8680  226.0980 C   0  0  0  0  0  0  0  0  0  0  0  0
  141.0670   67.8480  227.0380 C   0  0  0  0  0  0  0  0  0  0  0  0
  140.5150   68.1380  228.2880 C   0  0  0  0  0  0  0  0  0  0  0  0
  140.1380   69.4470  228.6000 C   0  0  0  0  0  0  0  0  0  0  0  0
  140.3080   70.4680  227.6590 C   0  0  0  0  0  0  0  0  0  0  0  0
  140.8250   75.3600  221.4160 C   0  0  0  0  0  0  0  0  0  0  0  0
  141.7200   75.8130  220.4320 C   0  0  0  0  0  0  0  0  0  0  0  0
  142.0180   77.1730  220.3420 C   0  0  0  0  0  0  0  0  0  0  0  0
  141.4310   78.0770  221.2350 C   0  0  0  0  0  0  0  0  0  0  0  0
  141.7060   79.4500  221.1700 C   0  0  0  0  0  0  0  0  0  0  0  0
  141.1050   80.3270  222.0820 C   0  0  0  0  0  0  0  0  0  0  0  0
  141.4500   82.0450  222.0010 Cl  0  0  0  0  0  0  0  0  0  0  0  0
  140.2320   79.8350  223.0600 C   0  0  0  0  0  0  0  0  0  0  0  0
  139.9510   78.4670  223.1280 C   0  0  0  0  0  0  0  0  0  0  0  0
  140.5460   77.5840  222.2200 C   0  0  0  0  0  0  0  0  0  0  0  0
  140.2700   76.2550  222.2800 N   0  0  0  0  0  0  0  0  0  0  0  0
  138.6655   71.7652  219.6046 H   0  0  0  0  0  0  0  0  0  0  0  0
  140.1769   71.1832  220.3871 H   0  0  0  0  0  0  0  0  0  0  0  0
  138.4800   73.6230  222.7170 H   0  0  0  0  0  0  0  0  0  0  0  0
  138.6105   69.1107  220.8157 H   0  0  0  0  0  0  0  0  0  0  0  0
  140.1873   69.4028  221.5709 H   0  0  0  0  0  0  0  0  0  0  0  0
  139.7156   67.9217  223.3364 H   0  0  0  0  0  0  0  0  0  0  0  0
  138.0280   67.3270  221.2530 H   0  0  0  0  0  0  0  0  0  0  0  0
  136.7318   68.5353  223.3149 H   0  0  0  0  0  0  0  0  0  0  0  0
  137.7958   68.3893  224.7141 H   0  0  0  0  0  0  0  0  0  0  0  0
  137.0156   70.8699  223.7722 H   0  0  0  0  0  0  0  0  0  0  0  0
  138.4367   71.6138  225.3152 H   0  0  0  0  0  0  0  0  0  0  0  0
  138.9789   69.9054  225.5179 H   0  0  0  0  0  0  0  0  0  0  0  0
  142.0771   71.2822  225.0277 H   0  0  0  0  0  0  0  0  0  0  0  0
  140.8325   72.2584  225.8712 H   0  0  0  0  0  0  0  0  0  0  0  0
  141.6956   68.6389  225.1201 H   0  0  0  0  0  0  0  0  0  0  0  0
  141.3604   66.8166  226.7927 H   0  0  0  0  0  0  0  0  0  0  0  0
  140.3769   67.3353  229.0274 H   0  0  0  0  0  0  0  0  0  0  0  0
  139.7073   69.6746  229.5862 H   0  0  0  0  0  0  0  0  0  0  0  0
  140.0105   71.4974  227.9077 H   0  0  0  0  0  0  0  0  0  0  0  0
  142.1836   75.0986  219.7358 H   0  0  0  0  0  0  0  0  0  0  0  0
  142.7134   77.5344  219.5702 H   0  0  0  0  0  0  0  0  0  0  0  0
  142.3930   79.8383  220.4037 H   0  0  0  0  0  0  0  0  0  0  0  0
  139.7658   80.5268  223.7770 H   0  0  0  0  0  0  0  0  0  0  0  0
  139.2620   78.0847  223.8955 H   0  0  0  0  0  0  0  0  0  0  0  0
  1  2  2  0
  2  3  1  0
  3  4  1  0
  4  5  1  0
  5  6  1  0
  5  7  2  0
  7  8  1  0
  8  9  1  0
  9 10  1  0
  9 11  1  0
 11 12  1  0
 12 13  1  0
 13 14  1  0
 14 15  1  0
 15 16  1  0
 16 17  2  0
 17 18  1  0
 18 19  2  0
 19 20  1  0
 20 21  2  0
  2 22  1  0
 22 23  2  0
 23 24  1  0
 24 25  2  0
 25 26  1  0
 26 27  2  0
 27 28  1  0
 27 29  1  0
 29 30  2  0
 30 31  1  0
 31 32  2  0
 12  7  1  0
 21 16  1  0
 32 22  1  0
 31 25  1  0
  4 33  1  0
  4 34  1  0
  6 35  1  0
  8 36  1  0
  8 37  1  0
  9 38  1  1
 10 39  1  0
 11 40  1  0
 11 41  1  0
 12 42  1  6
 13 43  1  0
 13 44  1  0
 15 45  1  0
 15 46  1  0
 17 47  1  0
 18 48  1  0
 19 49  1  0
 20 50  1  0
 21 51  1  0
 23 52  1  0
 24 53  1  0
 26 54  1  0
 29 55  1  0
 30 56  1  0
M  CHG  2   3  -1   7   1
M  END
>  <meeko>  (9) 
{"free_energy": -7.3, "intermolecular_energy": -10.58, "internal_energy": -2.56, "cluster_size": 2, "cluster_id": 5, "rank_in_cluster": 2}

$$$$

     RDKit          3D

 56 59  0  0  0  0  0  0  0  0999 V2000
  137.3600   72.7040  222.7110 O   0  0  0  0  0  0  0  0  0  0  0  0
  138.2780   71.8610  222.5140 C   0  0  0  0  0  0  0  0  0  0  0  0
  138.8940   71.7550  221.2270 N   0  0  0  0  0  0  0  0  0  0  0  0
  140.3300   71.8880  221.0110 C   0  0  0  0  0  0  0  0  0  0  0  0
  140.7580   73.3040  221.2880 C   0  0  0  0  0  0  0  0  0  0  0  0
  140.0800   73.9710  222.3140 O   0  0  0  0  0  0  0  0  0  0  0  0
  141.7000   73.8930  220.5780 N   0  0  0  0  0  0  0  0  0  0  0  0
  142.4560   73.2190  219.5230 C   0  0  0  0  0  0  0  0  0  0  0  0
  143.4740   74.2370  219.0130 C   0  0  2  0  0  0  0  0  0  0  0  0
  144.7310   73.6500  218.8050 O   0  0  0  0  0  0  0  0  0  0  0  0
  143.5510   75.2980  220.1060 C   0  0  0  0  0  0  0  0  0  0  0  0
  142.1830   75.2600  220.7890 C   0  0  1  0  0  0  0  0  0  0  0  0
  141.2320   76.2870  220.1390 C   0  0  0  0  0  0  0  0  0  0  0  0
  141.4180   77.5630  220.7120 O   0  0  0  0  0  0  0  0  0  0  0  0
  141.0310   77.5380  222.0690 C   0  0  0  0  0  0  0  0  0  0  0  0
  141.3580   78.8630  222.6950 C   0  0  0  0  0  0  0  0  0  0  0  0
  142.6810   79.3330  222.7360 C   0  0  0  0  0  0  0  0  0  0  0  0
  142.9730   80.5670  223.3250 C   0  0  0  0  0  0  0  0  0  0  0  0
  141.9450   81.3480  223.8590 C   0  0  0  0  0  0  0  0  0  0  0  0
  140.6240   80.8950  223.8100 C   0  0  0  0  0  0  0  0  0  0  0  0
  140.3300   79.6560  223.2300 C   0  0  0  0  0  0  0  0  0  0  0  0
  138.7180   70.9740  223.6050 C   0  0  0  0  0  0  0  0  0  0  0  0
  138.4320   69.5980  223.5850 C   0  0  0  0  0  0  0  0  0  0  0  0
  138.8900   68.7820  224.6200 C   0  0  0  0  0  0  0  0  0  0  0  0
  139.6240   69.3380  225.6750 C   0  0  0  0  0  0  0  0  0  0  0  0
  140.1010   68.5460  226.7290 C   0  0  0  0  0  0  0  0  0  0  0  0
  140.8280   69.1350  227.7710 C   0  0  0  0  0  0  0  0  0  0  0  0
  141.4240   68.1450  229.0910 Cl  0  0  0  0  0  0  0  0  0  0  0  0
  141.0770   70.5130  227.7640 C   0  0  0  0  0  0  0  0  0  0  0  0
  140.6070   71.3080  226.7140 C   0  0  0  0  0  0  0  0  0  0  0  0
  139.8810   70.7270  225.6680 C   0  0  0  0  0  0  0  0  0  0  0  0
  139.4270   71.4960  224.6440 N   0  0  0  0  0  0  0  0  0  0  0  0
  140.8658   71.2056  221.6872 H   0  0  0  0  0  0  0  0  0  0  0  0
  140.5652   71.6351  219.9666 H   0  0  0  0  0  0  0  0  0  0  0  0
  139.2050   73.6630  222.7140 H   0  0  0  0  0  0  0  0  0  0  0  0
  142.9704   72.3349  219.9276 H   0  0  0  0  0  0  0  0  0  0  0  0
  141.7953   72.8726  218.7146 H   0  0  0  0  0  0  0  0  0  0  0  0
  143.1725   74.6561  218.0417 H   0  0  0  0  0  0  0  0  0  0  0  0
  145.3220   74.3680  218.4560 H   0  0  0  0  0  0  0  0  0  0  0  0
  144.3487   75.0568  220.8239 H   0  0  0  0  0  0  0  0  0  0  0  0
  143.7837   76.2937  219.7006 H   0  0  0  0  0  0  0  0  0  0  0  0
  142.2374   75.5163  221.8573 H   0  0  0  0  0  0  0  0  0  0  0  0
  141.4396   76.3407  219.0601 H   0  0  0  0  0  0  0  0  0  0  0  0
  140.1931   75.9681  220.3093 H   0  0  0  0  0  0  0  0  0  0  0  0
  139.9490   77.3533  222.1406 H   0  0  0  0  0  0  0  0  0  0  0  0
  141.5697   76.7357  222.5944 H   0  0  0  0  0  0  0  0  0  0  0  0
  143.4909   78.7276  222.3028 H   0  0  0  0  0  0  0  0  0  0  0  0
  144.0129   80.9232  223.3680 H   0  0  0  0  0  0  0  0  0  0  0  0
  142.1757   82.3205  224.3184 H   0  0  0  0  0  0  0  0  0  0  0  0
  139.8151   81.5125  224.2275 H   0  0  0  0  0  0  0  0  0  0  0  0
  139.2893   79.3017  223.1930 H   0  0  0  0  0  0  0  0  0  0  0  0
  137.8499   69.1665  222.7574 H   0  0  0  0  0  0  0  0  0  0  0  0
  138.6748   67.7033  224.6072 H   0  0  0  0  0  0  0  0  0  0  0  0
  139.9045   67.4637  226.7375 H   0  0  0  0  0  0  0  0  0  0  0  0
  141.6443   70.9717  228.5873 H   0  0  0  0  0  0  0  0  0  0  0  0
  140.8078   72.3895  226.7102 H   0  0  0  0  0  0  0  0  0  0  0  0
  1  2  2  0
  2  3  1  0
  3  4  1  0
  4  5  1  0
  5  6  1  0
  5  7  2  0
  7  8  1  0
  8  9  1  0
  9 10  1  0
  9 11  1  0
 11 12  1  0
 12 13  1  0
 13 14  1  0
 14 15  1  0
 15 16  1  0
 16 17  2  0
 17 18  1  0
 18 19  2  0
 19 20  1  0
 20 21  2  0
  2 22  1  0
 22 23  2  0
 23 24  1  0
 24 25  2  0
 25 26  1  0
 26 27  2  0
 27 28  1  0
 27 29  1  0
 29 30  2  0
 30 31  1  0
 31 32  2  0
 12  7  1  0
 21 16  1  0
 32 22  1  0
 31 25  1  0
  4 33  1  0
  4 34  1  0
  6 35  1  0
  8 36  1  0
  8 37  1  0
  9 38  1  6
 10 39  1  0
 11 40  1  0
 11 41  1  0
 12 42  1  1
 13 43  1  0
 13 44  1  0
 15 45  1  0
 15 46  1  0
 17 47  1  0
 18 48  1  0
 19 49  1  0
 20 50  1  0
 21 51  1  0
 23 52  1  0
 24 53  1  0
 26 54  1  0
 29 55  1  0
 30 56  1  0
M  CHG  2   3  -1   7   1
M  END
>  <meeko>  (10) 
{"free_energy": -8.6, "intermolecular_energy": -11.88, "internal_energy": -2.45, "cluster_size": 9, "cluster_id": 2, "rank_in_cluster": 1}

$$$$

     RDKit          3D

 56 59  0  0  0  0  0  0  0  0999 V2000
  139.4230   72.5390  220.7750 O   0  0  0  0  0  0  0  0  0  0  0  0
  139.7590   72.8860  221.9410 C   0  0  0  0  0  0  0  0  0  0  0  0
  140.0940   74.2500  222.2160 N   0  0  0  0  0  0  0  0  0  0  0  0
  141.1490   74.9730  221.5160 C   0  0  0  0  0  0  0  0  0  0  0  0
  140.6900   75.3260  220.1270 C   0  0  0  0  0  0  0  0  0  0  0  0
  139.3350   75.1140  219.8460 O   0  0  0  0  0  0  0  0  0  0  0  0
  141.5260   75.7800  219.2160 N   0  0  0  0  0  0  0  0  0  0  0  0
  142.0910   74.9500  218.1520 C   0  0  0  0  0  0  0  0  0  0  0  0
  143.0470   75.8510  217.3710 C   0  0  2  0  0  0  0  0  0  0  0  0
  144.2390   75.1840  217.0520 O   0  0  0  0  0  0  0  0  0  0  0  0
  143.3220   77.0290  218.2980 C   0  0  0  0  0  0  0  0  0  0  0  0
  142.0750   77.1390  219.1790 C   0  0  1  0  0  0  0  0  0  0  0  0
  141.0650   78.1250  218.5550 C   0  0  0  0  0  0  0  0  0  0  0  0
  140.4500   78.9020  219.5580 O   0  0  0  0  0  0  0  0  0  0  0  0
  141.3310   79.9230  219.9790 C   0  0  0  0  0  0  0  0  0  0  0  0
  141.6100   79.7540  221.4450 C   0  0  0  0  0  0  0  0  0  0  0  0
  142.2430   80.7710  222.1790 C   0  0  0  0  0  0  0  0  0  0  0  0
  142.5000   80.5990  223.5430 C   0  0  0  0  0  0  0  0  0  0  0  0
  142.1110   79.4210  224.1860 C   0  0  0  0  0  0  0  0  0  0  0  0
  141.4690   78.4110  223.4660 C   0  0  0  0  0  0  0  0  0  0  0  0
  141.2180   78.5750  222.1000 C   0  0  0  0  0  0  0  0  0  0  0  0
  139.8140   71.8910  223.0260 C   0  0  0  0  0  0  0  0  0  0  0  0
  139.3560   70.5770  222.8330 C   0  0  0  0  0  0  0  0  0  0  0  0
  139.4500   69.6520  223.8730 C   0  0  0  0  0  0  0  0  0  0  0  0
  139.9920   70.0400  225.1050 C   0  0  0  0  0  0  0  0  0  0  0  0
  140.1030   69.1350  226.1700 C   0  0  0  0  0  0  0  0  0  0  0  0
  140.6450   69.5570  227.3910 C   0  0  0  0  0  0  0  0  0  0  0  0
  140.7840   68.4260  228.7240 Cl  0  0  0  0  0  0  0  0  0  0  0  0
  141.0730   70.8800  227.5500 C   0  0  0  0  0  0  0  0  0  0  0  0
  140.9680   71.7870  226.4910 C   0  0  0  0  0  0  0  0  0  0  0  0
  140.4290   71.3730  225.2670 C   0  0  0  0  0  0  0  0  0  0  0  0
  140.3300   72.2500  224.2340 N   0  0  0  0  0  0  0  0  0  0  0  0
  141.3876   75.8947  222.0670 H   0  0  0  0  0  0  0  0  0  0  0  0
  142.0443   74.3371  221.4520 H   0  0  0  0  0  0  0  0  0  0  0  0
  138.7170   74.5490  220.4110 H   0  0  0  0  0  0  0  0  0  0  0  0
  142.6366   74.0973  218.5825 H   0  0  0  0  0  0  0  0  0  0  0  0
  141.3038   74.5413  217.5015 H   0  0  0  0  0  0  0  0  0  0  0  0
  142.6114   76.1654  216.4111 H   0  0  0  0  0  0  0  0  0  0  0  0
  144.9730   75.7100  217.4640 H   0  0  0  0  0  0  0  0  0  0  0  0
  144.2140   76.8374  218.9126 H   0  0  0  0  0  0  0  0  0  0  0  0
  143.5173   77.9569  217.7404 H   0  0  0  0  0  0  0  0  0  0  0  0
  142.3011   77.5187  220.1863 H   0  0  0  0  0  0  0  0  0  0  0  0
  141.5928   78.7894  217.8550 H   0  0  0  0  0  0  0  0  0  0  0  0
  140.2907   77.5525  218.0233 H   0  0  0  0  0  0  0  0  0  0  0  0
  142.2723   79.8541  219.4141 H   0  0  0  0  0  0  0  0  0  0  0  0
  140.8731   80.9068  219.7987 H   0  0  0  0  0  0  0  0  0  0  0  0
  142.5375   81.7057  221.6793 H   0  0  0  0  0  0  0  0  0  0  0  0
  143.0090   81.3921  224.1103 H   0  0  0  0  0  0  0  0  0  0  0  0
  142.3105   79.2891  225.2597 H   0  0  0  0  0  0  0  0  0  0  0  0
  141.1604   77.4854  223.9740 H   0  0  0  0  0  0  0  0  0  0  0  0
  140.7116   77.7775  221.5364 H   0  0  0  0  0  0  0  0  0  0  0  0
  138.9251   70.2788  221.8659 H   0  0  0  0  0  0  0  0  0  0  0  0
  139.0991   68.6199  223.7259 H   0  0  0  0  0  0  0  0  0  0  0  0
  139.7651   68.0954  226.0471 H   0  0  0  0  0  0  0  0  0  0  0  0
  141.4937   71.2077  228.5121 H   0  0  0  0  0  0  0  0  0  0  0  0
  141.3086   72.8250  226.6195 H   0  0  0  0  0  0  0  0  0  0  0  0
  1  2  2  0
  2  3  1  0
  3  4  1  0
  4  5  1  0
  5  6  1  0
  5  7  2  0
  7  8  1  0
  8  9  1  0
  9 10  1  0
  9 11  1  0
 11 12  1  0
 12 13  1  0
 13 14  1  0
 14 15  1  0
 15 16  1  0
 16 17  2  0
 17 18  1  0
 18 19  2  0
 19 20  1  0
 20 21  2  0
  2 22  1  0
 22 23  2  0
 23 24  1  0
 24 25  2  0
 25 26  1  0
 26 27  2  0
 27 28  1  0
 27 29  1  0
 29 30  2  0
 30 31  1  0
 31 32  2  0
 12  7  1  0
 21 16  1  0
 32 22  1  0
 31 25  1  0
  4 33  1  0
  4 34  1  0
  6 35  1  0
  8 36  1  0
  8 37  1  0
  9 38  1  6
 10 39  1  0
 11 40  1  0
 11 41  1  0
 12 42  1  1
 13 43  1  0
 13 44  1  0
 15 45  1  0
 15 46  1  0
 17 47  1  0
 18 48  1  0
 19 49  1  0
 20 50  1  0
 21 51  1  0
 23 52  1  0
 24 53  1  0
 26 54  1  0
 29 55  1  0
 30 56  1  0
M  CHG  2   3  -1   7   1
M  END
>  <meeko>  (11) 
{"free_energy": -7.87, "intermolecular_energy": -11.16, "internal_energy": -2.95, "cluster_size": 9, "cluster_id": 2, "rank_in_cluster": 6}

$$$$

     RDKit          3D

 56 59  0  0  0  0  0  0  0  0999 V2000
  137.1480   71.0330  220.4440 O   0  0  0  0  0  0  0  0  0  0  0  0
  137.8590   71.6350  221.2950 C   0  0  0  0  0  0  0  0  0  0  0  0
  138.3050   72.9720  221.0420 N   0  0  0  0  0  0  0  0  0  0  0  0
  139.4180   73.2910  220.1570 C   0  0  0  0  0  0  0  0  0  0  0  0
  140.5640   73.8460  220.9590 C   0  0  0  0  0  0  0  0  0  0  0  0
  140.3660   73.9470  222.3410 O   0  0  0  0  0  0  0  0  0  0  0  0
  141.6820   74.2430  220.3860 N   0  0  0  0  0  0  0  0  0  0  0  0
  142.6140   73.3350  219.7170 C   0  0  0  0  0  0  0  0  0  0  0  0
  143.7890   74.1950  219.2560 C   0  0  2  0  0  0  0  0  0  0  0  0
  145.0180   73.5580  219.4900 O   0  0  0  0  0  0  0  0  0  0  0  0
  143.6840   75.4760  220.0750 C   0  0  0  0  0  0  0  0  0  0  0  0
  142.1960   75.6160  220.4010 C   0  0  1  0  0  0  0  0  0  0  0  0
  141.4930   76.4790  219.3320 C   0  0  0  0  0  0  0  0  0  0  0  0
  140.7300   77.4960  219.9430 O   0  0  0  0  0  0  0  0  0  0  0  0
  141.4600   78.7050  219.9470 C   0  0  0  0  0  0  0  0  0  0  0  0
  141.7060   79.1230  221.3690 C   0  0  0  0  0  0  0  0  0  0  0  0
  141.4350   78.2470  222.4330 C   0  0  0  0  0  0  0  0  0  0  0  0
  141.6650   78.6490  223.7530 C   0  0  0  0  0  0  0  0  0  0  0  0
  142.1830   79.9200  224.0160 C   0  0  0  0  0  0  0  0  0  0  0  0
  142.4690   80.7920  222.9620 C   0  0  0  0  0  0  0  0  0  0  0  0
  142.2320   80.3960  221.6420 C   0  0  0  0  0  0  0  0  0  0  0  0
  138.2410   70.9680  222.5510 C   0  0  0  0  0  0  0  0  0  0  0  0
  137.6040   69.7890  222.9720 C   0  0  0  0  0  0  0  0  0  0  0  0
  138.0110   69.1660  224.1530 C   0  0  0  0  0  0  0  0  0  0  0  0
  139.0450   69.7230  224.9150 C   0  0  0  0  0  0  0  0  0  0  0  0
  139.4800   69.1220  226.1040 C   0  0  0  0  0  0  0  0  0  0  0  0
  140.5150   69.7080  226.8450 C   0  0  0  0  0  0  0  0  0  0  0  0
  141.0590   68.9570  228.3340 Cl  0  0  0  0  0  0  0  0  0  0  0  0
  141.1140   70.8940  226.4020 C   0  0  0  0  0  0  0  0  0  0  0  0
  140.6870   71.4960  225.2140 C   0  0  0  0  0  0  0  0  0  0  0  0
  139.6540   70.9170  224.4670 C   0  0  0  0  0  0  0  0  0  0  0  0
  139.2410   71.4970  223.3100 N   0  0  0  0  0  0  0  0  0  0  0  0
  139.7444   72.3782  219.6371 H   0  0  0  0  0  0  0  0  0  0  0  0
  139.0932   74.0409  219.4207 H   0  0  0  0  0  0  0  0  0  0  0  0
  139.5470   73.6100  222.8260 H   0  0  0  0  0  0  0  0  0  0  0  0
  142.9600   72.5600  220.4167 H   0  0  0  0  0  0  0  0  0  0  0  0
  142.1356   72.8221  218.8696 H   0  0  0  0  0  0  0  0  0  0  0  0
  143.7490   74.3848  218.1732 H   0  0  0  0  0  0  0  0  0  0  0  0
  145.7200   74.1690  219.1460 H   0  0  0  0  0  0  0  0  0  0  0  0
  144.2762   75.3942  220.9984 H   0  0  0  0  0  0  0  0  0  0  0  0
  144.0715   76.3487  219.5289 H   0  0  0  0  0  0  0  0  0  0  0  0
  142.0202   76.1107  221.3676 H   0  0  0  0  0  0  0  0  0  0  0  0
  142.2515   76.9372  218.6803 H   0  0  0  0  0  0  0  0  0  0  0  0
  140.8230   75.8376  218.7406 H   0  0  0  0  0  0  0  0  0  0  0  0
  142.4220   78.5567  219.4345 H   0  0  0  0  0  0  0  0  0  0  0  0
  140.8888   79.4858  219.4236 H   0  0  0  0  0  0  0  0  0  0  0  0
  141.0404   77.2410  222.2275 H   0  0  0  0  0  0  0  0  0  0  0  0
  141.4381   77.9647  224.5839 H   0  0  0  0  0  0  0  0  0  0  0  0
  142.3659   80.2345  225.0541 H   0  0  0  0  0  0  0  0  0  0  0  0
  142.8808   81.7904  223.1709 H   0  0  0  0  0  0  0  0  0  0  0  0
  142.4585   81.0843  220.8144 H   0  0  0  0  0  0  0  0  0  0  0  0
  136.7877   69.3584  222.3734 H   0  0  0  0  0  0  0  0  0  0  0  0
  137.5202   68.2390  224.4844 H   0  0  0  0  0  0  0  0  0  0  0  0
  139.0097   68.1917  226.4551 H   0  0  0  0  0  0  0  0  0  0  0  0
  141.9224   71.3532  226.9899 H   0  0  0  0  0  0  0  0  0  0  0  0
  141.1629   72.4248  224.8664 H   0  0  0  0  0  0  0  0  0  0  0  0
  1  2  2  0
  2  3  1  0
  3  4  1  0
  4  5  1  0
  5  6  1  0
  5  7  2  0
  7  8  1  0
  8  9  1  0
  9 10  1  0
  9 11  1  0
 11 12  1  0
 12 13  1  0
 13 14  1  0
 14 15  1  0
 15 16  1  0
 16 17  2  0
 17 18  1  0
 18 19  2  0
 19 20  1  0
 20 21  2  0
  2 22  1  0
 22 23  2  0
 23 24  1  0
 24 25  2  0
 25 26  1  0
 26 27  2  0
 27 28  1  0
 27 29  1  0
 29 30  2  0
 30 31  1  0
 31 32  2  0
 12  7  1  0
 21 16  1  0
 32 22  1  0
 31 25  1  0
  4 33  1  0
  4 34  1  0
  6 35  1  0
  8 36  1  0
  8 37  1  0
  9 38  1  6
 10 39  1  0
 11 40  1  0
 11 41  1  0
 12 42  1  1
 13 43  1  0
 13 44  1  0
 15 45  1  0
 15 46  1  0
 17 47  1  0
 18 48  1  0
 19 49  1  0
 20 50  1  0
 21 51  1  0
 23 52  1  0
 24 53  1  0
 26 54  1  0
 29 55  1  0
 30 56  1  0
M  CHG  2   3  -1   7   1
M  END
>  <meeko>  (12) 
{"free_energy": -7.69, "intermolecular_energy": -10.97, "internal_energy": -2.87, "cluster_size": 9, "cluster_id": 2, "rank_in_cluster": 8}

$$$$

     RDKit          3D

 56 59  0  0  0  0  0  0  0  0999 V2000
  137.6880   72.7320  222.4560 O   0  0  0  0  0  0  0  0  0  0  0  0
  138.6950   71.9780  222.3630 C   0  0  0  0  0  0  0  0  0  0  0  0
  139.4980   71.9940  221.1790 N   0  0  0  0  0  0  0  0  0  0  0  0
  139.5430   73.1220  220.2560 C   0  0  0  0  0  0  0  0  0  0  0  0
  140.3290   74.2510  220.8690 C   0  0  0  0  0  0  0  0  0  0  0  0
  140.0840   74.5190  222.2210 O   0  0  0  0  0  0  0  0  0  0  0  0
  141.1770   74.9680  220.1600 N   0  0  0  0  0  0  0  0  0  0  0  0
  141.6850   74.5570  218.8510 C   0  0  0  0  0  0  0  0  0  0  0  0
  142.6770   75.6370  218.4210 C   0  0  2  0  0  0  0  0  0  0  0  0
  143.8290   75.0800  217.8470 O   0  0  0  0  0  0  0  0  0  0  0  0
  143.0240   76.3840  219.7040 C   0  0  0  0  0  0  0  0  0  0  0  0
  141.7960   76.2210  220.6010 C   0  0  1  0  0  0  0  0  0  0  0  0
  140.8310   77.4100  220.4070 C   0  0  0  0  0  0  0  0  0  0  0  0
  139.9470   77.5120  221.5020 O   0  0  0  0  0  0  0  0  0  0  0  0
  140.6780   77.4850  222.7100 C   0  0  0  0  0  0  0  0  0  0  0  0
  141.1740   78.8700  223.0130 C   0  0  0  0  0  0  0  0  0  0  0  0
  142.5510   79.1450  223.0710 C   0  0  0  0  0  0  0  0  0  0  0  0
  142.9990   80.4380  223.3570 C   0  0  0  0  0  0  0  0  0  0  0  0
  142.0790   81.4670  223.5690 C   0  0  0  0  0  0  0  0  0  0  0  0
  140.7080   81.2050  223.4990 C   0  0  0  0  0  0  0  0  0  0  0  0
  140.2550   79.9110  223.2220 C   0  0  0  0  0  0  0  0  0  0  0  0
  139.0500   71.0710  223.4690 C   0  0  0  0  0  0  0  0  0  0  0  0
  138.7650   69.6970  223.4030 C   0  0  0  0  0  0  0  0  0  0  0  0
  139.1410   68.8620  224.4560 C   0  0  0  0  0  0  0  0  0  0  0  0
  139.7920   69.3980  225.5730 C   0  0  0  0  0  0  0  0  0  0  0  0
  140.1860   68.5870  226.6470 C   0  0  0  0  0  0  0  0  0  0  0  0
  140.8310   69.1560  227.7530 C   0  0  0  0  0  0  0  0  0  0  0  0
  141.3230   68.1420  229.0960 Cl  0  0  0  0  0  0  0  0  0  0  0  0
  141.0810   70.5330  227.7890 C   0  0  0  0  0  0  0  0  0  0  0  0
  140.6940   71.3470  226.7200 C   0  0  0  0  0  0  0  0  0  0  0  0
  140.0500   70.7870  225.6110 C   0  0  0  0  0  0  0  0  0  0  0  0
  139.6780   71.5740  224.5680 N   0  0  0  0  0  0  0  0  0  0  0  0
  140.0253   72.8079  219.3186 H   0  0  0  0  0  0  0  0  0  0  0  0
  138.5180   73.4632  220.0489 H   0  0  0  0  0  0  0  0  0  0  0  0
  139.3420   74.0970  222.7600 H   0  0  0  0  0  0  0  0  0  0  0  0
  142.1906   73.5830  218.9267 H   0  0  0  0  0  0  0  0  0  0  0  0
  140.8697   74.4476  218.1207 H   0  0  0  0  0  0  0  0  0  0  0  0
  142.2469   76.2973  217.6535 H   0  0  0  0  0  0  0  0  0  0  0  0
  144.5400   75.7680  217.9220 H   0  0  0  0  0  0  0  0  0  0  0  0
  143.9120   75.9428  220.1802 H   0  0  0  0  0  0  0  0  0  0  0  0
  143.2606   77.4416  219.5154 H   0  0  0  0  0  0  0  0  0  0  0  0
  142.0542   76.1979  221.6700 H   0  0  0  0  0  0  0  0  0  0  0  0
  141.4136   78.3394  220.3241 H   0  0  0  0  0  0  0  0  0  0  0  0
  140.2451   77.2471  219.4904 H   0  0  0  0  0  0  0  0  0  0  0  0
  140.0275   77.1394  223.5270 H   0  0  0  0  0  0  0  0  0  0  0  0
  141.5314   76.7979  222.6125 H   0  0  0  0  0  0  0  0  0  0  0  0
  143.2788   78.3401  222.8907 H   0  0  0  0  0  0  0  0  0  0  0  0
  144.0777   80.6452  223.4151 H   0  0  0  0  0  0  0  0  0  0  0  0
  142.4336   82.4843  223.7912 H   0  0  0  0  0  0  0  0  0  0  0  0
  139.9844   82.0173  223.6619 H   0  0  0  0  0  0  0  0  0  0  0  0
  139.1752   79.7081  223.1677 H   0  0  0  0  0  0  0  0  0  0  0  0
  138.2480   69.2813  222.5256 H   0  0  0  0  0  0  0  0  0  0  0  0
  138.9261   67.7843  224.4082 H   0  0  0  0  0  0  0  0  0  0  0  0
  139.9889   67.5051  226.6212 H   0  0  0  0  0  0  0  0  0  0  0  0
  141.5836   70.9761  228.6613 H   0  0  0  0  0  0  0  0  0  0  0  0
  140.8958   72.4279  226.7508 H   0  0  0  0  0  0  0  0  0  0  0  0
  1  2  2  0
  2  3  1  0
  3  4  1  0
  4  5  1  0
  5  6  1  0
  5  7  2  0
  7  8  1  0
  8  9  1  0
  9 10  1  0
  9 11  1  0
 11 12  1  0
 12 13  1  0
 13 14  1  0
 14 15  1  0
 15 16  1  0
 16 17  2  0
 17 18  1  0
 18 19  2  0
 19 20  1  0
 20 21  2  0
  2 22  1  0
 22 23  2  0
 23 24  1  0
 24 25  2  0
 25 26  1  0
 26 27  2  0
 27 28  1  0
 27 29  1  0
 29 30  2  0
 30 31  1  0
 31 32  2  0
 12  7  1  0
 21 16  1  0
 32 22  1  0
 31 25  1  0
  4 33  1  0
  4 34  1  0
  6 35  1  0
  8 36  1  0
  8 37  1  0
  9 38  1  6
 10 39  1  0
 11 40  1  0
 11 41  1  0
 12 42  1  1
 13 43  1  0
 13 44  1  0
 15 45  1  0
 15 46  1  0
 17 47  1  0
 18 48  1  0
 19 49  1  0
 20 50  1  0
 21 51  1  0
 23 52  1  0
 24 53  1  0
 26 54  1  0
 29 55  1  0
 30 56  1  0
M  CHG  2   3  -1   7   1
M  END
>  <meeko>  (13) 
{"free_energy": -8.48, "intermolecular_energy": -11.76, "internal_energy": -2.4, "cluster_size": 9, "cluster_id": 2, "rank_in_cluster": 2}

$$$$

     RDKit          3D

 56 59  0  0  0  0  0  0  0  0999 V2000
  140.4270   73.7700  222.0450 O   0  0  0  0  0  0  0  0  0  0  0  0
  140.7660   74.8890  221.5710 C   0  0  0  0  0  0  0  0  0  0  0  0
  141.9840   75.0180  220.8320 N   0  0  0  0  0  0  0  0  0  0  0  0
  142.0530   75.5900  219.4930 C   0  0  0  0  0  0  0  0  0  0  0  0
  142.0700   77.0920  219.5800 C   0  0  0  0  0  0  0  0  0  0  0  0
  142.1830   77.6410  220.8620 O   0  0  0  0  0  0  0  0  0  0  0  0
  141.9520   77.8490  218.5070 N   0  0  0  0  0  0  0  0  0  0  0  0
  142.0180   77.3290  217.1410 C   0  0  0  0  0  0  0  0  0  0  0  0
  141.9000   78.5410  216.2190 C   0  0  2  0  0  0  0  0  0  0  0  0
  142.8000   78.4630  215.1460 O   0  0  0  0  0  0  0  0  0  0  0  0
  142.2210   79.7410  217.1030 C   0  0  0  0  0  0  0  0  0  0  0  0
  141.8230   79.3090  218.5160 C   0  0  1  0  0  0  0  0  0  0  0  0
  140.3700   79.7320  218.8150 C   0  0  0  0  0  0  0  0  0  0  0  0
  140.2200   80.0500  220.1810 O   0  0  0  0  0  0  0  0  0  0  0  0
  140.8860   81.2630  220.4650 C   0  0  0  0  0  0  0  0  0  0  0  0
  141.6620   81.1060  221.7420 C   0  0  0  0  0  0  0  0  0  0  0  0
  142.5920   80.0640  221.8950 C   0  0  0  0  0  0  0  0  0  0  0  0
  143.3050   79.9270  223.0910 C   0  0  0  0  0  0  0  0  0  0  0  0
  143.1090   80.8380  224.1310 C   0  0  0  0  0  0  0  0  0  0  0  0
  142.1950   81.8860  223.9810 C   0  0  0  0  0  0  0  0  0  0  0  0
  141.4740   82.0200  222.7910 C   0  0  0  0  0  0  0  0  0  0  0  0
  139.9140   76.0730  221.7800 C   0  0  0  0  0  0  0  0  0  0  0  0
  138.7020   76.2290  221.0880 C   0  0  0  0  0  0  0  0  0  0  0  0
  137.9050   77.3480  221.3310 C   0  0  0  0  0  0  0  0  0  0  0  0
  138.3210   78.3130  222.2570 C   0  0  0  0  0  0  0  0  0  0  0  0
  137.5440   79.4480  222.5270 C   0  0  0  0  0  0  0  0  0  0  0  0
  137.9920   80.3970  223.4550 C   0  0  0  0  0  0  0  0  0  0  0  0
  137.0210   81.8170  223.7930 Cl  0  0  0  0  0  0  0  0  0  0  0  0
  139.2160   80.2150  224.1120 C   0  0  0  0  0  0  0  0  0  0  0  0
  139.9940   79.0830  223.8490 C   0  0  0  0  0  0  0  0  0  0  0  0
  139.5530   78.1300  222.9240 C   0  0  0  0  0  0  0  0  0  0  0  0
  140.3050   77.0260  222.6710 N   0  0  0  0  0  0  0  0  0  0  0  0
  142.9700   75.2428  218.9945 H   0  0  0  0  0  0  0  0  0  0  0  0
  141.1730   75.2698  218.9158 H   0  0  0  0  0  0  0  0  0  0  0  0
  142.1930   77.1000  221.7150 H   0  0  0  0  0  0  0  0  0  0  0  0
  142.9760   76.8147  216.9744 H   0  0  0  0  0  0  0  0  0  0  0  0
  141.2169   76.5998  216.9499 H   0  0  0  0  0  0  0  0  0  0  0  0
  140.8988   78.6078  215.7682 H   0  0  0  0  0  0  0  0  0  0  0  0
  143.3710   79.2730  215.1990 H   0  0  0  0  0  0  0  0  0  0  0  0
  143.2943   79.9777  217.0589 H   0  0  0  0  0  0  0  0  0  0  0  0
  141.6856   80.6464  216.7813 H   0  0  0  0  0  0  0  0  0  0  0  0
  142.4495   79.7727  219.2922 H   0  0  0  0  0  0  0  0  0  0  0  0
  140.1174   80.6139  218.2080 H   0  0  0  0  0  0  0  0  0  0  0  0
  139.6980   78.8969  218.5679 H   0  0  0  0  0  0  0  0  0  0  0  0
  141.5743   81.5074  219.6425 H   0  0  0  0  0  0  0  0  0  0  0  0
  140.1513   82.0745  220.5732 H   0  0  0  0  0  0  0  0  0  0  0  0
  142.7600   79.3538  221.0720 H   0  0  0  0  0  0  0  0  0  0  0  0
  144.0208   79.1006  223.2122 H   0  0  0  0  0  0  0  0  0  0  0  0
  143.6738   80.7313  225.0689 H   0  0  0  0  0  0  0  0  0  0  0  0
  142.0435   82.6049  224.7997 H   0  0  0  0  0  0  0  0  0  0  0  0
  140.7560   82.8454  222.6759 H   0  0  0  0  0  0  0  0  0  0  0  0
  138.3822   75.4717  220.3571 H   0  0  0  0  0  0  0  0  0  0  0  0
  136.9517   77.4722  220.7964 H   0  0  0  0  0  0  0  0  0  0  0  0
  136.5836   79.5933  222.0108 H   0  0  0  0  0  0  0  0  0  0  0  0
  139.5661   80.9647  224.8368 H   0  0  0  0  0  0  0  0  0  0  0  0
  140.9528   78.9417  224.3693 H   0  0  0  0  0  0  0  0  0  0  0  0
  1  2  2  0
  2  3  1  0
  3  4  1  0
  4  5  1  0
  5  6  1  0
  5  7  2  0
  7  8  1  0
  8  9  1  0
  9 10  1  0
  9 11  1  0
 11 12  1  0
 12 13  1  0
 13 14  1  0
 14 15  1  0
 15 16  1  0
 16 17  2  0
 17 18  1  0
 18 19  2  0
 19 20  1  0
 20 21  2  0
  2 22  1  0
 22 23  2  0
 23 24  1  0
 24 25  2  0
 25 26  1  0
 26 27  2  0
 27 28  1  0
 27 29  1  0
 29 30  2  0
 30 31  1  0
 31 32  2  0
 12  7  1  0
 21 16  1  0
 32 22  1  0
 31 25  1  0
  4 33  1  0
  4 34  1  0
  6 35  1  0
  8 36  1  0
  8 37  1  0
  9 38  1  6
 10 39  1  0
 11 40  1  0
 11 41  1  0
 12 42  1  1
 13 43  1  0
 13 44  1  0
 15 45  1  0
 15 46  1  0
 17 47  1  0
 18 48  1  0
 19 49  1  0
 20 50  1  0
 21 51  1  0
 23 52  1  0
 24 53  1  0
 26 54  1  0
 29 55  1  0
 30 56  1  0
M  CHG  2   3  -1   7   1
M  END
>  <meeko>  (14) 
{"free_energy": -6.04, "intermolecular_energy": -9.32, "internal_energy": -4.54, "cluster_size": 3, "cluster_id": 6, "rank_in_cluster": 3}

$$$$

     RDKit          3D

 56 59  0  0  0  0  0  0  0  0999 V2000
  139.2140   72.4850  220.6940 O   0  0  0  0  0  0  0  0  0  0  0  0
  139.7630   72.7970  221.7870 C   0  0  0  0  0  0  0  0  0  0  0  0
  140.3490   74.0920  221.9530 N   0  0  0  0  0  0  0  0  0  0  0  0
  141.6380   74.4670  221.3830 C   0  0  0  0  0  0  0  0  0  0  0  0
  141.7200   74.0000  219.9550 C   0  0  0  0  0  0  0  0  0  0  0  0
  140.6040   74.2580  219.1500 O   0  0  0  0  0  0  0  0  0  0  0  0
  142.7730   73.3540  219.4970 N   0  0  0  0  0  0  0  0  0  0  0  0
  144.0740   73.3530  220.1670 C   0  0  0  0  0  0  0  0  0  0  0  0
  145.0120   72.5440  219.2740 C   0  0  2  0  0  0  0  0  0  0  0  0
  146.2730   73.1500  219.1660 O   0  0  0  0  0  0  0  0  0  0  0  0
  144.3200   72.4980  217.9160 C   0  0  0  0  0  0  0  0  0  0  0  0
  142.8280   72.6210  218.2300 C   0  0  1  0  0  0  0  0  0  0  0  0
  142.1950   71.2210  218.3750 C   0  0  0  0  0  0  0  0  0  0  0  0
  142.7740   70.5280  219.4590 O   0  0  0  0  0  0  0  0  0  0  0  0
  142.5100   69.1460  219.3380 C   0  0  0  0  0  0  0  0  0  0  0  0
  143.8140   68.4050  219.2530 C   0  0  0  0  0  0  0  0  0  0  0  0
  145.0380   69.0920  219.3320 C   0  0  0  0  0  0  0  0  0  0  0  0
  146.2450   68.3910  219.2480 C   0  0  0  0  0  0  0  0  0  0  0  0
  146.2390   67.0010  219.1050 C   0  0  0  0  0  0  0  0  0  0  0  0
  145.0260   66.3100  219.0390 C   0  0  0  0  0  0  0  0  0  0  0  0
  143.8170   67.0080  219.1130 C   0  0  0  0  0  0  0  0  0  0  0  0
  139.8110   71.8300  222.8970 C   0  0  0  0  0  0  0  0  0  0  0  0
  139.3540   70.5120  222.7350 C   0  0  0  0  0  0  0  0  0  0  0  0
  139.4420   69.6130  223.7990 C   0  0  0  0  0  0  0  0  0  0  0  0
  139.9760   70.0320  225.0230 C   0  0  0  0  0  0  0  0  0  0  0  0
  140.0800   69.1550  226.1120 C   0  0  0  0  0  0  0  0  0  0  0  0
  140.6150   69.6070  227.3250 C   0  0  0  0  0  0  0  0  0  0  0  0
  140.7460   68.5110  228.6880 Cl  0  0  0  0  0  0  0  0  0  0  0  0
  141.0440   70.9350  227.4540 C   0  0  0  0  0  0  0  0  0  0  0  0
  140.9450   71.8140  226.3700 C   0  0  0  0  0  0  0  0  0  0  0  0
  140.4130   71.3690  225.1550 C   0  0  0  0  0  0  0  0  0  0  0  0
  140.3210   72.2200  224.0990 N   0  0  0  0  0  0  0  0  0  0  0  0
  141.7474   75.5611  221.4161 H   0  0  0  0  0  0  0  0  0  0  0  0
  142.4433   73.9958  221.9657 H   0  0  0  0  0  0  0  0  0  0  0  0
  139.6470   74.2050  219.4670 H   0  0  0  0  0  0  0  0  0  0  0  0
  144.4465   74.3820  220.2782 H   0  0  0  0  0  0  0  0  0  0  0  0
  144.0056   72.9180  221.1750 H   0  0  0  0  0  0  0  0  0  0  0  0
  145.1945   71.5406  219.6863 H   0  0  0  0  0  0  0  0  0  0  0  0
  146.1060   74.1130  218.9870 H   0  0  0  0  0  0  0  0  0  0  0  0
  144.6526   73.3344  217.2837 H   0  0  0  0  0  0  0  0  0  0  0  0
  144.5522   71.5753  217.3640 H   0  0  0  0  0  0  0  0  0  0  0  0
  142.2704   73.1358  217.4337 H   0  0  0  0  0  0  0  0  0  0  0  0
  141.1143   71.3284  218.5495 H   0  0  0  0  0  0  0  0  0  0  0  0
  142.3746   70.6514  217.4513 H   0  0  0  0  0  0  0  0  0  0  0  0
  141.9457   68.8000  220.2165 H   0  0  0  0  0  0  0  0  0  0  0  0
  141.9162   68.9589  218.4311 H   0  0  0  0  0  0  0  0  0  0  0  0
  145.0462   70.1845  219.4603 H   0  0  0  0  0  0  0  0  0  0  0  0
  147.2003   68.9344  219.2945 H   0  0  0  0  0  0  0  0  0  0  0  0
  147.1894   66.4504  219.0443 H   0  0  0  0  0  0  0  0  0  0  0  0
  145.0226   65.2155  218.9287 H   0  0  0  0  0  0  0  0  0  0  0  0
  142.8643   66.4606  219.0613 H   0  0  0  0  0  0  0  0  0  0  0  0
  138.9284   70.1894  221.7733 H   0  0  0  0  0  0  0  0  0  0  0  0
  139.0924   68.5773  223.6758 H   0  0  0  0  0  0  0  0  0  0  0  0
  139.7417   68.1129  226.0138 H   0  0  0  0  0  0  0  0  0  0  0  0
  141.4595   71.2870  228.4097 H   0  0  0  0  0  0  0  0  0  0  0  0
  141.2855   72.8549  226.4730 H   0  0  0  0  0  0  0  0  0  0  0  0
  1  2  2  0
  2  3  1  0
  3  4  1  0
  4  5  1  0
  5  6  1  0
  5  7  2  0
  7  8  1  0
  8  9  1  0
  9 10  1  0
  9 11  1  0
 11 12  1  0
 12 13  1  0
 13 14  1  0
 14 15  1  0
 15 16  1  0
 16 17  2  0
 17 18  1  0
 18 19  2  0
 19 20  1  0
 20 21  2  0
  2 22  1  0
 22 23  2  0
 23 24  1  0
 24 25  2  0
 25 26  1  0
 26 27  2  0
 27 28  1  0
 27 29  1  0
 29 30  2  0
 30 31  1  0
 31 32  2  0
 12  7  1  0
 21 16  1  0
 32 22  1  0
 31 25  1  0
  4 33  1  0
  4 34  1  0
  6 35  1  0
  8 36  1  0
  8 37  1  0
  9 38  1  1
 10 39  1  0
 11 40  1  0
 11 41  1  0
 12 42  1  6
 13 43  1  0
 13 44  1  0
 15 45  1  0
 15 46  1  0
 17 47  1  0
 18 48  1  0
 19 49  1  0
 20 50  1  0
 21 51  1  0
 23 52  1  0
 24 53  1  0
 26 54  1  0
 29 55  1  0
 30 56  1  0
M  CHG  2   3  -1   7   1
M  END
>  <meeko>  (15) 
{"free_energy": -7.41, "intermolecular_energy": -10.69, "internal_energy": -3.0, "cluster_size": 3, "cluster_id": 4, "rank_in_cluster": 3}

$$$$

     RDKit          3D

 56 59  0  0  0  0  0  0  0  0999 V2000
  139.9400   72.4950  220.5770 O   0  0  0  0  0  0  0  0  0  0  0  0
  140.1280   72.8780  221.7650 C   0  0  0  0  0  0  0  0  0  0  0  0
  140.4480   74.2460  222.0360 N   0  0  0  0  0  0  0  0  0  0  0  0
  141.3720   75.0300  221.2260 C   0  0  0  0  0  0  0  0  0  0  0  0
  140.6810   75.4960  219.9720 C   0  0  0  0  0  0  0  0  0  0  0  0
  139.3490   75.0980  219.8100 O   0  0  0  0  0  0  0  0  0  0  0  0
  141.3090   76.2130  219.0620 N   0  0  0  0  0  0  0  0  0  0  0  0
  142.3440   77.1960  219.3810 C   0  0  0  0  0  0  0  0  0  0  0  0
  142.7510   77.8320  218.0530 C   0  0  2  0  0  0  0  0  0  0  0  0
  142.9080   79.2210  218.1730 O   0  0  0  0  0  0  0  0  0  0  0  0
  141.6140   77.5000  217.0930 C   0  0  0  0  0  0  0  0  0  0  0  0
  141.0150   76.1970  217.6260 C   0  0  1  0  0  0  0  0  0  0  0  0
  141.6780   74.9840  216.9400 C   0  0  0  0  0  0  0  0  0  0  0  0
  143.0060   74.8280  217.3920 O   0  0  0  0  0  0  0  0  0  0  0  0
  143.2280   73.4840  217.7630 C   0  0  0  0  0  0  0  0  0  0  0  0
  144.2090   73.4470  218.9010 C   0  0  0  0  0  0  0  0  0  0  0  0
  144.3120   74.5240  219.7970 C   0  0  0  0  0  0  0  0  0  0  0  0
  145.2310   74.4790  220.8500 C   0  0  0  0  0  0  0  0  0  0  0  0
  146.0390   73.3530  221.0260 C   0  0  0  0  0  0  0  0  0  0  0  0
  145.9330   72.2710  220.1470 C   0  0  0  0  0  0  0  0  0  0  0  0
  145.0210   72.3170  219.0870 C   0  0  0  0  0  0  0  0  0  0  0  0
  140.0280   71.9210  222.8800 C   0  0  0  0  0  0  0  0  0  0  0  0
  139.4220   70.6650  222.7080 C   0  0  0  0  0  0  0  0  0  0  0  0
  139.3700   69.7700  223.7780 C   0  0  0  0  0  0  0  0  0  0  0  0
  139.9140   70.1310  225.0170 C   0  0  0  0  0  0  0  0  0  0  0  0
  139.8810   69.2560  226.1110 C   0  0  0  0  0  0  0  0  0  0  0  0
  140.4300   69.6500  227.3380 C   0  0  0  0  0  0  0  0  0  0  0  0
  140.3880   68.5560  228.7080 Cl  0  0  0  0  0  0  0  0  0  0  0  0
  141.0090   70.9180  227.4750 C   0  0  0  0  0  0  0  0  0  0  0  0
  141.0490   71.7940  226.3860 C   0  0  0  0  0  0  0  0  0  0  0  0
  140.5030   71.4080  225.1560 C   0  0  0  0  0  0  0  0  0  0  0  0
  140.5450   72.2550  224.0950 N   0  0  0  0  0  0  0  0  0  0  0  0
  141.7119   75.9034  221.8018 H   0  0  0  0  0  0  0  0  0  0  0  0
  142.2364   74.4062  220.9543 H   0  0  0  0  0  0  0  0  0  0  0  0
  138.8930   74.3900  220.3670 H   0  0  0  0  0  0  0  0  0  0  0  0
  141.9460   77.9609  220.0640 H   0  0  0  0  0  0  0  0  0  0  0  0
  143.2037   76.7254  219.8804 H   0  0  0  0  0  0  0  0  0  0  0  0
  143.7207   77.4486  217.7027 H   0  0  0  0  0  0  0  0  0  0  0  0
  143.5440   79.4930  217.4610 H   0  0  0  0  0  0  0  0  0  0  0  0
  140.8603   78.3012  217.0943 H   0  0  0  0  0  0  0  0  0  0  0  0
  141.9648   77.3999  216.0552 H   0  0  0  0  0  0  0  0  0  0  0  0
  139.9358   76.1161  217.4288 H   0  0  0  0  0  0  0  0  0  0  0  0
  141.1052   74.0755  217.1776 H   0  0  0  0  0  0  0  0  0  0  0  0
  141.6885   75.1508  215.8528 H   0  0  0  0  0  0  0  0  0  0  0  0
  142.2787   73.0269  218.0792 H   0  0  0  0  0  0  0  0  0  0  0  0
  143.6306   72.9233  216.9065 H   0  0  0  0  0  0  0  0  0  0  0  0
  143.6673   75.4061  219.6698 H   0  0  0  0  0  0  0  0  0  0  0  0
  145.3178   75.3310  221.5404 H   0  0  0  0  0  0  0  0  0  0  0  0
  146.7591   73.3177  221.8568 H   0  0  0  0  0  0  0  0  0  0  0  0
  146.5668   71.3832  220.2888 H   0  0  0  0  0  0  0  0  0  0  0  0
  144.9399   71.4644  218.3967 H   0  0  0  0  0  0  0  0  0  0  0  0
  138.9906   70.3883  221.7347 H   0  0  0  0  0  0  0  0  0  0  0  0
  138.9025   68.7828  223.6482 H   0  0  0  0  0  0  0  0  0  0  0  0
  139.4244   68.2607  226.0063 H   0  0  0  0  0  0  0  0  0  0  0  0
  141.4335   71.2255  228.4421 H   0  0  0  0  0  0  0  0  0  0  0  0
  141.5096   72.7869  226.4957 H   0  0  0  0  0  0  0  0  0  0  0  0
  1  2  2  0
  2  3  1  0
  3  4  1  0
  4  5  1  0
  5  6  1  0
  5  7  2  0
  7  8  1  0
  8  9  1  0
  9 10  1  0
  9 11  1  0
 11 12  1  0
 12 13  1  0
 13 14  1  0
 14 15  1  0
 15 16  1  0
 16 17  2  0
 17 18  1  0
 18 19  2  0
 19 20  1  0
 20 21  2  0
  2 22  1  0
 22 23  2  0
 23 24  1  0
 24 25  2  0
 25 26  1  0
 26 27  2  0
 27 28  1  0
 27 29  1  0
 29 30  2  0
 30 31  1  0
 31 32  2  0
 12  7  1  0
 21 16  1  0
 32 22  1  0
 31 25  1  0
  4 33  1  0
  4 34  1  0
  6 35  1  0
  8 36  1  0
  8 37  1  0
  9 38  1  6
 10 39  1  0
 11 40  1  0
 11 41  1  0
 12 42  1  1
 13 43  1  0
 13 44  1  0
 15 45  1  0
 15 46  1  0
 17 47  1  0
 18 48  1  0
 19 49  1  0
 20 50  1  0
 21 51  1  0
 23 52  1  0
 24 53  1  0
 26 54  1  0
 29 55  1  0
 30 56  1  0
M  CHG  2   3  -1   7   1
M  END
>  <meeko>  (16) 
{"free_energy": -7.19, "intermolecular_energy": -10.47, "internal_energy": -3.39, "cluster_size": 2, "cluster_id": 3, "rank_in_cluster": 2}

$$$$

     RDKit          3D

 56 59  0  0  0  0  0  0  0  0999 V2000
  140.5130   73.7770  222.0270 O   0  0  0  0  0  0  0  0  0  0  0  0
  140.7250   74.8850  221.4630 C   0  0  0  0  0  0  0  0  0  0  0  0
  141.8150   75.0280  220.5470 N   0  0  0  0  0  0  0  0  0  0  0  0
  141.7070   75.7360  219.2760 C   0  0  0  0  0  0  0  0  0  0  0  0
  141.9000   77.2120  219.4970 C   0  0  0  0  0  0  0  0  0  0  0  0
  142.2130   77.6120  220.8010 O   0  0  0  0  0  0  0  0  0  0  0  0
  141.7510   78.0830  218.5190 N   0  0  0  0  0  0  0  0  0  0  0  0
  141.8420   77.7300  217.1030 C   0  0  0  0  0  0  0  0  0  0  0  0
  141.6730   79.0350  216.3270 C   0  0  2  0  0  0  0  0  0  0  0  0
  142.5770   79.1220  215.2580 O   0  0  0  0  0  0  0  0  0  0  0  0
  141.9400   80.1360  217.3470 C   0  0  0  0  0  0  0  0  0  0  0  0
  141.5590   79.5250  218.6970 C   0  0  1  0  0  0  0  0  0  0  0  0
  140.0880   79.8480  219.0340 C   0  0  0  0  0  0  0  0  0  0  0  0
  139.9790   80.3300  220.3550 O   0  0  0  0  0  0  0  0  0  0  0  0
  140.8800   81.3990  220.5500 C   0  0  0  0  0  0  0  0  0  0  0  0
  141.6510   81.1640  221.8180 C   0  0  0  0  0  0  0  0  0  0  0  0
  141.4710   81.9980  222.9340 C   0  0  0  0  0  0  0  0  0  0  0  0
  142.1970   81.7700  224.1070 C   0  0  0  0  0  0  0  0  0  0  0  0
  143.0910   80.6990  224.1800 C   0  0  0  0  0  0  0  0  0  0  0  0
  143.2640   79.8560  223.0790 C   0  0  0  0  0  0  0  0  0  0  0  0
  142.5470   80.0860  221.9010 C   0  0  0  0  0  0  0  0  0  0  0  0
  139.8570   76.0420  221.7460 C   0  0  0  0  0  0  0  0  0  0  0  0
  138.5890   76.1630  221.1540 C   0  0  0  0  0  0  0  0  0  0  0  0
  137.7810   77.2560  221.4670 C   0  0  0  0  0  0  0  0  0  0  0  0
  138.2410   78.2300  222.3620 C   0  0  0  0  0  0  0  0  0  0  0  0
  137.4540   79.3400  222.7000 C   0  0  0  0  0  0  0  0  0  0  0  0
  137.9460   80.2990  223.5950 C   0  0  0  0  0  0  0  0  0  0  0  0
  136.9630   81.6870  224.0180 Cl  0  0  0  0  0  0  0  0  0  0  0  0
  139.2230   80.1520  224.1510 C   0  0  0  0  0  0  0  0  0  0  0  0
  140.0120   79.0450  223.8200 C   0  0  0  0  0  0  0  0  0  0  0  0
  139.5270   78.0820  222.9280 C   0  0  0  0  0  0  0  0  0  0  0  0
  140.2890   77.0030  222.6080 N   0  0  0  0  0  0  0  0  0  0  0  0
  142.4790   75.3661  218.5851 H   0  0  0  0  0  0  0  0  0  0  0  0
  140.7099   75.5604  218.8459 H   0  0  0  0  0  0  0  0  0  0  0  0
  142.2070   76.9970  221.6030 H   0  0  0  0  0  0  0  0  0  0  0  0
  142.8218   77.2804  216.8842 H   0  0  0  0  0  0  0  0  0  0  0  0
  141.0734   76.9946  216.8229 H   0  0  0  0  0  0  0  0  0  0  0  0
  140.6708   79.1104  215.8799 H   0  0  0  0  0  0  0  0  0  0  0  0
  143.3220   79.7000  215.5680 H   0  0  0  0  0  0  0  0  0  0  0  0
  143.0021   80.4223  217.3380 H   0  0  0  0  0  0  0  0  0  0  0  0
  141.3662   81.0490  217.1297 H   0  0  0  0  0  0  0  0  0  0  0  0
  142.1639   79.9211  219.5260 H   0  0  0  0  0  0  0  0  0  0  0  0
  139.7166   80.6139  218.3372 H   0  0  0  0  0  0  0  0  0  0  0  0
  139.4910   78.9289  218.9399 H   0  0  0  0  0  0  0  0  0  0  0  0
  141.5761   81.4543  219.7000 H   0  0  0  0  0  0  0  0  0  0  0  0
  140.3237   82.3451  220.6233 H   0  0  0  0  0  0  0  0  0  0  0  0
  140.7566   82.8330  222.8849 H   0  0  0  0  0  0  0  0  0  0  0  0
  142.0641   82.4347  224.9733 H   0  0  0  0  0  0  0  0  0  0  0  0
  143.6591   80.5192  225.1046 H   0  0  0  0  0  0  0  0  0  0  0  0
  143.9651   79.0105  223.1392 H   0  0  0  0  0  0  0  0  0  0  0  0
  142.6852   79.4203  221.0363 H   0  0  0  0  0  0  0  0  0  0  0  0
  138.2347   75.3989  220.4465 H   0  0  0  0  0  0  0  0  0  0  0  0
  136.7843   77.3528  221.0117 H   0  0  0  0  0  0  0  0  0  0  0  0
  136.4514   79.4578  222.2630 H   0  0  0  0  0  0  0  0  0  0  0  0
  139.6070   80.9094  224.8502 H   0  0  0  0  0  0  0  0  0  0  0  0
  141.0134   78.9316  224.2609 H   0  0  0  0  0  0  0  0  0  0  0  0
  1  2  2  0
  2  3  1  0
  3  4  1  0
  4  5  1  0
  5  6  1  0
  5  7  2  0
  7  8  1  0
  8  9  1  0
  9 10  1  0
  9 11  1  0
 11 12  1  0
 12 13  1  0
 13 14  1  0
 14 15  1  0
 15 16  1  0
 16 17  2  0
 17 18  1  0
 18 19  2  0
 19 20  1  0
 20 21  2  0
  2 22  1  0
 22 23  2  0
 23 24  1  0
 24 25  2  0
 25 26  1  0
 26 27  2  0
 27 28  1  0
 27 29  1  0
 29 30  2  0
 30 31  1  0
 31 32  2  0
 12  7  1  0
 21 16  1  0
 32 22  1  0
 31 25  1  0
  4 33  1  0
  4 34  1  0
  6 35  1  0
  8 36  1  0
  8 37  1  0
  9 38  1  6
 10 39  1  0
 11 40  1  0
 11 41  1  0
 12 42  1  1
 13 43  1  0
 13 44  1  0
 15 45  1  0
 15 46  1  0
 17 47  1  0
 18 48  1  0
 19 49  1  0
 20 50  1  0
 21 51  1  0
 23 52  1  0
 24 53  1  0
 26 54  1  0
 29 55  1  0
 30 56  1  0
M  CHG  2   3  -1   7   1
M  END
>  <meeko>  (17) 
{"free_energy": -6.16, "intermolecular_energy": -9.44, "internal_energy": -4.57, "cluster_size": 3, "cluster_id": 6, "rank_in_cluster": 1}

$$$$

     RDKit          3D

 56 59  0  0  0  0  0  0  0  0999 V2000
  139.2870   72.4590  220.6340 O   0  0  0  0  0  0  0  0  0  0  0  0
  139.7300   72.8100  221.7620 C   0  0  0  0  0  0  0  0  0  0  0  0
  140.1890   74.1500  221.9680 N   0  0  0  0  0  0  0  0  0  0  0  0
  141.4660   74.6460  221.4690 C   0  0  0  0  0  0  0  0  0  0  0  0
  141.7620   74.0320  220.1270 C   0  0  0  0  0  0  0  0  0  0  0  0
  140.7800   74.1860  219.1410 O   0  0  0  0  0  0  0  0  0  0  0  0
  142.8720   73.3580  219.9040 N   0  0  0  0  0  0  0  0  0  0  0  0
  144.1830   73.7760  220.4000 C   0  0  0  0  0  0  0  0  0  0  0  0
  145.1860   72.7560  219.8650 C   0  0  2  0  0  0  0  0  0  0  0  0
  146.3570   73.3750  219.4050 O   0  0  0  0  0  0  0  0  0  0  0  0
  144.4620   72.0580  218.7190 C   0  0  0  0  0  0  0  0  0  0  0  0
  142.9770   72.1570  219.0710 C   0  0  1  0  0  0  0  0  0  0  0  0
  142.5270   70.9040  219.8520 C   0  0  0  0  0  0  0  0  0  0  0  0
  142.2560   69.8410  218.9650 O   0  0  0  0  0  0  0  0  0  0  0  0
  142.3410   68.6110  219.6530 C   0  0  0  0  0  0  0  0  0  0  0  0
  143.6940   68.0060  219.4060 C   0  0  0  0  0  0  0  0  0  0  0  0
  144.8610   68.7750  219.5440 C   0  0  0  0  0  0  0  0  0  0  0  0
  146.1150   68.2010  219.3080 C   0  0  0  0  0  0  0  0  0  0  0  0
  146.2110   66.8530  218.9530 C   0  0  0  0  0  0  0  0  0  0  0  0
  145.0550   66.0780  218.8270 C   0  0  0  0  0  0  0  0  0  0  0  0
  143.7990   66.6510  219.0540 C   0  0  0  0  0  0  0  0  0  0  0  0
  139.7860   71.8440  222.8720 C   0  0  0  0  0  0  0  0  0  0  0  0
  139.3360   70.5230  222.7120 C   0  0  0  0  0  0  0  0  0  0  0  0
  139.4310   69.6260  223.7760 C   0  0  0  0  0  0  0  0  0  0  0  0
  139.9650   70.0480  224.9990 C   0  0  0  0  0  0  0  0  0  0  0  0
  140.0770   69.1720  226.0880 C   0  0  0  0  0  0  0  0  0  0  0  0
  140.6130   69.6280  227.3000 C   0  0  0  0  0  0  0  0  0  0  0  0
  140.7520   68.5330  228.6620 Cl  0  0  0  0  0  0  0  0  0  0  0  0
  141.0340   70.9580  227.4260 C   0  0  0  0  0  0  0  0  0  0  0  0
  140.9280   71.8360  226.3430 C   0  0  0  0  0  0  0  0  0  0  0  0
  140.3960   71.3880  225.1290 C   0  0  0  0  0  0  0  0  0  0  0  0
  140.2970   72.2370  224.0730 N   0  0  0  0  0  0  0  0  0  0  0  0
  141.4183   75.7403  221.3674 H   0  0  0  0  0  0  0  0  0  0  0  0
  142.2630   74.3740  222.1767 H   0  0  0  0  0  0  0  0  0  0  0  0
  139.7900   74.0720  219.2990 H   0  0  0  0  0  0  0  0  0  0  0  0
  144.4279   74.7823  220.0292 H   0  0  0  0  0  0  0  0  0  0  0  0
  144.2012   73.8176  221.4991 H   0  0  0  0  0  0  0  0  0  0  0  0
  145.5051   72.0547  220.6501 H   0  0  0  0  0  0  0  0  0  0  0  0
  146.1500   74.3430  219.3270 H   0  0  0  0  0  0  0  0  0  0  0  0
  144.6680   72.5657  217.7651 H   0  0  0  0  0  0  0  0  0  0  0  0
  144.7894   71.0149  218.5975 H   0  0  0  0  0  0  0  0  0  0  0  0
  142.3353   72.2171  218.1796 H   0  0  0  0  0  0  0  0  0  0  0  0
  143.3264   70.6027  220.5449 H   0  0  0  0  0  0  0  0  0  0  0  0
  141.6108   71.1432  220.4118 H   0  0  0  0  0  0  0  0  0  0  0  0
  142.2041   68.7810  220.7311 H   0  0  0  0  0  0  0  0  0  0  0  0
  141.5569   67.9285  219.2932 H   0  0  0  0  0  0  0  0  0  0  0  0
  144.7889   69.8323  219.8387 H   0  0  0  0  0  0  0  0  0  0  0  0
  147.0255   68.8111  219.4019 H   0  0  0  0  0  0  0  0  0  0  0  0
  147.1976   66.4013  218.7725 H   0  0  0  0  0  0  0  0  0  0  0  0
  145.1326   65.0165  218.5491 H   0  0  0  0  0  0  0  0  0  0  0  0
  142.8909   66.0379  218.9564 H   0  0  0  0  0  0  0  0  0  0  0  0
  138.9104   70.1972  221.7514 H   0  0  0  0  0  0  0  0  0  0  0  0
  139.0867   68.5884  223.6540 H   0  0  0  0  0  0  0  0  0  0  0  0
  139.7445   68.1279  225.9912 H   0  0  0  0  0  0  0  0  0  0  0  0
  141.4496   71.3131  228.3806 H   0  0  0  0  0  0  0  0  0  0  0  0
  141.2628   72.8788  226.4454 H   0  0  0  0  0  0  0  0  0  0  0  0
  1  2  2  0
  2  3  1  0
  3  4  1  0
  4  5  1  0
  5  6  1  0
  5  7  2  0
  7  8  1  0
  8  9  1  0
  9 10  1  0
  9 11  1  0
 11 12  1  0
 12 13  1  0
 13 14  1  0
 14 15  1  0
 15 16  1  0
 16 17  2  0
 17 18  1  0
 18 19  2  0
 19 20  1  0
 20 21  2  0
  2 22  1  0
 22 23  2  0
 23 24  1  0
 24 25  2  0
 25 26  1  0
 26 27  2  0
 27 28  1  0
 27 29  1  0
 29 30  2  0
 30 31  1  0
 31 32  2  0
 12  7  1  0
 21 16  1  0
 32 22  1  0
 31 25  1  0
  4 33  1  0
  4 34  1  0
  6 35  1  0
  8 36  1  0
  8 37  1  0
  9 38  1  1
 10 39  1  0
 11 40  1  0
 11 41  1  0
 12 42  1  6
 13 43  1  0
 13 44  1  0
 15 45  1  0
 15 46  1  0
 17 47  1  0
 18 48  1  0
 19 49  1  0
 20 50  1  0
 21 51  1  0
 23 52  1  0
 24 53  1  0
 26 54  1  0
 29 55  1  0
 30 56  1  0
M  CHG  2   3  -1   7   1
M  END
>  <meeko>  (18) 
{"free_energy": -7.73, "intermolecular_energy": -11.01, "internal_energy": -2.77, "cluster_size": 3, "cluster_id": 4, "rank_in_cluster": 2}

$$$$

     RDKit          3D

 56 59  0  0  0  0  0  0  0  0999 V2000
  137.4210   72.4380  221.7950 O   0  0  0  0  0  0  0  0  0  0  0  0
  138.5650   71.9130  221.8920 C   0  0  0  0  0  0  0  0  0  0  0  0
  139.5600   72.1710  220.8970 N   0  0  0  0  0  0  0  0  0  0  0  0
  139.6580   73.4300  220.1690 C   0  0  0  0  0  0  0  0  0  0  0  0
  139.9770   74.5480  221.1250 C   0  0  0  0  0  0  0  0  0  0  0  0
  139.6030   74.3530  222.4590 O   0  0  0  0  0  0  0  0  0  0  0  0
  140.5500   75.6640  220.7190 N   0  0  0  0  0  0  0  0  0  0  0  0
  141.2480   75.7940  219.4400 C   0  0  0  0  0  0  0  0  0  0  0  0
  141.8070   77.2150  219.4030 C   0  0  2  0  0  0  0  0  0  0  0  0
  143.1140   77.2430  218.8950 O   0  0  0  0  0  0  0  0  0  0  0  0
  141.7840   77.6840  220.8530 C   0  0  0  0  0  0  0  0  0  0  0  0
  140.6470   76.8960  221.5060 C   0  0  1  0  0  0  0  0  0  0  0  0
  139.3310   77.7000  221.4360 C   0  0  0  0  0  0  0  0  0  0  0  0
  138.7450   77.7980  222.7150 O   0  0  0  0  0  0  0  0  0  0  0  0
  138.6480   79.1560  223.0930 C   0  0  0  0  0  0  0  0  0  0  0  0
  140.0210   79.7650  223.0820 C   0  0  0  0  0  0  0  0  0  0  0  0
  140.2910   80.9180  222.3270 C   0  0  0  0  0  0  0  0  0  0  0  0
  141.5750   81.4730  222.3230 C   0  0  0  0  0  0  0  0  0  0  0  0
  142.5910   80.8930  223.0870 C   0  0  0  0  0  0  0  0  0  0  0  0
  142.3270   79.7540  223.8520 C   0  0  0  0  0  0  0  0  0  0  0  0
  141.0470   79.1900  223.8510 C   0  0  0  0  0  0  0  0  0  0  0  0
  138.8820   71.0250  223.0240 C   0  0  0  0  0  0  0  0  0  0  0  0
  138.4960   69.6750  223.0210 C   0  0  0  0  0  0  0  0  0  0  0  0
  138.8390   68.8550  224.0970 C   0  0  0  0  0  0  0  0  0  0  0  0
  139.5580   69.3840  225.1750 C   0  0  0  0  0  0  0  0  0  0  0  0
  139.9200   68.5870  226.2710 C   0  0  0  0  0  0  0  0  0  0  0  0
  140.6360   69.1490  227.3370 C   0  0  0  0  0  0  0  0  0  0  0  0
  141.0890   68.1540  228.7080 Cl  0  0  0  0  0  0  0  0  0  0  0  0
  140.9870   70.5040  227.3110 C   0  0  0  0  0  0  0  0  0  0  0  0
  140.6310   71.3030  226.2200 C   0  0  0  0  0  0  0  0  0  0  0  0
  139.9180   70.7500  225.1510 C   0  0  0  0  0  0  0  0  0  0  0  0
  139.5750   71.5220  224.0860 N   0  0  0  0  0  0  0  0  0  0  0  0
  140.4558   73.3550  219.4155 H   0  0  0  0  0  0  0  0  0  0  0  0
  138.6985   73.6386  219.6732 H   0  0  0  0  0  0  0  0  0  0  0  0
  139.1370   73.5270  222.8060 H   0  0  0  0  0  0  0  0  0  0  0  0
  142.0654   75.0607  219.3753 H   0  0  0  0  0  0  0  0  0  0  0  0
  140.5716   75.6068  218.5930 H   0  0  0  0  0  0  0  0  0  0  0  0
  141.2137   77.8641  218.7423 H   0  0  0  0  0  0  0  0  0  0  0  0
  143.6930   77.5730  219.6300 H   0  0  0  0  0  0  0  0  0  0  0  0
  142.7416   77.4617  221.3465 H   0  0  0  0  0  0  0  0  0  0  0  0
  141.6330   78.7706  220.9334 H   0  0  0  0  0  0  0  0  0  0  0  0
  140.8320   76.6903  222.5706 H   0  0  0  0  0  0  0  0  0  0  0  0
  139.5435   78.7104  221.0565 H   0  0  0  0  0  0  0  0  0  0  0  0
  138.6323   77.1819  220.7626 H   0  0  0  0  0  0  0  0  0  0  0  0
  138.0012   79.6915  222.3825 H   0  0  0  0  0  0  0  0  0  0  0  0
  138.2156   79.2314  224.1017 H   0  0  0  0  0  0  0  0  0  0  0  0
  139.4898   81.3864  221.7366 H   0  0  0  0  0  0  0  0  0  0  0  0
  141.7851   82.3671  221.7177 H   0  0  0  0  0  0  0  0  0  0  0  0
  143.5991   81.3333  223.0862 H   0  0  0  0  0  0  0  0  0  0  0  0
  143.1267   79.3003  224.4558 H   0  0  0  0  0  0  0  0  0  0  0  0
  140.8428   78.2932  224.4543 H   0  0  0  0  0  0  0  0  0  0  0  0
  137.9257   69.2654  222.1742 H   0  0  0  0  0  0  0  0  0  0  0  0
  138.5448   67.7951  224.0978 H   0  0  0  0  0  0  0  0  0  0  0  0
  139.6425   67.5228  226.2939 H   0  0  0  0  0  0  0  0  0  0  0  0
  141.5449   70.9418  228.1519 H   0  0  0  0  0  0  0  0  0  0  0  0
  140.9116   72.3665  226.2024 H   0  0  0  0  0  0  0  0  0  0  0  0
  1  2  2  0
  2  3  1  0
  3  4  1  0
  4  5  1  0
  5  6  1  0
  5  7  2  0
  7  8  1  0
  8  9  1  0
  9 10  1  0
  9 11  1  0
 11 12  1  0
 12 13  1  0
 13 14  1  0
 14 15  1  0
 15 16  1  0
 16 17  2  0
 17 18  1  0
 18 19  2  0
 19 20  1  0
 20 21  2  0
  2 22  1  0
 22 23  2  0
 23 24  1  0
 24 25  2  0
 25 26  1  0
 26 27  2  0
 27 28  1  0
 27 29  1  0
 29 30  2  0
 30 31  1  0
 31 32  2  0
 12  7  1  0
 21 16  1  0
 32 22  1  0
 31 25  1  0
  4 33  1  0
  4 34  1  0
  6 35  1  0
  8 36  1  0
  8 37  1  0
  9 38  1  6
 10 39  1  0
 11 40  1  0
 11 41  1  0
 12 42  1  1
 13 43  1  0
 13 44  1  0
 15 45  1  0
 15 46  1  0
 17 47  1  0
 18 48  1  0
 19 49  1  0
 20 50  1  0
 21 51  1  0
 23 52  1  0
 24 53  1  0
 26 54  1  0
 29 55  1  0
 30 56  1  0
M  CHG  2   3  -1   7   1
M  END
>  <meeko>  (19) 
{"free_energy": -8.36, "intermolecular_energy": -11.64, "internal_energy": -2.63, "cluster_size": 9, "cluster_id": 2, "rank_in_cluster": 4}

$$$$

     RDKit          3D

 56 59  0  0  0  0  0  0  0  0999 V2000
  140.4830   73.7670  222.1340 O   0  0  0  0  0  0  0  0  0  0  0  0
  140.7050   74.8490  221.5240 C   0  0  0  0  0  0  0  0  0  0  0  0
  141.7900   74.9400  220.5950 N   0  0  0  0  0  0  0  0  0  0  0  0
  141.6950   75.6390  219.3180 C   0  0  0  0  0  0  0  0  0  0  0  0
  141.8850   77.1170  219.5310 C   0  0  0  0  0  0  0  0  0  0  0  0
  142.2020   77.5240  220.8330 O   0  0  0  0  0  0  0  0  0  0  0  0
  141.7310   77.9820  218.5500 N   0  0  0  0  0  0  0  0  0  0  0  0
  141.8260   77.6250  217.1350 C   0  0  0  0  0  0  0  0  0  0  0  0
  141.6470   78.9250  216.3540 C   0  0  2  0  0  0  0  0  0  0  0  0
  142.5520   79.0150  215.2850 O   0  0  0  0  0  0  0  0  0  0  0  0
  141.9040   80.0320  217.3700 C   0  0  0  0  0  0  0  0  0  0  0  0
  141.5260   79.4230  218.7210 C   0  0  1  0  0  0  0  0  0  0  0  0
  140.0530   79.7360  219.0550 C   0  0  0  0  0  0  0  0  0  0  0  0
  139.9580   80.4100  220.2910 O   0  0  0  0  0  0  0  0  0  0  0  0
  141.0170   81.3360  220.4120 C   0  0  0  0  0  0  0  0  0  0  0  0
  141.7210   81.1050  221.7180 C   0  0  0  0  0  0  0  0  0  0  0  0
  141.5260   81.9750  222.8040 C   0  0  0  0  0  0  0  0  0  0  0  0
  142.1910   81.7500  224.0140 C   0  0  0  0  0  0  0  0  0  0  0  0
  143.0390   80.6480  224.1530 C   0  0  0  0  0  0  0  0  0  0  0  0
  143.2270   79.7710  223.0810 C   0  0  0  0  0  0  0  0  0  0  0  0
  142.5710   79.9970  221.8670 C   0  0  0  0  0  0  0  0  0  0  0  0
  139.8550   76.0270  221.7660 C   0  0  0  0  0  0  0  0  0  0  0  0
  138.6100   76.1690  221.1320 C   0  0  0  0  0  0  0  0  0  0  0  0
  137.8170   77.2840  221.4070 C   0  0  0  0  0  0  0  0  0  0  0  0
  138.2690   78.2570  222.3060 C   0  0  0  0  0  0  0  0  0  0  0  0
  137.4970   79.3880  222.6070 C   0  0  0  0  0  0  0  0  0  0  0  0
  137.9800   80.3450  223.5080 C   0  0  0  0  0  0  0  0  0  0  0  0
  137.0150   81.7600  223.8840 Cl  0  0  0  0  0  0  0  0  0  0  0  0
  139.2350   80.1770  224.1060 C   0  0  0  0  0  0  0  0  0  0  0  0
  140.0090   79.0490  223.8130 C   0  0  0  0  0  0  0  0  0  0  0  0
  139.5320   78.0880  222.9150 C   0  0  0  0  0  0  0  0  0  0  0  0
  140.2800   76.9880  222.6320 N   0  0  0  0  0  0  0  0  0  0  0  0
  142.4744   75.2648  218.6379 H   0  0  0  0  0  0  0  0  0  0  0  0
  140.7027   75.4597  218.8785 H   0  0  0  0  0  0  0  0  0  0  0  0
  142.1990   76.9130  221.6370 H   0  0  0  0  0  0  0  0  0  0  0  0
  142.8096   77.1827  216.9186 H   0  0  0  0  0  0  0  0  0  0  0  0
  141.0634   76.8825  216.8571 H   0  0  0  0  0  0  0  0  0  0  0  0
  140.6447   78.9907  215.9057 H   0  0  0  0  0  0  0  0  0  0  0  0
  143.2670   79.6400  215.5750 H   0  0  0  0  0  0  0  0  0  0  0  0
  142.9638   80.3266  217.3614 H   0  0  0  0  0  0  0  0  0  0  0  0
  141.3236   80.9398  217.1485 H   0  0  0  0  0  0  0  0  0  0  0  0
  142.1264   79.8270  219.5494 H   0  0  0  0  0  0  0  0  0  0  0  0
  139.6295   80.3712  218.2630 H   0  0  0  0  0  0  0  0  0  0  0  0
  139.4952   78.7903  219.1222 H   0  0  0  0  0  0  0  0  0  0  0  0
  141.7250   81.1972  219.5817 H   0  0  0  0  0  0  0  0  0  0  0  0
  140.6199   82.3613  220.3800 H   0  0  0  0  0  0  0  0  0  0  0  0
  140.8484   82.8356  222.7024 H   0  0  0  0  0  0  0  0  0  0  0  0
  142.0462   82.4414  224.8572 H   0  0  0  0  0  0  0  0  0  0  0  0
  143.5586   80.4707  225.1062 H   0  0  0  0  0  0  0  0  0  0  0  0
  143.8919   78.9018  223.1925 H   0  0  0  0  0  0  0  0  0  0  0  0
  142.7212   79.3045  221.0257 H   0  0  0  0  0  0  0  0  0  0  0  0
  138.2614   75.4048  220.4218 H   0  0  0  0  0  0  0  0  0  0  0  0
  136.8383   77.3980  220.9180 H   0  0  0  0  0  0  0  0  0  0  0  0
  136.5124   79.5235  222.1356 H   0  0  0  0  0  0  0  0  0  0  0  0
  139.6135   80.9343  224.8083 H   0  0  0  0  0  0  0  0  0  0  0  0
  140.9922   78.9177  224.2885 H   0  0  0  0  0  0  0  0  0  0  0  0
  1  2  2  0
  2  3  1  0
  3  4  1  0
  4  5  1  0
  5  6  1  0
  5  7  2  0
  7  8  1  0
  8  9  1  0
  9 10  1  0
  9 11  1  0
 11 12  1  0
 12 13  1  0
 13 14  1  0
 14 15  1  0
 15 16  1  0
 16 17  2  0
 17 18  1  0
 18 19  2  0
 19 20  1  0
 20 21  2  0
  2 22  1  0
 22 23  2  0
 23 24  1  0
 24 25  2  0
 25 26  1  0
 26 27  2  0
 27 28  1  0
 27 29  1  0
 29 30  2  0
 30 31  1  0
 31 32  2  0
 12  7  1  0
 21 16  1  0
 32 22  1  0
 31 25  1  0
  4 33  1  0
  4 34  1  0
  6 35  1  0
  8 36  1  0
  8 37  1  0
  9 38  1  6
 10 39  1  0
 11 40  1  0
 11 41  1  0
 12 42  1  1
 13 43  1  0
 13 44  1  0
 15 45  1  0
 15 46  1  0
 17 47  1  0
 18 48  1  0
 19 49  1  0
 20 50  1  0
 21 51  1  0
 23 52  1  0
 24 53  1  0
 26 54  1  0
 29 55  1  0
 30 56  1  0
M  CHG  2   3  -1   7   1
M  END
>  <meeko>  (20) 
{"free_energy": -6.14, "intermolecular_energy": -9.42, "internal_energy": -4.59, "cluster_size": 3, "cluster_id": 6, "rank_in_cluster": 2}

$$$$
