
     RDKit          3D

 56 59  0  0  0  0  0  0  0  0999 V2000
  139.4600   72.0750  220.6610 O   0  0  0  0  0  0  0  0  0  0  0  0
  139.5030   72.4820  221.8550 C   0  0  0  0  0  0  0  0  0  0  0  0
  139.4140   73.8870  222.1350 N   0  0  0  0  0  0  0  0  0  0  0  0
  139.2030   74.8570  221.0980 C   0  0  0  0  0  0  0  0  0  0  0  0
  139.7000   74.7010  219.8660 C   0  0  0  0  0  0  0  0  0  0  0  0
  138.9080   74.1020  218.8910 O   0  0  0  0  0  0  0  0  0  0  0  0
  141.0250   75.1400  219.5270 N   0  0  0  0  0  0  0  0  0  0  0  0
  141.6740   74.7590  218.2860 C   0  0  0  0  0  0  0  0  0  0  0  0
  142.9830   75.5450  218.2530 C   0  0  2  0  0  0  0  0  0  0  0  0
  144.0360   74.7360  217.8010 O   0  0  0  0  0  0  0  0  0  0  0  0
  143.2160   76.0140  219.6930 C   0  0  0  0  0  0  0  0  0  0  0  0
  141.8300   76.0430  220.3430 C   0  0  1  0  0  0  0  0  0  0  0  0
  141.2300   77.4570  220.3360 C   0  0  0  0  0  0  0  0  0  0  0  0
  140.3070   77.5810  221.3990 O   0  0  0  0  0  0  0  0  0  0  0  0
  140.9750   77.5070  222.6430 C   0  0  0  0  0  0  0  0  0  0  0  0
  141.4070   78.8790  223.0850 C   0  0  0  0  0  0  0  0  0  0  0  0
  140.4430   79.8340  223.4540 C   0  0  0  0  0  0  0  0  0  0  0  0
  140.8380   81.1210  223.8310 C   0  0  0  0  0  0  0  0  0  0  0  0
  142.1930   81.4650  223.8400 C   0  0  0  0  0  0  0  0  0  0  0  0
  143.1560   80.5210  223.4710 C   0  0  0  0  0  0  0  0  0  0  0  0
  142.7670   79.2320  223.0920 C   0  0  0  0  0  0  0  0  0  0  0  0
  139.6260   71.5060  222.9600 C   0  0  0  0  0  0  0  0  0  0  0  0
  139.1530   70.1900  222.8250 C   0  0  0  0  0  0  0  0  0  0  0  0
  139.2720   69.2980  223.8930 C   0  0  0  0  0  0  0  0  0  0  0  0
  139.8590   69.7180  225.0910 C   0  0  0  0  0  0  0  0  0  0  0  0
  139.9950   68.8480  226.1840 C   0  0  0  0  0  0  0  0  0  0  0  0
  140.5900   69.3000  227.3680 C   0  0  0  0  0  0  0  0  0  0  0  0
  140.7600   68.2110  228.7330 Cl  0  0  0  0  0  0  0  0  0  0  0  0
  141.0450   70.6200  227.4670 C   0  0  0  0  0  0  0  0  0  0  0  0
  140.9140   71.4920  226.3810 C   0  0  0  0  0  0  0  0  0  0  0  0
  140.3240   71.0470  225.1930 C   0  0  0  0  0  0  0  0  0  0  0  0
  140.1930   71.8930  224.1370 N   0  0  0  0  0  0  0  0  0  0  0  0
  139.5350   74.2140  223.1190 H   0  0  0  0  0  0  0  0  0  0  0  0
  138.6135   75.7578  221.3239 H   0  0  0  0  0  0  0  0  0  0  0  0
  138.6270   73.1330  218.9710 H   0  0  0  0  0  0  0  0  0  0  0  0
  141.8744   73.6775  218.2731 H   0  0  0  0  0  0  0  0  0  0  0  0
  141.0438   74.9783  217.4115 H   0  0  0  0  0  0  0  0  0  0  0  0
  142.9335   76.3973  217.5594 H   0  0  0  0  0  0  0  0  0  0  0  0
  144.8430   75.3120  217.7770 H   0  0  0  0  0  0  0  0  0  0  0  0
  143.8751   75.3116  220.2242 H   0  0  0  0  0  0  0  0  0  0  0  0
  143.7036   76.9994  219.7274 H   0  0  0  0  0  0  0  0  0  0  0  0
  141.8696   75.7406  221.3999 H   0  0  0  0  0  0  0  0  0  0  0  0
  142.0340   78.1974  220.4600 H   0  0  0  0  0  0  0  0  0  0  0  0
  140.7149   77.6326  219.3800 H   0  0  0  0  0  0  0  0  0  0  0  0
  140.2952   77.0805  223.3953 H   0  0  0  0  0  0  0  0  0  0  0  0
  141.8644   76.8689  222.5347 H   0  0  0  0  0  0  0  0  0  0  0  0
  139.3757   79.5678  223.4460 H   0  0  0  0  0  0  0  0  0  0  0  0
  140.0810   81.8645  224.1211 H   0  0  0  0  0  0  0  0  0  0  0  0
  142.5014   82.4781  224.1373 H   0  0  0  0  0  0  0  0  0  0  0  0
  144.2219   80.7926  223.4787 H   0  0  0  0  0  0  0  0  0  0  0  0
  143.5273   78.4931  222.7988 H   0  0  0  0  0  0  0  0  0  0  0  0
  138.6907   69.8635  221.8818 H   0  0  0  0  0  0  0  0  0  0  0  0
  138.9044   68.2661  223.7921 H   0  0  0  0  0  0  0  0  0  0  0  0
  139.6342   67.8114  226.1104 H   0  0  0  0  0  0  0  0  0  0  0  0
  141.5067   70.9726  228.4011 H   0  0  0  0  0  0  0  0  0  0  0  0
  141.2750   72.5280  226.4611 H   0  0  0  0  0  0  0  0  0  0  0  0
  1  2  2  0
  2  3  1  0
  3  4  1  0
  4  5  2  0
  5  6  1  0
  5  7  1  0
  7  8  1  0
  8  9  1  0
  9 10  1  0
  9 11  1  0
 11 12  1  0
 12 13  1  0
 13 14  1  0
 14 15  1  0
 15 16  1  0
 16 17  2  0
 17 18  1  0
 18 19  2  0
 19 20  1  0
 20 21  2  0
  2 22  1  0
 22 23  2  0
 23 24  1  0
 24 25  2  0
 25 26  1  0
 26 27  2  0
 27 28  1  0
 27 29  1  0
 29 30  2  0
 30 31  1  0
 31 32  2  0
 12  7  1  0
 21 16  1  0
 32 22  1  0
 31 25  1  0
  3 33  1  0
  4 34  1  0
  6 35  1  0
  8 36  1  0
  8 37  1  0
  9 38  1  6
 10 39  1  0
 11 40  1  0
 11 41  1  0
 12 42  1  1
 13 43  1  0
 13 44  1  0
 15 45  1  0
 15 46  1  0
 17 47  1  0
 18 48  1  0
 19 49  1  0
 20 50  1  0
 21 51  1  0
 23 52  1  0
 24 53  1  0
 26 54  1  0
 29 55  1  0
 30 56  1  0
M  END
>  <meeko>  (1) 
{"free_energy": -8.3, "intermolecular_energy": -11.29, "internal_energy": -2.14, "cluster_size": 7, "cluster_id": 1, "rank_in_cluster": 3}

$$$$

     RDKit          3D

 56 59  0  0  0  0  0  0  0  0999 V2000
  139.1310   71.9690  220.7010 O   0  0  0  0  0  0  0  0  0  0  0  0
  139.3120   72.4010  221.8740 C   0  0  0  0  0  0  0  0  0  0  0  0
  139.3090   73.8150  222.1230 N   0  0  0  0  0  0  0  0  0  0  0  0
  139.0310   74.7690  221.0870 C   0  0  0  0  0  0  0  0  0  0  0  0
  139.5630   74.6660  219.8640 C   0  0  0  0  0  0  0  0  0  0  0  0
  138.8230   74.0520  218.8580 O   0  0  0  0  0  0  0  0  0  0  0  0
  140.8720   75.1760  219.5650 N   0  0  0  0  0  0  0  0  0  0  0  0
  141.3790   75.2630  218.2090 C   0  0  0  0  0  0  0  0  0  0  0  0
  142.7200   75.9840  218.3210 C   0  0  2  0  0  0  0  0  0  0  0  0
  143.6800   75.3780  217.4970 O   0  0  0  0  0  0  0  0  0  0  0  0
  143.1130   75.8930  219.7990 C   0  0  0  0  0  0  0  0  0  0  0  0
  141.7980   75.7070  220.5600 C   0  0  1  0  0  0  0  0  0  0  0  0
  141.2780   77.0360  221.1280 C   0  0  0  0  0  0  0  0  0  0  0  0
  140.6330   76.8000  222.3630 O   0  0  0  0  0  0  0  0  0  0  0  0
  139.8110   77.8980  222.7080 C   0  0  0  0  0  0  0  0  0  0  0  0
  140.6510   79.1230  222.9470 C   0  0  0  0  0  0  0  0  0  0  0  0
  141.8560   79.0190  223.6620 C   0  0  0  0  0  0  0  0  0  0  0  0
  142.6220   80.1610  223.9180 C   0  0  0  0  0  0  0  0  0  0  0  0
  142.1910   81.4110  223.4650 C   0  0  0  0  0  0  0  0  0  0  0  0
  140.9910   81.5220  222.7560 C   0  0  0  0  0  0  0  0  0  0  0  0
  140.2210   80.3830  222.4980 C   0  0  0  0  0  0  0  0  0  0  0  0
  139.5090   71.4470  222.9860 C   0  0  0  0  0  0  0  0  0  0  0  0
  139.1070   70.1050  222.8730 C   0  0  0  0  0  0  0  0  0  0  0  0
  139.2940   69.2330  223.9490 C   0  0  0  0  0  0  0  0  0  0  0  0
  139.8790   69.6990  225.1320 C   0  0  0  0  0  0  0  0  0  0  0  0
  140.0820   68.8500  226.2310 C   0  0  0  0  0  0  0  0  0  0  0  0
  140.6720   69.3480  227.3990 C   0  0  0  0  0  0  0  0  0  0  0  0
  140.9260   68.2860  228.7720 Cl  0  0  0  0  0  0  0  0  0  0  0  0
  141.0550   70.6910  227.4750 C   0  0  0  0  0  0  0  0  0  0  0  0
  140.8560   71.5430  226.3830 C   0  0  0  0  0  0  0  0  0  0  0  0
  140.2700   71.0520  225.2110 C   0  0  0  0  0  0  0  0  0  0  0  0
  140.0750   71.8780  224.1480 N   0  0  0  0  0  0  0  0  0  0  0  0
  139.5430   74.1590  223.0810 H   0  0  0  0  0  0  0  0  0  0  0  0
  138.3589   75.6118  221.3059 H   0  0  0  0  0  0  0  0  0  0  0  0
  138.5190   73.0910  218.9470 H   0  0  0  0  0  0  0  0  0  0  0  0
  141.5173   74.2575  217.7849 H   0  0  0  0  0  0  0  0  0  0  0  0
  140.6824   75.7971  217.5461 H   0  0  0  0  0  0  0  0  0  0  0  0
  142.6521   77.0311  217.9908 H   0  0  0  0  0  0  0  0  0  0  0  0
  144.5660   75.6710  217.8350 H   0  0  0  0  0  0  0  0  0  0  0  0
  143.7797   75.0344  219.9675 H   0  0  0  0  0  0  0  0  0  0  0  0
  143.6553   76.7897  220.1335 H   0  0  0  0  0  0  0  0  0  0  0  0
  141.9201   75.0402  221.4263 H   0  0  0  0  0  0  0  0  0  0  0  0
  142.1220   77.7247  221.2808 H   0  0  0  0  0  0  0  0  0  0  0  0
  140.5637   77.4827  220.4207 H   0  0  0  0  0  0  0  0  0  0  0  0
  139.1060   78.0957  221.8871 H   0  0  0  0  0  0  0  0  0  0  0  0
  139.2590   77.6570  223.6284 H   0  0  0  0  0  0  0  0  0  0  0  0
  142.1978   78.0371  224.0213 H   0  0  0  0  0  0  0  0  0  0  0  0
  143.5655   80.0752  224.4770 H   0  0  0  0  0  0  0  0  0  0  0  0
  142.7959   82.3075  223.6663 H   0  0  0  0  0  0  0  0  0  0  0  0
  140.6520   82.5063  222.4006 H   0  0  0  0  0  0  0  0  0  0  0  0
  139.2762   80.4741  221.9420 H   0  0  0  0  0  0  0  0  0  0  0  0
  138.6472   69.7426  221.9417 H   0  0  0  0  0  0  0  0  0  0  0  0
  138.9818   68.1815  223.8662 H   0  0  0  0  0  0  0  0  0  0  0  0
  139.7779   67.7944  226.1748 H   0  0  0  0  0  0  0  0  0  0  0  0
  141.5142   71.0788  228.3963 H   0  0  0  0  0  0  0  0  0  0  0  0
  141.1601   72.5983  226.4458 H   0  0  0  0  0  0  0  0  0  0  0  0
  1  2  2  0
  2  3  1  0
  3  4  1  0
  4  5  2  0
  5  6  1  0
  5  7  1  0
  7  8  1  0
  8  9  1  0
  9 10  1  0
  9 11  1  0
 11 12  1  0
 12 13  1  0
 13 14  1  0
 14 15  1  0
 15 16  1  0
 16 17  2  0
 17 18  1  0
 18 19  2  0
 19 20  1  0
 20 21  2  0
  2 22  1  0
 22 23  2  0
 23 24  1  0
 24 25  2  0
 25 26  1  0
 26 27  2  0
 27 28  1  0
 27 29  1  0
 29 30  2  0
 30 31  1  0
 31 32  2  0
 12  7  1  0
 21 16  1  0
 32 22  1  0
 31 25  1  0
  3 33  1  0
  4 34  1  0
  6 35  1  0
  8 36  1  0
  8 37  1  0
  9 38  1  6
 10 39  1  0
 11 40  1  0
 11 41  1  0
 12 42  1  1
 13 43  1  0
 13 44  1  0
 15 45  1  0
 15 46  1  0
 17 47  1  0
 18 48  1  0
 19 49  1  0
 20 50  1  0
 21 51  1  0
 23 52  1  0
 24 53  1  0
 26 54  1  0
 29 55  1  0
 30 56  1  0
M  END
>  <meeko>  (2) 
{"free_energy": -8.16, "intermolecular_energy": -11.14, "internal_energy": -2.2, "cluster_size": 7, "cluster_id": 1, "rank_in_cluster": 6}

$$$$

     RDKit          3D

 56 59  0  0  0  0  0  0  0  0999 V2000
  140.4280   72.8860  220.9200 O   0  0  0  0  0  0  0  0  0  0  0  0
  139.7200   72.9500  221.9630 C   0  0  0  0  0  0  0  0  0  0  0  0
  138.7940   74.0340  222.1340 N   0  0  0  0  0  0  0  0  0  0  0  0
  138.5870   75.0240  221.1150 C   0  0  0  0  0  0  0  0  0  0  0  0
  139.6050   75.6010  220.4680 C   0  0  0  0  0  0  0  0  0  0  0  0
  140.0160   75.0700  219.2480 O   0  0  0  0  0  0  0  0  0  0  0  0
  140.2800   76.7540  220.9970 N   0  0  0  0  0  0  0  0  0  0  0  0
  140.0710   77.2190  222.3550 C   0  0  0  0  0  0  0  0  0  0  0  0
  141.0710   78.3560  222.5540 C   0  0  2  0  0  0  0  0  0  0  0  0
  140.4750   79.4260  223.2380 O   0  0  0  0  0  0  0  0  0  0  0  0
  141.5090   78.7680  221.1450 C   0  0  0  0  0  0  0  0  0  0  0  0
  141.2710   77.5370  220.2660 C   0  0  1  0  0  0  0  0  0  0  0  0
  142.5600   76.7260  220.0660 C   0  0  0  0  0  0  0  0  0  0  0  0
  142.2640   75.3460  220.1430 O   0  0  0  0  0  0  0  0  0  0  0  0
  142.8620   74.6530  219.0660 C   0  0  0  0  0  0  0  0  0  0  0  0
  144.0790   73.9040  219.5390 C   0  0  0  0  0  0  0  0  0  0  0  0
  144.3360   72.6080  219.0600 C   0  0  0  0  0  0  0  0  0  0  0  0
  145.4460   71.8950  219.5230 C   0  0  0  0  0  0  0  0  0  0  0  0
  146.3030   72.4680  220.4680 C   0  0  0  0  0  0  0  0  0  0  0  0
  146.0510   73.7550  220.9510 C   0  0  0  0  0  0  0  0  0  0  0  0
  144.9420   74.4720  220.4910 C   0  0  0  0  0  0  0  0  0  0  0  0
  139.8350   71.8970  222.9960 C   0  0  0  0  0  0  0  0  0  0  0  0
  139.4300   70.5760  222.7370 C   0  0  0  0  0  0  0  0  0  0  0  0
  139.5390   69.6090  223.7390 C   0  0  0  0  0  0  0  0  0  0  0  0
  140.0480   69.9590  224.9950 C   0  0  0  0  0  0  0  0  0  0  0  0
  140.1720   69.0120  226.0240 C   0  0  0  0  0  0  0  0  0  0  0  0
  140.6880   69.3950  227.2680 C   0  0  0  0  0  0  0  0  0  0  0  0
  140.8430   68.2120  228.5530 Cl  0  0  0  0  0  0  0  0  0  0  0  0
  141.0770   70.7220  227.4890 C   0  0  0  0  0  0  0  0  0  0  0  0
  140.9570   71.6700  226.4670 C   0  0  0  0  0  0  0  0  0  0  0  0
  140.4460   71.2940  225.2210 C   0  0  0  0  0  0  0  0  0  0  0  0
  140.3270   72.2140  224.2260 N   0  0  0  0  0  0  0  0  0  0  0  0
  138.2770   74.1180  223.0370 H   0  0  0  0  0  0  0  0  0  0  0  0
  137.5583   75.3171  220.8584 H   0  0  0  0  0  0  0  0  0  0  0  0
  140.6180   74.2570  219.2100 H   0  0  0  0  0  0  0  0  0  0  0  0
  139.0416   77.5854  222.4820 H   0  0  0  0  0  0  0  0  0  0  0  0
  140.2167   76.4134  223.0897 H   0  0  0  0  0  0  0  0  0  0  0  0
  141.9318   78.0446  223.1640 H   0  0  0  0  0  0  0  0  0  0  0  0
  139.4960   79.2640  223.2160 H   0  0  0  0  0  0  0  0  0  0  0  0
  140.9075   79.6171  220.7884 H   0  0  0  0  0  0  0  0  0  0  0  0
  142.5611   79.0884  221.1221 H   0  0  0  0  0  0  0  0  0  0  0  0
  140.9339   77.8155  219.2566 H   0  0  0  0  0  0  0  0  0  0  0  0
  142.9880   76.9549  219.0788 H   0  0  0  0  0  0  0  0  0  0  0  0
  143.2853   76.9902  220.8497 H   0  0  0  0  0  0  0  0  0  0  0  0
  142.1373   73.9399  218.6461 H   0  0  0  0  0  0  0  0  0  0  0  0
  143.1647   75.3789  218.2970 H   0  0  0  0  0  0  0  0  0  0  0  0
  143.6621   72.1534  218.3189 H   0  0  0  0  0  0  0  0  0  0  0  0
  145.6455   70.8820  219.1435 H   0  0  0  0  0  0  0  0  0  0  0  0
  147.1757   71.9055  220.8313 H   0  0  0  0  0  0  0  0  0  0  0  0
  146.7260   74.2046  221.6941 H   0  0  0  0  0  0  0  0  0  0  0  0
  144.7448   75.4835  220.8756 H   0  0  0  0  0  0  0  0  0  0  0  0
  139.0289   70.3050  221.7493 H   0  0  0  0  0  0  0  0  0  0  0  0
  139.2251   68.5734  223.5412 H   0  0  0  0  0  0  0  0  0  0  0  0
  139.8640   67.9699  225.8531 H   0  0  0  0  0  0  0  0  0  0  0  0
  141.4781   71.0199  228.4690 H   0  0  0  0  0  0  0  0  0  0  0  0
  141.2647   72.7112  226.6438 H   0  0  0  0  0  0  0  0  0  0  0  0
  1  2  2  0
  2  3  1  0
  3  4  1  0
  4  5  2  0
  5  6  1  0
  5  7  1  0
  7  8  1  0
  8  9  1  0
  9 10  1  0
  9 11  1  0
 11 12  1  0
 12 13  1  0
 13 14  1  0
 14 15  1  0
 15 16  1  0
 16 17  2  0
 17 18  1  0
 18 19  2  0
 19 20  1  0
 20 21  2  0
  2 22  1  0
 22 23  2  0
 23 24  1  0
 24 25  2  0
 25 26  1  0
 26 27  2  0
 27 28  1  0
 27 29  1  0
 29 30  2  0
 30 31  1  0
 31 32  2  0
 12  7  1  0
 21 16  1  0
 32 22  1  0
 31 25  1  0
  3 33  1  0
  4 34  1  0
  6 35  1  0
  8 36  1  0
  8 37  1  0
  9 38  1  1
 10 39  1  0
 11 40  1  0
 11 41  1  0
 12 42  1  6
 13 43  1  0
 13 44  1  0
 15 45  1  0
 15 46  1  0
 17 47  1  0
 18 48  1  0
 19 49  1  0
 20 50  1  0
 21 51  1  0
 23 52  1  0
 24 53  1  0
 26 54  1  0
 29 55  1  0
 30 56  1  0
M  END
>  <meeko>  (3) 
{"free_energy": -7.53, "intermolecular_energy": -10.51, "internal_energy": -2.53, "cluster_size": 2, "cluster_id": 5, "rank_in_cluster": 1}

$$$$

     RDKit          3D

 56 59  0  0  0  0  0  0  0  0999 V2000
  140.2520   74.1280  222.0640 O   0  0  0  0  0  0  0  0  0  0  0  0
  140.2480   72.8940  221.7970 C   0  0  0  0  0  0  0  0  0  0  0  0
  140.3180   72.4570  220.4320 N   0  0  0  0  0  0  0  0  0  0  0  0
  140.4680   73.3820  219.3440 C   0  0  0  0  0  0  0  0  0  0  0  0
  141.5880   73.4450  218.6160 C   0  0  0  0  0  0  0  0  0  0  0  0
  141.4900   73.4210  217.2270 O   0  0  0  0  0  0  0  0  0  0  0  0
  142.8840   73.5420  219.2290 N   0  0  0  0  0  0  0  0  0  0  0  0
  144.0470   72.8570  218.6980 C   0  0  0  0  0  0  0  0  0  0  0  0
  145.2240   73.3370  219.5430 C   0  0  2  0  0  0  0  0  0  0  0  0
  146.0740   72.2680  219.8620 O   0  0  0  0  0  0  0  0  0  0  0  0
  144.6020   73.9520  220.8010 C   0  0  0  0  0  0  0  0  0  0  0  0
  143.1840   74.3650  220.3960 C   0  0  1  0  0  0  0  0  0  0  0  0
  143.1090   75.8570  220.0380 C   0  0  0  0  0  0  0  0  0  0  0  0
  141.8460   76.3680  220.4120 O   0  0  0  0  0  0  0  0  0  0  0  0
  141.7720   77.7530  220.1350 C   0  0  0  0  0  0  0  0  0  0  0  0
  141.8180   78.5430  221.4140 C   0  0  0  0  0  0  0  0  0  0  0  0
  141.4340   77.9420  222.6250 C   0  0  0  0  0  0  0  0  0  0  0  0
  141.4420   78.6840  223.8110 C   0  0  0  0  0  0  0  0  0  0  0  0
  141.8280   80.0270  223.7950 C   0  0  0  0  0  0  0  0  0  0  0  0
  142.2070   80.6320  222.5940 C   0  0  0  0  0  0  0  0  0  0  0  0
  142.2010   79.8950  221.4050 C   0  0  0  0  0  0  0  0  0  0  0  0
  140.1880   71.9060  222.8960 C   0  0  0  0  0  0  0  0  0  0  0  0
  139.6310   70.6300  222.6980 C   0  0  0  0  0  0  0  0  0  0  0  0
  139.5760   69.7260  223.7610 C   0  0  0  0  0  0  0  0  0  0  0  0
  140.0740   70.0930  225.0160 C   0  0  0  0  0  0  0  0  0  0  0  0
  140.0350   69.2080  226.1050 C   0  0  0  0  0  0  0  0  0  0  0  0
  140.5450   69.6060  227.3480 C   0  0  0  0  0  0  0  0  0  0  0  0
  140.4960   68.5000  228.7080 Cl  0  0  0  0  0  0  0  0  0  0  0  0
  141.0870   70.8860  227.5070 C   0  0  0  0  0  0  0  0  0  0  0  0
  141.1300   71.7720  226.4250 C   0  0  0  0  0  0  0  0  0  0  0  0
  140.6260   71.3810  225.1800 C   0  0  0  0  0  0  0  0  0  0  0  0
  140.6650   72.2410  224.1280 N   0  0  0  0  0  0  0  0  0  0  0  0
  140.2290   71.4380  220.2230 H   0  0  0  0  0  0  0  0  0  0  0  0
  139.6360   74.0597  219.1019 H   0  0  0  0  0  0  0  0  0  0  0  0
  140.7490   73.9170  216.7480 H   0  0  0  0  0  0  0  0  0  0  0  0
  143.9267   71.7675  218.7900 H   0  0  0  0  0  0  0  0  0  0  0  0
  144.1961   73.0739  217.6299 H   0  0  0  0  0  0  0  0  0  0  0  0
  145.8438   74.0700  219.0058 H   0  0  0  0  0  0  0  0  0  0  0  0
  145.7490   71.8980  220.7240 H   0  0  0  0  0  0  0  0  0  0  0  0
  144.5695   73.2125  221.6147 H   0  0  0  0  0  0  0  0  0  0  0  0
  145.1870   74.8078  221.1690 H   0  0  0  0  0  0  0  0  0  0  0  0
  142.4666   74.2181  221.2168 H   0  0  0  0  0  0  0  0  0  0  0  0
  143.8990   76.4030  220.5745 H   0  0  0  0  0  0  0  0  0  0  0  0
  143.2486   75.9815  218.9540 H   0  0  0  0  0  0  0  0  0  0  0  0
  142.6217   78.0420  219.4990 H   0  0  0  0  0  0  0  0  0  0  0  0
  140.8251   77.9647  219.6168 H   0  0  0  0  0  0  0  0  0  0  0  0
  141.1265   76.8860  222.6404 H   0  0  0  0  0  0  0  0  0  0  0  0
  141.1440   78.2095  224.7576 H   0  0  0  0  0  0  0  0  0  0  0  0
  141.8335   80.6083  224.7288 H   0  0  0  0  0  0  0  0  0  0  0  0
  142.5105   81.6893  222.5834 H   0  0  0  0  0  0  0  0  0  0  0  0
  142.4969   80.3750  220.4605 H   0  0  0  0  0  0  0  0  0  0  0  0
  139.2403   70.3452  221.7100 H   0  0  0  0  0  0  0  0  0  0  0  0
  139.1416   68.7265  223.6118 H   0  0  0  0  0  0  0  0  0  0  0  0
  139.6045   68.2031  225.9827 H   0  0  0  0  0  0  0  0  0  0  0  0
  141.4807   71.1968  228.4860 H   0  0  0  0  0  0  0  0  0  0  0  0
  141.5602   72.7762  226.5533 H   0  0  0  0  0  0  0  0  0  0  0  0
  1  2  2  0
  2  3  1  0
  3  4  1  0
  4  5  2  0
  5  6  1  0
  5  7  1  0
  7  8  1  0
  8  9  1  0
  9 10  1  0
  9 11  1  0
 11 12  1  0
 12 13  1  0
 13 14  1  0
 14 15  1  0
 15 16  1  0
 16 17  2  0
 17 18  1  0
 18 19  2  0
 19 20  1  0
 20 21  2  0
  2 22  1  0
 22 23  2  0
 23 24  1  0
 24 25  2  0
 25 26  1  0
 26 27  2  0
 27 28  1  0
 27 29  1  0
 29 30  2  0
 30 31  1  0
 31 32  2  0
 12  7  1  0
 21 16  1  0
 32 22  1  0
 31 25  1  0
  3 33  1  0
  4 34  1  0
  6 35  1  0
  8 36  1  0
  8 37  1  0
  9 38  1  6
 10 39  1  0
 11 40  1  0
 11 41  1  0
 12 42  1  1
 13 43  1  0
 13 44  1  0
 15 45  1  0
 15 46  1  0
 17 47  1  0
 18 48  1  0
 19 49  1  0
 20 50  1  0
 21 51  1  0
 23 52  1  0
 24 53  1  0
 26 54  1  0
 29 55  1  0
 30 56  1  0
M  END
>  <meeko>  (4) 
{"free_energy": -8.83, "intermolecular_energy": -11.81, "internal_energy": -1.55, "cluster_size": 7, "cluster_id": 1, "rank_in_cluster": 1}

$$$$

     RDKit          3D

 56 59  0  0  0  0  0  0  0  0999 V2000
  141.6300   72.1150  221.2960 O   0  0  0  0  0  0  0  0  0  0  0  0
  140.9070   73.0130  221.8110 C   0  0  0  0  0  0  0  0  0  0  0  0
  139.8770   72.6540  222.7450 N   0  0  0  0  0  0  0  0  0  0  0  0
  139.6820   71.2990  223.1780 C   0  0  0  0  0  0  0  0  0  0  0  0
  139.3190   70.3280  222.3330 C   0  0  0  0  0  0  0  0  0  0  0  0
  140.1140   70.0740  221.2180 O   0  0  0  0  0  0  0  0  0  0  0  0
  138.1360   69.5420  222.5500 N   0  0  0  0  0  0  0  0  0  0  0  0
  137.7570   68.4530  221.6700 C   0  0  0  0  0  0  0  0  0  0  0  0
  136.5460   67.7990  222.3300 C   0  0  2  0  0  0  0  0  0  0  0  0
  135.5670   67.4880  221.3740 O   0  0  0  0  0  0  0  0  0  0  0  0
  136.0290   68.8230  223.3460 C   0  0  0  0  0  0  0  0  0  0  0  0
  137.2340   69.7060  223.6840 C   0  0  1  0  0  0  0  0  0  0  0  0
  137.9150   69.2590  224.9870 C   0  0  0  0  0  0  0  0  0  0  0  0
  138.8230   68.2130  224.7070 O   0  0  0  0  0  0  0  0  0  0  0  0
  139.6240   67.9400  225.8400 C   0  0  0  0  0  0  0  0  0  0  0  0
  140.1070   69.2230  226.4590 C   0  0  0  0  0  0  0  0  0  0  0  0
  139.6340   69.6140  227.7230 C   0  0  0  0  0  0  0  0  0  0  0  0
  140.0530   70.8240  228.2860 C   0  0  0  0  0  0  0  0  0  0  0  0
  140.9410   71.6500  227.5930 C   0  0  0  0  0  0  0  0  0  0  0  0
  141.4120   71.2690  226.3330 C   0  0  0  0  0  0  0  0  0  0  0  0
  140.9960   70.0610  225.7650 C   0  0  0  0  0  0  0  0  0  0  0  0
  141.1380   74.4320  221.4630 C   0  0  0  0  0  0  0  0  0  0  0  0
  141.9810   74.7910  220.3970 C   0  0  0  0  0  0  0  0  0  0  0  0
  142.1900   76.1400  220.1040 C   0  0  0  0  0  0  0  0  0  0  0  0
  141.5600   77.1270  220.8710 C   0  0  0  0  0  0  0  0  0  0  0  0
  141.7470   78.4920  220.6030 C   0  0  0  0  0  0  0  0  0  0  0  0
  141.1000   79.4540  221.3880 C   0  0  0  0  0  0  0  0  0  0  0  0
  141.3330   81.1600  221.0520 Cl  0  0  0  0  0  0  0  0  0  0  0  0
  140.2710   79.0570  222.4440 C   0  0  0  0  0  0  0  0  0  0  0  0
  140.0790   77.6980  222.7160 C   0  0  0  0  0  0  0  0  0  0  0  0
  140.7200   76.7310  221.9330 C   0  0  0  0  0  0  0  0  0  0  0  0
  140.5370   75.4100  222.1960 N   0  0  0  0  0  0  0  0  0  0  0  0
  139.2350   73.3980  223.0980 H   0  0  0  0  0  0  0  0  0  0  0  0
  139.8361   71.0516  224.2387 H   0  0  0  0  0  0  0  0  0  0  0  0
  140.8850   70.6830  220.9780 H   0  0  0  0  0  0  0  0  0  0  0  0
  137.4913   68.8378  220.6744 H   0  0  0  0  0  0  0  0  0  0  0  0
  138.5804   67.7377  221.5274 H   0  0  0  0  0  0  0  0  0  0  0  0
  136.8083   66.8493  222.8191 H   0  0  0  0  0  0  0  0  0  0  0  0
  135.0740   68.3300  221.1920 H   0  0  0  0  0  0  0  0  0  0  0  0
  135.2210   69.4265  222.9068 H   0  0  0  0  0  0  0  0  0  0  0  0
  135.6145   68.3369  224.2415 H   0  0  0  0  0  0  0  0  0  0  0  0
  136.9400   70.7537  223.8448 H   0  0  0  0  0  0  0  0  0  0  0  0
  138.4579   70.1083  225.4274 H   0  0  0  0  0  0  0  0  0  0  0  0
  137.1532   68.9042  225.6968 H   0  0  0  0  0  0  0  0  0  0  0  0
  139.0298   67.3819  226.5786 H   0  0  0  0  0  0  0  0  0  0  0  0
  140.4939   67.3435  225.5280 H   0  0  0  0  0  0  0  0  0  0  0  0
  138.9329   68.9673  228.2709 H   0  0  0  0  0  0  0  0  0  0  0  0
  139.6823   71.1257  229.2767 H   0  0  0  0  0  0  0  0  0  0  0  0
  141.2698   72.6004  228.0387 H   0  0  0  0  0  0  0  0  0  0  0  0
  142.1108   71.9205  225.7878 H   0  0  0  0  0  0  0  0  0  0  0  0
  141.3658   69.7658  224.7720 H   0  0  0  0  0  0  0  0  0  0  0  0
  142.4739   74.0125  219.7962 H   0  0  0  0  0  0  0  0  0  0  0  0
  142.8490   76.4269  219.2713 H   0  0  0  0  0  0  0  0  0  0  0  0
  142.4016   78.8058  219.7766 H   0  0  0  0  0  0  0  0  0  0  0  0
  139.7689   79.8160  223.0619 H   0  0  0  0  0  0  0  0  0  0  0  0
  139.4247   77.3897  223.5447 H   0  0  0  0  0  0  0  0  0  0  0  0
  1  2  2  0
  2  3  1  0
  3  4  1  0
  4  5  2  0
  5  6  1  0
  5  7  1  0
  7  8  1  0
  8  9  1  0
  9 10  1  0
  9 11  1  0
 11 12  1  0
 12 13  1  0
 13 14  1  0
 14 15  1  0
 15 16  1  0
 16 17  2  0
 17 18  1  0
 18 19  2  0
 19 20  1  0
 20 21  2  0
  2 22  1  0
 22 23  2  0
 23 24  1  0
 24 25  2  0
 25 26  1  0
 26 27  2  0
 27 28  1  0
 27 29  1  0
 29 30  2  0
 30 31  1  0
 31 32  2  0
 12  7  1  0
 21 16  1  0
 32 22  1  0
 31 25  1  0
  3 33  1  0
  4 34  1  0
  6 35  1  0
  8 36  1  0
  8 37  1  0
  9 38  1  1
 10 39  1  0
 11 40  1  0
 11 41  1  0
 12 42  1  1
 13 43  1  0
 13 44  1  0
 15 45  1  0
 15 46  1  0
 17 47  1  0
 18 48  1  0
 19 49  1  0
 20 50  1  0
 21 51  1  0
 23 52  1  0
 24 53  1  0
 26 54  1  0
 29 55  1  0
 30 56  1  0
M  END
>  <meeko>  (5) 
{"free_energy": -7.62, "intermolecular_energy": -10.6, "internal_energy": -2.5, "cluster_size": 2, "cluster_id": 3, "rank_in_cluster": 2}

$$$$

     RDKit          3D

 56 59  0  0  0  0  0  0  0  0999 V2000
  140.5900   73.8910  222.1710 O   0  0  0  0  0  0  0  0  0  0  0  0
  139.8040   72.9040  222.1130 C   0  0  0  0  0  0  0  0  0  0  0  0
  138.8710   72.7960  221.0280 N   0  0  0  0  0  0  0  0  0  0  0  0
  138.8450   73.7430  219.9500 C   0  0  0  0  0  0  0  0  0  0  0  0
  139.1400   75.0350  220.1320 C   0  0  0  0  0  0  0  0  0  0  0  0
  140.0330   75.6510  219.2590 O   0  0  0  0  0  0  0  0  0  0  0  0
  138.5560   75.7990  221.1990 N   0  0  0  0  0  0  0  0  0  0  0  0
  137.4360   75.3100  221.9810 C   0  0  0  0  0  0  0  0  0  0  0  0
  137.2280   76.3440  223.0840 C   0  0  2  0  0  0  0  0  0  0  0  0
  135.8610   76.6010  223.2720 O   0  0  0  0  0  0  0  0  0  0  0  0
  137.9730   77.5990  222.6180 C   0  0  0  0  0  0  0  0  0  0  0  0
  139.0470   77.0990  221.6460 C   0  0  1  0  0  0  0  0  0  0  0  0
  140.4110   76.9530  222.3360 C   0  0  0  0  0  0  0  0  0  0  0  0
  141.4390   77.0460  221.3700 O   0  0  0  0  0  0  0  0  0  0  0  0
  141.4590   78.3370  220.7950 C   0  0  0  0  0  0  0  0  0  0  0  0
  141.5880   79.3840  221.8680 C   0  0  0  0  0  0  0  0  0  0  0  0
  142.7240   79.4050  222.6950 C   0  0  0  0  0  0  0  0  0  0  0  0
  142.8320   80.3530  223.7170 C   0  0  0  0  0  0  0  0  0  0  0  0
  141.8090   81.2830  223.9220 C   0  0  0  0  0  0  0  0  0  0  0  0
  140.6750   81.2660  223.1050 C   0  0  0  0  0  0  0  0  0  0  0  0
  140.5610   80.3190  222.0820 C   0  0  0  0  0  0  0  0  0  0  0  0
  139.8630   71.8560  223.1560 C   0  0  0  0  0  0  0  0  0  0  0  0
  139.3590   70.5660  222.9190 C   0  0  0  0  0  0  0  0  0  0  0  0
  139.4160   69.6040  223.9310 C   0  0  0  0  0  0  0  0  0  0  0  0
  139.9720   69.9290  225.1730 C   0  0  0  0  0  0  0  0  0  0  0  0
  140.0460   68.9860  226.2100 C   0  0  0  0  0  0  0  0  0  0  0  0
  140.6110   69.3440  227.4410 C   0  0  0  0  0  0  0  0  0  0  0  0
  140.7040   68.1660  228.7370 Cl  0  0  0  0  0  0  0  0  0  0  0  0
  141.0980   70.6410  227.6400 C   0  0  0  0  0  0  0  0  0  0  0  0
  141.0290   71.5850  226.6100 C   0  0  0  0  0  0  0  0  0  0  0  0
  140.4680   71.2340  225.3760 C   0  0  0  0  0  0  0  0  0  0  0  0
  140.3980   72.1500  224.3740 N   0  0  0  0  0  0  0  0  0  0  0  0
  138.1730   72.0190  221.0390 H   0  0  0  0  0  0  0  0  0  0  0  0
  138.5739   73.3954  218.9422 H   0  0  0  0  0  0  0  0  0  0  0  0
  140.9310   75.9860  219.5830 H   0  0  0  0  0  0  0  0  0  0  0  0
  136.5355   75.2295  221.3545 H   0  0  0  0  0  0  0  0  0  0  0  0
  137.6308   74.3082  222.3915 H   0  0  0  0  0  0  0  0  0  0  0  0
  137.6095   75.9914  224.0536 H   0  0  0  0  0  0  0  0  0  0  0  0
  135.5320   77.0020  222.4250 H   0  0  0  0  0  0  0  0  0  0  0  0
  137.2838   78.2884  222.1083 H   0  0  0  0  0  0  0  0  0  0  0  0
  138.4114   78.1510  223.4624 H   0  0  0  0  0  0  0  0  0  0  0  0
  139.2060   77.8030  220.8159 H   0  0  0  0  0  0  0  0  0  0  0  0
  140.5333   77.7538  223.0801 H   0  0  0  0  0  0  0  0  0  0  0  0
  140.4659   75.9756  222.8376 H   0  0  0  0  0  0  0  0  0  0  0  0
  142.3139   78.4148  220.1072 H   0  0  0  0  0  0  0  0  0  0  0  0
  140.5191   78.4996  220.2472 H   0  0  0  0  0  0  0  0  0  0  0  0
  143.5304   78.6736  222.5379 H   0  0  0  0  0  0  0  0  0  0  0  0
  143.7237   80.3669  224.3609 H   0  0  0  0  0  0  0  0  0  0  0  0
  141.8963   82.0283  224.7263 H   0  0  0  0  0  0  0  0  0  0  0  0
  139.8707   81.9988  223.2669 H   0  0  0  0  0  0  0  0  0  0  0  0
  139.6654   80.3061  221.4435 H   0  0  0  0  0  0  0  0  0  0  0  0
  138.9216   70.3145  221.9415 H   0  0  0  0  0  0  0  0  0  0  0  0
  139.0240   68.5920  223.7512 H   0  0  0  0  0  0  0  0  0  0  0  0
  139.6609   67.9671  226.0564 H   0  0  0  0  0  0  0  0  0  0  0  0
  141.5366   70.9190  228.6097 H   0  0  0  0  0  0  0  0  0  0  0  0
  141.4153   72.6025  226.7694 H   0  0  0  0  0  0  0  0  0  0  0  0
  1  2  2  0
  2  3  1  0
  3  4  1  0
  4  5  2  0
  5  6  1  0
  5  7  1  0
  7  8  1  0
  8  9  1  0
  9 10  1  0
  9 11  1  0
 11 12  1  0
 12 13  1  0
 13 14  1  0
 14 15  1  0
 15 16  1  0
 16 17  2  0
 17 18  1  0
 18 19  2  0
 19 20  1  0
 20 21  2  0
  2 22  1  0
 22 23  2  0
 23 24  1  0
 24 25  2  0
 25 26  1  0
 26 27  2  0
 27 28  1  0
 27 29  1  0
 29 30  2  0
 30 31  1  0
 31 32  2  0
 12  7  1  0
 21 16  1  0
 32 22  1  0
 31 25  1  0
  3 33  1  0
  4 34  1  0
  6 35  1  0
  8 36  1  0
  8 37  1  0
  9 38  1  1
 10 39  1  0
 11 40  1  0
 11 41  1  0
 12 42  1  6
 13 43  1  0
 13 44  1  0
 15 45  1  0
 15 46  1  0
 17 47  1  0
 18 48  1  0
 19 49  1  0
 20 50  1  0
 21 51  1  0
 23 52  1  0
 24 53  1  0
 26 54  1  0
 29 55  1  0
 30 56  1  0
M  END
>  <meeko>  (6) 
{"free_energy": -7.53, "intermolecular_energy": -10.52, "internal_energy": -2.28, "cluster_size": 4, "cluster_id": 4, "rank_in_cluster": 3}

$$$$

     RDKit          3D

 56 59  0  0  0  0  0  0  0  0999 V2000
  139.0260   73.8480  220.9900 O   0  0  0  0  0  0  0  0  0  0  0  0
  140.0060   73.4100  221.6540 C   0  0  0  0  0  0  0  0  0  0  0  0
  141.3150   73.9610  221.4450 N   0  0  0  0  0  0  0  0  0  0  0  0
  141.5430   75.0580  220.5470 C   0  0  0  0  0  0  0  0  0  0  0  0
  140.7550   76.1380  220.5300 C   0  0  0  0  0  0  0  0  0  0  0  0
  139.6660   76.1640  219.6620 O   0  0  0  0  0  0  0  0  0  0  0  0
  141.0010   77.2660  221.3860 N   0  0  0  0  0  0  0  0  0  0  0  0
  141.8030   78.3990  220.9640 C   0  0  0  0  0  0  0  0  0  0  0  0
  141.6900   79.4200  222.0940 C   0  0  2  0  0  0  0  0  0  0  0  0
  142.9370   80.0050  222.3600 O   0  0  0  0  0  0  0  0  0  0  0  0
  141.1690   78.6380  223.3040 C   0  0  0  0  0  0  0  0  0  0  0  0
  140.4380   77.4250  222.7220 C   0  0  1  0  0  0  0  0  0  0  0  0
  138.9220   77.6600  222.6470 C   0  0  0  0  0  0  0  0  0  0  0  0
  138.3170   76.6030  221.9280 O   0  0  0  0  0  0  0  0  0  0  0  0
  136.9090   76.6960  222.0070 C   0  0  0  0  0  0  0  0  0  0  0  0
  136.3600   75.5840  222.8590 C   0  0  0  0  0  0  0  0  0  0  0  0
  135.8030   75.8730  224.1160 C   0  0  0  0  0  0  0  0  0  0  0  0
  135.3240   74.8390  224.9270 C   0  0  0  0  0  0  0  0  0  0  0  0
  135.4010   73.5130  224.4910 C   0  0  0  0  0  0  0  0  0  0  0  0
  135.9580   73.2190  223.2430 C   0  0  0  0  0  0  0  0  0  0  0  0
  136.4390   74.2490  222.4290 C   0  0  0  0  0  0  0  0  0  0  0  0
  139.7960   72.3440  222.6580 C   0  0  0  0  0  0  0  0  0  0  0  0
  138.7610   71.4040  222.5150 C   0  0  0  0  0  0  0  0  0  0  0  0
  138.5800   70.4190  223.4890 C   0  0  0  0  0  0  0  0  0  0  0  0
  139.4290   70.3720  224.6000 C   0  0  0  0  0  0  0  0  0  0  0  0
  139.2760   69.3950  225.5960 C   0  0  0  0  0  0  0  0  0  0  0  0
  140.1450   69.3750  226.6940 C   0  0  0  0  0  0  0  0  0  0  0  0
  139.9540   68.1540  227.9390 Cl  0  0  0  0  0  0  0  0  0  0  0  0
  141.1620   70.3310  226.8040 C   0  0  0  0  0  0  0  0  0  0  0  0
  141.3200   71.3070  225.8140 C   0  0  0  0  0  0  0  0  0  0  0  0
  140.4580   71.3310  224.7120 C   0  0  0  0  0  0  0  0  0  0  0  0
  140.6090   72.2800  223.7490 N   0  0  0  0  0  0  0  0  0  0  0  0
  142.1280   73.5320  221.9400 H   0  0  0  0  0  0  0  0  0  0  0  0
  142.3932   75.0082  219.8508 H   0  0  0  0  0  0  0  0  0  0  0  0
  138.7730   75.7760  219.9360 H   0  0  0  0  0  0  0  0  0  0  0  0
  142.8511   78.0969  220.8219 H   0  0  0  0  0  0  0  0  0  0  0  0
  141.4561   78.8108  220.0048 H   0  0  0  0  0  0  0  0  0  0  0  0
  141.0136   80.2476  221.8339 H   0  0  0  0  0  0  0  0  0  0  0  0
  143.6220   79.3630  222.0400 H   0  0  0  0  0  0  0  0  0  0  0  0
  142.0049   78.3139  223.9414 H   0  0  0  0  0  0  0  0  0  0  0  0
  140.5065   79.2514  223.9324 H   0  0  0  0  0  0  0  0  0  0  0  0
  140.5703   76.5301  223.3478 H   0  0  0  0  0  0  0  0  0  0  0  0
  138.5057   77.6970  223.6645 H   0  0  0  0  0  0  0  0  0  0  0  0
  138.7232   78.6131  222.1352 H   0  0  0  0  0  0  0  0  0  0  0  0
  136.6335   77.6637  222.4515 H   0  0  0  0  0  0  0  0  0  0  0  0
  136.4872   76.6131  220.9945 H   0  0  0  0  0  0  0  0  0  0  0  0
  135.7434   76.9151  224.4632 H   0  0  0  0  0  0  0  0  0  0  0  0
  134.8861   75.0695  225.9094 H   0  0  0  0  0  0  0  0  0  0  0  0
  135.0233   72.7011  225.1299 H   0  0  0  0  0  0  0  0  0  0  0  0
  136.0180   72.1753  222.9007 H   0  0  0  0  0  0  0  0  0  0  0  0
  136.8804   74.0134  221.4494 H   0  0  0  0  0  0  0  0  0  0  0  0
  138.0961   71.4437  221.6396 H   0  0  0  0  0  0  0  0  0  0  0  0
  137.7710   69.6813  223.3825 H   0  0  0  0  0  0  0  0  0  0  0  0
  138.4746   68.6460  225.5142 H   0  0  0  0  0  0  0  0  0  0  0  0
  141.8386   70.3147  227.6711 H   0  0  0  0  0  0  0  0  0  0  0  0
  142.1216   72.0552  225.9019 H   0  0  0  0  0  0  0  0  0  0  0  0
  1  2  2  0
  2  3  1  0
  3  4  1  0
  4  5  2  0
  5  6  1  0
  5  7  1  0
  7  8  1  0
  8  9  1  0
  9 10  1  0
  9 11  1  0
 11 12  1  0
 12 13  1  0
 13 14  1  0
 14 15  1  0
 15 16  1  0
 16 17  2  0
 17 18  1  0
 18 19  2  0
 19 20  1  0
 20 21  2  0
  2 22  1  0
 22 23  2  0
 23 24  1  0
 24 25  2  0
 25 26  1  0
 26 27  2  0
 27 28  1  0
 27 29  1  0
 29 30  2  0
 30 31  1  0
 31 32  2  0
 12  7  1  0
 21 16  1  0
 32 22  1  0
 31 25  1  0
  3 33  1  0
  4 34  1  0
  6 35  1  0
  8 36  1  0
  8 37  1  0
  9 38  1  6
 10 39  1  0
 11 40  1  0
 11 41  1  0
 12 42  1  1
 13 43  1  0
 13 44  1  0
 15 45  1  0
 15 46  1  0
 17 47  1  0
 18 48  1  0
 19 49  1  0
 20 50  1  0
 21 51  1  0
 23 52  1  0
 24 53  1  0
 26 54  1  0
 29 55  1  0
 30 56  1  0
M  END
>  <meeko>  (7) 
{"free_energy": -6.49, "intermolecular_energy": -9.47, "internal_energy": -3.53, "cluster_size": 1, "cluster_id": 6, "rank_in_cluster": 1}

$$$$

     RDKit          3D

 56 59  0  0  0  0  0  0  0  0999 V2000
  139.6880   72.1300  220.6230 O   0  0  0  0  0  0  0  0  0  0  0  0
  139.6580   72.5340  221.8190 C   0  0  0  0  0  0  0  0  0  0  0  0
  139.5210   73.9360  222.0950 N   0  0  0  0  0  0  0  0  0  0  0  0
  139.3410   74.9040  221.0510 C   0  0  0  0  0  0  0  0  0  0  0  0
  139.8510   74.7300  219.8260 C   0  0  0  0  0  0  0  0  0  0  0  0
  139.0610   74.1380  218.8450 O   0  0  0  0  0  0  0  0  0  0  0  0
  141.1880   75.1440  219.5000 N   0  0  0  0  0  0  0  0  0  0  0  0
  141.9550   74.5200  218.4390 C   0  0  0  0  0  0  0  0  0  0  0  0
  143.2380   75.3400  218.3270 C   0  0  2  0  0  0  0  0  0  0  0  0
  144.3510   74.5020  218.1640 O   0  0  0  0  0  0  0  0  0  0  0  0
  143.3280   76.1410  219.6310 C   0  0  0  0  0  0  0  0  0  0  0  0
  141.8890   76.2500  220.1430 C   0  0  1  0  0  0  0  0  0  0  0  0
  141.2500   77.5930  219.7570 C   0  0  0  0  0  0  0  0  0  0  0  0
  140.3830   78.0160  220.7900 O   0  0  0  0  0  0  0  0  0  0  0  0
  140.9670   77.7720  222.0540 C   0  0  0  0  0  0  0  0  0  0  0  0
  141.4140   79.0660  222.6800 C   0  0  0  0  0  0  0  0  0  0  0  0
  142.7840   79.3580  222.7850 C   0  0  0  0  0  0  0  0  0  0  0  0
  143.2050   80.5430  223.3980 C   0  0  0  0  0  0  0  0  0  0  0  0
  142.2630   81.4390  223.9110 C   0  0  0  0  0  0  0  0  0  0  0  0
  140.8990   81.1520  223.8140 C   0  0  0  0  0  0  0  0  0  0  0  0
  140.4730   79.9690  223.2030 C   0  0  0  0  0  0  0  0  0  0  0  0
  139.7460   71.5590  222.9270 C   0  0  0  0  0  0  0  0  0  0  0  0
  139.2570   70.2490  222.7840 C   0  0  0  0  0  0  0  0  0  0  0  0
  139.3420   69.3570  223.8550 C   0  0  0  0  0  0  0  0  0  0  0  0
  139.9110   69.7710  225.0650 C   0  0  0  0  0  0  0  0  0  0  0  0
  140.0130   68.9000  226.1610 C   0  0  0  0  0  0  0  0  0  0  0  0
  140.5910   69.3460  227.3570 C   0  0  0  0  0  0  0  0  0  0  0  0
  140.7180   68.2570  228.7260 Cl  0  0  0  0  0  0  0  0  0  0  0  0
  141.0620   70.6590  227.4620 C   0  0  0  0  0  0  0  0  0  0  0  0
  140.9640   71.5320  226.3730 C   0  0  0  0  0  0  0  0  0  0  0  0
  140.3920   71.0930  225.1740 C   0  0  0  0  0  0  0  0  0  0  0  0
  140.2940   71.9400  224.1150 N   0  0  0  0  0  0  0  0  0  0  0  0
  139.5810   74.2630  223.0860 H   0  0  0  0  0  0  0  0  0  0  0  0
  138.7661   75.8172  221.2642 H   0  0  0  0  0  0  0  0  0  0  0  0
  138.8230   73.1550  218.8900 H   0  0  0  0  0  0  0  0  0  0  0  0
  142.1872   73.4758  218.6954 H   0  0  0  0  0  0  0  0  0  0  0  0
  141.3987   74.5008  217.4902 H   0  0  0  0  0  0  0  0  0  0  0  0
  143.2252   76.0042  217.4503 H   0  0  0  0  0  0  0  0  0  0  0  0
  145.0610   75.0560  217.7460 H   0  0  0  0  0  0  0  0  0  0  0  0
  143.9579   75.6145  220.3631 H   0  0  0  0  0  0  0  0  0  0  0  0
  143.7811   77.1306  219.4721 H   0  0  0  0  0  0  0  0  0  0  0  0
  141.8426   76.2022  221.2410 H   0  0  0  0  0  0  0  0  0  0  0  0
  142.0387   78.3454  219.6091 H   0  0  0  0  0  0  0  0  0  0  0  0
  140.6787   77.4729  218.8247 H   0  0  0  0  0  0  0  0  0  0  0  0
  140.2270   77.2885  222.7087 H   0  0  0  0  0  0  0  0  0  0  0  0
  141.8404   77.1159  221.9247 H   0  0  0  0  0  0  0  0  0  0  0  0
  143.5275   78.6533  222.3843 H   0  0  0  0  0  0  0  0  0  0  0  0
  144.2785   80.7698  223.4763 H   0  0  0  0  0  0  0  0  0  0  0  0
  142.5957   82.3709  224.3915 H   0  0  0  0  0  0  0  0  0  0  0  0
  140.1592   81.8581  224.2191 H   0  0  0  0  0  0  0  0  0  0  0  0
  139.3985   79.7445  223.1315 H   0  0  0  0  0  0  0  0  0  0  0  0
  138.8091   69.9277  221.8321 H   0  0  0  0  0  0  0  0  0  0  0  0
  138.9622   68.3302  223.7479 H   0  0  0  0  0  0  0  0  0  0  0  0
  139.6396   67.8684  226.0811 H   0  0  0  0  0  0  0  0  0  0  0  0
  141.5110   71.0064  228.4042 H   0  0  0  0  0  0  0  0  0  0  0  0
  141.3366   72.5633  226.4595 H   0  0  0  0  0  0  0  0  0  0  0  0
  1  2  2  0
  2  3  1  0
  3  4  1  0
  4  5  2  0
  5  6  1  0
  5  7  1  0
  7  8  1  0
  8  9  1  0
  9 10  1  0
  9 11  1  0
 11 12  1  0
 12 13  1  0
 13 14  1  0
 14 15  1  0
 15 16  1  0
 16 17  2  0
 17 18  1  0
 18 19  2  0
 19 20  1  0
 20 21  2  0
  2 22  1  0
 22 23  2  0
 23 24  1  0
 24 25  2  0
 25 26  1  0
 26 27  2  0
 27 28  1  0
 27 29  1  0
 29 30  2  0
 30 31  1  0
 31 32  2  0
 12  7  1  0
 21 16  1  0
 32 22  1  0
 31 25  1  0
  3 33  1  0
  4 34  1  0
  6 35  1  0
  8 36  1  0
  8 37  1  0
  9 38  1  6
 10 39  1  0
 11 40  1  0
 11 41  1  0
 12 42  1  1
 13 43  1  0
 13 44  1  0
 15 45  1  0
 15 46  1  0
 17 47  1  0
 18 48  1  0
 19 49  1  0
 20 50  1  0
 21 51  1  0
 23 52  1  0
 24 53  1  0
 26 54  1  0
 29 55  1  0
 30 56  1  0
M  END
>  <meeko>  (8) 
{"free_energy": -8.24, "intermolecular_energy": -11.22, "internal_energy": -2.1, "cluster_size": 7, "cluster_id": 1, "rank_in_cluster": 4}

$$$$

     RDKit          3D

 56 59  0  0  0  0  0  0  0  0999 V2000
  138.6580   76.7850  223.0920 O   0  0  0  0  0  0  0  0  0  0  0  0
  138.5780   77.6300  222.1570 C   0  0  0  0  0  0  0  0  0  0  0  0
  138.8970   77.2400  220.8130 N   0  0  0  0  0  0  0  0  0  0  0  0
  139.2370   75.8880  220.4730 C   0  0  0  0  0  0  0  0  0  0  0  0
  140.2910   75.2640  221.0110 C   0  0  0  0  0  0  0  0  0  0  0  0
  140.1100   74.5130  222.1690 O   0  0  0  0  0  0  0  0  0  0  0  0
  141.5980   75.3460  220.4210 N   0  0  0  0  0  0  0  0  0  0  0  0
  142.3530   74.1670  220.0400 C   0  0  0  0  0  0  0  0  0  0  0  0
  143.5980   74.6920  219.3300 C   0  0  2  0  0  0  0  0  0  0  0  0
  144.7360   73.9760  219.7290 O   0  0  0  0  0  0  0  0  0  0  0  0
  143.7010   76.1700  219.7220 C   0  0  0  0  0  0  0  0  0  0  0  0
  142.2780   76.5950  220.0920 C   0  0  1  0  0  0  0  0  0  0  0  0
  141.5740   77.3010  218.9240 C   0  0  0  0  0  0  0  0  0  0  0  0
  140.9050   78.4500  219.4030 O   0  0  0  0  0  0  0  0  0  0  0  0
  141.8350   79.4670  219.7180 C   0  0  0  0  0  0  0  0  0  0  0  0
  141.6760   79.8920  221.1530 C   0  0  0  0  0  0  0  0  0  0  0  0
  141.8270   78.9500  222.1850 C   0  0  0  0  0  0  0  0  0  0  0  0
  141.6450   79.3330  223.5170 C   0  0  0  0  0  0  0  0  0  0  0  0
  141.3100   80.6540  223.8280 C   0  0  0  0  0  0  0  0  0  0  0  0
  141.1550   81.5950  222.8060 C   0  0  0  0  0  0  0  0  0  0  0  0
  141.3350   81.2170  221.4720 C   0  0  0  0  0  0  0  0  0  0  0  0
  138.1400   79.0120  222.4510 C   0  0  0  0  0  0  0  0  0  0  0  0
  137.9680   79.9540  221.4230 C   0  0  0  0  0  0  0  0  0  0  0  0
  137.5680   81.2550  221.7360 C   0  0  0  0  0  0  0  0  0  0  0  0
  137.3420   81.6140  223.0700 C   0  0  0  0  0  0  0  0  0  0  0  0
  136.9380   82.9120  223.4190 C   0  0  0  0  0  0  0  0  0  0  0  0
  136.7170   83.2380  224.7630 C   0  0  0  0  0  0  0  0  0  0  0  0
  136.2120   84.8600  225.2000 Cl  0  0  0  0  0  0  0  0  0  0  0  0
  136.9040   82.2730  225.7600 C   0  0  0  0  0  0  0  0  0  0  0  0
  137.3050   80.9770  225.4180 C   0  0  0  0  0  0  0  0  0  0  0  0
  137.5240   80.6430  224.0770 C   0  0  0  0  0  0  0  0  0  0  0  0
  137.9160   79.3850  223.7420 N   0  0  0  0  0  0  0  0  0  0  0  0
  138.9070   77.9690  220.0650 H   0  0  0  0  0  0  0  0  0  0  0  0
  138.6114   75.3477  219.7473 H   0  0  0  0  0  0  0  0  0  0  0  0
  139.3860   74.7490  222.8360 H   0  0  0  0  0  0  0  0  0  0  0  0
  142.6345   73.5863  220.9308 H   0  0  0  0  0  0  0  0  0  0  0  0
  141.7662   73.4978  219.3936 H   0  0  0  0  0  0  0  0  0  0  0  0
  143.5297   74.5727  218.2386 H   0  0  0  0  0  0  0  0  0  0  0  0
  145.5140   74.4270  219.3080 H   0  0  0  0  0  0  0  0  0  0  0  0
  144.3751   76.2934  220.5825 H   0  0  0  0  0  0  0  0  0  0  0  0
  144.1100   76.7816  218.9042 H   0  0  0  0  0  0  0  0  0  0  0  0
  142.2721   77.3156  220.9231 H   0  0  0  0  0  0  0  0  0  0  0  0
  142.3197   77.5977  218.1717 H   0  0  0  0  0  0  0  0  0  0  0  0
  140.8449   76.6158  218.4669 H   0  0  0  0  0  0  0  0  0  0  0  0
  142.8554   79.0867  219.5628 H   0  0  0  0  0  0  0  0  0  0  0  0
  141.6533   80.3336  219.0653 H   0  0  0  0  0  0  0  0  0  0  0  0
  142.0889   77.9092  221.9441 H   0  0  0  0  0  0  0  0  0  0  0  0
  141.7657   78.5933  224.3221 H   0  0  0  0  0  0  0  0  0  0  0  0
  141.1683   80.9531  224.8771 H   0  0  0  0  0  0  0  0  0  0  0  0
  140.8911   82.6342  223.0516 H   0  0  0  0  0  0  0  0  0  0  0  0
  141.2093   81.9592  220.6699 H   0  0  0  0  0  0  0  0  0  0  0  0
  138.1476   79.6681  220.3761 H   0  0  0  0  0  0  0  0  0  0  0  0
  137.4307   81.9966  220.9353 H   0  0  0  0  0  0  0  0  0  0  0  0
  136.7951   83.6728  222.6375 H   0  0  0  0  0  0  0  0  0  0  0  0
  136.7352   82.5345  226.8150 H   0  0  0  0  0  0  0  0  0  0  0  0
  137.4481   80.2204  226.2035 H   0  0  0  0  0  0  0  0  0  0  0  0
  1  2  2  0
  2  3  1  0
  3  4  1  0
  4  5  2  0
  5  6  1  0
  5  7  1  0
  7  8  1  0
  8  9  1  0
  9 10  1  0
  9 11  1  0
 11 12  1  0
 12 13  1  0
 13 14  1  0
 14 15  1  0
 15 16  1  0
 16 17  2  0
 17 18  1  0
 18 19  2  0
 19 20  1  0
 20 21  2  0
  2 22  1  0
 22 23  2  0
 23 24  1  0
 24 25  2  0
 25 26  1  0
 26 27  2  0
 27 28  1  0
 27 29  1  0
 29 30  2  0
 30 31  1  0
 31 32  2  0
 12  7  1  0
 21 16  1  0
 32 22  1  0
 31 25  1  0
  3 33  1  0
  4 34  1  0
  6 35  1  0
  8 36  1  0
  8 37  1  0
  9 38  1  6
 10 39  1  0
 11 40  1  0
 11 41  1  0
 12 42  1  1
 13 43  1  0
 13 44  1  0
 15 45  1  0
 15 46  1  0
 17 47  1  0
 18 48  1  0
 19 49  1  0
 20 50  1  0
 21 51  1  0
 23 52  1  0
 24 53  1  0
 26 54  1  0
 29 55  1  0
 30 56  1  0
M  END
>  <meeko>  (9) 
{"free_energy": -6.1, "intermolecular_energy": -9.09, "internal_energy": -4.19, "cluster_size": 1, "cluster_id": 7, "rank_in_cluster": 1}

$$$$

     RDKit          3D

 56 59  0  0  0  0  0  0  0  0999 V2000
  138.8900   71.9130  220.7790 O   0  0  0  0  0  0  0  0  0  0  0  0
  139.1120   72.3410  221.9460 C   0  0  0  0  0  0  0  0  0  0  0  0
  139.0890   73.7530  222.2060 N   0  0  0  0  0  0  0  0  0  0  0  0
  138.7460   74.7080  221.1900 C   0  0  0  0  0  0  0  0  0  0  0  0
  139.4780   74.8580  220.0810 C   0  0  0  0  0  0  0  0  0  0  0  0
  139.2330   74.0230  218.9940 O   0  0  0  0  0  0  0  0  0  0  0  0
  140.5020   75.8610  219.9820 N   0  0  0  0  0  0  0  0  0  0  0  0
  141.5220   75.8290  218.9510 C   0  0  0  0  0  0  0  0  0  0  0  0
  142.3050   77.1300  219.1120 C   0  0  2  0  0  0  0  0  0  0  0  0
  143.6820   76.9000  218.9760 O   0  0  0  0  0  0  0  0  0  0  0  0
  141.9590   77.6460  220.5120 C   0  0  0  0  0  0  0  0  0  0  0  0
  140.5990   77.0290  220.8510 C   0  0  1  0  0  0  0  0  0  0  0  0
  139.4480   78.0070  220.5730 C   0  0  0  0  0  0  0  0  0  0  0  0
  138.6810   78.1760  221.7480 O   0  0  0  0  0  0  0  0  0  0  0  0
  138.7690   79.5100  222.2070 C   0  0  0  0  0  0  0  0  0  0  0  0
  140.1850   79.8320  222.6020 C   0  0  0  0  0  0  0  0  0  0  0  0
  140.8430   80.9290  222.0200 C   0  0  0  0  0  0  0  0  0  0  0  0
  142.1710   81.2110  222.3570 C   0  0  0  0  0  0  0  0  0  0  0  0
  142.8500   80.4010  223.2710 C   0  0  0  0  0  0  0  0  0  0  0  0
  142.2020   79.3060  223.8510 C   0  0  0  0  0  0  0  0  0  0  0  0
  140.8750   79.0190  223.5170 C   0  0  0  0  0  0  0  0  0  0  0  0
  139.3770   71.3840  223.0410 C   0  0  0  0  0  0  0  0  0  0  0  0
  139.0390   70.0250  222.9180 C   0  0  0  0  0  0  0  0  0  0  0  0
  139.2890   69.1500  223.9780 C   0  0  0  0  0  0  0  0  0  0  0  0
  139.8730   69.6290  225.1560 C   0  0  0  0  0  0  0  0  0  0  0  0
  140.1390   68.7770  226.2390 C   0  0  0  0  0  0  0  0  0  0  0  0
  140.7270   69.2890  227.4030 C   0  0  0  0  0  0  0  0  0  0  0  0
  141.0590   68.2240  228.7560 Cl  0  0  0  0  0  0  0  0  0  0  0  0
  141.0450   70.6490  227.4900 C   0  0  0  0  0  0  0  0  0  0  0  0
  140.7830   71.5030  226.4130 C   0  0  0  0  0  0  0  0  0  0  0  0
  140.2000   70.9990  225.2460 C   0  0  0  0  0  0  0  0  0  0  0  0
  139.9430   71.8280  224.1990 N   0  0  0  0  0  0  0  0  0  0  0  0
  139.3560   74.0950  223.1560 H   0  0  0  0  0  0  0  0  0  0  0  0
  137.8533   75.3357  221.3283 H   0  0  0  0  0  0  0  0  0  0  0  0
  139.0320   73.0410  219.1270 H   0  0  0  0  0  0  0  0  0  0  0  0
  142.1840   74.9619  219.0918 H   0  0  0  0  0  0  0  0  0  0  0  0
  141.0841   75.7377  217.9461 H   0  0  0  0  0  0  0  0  0  0  0  0
  142.0412   77.8672  218.3394 H   0  0  0  0  0  0  0  0  0  0  0  0
  144.1270   77.4360  219.6830 H   0  0  0  0  0  0  0  0  0  0  0  0
  142.7191   77.3241  221.2391 H   0  0  0  0  0  0  0  0  0  0  0  0
  141.9283   78.7451  220.5458 H   0  0  0  0  0  0  0  0  0  0  0  0
  140.5219   76.7732  221.9181 H   0  0  0  0  0  0  0  0  0  0  0  0
  139.8591   78.9782  220.2603 H   0  0  0  0  0  0  0  0  0  0  0  0
  138.8097   77.6050  219.7724 H   0  0  0  0  0  0  0  0  0  0  0  0
  138.4518   80.1920  221.4043 H   0  0  0  0  0  0  0  0  0  0  0  0
  138.1156   79.6315  223.0836 H   0  0  0  0  0  0  0  0  0  0  0  0
  140.3126   81.5672  221.2980 H   0  0  0  0  0  0  0  0  0  0  0  0
  142.6819   82.0722  221.9015 H   0  0  0  0  0  0  0  0  0  0  0  0
  143.8943   80.6248  223.5343 H   0  0  0  0  0  0  0  0  0  0  0  0
  142.7370   78.6695  224.5711 H   0  0  0  0  0  0  0  0  0  0  0  0
  140.3697   78.1542  223.9718 H   0  0  0  0  0  0  0  0  0  0  0  0
  138.5795   69.6520  221.9908 H   0  0  0  0  0  0  0  0  0  0  0  0
  139.0270   68.0856  223.8867 H   0  0  0  0  0  0  0  0  0  0  0  0
  139.8861   67.7084  226.1740 H   0  0  0  0  0  0  0  0  0  0  0  0
  141.5022   71.0478  228.4076 H   0  0  0  0  0  0  0  0  0  0  0  0
  141.0357   72.5712  226.4843 H   0  0  0  0  0  0  0  0  0  0  0  0
  1  2  2  0
  2  3  1  0
  3  4  1  0
  4  5  2  0
  5  6  1  0
  5  7  1  0
  7  8  1  0
  8  9  1  0
  9 10  1  0
  9 11  1  0
 11 12  1  0
 12 13  1  0
 13 14  1  0
 14 15  1  0
 15 16  1  0
 16 17  2  0
 17 18  1  0
 18 19  2  0
 19 20  1  0
 20 21  2  0
  2 22  1  0
 22 23  2  0
 23 24  1  0
 24 25  2  0
 25 26  1  0
 26 27  2  0
 27 28  1  0
 27 29  1  0
 29 30  2  0
 30 31  1  0
 31 32  2  0
 12  7  1  0
 21 16  1  0
 32 22  1  0
 31 25  1  0
  3 33  1  0
  4 34  1  0
  6 35  1  0
  8 36  1  0
  8 37  1  0
  9 38  1  6
 10 39  1  0
 11 40  1  0
 11 41  1  0
 12 42  1  1
 13 43  1  0
 13 44  1  0
 15 45  1  0
 15 46  1  0
 17 47  1  0
 18 48  1  0
 19 49  1  0
 20 50  1  0
 21 51  1  0
 23 52  1  0
 24 53  1  0
 26 54  1  0
 29 55  1  0
 30 56  1  0
M  END
>  <meeko>  (10) 
{"free_energy": -7.8, "intermolecular_energy": -10.78, "internal_energy": -2.38, "cluster_size": 4, "cluster_id": 4, "rank_in_cluster": 1}

$$$$

     RDKit          3D

 56 59  0  0  0  0  0  0  0  0999 V2000
  139.3030   72.0060  220.6020 O   0  0  0  0  0  0  0  0  0  0  0  0
  139.4160   72.4400  221.7820 C   0  0  0  0  0  0  0  0  0  0  0  0
  139.3670   73.8520  222.0330 N   0  0  0  0  0  0  0  0  0  0  0  0
  139.1160   74.8020  220.9860 C   0  0  0  0  0  0  0  0  0  0  0  0
  139.6700   74.6870  219.7750 C   0  0  0  0  0  0  0  0  0  0  0  0
  138.9520   74.0560  218.7630 O   0  0  0  0  0  0  0  0  0  0  0  0
  140.9820   75.2010  219.4930 N   0  0  0  0  0  0  0  0  0  0  0  0
  141.4810   75.3530  218.1390 C   0  0  0  0  0  0  0  0  0  0  0  0
  142.8290   76.0570  218.2780 C   0  0  2  0  0  0  0  0  0  0  0  0
  143.7780   75.4850  217.4190 O   0  0  0  0  0  0  0  0  0  0  0  0
  143.2300   75.8870  219.7470 C   0  0  0  0  0  0  0  0  0  0  0  0
  141.9180   75.6730  220.5070 C   0  0  1  0  0  0  0  0  0  0  0  0
  141.4140   76.9760  221.1450 C   0  0  0  0  0  0  0  0  0  0  0  0
  140.7340   76.6780  222.3480 O   0  0  0  0  0  0  0  0  0  0  0  0
  139.8870   77.7500  222.7140 C   0  0  0  0  0  0  0  0  0  0  0  0
  140.6970   78.9950  222.9540 C   0  0  0  0  0  0  0  0  0  0  0  0
  141.8640   78.9340  223.7340 C   0  0  0  0  0  0  0  0  0  0  0  0
  142.6000   80.0950  223.9900 C   0  0  0  0  0  0  0  0  0  0  0  0
  142.1760   81.3220  223.4720 C   0  0  0  0  0  0  0  0  0  0  0  0
  141.0140   81.3910  222.6980 C   0  0  0  0  0  0  0  0  0  0  0  0
  140.2740   80.2320  222.4410 C   0  0  0  0  0  0  0  0  0  0  0  0
  139.5830   71.4880  222.9020 C   0  0  0  0  0  0  0  0  0  0  0  0
  139.1550   70.1540  222.7920 C   0  0  0  0  0  0  0  0  0  0  0  0
  139.3130   69.2840  223.8740 C   0  0  0  0  0  0  0  0  0  0  0  0
  139.8950   69.7440  225.0600 C   0  0  0  0  0  0  0  0  0  0  0  0
  140.0690   68.8970  226.1660 C   0  0  0  0  0  0  0  0  0  0  0  0
  140.6580   69.3890  227.3380 C   0  0  0  0  0  0  0  0  0  0  0  0
  140.8760   68.3300  228.7180 Cl  0  0  0  0  0  0  0  0  0  0  0  0
  141.0680   70.7260  227.4100 C   0  0  0  0  0  0  0  0  0  0  0  0
  140.8970   71.5750  226.3120 C   0  0  0  0  0  0  0  0  0  0  0  0
  140.3130   71.0900  225.1360 C   0  0  0  0  0  0  0  0  0  0  0  0
  140.1450   71.9140  224.0680 N   0  0  0  0  0  0  0  0  0  0  0  0
  139.5460   74.1990  223.0020 H   0  0  0  0  0  0  0  0  0  0  0  0
  138.4465   75.6514  221.1869 H   0  0  0  0  0  0  0  0  0  0  0  0
  138.6940   73.0810  218.8370 H   0  0  0  0  0  0  0  0  0  0  0  0
  141.6082   74.3693  217.6634 H   0  0  0  0  0  0  0  0  0  0  0  0
  140.7844   75.9257  217.5091 H   0  0  0  0  0  0  0  0  0  0  0  0
  142.7684   77.1199  218.0014 H   0  0  0  0  0  0  0  0  0  0  0  0
  144.6620   75.6120  217.8520 H   0  0  0  0  0  0  0  0  0  0  0  0
  143.8903   75.0154  219.8669 H   0  0  0  0  0  0  0  0  0  0  0  0
  143.7817   76.7611  220.1232 H   0  0  0  0  0  0  0  0  0  0  0  0
  142.0390   74.9620  221.3375 H   0  0  0  0  0  0  0  0  0  0  0  0
  142.2690   77.6338  221.3601 H   0  0  0  0  0  0  0  0  0  0  0  0
  140.7275   77.4831  220.4510 H   0  0  0  0  0  0  0  0  0  0  0  0
  139.1662   77.9362  221.9042 H   0  0  0  0  0  0  0  0  0  0  0  0
  139.3534   77.4856  223.6389 H   0  0  0  0  0  0  0  0  0  0  0  0
  142.1996   77.9702  224.1444 H   0  0  0  0  0  0  0  0  0  0  0  0
  143.5139   80.0426  224.5999 H   0  0  0  0  0  0  0  0  0  0  0  0
  142.7571   82.2340  223.6735 H   0  0  0  0  0  0  0  0  0  0  0  0
  140.6813   82.3572  222.2908 H   0  0  0  0  0  0  0  0  0  0  0  0
  139.3577   80.2897  221.8351 H   0  0  0  0  0  0  0  0  0  0  0  0
  138.6974   69.7961  221.8579 H   0  0  0  0  0  0  0  0  0  0  0  0
  138.9801   68.2387  223.7933 H   0  0  0  0  0  0  0  0  0  0  0  0
  139.7431   67.8478  226.1124 H   0  0  0  0  0  0  0  0  0  0  0  0
  141.5262   71.1098  228.3335 H   0  0  0  0  0  0  0  0  0  0  0  0
  141.2216   72.6243  226.3725 H   0  0  0  0  0  0  0  0  0  0  0  0
  1  2  2  0
  2  3  1  0
  3  4  1  0
  4  5  2  0
  5  6  1  0
  5  7  1  0
  7  8  1  0
  8  9  1  0
  9 10  1  0
  9 11  1  0
 11 12  1  0
 12 13  1  0
 13 14  1  0
 14 15  1  0
 15 16  1  0
 16 17  2  0
 17 18  1  0
 18 19  2  0
 19 20  1  0
 20 21  2  0
  2 22  1  0
 22 23  2  0
 23 24  1  0
 24 25  2  0
 25 26  1  0
 26 27  2  0
 27 28  1  0
 27 29  1  0
 29 30  2  0
 30 31  1  0
 31 32  2  0
 12  7  1  0
 21 16  1  0
 32 22  1  0
 31 25  1  0
  3 33  1  0
  4 34  1  0
  6 35  1  0
  8 36  1  0
  8 37  1  0
  9 38  1  6
 10 39  1  0
 11 40  1  0
 11 41  1  0
 12 42  1  1
 13 43  1  0
 13 44  1  0
 15 45  1  0
 15 46  1  0
 17 47  1  0
 18 48  1  0
 19 49  1  0
 20 50  1  0
 21 51  1  0
 23 52  1  0
 24 53  1  0
 26 54  1  0
 29 55  1  0
 30 56  1  0
M  END
>  <meeko>  (11) 
{"free_energy": -8.16, "intermolecular_energy": -11.15, "internal_energy": -2.21, "cluster_size": 7, "cluster_id": 1, "rank_in_cluster": 5}

$$$$

     RDKit          3D

 56 59  0  0  0  0  0  0  0  0999 V2000
  133.9580   70.3070  226.3140 O   0  0  0  0  0  0  0  0  0  0  0  0
  133.9490   71.4260  225.7290 C   0  0  0  0  0  0  0  0  0  0  0  0
  134.5380   71.5550  224.4260 N   0  0  0  0  0  0  0  0  0  0  0  0
  135.0800   70.4280  223.7210 C   0  0  0  0  0  0  0  0  0  0  0  0
  136.1730   69.7840  224.1440 C   0  0  0  0  0  0  0  0  0  0  0  0
  136.0290   68.7280  225.0390 O   0  0  0  0  0  0  0  0  0  0  0  0
  137.4870   70.1520  223.6940 N   0  0  0  0  0  0  0  0  0  0  0  0
  138.1070   71.4130  224.0580 C   0  0  0  0  0  0  0  0  0  0  0  0
  139.5290   71.3420  223.5070 C   0  0  2  0  0  0  0  0  0  0  0  0
  139.8950   72.5620  222.9200 O   0  0  0  0  0  0  0  0  0  0  0  0
  139.5130   70.2080  222.4760 C   0  0  0  0  0  0  0  0  0  0  0  0
  138.3520   69.2980  222.8870 C   0  0  1  0  0  0  0  0  0  0  0  0
  138.8390   68.0930  223.7060 C   0  0  0  0  0  0  0  0  0  0  0  0
  138.6610   68.3580  225.0830 O   0  0  0  0  0  0  0  0  0  0  0  0
  139.8830   68.2030  225.7770 C   0  0  0  0  0  0  0  0  0  0  0  0
  140.2480   69.4800  226.4830 C   0  0  0  0  0  0  0  0  0  0  0  0
  139.6470   69.7980  227.7130 C   0  0  0  0  0  0  0  0  0  0  0  0
  139.9560   71.0010  228.3560 C   0  0  0  0  0  0  0  0  0  0  0  0
  140.8620   71.8940  227.7750 C   0  0  0  0  0  0  0  0  0  0  0  0
  141.4590   71.5860  226.5500 C   0  0  0  0  0  0  0  0  0  0  0  0
  141.1530   70.3840  225.9020 C   0  0  0  0  0  0  0  0  0  0  0  0
  133.3170   72.5920  226.3820 C   0  0  0  0  0  0  0  0  0  0  0  0
  132.1510   72.4510  227.1540 C   0  0  0  0  0  0  0  0  0  0  0  0
  131.5700   73.5750  227.7440 C   0  0  0  0  0  0  0  0  0  0  0  0
  132.1500   74.8360  227.5650 C   0  0  0  0  0  0  0  0  0  0  0  0
  131.5940   75.9870  228.1460 C   0  0  0  0  0  0  0  0  0  0  0  0
  132.2010   77.2330  227.9490 C   0  0  0  0  0  0  0  0  0  0  0  0
  131.5060   78.6700  228.6750 Cl  0  0  0  0  0  0  0  0  0  0  0  0
  133.3600   77.3350  227.1700 C   0  0  0  0  0  0  0  0  0  0  0  0
  133.9200   76.1920  226.5890 C   0  0  0  0  0  0  0  0  0  0  0  0
  133.3210   74.9420  226.7840 C   0  0  0  0  0  0  0  0  0  0  0  0
  133.8630   73.8300  226.2200 N   0  0  0  0  0  0  0  0  0  0  0  0
  134.5980   72.5030  223.9910 H   0  0  0  0  0  0  0  0  0  0  0  0
  134.5804   70.0832  222.8037 H   0  0  0  0  0  0  0  0  0  0  0  0
  135.2760   68.7170  225.7150 H   0  0  0  0  0  0  0  0  0  0  0  0
  137.5611   72.2544  223.6062 H   0  0  0  0  0  0  0  0  0  0  0  0
  138.0984   71.5730  225.1463 H   0  0  0  0  0  0  0  0  0  0  0  0
  140.2677   71.1505  224.2993 H   0  0  0  0  0  0  0  0  0  0  0  0
  139.1790   73.2100  223.1500 H   0  0  0  0  0  0  0  0  0  0  0  0
  139.3476   70.6095  221.4654 H   0  0  0  0  0  0  0  0  0  0  0  0
  140.4690   69.6644  222.4523 H   0  0  0  0  0  0  0  0  0  0  0  0
  137.8361   68.8753  222.0122 H   0  0  0  0  0  0  0  0  0  0  0  0
  138.2596   67.2008  223.4261 H   0  0  0  0  0  0  0  0  0  0  0  0
  139.9051   67.9162  223.5008 H   0  0  0  0  0  0  0  0  0  0  0  0
  139.7801   67.3958  226.5171 H   0  0  0  0  0  0  0  0  0  0  0  0
  140.6751   67.9540  225.0555 H   0  0  0  0  0  0  0  0  0  0  0  0
  138.9318   69.0990  228.1711 H   0  0  0  0  0  0  0  0  0  0  0  0
  139.4858   71.2451  229.3200 H   0  0  0  0  0  0  0  0  0  0  0  0
  141.1046   72.8392  228.2827 H   0  0  0  0  0  0  0  0  0  0  0  0
  142.1710   72.2897  226.0940 H   0  0  0  0  0  0  0  0  0  0  0  0
  141.6220   70.1465  224.9358 H   0  0  0  0  0  0  0  0  0  0  0  0
  131.6978   71.4584  227.2929 H   0  0  0  0  0  0  0  0  0  0  0  0
  130.6573   73.4696  228.3489 H   0  0  0  0  0  0  0  0  0  0  0  0
  130.6817   75.9097  228.7558 H   0  0  0  0  0  0  0  0  0  0  0  0
  133.8316   78.3165  227.0143 H   0  0  0  0  0  0  0  0  0  0  0  0
  134.8314   76.2757  225.9787 H   0  0  0  0  0  0  0  0  0  0  0  0
  1  2  2  0
  2  3  1  0
  3  4  1  0
  4  5  2  0
  5  6  1  0
  5  7  1  0
  7  8  1  0
  8  9  1  0
  9 10  1  0
  9 11  1  0
 11 12  1  0
 12 13  1  0
 13 14  1  0
 14 15  1  0
 15 16  1  0
 16 17  2  0
 17 18  1  0
 18 19  2  0
 19 20  1  0
 20 21  2  0
  2 22  1  0
 22 23  2  0
 23 24  1  0
 24 25  2  0
 25 26  1  0
 26 27  2  0
 27 28  1  0
 27 29  1  0
 29 30  2  0
 30 31  1  0
 31 32  2  0
 12  7  1  0
 21 16  1  0
 32 22  1  0
 31 25  1  0
  3 33  1  0
  4 34  1  0
  6 35  1  0
  8 36  1  0
  8 37  1  0
  9 38  1  1
 10 39  1  0
 11 40  1  0
 11 41  1  0
 12 42  1  6
 13 43  1  0
 13 44  1  0
 15 45  1  0
 15 46  1  0
 17 47  1  0
 18 48  1  0
 19 49  1  0
 20 50  1  0
 21 51  1  0
 23 52  1  0
 24 53  1  0
 26 54  1  0
 29 55  1  0
 30 56  1  0
M  END
>  <meeko>  (12) 
{"free_energy": -8.63, "intermolecular_energy": -11.62, "internal_energy": -2.48, "cluster_size": 2, "cluster_id": 2, "rank_in_cluster": 1}

$$$$

     RDKit          3D

 56 59  0  0  0  0  0  0  0  0999 V2000
  140.0220   72.4160  220.7700 O   0  0  0  0  0  0  0  0  0  0  0  0
  139.8460   72.7530  221.9730 C   0  0  0  0  0  0  0  0  0  0  0  0
  139.5710   74.1240  222.2990 N   0  0  0  0  0  0  0  0  0  0  0  0
  139.4130   75.1290  221.2870 C   0  0  0  0  0  0  0  0  0  0  0  0
  140.0920   76.2810  221.3170 C   0  0  0  0  0  0  0  0  0  0  0  0
  141.0910   76.4490  222.2730 O   0  0  0  0  0  0  0  0  0  0  0  0
  139.8200   77.3430  220.3880 N   0  0  0  0  0  0  0  0  0  0  0  0
  138.8770   78.4060  220.6800 C   0  0  0  0  0  0  0  0  0  0  0  0
  138.9960   79.3860  219.5160 C   0  0  2  0  0  0  0  0  0  0  0  0
  137.7290   79.8330  219.1110 O   0  0  0  0  0  0  0  0  0  0  0  0
  139.6990   78.6110  218.3970 C   0  0  0  0  0  0  0  0  0  0  0  0
  140.4860   77.5020  219.1000 C   0  0  1  0  0  0  0  0  0  0  0  0
  141.9590   77.8900  219.2980 C   0  0  0  0  0  0  0  0  0  0  0  0
  142.6020   76.9120  220.0900 O   0  0  0  0  0  0  0  0  0  0  0  0
  143.5470   76.1960  219.3190 C   0  0  0  0  0  0  0  0  0  0  0  0
  143.7840   74.8360  219.9160 C   0  0  0  0  0  0  0  0  0  0  0  0
  145.0370   74.5200  220.4680 C   0  0  0  0  0  0  0  0  0  0  0  0
  145.2730   73.2450  220.9910 C   0  0  0  0  0  0  0  0  0  0  0  0
  144.2640   72.2780  220.9660 C   0  0  0  0  0  0  0  0  0  0  0  0
  143.0170   72.5840  220.4150 C   0  0  0  0  0  0  0  0  0  0  0  0
  142.7750   73.8580  219.8890 C   0  0  0  0  0  0  0  0  0  0  0  0
  139.9070   71.7300  223.0400 C   0  0  0  0  0  0  0  0  0  0  0  0
  139.4450   70.4210  222.8190 C   0  0  0  0  0  0  0  0  0  0  0  0
  139.5030   69.4830  223.8520 C   0  0  0  0  0  0  0  0  0  0  0  0
  140.0190   69.8490  225.1000 C   0  0  0  0  0  0  0  0  0  0  0  0
  140.0930   68.9310  226.1590 C   0  0  0  0  0  0  0  0  0  0  0  0
  140.6180   69.3300  227.3950 C   0  0  0  0  0  0  0  0  0  0  0  0
  140.7110   68.1820  228.7180 Cl  0  0  0  0  0  0  0  0  0  0  0  0
  141.0640   70.6440  227.5770 C   0  0  0  0  0  0  0  0  0  0  0  0
  140.9950   71.5640  226.5260 C   0  0  0  0  0  0  0  0  0  0  0  0
  140.4750   71.1720  225.2870 C   0  0  0  0  0  0  0  0  0  0  0  0
  140.4040   72.0640  224.2630 N   0  0  0  0  0  0  0  0  0  0  0  0
  139.5100   74.4010  223.3040 H   0  0  0  0  0  0  0  0  0  0  0  0
  138.7110   74.9461  220.4601 H   0  0  0  0  0  0  0  0  0  0  0  0
  142.0570   76.5740  222.0000 H   0  0  0  0  0  0  0  0  0  0  0  0
  137.8542   78.0062  220.7432 H   0  0  0  0  0  0  0  0  0  0  0  0
  139.0918   78.8892  221.6446 H   0  0  0  0  0  0  0  0  0  0  0  0
  139.5628   80.2867  219.7944 H   0  0  0  0  0  0  0  0  0  0  0  0
  137.2790   79.0550  218.6900 H   0  0  0  0  0  0  0  0  0  0  0  0
  138.9604   78.1793  217.7056 H   0  0  0  0  0  0  0  0  0  0  0  0
  140.3550   79.2614  217.7998 H   0  0  0  0  0  0  0  0  0  0  0  0
  140.4985   76.5742  218.5093 H   0  0  0  0  0  0  0  0  0  0  0  0
  142.4561   77.9536  218.3188 H   0  0  0  0  0  0  0  0  0  0  0  0
  142.0162   78.8657  219.8026 H   0  0  0  0  0  0  0  0  0  0  0  0
  143.1663   76.0809  218.2934 H   0  0  0  0  0  0  0  0  0  0  0  0
  144.4957   76.7526  219.3082 H   0  0  0  0  0  0  0  0  0  0  0  0
  145.8342   75.2776  220.4887 H   0  0  0  0  0  0  0  0  0  0  0  0
  146.2550   73.0023  221.4232 H   0  0  0  0  0  0  0  0  0  0  0  0
  144.4517   71.2763  221.3800 H   0  0  0  0  0  0  0  0  0  0  0  0
  142.2240   71.8220  220.3946 H   0  0  0  0  0  0  0  0  0  0  0  0
  141.7930   74.0945  219.4535 H   0  0  0  0  0  0  0  0  0  0  0  0
  139.0396   70.1367  221.8368 H   0  0  0  0  0  0  0  0  0  0  0  0
  139.1432   68.4571  223.6846 H   0  0  0  0  0  0  0  0  0  0  0  0
  139.7391   67.8990  226.0186 H   0  0  0  0  0  0  0  0  0  0  0  0
  141.4705   70.9545  228.5508 H   0  0  0  0  0  0  0  0  0  0  0  0
  141.3491   72.5950  226.6729 H   0  0  0  0  0  0  0  0  0  0  0  0
  1  2  2  0
  2  3  1  0
  3  4  1  0
  4  5  2  0
  5  6  1  0
  5  7  1  0
  7  8  1  0
  8  9  1  0
  9 10  1  0
  9 11  1  0
 11 12  1  0
 12 13  1  0
 13 14  1  0
 14 15  1  0
 15 16  1  0
 16 17  2  0
 17 18  1  0
 18 19  2  0
 19 20  1  0
 20 21  2  0
  2 22  1  0
 22 23  2  0
 23 24  1  0
 24 25  2  0
 25 26  1  0
 26 27  2  0
 27 28  1  0
 27 29  1  0
 29 30  2  0
 30 31  1  0
 31 32  2  0
 12  7  1  0
 21 16  1  0
 32 22  1  0
 31 25  1  0
  3 33  1  0
  4 34  1  0
  6 35  1  0
  8 36  1  0
  8 37  1  0
  9 38  1  1
 10 39  1  0
 11 40  1  0
 11 41  1  0
 12 42  1  6
 13 43  1  0
 13 44  1  0
 15 45  1  0
 15 46  1  0
 17 47  1  0
 18 48  1  0
 19 49  1  0
 20 50  1  0
 21 51  1  0
 23 52  1  0
 24 53  1  0
 26 54  1  0
 29 55  1  0
 30 56  1  0
M  END
>  <meeko>  (13) 
{"free_energy": -7.18, "intermolecular_energy": -10.16, "internal_energy": -2.76, "cluster_size": 2, "cluster_id": 5, "rank_in_cluster": 2}

$$$$

     RDKit          3D

 56 59  0  0  0  0  0  0  0  0999 V2000
  139.4670   73.4100  221.0900 O   0  0  0  0  0  0  0  0  0  0  0  0
  140.4590   72.8240  221.6060 C   0  0  0  0  0  0  0  0  0  0  0  0
  141.7790   73.0750  221.1010 N   0  0  0  0  0  0  0  0  0  0  0  0
  142.0270   74.0360  220.0640 C   0  0  0  0  0  0  0  0  0  0  0  0
  141.9280   75.3530  220.2770 C   0  0  0  0  0  0  0  0  0  0  0  0
  143.0380   76.1590  220.0430 O   0  0  0  0  0  0  0  0  0  0  0  0
  140.7060   75.9530  220.7360 N   0  0  0  0  0  0  0  0  0  0  0  0
  140.3740   76.0570  222.1450 C   0  0  0  0  0  0  0  0  0  0  0  0
  139.0870   76.8760  222.2000 C   0  0  2  0  0  0  0  0  0  0  0  0
  138.1910   76.3290  223.1310 O   0  0  0  0  0  0  0  0  0  0  0  0
  138.5120   76.8350  220.7800 C   0  0  0  0  0  0  0  0  0  0  0  0
  139.7080   76.5630  219.8640 C   0  0  1  0  0  0  0  0  0  0  0  0
  140.2530   77.8590  219.2440 C   0  0  0  0  0  0  0  0  0  0  0  0
  141.4500   78.2270  219.9000 O   0  0  0  0  0  0  0  0  0  0  0  0
  141.5100   79.6300  220.0640 C   0  0  0  0  0  0  0  0  0  0  0  0
  141.7290   79.9760  221.5120 C   0  0  0  0  0  0  0  0  0  0  0  0
  141.7900   81.3230  221.9100 C   0  0  0  0  0  0  0  0  0  0  0  0
  142.0280   81.6490  223.2490 C   0  0  0  0  0  0  0  0  0  0  0  0
  142.2100   80.6380  224.1960 C   0  0  0  0  0  0  0  0  0  0  0  0
  142.1540   79.2960  223.8060 C   0  0  0  0  0  0  0  0  0  0  0  0
  141.9160   78.9640  222.4680 C   0  0  0  0  0  0  0  0  0  0  0  0
  140.2560   71.8960  222.7390 C   0  0  0  0  0  0  0  0  0  0  0  0
  139.5970   70.6670  222.5640 C   0  0  0  0  0  0  0  0  0  0  0  0
  139.4090   69.8200  223.6590 C   0  0  0  0  0  0  0  0  0  0  0  0
  139.8750   70.1980  224.9230 C   0  0  0  0  0  0  0  0  0  0  0  0
  139.7030   69.3710  226.0440 C   0  0  0  0  0  0  0  0  0  0  0  0
  140.1850   69.7780  227.2940 C   0  0  0  0  0  0  0  0  0  0  0  0
  139.9700   68.7440  228.6940 Cl  0  0  0  0  0  0  0  0  0  0  0  0
  140.8320   71.0120  227.4300 C   0  0  0  0  0  0  0  0  0  0  0  0
  141.0070   71.8410  226.3160 C   0  0  0  0  0  0  0  0  0  0  0  0
  140.5320   71.4390  225.0630 C   0  0  0  0  0  0  0  0  0  0  0  0
  140.7000   72.2440  223.9800 N   0  0  0  0  0  0  0  0  0  0  0  0
  142.5780   72.5200  221.4810 H   0  0  0  0  0  0  0  0  0  0  0  0
  142.3073   73.6782  219.0623 H   0  0  0  0  0  0  0  0  0  0  0  0
  143.1450   77.0480  220.5140 H   0  0  0  0  0  0  0  0  0  0  0  0
  140.2131   75.0583  222.5770 H   0  0  0  0  0  0  0  0  0  0  0  0
  141.1833   76.5285  222.7218 H   0  0  0  0  0  0  0  0  0  0  0  0
  139.2723   77.9106  222.5246 H   0  0  0  0  0  0  0  0  0  0  0  0
  138.3410   75.3480  223.1230 H   0  0  0  0  0  0  0  0  0  0  0  0
  137.7673   76.0305  220.6896 H   0  0  0  0  0  0  0  0  0  0  0  0
  138.0018   77.7737  220.5183 H   0  0  0  0  0  0  0  0  0  0  0  0
  139.4326   75.9182  219.0164 H   0  0  0  0  0  0  0  0  0  0  0  0
  140.4553   77.6974  218.1749 H   0  0  0  0  0  0  0  0  0  0  0  0
  139.5097   78.6617  219.3588 H   0  0  0  0  0  0  0  0  0  0  0  0
  142.3413   80.0304  219.4652 H   0  0  0  0  0  0  0  0  0  0  0  0
  140.5593   80.0710  219.7298 H   0  0  0  0  0  0  0  0  0  0  0  0
  141.6503   82.1219  221.1669 H   0  0  0  0  0  0  0  0  0  0  0  0
  142.0720   82.7040  223.5574 H   0  0  0  0  0  0  0  0  0  0  0  0
  142.3974   80.8975  225.2484 H   0  0  0  0  0  0  0  0  0  0  0  0
  142.2973   78.5006  224.5522 H   0  0  0  0  0  0  0  0  0  0  0  0
  141.8752   77.9077  222.1638 H   0  0  0  0  0  0  0  0  0  0  0  0
  139.2308   70.3733  221.5692 H   0  0  0  0  0  0  0  0  0  0  0  0
  138.8949   68.8565  223.5275 H   0  0  0  0  0  0  0  0  0  0  0  0
  139.1898   68.4036  225.9405 H   0  0  0  0  0  0  0  0  0  0  0  0
  141.2038   71.3309  228.4149 H   0  0  0  0  0  0  0  0  0  0  0  0
  141.5181   72.8088  226.4257 H   0  0  0  0  0  0  0  0  0  0  0  0
  1  2  2  0
  2  3  1  0
  3  4  1  0
  4  5  2  0
  5  6  1  0
  5  7  1  0
  7  8  1  0
  8  9  1  0
  9 10  1  0
  9 11  1  0
 11 12  1  0
 12 13  1  0
 13 14  1  0
 14 15  1  0
 15 16  1  0
 16 17  2  0
 17 18  1  0
 18 19  2  0
 19 20  1  0
 20 21  2  0
  2 22  1  0
 22 23  2  0
 23 24  1  0
 24 25  2  0
 25 26  1  0
 26 27  2  0
 27 28  1  0
 27 29  1  0
 29 30  2  0
 30 31  1  0
 31 32  2  0
 12  7  1  0
 21 16  1  0
 32 22  1  0
 31 25  1  0
  3 33  1  0
  4 34  1  0
  6 35  1  0
  8 36  1  0
  8 37  1  0
  9 38  1  1
 10 39  1  0
 11 40  1  0
 11 41  1  0
 12 42  1  6
 13 43  1  0
 13 44  1  0
 15 45  1  0
 15 46  1  0
 17 47  1  0
 18 48  1  0
 19 49  1  0
 20 50  1  0
 21 51  1  0
 23 52  1  0
 24 53  1  0
 26 54  1  0
 29 55  1  0
 30 56  1  0
M  END
>  <meeko>  (14) 
{"free_energy": -7.62, "intermolecular_energy": -10.6, "internal_energy": -2.6, "cluster_size": 4, "cluster_id": 4, "rank_in_cluster": 2}

$$$$

     RDKit          3D

 56 59  0  0  0  0  0  0  0  0999 V2000
  134.5650   70.4730  226.3250 O   0  0  0  0  0  0  0  0  0  0  0  0
  134.1590   71.4450  225.6290 C   0  0  0  0  0  0  0  0  0  0  0  0
  134.3410   71.4300  224.2050 N   0  0  0  0  0  0  0  0  0  0  0  0
  134.9100   70.3020  223.5230 C   0  0  0  0  0  0  0  0  0  0  0  0
  136.0100   69.6840  223.9680 C   0  0  0  0  0  0  0  0  0  0  0  0
  135.8700   68.5730  224.7950 O   0  0  0  0  0  0  0  0  0  0  0  0
  137.3260   70.1340  223.6090 N   0  0  0  0  0  0  0  0  0  0  0  0
  137.7710   71.4950  223.8440 C   0  0  0  0  0  0  0  0  0  0  0  0
  139.2490   71.5110  223.4610 C   0  0  2  0  0  0  0  0  0  0  0  0
  139.5620   72.6730  222.7400 O   0  0  0  0  0  0  0  0  0  0  0  0
  139.4680   70.2520  222.6150 C   0  0  0  0  0  0  0  0  0  0  0  0
  138.3610   69.2810  223.0330 C   0  0  1  0  0  0  0  0  0  0  0  0
  138.8610   68.2640  224.0700 C   0  0  0  0  0  0  0  0  0  0  0  0
  138.4800   68.6850  225.3640 O   0  0  0  0  0  0  0  0  0  0  0  0
  139.5410   68.4900  226.2780 C   0  0  0  0  0  0  0  0  0  0  0  0
  140.1050   69.8160  226.7110 C   0  0  0  0  0  0  0  0  0  0  0  0
  140.9870   70.5130  225.8670 C   0  0  0  0  0  0  0  0  0  0  0  0
  141.5420   71.7280  226.2810 C   0  0  0  0  0  0  0  0  0  0  0  0
  141.2240   72.2530  227.5360 C   0  0  0  0  0  0  0  0  0  0  0  0
  140.3500   71.5630  228.3820 C   0  0  0  0  0  0  0  0  0  0  0  0
  139.7930   70.3470  227.9740 C   0  0  0  0  0  0  0  0  0  0  0  0
  133.4820   72.5860  226.2830 C   0  0  0  0  0  0  0  0  0  0  0  0
  132.2910   72.4080  227.0080 C   0  0  0  0  0  0  0  0  0  0  0  0
  131.6700   73.5090  227.6010 C   0  0  0  0  0  0  0  0  0  0  0  0
  132.2340   74.7830  227.4710 C   0  0  0  0  0  0  0  0  0  0  0  0
  131.6360   75.9110  228.0550 C   0  0  0  0  0  0  0  0  0  0  0  0
  132.2290   77.1710  227.9080 C   0  0  0  0  0  0  0  0  0  0  0  0
  131.4810   78.5800  228.6380 Cl  0  0  0  0  0  0  0  0  0  0  0  0
  133.4130   77.3100  227.1750 C   0  0  0  0  0  0  0  0  0  0  0  0
  134.0140   76.1890  226.5910 C   0  0  0  0  0  0  0  0  0  0  0  0
  133.4310   74.9260  226.7370 C   0  0  0  0  0  0  0  0  0  0  0  0
  134.0120   73.8360  226.1690 N   0  0  0  0  0  0  0  0  0  0  0  0
  134.0760   72.2760  223.6540 H   0  0  0  0  0  0  0  0  0  0  0  0
  134.4264   69.9344  222.6059 H   0  0  0  0  0  0  0  0  0  0  0  0
  136.3380   68.5290  225.6910 H   0  0  0  0  0  0  0  0  0  0  0  0
  137.2036   72.1989  223.2175 H   0  0  0  0  0  0  0  0  0  0  0  0
  137.6162   71.8010  224.8892 H   0  0  0  0  0  0  0  0  0  0  0  0
  139.9024   71.5150  224.3459 H   0  0  0  0  0  0  0  0  0  0  0  0
  138.9590   73.3850  223.0800 H   0  0  0  0  0  0  0  0  0  0  0  0
  139.3869   70.4895  221.5440 H   0  0  0  0  0  0  0  0  0  0  0  0
  140.4685   69.8229  222.7731 H   0  0  0  0  0  0  0  0  0  0  0  0
  137.9981   68.6862  222.1818 H   0  0  0  0  0  0  0  0  0  0  0  0
  138.4192   67.2788  223.8600 H   0  0  0  0  0  0  0  0  0  0  0  0
  139.9574   68.1933  224.0153 H   0  0  0  0  0  0  0  0  0  0  0  0
  139.1662   67.9494  227.1596 H   0  0  0  0  0  0  0  0  0  0  0  0
  140.3338   67.9059  225.7879 H   0  0  0  0  0  0  0  0  0  0  0  0
  141.2411   70.1019  224.8789 H   0  0  0  0  0  0  0  0  0  0  0  0
  142.2304   72.2715  225.6171 H   0  0  0  0  0  0  0  0  0  0  0  0
  141.6612   73.2094  227.8588 H   0  0  0  0  0  0  0  0  0  0  0  0
  140.1003   71.9774  229.3699 H   0  0  0  0  0  0  0  0  0  0  0  0
  139.1089   69.8048  228.6434 H   0  0  0  0  0  0  0  0  0  0  0  0
  131.8499   71.4052  227.1078 H   0  0  0  0  0  0  0  0  0  0  0  0
  130.7381   73.3750  228.1699 H   0  0  0  0  0  0  0  0  0  0  0  0
  130.7027   75.8051  228.6274 H   0  0  0  0  0  0  0  0  0  0  0  0
  133.8723   78.3026  227.0576 H   0  0  0  0  0  0  0  0  0  0  0  0
  134.9455   76.3013  226.0168 H   0  0  0  0  0  0  0  0  0  0  0  0
  1  2  2  0
  2  3  1  0
  3  4  1  0
  4  5  2  0
  5  6  1  0
  5  7  1  0
  7  8  1  0
  8  9  1  0
  9 10  1  0
  9 11  1  0
 11 12  1  0
 12 13  1  0
 13 14  1  0
 14 15  1  0
 15 16  1  0
 16 17  2  0
 17 18  1  0
 18 19  2  0
 19 20  1  0
 20 21  2  0
  2 22  1  0
 22 23  2  0
 23 24  1  0
 24 25  2  0
 25 26  1  0
 26 27  2  0
 27 28  1  0
 27 29  1  0
 29 30  2  0
 30 31  1  0
 31 32  2  0
 12  7  1  0
 21 16  1  0
 32 22  1  0
 31 25  1  0
  3 33  1  0
  4 34  1  0
  6 35  1  0
  8 36  1  0
  8 37  1  0
  9 38  1  1
 10 39  1  0
 11 40  1  0
 11 41  1  0
 12 42  1  6
 13 43  1  0
 13 44  1  0
 15 45  1  0
 15 46  1  0
 17 47  1  0
 18 48  1  0
 19 49  1  0
 20 50  1  0
 21 51  1  0
 23 52  1  0
 24 53  1  0
 26 54  1  0
 29 55  1  0
 30 56  1  0
M  END
>  <meeko>  (15) 
{"free_energy": -8.51, "intermolecular_energy": -11.5, "internal_energy": -2.52, "cluster_size": 2, "cluster_id": 2, "rank_in_cluster": 2}

$$$$

     RDKit          3D

 56 59  0  0  0  0  0  0  0  0999 V2000
  135.6940   77.3140  223.7070 O   0  0  0  0  0  0  0  0  0  0  0  0
  136.4910   77.9830  222.9930 C   0  0  0  0  0  0  0  0  0  0  0  0
  136.2080   79.3600  222.7030 N   0  0  0  0  0  0  0  0  0  0  0  0
  135.0730   80.0370  223.2640 C   0  0  0  0  0  0  0  0  0  0  0  0
  134.8200   80.0310  224.5770 C   0  0  0  0  0  0  0  0  0  0  0  0
  133.9340   79.0860  225.0880 O   0  0  0  0  0  0  0  0  0  0  0  0
  135.4410   80.9700  225.4700 N   0  0  0  0  0  0  0  0  0  0  0  0
  134.9790   81.1690  226.8310 C   0  0  0  0  0  0  0  0  0  0  0  0
  135.9870   82.1230  227.4670 C   0  0  2  0  0  0  0  0  0  0  0  0
  135.3310   83.0910  228.2430 O   0  0  0  0  0  0  0  0  0  0  0  0
  136.7430   82.7620  226.2970 C   0  0  0  0  0  0  0  0  0  0  0  0
  136.6150   81.7700  225.1380 C   0  0  1  0  0  0  0  0  0  0  0  0
  137.8600   80.8780  225.0170 C   0  0  0  0  0  0  0  0  0  0  0  0
  138.0840   80.5660  223.6560 O   0  0  0  0  0  0  0  0  0  0  0  0
  139.0800   81.4100  223.1140 C   0  0  0  0  0  0  0  0  0  0  0  0
  140.4170   80.7210  223.1380 C   0  0  0  0  0  0  0  0  0  0  0  0
  141.4970   81.2590  222.4160 C   0  0  0  0  0  0  0  0  0  0  0  0
  142.7320   80.6020  222.4070 C   0  0  0  0  0  0  0  0  0  0  0  0
  142.8960   79.4070  223.1120 C   0  0  0  0  0  0  0  0  0  0  0  0
  141.8250   78.8650  223.8290 C   0  0  0  0  0  0  0  0  0  0  0  0
  140.5880   79.5170  223.8420 C   0  0  0  0  0  0  0  0  0  0  0  0
  137.7220   77.3480  222.4720 C   0  0  0  0  0  0  0  0  0  0  0  0
  138.0040   75.9940  222.7230 C   0  0  0  0  0  0  0  0  0  0  0  0
  139.1830   75.4300  222.2300 C   0  0  0  0  0  0  0  0  0  0  0  0
  140.0760   76.2130  221.4900 C   0  0  0  0  0  0  0  0  0  0  0  0
  141.2680   75.6770  220.9780 C   0  0  0  0  0  0  0  0  0  0  0  0
  142.1380   76.4870  220.2390 C   0  0  0  0  0  0  0  0  0  0  0  0
  143.6280   75.8170  219.6000 Cl  0  0  0  0  0  0  0  0  0  0  0  0
  141.8240   77.8320  220.0140 C   0  0  0  0  0  0  0  0  0  0  0  0
  140.6370   78.3730  220.5190 C   0  0  0  0  0  0  0  0  0  0  0  0
  139.7610   77.5680  221.2560 C   0  0  0  0  0  0  0  0  0  0  0  0
  138.6070   78.0910  221.7500 N   0  0  0  0  0  0  0  0  0  0  0  0
  136.8320   79.8760  222.0440 H   0  0  0  0  0  0  0  0  0  0  0  0
  134.3899   80.5778  222.5925 H   0  0  0  0  0  0  0  0  0  0  0  0
  134.0270   78.1060  224.8560 H   0  0  0  0  0  0  0  0  0  0  0  0
  133.9730   81.6140  226.8346 H   0  0  0  0  0  0  0  0  0  0  0  0
  134.9108   80.2196  227.3823 H   0  0  0  0  0  0  0  0  0  0  0  0
  136.6753   81.6002  228.1474 H   0  0  0  0  0  0  0  0  0  0  0  0
  135.8730   83.2040  229.0670 H   0  0  0  0  0  0  0  0  0  0  0  0
  136.2904   83.7279  226.0283 H   0  0  0  0  0  0  0  0  0  0  0  0
  137.7948   82.9609  226.5502 H   0  0  0  0  0  0  0  0  0  0  0  0
  136.5196   82.2839  224.1701 H   0  0  0  0  0  0  0  0  0  0  0  0
  138.7338   81.4110  225.4199 H   0  0  0  0  0  0  0  0  0  0  0  0
  137.7034   79.9496  225.5858 H   0  0  0  0  0  0  0  0  0  0  0  0
  138.8186   81.6591  222.0749 H   0  0  0  0  0  0  0  0  0  0  0  0
  139.1392   82.3276  223.7177 H   0  0  0  0  0  0  0  0  0  0  0  0
  141.3706   82.1981  221.8573 H   0  0  0  0  0  0  0  0  0  0  0  0
  143.5757   81.0271  221.8437 H   0  0  0  0  0  0  0  0  0  0  0  0
  143.8681   78.8923  223.1030 H   0  0  0  0  0  0  0  0  0  0  0  0
  141.9557   77.9242  224.3838 H   0  0  0  0  0  0  0  0  0  0  0  0
  139.7467   79.0863  224.4047 H   0  0  0  0  0  0  0  0  0  0  0  0
  137.2996   75.3815  223.3049 H   0  0  0  0  0  0  0  0  0  0  0  0
  139.4093   74.3710  222.4233 H   0  0  0  0  0  0  0  0  0  0  0  0
  141.5183   74.6210  221.1574 H   0  0  0  0  0  0  0  0  0  0  0  0
  142.5135   78.4664  219.4377 H   0  0  0  0  0  0  0  0  0  0  0  0
  140.3924   79.4299  220.3370 H   0  0  0  0  0  0  0  0  0  0  0  0
  1  2  2  0
  2  3  1  0
  3  4  1  0
  4  5  2  0
  5  6  1  0
  5  7  1  0
  7  8  1  0
  8  9  1  0
  9 10  1  0
  9 11  1  0
 11 12  1  0
 12 13  1  0
 13 14  1  0
 14 15  1  0
 15 16  1  0
 16 17  2  0
 17 18  1  0
 18 19  2  0
 19 20  1  0
 20 21  2  0
  2 22  1  0
 22 23  2  0
 23 24  1  0
 24 25  2  0
 25 26  1  0
 26 27  2  0
 27 28  1  0
 27 29  1  0
 29 30  2  0
 30 31  1  0
 31 32  2  0
 12  7  1  0
 21 16  1  0
 32 22  1  0
 31 25  1  0
  3 33  1  0
  4 34  1  0
  6 35  1  0
  8 36  1  0
  8 37  1  0
  9 38  1  1
 10 39  1  0
 11 40  1  0
 11 41  1  0
 12 42  1  6
 13 43  1  0
 13 44  1  0
 15 45  1  0
 15 46  1  0
 17 47  1  0
 18 48  1  0
 19 49  1  0
 20 50  1  0
 21 51  1  0
 23 52  1  0
 24 53  1  0
 26 54  1  0
 29 55  1  0
 30 56  1  0
M  END
>  <meeko>  (16) 
{"free_energy": -5.8, "intermolecular_energy": -8.78, "internal_energy": -4.14, "cluster_size": 1, "cluster_id": 8, "rank_in_cluster": 1}

$$$$

     RDKit          3D

 56 59  0  0  0  0  0  0  0  0999 V2000
  140.1200   73.7020  221.9450 O   0  0  0  0  0  0  0  0  0  0  0  0
  140.1250   72.4530  221.7580 C   0  0  0  0  0  0  0  0  0  0  0  0
  140.2120   71.9300  220.4250 N   0  0  0  0  0  0  0  0  0  0  0  0
  140.3700   72.7830  219.2810 C   0  0  0  0  0  0  0  0  0  0  0  0
  141.0460   73.9360  219.3430 C   0  0  0  0  0  0  0  0  0  0  0  0
  140.3350   75.1320  219.3860 O   0  0  0  0  0  0  0  0  0  0  0  0
  142.4820   73.9680  219.3700 N   0  0  0  0  0  0  0  0  0  0  0  0
  143.2920   73.2070  218.4370 C   0  0  0  0  0  0  0  0  0  0  0  0
  144.7330   73.6330  218.7090 C   0  0  2  0  0  0  0  0  0  0  0  0
  145.5890   72.5220  218.6950 O   0  0  0  0  0  0  0  0  0  0  0  0
  144.7100   74.3050  220.0860 C   0  0  0  0  0  0  0  0  0  0  0  0
  143.2710   74.7930  220.2780 C   0  0  1  0  0  0  0  0  0  0  0  0
  143.1250   76.2800  219.9230 C   0  0  0  0  0  0  0  0  0  0  0  0
  141.9100   76.7720  220.4510 O   0  0  0  0  0  0  0  0  0  0  0  0
  141.7810   78.1550  220.1840 C   0  0  0  0  0  0  0  0  0  0  0  0
  141.8140   78.9390  221.4670 C   0  0  0  0  0  0  0  0  0  0  0  0
  141.4540   78.3210  222.6770 C   0  0  0  0  0  0  0  0  0  0  0  0
  141.4490   79.0560  223.8670 C   0  0  0  0  0  0  0  0  0  0  0  0
  141.7990   80.4090  223.8570 C   0  0  0  0  0  0  0  0  0  0  0  0
  142.1540   81.0310  222.6570 C   0  0  0  0  0  0  0  0  0  0  0  0
  142.1600   80.3010  221.4640 C   0  0  0  0  0  0  0  0  0  0  0  0
  140.0590   71.5370  222.9180 C   0  0  0  0  0  0  0  0  0  0  0  0
  139.4490   70.2750  222.8140 C   0  0  0  0  0  0  0  0  0  0  0  0
  139.3900   69.4400  223.9320 C   0  0  0  0  0  0  0  0  0  0  0  0
  139.9370   69.8630  225.1490 C   0  0  0  0  0  0  0  0  0  0  0  0
  139.8950   69.0490  226.2920 C   0  0  0  0  0  0  0  0  0  0  0  0
  140.4550   69.5010  227.4930 C   0  0  0  0  0  0  0  0  0  0  0  0
  140.4040   68.4830  228.9200 Cl  0  0  0  0  0  0  0  0  0  0  0  0
  141.0500   70.7660  227.5580 C   0  0  0  0  0  0  0  0  0  0  0  0
  141.0960   71.5820  226.4230 C   0  0  0  0  0  0  0  0  0  0  0  0
  140.5420   71.1360  225.2180 C   0  0  0  0  0  0  0  0  0  0  0  0
  140.5830   71.9270  224.1130 N   0  0  0  0  0  0  0  0  0  0  0  0
  140.1310   70.8980  220.2810 H   0  0  0  0  0  0  0  0  0  0  0  0
  139.9213   72.4792  218.3237 H   0  0  0  0  0  0  0  0  0  0  0  0
  140.1180   75.5770  220.2690 H   0  0  0  0  0  0  0  0  0  0  0  0
  143.1701   72.1280  218.6128 H   0  0  0  0  0  0  0  0  0  0  0  0
  142.9999   73.3959  217.3934 H   0  0  0  0  0  0  0  0  0  0  0  0
  145.1112   74.3198  217.9375 H   0  0  0  0  0  0  0  0  0  0  0  0
  145.0080   71.7180  218.7330 H   0  0  0  0  0  0  0  0  0  0  0  0
  144.9792   73.5829  220.8709 H   0  0  0  0  0  0  0  0  0  0  0  0
  145.4335   75.1312  220.1495 H   0  0  0  0  0  0  0  0  0  0  0  0
  142.9463   74.7031  221.3251 H   0  0  0  0  0  0  0  0  0  0  0  0
  143.9665   76.8439  220.3519 H   0  0  0  0  0  0  0  0  0  0  0  0
  143.1247   76.3981  218.8294 H   0  0  0  0  0  0  0  0  0  0  0  0
  142.6111   78.4791  219.5391 H   0  0  0  0  0  0  0  0  0  0  0  0
  140.8201   78.3342  219.6795 H   0  0  0  0  0  0  0  0  0  0  0  0
  141.1755   77.2569  222.6881 H   0  0  0  0  0  0  0  0  0  0  0  0
  141.1691   78.5683  224.8124 H   0  0  0  0  0  0  0  0  0  0  0  0
  141.7950   80.9847  224.7943 H   0  0  0  0  0  0  0  0  0  0  0  0
  142.4291   82.0960  222.6507 H   0  0  0  0  0  0  0  0  0  0  0  0
  142.4364   80.7945  220.5206 H   0  0  0  0  0  0  0  0  0  0  0  0
  139.0198   69.9463  221.8560 H   0  0  0  0  0  0  0  0  0  0  0  0
  138.9142   68.4511  223.8562 H   0  0  0  0  0  0  0  0  0  0  0  0
  139.4225   68.0568  226.2441 H   0  0  0  0  0  0  0  0  0  0  0  0
  141.4831   71.1198  228.5052 H   0  0  0  0  0  0  0  0  0  0  0  0
  141.5676   72.5743  226.4777 H   0  0  0  0  0  0  0  0  0  0  0  0
  1  2  2  0
  2  3  1  0
  3  4  1  0
  4  5  2  0
  5  6  1  0
  5  7  1  0
  7  8  1  0
  8  9  1  0
  9 10  1  0
  9 11  1  0
 11 12  1  0
 12 13  1  0
 13 14  1  0
 14 15  1  0
 15 16  1  0
 16 17  2  0
 17 18  1  0
 18 19  2  0
 19 20  1  0
 20 21  2  0
  2 22  1  0
 22 23  2  0
 23 24  1  0
 24 25  2  0
 25 26  1  0
 26 27  2  0
 27 28  1  0
 27 29  1  0
 29 30  2  0
 30 31  1  0
 31 32  2  0
 12  7  1  0
 21 16  1  0
 32 22  1  0
 31 25  1  0
  3 33  1  0
  4 34  1  0
  6 35  1  0
  8 36  1  0
  8 37  1  0
  9 38  1  6
 10 39  1  0
 11 40  1  0
 11 41  1  0
 12 42  1  1
 13 43  1  0
 13 44  1  0
 15 45  1  0
 15 46  1  0
 17 47  1  0
 18 48  1  0
 19 49  1  0
 20 50  1  0
 21 51  1  0
 23 52  1  0
 24 53  1  0
 26 54  1  0
 29 55  1  0
 30 56  1  0
M  END
>  <meeko>  (17) 
{"free_energy": -8.04, "intermolecular_energy": -11.02, "internal_energy": -2.11, "cluster_size": 7, "cluster_id": 1, "rank_in_cluster": 7}

$$$$

     RDKit          3D

 56 59  0  0  0  0  0  0  0  0999 V2000
  139.7490   73.6780  222.3310 O   0  0  0  0  0  0  0  0  0  0  0  0
  139.9000   72.4500  222.0830 C   0  0  0  0  0  0  0  0  0  0  0  0
  140.0420   72.0080  220.7240 N   0  0  0  0  0  0  0  0  0  0  0  0
  140.0930   72.9300  219.6260 C   0  0  0  0  0  0  0  0  0  0  0  0
  141.1270   72.9690  218.7780 C   0  0  0  0  0  0  0  0  0  0  0  0
  140.9290   72.5810  217.4560 O   0  0  0  0  0  0  0  0  0  0  0  0
  142.4300   73.4050  219.1970 N   0  0  0  0  0  0  0  0  0  0  0  0
  143.5990   73.2860  218.3450 C   0  0  0  0  0  0  0  0  0  0  0  0
  144.7250   73.9890  219.0980 C   0  0  2  0  0  0  0  0  0  0  0  0
  145.9150   73.2520  219.0120 O   0  0  0  0  0  0  0  0  0  0  0  0
  144.2410   74.1030  220.5480 C   0  0  0  0  0  0  0  0  0  0  0  0
  142.7120   74.0530  220.4730 C   0  0  1  0  0  0  0  0  0  0  0  0
  142.0970   75.4610  220.5120 C   0  0  0  0  0  0  0  0  0  0  0  0
  141.4360   75.6510  221.7470 O   0  0  0  0  0  0  0  0  0  0  0  0
  140.5210   76.7250  221.6550 C   0  0  0  0  0  0  0  0  0  0  0  0
  141.1750   78.0060  222.0970 C   0  0  0  0  0  0  0  0  0  0  0  0
  141.5460   78.9710  221.1440 C   0  0  0  0  0  0  0  0  0  0  0  0
  142.1860   80.1470  221.5470 C   0  0  0  0  0  0  0  0  0  0  0  0
  142.4630   80.3660  222.8990 C   0  0  0  0  0  0  0  0  0  0  0  0
  142.1010   79.4100  223.8520 C   0  0  0  0  0  0  0  0  0  0  0  0
  141.4610   78.2310  223.4550 C   0  0  0  0  0  0  0  0  0  0  0  0
  139.9470   71.4750  223.1950 C   0  0  0  0  0  0  0  0  0  0  0  0
  139.4670   70.1640  223.0340 C   0  0  0  0  0  0  0  0  0  0  0  0
  139.5120   69.2740  224.1090 C   0  0  0  0  0  0  0  0  0  0  0  0
  140.0330   69.6900  225.3390 C   0  0  0  0  0  0  0  0  0  0  0  0
  140.0940   68.8200  226.4390 C   0  0  0  0  0  0  0  0  0  0  0  0
  140.6240   69.2680  227.6560 C   0  0  0  0  0  0  0  0  0  0  0  0
  140.7010   68.1810  229.0300 Cl  0  0  0  0  0  0  0  0  0  0  0  0
  141.0890   70.5830  227.7780 C   0  0  0  0  0  0  0  0  0  0  0  0
  141.0320   71.4540  226.6850 C   0  0  0  0  0  0  0  0  0  0  0  0
  140.5070   71.0130  225.4660 C   0  0  0  0  0  0  0  0  0  0  0  0
  140.4480   71.8580  224.4020 N   0  0  0  0  0  0  0  0  0  0  0  0
  140.0820   70.9820  220.5290 H   0  0  0  0  0  0  0  0  0  0  0  0
  139.2553   73.6270  219.4766 H   0  0  0  0  0  0  0  0  0  0  0  0
  140.0830   72.1020  217.1750 H   0  0  0  0  0  0  0  0  0  0  0  0
  143.8488   72.2274  218.1805 H   0  0  0  0  0  0  0  0  0  0  0  0
  143.4293   73.7327  217.3542 H   0  0  0  0  0  0  0  0  0  0  0  0
  144.9476   74.9790  218.6733 H   0  0  0  0  0  0  0  0  0  0  0  0
  146.6460   73.9120  218.8880 H   0  0  0  0  0  0  0  0  0  0  0  0
  144.6242   73.2648  221.1484 H   0  0  0  0  0  0  0  0  0  0  0  0
  144.5966   75.0278  221.0259 H   0  0  0  0  0  0  0  0  0  0  0  0
  142.2793   73.5138  221.3286 H   0  0  0  0  0  0  0  0  0  0  0  0
  142.8930   76.2122  220.4025 H   0  0  0  0  0  0  0  0  0  0  0  0
  141.3755   75.5696  219.6888 H   0  0  0  0  0  0  0  0  0  0  0  0
  140.1868   76.8290  220.6122 H   0  0  0  0  0  0  0  0  0  0  0  0
  139.6597   76.5188  222.3074 H   0  0  0  0  0  0  0  0  0  0  0  0
  141.3322   78.8003  220.0786 H   0  0  0  0  0  0  0  0  0  0  0  0
  142.4719   80.9009  220.7987 H   0  0  0  0  0  0  0  0  0  0  0  0
  142.9666   81.2920  223.2136 H   0  0  0  0  0  0  0  0  0  0  0  0
  142.3196   79.5848  224.9158 H   0  0  0  0  0  0  0  0  0  0  0  0
  141.1810   77.4785  224.2069 H   0  0  0  0  0  0  0  0  0  0  0  0
  139.0577   69.8405  222.0656 H   0  0  0  0  0  0  0  0  0  0  0  0
  139.1381   68.2465  223.9889 H   0  0  0  0  0  0  0  0  0  0  0  0
  139.7260   67.7876  226.3455 H   0  0  0  0  0  0  0  0  0  0  0  0
  141.5005   70.9323  228.7365 H   0  0  0  0  0  0  0  0  0  0  0  0
  141.4001   72.4858  226.7842 H   0  0  0  0  0  0  0  0  0  0  0  0
  1  2  2  0
  2  3  1  0
  3  4  1  0
  4  5  2  0
  5  6  1  0
  5  7  1  0
  7  8  1  0
  8  9  1  0
  9 10  1  0
  9 11  1  0
 11 12  1  0
 12 13  1  0
 13 14  1  0
 14 15  1  0
 15 16  1  0
 16 17  2  0
 17 18  1  0
 18 19  2  0
 19 20  1  0
 20 21  2  0
  2 22  1  0
 22 23  2  0
 23 24  1  0
 24 25  2  0
 25 26  1  0
 26 27  2  0
 27 28  1  0
 27 29  1  0
 29 30  2  0
 30 31  1  0
 31 32  2  0
 12  7  1  0
 21 16  1  0
 32 22  1  0
 31 25  1  0
  3 33  1  0
  4 34  1  0
  6 35  1  0
  8 36  1  0
  8 37  1  0
  9 38  1  6
 10 39  1  0
 11 40  1  0
 11 41  1  0
 12 42  1  1
 13 43  1  0
 13 44  1  0
 15 45  1  0
 15 46  1  0
 17 47  1  0
 18 48  1  0
 19 49  1  0
 20 50  1  0
 21 51  1  0
 23 52  1  0
 24 53  1  0
 26 54  1  0
 29 55  1  0
 30 56  1  0
M  END
>  <meeko>  (18) 
{"free_energy": -8.73, "intermolecular_energy": -11.72, "internal_energy": -1.44, "cluster_size": 7, "cluster_id": 1, "rank_in_cluster": 2}

$$$$

     RDKit          3D

 56 59  0  0  0  0  0  0  0  0999 V2000
  141.3500   72.6030  220.7920 O   0  0  0  0  0  0  0  0  0  0  0  0
  140.8480   73.4520  221.5810 C   0  0  0  0  0  0  0  0  0  0  0  0
  140.0730   73.0120  222.7060 N   0  0  0  0  0  0  0  0  0  0  0  0
  139.9040   71.6200  223.0150 C   0  0  0  0  0  0  0  0  0  0  0  0
  138.9790   70.8650  222.4140 C   0  0  0  0  0  0  0  0  0  0  0  0
  138.9990   70.7530  221.0260 O   0  0  0  0  0  0  0  0  0  0  0  0
  137.9710   70.1660  223.1630 N   0  0  0  0  0  0  0  0  0  0  0  0
  136.6580   69.8800  222.6170 C   0  0  0  0  0  0  0  0  0  0  0  0
  135.9640   69.0100  223.6620 C   0  0  2  0  0  0  0  0  0  0  0  0
  134.6280   69.4050  223.8270 O   0  0  0  0  0  0  0  0  0  0  0  0
  136.7670   69.2000  224.9530 C   0  0  0  0  0  0  0  0  0  0  0  0
  138.1670   69.6270  224.5040 C   0  0  1  0  0  0  0  0  0  0  0  0
  139.1390   68.4380  224.4720 C   0  0  0  0  0  0  0  0  0  0  0  0
  139.0960   67.7620  225.7130 O   0  0  0  0  0  0  0  0  0  0  0  0
  140.3040   67.9550  226.4220 C   0  0  0  0  0  0  0  0  0  0  0  0
  140.4600   69.4030  226.8000 C   0  0  0  0  0  0  0  0  0  0  0  0
  141.2490   70.2540  226.0070 C   0  0  0  0  0  0  0  0  0  0  0  0
  141.4260   71.5920  226.3740 C   0  0  0  0  0  0  0  0  0  0  0  0
  140.8220   72.0870  227.5330 C   0  0  0  0  0  0  0  0  0  0  0  0
  140.0390   71.2450  228.3280 C   0  0  0  0  0  0  0  0  0  0  0  0
  139.8590   69.9060  227.9660 C   0  0  0  0  0  0  0  0  0  0  0  0
  141.0760   74.8950  221.3490 C   0  0  0  0  0  0  0  0  0  0  0  0
  141.7600   75.3500  220.2090 C   0  0  0  0  0  0  0  0  0  0  0  0
  141.9730   76.7190  220.0290 C   0  0  0  0  0  0  0  0  0  0  0  0
  141.5050   77.6290  220.9830 C   0  0  0  0  0  0  0  0  0  0  0  0
  141.7010   79.0110  220.8320 C   0  0  0  0  0  0  0  0  0  0  0  0
  141.2170   79.8960  221.8040 C   0  0  0  0  0  0  0  0  0  0  0  0
  141.4610   81.6220  221.6150 Cl  0  0  0  0  0  0  0  0  0  0  0  0
  140.5450   79.4040  222.9290 C   0  0  0  0  0  0  0  0  0  0  0  0
  140.3460   78.0280  223.0850 C   0  0  0  0  0  0  0  0  0  0  0  0
  140.8230   77.1380  222.1160 C   0  0  0  0  0  0  0  0  0  0  0  0
  140.6320   75.8000  222.2660 N   0  0  0  0  0  0  0  0  0  0  0  0
  139.5950   73.7260  223.2990 H   0  0  0  0  0  0  0  0  0  0  0  0
  140.5571   71.1598  223.7711 H   0  0  0  0  0  0  0  0  0  0  0  0
  139.6970   71.2350  220.4750 H   0  0  0  0  0  0  0  0  0  0  0  0
  136.0961   70.8122  222.4580 H   0  0  0  0  0  0  0  0  0  0  0  0
  136.7220   69.3748  221.6420 H   0  0  0  0  0  0  0  0  0  0  0  0
  135.9354   67.9518  223.3629 H   0  0  0  0  0  0  0  0  0  0  0  0
  134.5640   70.3320  223.4800 H   0  0  0  0  0  0  0  0  0  0  0  0
  136.3094   69.9800  225.5792 H   0  0  0  0  0  0  0  0  0  0  0  0
  136.7943   68.2804  225.5560 H   0  0  0  0  0  0  0  0  0  0  0  0
  138.6118   70.3576  225.1957 H   0  0  0  0  0  0  0  0  0  0  0  0
  138.8470   67.7470  223.6675 H   0  0  0  0  0  0  0  0  0  0  0  0
  140.1601   68.8034  224.2881 H   0  0  0  0  0  0  0  0  0  0  0  0
  140.2917   67.3407  227.3344 H   0  0  0  0  0  0  0  0  0  0  0  0
  141.1473   67.6590  225.7808 H   0  0  0  0  0  0  0  0  0  0  0  0
  141.7283   69.8669  225.0958 H   0  0  0  0  0  0  0  0  0  0  0  0
  142.0417   72.2558  225.7493 H   0  0  0  0  0  0  0  0  0  0  0  0
  140.9628   73.1396  227.8198 H   0  0  0  0  0  0  0  0  0  0  0  0
  139.5637   71.6361  229.2397 H   0  0  0  0  0  0  0  0  0  0  0  0
  139.2453   69.2451  228.5958 H   0  0  0  0  0  0  0  0  0  0  0  0
  142.1263   74.6312  219.4613 H   0  0  0  0  0  0  0  0  0  0  0  0
  142.5079   77.0808  219.1385 H   0  0  0  0  0  0  0  0  0  0  0  0
  142.2341   79.3985  219.9513 H   0  0  0  0  0  0  0  0  0  0  0  0
  140.1720   80.1018  223.6932 H   0  0  0  0  0  0  0  0  0  0  0  0
  139.8147   77.6457  223.9691 H   0  0  0  0  0  0  0  0  0  0  0  0
  1  2  2  0
  2  3  1  0
  3  4  1  0
  4  5  2  0
  5  6  1  0
  5  7  1  0
  7  8  1  0
  8  9  1  0
  9 10  1  0
  9 11  1  0
 11 12  1  0
 12 13  1  0
 13 14  1  0
 14 15  1  0
 15 16  1  0
 16 17  2  0
 17 18  1  0
 18 19  2  0
 19 20  1  0
 20 21  2  0
  2 22  1  0
 22 23  2  0
 23 24  1  0
 24 25  2  0
 25 26  1  0
 26 27  2  0
 27 28  1  0
 27 29  1  0
 29 30  2  0
 30 31  1  0
 31 32  2  0
 12  7  1  0
 21 16  1  0
 32 22  1  0
 31 25  1  0
  3 33  1  0
  4 34  1  0
  6 35  1  0
  8 36  1  0
  8 37  1  0
  9 38  1  6
 10 39  1  0
 11 40  1  0
 11 41  1  0
 12 42  1  1
 13 43  1  0
 13 44  1  0
 15 45  1  0
 15 46  1  0
 17 47  1  0
 18 48  1  0
 19 49  1  0
 20 50  1  0
 21 51  1  0
 23 52  1  0
 24 53  1  0
 26 54  1  0
 29 55  1  0
 30 56  1  0
M  END
>  <meeko>  (19) 
{"free_energy": -8.32, "intermolecular_energy": -11.3, "internal_energy": -2.46, "cluster_size": 2, "cluster_id": 3, "rank_in_cluster": 1}

$$$$

     RDKit          3D

 56 59  0  0  0  0  0  0  0  0999 V2000
  137.8180   71.4880  221.4350 O   0  0  0  0  0  0  0  0  0  0  0  0
  138.5700   71.9170  222.3540 C   0  0  0  0  0  0  0  0  0  0  0  0
  139.0040   73.2850  222.3420 N   0  0  0  0  0  0  0  0  0  0  0  0
  138.5500   74.2190  221.3510 C   0  0  0  0  0  0  0  0  0  0  0  0
  137.3420   74.7890  221.4130 C   0  0  0  0  0  0  0  0  0  0  0  0
  136.2130   74.0010  221.2070 O   0  0  0  0  0  0  0  0  0  0  0  0
  137.1820   76.1900  221.6910 N   0  0  0  0  0  0  0  0  0  0  0  0
  136.5310   76.6720  222.8940 C   0  0  0  0  0  0  0  0  0  0  0  0
  136.7030   78.1890  222.8700 C   0  0  2  0  0  0  0  0  0  0  0  0
  135.5170   78.8290  223.2610 O   0  0  0  0  0  0  0  0  0  0  0  0
  137.0760   78.5370  221.4250 C   0  0  0  0  0  0  0  0  0  0  0  0
  137.6950   77.2620  220.8450 C   0  0  1  0  0  0  0  0  0  0  0  0
  139.2300   77.3040  220.8950 C   0  0  0  0  0  0  0  0  0  0  0  0
  139.6650   77.0140  222.2080 O   0  0  0  0  0  0  0  0  0  0  0  0
  141.0510   77.2610  222.3340 C   0  0  0  0  0  0  0  0  0  0  0  0
  141.2870   78.6490  222.8650 C   0  0  0  0  0  0  0  0  0  0  0  0
  140.2030   79.4230  223.3110 C   0  0  0  0  0  0  0  0  0  0  0  0
  140.4130   80.7270  223.7720 C   0  0  0  0  0  0  0  0  0  0  0  0
  141.7020   81.2660  223.7880 C   0  0  0  0  0  0  0  0  0  0  0  0
  142.7850   80.5030  223.3420 C   0  0  0  0  0  0  0  0  0  0  0  0
  142.5800   79.1990  222.8790 C   0  0  0  0  0  0  0  0  0  0  0  0
  138.9860   71.0110  223.4470 C   0  0  0  0  0  0  0  0  0  0  0  0
  138.7140   69.6330  223.3920 C   0  0  0  0  0  0  0  0  0  0  0  0
  139.1070   68.8070  224.4480 C   0  0  0  0  0  0  0  0  0  0  0  0
  139.7670   69.3540  225.5540 C   0  0  0  0  0  0  0  0  0  0  0  0
  140.1760   68.5530  226.6320 C   0  0  0  0  0  0  0  0  0  0  0  0
  140.8370   69.1320  227.7220 C   0  0  0  0  0  0  0  0  0  0  0  0
  141.3480   68.1310  229.0680 Cl  0  0  0  0  0  0  0  0  0  0  0  0
  141.0850   70.5090  227.7420 C   0  0  0  0  0  0  0  0  0  0  0  0
  140.6810   71.3130  226.6710 C   0  0  0  0  0  0  0  0  0  0  0  0
  140.0230   70.7420  225.5760 C   0  0  0  0  0  0  0  0  0  0  0  0
  139.6280   71.5210  224.5350 N   0  0  0  0  0  0  0  0  0  0  0  0
  139.6920   73.6020  223.0610 H   0  0  0  0  0  0  0  0  0  0  0  0
  139.2169   74.4739  220.5142 H   0  0  0  0  0  0  0  0  0  0  0  0
  136.2870   72.9950  221.1290 H   0  0  0  0  0  0  0  0  0  0  0  0
  135.4637   76.4058  222.8867 H   0  0  0  0  0  0  0  0  0  0  0  0
  136.9660   76.2259  223.8005 H   0  0  0  0  0  0  0  0  0  0  0  0
  137.4783   78.5258  223.5739 H   0  0  0  0  0  0  0  0  0  0  0  0
  134.9810   78.9560  222.4350 H   0  0  0  0  0  0  0  0  0  0  0  0
  136.1800   78.8234  220.8548 H   0  0  0  0  0  0  0  0  0  0  0  0
  137.7717   79.3876  221.3762 H   0  0  0  0  0  0  0  0  0  0  0  0
  137.4348   77.1282  219.7846 H   0  0  0  0  0  0  0  0  0  0  0  0
  139.6404   76.5575  220.1991 H   0  0  0  0  0  0  0  0  0  0  0  0
  139.5798   78.3057  220.6049 H   0  0  0  0  0  0  0  0  0  0  0  0
  141.4889   76.5278  223.0273 H   0  0  0  0  0  0  0  0  0  0  0  0
  141.5223   77.1712  221.3441 H   0  0  0  0  0  0  0  0  0  0  0  0
  139.1865   79.0028  223.2978 H   0  0  0  0  0  0  0  0  0  0  0  0
  139.5618   81.3291  224.1225 H   0  0  0  0  0  0  0  0  0  0  0  0
  141.8646   82.2913  224.1517 H   0  0  0  0  0  0  0  0  0  0  0  0
  143.7993   80.9284  223.3551 H   0  0  0  0  0  0  0  0  0  0  0  0
  143.4336   78.6023  222.5248 H   0  0  0  0  0  0  0  0  0  0  0  0
  138.1940   69.2069  222.5213 H   0  0  0  0  0  0  0  0  0  0  0  0
  138.8978   67.7277  224.4100 H   0  0  0  0  0  0  0  0  0  0  0  0
  139.9772   67.4712  226.6203 H   0  0  0  0  0  0  0  0  0  0  0  0
  141.5995   70.9608  228.6029 H   0  0  0  0  0  0  0  0  0  0  0  0
  140.8806   72.3946  226.6896 H   0  0  0  0  0  0  0  0  0  0  0  0
  1  2  2  0
  2  3  1  0
  3  4  1  0
  4  5  2  0
  5  6  1  0
  5  7  1  0
  7  8  1  0
  8  9  1  0
  9 10  1  0
  9 11  1  0
 11 12  1  0
 12 13  1  0
 13 14  1  0
 14 15  1  0
 15 16  1  0
 16 17  2  0
 17 18  1  0
 18 19  2  0
 19 20  1  0
 20 21  2  0
  2 22  1  0
 22 23  2  0
 23 24  1  0
 24 25  2  0
 25 26  1  0
 26 27  2  0
 27 28  1  0
 27 29  1  0
 29 30  2  0
 30 31  1  0
 31 32  2  0
 12  7  1  0
 21 16  1  0
 32 22  1  0
 31 25  1  0
  3 33  1  0
  4 34  1  0
  6 35  1  0
  8 36  1  0
  8 37  1  0
  9 38  1  1
 10 39  1  0
 11 40  1  0
 11 41  1  0
 12 42  1  6
 13 43  1  0
 13 44  1  0
 15 45  1  0
 15 46  1  0
 17 47  1  0
 18 48  1  0
 19 49  1  0
 20 50  1  0
 21 51  1  0
 23 52  1  0
 24 53  1  0
 26 54  1  0
 29 55  1  0
 30 56  1  0
M  END
>  <meeko>  (20) 
{"free_energy": -7.1, "intermolecular_energy": -10.09, "internal_energy": -2.41, "cluster_size": 4, "cluster_id": 4, "rank_in_cluster": 4}

$$$$
