
     RDKit          3D

 47 50  0  0  0  0  0  0  0  0999 V2000
  139.5550   70.6030  221.5340 O   0  0  0  0  0  0  0  0  0  0  0  0
  139.8730   71.4590  222.4020 C   0  0  0  0  0  0  0  0  0  0  0  0
  140.0240   72.8220  221.9800 N   0  0  0  0  0  0  0  0  0  0  0  0
  138.9660   73.7590  221.6170 C   0  0  0  0  0  0  0  0  0  0  0  0
  139.2520   75.1480  222.1230 C   0  0  0  0  0  0  0  0  0  0  0  0
  140.4530   75.4690  222.3320 O   0  0  0  0  0  0  0  0  0  0  0  0
  138.2160   76.1340  222.3210 N   0  0  0  0  0  0  0  0  0  0  0  0
  136.9890   75.8170  223.0330 C   0  0  0  0  0  0  0  0  0  0  0  0
  136.0630   77.0050  222.8150 C   0  0  0  0  0  0  0  0  0  0  0  0
  136.9620   78.1590  222.3840 C   0  0  0  0  0  0  0  0  0  0  0  0
  138.2300   77.5070  221.8220 C   0  0  1  0  0  0  0  0  0  0  0  0
  139.4740   78.2550  222.2580 C   0  0  0  0  0  0  0  0  0  0  0  0
  140.6580   78.1900  221.5010 C   0  0  0  0  0  0  0  0  0  0  0  0
  141.8010   78.8800  221.9160 C   0  0  0  0  0  0  0  0  0  0  0  0
  141.7750   79.6360  223.0930 C   0  0  0  0  0  0  0  0  0  0  0  0
  143.2090   80.5010  223.6110 Cl  0  0  0  0  0  0  0  0  0  0  0  0
  140.6050   79.6950  223.8570 C   0  0  0  0  0  0  0  0  0  0  0  0
  139.4610   79.0070  223.4450 C   0  0  0  0  0  0  0  0  0  0  0  0
  140.0880   71.0150  223.7970 C   0  0  0  0  0  0  0  0  0  0  0  0
  140.7430   71.8560  224.7120 C   0  0  0  0  0  0  0  0  0  0  0  0
  140.9770   71.4150  226.0160 C   0  0  0  0  0  0  0  0  0  0  0  0
  140.5740   70.1300  226.4000 C   0  0  0  0  0  0  0  0  0  0  0  0
  140.8010   69.6530  227.6990 C   0  0  0  0  0  0  0  0  0  0  0  0
  140.3950   68.3610  228.0480 C   0  0  0  0  0  0  0  0  0  0  0  0
  140.6170   67.8970  229.3030 F   0  0  0  0  0  0  0  0  0  0  0  0
  139.7630   67.5420  227.1050 C   0  0  0  0  0  0  0  0  0  0  0  0
  139.5320   68.0120  225.8080 C   0  0  0  0  0  0  0  0  0  0  0  0
  139.9300   69.3070  225.4510 C   0  0  0  0  0  0  0  0  0  0  0  0
  139.7090   69.7680  224.1910 N   0  0  0  0  0  0  0  0  0  0  0  0
  138.8785   73.7902  220.5209 H   0  0  0  0  0  0  0  0  0  0  0  0
  138.0294   73.4129  222.0784 H   0  0  0  0  0  0  0  0  0  0  0  0
  136.5370   74.8998  222.6274 H   0  0  0  0  0  0  0  0  0  0  0  0
  137.1760   75.6410  224.1026 H   0  0  0  0  0  0  0  0  0  0  0  0
  135.3275   76.7782  222.0291 H   0  0  0  0  0  0  0  0  0  0  0  0
  135.4980   77.2505  223.7263 H   0  0  0  0  0  0  0  0  0  0  0  0
  136.4661   78.7636  221.6104 H   0  0  0  0  0  0  0  0  0  0  0  0
  137.1890   78.8330  223.2231 H   0  0  0  0  0  0  0  0  0  0  0  0
  138.2478   77.5300  220.7224 H   0  0  0  0  0  0  0  0  0  0  0  0
  140.6847   77.5930  220.5775 H   0  0  0  0  0  0  0  0  0  0  0  0
  142.7218   78.8284  221.3164 H   0  0  0  0  0  0  0  0  0  0  0  0
  140.5855   80.2850  224.7852 H   0  0  0  0  0  0  0  0  0  0  0  0
  138.5454   79.0542  224.0529 H   0  0  0  0  0  0  0  0  0  0  0  0
  141.0706   72.8593  224.4020 H   0  0  0  0  0  0  0  0  0  0  0  0
  141.4767   72.0754  226.7400 H   0  0  0  0  0  0  0  0  0  0  0  0
  141.2976   70.2940  228.4423 H   0  0  0  0  0  0  0  0  0  0  0  0
  139.4472   66.5261  227.3847 H   0  0  0  0  0  0  0  0  0  0  0  0
  139.0379   67.3649  225.0683 H   0  0  0  0  0  0  0  0  0  0  0  0
  1  2  2  0
  2  3  1  0
  3  4  1  0
  4  5  1  0
  5  6  2  0
  5  7  1  0
  7  8  1  0
  8  9  1  0
  9 10  1  0
 10 11  1  0
 11 12  1  0
 12 13  2  0
 13 14  1  0
 14 15  2  0
 15 16  1  0
 15 17  1  0
 17 18  2  0
  2 19  1  0
 19 20  2  0
 20 21  1  0
 21 22  2  0
 22 23  1  0
 23 24  2  0
 24 25  1  0
 24 26  1  0
 26 27  2  0
 27 28  1  0
 28 29  2  0
 11  7  1  0
 18 12  1  0
 29 19  1  0
 28 22  1  0
  4 30  1  0
  4 31  1  0
  8 32  1  0
  8 33  1  0
  9 34  1  0
  9 35  1  0
 10 36  1  0
 10 37  1  0
 11 38  1  6
 13 39  1  0
 14 40  1  0
 17 41  1  0
 18 42  1  0
 20 43  1  0
 21 44  1  0
 23 45  1  0
 26 46  1  0
 27 47  1  0
M  CHG  1   3  -1
M  END
>  <meeko>  (1) 
{"free_energy": -8.15, "intermolecular_energy": -9.94, "internal_energy": -1.07, "cluster_size": 9, "cluster_id": 1, "rank_in_cluster": 4}

$$$$

     RDKit          3D

 47 50  0  0  0  0  0  0  0  0999 V2000
  140.9790   73.2500  222.3500 O   0  0  0  0  0  0  0  0  0  0  0  0
  139.9120   72.6330  222.6100 C   0  0  0  0  0  0  0  0  0  0  0  0
  138.7400   72.9650  221.8530 N   0  0  0  0  0  0  0  0  0  0  0  0
  137.9250   74.1690  221.9660 C   0  0  0  0  0  0  0  0  0  0  0  0
  138.7070   75.4080  221.6210 C   0  0  0  0  0  0  0  0  0  0  0  0
  138.4440   76.4700  222.2470 O   0  0  0  0  0  0  0  0  0  0  0  0
  139.7750   75.4100  220.6490 N   0  0  0  0  0  0  0  0  0  0  0  0
  139.5550   74.9930  219.2740 C   0  0  0  0  0  0  0  0  0  0  0  0
  140.9370   74.8910  218.6450 C   0  0  0  0  0  0  0  0  0  0  0  0
  141.8630   75.7060  219.5400 C   0  0  0  0  0  0  0  0  0  0  0  0
  141.1680   75.7700  220.9040 C   0  0  1  0  0  0  0  0  0  0  0  0
  141.2930   77.1480  221.5220 C   0  0  0  0  0  0  0  0  0  0  0  0
  141.6600   78.2590  220.7410 C   0  0  0  0  0  0  0  0  0  0  0  0
  141.7770   79.5240  221.3230 C   0  0  0  0  0  0  0  0  0  0  0  0
  141.5370   79.6910  222.6920 C   0  0  0  0  0  0  0  0  0  0  0  0
  141.6860   81.2800  223.4200 Cl  0  0  0  0  0  0  0  0  0  0  0  0
  141.1860   78.5890  223.4770 C   0  0  0  0  0  0  0  0  0  0  0  0
  141.0670   77.3230  222.8980 C   0  0  0  0  0  0  0  0  0  0  0  0
  139.9200   71.6160  223.6850 C   0  0  0  0  0  0  0  0  0  0  0  0
  139.3000   70.3710  223.4830 C   0  0  0  0  0  0  0  0  0  0  0  0
  139.2760   69.4320  224.5170 C   0  0  0  0  0  0  0  0  0  0  0  0
  139.8560   69.7410  225.7530 C   0  0  0  0  0  0  0  0  0  0  0  0
  139.8420   68.8230  226.8140 C   0  0  0  0  0  0  0  0  0  0  0  0
  140.4210   69.1670  228.0400 C   0  0  0  0  0  0  0  0  0  0  0  0
  140.4060   68.2810  229.0670 F   0  0  0  0  0  0  0  0  0  0  0  0
  141.0120   70.4230  228.2130 C   0  0  0  0  0  0  0  0  0  0  0  0
  141.0300   71.3430  227.1590 C   0  0  0  0  0  0  0  0  0  0  0  0
  140.4580   71.0060  225.9250 C   0  0  0  0  0  0  0  0  0  0  0  0
  140.4720   71.8970  224.8980 N   0  0  0  0  0  0  0  0  0  0  0  0
  137.0694   74.0854  221.2798 H   0  0  0  0  0  0  0  0  0  0  0  0
  137.5880   74.2570  223.0094 H   0  0  0  0  0  0  0  0  0  0  0  0
  139.0486   74.0169  219.2462 H   0  0  0  0  0  0  0  0  0  0  0  0
  138.9155   75.7055  218.7324 H   0  0  0  0  0  0  0  0  0  0  0  0
  141.2649   73.8416  218.6094 H   0  0  0  0  0  0  0  0  0  0  0  0
  140.9396   75.2670  217.6113 H   0  0  0  0  0  0  0  0  0  0  0  0
  142.8417   75.2121  219.6307 H   0  0  0  0  0  0  0  0  0  0  0  0
  142.0457   76.7099  219.1292 H   0  0  0  0  0  0  0  0  0  0  0  0
  141.6289   75.0838  221.6297 H   0  0  0  0  0  0  0  0  0  0  0  0
  141.8560   78.1312  219.6662 H   0  0  0  0  0  0  0  0  0  0  0  0
  142.0579   80.3894  220.7048 H   0  0  0  0  0  0  0  0  0  0  0  0
  141.0029   78.7189  224.5539 H   0  0  0  0  0  0  0  0  0  0  0  0
  140.7951   76.4590  223.5222 H   0  0  0  0  0  0  0  0  0  0  0  0
  138.8352   70.1368  222.5139 H   0  0  0  0  0  0  0  0  0  0  0  0
  138.8023   68.4517  224.3603 H   0  0  0  0  0  0  0  0  0  0  0  0
  139.3767   67.8350  226.6820 H   0  0  0  0  0  0  0  0  0  0  0  0
  141.4638   70.6881  229.1803 H   0  0  0  0  0  0  0  0  0  0  0  0
  141.4932   72.3308  227.2991 H   0  0  0  0  0  0  0  0  0  0  0  0
  1  2  2  0
  2  3  1  0
  3  4  1  0
  4  5  1  0
  5  6  2  0
  5  7  1  0
  7  8  1  0
  8  9  1  0
  9 10  1  0
 10 11  1  0
 11 12  1  0
 12 13  2  0
 13 14  1  0
 14 15  2  0
 15 16  1  0
 15 17  1  0
 17 18  2  0
  2 19  1  0
 19 20  2  0
 20 21  1  0
 21 22  2  0
 22 23  1  0
 23 24  2  0
 24 25  1  0
 24 26  1  0
 26 27  2  0
 27 28  1  0
 28 29  2  0
 11  7  1  0
 18 12  1  0
 29 19  1  0
 28 22  1  0
  4 30  1  0
  4 31  1  0
  8 32  1  0
  8 33  1  0
  9 34  1  0
  9 35  1  0
 10 36  1  0
 10 37  1  0
 11 38  1  1
 13 39  1  0
 14 40  1  0
 17 41  1  0
 18 42  1  0
 20 43  1  0
 21 44  1  0
 23 45  1  0
 26 46  1  0
 27 47  1  0
M  CHG  1   3  -1
M  END
>  <meeko>  (2) 
{"free_energy": -7.88, "intermolecular_energy": -9.67, "internal_energy": -1.45, "cluster_size": 9, "cluster_id": 1, "rank_in_cluster": 7}

$$$$

     RDKit          3D

 47 50  0  0  0  0  0  0  0  0999 V2000
  141.0980   73.1510  222.2200 O   0  0  0  0  0  0  0  0  0  0  0  0
  139.9900   72.6350  222.5270 C   0  0  0  0  0  0  0  0  0  0  0  0
  138.8230   73.0760  221.8170 N   0  0  0  0  0  0  0  0  0  0  0  0
  138.1180   74.3430  221.9720 C   0  0  0  0  0  0  0  0  0  0  0  0
  138.8080   75.4600  221.2360 C   0  0  0  0  0  0  0  0  0  0  0  0
  138.2630   76.5970  221.2350 O   0  0  0  0  0  0  0  0  0  0  0  0
  140.0860   75.2930  220.5850 N   0  0  0  0  0  0  0  0  0  0  0  0
  140.2040   74.6270  219.2980 C   0  0  0  0  0  0  0  0  0  0  0  0
  141.6950   74.4230  219.0710 C   0  0  0  0  0  0  0  0  0  0  0  0
  142.3970   75.3980  220.0110 C   0  0  0  0  0  0  0  0  0  0  0  0
  141.3820   75.7060  221.1180 C   0  0  1  0  0  0  0  0  0  0  0  0
  141.4000   77.1750  221.4880 C   0  0  0  0  0  0  0  0  0  0  0  0
  141.7590   78.1540  220.5430 C   0  0  0  0  0  0  0  0  0  0  0  0
  141.7780   79.5060  220.8980 C   0  0  0  0  0  0  0  0  0  0  0  0
  141.4460   79.8930  222.2010 C   0  0  0  0  0  0  0  0  0  0  0  0
  141.4700   81.5900  222.6440 Cl  0  0  0  0  0  0  0  0  0  0  0  0
  141.1010   78.9250  223.1500 C   0  0  0  0  0  0  0  0  0  0  0  0
  141.0810   77.5720  222.7970 C   0  0  0  0  0  0  0  0  0  0  0  0
  139.9470   71.6220  223.6050 C   0  0  0  0  0  0  0  0  0  0  0  0
  139.2430   70.4210  223.4160 C   0  0  0  0  0  0  0  0  0  0  0  0
  139.1730   69.4880  224.4520 C   0  0  0  0  0  0  0  0  0  0  0  0
  139.7910   69.7600  225.6780 C   0  0  0  0  0  0  0  0  0  0  0  0
  139.7340   68.8470  226.7430 C   0  0  0  0  0  0  0  0  0  0  0  0
  140.3530   69.1550  227.9590 C   0  0  0  0  0  0  0  0  0  0  0  0
  140.2950   68.2740  228.9880 F   0  0  0  0  0  0  0  0  0  0  0  0
  141.0290   70.3690  228.1180 C   0  0  0  0  0  0  0  0  0  0  0  0
  141.0910   71.2830  227.0610 C   0  0  0  0  0  0  0  0  0  0  0  0
  140.4790   70.9830  225.8380 C   0  0  0  0  0  0  0  0  0  0  0  0
  140.5360   71.8690  224.8080 N   0  0  0  0  0  0  0  0  0  0  0  0
  137.0973   74.2333  221.5768 H   0  0  0  0  0  0  0  0  0  0  0  0
  138.1023   74.5970  223.0422 H   0  0  0  0  0  0  0  0  0  0  0  0
  139.6838   73.6580  219.3192 H   0  0  0  0  0  0  0  0  0  0  0  0
  139.7496   75.2215  218.4917 H   0  0  0  0  0  0  0  0  0  0  0  0
  141.9806   73.3880  219.3101 H   0  0  0  0  0  0  0  0  0  0  0  0
  141.9725   74.6021  218.0218 H   0  0  0  0  0  0  0  0  0  0  0  0
  143.3012   74.9379  220.4362 H   0  0  0  0  0  0  0  0  0  0  0  0
  142.7168   76.3105  219.4865 H   0  0  0  0  0  0  0  0  0  0  0  0
  141.6175   75.1691  222.0488 H   0  0  0  0  0  0  0  0  0  0  0  0
  142.0262   77.8537  219.5191 H   0  0  0  0  0  0  0  0  0  0  0  0
  142.0542   80.2662  220.1524 H   0  0  0  0  0  0  0  0  0  0  0  0
  140.8450   79.2286  224.1758 H   0  0  0  0  0  0  0  0  0  0  0  0
  140.8140   76.8145  223.5486 H   0  0  0  0  0  0  0  0  0  0  0  0
  138.7486   70.2165  222.4549 H   0  0  0  0  0  0  0  0  0  0  0  0
  138.6332   68.5409  224.3051 H   0  0  0  0  0  0  0  0  0  0  0  0
  139.2035   67.8911  226.6214 H   0  0  0  0  0  0  0  0  0  0  0  0
  141.5133   70.6057  229.0769 H   0  0  0  0  0  0  0  0  0  0  0  0
  141.6210   72.2382  227.1907 H   0  0  0  0  0  0  0  0  0  0  0  0
  1  2  2  0
  2  3  1  0
  3  4  1  0
  4  5  1  0
  5  6  2  0
  5  7  1  0
  7  8  1  0
  8  9  1  0
  9 10  1  0
 10 11  1  0
 11 12  1  0
 12 13  2  0
 13 14  1  0
 14 15  2  0
 15 16  1  0
 15 17  1  0
 17 18  2  0
  2 19  1  0
 19 20  2  0
 20 21  1  0
 21 22  2  0
 22 23  1  0
 23 24  2  0
 24 25  1  0
 24 26  1  0
 26 27  2  0
 27 28  1  0
 28 29  2  0
 11  7  1  0
 18 12  1  0
 29 19  1  0
 28 22  1  0
  4 30  1  0
  4 31  1  0
  8 32  1  0
  8 33  1  0
  9 34  1  0
  9 35  1  0
 10 36  1  0
 10 37  1  0
 11 38  1  1
 13 39  1  0
 14 40  1  0
 17 41  1  0
 18 42  1  0
 20 43  1  0
 21 44  1  0
 23 45  1  0
 26 46  1  0
 27 47  1  0
M  CHG  1   3  -1
M  END
>  <meeko>  (3) 
{"free_energy": -7.59, "intermolecular_energy": -9.38, "internal_energy": -1.51, "cluster_size": 9, "cluster_id": 1, "rank_in_cluster": 9}

$$$$

     RDKit          3D

 47 50  0  0  0  0  0  0  0  0999 V2000
  141.0640   73.0590  222.3330 O   0  0  0  0  0  0  0  0  0  0  0  0
  139.9770   72.5100  222.6570 C   0  0  0  0  0  0  0  0  0  0  0  0
  138.7850   72.9200  221.9710 N   0  0  0  0  0  0  0  0  0  0  0  0
  138.5800   74.1450  221.2070 C   0  0  0  0  0  0  0  0  0  0  0  0
  138.9130   75.3710  222.0150 C   0  0  0  0  0  0  0  0  0  0  0  0
  140.1130   75.5470  222.3580 O   0  0  0  0  0  0  0  0  0  0  0  0
  137.9300   76.3700  222.3580 N   0  0  0  0  0  0  0  0  0  0  0  0
  136.7540   76.0420  223.1470 C   0  0  0  0  0  0  0  0  0  0  0  0
  135.8520   77.2660  223.0800 C   0  0  0  0  0  0  0  0  0  0  0  0
  136.7510   78.4210  222.6490 C   0  0  0  0  0  0  0  0  0  0  0  0
  137.9490   77.7720  221.9470 C   0  0  1  0  0  0  0  0  0  0  0  0
  139.2460   78.4560  222.3250 C   0  0  0  0  0  0  0  0  0  0  0  0
  139.3420   79.2230  223.5010 C   0  0  0  0  0  0  0  0  0  0  0  0
  140.5430   79.8540  223.8370 C   0  0  0  0  0  0  0  0  0  0  0  0
  141.6570   79.7320  223.0000 C   0  0  0  0  0  0  0  0  0  0  0  0
  143.1630   80.5240  223.4240 Cl  0  0  0  0  0  0  0  0  0  0  0  0
  141.5660   78.9820  221.8230 C   0  0  0  0  0  0  0  0  0  0  0  0
  140.3670   78.3490  221.4840 C   0  0  0  0  0  0  0  0  0  0  0  0
  139.9830   71.4910  223.7300 C   0  0  0  0  0  0  0  0  0  0  0  0
  139.3820   70.2390  223.5170 C   0  0  0  0  0  0  0  0  0  0  0  0
  139.3560   69.2980  224.5480 C   0  0  0  0  0  0  0  0  0  0  0  0
  139.9150   69.6110  225.7920 C   0  0  0  0  0  0  0  0  0  0  0  0
  139.8990   68.6910  226.8510 C   0  0  0  0  0  0  0  0  0  0  0  0
  140.4570   69.0390  228.0860 C   0  0  0  0  0  0  0  0  0  0  0  0
  140.4400   68.1510  229.1110 F   0  0  0  0  0  0  0  0  0  0  0  0
  141.0300   70.3030  228.2690 C   0  0  0  0  0  0  0  0  0  0  0  0
  141.0500   71.2240  227.2170 C   0  0  0  0  0  0  0  0  0  0  0  0
  140.5000   70.8830  225.9750 C   0  0  0  0  0  0  0  0  0  0  0  0
  140.5150   71.7770  224.9500 N   0  0  0  0  0  0  0  0  0  0  0  0
  139.2240   74.1205  220.3156 H   0  0  0  0  0  0  0  0  0  0  0  0
  137.5178   74.1989  220.9264 H   0  0  0  0  0  0  0  0  0  0  0  0
  136.2416   75.1655  222.7238 H   0  0  0  0  0  0  0  0  0  0  0  0
  137.0205   75.7931  224.1848 H   0  0  0  0  0  0  0  0  0  0  0  0
  135.0490   77.1104  222.3445 H   0  0  0  0  0  0  0  0  0  0  0  0
  135.3698   77.4674  224.0480 H   0  0  0  0  0  0  0  0  0  0  0  0
  136.2150   79.0869  221.9567 H   0  0  0  0  0  0  0  0  0  0  0  0
  137.0652   79.0338  223.5068 H   0  0  0  0  0  0  0  0  0  0  0  0
  137.8805   77.8654  220.8531 H   0  0  0  0  0  0  0  0  0  0  0  0
  138.4669   79.3265  224.1594 H   0  0  0  0  0  0  0  0  0  0  0  0
  140.6122   80.4472  224.7607 H   0  0  0  0  0  0  0  0  0  0  0  0
  142.4406   78.8901  221.1622 H   0  0  0  0  0  0  0  0  0  0  0  0
  140.3003   77.7643  220.5546 H   0  0  0  0  0  0  0  0  0  0  0  0
  138.9335   70.0010  222.5412 H   0  0  0  0  0  0  0  0  0  0  0  0
  138.8969   68.3122  224.3827 H   0  0  0  0  0  0  0  0  0  0  0  0
  139.4484   67.6974  226.7106 H   0  0  0  0  0  0  0  0  0  0  0  0
  141.4655   70.5724  229.2425 H   0  0  0  0  0  0  0  0  0  0  0  0
  141.4983   72.2175  227.3651 H   0  0  0  0  0  0  0  0  0  0  0  0
  1  2  2  0
  2  3  1  0
  3  4  1  0
  4  5  1  0
  5  6  2  0
  5  7  1  0
  7  8  1  0
  8  9  1  0
  9 10  1  0
 10 11  1  0
 11 12  1  0
 12 13  2  0
 13 14  1  0
 14 15  2  0
 15 16  1  0
 15 17  1  0
 17 18  2  0
  2 19  1  0
 19 20  2  0
 20 21  1  0
 21 22  2  0
 22 23  1  0
 23 24  2  0
 24 25  1  0
 24 26  1  0
 26 27  2  0
 27 28  1  0
 28 29  2  0
 11  7  1  0
 18 12  1  0
 29 19  1  0
 28 22  1  0
  4 30  1  0
  4 31  1  0
  8 32  1  0
  8 33  1  0
  9 34  1  0
  9 35  1  0
 10 36  1  0
 10 37  1  0
 11 38  1  6
 13 39  1  0
 14 40  1  0
 17 41  1  0
 18 42  1  0
 20 43  1  0
 21 44  1  0
 23 45  1  0
 26 46  1  0
 27 47  1  0
M  CHG  1   3  -1
M  END
>  <meeko>  (4) 
{"free_energy": -8.54, "intermolecular_energy": -10.33, "internal_energy": -1.1, "cluster_size": 9, "cluster_id": 1, "rank_in_cluster": 1}

$$$$

     RDKit          3D

 47 50  0  0  0  0  0  0  0  0999 V2000
  140.6740   72.0440  221.1810 O   0  0  0  0  0  0  0  0  0  0  0  0
  140.2670   72.4740  222.2930 C   0  0  0  0  0  0  0  0  0  0  0  0
  139.9000   73.8580  222.3870 N   0  0  0  0  0  0  0  0  0  0  0  0
  138.7100   74.4980  221.8360 C   0  0  0  0  0  0  0  0  0  0  0  0
  139.0160   75.8630  221.2820 C   0  0  0  0  0  0  0  0  0  0  0  0
  138.4160   76.8540  221.7790 O   0  0  0  0  0  0  0  0  0  0  0  0
  140.0020   76.0840  220.2520 N   0  0  0  0  0  0  0  0  0  0  0  0
  139.6910   75.8910  218.8450 C   0  0  0  0  0  0  0  0  0  0  0  0
  141.0220   75.9670  218.1100 C   0  0  0  0  0  0  0  0  0  0  0  0
  141.9830   76.6700  219.0620 C   0  0  0  0  0  0  0  0  0  0  0  0
  141.3960   76.4690  220.4640 C   0  0  1  0  0  0  0  0  0  0  0  0
  141.5150   77.7290  221.2970 C   0  0  0  0  0  0  0  0  0  0  0  0
  141.8130   78.9660  220.6970 C   0  0  0  0  0  0  0  0  0  0  0  0
  141.9260   80.1210  221.4760 C   0  0  0  0  0  0  0  0  0  0  0  0
  141.7490   80.0510  222.8620 C   0  0  0  0  0  0  0  0  0  0  0  0
  141.8910   81.5010  223.8380 Cl  0  0  0  0  0  0  0  0  0  0  0  0
  141.4660   78.8230  223.4680 C   0  0  0  0  0  0  0  0  0  0  0  0
  141.3520   77.6660  222.6910 C   0  0  0  0  0  0  0  0  0  0  0  0
  140.2030   71.5400  223.4400 C   0  0  0  0  0  0  0  0  0  0  0  0
  139.5840   70.2870  223.2960 C   0  0  0  0  0  0  0  0  0  0  0  0
  139.4920   69.4290  224.3940 C   0  0  0  0  0  0  0  0  0  0  0  0
  140.0020   69.8270  225.6350 C   0  0  0  0  0  0  0  0  0  0  0  0
  139.9190   68.9920  226.7590 C   0  0  0  0  0  0  0  0  0  0  0  0
  140.4300   69.4240  227.9880 C   0  0  0  0  0  0  0  0  0  0  0  0
  140.3480   68.6180  229.0750 F   0  0  0  0  0  0  0  0  0  0  0  0
  141.0220   70.6870  228.1000 C   0  0  0  0  0  0  0  0  0  0  0  0
  141.1090   71.5240  226.9830 C   0  0  0  0  0  0  0  0  0  0  0  0
  140.6060   71.0980  225.7460 C   0  0  0  0  0  0  0  0  0  0  0  0
  140.6870   71.9100  224.6580 N   0  0  0  0  0  0  0  0  0  0  0  0
  138.3082   73.8679  221.0288 H   0  0  0  0  0  0  0  0  0  0  0  0
  137.9773   74.6148  222.6481 H   0  0  0  0  0  0  0  0  0  0  0  0
  139.2226   74.9082  218.6879 H   0  0  0  0  0  0  0  0  0  0  0  0
  138.9836   76.6500  218.4796 H   0  0  0  0  0  0  0  0  0  0  0  0
  141.3874   74.9567  217.8739 H   0  0  0  0  0  0  0  0  0  0  0  0
  140.9278   76.5085  217.1571 H   0  0  0  0  0  0  0  0  0  0  0  0
  142.9849   76.2206  218.9972 H   0  0  0  0  0  0  0  0  0  0  0  0
  142.0922   77.7365  218.8157 H   0  0  0  0  0  0  0  0  0  0  0  0
  141.9399   75.6964  221.0272 H   0  0  0  0  0  0  0  0  0  0  0  0
  141.9580   79.0246  219.6082 H   0  0  0  0  0  0  0  0  0  0  0  0
  142.1542   81.0856  220.9990 H   0  0  0  0  0  0  0  0  0  0  0  0
  141.3328   78.7670  224.5585 H   0  0  0  0  0  0  0  0  0  0  0  0
  141.1337   76.7019  223.1735 H   0  0  0  0  0  0  0  0  0  0  0  0
  139.1733   69.9829  222.3219 H   0  0  0  0  0  0  0  0  0  0  0  0
  139.0194   68.4418  224.2836 H   0  0  0  0  0  0  0  0  0  0  0  0
  139.4530   67.9992  226.6745 H   0  0  0  0  0  0  0  0  0  0  0  0
  141.4200   71.0223  229.0691 H   0  0  0  0  0  0  0  0  0  0  0  0
  141.5725   72.5173  227.0753 H   0  0  0  0  0  0  0  0  0  0  0  0
  1  2  2  0
  2  3  1  0
  3  4  1  0
  4  5  1  0
  5  6  2  0
  5  7  1  0
  7  8  1  0
  8  9  1  0
  9 10  1  0
 10 11  1  0
 11 12  1  0
 12 13  2  0
 13 14  1  0
 14 15  2  0
 15 16  1  0
 15 17  1  0
 17 18  2  0
  2 19  1  0
 19 20  2  0
 20 21  1  0
 21 22  2  0
 22 23  1  0
 23 24  2  0
 24 25  1  0
 24 26  1  0
 26 27  2  0
 27 28  1  0
 28 29  2  0
 11  7  1  0
 18 12  1  0
 29 19  1  0
 28 22  1  0
  4 30  1  0
  4 31  1  0
  8 32  1  0
  8 33  1  0
  9 34  1  0
  9 35  1  0
 10 36  1  0
 10 37  1  0
 11 38  1  1
 13 39  1  0
 14 40  1  0
 17 41  1  0
 18 42  1  0
 20 43  1  0
 21 44  1  0
 23 45  1  0
 26 46  1  0
 27 47  1  0
M  CHG  1   3  -1
M  END
>  <meeko>  (5) 
{"free_energy": -8.01, "intermolecular_energy": -9.8, "internal_energy": -1.29, "cluster_size": 9, "cluster_id": 1, "rank_in_cluster": 5}

$$$$

     RDKit          3D

 47 50  0  0  0  0  0  0  0  0999 V2000
  139.9450   73.6860  222.5350 O   0  0  0  0  0  0  0  0  0  0  0  0
  140.1470   72.4600  222.3240 C   0  0  0  0  0  0  0  0  0  0  0  0
  140.3790   72.0390  220.9720 N   0  0  0  0  0  0  0  0  0  0  0  0
  141.5010   71.2540  220.4700 C   0  0  0  0  0  0  0  0  0  0  0  0
  142.3640   72.0500  219.5290 C   0  0  0  0  0  0  0  0  0  0  0  0
  141.9110   72.3070  218.3800 O   0  0  0  0  0  0  0  0  0  0  0  0
  143.6540   72.5740  219.9080 N   0  0  0  0  0  0  0  0  0  0  0  0
  144.8900   71.9990  219.4030 C   0  0  0  0  0  0  0  0  0  0  0  0
  146.0090   72.6400  220.2110 C   0  0  0  0  0  0  0  0  0  0  0  0
  145.4110   73.9020  220.8220 C   0  0  0  0  0  0  0  0  0  0  0  0
  143.8950   73.6730  220.8420 C   0  0  1  0  0  0  0  0  0  0  0  0
  143.1430   74.9270  220.4470 C   0  0  0  0  0  0  0  0  0  0  0  0
  141.8890   75.2250  221.0120 C   0  0  0  0  0  0  0  0  0  0  0  0
  141.2010   76.3820  220.6360 C   0  0  0  0  0  0  0  0  0  0  0  0
  141.7540   77.2490  219.6880 C   0  0  0  0  0  0  0  0  0  0  0  0
  140.8890   78.7010  219.2180 Cl  0  0  0  0  0  0  0  0  0  0  0  0
  142.9940   76.9530  219.1130 C   0  0  0  0  0  0  0  0  0  0  0  0
  143.6840   75.7970  219.4870 C   0  0  0  0  0  0  0  0  0  0  0  0
  140.1190   71.5240  223.4700 C   0  0  0  0  0  0  0  0  0  0  0  0
  139.5080   70.2660  223.3380 C   0  0  0  0  0  0  0  0  0  0  0  0
  139.4500   69.4050  224.4360 C   0  0  0  0  0  0  0  0  0  0  0  0
  139.9870   69.8050  225.6650 C   0  0  0  0  0  0  0  0  0  0  0  0
  139.9390   68.9660  226.7890 C   0  0  0  0  0  0  0  0  0  0  0  0
  140.4750   69.4010  228.0060 C   0  0  0  0  0  0  0  0  0  0  0  0
  140.4270   68.5920  229.0930 F   0  0  0  0  0  0  0  0  0  0  0  0
  141.0590   70.6680  228.1060 C   0  0  0  0  0  0  0  0  0  0  0  0
  141.1120   71.5090  226.9890 C   0  0  0  0  0  0  0  0  0  0  0  0
  140.5830   71.0810  225.7650 C   0  0  0  0  0  0  0  0  0  0  0  0
  140.6300   71.8950  224.6760 N   0  0  0  0  0  0  0  0  0  0  0  0
  142.1138   70.9238  221.3218 H   0  0  0  0  0  0  0  0  0  0  0  0
  141.0958   70.3938  219.9170 H   0  0  0  0  0  0  0  0  0  0  0  0
  144.8911   70.9084  219.5461 H   0  0  0  0  0  0  0  0  0  0  0  0
  145.0117   72.1857  218.3258 H   0  0  0  0  0  0  0  0  0  0  0  0
  146.3502   71.9561  221.0022 H   0  0  0  0  0  0  0  0  0  0  0  0
  146.8818   72.8695  219.5820 H   0  0  0  0  0  0  0  0  0  0  0  0
  145.7902   74.0506  221.8438 H   0  0  0  0  0  0  0  0  0  0  0  0
  145.6792   74.7995  220.2453 H   0  0  0  0  0  0  0  0  0  0  0  0
  143.5332   73.4236  221.8504 H   0  0  0  0  0  0  0  0  0  0  0  0
  141.4477   74.5433  221.7539 H   0  0  0  0  0  0  0  0  0  0  0  0
  140.2237   76.6109  221.0861 H   0  0  0  0  0  0  0  0  0  0  0  0
  143.4274   77.6322  218.3641 H   0  0  0  0  0  0  0  0  0  0  0  0
  144.6563   75.5673  219.0268 H   0  0  0  0  0  0  0  0  0  0  0  0
  139.0768   69.9602  222.3733 H   0  0  0  0  0  0  0  0  0  0  0  0
  138.9831   68.4141  224.3351 H   0  0  0  0  0  0  0  0  0  0  0  0
  139.4810   67.9687  226.7134 H   0  0  0  0  0  0  0  0  0  0  0  0
  141.4780   71.0043  229.0659 H   0  0  0  0  0  0  0  0  0  0  0  0
  141.5691   72.5061  227.0723 H   0  0  0  0  0  0  0  0  0  0  0  0
  1  2  2  0
  2  3  1  0
  3  4  1  0
  4  5  1  0
  5  6  2  0
  5  7  1  0
  7  8  1  0
  8  9  1  0
  9 10  1  0
 10 11  1  0
 11 12  1  0
 12 13  2  0
 13 14  1  0
 14 15  2  0
 15 16  1  0
 15 17  1  0
 17 18  2  0
  2 19  1  0
 19 20  2  0
 20 21  1  0
 21 22  2  0
 22 23  1  0
 23 24  2  0
 24 25  1  0
 24 26  1  0
 26 27  2  0
 27 28  1  0
 28 29  2  0
 11  7  1  0
 18 12  1  0
 29 19  1  0
 28 22  1  0
  4 30  1  0
  4 31  1  0
  8 32  1  0
  8 33  1  0
  9 34  1  0
  9 35  1  0
 10 36  1  0
 10 37  1  0
 11 38  1  1
 13 39  1  0
 14 40  1  0
 17 41  1  0
 18 42  1  0
 20 43  1  0
 21 44  1  0
 23 45  1  0
 26 46  1  0
 27 47  1  0
M  CHG  1   3  -1
M  END
>  <meeko>  (6) 
{"free_energy": -7.83, "intermolecular_energy": -9.62, "internal_energy": -1.54, "cluster_size": 3, "cluster_id": 4, "rank_in_cluster": 1}

$$$$

     RDKit          3D

 47 50  0  0  0  0  0  0  0  0999 V2000
  132.9780   69.7170  226.4870 O   0  0  0  0  0  0  0  0  0  0  0  0
  133.5290   70.7810  226.0990 C   0  0  0  0  0  0  0  0  0  0  0  0
  134.6370   70.6750  225.1930 N   0  0  0  0  0  0  0  0  0  0  0  0
  135.7850   69.7820  225.3000 C   0  0  0  0  0  0  0  0  0  0  0  0
  136.4240   69.5310  223.9600 C   0  0  0  0  0  0  0  0  0  0  0  0
  135.9600   68.6020  223.2460 O   0  0  0  0  0  0  0  0  0  0  0  0
  137.5000   70.3440  223.4450 N   0  0  0  0  0  0  0  0  0  0  0  0
  137.2600   71.6680  222.8960 C   0  0  0  0  0  0  0  0  0  0  0  0
  138.5660   72.0890  222.2380 C   0  0  0  0  0  0  0  0  0  0  0  0
  139.6440   71.1950  222.8420 C   0  0  0  0  0  0  0  0  0  0  0  0
  138.9070   69.9560  223.3640 C   0  0  1  0  0  0  0  0  0  0  0  0
  139.4520   69.5150  224.7070 C   0  0  0  0  0  0  0  0  0  0  0  0
  140.1540   70.4140  225.5320 C   0  0  0  0  0  0  0  0  0  0  0  0
  140.6570   69.9950  226.7660 C   0  0  0  0  0  0  0  0  0  0  0  0
  140.4710   68.6740  227.1870 C   0  0  0  0  0  0  0  0  0  0  0  0
  141.1030   68.1500  228.7370 Cl  0  0  0  0  0  0  0  0  0  0  0  0
  139.7860   67.7710  226.3670 C   0  0  0  0  0  0  0  0  0  0  0  0
  139.2810   68.1880  225.1320 C   0  0  0  0  0  0  0  0  0  0  0  0
  133.0180   72.0750  226.6040 C   0  0  0  0  0  0  0  0  0  0  0  0
  131.7860   72.1320  227.2770 C   0  0  0  0  0  0  0  0  0  0  0  0
  131.2910   73.3630  227.7150 C   0  0  0  0  0  0  0  0  0  0  0  0
  132.0180   74.5340  227.4680 C   0  0  0  0  0  0  0  0  0  0  0  0
  131.5450   75.7860  227.8880 C   0  0  0  0  0  0  0  0  0  0  0  0
  132.2900   76.9390  227.6160 C   0  0  0  0  0  0  0  0  0  0  0  0
  131.8330   78.1500  228.0190 F   0  0  0  0  0  0  0  0  0  0  0  0
  133.5040   76.8470  226.9250 C   0  0  0  0  0  0  0  0  0  0  0  0
  133.9810   75.6010  226.5040 C   0  0  0  0  0  0  0  0  0  0  0  0
  133.2450   74.4400  226.7770 C   0  0  0  0  0  0  0  0  0  0  0  0
  133.7040   73.2270  226.3690 N   0  0  0  0  0  0  0  0  0  0  0  0
  136.5293   70.2374  225.9698 H   0  0  0  0  0  0  0  0  0  0  0  0
  135.4332   68.8185  225.6973 H   0  0  0  0  0  0  0  0  0  0  0  0
  136.4505   71.6329  222.1520 H   0  0  0  0  0  0  0  0  0  0  0  0
  136.9530   72.3796  223.6766 H   0  0  0  0  0  0  0  0  0  0  0  0
  138.5114   71.9408  221.1494 H   0  0  0  0  0  0  0  0  0  0  0  0
  138.7806   73.1540  222.4102 H   0  0  0  0  0  0  0  0  0  0  0  0
  140.3799   70.9097  222.0758 H   0  0  0  0  0  0  0  0  0  0  0  0
  140.1964   71.7078  223.6432 H   0  0  0  0  0  0  0  0  0  0  0  0
  139.0421   69.0905  222.6987 H   0  0  0  0  0  0  0  0  0  0  0  0
  140.3074   71.4524  225.2030 H   0  0  0  0  0  0  0  0  0  0  0  0
  141.2000   70.7047  227.4075 H   0  0  0  0  0  0  0  0  0  0  0  0
  139.6444   66.7306  226.6948 H   0  0  0  0  0  0  0  0  0  0  0  0
  138.7467   67.4725  224.4897 H   0  0  0  0  0  0  0  0  0  0  0  0
  131.2131   71.2107  227.4584 H   0  0  0  0  0  0  0  0  0  0  0  0
  130.3325   73.4121  228.2525 H   0  0  0  0  0  0  0  0  0  0  0  0
  130.5907   75.8613  228.4299 H   0  0  0  0  0  0  0  0  0  0  0  0
  134.0845   77.7569  226.7125 H   0  0  0  0  0  0  0  0  0  0  0  0
  134.9338   75.5326  225.9586 H   0  0  0  0  0  0  0  0  0  0  0  0
  1  2  2  0
  2  3  1  0
  3  4  1  0
  4  5  1  0
  5  6  2  0
  5  7  1  0
  7  8  1  0
  8  9  1  0
  9 10  1  0
 10 11  1  0
 11 12  1  0
 12 13  2  0
 13 14  1  0
 14 15  2  0
 15 16  1  0
 15 17  1  0
 17 18  2  0
  2 19  1  0
 19 20  2  0
 20 21  1  0
 21 22  2  0
 22 23  1  0
 23 24  2  0
 24 25  1  0
 24 26  1  0
 26 27  2  0
 27 28  1  0
 28 29  2  0
 11  7  1  0
 18 12  1  0
 29 19  1  0
 28 22  1  0
  4 30  1  0
  4 31  1  0
  8 32  1  0
  8 33  1  0
  9 34  1  0
  9 35  1  0
 10 36  1  0
 10 37  1  0
 11 38  1  6
 13 39  1  0
 14 40  1  0
 17 41  1  0
 18 42  1  0
 20 43  1  0
 21 44  1  0
 23 45  1  0
 26 46  1  0
 27 47  1  0
M  CHG  1   3  -1
M  END
>  <meeko>  (7) 
{"free_energy": -7.99, "intermolecular_energy": -9.78, "internal_energy": -1.15, "cluster_size": 2, "cluster_id": 3, "rank_in_cluster": 1}

$$$$

     RDKit          3D

 47 50  0  0  0  0  0  0  0  0999 V2000
  139.7360   70.9630  221.3200 O   0  0  0  0  0  0  0  0  0  0  0  0
  139.1990   71.4790  222.3360 C   0  0  0  0  0  0  0  0  0  0  0  0
  138.1670   72.4550  222.1300 N   0  0  0  0  0  0  0  0  0  0  0  0
  138.3360   73.8610  221.7810 C   0  0  0  0  0  0  0  0  0  0  0  0
  139.7350   74.1580  221.3140 C   0  0  0  0  0  0  0  0  0  0  0  0
  140.6710   74.0810  222.1550 O   0  0  0  0  0  0  0  0  0  0  0  0
  140.0500   74.4680  219.9400 N   0  0  0  0  0  0  0  0  0  0  0  0
  139.3830   75.5470  219.2300 C   0  0  0  0  0  0  0  0  0  0  0  0
  139.7860   75.3980  217.7700 C   0  0  0  0  0  0  0  0  0  0  0  0
  141.0390   74.5290  217.7720 C   0  0  0  0  0  0  0  0  0  0  0  0
  141.0010   73.7510  219.0930 C   0  0  1  0  0  0  0  0  0  0  0  0
  142.3750   73.6710  219.7260 C   0  0  0  0  0  0  0  0  0  0  0  0
  143.2060   74.8040  219.7930 C   0  0  0  0  0  0  0  0  0  0  0  0
  144.4740   74.7170  220.3750 C   0  0  0  0  0  0  0  0  0  0  0  0
  144.9270   73.4970  220.8880 C   0  0  0  0  0  0  0  0  0  0  0  0
  146.5190   73.3900  221.6170 Cl  0  0  0  0  0  0  0  0  0  0  0  0
  144.1130   72.3630  220.8120 C   0  0  0  0  0  0  0  0  0  0  0  0
  142.8440   72.4470  220.2320 C   0  0  0  0  0  0  0  0  0  0  0  0
  139.6660   71.0670  223.6780 C   0  0  0  0  0  0  0  0  0  0  0  0
  140.5520   71.8850  224.3990 C   0  0  0  0  0  0  0  0  0  0  0  0
  141.0210   71.4710  225.6470 C   0  0  0  0  0  0  0  0  0  0  0  0
  140.6180   70.2350  226.1670 C   0  0  0  0  0  0  0  0  0  0  0  0
  141.0760   69.7850  227.4150 C   0  0  0  0  0  0  0  0  0  0  0  0
  140.6620   68.5410  227.9020 C   0  0  0  0  0  0  0  0  0  0  0  0
  141.1060   68.1040  229.1070 F   0  0  0  0  0  0  0  0  0  0  0  0
  139.7940   67.7420  227.1490 C   0  0  0  0  0  0  0  0  0  0  0  0
  139.3330   68.1850  225.9040 C   0  0  0  0  0  0  0  0  0  0  0  0
  139.7370   69.4320  225.4110 C   0  0  0  0  0  0  0  0  0  0  0  0
  139.2920   69.8660  224.2010 N   0  0  0  0  0  0  0  0  0  0  0  0
  137.6307   74.1150  220.9760 H   0  0  0  0  0  0  0  0  0  0  0  0
  138.1421   74.4619  222.6817 H   0  0  0  0  0  0  0  0  0  0  0  0
  138.2918   75.4580  219.3366 H   0  0  0  0  0  0  0  0  0  0  0  0
  139.6697   76.5310  219.6295 H   0  0  0  0  0  0  0  0  0  0  0  0
  138.9825   74.9104  217.1986 H   0  0  0  0  0  0  0  0  0  0  0  0
  139.9712   76.3748  217.2992 H   0  0  0  0  0  0  0  0  0  0  0  0
  141.0266   73.8359  216.9180 H   0  0  0  0  0  0  0  0  0  0  0  0
  141.9533   75.1340  217.6828 H   0  0  0  0  0  0  0  0  0  0  0  0
  140.6904   72.7065  218.9427 H   0  0  0  0  0  0  0  0  0  0  0  0
  142.8561   75.7638  219.3851 H   0  0  0  0  0  0  0  0  0  0  0  0
  145.1160   75.6085  220.4296 H   0  0  0  0  0  0  0  0  0  0  0  0
  144.4720   71.4023  221.2096 H   0  0  0  0  0  0  0  0  0  0  0  0
  142.2095   71.5505  220.1714 H   0  0  0  0  0  0  0  0  0  0  0  0
  140.8755   72.8497  223.9810 H   0  0  0  0  0  0  0  0  0  0  0  0
  141.7052   72.1139  226.2202 H   0  0  0  0  0  0  0  0  0  0  0  0
  141.7594   70.4096  228.0090 H   0  0  0  0  0  0  0  0  0  0  0  0
  139.4734   66.7637  227.5365 H   0  0  0  0  0  0  0  0  0  0  0  0
  138.6533   67.5537  225.3128 H   0  0  0  0  0  0  0  0  0  0  0  0
  1  2  2  0
  2  3  1  0
  3  4  1  0
  4  5  1  0
  5  6  2  0
  5  7  1  0
  7  8  1  0
  8  9  1  0
  9 10  1  0
 10 11  1  0
 11 12  1  0
 12 13  2  0
 13 14  1  0
 14 15  2  0
 15 16  1  0
 15 17  1  0
 17 18  2  0
  2 19  1  0
 19 20  2  0
 20 21  1  0
 21 22  2  0
 22 23  1  0
 23 24  2  0
 24 25  1  0
 24 26  1  0
 26 27  2  0
 27 28  1  0
 28 29  2  0
 11  7  1  0
 18 12  1  0
 29 19  1  0
 28 22  1  0
  4 30  1  0
  4 31  1  0
  8 32  1  0
  8 33  1  0
  9 34  1  0
  9 35  1  0
 10 36  1  0
 10 37  1  0
 11 38  1  6
 13 39  1  0
 14 40  1  0
 17 41  1  0
 18 42  1  0
 20 43  1  0
 21 44  1  0
 23 45  1  0
 26 46  1  0
 27 47  1  0
M  CHG  1   3  -1
M  END
>  <meeko>  (8) 
{"free_energy": -7.22, "intermolecular_energy": -9.01, "internal_energy": -1.67, "cluster_size": 1, "cluster_id": 6, "rank_in_cluster": 1}

$$$$

     RDKit          3D

 47 50  0  0  0  0  0  0  0  0999 V2000
  141.2540   73.8570  220.2580 O   0  0  0  0  0  0  0  0  0  0  0  0
  140.8990   74.5150  221.2720 C   0  0  0  0  0  0  0  0  0  0  0  0
  140.2460   73.8090  222.3370 N   0  0  0  0  0  0  0  0  0  0  0  0
  139.3200   72.6890  222.2200 C   0  0  0  0  0  0  0  0  0  0  0  0
  139.9290   71.4050  222.7150 C   0  0  0  0  0  0  0  0  0  0  0  0
  140.9470   71.4780  223.4550 O   0  0  0  0  0  0  0  0  0  0  0  0
  139.3640   70.1090  222.4230 N   0  0  0  0  0  0  0  0  0  0  0  0
  139.5710   69.4590  221.1400 C   0  0  0  0  0  0  0  0  0  0  0  0
  138.6300   68.2630  221.1220 C   0  0  0  0  0  0  0  0  0  0  0  0
  138.2640   68.0000  222.5790 C   0  0  0  0  0  0  0  0  0  0  0  0
  138.5090   69.3250  223.3110 C   0  0  1  0  0  0  0  0  0  0  0  0
  139.1540   69.0960  224.6630 C   0  0  0  0  0  0  0  0  0  0  0  0
  139.3820   70.1690  225.5450 C   0  0  0  0  0  0  0  0  0  0  0  0
  139.9830   69.9470  226.7870 C   0  0  0  0  0  0  0  0  0  0  0  0
  140.3690   68.6540  227.1580 C   0  0  0  0  0  0  0  0  0  0  0  0
  141.1230   68.3780  228.7170 Cl  0  0  0  0  0  0  0  0  0  0  0  0
  140.1590   67.5850  226.2810 C   0  0  0  0  0  0  0  0  0  0  0  0
  139.5570   67.8040  225.0380 C   0  0  0  0  0  0  0  0  0  0  0  0
  141.1570   75.9720  221.3050 C   0  0  0  0  0  0  0  0  0  0  0  0
  141.5520   76.6450  220.1370 C   0  0  0  0  0  0  0  0  0  0  0  0
  141.8330   78.0120  220.1860 C   0  0  0  0  0  0  0  0  0  0  0  0
  141.7340   78.7010  221.4000 C   0  0  0  0  0  0  0  0  0  0  0  0
  142.0160   80.0730  221.4850 C   0  0  0  0  0  0  0  0  0  0  0  0
  141.9180   80.7300  222.7160 C   0  0  0  0  0  0  0  0  0  0  0  0
  142.1930   82.0550  222.7990 F   0  0  0  0  0  0  0  0  0  0  0  0
  141.5400   80.0240  223.8630 C   0  0  0  0  0  0  0  0  0  0  0  0
  141.2570   78.6570  223.7860 C   0  0  0  0  0  0  0  0  0  0  0  0
  141.3460   77.9910  222.5570 C   0  0  0  0  0  0  0  0  0  0  0  0
  141.0730   76.6610  222.4770 N   0  0  0  0  0  0  0  0  0  0  0  0
  138.4200   72.9079  222.8133 H   0  0  0  0  0  0  0  0  0  0  0  0
  139.0714   72.5612  221.1561 H   0  0  0  0  0  0  0  0  0  0  0  0
  139.3289   70.1488  220.3181 H   0  0  0  0  0  0  0  0  0  0  0  0
  140.6186   69.1508  221.0076 H   0  0  0  0  0  0  0  0  0  0  0  0
  137.7281   68.4941  220.5362 H   0  0  0  0  0  0  0  0  0  0  0  0
  139.1014   67.3840  220.6581 H   0  0  0  0  0  0  0  0  0  0  0  0
  137.2076   67.7048  222.6623 H   0  0  0  0  0  0  0  0  0  0  0  0
  138.8612   67.1816  223.0075 H   0  0  0  0  0  0  0  0  0  0  0  0
  137.5684   69.8538  223.5243 H   0  0  0  0  0  0  0  0  0  0  0  0
  139.0855   71.1878  225.2551 H   0  0  0  0  0  0  0  0  0  0  0  0
  140.1528   70.7894  227.4737 H   0  0  0  0  0  0  0  0  0  0  0  0
  140.4681   66.5696  226.5697 H   0  0  0  0  0  0  0  0  0  0  0  0
  139.3983   66.9601  224.3505 H   0  0  0  0  0  0  0  0  0  0  0  0
  141.6397   76.0972  219.1872 H   0  0  0  0  0  0  0  0  0  0  0  0
  142.1316   78.5463  219.2720 H   0  0  0  0  0  0  0  0  0  0  0  0
  142.3137   80.6310  220.5850 H   0  0  0  0  0  0  0  0  0  0  0  0
  141.4652   80.5459  224.8284 H   0  0  0  0  0  0  0  0  0  0  0  0
  140.9644   78.1043  224.6909 H   0  0  0  0  0  0  0  0  0  0  0  0
  1  2  2  0
  2  3  1  0
  3  4  1  0
  4  5  1  0
  5  6  2  0
  5  7  1  0
  7  8  1  0
  8  9  1  0
  9 10  1  0
 10 11  1  0
 11 12  1  0
 12 13  2  0
 13 14  1  0
 14 15  2  0
 15 16  1  0
 15 17  1  0
 17 18  2  0
  2 19  1  0
 19 20  2  0
 20 21  1  0
 21 22  2  0
 22 23  1  0
 23 24  2  0
 24 25  1  0
 24 26  1  0
 26 27  2  0
 27 28  1  0
 28 29  2  0
 11  7  1  0
 18 12  1  0
 29 19  1  0
 28 22  1  0
  4 30  1  0
  4 31  1  0
  8 32  1  0
  8 33  1  0
  9 34  1  0
  9 35  1  0
 10 36  1  0
 10 37  1  0
 11 38  1  1
 13 39  1  0
 14 40  1  0
 17 41  1  0
 18 42  1  0
 20 43  1  0
 21 44  1  0
 23 45  1  0
 26 46  1  0
 27 47  1  0
M  CHG  1   3  -1
M  END
>  <meeko>  (9) 
{"free_energy": -8.04, "intermolecular_energy": -9.83, "internal_energy": -1.0, "cluster_size": 1, "cluster_id": 2, "rank_in_cluster": 1}

$$$$

     RDKit          3D

 47 50  0  0  0  0  0  0  0  0999 V2000
  133.0750   69.7180  226.4730 O   0  0  0  0  0  0  0  0  0  0  0  0
  133.7390   70.7650  226.2510 C   0  0  0  0  0  0  0  0  0  0  0  0
  135.0110   70.6300  225.5990 N   0  0  0  0  0  0  0  0  0  0  0  0
  135.7410   69.3960  225.3300 C   0  0  0  0  0  0  0  0  0  0  0  0
  136.3180   69.3810  223.9400 C   0  0  0  0  0  0  0  0  0  0  0  0
  135.8880   68.5170  223.1280 O   0  0  0  0  0  0  0  0  0  0  0  0
  137.2930   70.3440  223.4890 N   0  0  0  0  0  0  0  0  0  0  0  0
  136.9020   71.6640  223.0220 C   0  0  0  0  0  0  0  0  0  0  0  0
  138.1520   72.2760  222.4070 C   0  0  0  0  0  0  0  0  0  0  0  0
  139.3240   71.4770  222.9660 C   0  0  0  0  0  0  0  0  0  0  0  0
  138.7360   70.1290  223.3990 C   0  0  1  0  0  0  0  0  0  0  0  0
  139.3240   69.6710  224.7180 C   0  0  0  0  0  0  0  0  0  0  0  0
  139.9410   70.5850  225.5920 C   0  0  0  0  0  0  0  0  0  0  0  0
  140.4840   70.1500  226.8030 C   0  0  0  0  0  0  0  0  0  0  0  0
  140.4240   68.7960  227.1520 C   0  0  0  0  0  0  0  0  0  0  0  0
  141.1060   68.2510  228.6730 Cl  0  0  0  0  0  0  0  0  0  0  0  0
  139.8240   67.8790  226.2830 C   0  0  0  0  0  0  0  0  0  0  0  0
  139.2790   68.3120  225.0710 C   0  0  0  0  0  0  0  0  0  0  0  0
  133.1860   72.0680  226.6820 C   0  0  0  0  0  0  0  0  0  0  0  0
  131.9350   72.1270  227.3190 C   0  0  0  0  0  0  0  0  0  0  0  0
  131.4010   73.3630  227.6870 C   0  0  0  0  0  0  0  0  0  0  0  0
  132.1070   74.5390  227.4060 C   0  0  0  0  0  0  0  0  0  0  0  0
  131.5960   75.7980  227.7550 C   0  0  0  0  0  0  0  0  0  0  0  0
  132.3220   76.9540  227.4500 C   0  0  0  0  0  0  0  0  0  0  0  0
  131.8270   78.1710  227.7850 F   0  0  0  0  0  0  0  0  0  0  0  0
  133.5550   76.8600  226.7970 C   0  0  0  0  0  0  0  0  0  0  0  0
  134.0720   75.6080  226.4470 C   0  0  0  0  0  0  0  0  0  0  0  0
  133.3560   74.4430  226.7530 C   0  0  0  0  0  0  0  0  0  0  0  0
  133.8530   73.2240  226.4130 N   0  0  0  0  0  0  0  0  0  0  0  0
  136.5609   69.3014  226.0572 H   0  0  0  0  0  0  0  0  0  0  0  0
  135.0368   68.5555  225.4175 H   0  0  0  0  0  0  0  0  0  0  0  0
  136.1052   71.5826  222.2681 H   0  0  0  0  0  0  0  0  0  0  0  0
  136.5110   72.2833  223.8427 H   0  0  0  0  0  0  0  0  0  0  0  0
  138.1197   72.1925  221.3106 H   0  0  0  0  0  0  0  0  0  0  0  0
  138.2396   73.3457  222.6481 H   0  0  0  0  0  0  0  0  0  0  0  0
  140.0921   71.3300  222.1924 H   0  0  0  0  0  0  0  0  0  0  0  0
  139.8079   71.9980  223.8053 H   0  0  0  0  0  0  0  0  0  0  0  0
  138.9739   69.3297  222.6817 H   0  0  0  0  0  0  0  0  0  0  0  0
  139.9960   71.6493  225.3196 H   0  0  0  0  0  0  0  0  0  0  0  0
  140.9592   70.8722  227.4831 H   0  0  0  0  0  0  0  0  0  0  0  0
  139.7809   66.8138  226.5542 H   0  0  0  0  0  0  0  0  0  0  0  0
  138.8125   67.5849  224.3900 H   0  0  0  0  0  0  0  0  0  0  0  0
  131.3779   71.2016  227.5271 H   0  0  0  0  0  0  0  0  0  0  0  0
  130.4275   73.4130  228.1967 H   0  0  0  0  0  0  0  0  0  0  0  0
  130.6259   75.8760  228.2677 H   0  0  0  0  0  0  0  0  0  0  0  0
  134.1200   77.7730  226.5578 H   0  0  0  0  0  0  0  0  0  0  0  0
  135.0411   75.5381  225.9313 H   0  0  0  0  0  0  0  0  0  0  0  0
  1  2  2  0
  2  3  1  0
  3  4  1  0
  4  5  1  0
  5  6  2  0
  5  7  1  0
  7  8  1  0
  8  9  1  0
  9 10  1  0
 10 11  1  0
 11 12  1  0
 12 13  2  0
 13 14  1  0
 14 15  2  0
 15 16  1  0
 15 17  1  0
 17 18  2  0
  2 19  1  0
 19 20  2  0
 20 21  1  0
 21 22  2  0
 22 23  1  0
 23 24  2  0
 24 25  1  0
 24 26  1  0
 26 27  2  0
 27 28  1  0
 28 29  2  0
 11  7  1  0
 18 12  1  0
 29 19  1  0
 28 22  1  0
  4 30  1  0
  4 31  1  0
  8 32  1  0
  8 33  1  0
  9 34  1  0
  9 35  1  0
 10 36  1  0
 10 37  1  0
 11 38  1  6
 13 39  1  0
 14 40  1  0
 17 41  1  0
 18 42  1  0
 20 43  1  0
 21 44  1  0
 23 45  1  0
 26 46  1  0
 27 47  1  0
M  CHG  1   3  -1
M  END
>  <meeko>  (10) 
{"free_energy": -7.94, "intermolecular_energy": -9.73, "internal_energy": -1.25, "cluster_size": 2, "cluster_id": 3, "rank_in_cluster": 2}

$$$$

     RDKit          3D

 47 50  0  0  0  0  0  0  0  0999 V2000
  139.1100   70.7690  221.7820 O   0  0  0  0  0  0  0  0  0  0  0  0
  139.6540   71.5620  222.5960 C   0  0  0  0  0  0  0  0  0  0  0  0
  139.9330   72.8970  222.1510 N   0  0  0  0  0  0  0  0  0  0  0  0
  138.9820   73.8730  221.6280 C   0  0  0  0  0  0  0  0  0  0  0  0
  139.2870   75.2650  222.1110 C   0  0  0  0  0  0  0  0  0  0  0  0
  140.4920   75.5690  222.3260 O   0  0  0  0  0  0  0  0  0  0  0  0
  138.2670   76.2720  222.2820 N   0  0  0  0  0  0  0  0  0  0  0  0
  137.0270   75.9890  222.9850 C   0  0  0  0  0  0  0  0  0  0  0  0
  136.1250   77.1890  222.7370 C   0  0  0  0  0  0  0  0  0  0  0  0
  137.0480   78.3200  222.2980 C   0  0  0  0  0  0  0  0  0  0  0  0
  138.3110   77.6370  221.7620 C   0  0  1  0  0  0  0  0  0  0  0  0
  139.5630   78.3700  222.2000 C   0  0  0  0  0  0  0  0  0  0  0  0
  140.7220   78.3610  221.4020 C   0  0  0  0  0  0  0  0  0  0  0  0
  141.8720   79.0360  221.8190 C   0  0  0  0  0  0  0  0  0  0  0  0
  141.8800   79.7210  223.0390 C   0  0  0  0  0  0  0  0  0  0  0  0
  143.3240   80.5670  223.5610 Cl  0  0  0  0  0  0  0  0  0  0  0  0
  140.7360   79.7230  223.8440 C   0  0  0  0  0  0  0  0  0  0  0  0
  139.5840   79.0490  223.4290 C   0  0  0  0  0  0  0  0  0  0  0  0
  139.9900   71.0740  223.9520 C   0  0  0  0  0  0  0  0  0  0  0  0
  140.7140   71.8910  224.8360 C   0  0  0  0  0  0  0  0  0  0  0  0
  141.0620   71.4080  226.1000 C   0  0  0  0  0  0  0  0  0  0  0  0
  140.7020   70.1080  226.4720 C   0  0  0  0  0  0  0  0  0  0  0  0
  141.0420   69.5900  227.7310 C   0  0  0  0  0  0  0  0  0  0  0  0
  140.6770   68.2830  228.0690 C   0  0  0  0  0  0  0  0  0  0  0  0
  141.0080   67.7800  229.2840 F   0  0  0  0  0  0  0  0  0  0  0  0
  139.9740   67.4890  227.1560 C   0  0  0  0  0  0  0  0  0  0  0  0
  139.6300   68.0000  225.9000 C   0  0  0  0  0  0  0  0  0  0  0  0
  139.9860   69.3100  225.5540 C   0  0  0  0  0  0  0  0  0  0  0  0
  139.6560   69.8100  224.3330 N   0  0  0  0  0  0  0  0  0  0  0  0
  139.0264   73.8598  220.5290 H   0  0  0  0  0  0  0  0  0  0  0  0
  137.9789   73.5989  221.9866 H   0  0  0  0  0  0  0  0  0  0  0  0
  136.5632   75.0733  222.5896 H   0  0  0  0  0  0  0  0  0  0  0  0
  137.1991   75.8278  224.0594 H   0  0  0  0  0  0  0  0  0  0  0  0
  135.3947   76.9621  221.9463 H   0  0  0  0  0  0  0  0  0  0  0  0
  135.5545   77.4592  223.6378 H   0  0  0  0  0  0  0  0  0  0  0  0
  136.5715   78.9199  221.5087 H   0  0  0  0  0  0  0  0  0  0  0  0
  137.2766   79.0042  223.1284 H   0  0  0  0  0  0  0  0  0  0  0  0
  138.3420   77.6422  220.6624 H   0  0  0  0  0  0  0  0  0  0  0  0
  140.7226   77.8195  220.4445 H   0  0  0  0  0  0  0  0  0  0  0  0
  142.7725   79.0289  221.1872 H   0  0  0  0  0  0  0  0  0  0  0  0
  140.7430   80.2563  224.8060 H   0  0  0  0  0  0  0  0  0  0  0  0
  138.6890   79.0505  224.0685 H   0  0  0  0  0  0  0  0  0  0  0  0
  141.0060   72.9077  224.5341 H   0  0  0  0  0  0  0  0  0  0  0  0
  141.6176   72.0481  226.8010 H   0  0  0  0  0  0  0  0  0  0  0  0
  141.5949   70.2111  228.4511 H   0  0  0  0  0  0  0  0  0  0  0  0
  139.6913   66.4609  227.4265 H   0  0  0  0  0  0  0  0  0  0  0  0
  139.0795   67.3727  225.1835 H   0  0  0  0  0  0  0  0  0  0  0  0
  1  2  2  0
  2  3  1  0
  3  4  1  0
  4  5  1  0
  5  6  2  0
  5  7  1  0
  7  8  1  0
  8  9  1  0
  9 10  1  0
 10 11  1  0
 11 12  1  0
 12 13  2  0
 13 14  1  0
 14 15  2  0
 15 16  1  0
 15 17  1  0
 17 18  2  0
  2 19  1  0
 19 20  2  0
 20 21  1  0
 21 22  2  0
 22 23  1  0
 23 24  2  0
 24 25  1  0
 24 26  1  0
 26 27  2  0
 27 28  1  0
 28 29  2  0
 11  7  1  0
 18 12  1  0
 29 19  1  0
 28 22  1  0
  4 30  1  0
  4 31  1  0
  8 32  1  0
  8 33  1  0
  9 34  1  0
  9 35  1  0
 10 36  1  0
 10 37  1  0
 11 38  1  6
 13 39  1  0
 14 40  1  0
 17 41  1  0
 18 42  1  0
 20 43  1  0
 21 44  1  0
 23 45  1  0
 26 46  1  0
 27 47  1  0
M  CHG  1   3  -1
M  END
>  <meeko>  (11) 
{"free_energy": -8.31, "intermolecular_energy": -10.1, "internal_energy": -1.08, "cluster_size": 9, "cluster_id": 1, "rank_in_cluster": 3}

$$$$

     RDKit          3D

 47 50  0  0  0  0  0  0  0  0999 V2000
  139.3060   72.0420  221.2730 O   0  0  0  0  0  0  0  0  0  0  0  0
  139.9150   72.4030  222.3150 C   0  0  0  0  0  0  0  0  0  0  0  0
  140.5280   73.7000  222.3210 N   0  0  0  0  0  0  0  0  0  0  0  0
  141.1430   74.3950  221.1960 C   0  0  0  0  0  0  0  0  0  0  0  0
  140.2510   75.4780  220.6520 C   0  0  0  0  0  0  0  0  0  0  0  0
  140.5230   75.9600  219.5190 O   0  0  0  0  0  0  0  0  0  0  0  0
  139.0740   75.9400  221.3480 N   0  0  0  0  0  0  0  0  0  0  0  0
  138.1390   75.0130  221.9650 C   0  0  0  0  0  0  0  0  0  0  0  0
  136.9290   75.8450  222.3630 C   0  0  0  0  0  0  0  0  0  0  0  0
  137.4080   77.2930  222.3870 C   0  0  0  0  0  0  0  0  0  0  0  0
  138.6480   77.3320  221.4870 C   0  0  1  0  0  0  0  0  0  0  0  0
  139.7370   78.2000  222.0850 C   0  0  0  0  0  0  0  0  0  0  0  0
  139.5110   78.9280  223.2670 C   0  0  0  0  0  0  0  0  0  0  0  0
  140.5210   79.7300  223.8070 C   0  0  0  0  0  0  0  0  0  0  0  0
  141.7620   79.8180  223.1680 C   0  0  0  0  0  0  0  0  0  0  0  0
  143.0280   80.8250  223.8470 Cl  0  0  0  0  0  0  0  0  0  0  0  0
  141.9900   79.1080  221.9850 C   0  0  0  0  0  0  0  0  0  0  0  0
  140.9820   78.3050  221.4440 C   0  0  0  0  0  0  0  0  0  0  0  0
  139.9800   71.4720  223.4630 C   0  0  0  0  0  0  0  0  0  0  0  0
  139.4660   70.1690  223.3460 C   0  0  0  0  0  0  0  0  0  0  0  0
  139.4940   69.3100  224.4460 C   0  0  0  0  0  0  0  0  0  0  0  0
  140.0200   69.7560  225.6650 C   0  0  0  0  0  0  0  0  0  0  0  0
  140.0560   68.9200  226.7920 C   0  0  0  0  0  0  0  0  0  0  0  0
  140.5780   69.4000  227.9980 C   0  0  0  0  0  0  0  0  0  0  0  0
  140.6100   68.5940  229.0880 F   0  0  0  0  0  0  0  0  0  0  0  0
  141.0630   70.7090  228.0850 C   0  0  0  0  0  0  0  0  0  0  0  0
  141.0310   71.5470  226.9650 C   0  0  0  0  0  0  0  0  0  0  0  0
  140.5160   71.0750  225.7510 C   0  0  0  0  0  0  0  0  0  0  0  0
  140.4810   71.8860  224.6600 N   0  0  0  0  0  0  0  0  0  0  0  0
  142.0883   74.8471  221.5307 H   0  0  0  0  0  0  0  0  0  0  0  0
  141.3170   73.6613  220.3951 H   0  0  0  0  0  0  0  0  0  0  0  0
  137.8468   74.2308  221.2489 H   0  0  0  0  0  0  0  0  0  0  0  0
  138.5853   74.5075  222.8341 H   0  0  0  0  0  0  0  0  0  0  0  0
  136.1207   75.7214  221.6273 H   0  0  0  0  0  0  0  0  0  0  0  0
  136.5291   75.5353  223.3398 H   0  0  0  0  0  0  0  0  0  0  0  0
  136.6278   77.9620  221.9950 H   0  0  0  0  0  0  0  0  0  0  0  0
  137.6363   77.6293  223.4092 H   0  0  0  0  0  0  0  0  0  0  0  0
  138.4260   77.7792  220.5068 H   0  0  0  0  0  0  0  0  0  0  0  0
  138.5344   78.8661  223.7693 H   0  0  0  0  0  0  0  0  0  0  0  0
  140.3395   80.2921  224.7350 H   0  0  0  0  0  0  0  0  0  0  0  0
  142.9642   79.1816  221.4794 H   0  0  0  0  0  0  0  0  0  0  0  0
  141.1650   77.7521  220.5108 H   0  0  0  0  0  0  0  0  0  0  0  0
  139.0427   69.8270  222.3900 H   0  0  0  0  0  0  0  0  0  0  0  0
  139.1039   68.2855  224.3556 H   0  0  0  0  0  0  0  0  0  0  0  0
  139.6748   67.8902  226.7271 H   0  0  0  0  0  0  0  0  0  0  0  0
  141.4707   71.0807  229.0366 H   0  0  0  0  0  0  0  0  0  0  0  0
  141.4105   72.5769  227.0379 H   0  0  0  0  0  0  0  0  0  0  0  0
  1  2  2  0
  2  3  1  0
  3  4  1  0
  4  5  1  0
  5  6  2  0
  5  7  1  0
  7  8  1  0
  8  9  1  0
  9 10  1  0
 10 11  1  0
 11 12  1  0
 12 13  2  0
 13 14  1  0
 14 15  2  0
 15 16  1  0
 15 17  1  0
 17 18  2  0
  2 19  1  0
 19 20  2  0
 20 21  1  0
 21 22  2  0
 22 23  1  0
 23 24  2  0
 24 25  1  0
 24 26  1  0
 26 27  2  0
 27 28  1  0
 28 29  2  0
 11  7  1  0
 18 12  1  0
 29 19  1  0
 28 22  1  0
  4 30  1  0
  4 31  1  0
  8 32  1  0
  8 33  1  0
  9 34  1  0
  9 35  1  0
 10 36  1  0
 10 37  1  0
 11 38  1  6
 13 39  1  0
 14 40  1  0
 17 41  1  0
 18 42  1  0
 20 43  1  0
 21 44  1  0
 23 45  1  0
 26 46  1  0
 27 47  1  0
M  CHG  1   3  -1
M  END
>  <meeko>  (12) 
{"free_energy": -8.32, "intermolecular_energy": -10.11, "internal_energy": -1.05, "cluster_size": 9, "cluster_id": 1, "rank_in_cluster": 2}

$$$$

     RDKit          3D

 47 50  0  0  0  0  0  0  0  0999 V2000
  138.6060   74.3680  221.1150 O   0  0  0  0  0  0  0  0  0  0  0  0
  139.6980   74.7560  221.6080 C   0  0  0  0  0  0  0  0  0  0  0  0
  140.6080   73.7610  222.0960 N   0  0  0  0  0  0  0  0  0  0  0  0
  141.0390   72.5440  221.4160 C   0  0  0  0  0  0  0  0  0  0  0  0
  141.9040   72.8480  220.2230 C   0  0  0  0  0  0  0  0  0  0  0  0
  141.3510   72.9280  219.0930 O   0  0  0  0  0  0  0  0  0  0  0  0
  143.3210   73.1040  220.3320 N   0  0  0  0  0  0  0  0  0  0  0  0
  144.2980   72.0300  220.2550 C   0  0  0  0  0  0  0  0  0  0  0  0
  145.6280   72.6480  220.6610 C   0  0  0  0  0  0  0  0  0  0  0  0
  145.4540   74.1540  220.4990 C   0  0  0  0  0  0  0  0  0  0  0  0
  143.9430   74.4050  220.5680 C   0  0  1  0  0  0  0  0  0  0  0  0
  143.5090   75.4350  219.5450 C   0  0  0  0  0  0  0  0  0  0  0  0
  142.9480   76.6610  219.9480 C   0  0  0  0  0  0  0  0  0  0  0  0
  142.5450   77.6010  218.9960 C   0  0  0  0  0  0  0  0  0  0  0  0
  142.6910   77.3240  217.6320 C   0  0  0  0  0  0  0  0  0  0  0  0
  142.1860   78.5060  216.4380 Cl  0  0  0  0  0  0  0  0  0  0  0  0
  143.2360   76.1030  217.2230 C   0  0  0  0  0  0  0  0  0  0  0  0
  143.6400   75.1610  218.1740 C   0  0  0  0  0  0  0  0  0  0  0  0
  139.9760   76.2080  221.6720 C   0  0  0  0  0  0  0  0  0  0  0  0
  139.5180   77.0600  220.6540 C   0  0  0  0  0  0  0  0  0  0  0  0
  139.8190   78.4230  220.7010 C   0  0  0  0  0  0  0  0  0  0  0  0
  140.5890   78.9300  221.7530 C   0  0  0  0  0  0  0  0  0  0  0  0
  140.9170   80.2930  221.8260 C   0  0  0  0  0  0  0  0  0  0  0  0
  141.6970   80.7660  222.8860 C   0  0  0  0  0  0  0  0  0  0  0  0
  142.0160   82.0830  222.9560 F   0  0  0  0  0  0  0  0  0  0  0  0
  142.1540   79.8860  223.8730 C   0  0  0  0  0  0  0  0  0  0  0  0
  141.8310   78.5270  223.8070 C   0  0  0  0  0  0  0  0  0  0  0  0
  141.0450   78.0440  222.7530 C   0  0  0  0  0  0  0  0  0  0  0  0
  140.7290   76.7230  222.6840 N   0  0  0  0  0  0  0  0  0  0  0  0
  141.6113   71.9248  222.1225 H   0  0  0  0  0  0  0  0  0  0  0  0
  140.1425   72.0136  221.0625 H   0  0  0  0  0  0  0  0  0  0  0  0
  144.0277   71.2164  220.9442 H   0  0  0  0  0  0  0  0  0  0  0  0
  144.3447   71.5974  219.2447 H   0  0  0  0  0  0  0  0  0  0  0  0
  145.8621   72.3999  221.7068 H   0  0  0  0  0  0  0  0  0  0  0  0
  146.4557   72.2678  220.0443 H   0  0  0  0  0  0  0  0  0  0  0  0
  145.9695   74.6894  221.3099 H   0  0  0  0  0  0  0  0  0  0  0  0
  145.8832   74.5135  219.5521 H   0  0  0  0  0  0  0  0  0  0  0  0
  143.6411   74.8183  221.5417 H   0  0  0  0  0  0  0  0  0  0  0  0
  142.8260   76.8807  221.0189 H   0  0  0  0  0  0  0  0  0  0  0  0
  142.1126   78.5595  219.3189 H   0  0  0  0  0  0  0  0  0  0  0  0
  143.3471   75.8831  216.1510 H   0  0  0  0  0  0  0  0  0  0  0  0
  144.0629   74.1998  217.8463 H   0  0  0  0  0  0  0  0  0  0  0  0
  138.9237   76.6549  219.8217 H   0  0  0  0  0  0  0  0  0  0  0  0
  139.4514   79.0962  219.9126 H   0  0  0  0  0  0  0  0  0  0  0  0
  140.5612   80.9877  221.0509 H   0  0  0  0  0  0  0  0  0  0  0  0
  142.7689   80.2641  224.7030 H   0  0  0  0  0  0  0  0  0  0  0  0
  142.1942   77.8372  224.5830 H   0  0  0  0  0  0  0  0  0  0  0  0
  1  2  2  0
  2  3  1  0
  3  4  1  0
  4  5  1  0
  5  6  2  0
  5  7  1  0
  7  8  1  0
  8  9  1  0
  9 10  1  0
 10 11  1  0
 11 12  1  0
 12 13  2  0
 13 14  1  0
 14 15  2  0
 15 16  1  0
 15 17  1  0
 17 18  2  0
  2 19  1  0
 19 20  2  0
 20 21  1  0
 21 22  2  0
 22 23  1  0
 23 24  2  0
 24 25  1  0
 24 26  1  0
 26 27  2  0
 27 28  1  0
 28 29  2  0
 11  7  1  0
 18 12  1  0
 29 19  1  0
 28 22  1  0
  4 30  1  0
  4 31  1  0
  8 32  1  0
  8 33  1  0
  9 34  1  0
  9 35  1  0
 10 36  1  0
 10 37  1  0
 11 38  1  1
 13 39  1  0
 14 40  1  0
 17 41  1  0
 18 42  1  0
 20 43  1  0
 21 44  1  0
 23 45  1  0
 26 46  1  0
 27 47  1  0
M  CHG  1   3  -1
M  END
>  <meeko>  (13) 
{"free_energy": -6.65, "intermolecular_energy": -8.44, "internal_energy": -2.4, "cluster_size": 2, "cluster_id": 7, "rank_in_cluster": 1}

$$$$

     RDKit          3D

 47 50  0  0  0  0  0  0  0  0999 V2000
  139.7560   74.6490  222.3330 O   0  0  0  0  0  0  0  0  0  0  0  0
  139.4990   75.7010  221.6880 C   0  0  0  0  0  0  0  0  0  0  0  0
  138.8940   75.5660  220.3940 N   0  0  0  0  0  0  0  0  0  0  0  0
  139.4860   75.8940  219.1020 C   0  0  0  0  0  0  0  0  0  0  0  0
  139.2570   77.3350  218.7320 C   0  0  0  0  0  0  0  0  0  0  0  0
  138.1450   77.6500  218.2270 O   0  0  0  0  0  0  0  0  0  0  0  0
  140.2330   78.3680  218.9830 N   0  0  0  0  0  0  0  0  0  0  0  0
  139.9500   79.4840  219.8710 C   0  0  0  0  0  0  0  0  0  0  0  0
  141.0950   80.4690  219.6800 C   0  0  0  0  0  0  0  0  0  0  0  0
  142.2280   79.6710  219.0440 C   0  0  0  0  0  0  0  0  0  0  0  0
  141.5600   78.4630  218.3770 C   0  0  1  0  0  0  0  0  0  0  0  0
  142.3690   77.2000  218.5860 C   0  0  0  0  0  0  0  0  0  0  0  0
  142.8250   76.4440  217.4900 C   0  0  0  0  0  0  0  0  0  0  0  0
  143.5660   75.2770  217.6950 C   0  0  0  0  0  0  0  0  0  0  0  0
  143.8540   74.8500  218.9960 C   0  0  0  0  0  0  0  0  0  0  0  0
  144.7850   73.3850  219.2510 Cl  0  0  0  0  0  0  0  0  0  0  0  0
  143.3940   75.5880  220.0910 C   0  0  0  0  0  0  0  0  0  0  0  0
  142.6530   76.7560  219.8890 C   0  0  0  0  0  0  0  0  0  0  0  0
  139.8440   77.0080  222.2880 C   0  0  0  0  0  0  0  0  0  0  0  0
  138.8340   77.8360  222.8060 C   0  0  0  0  0  0  0  0  0  0  0  0
  139.1640   79.0860  223.3330 C   0  0  0  0  0  0  0  0  0  0  0  0
  140.4970   79.5150  223.3290 C   0  0  0  0  0  0  0  0  0  0  0  0
  140.8610   80.7690  223.8440 C   0  0  0  0  0  0  0  0  0  0  0  0
  142.2000   81.1720  223.8150 C   0  0  0  0  0  0  0  0  0  0  0  0
  142.5520   82.3840  224.3110 F   0  0  0  0  0  0  0  0  0  0  0  0
  143.1780   80.3300  223.2730 C   0  0  0  0  0  0  0  0  0  0  0  0
  142.8220   79.0790  222.7590 C   0  0  0  0  0  0  0  0  0  0  0  0
  141.4840   78.6630  222.7890 C   0  0  0  0  0  0  0  0  0  0  0  0
  141.1330   77.4490  222.2880 N   0  0  0  0  0  0  0  0  0  0  0  0
  140.5688   75.7060  219.1485 H   0  0  0  0  0  0  0  0  0  0  0  0
  139.0080   75.2644  218.3371 H   0  0  0  0  0  0  0  0  0  0  0  0
  138.9923   79.9536  219.6023 H   0  0  0  0  0  0  0  0  0  0  0  0
  139.8688   79.1568  220.9181 H   0  0  0  0  0  0  0  0  0  0  0  0
  140.7866   81.2910  219.0173 H   0  0  0  0  0  0  0  0  0  0  0  0
  141.4040   80.9206  220.6343 H   0  0  0  0  0  0  0  0  0  0  0  0
  142.7534   80.2812  218.2946 H   0  0  0  0  0  0  0  0  0  0  0  0
  142.9754   79.3617  219.7895 H   0  0  0  0  0  0  0  0  0  0  0  0
  141.4913   78.5857  217.2860 H   0  0  0  0  0  0  0  0  0  0  0  0
  142.5967   76.7737  216.4657 H   0  0  0  0  0  0  0  0  0  0  0  0
  143.9230   74.6939  216.8333 H   0  0  0  0  0  0  0  0  0  0  0  0
  143.6157   75.2487  221.1136 H   0  0  0  0  0  0  0  0  0  0  0  0
  142.2903   77.3305  220.7541 H   0  0  0  0  0  0  0  0  0  0  0  0
  137.7865   77.5004  222.7964 H   0  0  0  0  0  0  0  0  0  0  0  0
  138.3783   79.7327  223.7506 H   0  0  0  0  0  0  0  0  0  0  0  0
  140.0946   81.4335  224.2696 H   0  0  0  0  0  0  0  0  0  0  0  0
  144.2293   80.6531  223.2513 H   0  0  0  0  0  0  0  0  0  0  0  0
  143.5927   78.4211  222.3309 H   0  0  0  0  0  0  0  0  0  0  0  0
  1  2  2  0
  2  3  1  0
  3  4  1  0
  4  5  1  0
  5  6  2  0
  5  7  1  0
  7  8  1  0
  8  9  1  0
  9 10  1  0
 10 11  1  0
 11 12  1  0
 12 13  2  0
 13 14  1  0
 14 15  2  0
 15 16  1  0
 15 17  1  0
 17 18  2  0
  2 19  1  0
 19 20  2  0
 20 21  1  0
 21 22  2  0
 22 23  1  0
 23 24  2  0
 24 25  1  0
 24 26  1  0
 26 27  2  0
 27 28  1  0
 28 29  2  0
 11  7  1  0
 18 12  1  0
 29 19  1  0
 28 22  1  0
  4 30  1  0
  4 31  1  0
  8 32  1  0
  8 33  1  0
  9 34  1  0
  9 35  1  0
 10 36  1  0
 10 37  1  0
 11 38  1  6
 13 39  1  0
 14 40  1  0
 17 41  1  0
 18 42  1  0
 20 43  1  0
 21 44  1  0
 23 45  1  0
 26 46  1  0
 27 47  1  0
M  CHG  1   3  -1
M  END
>  <meeko>  (14) 
{"free_energy": -6.05, "intermolecular_energy": -7.84, "internal_energy": -2.87, "cluster_size": 1, "cluster_id": 8, "rank_in_cluster": 1}

$$$$

     RDKit          3D

 47 50  0  0  0  0  0  0  0  0999 V2000
  140.1400   71.9570  221.0650 O   0  0  0  0  0  0  0  0  0  0  0  0
  140.3000   72.4330  222.2200 C   0  0  0  0  0  0  0  0  0  0  0  0
  140.6140   73.8280  222.3380 N   0  0  0  0  0  0  0  0  0  0  0  0
  140.7270   74.8040  221.2590 C   0  0  0  0  0  0  0  0  0  0  0  0
  139.3780   75.2110  220.7300 C   0  0  0  0  0  0  0  0  0  0  0  0
  139.0900   74.9080  219.5410 O   0  0  0  0  0  0  0  0  0  0  0  0
  138.3900   75.8780  221.5440 N   0  0  0  0  0  0  0  0  0  0  0  0
  137.4330   75.1330  222.3460 C   0  0  0  0  0  0  0  0  0  0  0  0
  136.4220   76.1550  222.8440 C   0  0  0  0  0  0  0  0  0  0  0  0
  137.0990   77.5140  222.7010 C   0  0  0  0  0  0  0  0  0  0  0  0
  138.1890   77.3230  221.6410 C   0  0  1  0  0  0  0  0  0  0  0  0
  139.4630   78.0470  222.0240 C   0  0  0  0  0  0  0  0  0  0  0  0
  139.5900   78.6730  223.2780 C   0  0  0  0  0  0  0  0  0  0  0  0
  140.7680   79.3440  223.6180 C   0  0  0  0  0  0  0  0  0  0  0  0
  141.8280   79.4020  222.7080 C   0  0  0  0  0  0  0  0  0  0  0  0
  143.3060   80.2440  223.1360 Cl  0  0  0  0  0  0  0  0  0  0  0  0
  141.7060   78.7950  221.4540 C   0  0  0  0  0  0  0  0  0  0  0  0
  140.5290   78.1230  221.1120 C   0  0  0  0  0  0  0  0  0  0  0  0
  140.1720   71.5310  223.3870 C   0  0  0  0  0  0  0  0  0  0  0  0
  139.4630   70.3240  223.2720 C   0  0  0  0  0  0  0  0  0  0  0  0
  139.3120   69.4980  224.3880 C   0  0  0  0  0  0  0  0  0  0  0  0
  139.8540   69.8850  225.6190 C   0  0  0  0  0  0  0  0  0  0  0  0
  139.7140   69.0820  226.7610 C   0  0  0  0  0  0  0  0  0  0  0  0
  140.2580   69.5030  227.9800 C   0  0  0  0  0  0  0  0  0  0  0  0
  140.1210   68.7290  229.0850 F   0  0  0  0  0  0  0  0  0  0  0  0
  140.9410   70.7210  228.0630 C   0  0  0  0  0  0  0  0  0  0  0  0
  141.0850   71.5260  226.9280 C   0  0  0  0  0  0  0  0  0  0  0  0
  140.5490   71.1110  225.7020 C   0  0  0  0  0  0  0  0  0  0  0  0
  140.6850   71.8910  224.5960 N   0  0  0  0  0  0  0  0  0  0  0  0
  141.2445   75.6970  221.6394 H   0  0  0  0  0  0  0  0  0  0  0  0
  141.2913   74.3405  220.4364 H   0  0  0  0  0  0  0  0  0  0  0  0
  136.9337   74.3679  221.7333 H   0  0  0  0  0  0  0  0  0  0  0  0
  137.9245   74.6112  223.1803 H   0  0  0  0  0  0  0  0  0  0  0  0
  135.5071   76.1170  222.2345 H   0  0  0  0  0  0  0  0  0  0  0  0
  136.1266   75.9577  223.8851 H   0  0  0  0  0  0  0  0  0  0  0  0
  136.3727   78.2719  222.3724 H   0  0  0  0  0  0  0  0  0  0  0  0
  137.5178   77.8622  223.6567 H   0  0  0  0  0  0  0  0  0  0  0  0
  137.8937   77.7490  220.6708 H   0  0  0  0  0  0  0  0  0  0  0  0
  138.7568   78.6340  223.9952 H   0  0  0  0  0  0  0  0  0  0  0  0
  140.8613   79.8267  224.6020 H   0  0  0  0  0  0  0  0  0  0  0  0
  142.5375   78.8465  220.7357 H   0  0  0  0  0  0  0  0  0  0  0  0
  140.4368   77.6508  220.1228 H   0  0  0  0  0  0  0  0  0  0  0  0
  139.0278   70.0300  222.3055 H   0  0  0  0  0  0  0  0  0  0  0  0
  138.7685   68.5457  224.2997 H   0  0  0  0  0  0  0  0  0  0  0  0
  139.1778   68.1236  226.6985 H   0  0  0  0  0  0  0  0  0  0  0  0
  141.3662   71.0468  229.0238 H   0  0  0  0  0  0  0  0  0  0  0  0
  141.6192   72.4850  226.9982 H   0  0  0  0  0  0  0  0  0  0  0  0
  1  2  2  0
  2  3  1  0
  3  4  1  0
  4  5  1  0
  5  6  2  0
  5  7  1  0
  7  8  1  0
  8  9  1  0
  9 10  1  0
 10 11  1  0
 11 12  1  0
 12 13  2  0
 13 14  1  0
 14 15  2  0
 15 16  1  0
 15 17  1  0
 17 18  2  0
  2 19  1  0
 19 20  2  0
 20 21  1  0
 21 22  2  0
 22 23  1  0
 23 24  2  0
 24 25  1  0
 24 26  1  0
 26 27  2  0
 27 28  1  0
 28 29  2  0
 11  7  1  0
 18 12  1  0
 29 19  1  0
 28 22  1  0
  4 30  1  0
  4 31  1  0
  8 32  1  0
  8 33  1  0
  9 34  1  0
  9 35  1  0
 10 36  1  0
 10 37  1  0
 11 38  1  6
 13 39  1  0
 14 40  1  0
 17 41  1  0
 18 42  1  0
 20 43  1  0
 21 44  1  0
 23 45  1  0
 26 46  1  0
 27 47  1  0
M  CHG  1   3  -1
M  END
>  <meeko>  (15) 
{"free_energy": -7.94, "intermolecular_energy": -9.73, "internal_energy": -1.3, "cluster_size": 9, "cluster_id": 1, "rank_in_cluster": 6}

$$$$

     RDKit          3D

 47 50  0  0  0  0  0  0  0  0999 V2000
  140.6370   72.0490  221.1400 O   0  0  0  0  0  0  0  0  0  0  0  0
  140.2660   72.5160  222.2500 C   0  0  0  0  0  0  0  0  0  0  0  0
  140.0090   73.9250  222.3360 N   0  0  0  0  0  0  0  0  0  0  0  0
  138.9580   74.6760  221.6600 C   0  0  0  0  0  0  0  0  0  0  0  0
  139.2890   74.9230  220.2130 C   0  0  0  0  0  0  0  0  0  0  0  0
  138.3360   75.0190  219.3930 O   0  0  0  0  0  0  0  0  0  0  0  0
  140.6410   75.1090  219.7440 N   0  0  0  0  0  0  0  0  0  0  0  0
  141.0320   74.7590  218.3880 C   0  0  0  0  0  0  0  0  0  0  0  0
  142.5510   74.8550  218.3550 C   0  0  0  0  0  0  0  0  0  0  0  0
  142.9400   75.7110  219.5550 C   0  0  0  0  0  0  0  0  0  0  0  0
  141.7650   75.6080  220.5340 C   0  0  1  0  0  0  0  0  0  0  0  0
  141.4590   76.9480  221.1700 C   0  0  0  0  0  0  0  0  0  0  0  0
  141.0090   77.0300  222.5010 C   0  0  0  0  0  0  0  0  0  0  0  0
  140.7240   78.2720  223.0760 C   0  0  0  0  0  0  0  0  0  0  0  0
  140.8790   79.4430  222.3270 C   0  0  0  0  0  0  0  0  0  0  0  0
  140.5210   81.0000  223.0500 Cl  0  0  0  0  0  0  0  0  0  0  0  0
  141.3120   79.3690  220.9990 C   0  0  0  0  0  0  0  0  0  0  0  0
  141.5980   78.1290  220.4220 C   0  0  0  0  0  0  0  0  0  0  0  0
  140.1310   71.5970  223.4020 C   0  0  0  0  0  0  0  0  0  0  0  0
  139.4020   70.4030  223.2710 C   0  0  0  0  0  0  0  0  0  0  0  0
  139.2450   69.5610  224.3740 C   0  0  0  0  0  0  0  0  0  0  0  0
  139.8010   69.9180  225.6080 C   0  0  0  0  0  0  0  0  0  0  0  0
  139.6560   69.0980  226.7370 C   0  0  0  0  0  0  0  0  0  0  0  0
  140.2150   69.4880  227.9590 C   0  0  0  0  0  0  0  0  0  0  0  0
  140.0720   68.6980  229.0510 F   0  0  0  0  0  0  0  0  0  0  0  0
  140.9180   70.6940  228.0580 C   0  0  0  0  0  0  0  0  0  0  0  0
  141.0680   71.5150  226.9360 C   0  0  0  0  0  0  0  0  0  0  0  0
  140.5170   71.1310  225.7070 C   0  0  0  0  0  0  0  0  0  0  0  0
  140.6590   71.9270  224.6140 N   0  0  0  0  0  0  0  0  0  0  0  0
  138.0193   74.1055  221.7180 H   0  0  0  0  0  0  0  0  0  0  0  0
  138.8599   75.6512  222.1593 H   0  0  0  0  0  0  0  0  0  0  0  0
  140.7078   73.7356  218.1482 H   0  0  0  0  0  0  0  0  0  0  0  0
  140.5684   75.4281  217.6481 H   0  0  0  0  0  0  0  0  0  0  0  0
  142.9998   73.8541  218.4370 H   0  0  0  0  0  0  0  0  0  0  0  0
  142.9082   75.2943  217.4119 H   0  0  0  0  0  0  0  0  0  0  0  0
  143.8606   75.3266  220.0184 H   0  0  0  0  0  0  0  0  0  0  0  0
  143.1370   76.7534  219.2642 H   0  0  0  0  0  0  0  0  0  0  0  0
  141.9910   74.9333  221.3729 H   0  0  0  0  0  0  0  0  0  0  0  0
  140.8808   76.1114  223.0924 H   0  0  0  0  0  0  0  0  0  0  0  0
  140.3775   78.3284  224.1185 H   0  0  0  0  0  0  0  0  0  0  0  0
  141.4276   80.2892  220.4075 H   0  0  0  0  0  0  0  0  0  0  0  0
  141.9340   78.0772  219.3759 H   0  0  0  0  0  0  0  0  0  0  0  0
  138.9562   70.1323  222.3025 H   0  0  0  0  0  0  0  0  0  0  0  0
  138.6856   68.6192  224.2733 H   0  0  0  0  0  0  0  0  0  0  0  0
  139.1036   68.1497  226.6617 H   0  0  0  0  0  0  0  0  0  0  0  0
  141.3539   70.9971  229.0214 H   0  0  0  0  0  0  0  0  0  0  0  0
  141.6192   72.4633  227.0188 H   0  0  0  0  0  0  0  0  0  0  0  0
  1  2  2  0
  2  3  1  0
  3  4  1  0
  4  5  1  0
  5  6  2  0
  5  7  1  0
  7  8  1  0
  8  9  1  0
  9 10  1  0
 10 11  1  0
 11 12  1  0
 12 13  2  0
 13 14  1  0
 14 15  2  0
 15 16  1  0
 15 17  1  0
 17 18  2  0
  2 19  1  0
 19 20  2  0
 20 21  1  0
 21 22  2  0
 22 23  1  0
 23 24  2  0
 24 25  1  0
 24 26  1  0
 26 27  2  0
 27 28  1  0
 28 29  2  0
 11  7  1  0
 18 12  1  0
 29 19  1  0
 28 22  1  0
  4 30  1  0
  4 31  1  0
  8 32  1  0
  8 33  1  0
  9 34  1  0
  9 35  1  0
 10 36  1  0
 10 37  1  0
 11 38  1  1
 13 39  1  0
 14 40  1  0
 17 41  1  0
 18 42  1  0
 20 43  1  0
 21 44  1  0
 23 45  1  0
 26 46  1  0
 27 47  1  0
M  CHG  1   3  -1
M  END
>  <meeko>  (16) 
{"free_energy": -7.55, "intermolecular_energy": -9.34, "internal_energy": -1.46, "cluster_size": 1, "cluster_id": 5, "rank_in_cluster": 1}

$$$$

     RDKit          3D

 47 50  0  0  0  0  0  0  0  0999 V2000
  140.2220   73.6680  222.3370 O   0  0  0  0  0  0  0  0  0  0  0  0
  140.2760   72.4220  222.1590 C   0  0  0  0  0  0  0  0  0  0  0  0
  140.4020   71.9390  220.8140 N   0  0  0  0  0  0  0  0  0  0  0  0
  141.5300   71.2170  220.2340 C   0  0  0  0  0  0  0  0  0  0  0  0
  142.3950   72.1150  219.3920 C   0  0  0  0  0  0  0  0  0  0  0  0
  141.9680   72.4570  218.2560 O   0  0  0  0  0  0  0  0  0  0  0  0
  143.6570   72.6410  219.8550 N   0  0  0  0  0  0  0  0  0  0  0  0
  144.9210   72.0250  219.4860 C   0  0  0  0  0  0  0  0  0  0  0  0
  145.9780   72.6910  220.3550 C   0  0  0  0  0  0  0  0  0  0  0  0
  145.3520   73.9900  220.8510 C   0  0  0  0  0  0  0  0  0  0  0  0
  143.8360   73.7810  220.7520 C   0  0  1  0  0  0  0  0  0  0  0  0
  143.1420   75.0240  220.2340 C   0  0  0  0  0  0  0  0  0  0  0  0
  143.6890   75.7680  219.1720 C   0  0  0  0  0  0  0  0  0  0  0  0
  143.0420   76.9160  218.7060 C   0  0  0  0  0  0  0  0  0  0  0  0
  141.8470   77.3370  219.3000 C   0  0  0  0  0  0  0  0  0  0  0  0
  141.0370   78.7780  218.7140 Cl  0  0  0  0  0  0  0  0  0  0  0  0
  141.3040   76.6110  220.3650 C   0  0  0  0  0  0  0  0  0  0  0  0
  141.9490   75.4620  220.8320 C   0  0  0  0  0  0  0  0  0  0  0  0
  140.1900   71.5270  223.3350 C   0  0  0  0  0  0  0  0  0  0  0  0
  139.5450   70.2840  223.2300 C   0  0  0  0  0  0  0  0  0  0  0  0
  139.4330   69.4630  224.3540 C   0  0  0  0  0  0  0  0  0  0  0  0
  139.9500   69.8900  225.5830 C   0  0  0  0  0  0  0  0  0  0  0  0
  139.8480   69.0930  226.7330 C   0  0  0  0  0  0  0  0  0  0  0  0
  140.3660   69.5540  227.9490 C   0  0  0  0  0  0  0  0  0  0  0  0
  140.2650   68.7850  229.0610 F   0  0  0  0  0  0  0  0  0  0  0  0
  140.9850   70.8070  228.0210 C   0  0  0  0  0  0  0  0  0  0  0  0
  141.0920   71.6060  226.8780 C   0  0  0  0  0  0  0  0  0  0  0  0
  140.5810   71.1510  225.6550 C   0  0  0  0  0  0  0  0  0  0  0  0
  140.6810   71.9250  224.5410 N   0  0  0  0  0  0  0  0  0  0  0  0
  142.1394   70.7961  221.0473 H   0  0  0  0  0  0  0  0  0  0  0  0
  141.1308   70.4221  219.5869 H   0  0  0  0  0  0  0  0  0  0  0  0
  144.8910   70.9429  219.6815 H   0  0  0  0  0  0  0  0  0  0  0  0
  145.1370   72.1556  218.4153 H   0  0  0  0  0  0  0  0  0  0  0  0
  146.2389   72.0429  221.2047 H   0  0  0  0  0  0  0  0  0  0  0  0
  146.9047   72.8778  219.7926 H   0  0  0  0  0  0  0  0  0  0  0  0
  145.6456   74.1844  221.8931 H   0  0  0  0  0  0  0  0  0  0  0  0
  145.6835   74.8545  220.2570 H   0  0  0  0  0  0  0  0  0  0  0  0
  143.3854   73.5857  221.7363 H   0  0  0  0  0  0  0  0  0  0  0  0
  144.6313   75.4441  218.7059 H   0  0  0  0  0  0  0  0  0  0  0  0
  143.4726   77.4890  217.8716 H   0  0  0  0  0  0  0  0  0  0  0  0
  140.3677   76.9447  220.8360 H   0  0  0  0  0  0  0  0  0  0  0  0
  141.5196   74.8975  221.6728 H   0  0  0  0  0  0  0  0  0  0  0  0
  139.1292   69.9580  222.2652 H   0  0  0  0  0  0  0  0  0  0  0  0
  138.9397   68.4831  224.2740 H   0  0  0  0  0  0  0  0  0  0  0  0
  139.3619   68.1077  226.6793 H   0  0  0  0  0  0  0  0  0  0  0  0
  141.3887   71.1647  228.9797 H   0  0  0  0  0  0  0  0  0  0  0  0
  141.5772   72.5913  226.9391 H   0  0  0  0  0  0  0  0  0  0  0  0
  1  2  2  0
  2  3  1  0
  3  4  1  0
  4  5  1  0
  5  6  2  0
  5  7  1  0
  7  8  1  0
  8  9  1  0
  9 10  1  0
 10 11  1  0
 11 12  1  0
 12 13  2  0
 13 14  1  0
 14 15  2  0
 15 16  1  0
 15 17  1  0
 17 18  2  0
  2 19  1  0
 19 20  2  0
 20 21  1  0
 21 22  2  0
 22 23  1  0
 23 24  2  0
 24 25  1  0
 24 26  1  0
 26 27  2  0
 27 28  1  0
 28 29  2  0
 11  7  1  0
 18 12  1  0
 29 19  1  0
 28 22  1  0
  4 30  1  0
  4 31  1  0
  8 32  1  0
  8 33  1  0
  9 34  1  0
  9 35  1  0
 10 36  1  0
 10 37  1  0
 11 38  1  1
 13 39  1  0
 14 40  1  0
 17 41  1  0
 18 42  1  0
 20 43  1  0
 21 44  1  0
 23 45  1  0
 26 46  1  0
 27 47  1  0
M  CHG  1   3  -1
M  END
>  <meeko>  (17) 
{"free_energy": -7.73, "intermolecular_energy": -9.52, "internal_energy": -1.55, "cluster_size": 3, "cluster_id": 4, "rank_in_cluster": 3}

$$$$

     RDKit          3D

 47 50  0  0  0  0  0  0  0  0999 V2000
  138.2660   74.1060  221.8510 O   0  0  0  0  0  0  0  0  0  0  0  0
  139.4880   74.3810  221.9790 C   0  0  0  0  0  0  0  0  0  0  0  0
  140.3830   73.3210  222.3460 N   0  0  0  0  0  0  0  0  0  0  0  0
  141.0500   72.3770  221.4560 C   0  0  0  0  0  0  0  0  0  0  0  0
  141.8380   73.0810  220.3840 C   0  0  0  0  0  0  0  0  0  0  0  0
  141.2070   73.5870  219.4170 O   0  0  0  0  0  0  0  0  0  0  0  0
  143.2710   73.2470  220.4520 N   0  0  0  0  0  0  0  0  0  0  0  0
  144.1680   72.1050  220.5110 C   0  0  0  0  0  0  0  0  0  0  0  0
  145.5440   72.6730  220.8270 C   0  0  0  0  0  0  0  0  0  0  0  0
  145.4750   74.1540  220.4700 C   0  0  0  0  0  0  0  0  0  0  0  0
  143.9870   74.5190  220.5130 C   0  0  1  0  0  0  0  0  0  0  0  0
  143.6120   75.4360  219.3670 C   0  0  0  0  0  0  0  0  0  0  0  0
  143.6310   74.9760  218.0370 C   0  0  0  0  0  0  0  0  0  0  0  0
  143.2880   75.8330  216.9880 C   0  0  0  0  0  0  0  0  0  0  0  0
  142.9300   77.1590  217.2540 C   0  0  0  0  0  0  0  0  0  0  0  0
  142.5000   78.2320  215.9350 Cl  0  0  0  0  0  0  0  0  0  0  0  0
  142.9210   77.6270  218.5710 C   0  0  0  0  0  0  0  0  0  0  0  0
  143.2620   76.7730  219.6230 C   0  0  0  0  0  0  0  0  0  0  0  0
  139.9330   75.7760  221.7620 C   0  0  0  0  0  0  0  0  0  0  0  0
  139.7140   76.4020  220.5230 C   0  0  0  0  0  0  0  0  0  0  0  0
  140.1730   77.7040  220.3130 C   0  0  0  0  0  0  0  0  0  0  0  0
  140.8620   78.3730  221.3320 C   0  0  0  0  0  0  0  0  0  0  0  0
  141.3420   79.6790  221.1500 C   0  0  0  0  0  0  0  0  0  0  0  0
  142.0360   80.3160  222.1840 C   0  0  0  0  0  0  0  0  0  0  0  0
  142.5030   81.5770  222.0090 F   0  0  0  0  0  0  0  0  0  0  0  0
  142.2530   79.6560  223.3990 C   0  0  0  0  0  0  0  0  0  0  0  0
  141.7760   78.3540  223.5870 C   0  0  0  0  0  0  0  0  0  0  0  0
  141.0750   77.7100  222.5590 C   0  0  0  0  0  0  0  0  0  0  0  0
  140.6110   76.4440  222.7370 N   0  0  0  0  0  0  0  0  0  0  0  0
  141.7342   71.7517  222.0483 H   0  0  0  0  0  0  0  0  0  0  0  0
  140.2783   71.7645  220.9668 H   0  0  0  0  0  0  0  0  0  0  0  0
  143.8503   71.4091  221.3014 H   0  0  0  0  0  0  0  0  0  0  0  0
  144.1699   71.5430  219.5654 H   0  0  0  0  0  0  0  0  0  0  0  0
  145.7742   72.5469  221.8952 H   0  0  0  0  0  0  0  0  0  0  0  0
  146.3342   72.1570  220.2619 H   0  0  0  0  0  0  0  0  0  0  0  0
  146.0384   74.7520  221.2014 H   0  0  0  0  0  0  0  0  0  0  0  0
  145.9154   74.3557  219.4824 H   0  0  0  0  0  0  0  0  0  0  0  0
  143.7293   75.0754  221.4262 H   0  0  0  0  0  0  0  0  0  0  0  0
  143.9175   73.9359  217.8221 H   0  0  0  0  0  0  0  0  0  0  0  0
  143.2995   75.4645  215.9516 H   0  0  0  0  0  0  0  0  0  0  0  0
  142.6446   78.6710  218.7799 H   0  0  0  0  0  0  0  0  0  0  0  0
  143.2565   77.1489  220.6568 H   0  0  0  0  0  0  0  0  0  0  0  0
  139.1828   75.8681  219.7213 H   0  0  0  0  0  0  0  0  0  0  0  0
  139.9937   78.2030  219.3492 H   0  0  0  0  0  0  0  0  0  0  0  0
  141.1729   80.2006  220.1964 H   0  0  0  0  0  0  0  0  0  0  0  0
  142.7999   80.1621  224.2082 H   0  0  0  0  0  0  0  0  0  0  0  0
  141.9513   77.8363  224.5416 H   0  0  0  0  0  0  0  0  0  0  0  0
  1  2  2  0
  2  3  1  0
  3  4  1  0
  4  5  1  0
  5  6  2  0
  5  7  1  0
  7  8  1  0
  8  9  1  0
  9 10  1  0
 10 11  1  0
 11 12  1  0
 12 13  2  0
 13 14  1  0
 14 15  2  0
 15 16  1  0
 15 17  1  0
 17 18  2  0
  2 19  1  0
 19 20  2  0
 20 21  1  0
 21 22  2  0
 22 23  1  0
 23 24  2  0
 24 25  1  0
 24 26  1  0
 26 27  2  0
 27 28  1  0
 28 29  2  0
 11  7  1  0
 18 12  1  0
 29 19  1  0
 28 22  1  0
  4 30  1  0
  4 31  1  0
  8 32  1  0
  8 33  1  0
  9 34  1  0
  9 35  1  0
 10 36  1  0
 10 37  1  0
 11 38  1  1
 13 39  1  0
 14 40  1  0
 17 41  1  0
 18 42  1  0
 20 43  1  0
 21 44  1  0
 23 45  1  0
 26 46  1  0
 27 47  1  0
M  CHG  1   3  -1
M  END
>  <meeko>  (18) 
{"free_energy": -6.45, "intermolecular_energy": -8.24, "internal_energy": -2.48, "cluster_size": 2, "cluster_id": 7, "rank_in_cluster": 2}

$$$$

     RDKit          3D

 47 50  0  0  0  0  0  0  0  0999 V2000
  141.0500   73.3260  222.2010 O   0  0  0  0  0  0  0  0  0  0  0  0
  139.9560   72.7580  222.4640 C   0  0  0  0  0  0  0  0  0  0  0  0
  138.7870   73.1840  221.7500 N   0  0  0  0  0  0  0  0  0  0  0  0
  138.0020   74.3920  221.9760 C   0  0  0  0  0  0  0  0  0  0  0  0
  138.7990   75.6370  221.6940 C   0  0  0  0  0  0  0  0  0  0  0  0
  138.5630   76.6640  222.3860 O   0  0  0  0  0  0  0  0  0  0  0  0
  139.8530   75.6820  220.7080 N   0  0  0  0  0  0  0  0  0  0  0  0
  139.6030   75.3690  219.3110 C   0  0  0  0  0  0  0  0  0  0  0  0
  140.9730   75.2770  218.6530 C   0  0  0  0  0  0  0  0  0  0  0  0
  141.9330   76.0030  219.5890 C   0  0  0  0  0  0  0  0  0  0  0  0
  141.2590   75.9870  220.9660 C   0  0  1  0  0  0  0  0  0  0  0  0
  141.4290   77.3140  221.6770 C   0  0  0  0  0  0  0  0  0  0  0  0
  141.2960   77.4060  223.0750 C   0  0  0  0  0  0  0  0  0  0  0  0
  141.4490   78.6360  223.7210 C   0  0  0  0  0  0  0  0  0  0  0  0
  141.7300   79.7870  222.9770 C   0  0  0  0  0  0  0  0  0  0  0  0
  141.9220   81.3300  223.7890 Cl  0  0  0  0  0  0  0  0  0  0  0  0
  141.8500   79.7070  221.5860 C   0  0  0  0  0  0  0  0  0  0  0  0
  141.6970   78.4780  220.9380 C   0  0  0  0  0  0  0  0  0  0  0  0
  139.9320   71.7000  223.4990 C   0  0  0  0  0  0  0  0  0  0  0  0
  139.2550   70.4930  223.2580 C   0  0  0  0  0  0  0  0  0  0  0  0
  139.2020   69.5160  224.2550 C   0  0  0  0  0  0  0  0  0  0  0  0
  139.8090   69.7520  225.4940 C   0  0  0  0  0  0  0  0  0  0  0  0
  139.7670   68.7940  226.5200 C   0  0  0  0  0  0  0  0  0  0  0  0
  140.3750   69.0650  227.7500 C   0  0  0  0  0  0  0  0  0  0  0  0
  140.3330   68.1410  228.7430 F   0  0  0  0  0  0  0  0  0  0  0  0
  141.0230   70.2870  227.9630 C   0  0  0  0  0  0  0  0  0  0  0  0
  141.0690   71.2450  226.9450 C   0  0  0  0  0  0  0  0  0  0  0  0
  140.4690   70.9810  225.7070 C   0  0  0  0  0  0  0  0  0  0  0  0
  140.5100   71.9100  224.7140 N   0  0  0  0  0  0  0  0  0  0  0  0
  137.1231   74.3744  221.3148 H   0  0  0  0  0  0  0  0  0  0  0  0
  137.7005   74.4111  223.0337 H   0  0  0  0  0  0  0  0  0  0  0  0
  139.0709   74.4103  219.2229 H   0  0  0  0  0  0  0  0  0  0  0  0
  138.9750   76.1343  218.8315 H   0  0  0  0  0  0  0  0  0  0  0  0
  141.2727   74.2249  218.5377 H   0  0  0  0  0  0  0  0  0  0  0  0
  140.9706   75.7251  217.6484 H   0  0  0  0  0  0  0  0  0  0  0  0
  142.8997   75.4796  219.6287 H   0  0  0  0  0  0  0  0  0  0  0  0
  142.1360   77.0288  219.2475 H   0  0  0  0  0  0  0  0  0  0  0  0
  141.7115   75.2393  221.6339 H   0  0  0  0  0  0  0  0  0  0  0  0
  141.0702   76.5042  223.6630 H   0  0  0  0  0  0  0  0  0  0  0  0
  141.3485   78.6990  224.8146 H   0  0  0  0  0  0  0  0  0  0  0  0
  142.0652   80.6131  221.0006 H   0  0  0  0  0  0  0  0  0  0  0  0
  141.7870   78.4221  219.8431 H   0  0  0  0  0  0  0  0  0  0  0  0
  138.7682   70.3177  222.2873 H   0  0  0  0  0  0  0  0  0  0  0  0
  138.6846   68.5637  224.0669 H   0  0  0  0  0  0  0  0  0  0  0  0
  139.2572   67.8330  226.3567 H   0  0  0  0  0  0  0  0  0  0  0  0
  141.4973   70.4946  228.9335 H   0  0  0  0  0  0  0  0  0  0  0  0
  141.5764   72.2058  227.1165 H   0  0  0  0  0  0  0  0  0  0  0  0
  1  2  2  0
  2  3  1  0
  3  4  1  0
  4  5  1  0
  5  6  2  0
  5  7  1  0
  7  8  1  0
  8  9  1  0
  9 10  1  0
 10 11  1  0
 11 12  1  0
 12 13  2  0
 13 14  1  0
 14 15  2  0
 15 16  1  0
 15 17  1  0
 17 18  2  0
  2 19  1  0
 19 20  2  0
 20 21  1  0
 21 22  2  0
 22 23  1  0
 23 24  2  0
 24 25  1  0
 24 26  1  0
 26 27  2  0
 27 28  1  0
 28 29  2  0
 11  7  1  0
 18 12  1  0
 29 19  1  0
 28 22  1  0
  4 30  1  0
  4 31  1  0
  8 32  1  0
  8 33  1  0
  9 34  1  0
  9 35  1  0
 10 36  1  0
 10 37  1  0
 11 38  1  1
 13 39  1  0
 14 40  1  0
 17 41  1  0
 18 42  1  0
 20 43  1  0
 21 44  1  0
 23 45  1  0
 26 46  1  0
 27 47  1  0
M  CHG  1   3  -1
M  END
>  <meeko>  (19) 
{"free_energy": -7.81, "intermolecular_energy": -9.6, "internal_energy": -1.51, "cluster_size": 9, "cluster_id": 1, "rank_in_cluster": 8}

$$$$

     RDKit          3D

 47 50  0  0  0  0  0  0  0  0999 V2000
  138.5660   72.1750  221.9580 O   0  0  0  0  0  0  0  0  0  0  0  0
  139.6050   72.2080  222.6690 C   0  0  0  0  0  0  0  0  0  0  0  0
  140.6000   73.1960  222.3630 N   0  0  0  0  0  0  0  0  0  0  0  0
  140.9670   73.7050  221.0460 C   0  0  0  0  0  0  0  0  0  0  0  0
  141.9840   72.8240  220.3710 C   0  0  0  0  0  0  0  0  0  0  0  0
  141.5670   71.8530  219.6840 O   0  0  0  0  0  0  0  0  0  0  0  0
  143.4030   73.0820  220.4340 N   0  0  0  0  0  0  0  0  0  0  0  0
  144.3750   72.0010  220.4370 C   0  0  0  0  0  0  0  0  0  0  0  0
  145.7140   72.6450  220.7660 C   0  0  0  0  0  0  0  0  0  0  0  0
  145.5430   74.1320  220.4750 C   0  0  0  0  0  0  0  0  0  0  0  0
  144.0340   74.3950  220.5450 C   0  0  1  0  0  0  0  0  0  0  0  0
  143.5870   75.3340  219.4430 C   0  0  0  0  0  0  0  0  0  0  0  0
  143.7230   74.9750  218.0890 C   0  0  0  0  0  0  0  0  0  0  0  0
  143.3120   75.8510  217.0810 C   0  0  0  0  0  0  0  0  0  0  0  0
  142.7670   77.0960  217.4140 C   0  0  0  0  0  0  0  0  0  0  0  0
  142.2510   78.1940  216.1470 Cl  0  0  0  0  0  0  0  0  0  0  0  0
  142.6410   77.4660  218.7560 C   0  0  0  0  0  0  0  0  0  0  0  0
  143.0510   76.5910  219.7670 C   0  0  0  0  0  0  0  0  0  0  0  0
  139.7530   71.2240  223.7640 C   0  0  0  0  0  0  0  0  0  0  0  0
  139.2680   69.9140  223.6060 C   0  0  0  0  0  0  0  0  0  0  0  0
  139.3750   69.0030  224.6580 C   0  0  0  0  0  0  0  0  0  0  0  0
  139.9510   69.4030  225.8700 C   0  0  0  0  0  0  0  0  0  0  0  0
  140.0660   68.5140  226.9500 C   0  0  0  0  0  0  0  0  0  0  0  0
  140.6360   68.9480  228.1520 C   0  0  0  0  0  0  0  0  0  0  0  0
  140.7460   68.0910  229.1970 F   0  0  0  0  0  0  0  0  0  0  0  0
  141.0910   70.2650  228.2810 C   0  0  0  0  0  0  0  0  0  0  0  0
  140.9790   71.1560  227.2080 C   0  0  0  0  0  0  0  0  0  0  0  0
  140.4150   70.7300  225.9990 C   0  0  0  0  0  0  0  0  0  0  0  0
  140.3030   71.5920  224.9540 N   0  0  0  0  0  0  0  0  0  0  0  0
  140.0648   73.7531  220.4185 H   0  0  0  0  0  0  0  0  0  0  0  0
  141.4110   74.7030  221.1761 H   0  0  0  0  0  0  0  0  0  0  0  0
  144.1127   71.2527  221.1994 H   0  0  0  0  0  0  0  0  0  0  0  0
  144.4041   71.4813  219.4679 H   0  0  0  0  0  0  0  0  0  0  0  0
  145.9642   72.4884  221.8257 H   0  0  0  0  0  0  0  0  0  0  0  0
  146.5302   72.2077  220.1722 H   0  0  0  0  0  0  0  0  0  0  0  0
  146.0730   74.7340  221.2278 H   0  0  0  0  0  0  0  0  0  0  0  0
  145.9587   74.4052  219.4939 H   0  0  0  0  0  0  0  0  0  0  0  0
  143.7496   74.8931  221.4836 H   0  0  0  0  0  0  0  0  0  0  0  0
  144.1553   73.9992  217.8227 H   0  0  0  0  0  0  0  0  0  0  0  0
  143.4169   75.5617  216.0249 H   0  0  0  0  0  0  0  0  0  0  0  0
  142.2185   78.4474  219.0174 H   0  0  0  0  0  0  0  0  0  0  0  0
  142.9531   76.8888  220.8214 H   0  0  0  0  0  0  0  0  0  0  0  0
  138.8055   69.6078  222.6561 H   0  0  0  0  0  0  0  0  0  0  0  0
  139.0078   67.9734  224.5353 H   0  0  0  0  0  0  0  0  0  0  0  0
  139.7088   67.4783  226.8517 H   0  0  0  0  0  0  0  0  0  0  0  0
  141.5379   70.6007  229.2284 H   0  0  0  0  0  0  0  0  0  0  0  0
  141.3342   72.1917  227.3141 H   0  0  0  0  0  0  0  0  0  0  0  0
  1  2  2  0
  2  3  1  0
  3  4  1  0
  4  5  1  0
  5  6  2  0
  5  7  1  0
  7  8  1  0
  8  9  1  0
  9 10  1  0
 10 11  1  0
 11 12  1  0
 12 13  2  0
 13 14  1  0
 14 15  2  0
 15 16  1  0
 15 17  1  0
 17 18  2  0
  2 19  1  0
 19 20  2  0
 20 21  1  0
 21 22  2  0
 22 23  1  0
 23 24  2  0
 24 25  1  0
 24 26  1  0
 26 27  2  0
 27 28  1  0
 28 29  2  0
 11  7  1  0
 18 12  1  0
 29 19  1  0
 28 22  1  0
  4 30  1  0
  4 31  1  0
  8 32  1  0
  8 33  1  0
  9 34  1  0
  9 35  1  0
 10 36  1  0
 10 37  1  0
 11 38  1  1
 13 39  1  0
 14 40  1  0
 17 41  1  0
 18 42  1  0
 20 43  1  0
 21 44  1  0
 23 45  1  0
 26 46  1  0
 27 47  1  0
M  CHG  1   3  -1
M  END
>  <meeko>  (20) 
{"free_energy": -7.76, "intermolecular_energy": -9.55, "internal_energy": -1.23, "cluster_size": 3, "cluster_id": 4, "rank_in_cluster": 2}

$$$$
