
     RDKit          3D

 59 61  0  0  0  0  0  0  0  0999 V2000
  141.6970   78.5900  219.6780 C   0  0  0  0  0  0  0  0  0  0  0  0
  141.8330   77.2450  220.4050 C   0  0  0  0  0  0  0  0  0  0  0  0
  142.8450   76.3360  219.6940 C   0  0  0  0  0  0  0  0  0  0  0  0
  140.4680   76.5550  220.6660 C   0  0  0  0  0  0  0  0  0  0  0  0
  140.0090   76.4480  222.1420 C   0  0  2  0  0  0  0  0  0  0  0  0
  139.2460   75.2120  222.3340 N   0  0  0  0  0  0  0  0  0  0  0  0
  138.3800   74.7090  221.3070 C   0  0  0  0  0  0  0  0  0  0  0  0
  137.4790   75.5840  220.6980 O   0  0  0  0  0  0  0  0  0  0  0  0
  138.4260   73.4230  220.9190 C   0  0  0  0  0  0  0  0  0  0  0  0
  138.5750   72.3410  221.8540 N   0  0  0  0  0  0  0  0  0  0  0  0
  139.7200   72.2390  222.7160 C   0  0  0  0  0  0  0  0  0  0  0  0
  140.7020   73.0160  222.5540 O   0  0  0  0  0  0  0  0  0  0  0  0
  139.7480   71.2370  223.8060 C   0  0  0  0  0  0  0  0  0  0  0  0
  139.2330   69.9430  223.6160 C   0  0  0  0  0  0  0  0  0  0  0  0
  139.3050   69.0090  224.6530 C   0  0  0  0  0  0  0  0  0  0  0  0
  139.8850   69.3680  225.8760 C   0  0  0  0  0  0  0  0  0  0  0  0
  139.9790   68.4530  226.9360 C   0  0  0  0  0  0  0  0  0  0  0  0
  140.5700   68.8440  228.1430 C   0  0  0  0  0  0  0  0  0  0  0  0
  141.0690   70.1420  228.2970 C   0  0  0  0  0  0  0  0  0  0  0  0
  140.9770   71.0590  227.2450 C   0  0  0  0  0  0  0  0  0  0  0  0
  140.3860   70.6780  226.0340 C   0  0  0  0  0  0  0  0  0  0  0  0
  140.3020   71.5640  225.0070 N   0  0  0  0  0  0  0  0  0  0  0  0
  139.1360   77.6050  222.5410 C   0  0  0  0  0  0  0  0  0  0  0  0
  137.9140   77.4150  222.7850 O   0  0  0  0  0  0  0  0  0  0  0  0
  139.6890   78.9270  222.5830 N   0  0  0  0  0  0  0  0  0  0  0  0
  140.4580   79.4510  223.7090 C   0  0  0  0  0  0  0  0  0  0  0  0
  140.8070   80.9080  223.4490 C   0  0  0  0  0  0  0  0  0  0  0  0
  142.0980   80.8840  222.6420 C   0  0  0  0  0  0  0  0  0  0  0  0
  142.7710   79.5450  222.9390 C   0  0  0  0  0  0  0  0  0  0  0  0
  141.8070   78.7480  223.8150 C   0  0  0  0  0  0  0  0  0  0  0  0
  141.6151   79.4000  220.4177 H   0  0  0  0  0  0  0  0  0  0  0  0
  142.5828   78.7573  219.0476 H   0  0  0  0  0  0  0  0  0  0  0  0
  140.7956   78.5766  219.0476 H   0  0  0  0  0  0  0  0  0  0  0  0
  142.2358   77.4544  221.4069 H   0  0  0  0  0  0  0  0  0  0  0  0
  143.4441   75.7978  220.4433 H   0  0  0  0  0  0  0  0  0  0  0  0
  142.3079   75.6112  219.0646 H   0  0  0  0  0  0  0  0  0  0  0  0
  143.5082   76.9475  219.0646 H   0  0  0  0  0  0  0  0  0  0  0  0
  139.6994   77.1206  220.1189 H   0  0  0  0  0  0  0  0  0  0  0  0
  140.6025   75.5160  220.3309 H   0  0  0  0  0  0  0  0  0  0  0  0
  140.9141   76.4535  222.7671 H   0  0  0  0  0  0  0  0  0  0  0  0
  139.4060   74.6370  223.1930 H   0  0  0  0  0  0  0  0  0  0  0  0
  137.3270   76.5250  221.0410 H   0  0  0  0  0  0  0  0  0  0  0  0
  138.3467   73.1898  219.8469 H   0  0  0  0  0  0  0  0  0  0  0  0
  137.7950   71.6600  221.9860 H   0  0  0  0  0  0  0  0  0  0  0  0
  138.7751   69.6666  222.6548 H   0  0  0  0  0  0  0  0  0  0  0  0
  138.9068   67.9938  224.5089 H   0  0  0  0  0  0  0  0  0  0  0  0
  139.5892   67.4311  226.8185 H   0  0  0  0  0  0  0  0  0  0  0  0
  140.6425   68.1274  228.9744 H   0  0  0  0  0  0  0  0  0  0  0  0
  141.5346   70.4419  229.2474 H   0  0  0  0  0  0  0  0  0  0  0  0
  141.3688   72.0794  227.3688 H   0  0  0  0  0  0  0  0  0  0  0  0
  139.8486   79.3075  224.6134 H   0  0  0  0  0  0  0  0  0  0  0  0
  140.0058   81.3982  222.8765 H   0  0  0  0  0  0  0  0  0  0  0  0
  140.9244   81.4712  224.3866 H   0  0  0  0  0  0  0  0  0  0  0  0
  141.8762   80.9678  221.5679 H   0  0  0  0  0  0  0  0  0  0  0  0
  142.7518   81.7262  222.9126 H   0  0  0  0  0  0  0  0  0  0  0  0
  142.9658   79.0035  222.0015 H   0  0  0  0  0  0  0  0  0  0  0  0
  143.7346   79.6933  223.4484 H   0  0  0  0  0  0  0  0  0  0  0  0
  141.7276   77.7130  223.4511 H   0  0  0  0  0  0  0  0  0  0  0  0
  142.1555   78.7030  224.8574 H   0  0  0  0  0  0  0  0  0  0  0  0
  1  2  1  0
  2  3  1  0
  2  4  1  0
  4  5  1  0
  5  6  1  0
  6  7  1  0
  7  8  1  0
  7  9  2  0
  9 10  1  0
 10 11  1  0
 11 12  2  0
 11 13  1  0
 13 14  2  0
 14 15  1  0
 15 16  2  0
 16 17  1  0
 17 18  2  0
 18 19  1  0
 19 20  2  0
 20 21  1  0
 21 22  2  0
  5 23  1  0
 23 24  2  0
 23 25  1  0
 25 26  1  0
 26 27  1  0
 27 28  1  0
 28 29  1  0
 29 30  1  0
 22 13  1  0
 30 26  1  0
 21 16  1  0
  1 31  1  0
  1 32  1  0
  1 33  1  0
  2 34  1  0
  3 35  1  0
  3 36  1  0
  3 37  1  0
  4 38  1  0
  4 39  1  0
  5 40  1  1
  6 41  1  0
  8 42  1  0
  9 43  1  0
 10 44  1  0
 14 45  1  0
 15 46  1  0
 17 47  1  0
 18 48  1  0
 19 49  1  0
 20 50  1  0
 26 51  1  0
 27 52  1  0
 27 53  1  0
 28 54  1  0
 28 55  1  0
 29 56  1  0
 29 57  1  0
 30 58  1  0
 30 59  1  0
M  CHG  1  25  -1
M  END
>  <meeko>  (1) 
{"free_energy": -7.61, "intermolecular_energy": -10.89, "internal_energy": -3.11, "cluster_size": 15, "cluster_id": 1, "rank_in_cluster": 4}

$$$$

     RDKit          3D

 59 61  0  0  0  0  0  0  0  0999 V2000
  142.3150   74.8120  220.8200 C   0  0  0  0  0  0  0  0  0  0  0  0
  141.7240   75.8710  219.8790 C   0  0  0  0  0  0  0  0  0  0  0  0
  142.8060   76.8510  219.4060 C   0  0  0  0  0  0  0  0  0  0  0  0
  140.4730   76.5760  220.4680 C   0  0  0  0  0  0  0  0  0  0  0  0
  140.2630   76.4640  221.9990 C   0  0  2  0  0  0  0  0  0  0  0  0
  139.3880   75.3260  222.2950 N   0  0  0  0  0  0  0  0  0  0  0  0
  138.4070   74.8800  221.3490 C   0  0  0  0  0  0  0  0  0  0  0  0
  137.5490   75.8200  220.7760 O   0  0  0  0  0  0  0  0  0  0  0  0
  138.3060   73.5860  221.0020 C   0  0  0  0  0  0  0  0  0  0  0  0
  138.4520   72.5190  221.9550 N   0  0  0  0  0  0  0  0  0  0  0  0
  139.6540   72.3540  222.7260 C   0  0  0  0  0  0  0  0  0  0  0  0
  140.6730   73.0520  222.4620 O   0  0  0  0  0  0  0  0  0  0  0  0
  139.6990   71.3800  223.8400 C   0  0  0  0  0  0  0  0  0  0  0  0
  139.1900   70.0780  223.6870 C   0  0  0  0  0  0  0  0  0  0  0  0
  139.2780   69.1720  224.7470 C   0  0  0  0  0  0  0  0  0  0  0  0
  139.8680   69.5640  225.9540 C   0  0  0  0  0  0  0  0  0  0  0  0
  139.9790   68.6770  227.0370 C   0  0  0  0  0  0  0  0  0  0  0  0
  140.5800   69.1010  228.2270 C   0  0  0  0  0  0  0  0  0  0  0  0
  141.0710   70.4060  228.3430 C   0  0  0  0  0  0  0  0  0  0  0  0
  140.9640   71.2960  227.2700 C   0  0  0  0  0  0  0  0  0  0  0  0
  140.3620   70.8810  226.0750 C   0  0  0  0  0  0  0  0  0  0  0  0
  140.2630   71.7400  225.0260 N   0  0  0  0  0  0  0  0  0  0  0  0
  139.6280   77.7030  222.5670 C   0  0  0  0  0  0  0  0  0  0  0  0
  138.4030   77.9300  222.3710 O   0  0  0  0  0  0  0  0  0  0  0  0
  140.4370   78.6490  223.2780 N   0  0  0  0  0  0  0  0  0  0  0  0
  141.7950   79.0160  222.8840 C   0  0  0  0  0  0  0  0  0  0  0  0
  142.3070   80.1190  223.7980 C   0  0  0  0  0  0  0  0  0  0  0  0
  141.8270   81.4240  223.1770 C   0  0  0  0  0  0  0  0  0  0  0  0
  141.5860   81.1360  221.6960 C   0  0  0  0  0  0  0  0  0  0  0  0
  141.8040   79.6390  221.4920 C   0  0  0  0  0  0  0  0  0  0  0  0
  142.1463   75.1142  221.8641 H   0  0  0  0  0  0  0  0  0  0  0  0
  141.8268   73.8438  220.6351 H   0  0  0  0  0  0  0  0  0  0  0  0
  143.3954   74.7191  220.6351 H   0  0  0  0  0  0  0  0  0  0  0  0
  141.3535   75.3455  218.9865 H   0  0  0  0  0  0  0  0  0  0  0  0
  143.3015   77.2997  220.2796 H   0  0  0  0  0  0  0  0  0  0  0  0
  143.5490   76.3122  218.7997 H   0  0  0  0  0  0  0  0  0  0  0  0
  142.3431   77.6436  218.7997 H   0  0  0  0  0  0  0  0  0  0  0  0
  140.5459   77.6451  220.2196 H   0  0  0  0  0  0  0  0  0  0  0  0
  139.6129   76.0560  220.0211 H   0  0  0  0  0  0  0  0  0  0  0  0
  141.2540   76.3296  222.4570 H   0  0  0  0  0  0  0  0  0  0  0  0
  139.5450   74.7720  223.1680 H   0  0  0  0  0  0  0  0  0  0  0  0
  137.5180   76.7830  221.0890 H   0  0  0  0  0  0  0  0  0  0  0  0
  138.1043   73.3335  219.9505 H   0  0  0  0  0  0  0  0  0  0  0  0
  137.6390   71.9010  222.1700 H   0  0  0  0  0  0  0  0  0  0  0  0
  138.7249   69.7744  222.7375 H   0  0  0  0  0  0  0  0  0  0  0  0
  138.8839   68.1514  224.6329 H   0  0  0  0  0  0  0  0  0  0  0  0
  139.5940   67.6503  226.9498 H   0  0  0  0  0  0  0  0  0  0  0  0
  140.6669   68.4056  229.0749 H   0  0  0  0  0  0  0  0  0  0  0  0
  141.5427   70.7329  229.2814 H   0  0  0  0  0  0  0  0  0  0  0  0
  141.3521   72.3210  227.3640 H   0  0  0  0  0  0  0  0  0  0  0  0
  142.4039   78.1009  222.9278 H   0  0  0  0  0  0  0  0  0  0  0  0
  141.8935   80.0010  224.8105 H   0  0  0  0  0  0  0  0  0  0  0  0
  143.4027   80.0927  223.8920 H   0  0  0  0  0  0  0  0  0  0  0  0
  140.8935   81.7527  223.6571 H   0  0  0  0  0  0  0  0  0  0  0  0
  142.5687   82.2252  223.3112 H   0  0  0  0  0  0  0  0  0  0  0  0
  140.5566   81.4090  221.4206 H   0  0  0  0  0  0  0  0  0  0  0  0
  142.2705   81.7222  221.0653 H   0  0  0  0  0  0  0  0  0  0  0  0
  140.9947   79.2155  220.8791 H   0  0  0  0  0  0  0  0  0  0  0  0
  142.7505   79.4387  220.9685 H   0  0  0  0  0  0  0  0  0  0  0  0
  1  2  1  0
  2  3  1  0
  2  4  1  0
  4  5  1  0
  5  6  1  0
  6  7  1  0
  7  8  1  0
  7  9  2  0
  9 10  1  0
 10 11  1  0
 11 12  2  0
 11 13  1  0
 13 14  2  0
 14 15  1  0
 15 16  2  0
 16 17  1  0
 17 18  2  0
 18 19  1  0
 19 20  2  0
 20 21  1  0
 21 22  2  0
  5 23  1  0
 23 24  2  0
 23 25  1  0
 25 26  1  0
 26 27  1  0
 27 28  1  0
 28 29  1  0
 29 30  1  0
 22 13  1  0
 30 26  1  0
 21 16  1  0
  1 31  1  0
  1 32  1  0
  1 33  1  0
  2 34  1  0
  3 35  1  0
  3 36  1  0
  3 37  1  0
  4 38  1  0
  4 39  1  0
  5 40  1  1
  6 41  1  0
  8 42  1  0
  9 43  1  0
 10 44  1  0
 14 45  1  0
 15 46  1  0
 17 47  1  0
 18 48  1  0
 19 49  1  0
 20 50  1  0
 26 51  1  0
 27 52  1  0
 27 53  1  0
 28 54  1  0
 28 55  1  0
 29 56  1  0
 29 57  1  0
 30 58  1  0
 30 59  1  0
M  CHG  1  25  -1
M  END
>  <meeko>  (2) 
{"free_energy": -7.36, "intermolecular_energy": -10.64, "internal_energy": -3.08, "cluster_size": 15, "cluster_id": 1, "rank_in_cluster": 11}

$$$$

     RDKit          3D

 59 61  0  0  0  0  0  0  0  0999 V2000
  141.8250   78.3350  219.3570 C   0  0  0  0  0  0  0  0  0  0  0  0
  142.9450   77.5190  218.6970 C   0  0  0  0  0  0  0  0  0  0  0  0
  142.6650   77.3080  217.2040 C   0  0  0  0  0  0  0  0  0  0  0  0
  143.2640   76.2020  219.4530 C   0  0  0  0  0  0  0  0  0  0  0  0
  142.4380   74.9520  219.0600 C   0  0  2  0  0  0  0  0  0  0  0  0
  141.8980   74.3180  220.2650 N   0  0  0  0  0  0  0  0  0  0  0  0
  140.9080   74.9750  221.0680 C   0  0  0  0  0  0  0  0  0  0  0  0
  141.2120   76.2170  221.6280 O   0  0  0  0  0  0  0  0  0  0  0  0
  139.7010   74.4250  221.2820 C   0  0  0  0  0  0  0  0  0  0  0  0
  139.4620   73.4760  222.3350 N   0  0  0  0  0  0  0  0  0  0  0  0
  140.2550   72.2840  222.4720 C   0  0  0  0  0  0  0  0  0  0  0  0
  141.0760   71.9670  221.5680 O   0  0  0  0  0  0  0  0  0  0  0  0
  140.1240   71.4350  223.6780 C   0  0  0  0  0  0  0  0  0  0  0  0
  139.5280   70.1630  223.6090 C   0  0  0  0  0  0  0  0  0  0  0  0
  139.4500   69.3720  224.7580 C   0  0  0  0  0  0  0  0  0  0  0  0
  139.9610   69.8500  225.9710 C   0  0  0  0  0  0  0  0  0  0  0  0
  139.9060   69.0790  227.1420 C   0  0  0  0  0  0  0  0  0  0  0  0
  140.4310   69.5860  228.3370 C   0  0  0  0  0  0  0  0  0  0  0  0
  141.0140   70.8580  228.3670 C   0  0  0  0  0  0  0  0  0  0  0  0
  141.0720   71.6320  227.2040 C   0  0  0  0  0  0  0  0  0  0  0  0
  140.5460   71.1340  226.0050 C   0  0  0  0  0  0  0  0  0  0  0  0
  140.6080   71.8800  224.8700 N   0  0  0  0  0  0  0  0  0  0  0  0
  143.2740   73.9370  218.3310 C   0  0  0  0  0  0  0  0  0  0  0  0
  144.0390   74.3060  217.3980 O   0  0  0  0  0  0  0  0  0  0  0  0
  143.1490   72.5480  218.6610 N   0  0  0  0  0  0  0  0  0  0  0  0
  144.1850   71.7800  219.3480 C   0  0  0  0  0  0  0  0  0  0  0  0
  144.0620   71.9930  220.8490 C   0  0  0  0  0  0  0  0  0  0  0  0
  144.8620   73.2520  221.1530 C   0  0  0  0  0  0  0  0  0  0  0  0
  145.8740   73.4070  220.0190 C   0  0  0  0  0  0  0  0  0  0  0  0
  145.5710   72.3120  219.0000 C   0  0  0  0  0  0  0  0  0  0  0  0
  141.9179   78.2673  220.4510 H   0  0  0  0  0  0  0  0  0  0  0  0
  141.9061   79.3871  219.0465 H   0  0  0  0  0  0  0  0  0  0  0  0
  140.8483   77.9353  219.0465 H   0  0  0  0  0  0  0  0  0  0  0  0
  143.8680   78.1128  218.7706 H   0  0  0  0  0  0  0  0  0  0  0  0
  141.7917   76.6500  217.0841 H   0  0  0  0  0  0  0  0  0  0  0  0
  142.4607   78.2786  216.7285 H   0  0  0  0  0  0  0  0  0  0  0  0
  143.5417   76.8440  216.7285 H   0  0  0  0  0  0  0  0  0  0  0  0
  144.3247   75.9676  219.2797 H   0  0  0  0  0  0  0  0  0  0  0  0
  143.0008   76.4020  220.5022 H   0  0  0  0  0  0  0  0  0  0  0  0
  141.6289   75.2899  218.3958 H   0  0  0  0  0  0  0  0  0  0  0  0
  142.1670   73.3330  220.4920 H   0  0  0  0  0  0  0  0  0  0  0  0
  142.1380   76.4410  221.9720 H   0  0  0  0  0  0  0  0  0  0  0  0
  138.8648   74.7115  220.6273 H   0  0  0  0  0  0  0  0  0  0  0  0
  138.7630   73.6920  223.0790 H   0  0  0  0  0  0  0  0  0  0  0  0
  139.1251   69.7926  222.6548 H   0  0  0  0  0  0  0  0  0  0  0  0
  138.9878   68.3750  224.7099 H   0  0  0  0  0  0  0  0  0  0  0  0
  139.4511   68.0777  227.1213 H   0  0  0  0  0  0  0  0  0  0  0  0
  140.3850   68.9824  229.2555 H   0  0  0  0  0  0  0  0  0  0  0  0
  141.4277   71.2498  229.3079 H   0  0  0  0  0  0  0  0  0  0  0  0
  141.5305   72.6315  227.2306 H   0  0  0  0  0  0  0  0  0  0  0  0
  144.0616   70.7286  219.0491 H   0  0  0  0  0  0  0  0  0  0  0  0
  143.0079   72.1307  221.1318 H   0  0  0  0  0  0  0  0  0  0  0  0
  144.4372   71.1271  221.4142 H   0  0  0  0  0  0  0  0  0  0  0  0
  144.1954   74.1263  221.1897 H   0  0  0  0  0  0  0  0  0  0  0  0
  145.3655   73.1777  222.1282 H   0  0  0  0  0  0  0  0  0  0  0  0
  145.7697   74.3974  219.5519 H   0  0  0  0  0  0  0  0  0  0  0  0
  146.9036   73.3192  220.3961 H   0  0  0  0  0  0  0  0  0  0  0  0
  145.5756   72.7270  217.9813 H   0  0  0  0  0  0  0  0  0  0  0  0
  146.3270   71.5136  219.0323 H   0  0  0  0  0  0  0  0  0  0  0  0
  1  2  1  0
  2  3  1  0
  2  4  1  0
  4  5  1  0
  5  6  1  0
  6  7  1  0
  7  8  1  0
  7  9  2  0
  9 10  1  0
 10 11  1  0
 11 12  2  0
 11 13  1  0
 13 14  2  0
 14 15  1  0
 15 16  2  0
 16 17  1  0
 17 18  2  0
 18 19  1  0
 19 20  2  0
 20 21  1  0
 21 22  2  0
  5 23  1  0
 23 24  2  0
 23 25  1  0
 25 26  1  0
 26 27  1  0
 27 28  1  0
 28 29  1  0
 29 30  1  0
 22 13  1  0
 30 26  1  0
 21 16  1  0
  1 31  1  0
  1 32  1  0
  1 33  1  0
  2 34  1  0
  3 35  1  0
  3 36  1  0
  3 37  1  0
  4 38  1  0
  4 39  1  0
  5 40  1  6
  6 41  1  0
  8 42  1  0
  9 43  1  0
 10 44  1  0
 14 45  1  0
 15 46  1  0
 17 47  1  0
 18 48  1  0
 19 49  1  0
 20 50  1  0
 26 51  1  0
 27 52  1  0
 27 53  1  0
 28 54  1  0
 28 55  1  0
 29 56  1  0
 29 57  1  0
 30 58  1  0
 30 59  1  0
M  CHG  1  25  -1
M  END
>  <meeko>  (3) 
{"free_energy": -6.96, "intermolecular_energy": -10.24, "internal_energy": -3.29, "cluster_size": 3, "cluster_id": 2, "rank_in_cluster": 2}

$$$$

     RDKit          3D

 59 61  0  0  0  0  0  0  0  0999 V2000
  142.5550   77.5130  217.4430 C   0  0  0  0  0  0  0  0  0  0  0  0
  142.6080   77.4320  218.9740 C   0  0  0  0  0  0  0  0  0  0  0  0
  143.3120   76.1480  219.4330 C   0  0  0  0  0  0  0  0  0  0  0  0
  141.2240   77.6430  219.6430 C   0  0  0  0  0  0  0  0  0  0  0  0
  141.2080   77.8050  221.1840 C   0  0  2  0  0  0  0  0  0  0  0  0
  141.0710   76.4900  221.8170 N   0  0  0  0  0  0  0  0  0  0  0  0
  139.7950   75.8450  221.9150 C   0  0  0  0  0  0  0  0  0  0  0  0
  138.7320   76.5390  222.4950 O   0  0  0  0  0  0  0  0  0  0  0  0
  139.6040   74.5970  221.4550 C   0  0  0  0  0  0  0  0  0  0  0  0
  139.3740   73.4790  222.3300 N   0  0  0  0  0  0  0  0  0  0  0  0
  140.3920   72.4960  222.5830 C   0  0  0  0  0  0  0  0  0  0  0  0
  141.4610   72.5080  221.9110 O   0  0  0  0  0  0  0  0  0  0  0  0
  140.2010   71.4790  223.6420 C   0  0  0  0  0  0  0  0  0  0  0  0
  139.5520   70.2610  223.3700 C   0  0  0  0  0  0  0  0  0  0  0  0
  139.4170   69.3070  224.3820 C   0  0  0  0  0  0  0  0  0  0  0  0
  139.9240   69.5690  225.6610 C   0  0  0  0  0  0  0  0  0  0  0  0
  139.8120   68.6310  226.6980 C   0  0  0  0  0  0  0  0  0  0  0  0
  140.3350   68.9240  227.9630 C   0  0  0  0  0  0  0  0  0  0  0  0
  140.9710   70.1490  228.1970 C   0  0  0  0  0  0  0  0  0  0  0  0
  141.0850   71.0890  227.1680 C   0  0  0  0  0  0  0  0  0  0  0  0
  140.5630   70.8050  225.9000 C   0  0  0  0  0  0  0  0  0  0  0  0
  140.6800   71.7130  224.8950 N   0  0  0  0  0  0  0  0  0  0  0  0
  140.0660   78.6670  221.6430 C   0  0  0  0  0  0  0  0  0  0  0  0
  139.1770   79.0240  220.8220 O   0  0  0  0  0  0  0  0  0  0  0  0
  140.0280   79.1290  222.9990 N   0  0  0  0  0  0  0  0  0  0  0  0
  140.7000   80.3400  223.4650 C   0  0  0  0  0  0  0  0  0  0  0  0
  140.8620   81.3070  222.3040 C   0  0  0  0  0  0  0  0  0  0  0  0
  142.1610   80.9100  221.6160 C   0  0  0  0  0  0  0  0  0  0  0  0
  142.9960   80.1690  222.6600 C   0  0  0  0  0  0  0  0  0  0  0  0
  142.1260   80.0300  223.9060 C   0  0  0  0  0  0  0  0  0  0  0  0
  141.9756   78.3984  217.1425 H   0  0  0  0  0  0  0  0  0  0  0  0
  143.5772   77.5911  217.0443 H   0  0  0  0  0  0  0  0  0  0  0  0
  142.0742   76.6075  217.0443 H   0  0  0  0  0  0  0  0  0  0  0  0
  143.2185   78.2777  219.3234 H   0  0  0  0  0  0  0  0  0  0  0  0
  143.3311   76.1132  220.5323 H   0  0  0  0  0  0  0  0  0  0  0  0
  142.7672   75.2734  219.0479 H   0  0  0  0  0  0  0  0  0  0  0  0
  144.3423   76.1370  219.0479 H   0  0  0  0  0  0  0  0  0  0  0  0
  140.7799   78.5508  219.2087 H   0  0  0  0  0  0  0  0  0  0  0  0
  140.6659   76.7158  219.4462 H   0  0  0  0  0  0  0  0  0  0  0  0
  142.1545   78.2854  221.4727 H   0  0  0  0  0  0  0  0  0  0  0  0
  141.9290   75.9730  222.1170 H   0  0  0  0  0  0  0  0  0  0  0  0
  138.6260   77.5410  222.3980 H   0  0  0  0  0  0  0  0  0  0  0  0
  139.6243   74.4240  220.3689 H   0  0  0  0  0  0  0  0  0  0  0  0
  138.4850   73.4210  222.8740 H   0  0  0  0  0  0  0  0  0  0  0  0
  139.1525   70.0604  222.3649 H   0  0  0  0  0  0  0  0  0  0  0  0
  138.9132   68.3514  224.1744 H   0  0  0  0  0  0  0  0  0  0  0  0
  139.3141   67.6669  226.5175 H   0  0  0  0  0  0  0  0  0  0  0  0
  140.2459   68.1888  228.7764 H   0  0  0  0  0  0  0  0  0  0  0  0
  141.3819   70.3726  229.1926 H   0  0  0  0  0  0  0  0  0  0  0  0
  141.5845   72.0511  227.3545 H   0  0  0  0  0  0  0  0  0  0  0  0
  140.0964   80.7504  224.2879 H   0  0  0  0  0  0  0  0  0  0  0  0
  140.0155   81.2155  221.6075 H   0  0  0  0  0  0  0  0  0  0  0  0
  140.8865   82.3521  222.6462 H   0  0  0  0  0  0  0  0  0  0  0  0
  141.9518   80.2519  220.7598 H   0  0  0  0  0  0  0  0  0  0  0  0
  142.6944   81.7926  221.2334 H   0  0  0  0  0  0  0  0  0  0  0  0
  143.2780   79.1750  222.2827 H   0  0  0  0  0  0  0  0  0  0  0  0
  143.9221   80.7181  222.8856 H   0  0  0  0  0  0  0  0  0  0  0  0
  142.1885   79.0059  224.3026 H   0  0  0  0  0  0  0  0  0  0  0  0
  142.4562   80.7115  224.7038 H   0  0  0  0  0  0  0  0  0  0  0  0
  1  2  1  0
  2  3  1  0
  2  4  1  0
  4  5  1  0
  5  6  1  0
  6  7  1  0
  7  8  1  0
  7  9  2  0
  9 10  1  0
 10 11  1  0
 11 12  2  0
 11 13  1  0
 13 14  2  0
 14 15  1  0
 15 16  2  0
 16 17  1  0
 17 18  2  0
 18 19  1  0
 19 20  2  0
 20 21  1  0
 21 22  2  0
  5 23  1  0
 23 24  2  0
 23 25  1  0
 25 26  1  0
 26 27  1  0
 27 28  1  0
 28 29  1  0
 29 30  1  0
 22 13  1  0
 30 26  1  0
 21 16  1  0
  1 31  1  0
  1 32  1  0
  1 33  1  0
  2 34  1  0
  3 35  1  0
  3 36  1  0
  3 37  1  0
  4 38  1  0
  4 39  1  0
  5 40  1  1
  6 41  1  0
  8 42  1  0
  9 43  1  0
 10 44  1  0
 14 45  1  0
 15 46  1  0
 17 47  1  0
 18 48  1  0
 19 49  1  0
 20 50  1  0
 26 51  1  0
 27 52  1  0
 27 53  1  0
 28 54  1  0
 28 55  1  0
 29 56  1  0
 29 57  1  0
 30 58  1  0
 30 59  1  0
M  CHG  1  25  -1
M  END
>  <meeko>  (4) 
{"free_energy": -7.75, "intermolecular_energy": -11.03, "internal_energy": -2.54, "cluster_size": 15, "cluster_id": 1, "rank_in_cluster": 3}

$$$$

     RDKit          3D

 59 61  0  0  0  0  0  0  0  0999 V2000
  141.8220   78.5080  219.3470 C   0  0  0  0  0  0  0  0  0  0  0  0
  142.9190   77.6800  218.6640 C   0  0  0  0  0  0  0  0  0  0  0  0
  142.6160   77.4910  217.1720 C   0  0  0  0  0  0  0  0  0  0  0  0
  143.2220   76.3480  219.4010 C   0  0  0  0  0  0  0  0  0  0  0  0
  142.3590   75.1210  219.0140 C   0  0  2  0  0  0  0  0  0  0  0  0
  141.9150   74.4270  220.2250 N   0  0  0  0  0  0  0  0  0  0  0  0
  140.9280   75.0050  221.0900 C   0  0  0  0  0  0  0  0  0  0  0  0
  141.2250   76.2010  221.7460 O   0  0  0  0  0  0  0  0  0  0  0  0
  139.7300   74.4250  221.2730 C   0  0  0  0  0  0  0  0  0  0  0  0
  139.4920   73.4580  222.3100 N   0  0  0  0  0  0  0  0  0  0  0  0
  140.3250   72.2980  222.4680 C   0  0  0  0  0  0  0  0  0  0  0  0
  141.1890   72.0190  221.5910 O   0  0  0  0  0  0  0  0  0  0  0  0
  140.1850   71.4350  223.6620 C   0  0  0  0  0  0  0  0  0  0  0  0
  139.5870   70.1650  223.5750 C   0  0  0  0  0  0  0  0  0  0  0  0
  139.5010   69.3600  224.7140 C   0  0  0  0  0  0  0  0  0  0  0  0
  140.0060   69.8220  225.9360 C   0  0  0  0  0  0  0  0  0  0  0  0
  139.9420   69.0380  227.0970 C   0  0  0  0  0  0  0  0  0  0  0  0
  140.4620   69.5290  228.3010 C   0  0  0  0  0  0  0  0  0  0  0  0
  141.0470   70.8000  228.3500 C   0  0  0  0  0  0  0  0  0  0  0  0
  141.1130   71.5870  227.1960 C   0  0  0  0  0  0  0  0  0  0  0  0
  140.5940   71.1050  225.9880 C   0  0  0  0  0  0  0  0  0  0  0  0
  140.6640   71.8640  224.8630 N   0  0  0  0  0  0  0  0  0  0  0  0
  143.1270   74.1440  218.1680 C   0  0  0  0  0  0  0  0  0  0  0  0
  143.6910   74.5340  217.1100 O   0  0  0  0  0  0  0  0  0  0  0  0
  143.1610   72.7600  218.5410 N   0  0  0  0  0  0  0  0  0  0  0  0
  144.3660   72.0700  218.9960 C   0  0  0  0  0  0  0  0  0  0  0  0
  144.2520   71.7800  220.4840 C   0  0  0  0  0  0  0  0  0  0  0  0
  144.7610   73.0310  221.1870 C   0  0  0  0  0  0  0  0  0  0  0  0
  145.6720   73.7480  220.1920 C   0  0  0  0  0  0  0  0  0  0  0  0
  145.5850   72.9780  218.8760 C   0  0  0  0  0  0  0  0  0  0  0  0
  141.9283   78.4278  220.4389 H   0  0  0  0  0  0  0  0  0  0  0  0
  141.9168   79.5617  219.0458 H   0  0  0  0  0  0  0  0  0  0  0  0
  140.8347   78.1280  219.0458 H   0  0  0  0  0  0  0  0  0  0  0  0
  143.8537   78.2559  218.7327 H   0  0  0  0  0  0  0  0  0  0  0  0
  141.6878   76.9120  217.0568 H   0  0  0  0  0  0  0  0  0  0  0  0
  142.4961   78.4748  216.6947 H   0  0  0  0  0  0  0  0  0  0  0  0
  143.4468   76.9507  216.6947 H   0  0  0  0  0  0  0  0  0  0  0  0
  144.2731   76.0906  219.2036 H   0  0  0  0  0  0  0  0  0  0  0  0
  142.9846   76.5441  220.4570 H   0  0  0  0  0  0  0  0  0  0  0  0
  141.4999   75.4936  218.4368 H   0  0  0  0  0  0  0  0  0  0  0  0
  142.2510   73.4550  220.4130 H   0  0  0  0  0  0  0  0  0  0  0  0
  142.1730   76.4610  221.9880 H   0  0  0  0  0  0  0  0  0  0  0  0
  138.9007   74.7001  220.6048 H   0  0  0  0  0  0  0  0  0  0  0  0
  138.7600   73.6420  223.0320 H   0  0  0  0  0  0  0  0  0  0  0  0
  139.1886   69.8068  222.6143 H   0  0  0  0  0  0  0  0  0  0  0  0
  139.0372   68.3646  224.6509 H   0  0  0  0  0  0  0  0  0  0  0  0
  139.4839   68.0386  227.0620 H   0  0  0  0  0  0  0  0  0  0  0  0
  140.4107   68.9139  229.2115 H   0  0  0  0  0  0  0  0  0  0  0  0
  141.4554   71.1802  229.2980 H   0  0  0  0  0  0  0  0  0  0  0  0
  141.5729   72.5854  227.2372 H   0  0  0  0  0  0  0  0  0  0  0  0
  144.4698   71.1608  218.3857 H   0  0  0  0  0  0  0  0  0  0  0  0
  143.2045   71.5854  220.7578 H   0  0  0  0  0  0  0  0  0  0  0  0
  144.8308   70.8894  220.7699 H   0  0  0  0  0  0  0  0  0  0  0  0
  143.9177   73.6799  221.4658 H   0  0  0  0  0  0  0  0  0  0  0  0
  145.3028   72.7759  222.1097 H   0  0  0  0  0  0  0  0  0  0  0  0
  145.3325   74.7842  220.0471 H   0  0  0  0  0  0  0  0  0  0  0  0
  146.7079   73.7819  220.5605 H   0  0  0  0  0  0  0  0  0  0  0  0
  145.4605   73.6746  218.0338 H   0  0  0  0  0  0  0  0  0  0  0  0
  146.5008   72.3980  218.6889 H   0  0  0  0  0  0  0  0  0  0  0  0
  1  2  1  0
  2  3  1  0
  2  4  1  0
  4  5  1  0
  5  6  1  0
  6  7  1  0
  7  8  1  0
  7  9  2  0
  9 10  1  0
 10 11  1  0
 11 12  2  0
 11 13  1  0
 13 14  2  0
 14 15  1  0
 15 16  2  0
 16 17  1  0
 17 18  2  0
 18 19  1  0
 19 20  2  0
 20 21  1  0
 21 22  2  0
  5 23  1  0
 23 24  2  0
 23 25  1  0
 25 26  1  0
 26 27  1  0
 27 28  1  0
 28 29  1  0
 29 30  1  0
 22 13  1  0
 30 26  1  0
 21 16  1  0
  1 31  1  0
  1 32  1  0
  1 33  1  0
  2 34  1  0
  3 35  1  0
  3 36  1  0
  3 37  1  0
  4 38  1  0
  4 39  1  0
  5 40  1  6
  6 41  1  0
  8 42  1  0
  9 43  1  0
 10 44  1  0
 14 45  1  0
 15 46  1  0
 17 47  1  0
 18 48  1  0
 19 49  1  0
 20 50  1  0
 26 51  1  0
 27 52  1  0
 27 53  1  0
 28 54  1  0
 28 55  1  0
 29 56  1  0
 29 57  1  0
 30 58  1  0
 30 59  1  0
M  CHG  1  25  -1
M  END
>  <meeko>  (5) 
{"free_energy": -6.85, "intermolecular_energy": -10.13, "internal_energy": -3.4, "cluster_size": 3, "cluster_id": 2, "rank_in_cluster": 3}

$$$$

     RDKit          3D

 59 61  0  0  0  0  0  0  0  0999 V2000
  141.6980   78.6630  219.7070 C   0  0  0  0  0  0  0  0  0  0  0  0
  141.8610   77.3190  220.4290 C   0  0  0  0  0  0  0  0  0  0  0  0
  142.8900   76.4330  219.7150 C   0  0  0  0  0  0  0  0  0  0  0  0
  140.5100   76.6010  220.6900 C   0  0  0  0  0  0  0  0  0  0  0  0
  140.0470   76.4950  222.1650 C   0  0  2  0  0  0  0  0  0  0  0  0
  139.2800   75.2610  222.3540 N   0  0  0  0  0  0  0  0  0  0  0  0
  138.3880   74.7800  221.3400 C   0  0  0  0  0  0  0  0  0  0  0  0
  137.5150   75.6820  220.7280 O   0  0  0  0  0  0  0  0  0  0  0  0
  138.3830   73.4900  220.9670 C   0  0  0  0  0  0  0  0  0  0  0  0
  138.5310   72.4140  221.9090 N   0  0  0  0  0  0  0  0  0  0  0  0
  139.7010   72.2880  222.7340 C   0  0  0  0  0  0  0  0  0  0  0  0
  140.6990   73.0340  222.5290 O   0  0  0  0  0  0  0  0  0  0  0  0
  139.7360   71.2980  223.8340 C   0  0  0  0  0  0  0  0  0  0  0  0
  139.2320   69.9970  223.6570 C   0  0  0  0  0  0  0  0  0  0  0  0
  139.3110   69.0750  224.7040 C   0  0  0  0  0  0  0  0  0  0  0  0
  139.8870   69.4510  225.9230 C   0  0  0  0  0  0  0  0  0  0  0  0
  139.9880   68.5490  226.9930 C   0  0  0  0  0  0  0  0  0  0  0  0
  140.5760   68.9570  228.1970 C   0  0  0  0  0  0  0  0  0  0  0  0
  141.0630   70.2600  228.3370 C   0  0  0  0  0  0  0  0  0  0  0  0
  140.9650   71.1650  227.2750 C   0  0  0  0  0  0  0  0  0  0  0  0
  140.3770   70.7670  226.0680 C   0  0  0  0  0  0  0  0  0  0  0  0
  140.2870   71.6410  225.0310 N   0  0  0  0  0  0  0  0  0  0  0  0
  139.1760   77.6550  222.5600 C   0  0  0  0  0  0  0  0  0  0  0  0
  137.9540   77.4670  222.8120 O   0  0  0  0  0  0  0  0  0  0  0  0
  139.7280   78.9770  222.5910 N   0  0  0  0  0  0  0  0  0  0  0  0
  140.4890   79.5140  223.7170 C   0  0  0  0  0  0  0  0  0  0  0  0
  140.8460   80.9650  223.4400 C   0  0  0  0  0  0  0  0  0  0  0  0
  142.1440   80.9250  222.6450 C   0  0  0  0  0  0  0  0  0  0  0  0
  142.8090   79.5880  222.9660 C   0  0  0  0  0  0  0  0  0  0  0  0
  141.8340   78.8070  223.8440 C   0  0  0  0  0  0  0  0  0  0  0  0
  141.6003   79.4686  220.4496 H   0  0  0  0  0  0  0  0  0  0  0  0
  142.5800   78.8501  219.0769 H   0  0  0  0  0  0  0  0  0  0  0  0
  140.7968   78.6338  219.0769 H   0  0  0  0  0  0  0  0  0  0  0  0
  142.2604   77.5333  221.4313 H   0  0  0  0  0  0  0  0  0  0  0  0
  143.5017   75.9063  220.4623 H   0  0  0  0  0  0  0  0  0  0  0  0
  142.3670   75.6981  219.0854 H   0  0  0  0  0  0  0  0  0  0  0  0
  143.5391   77.0593  219.0854 H   0  0  0  0  0  0  0  0  0  0  0  0
  139.7315   77.1455  220.1355 H   0  0  0  0  0  0  0  0  0  0  0  0
  140.6688   75.5626  220.3635 H   0  0  0  0  0  0  0  0  0  0  0  0
  140.9496   76.4975  222.7938 H   0  0  0  0  0  0  0  0  0  0  0  0
  139.4550   74.6720  223.2010 H   0  0  0  0  0  0  0  0  0  0  0  0
  137.3160   76.5920  221.1250 H   0  0  0  0  0  0  0  0  0  0  0  0
  138.2611   73.2475  219.9010 H   0  0  0  0  0  0  0  0  0  0  0  0
  137.7360   71.7580  222.0750 H   0  0  0  0  0  0  0  0  0  0  0  0
  138.7775   69.7065  222.6983 H   0  0  0  0  0  0  0  0  0  0  0  0
  138.9211   68.0551  224.5704 H   0  0  0  0  0  0  0  0  0  0  0  0
  139.6060   67.5230  226.8864 H   0  0  0  0  0  0  0  0  0  0  0  0
  140.6549   68.2495  229.0356 H   0  0  0  0  0  0  0  0  0  0  0  0
  141.5244   70.5743  229.2848 H   0  0  0  0  0  0  0  0  0  0  0  0
  141.3498   72.1893  227.3879 H   0  0  0  0  0  0  0  0  0  0  0  0
  139.8712   79.3859  224.6180 H   0  0  0  0  0  0  0  0  0  0  0  0
  140.0518   81.4502  222.8536 H   0  0  0  0  0  0  0  0  0  0  0  0
  140.9573   81.5407  224.3707 H   0  0  0  0  0  0  0  0  0  0  0  0
  141.9321   80.9950  221.5679 H   0  0  0  0  0  0  0  0  0  0  0  0
  142.7986   81.7683  222.9101 H   0  0  0  0  0  0  0  0  0  0  0  0
  143.0100   79.0330  222.0378 H   0  0  0  0  0  0  0  0  0  0  0  0
  143.7687   79.7394  223.4818 H   0  0  0  0  0  0  0  0  0  0  0  0
  141.7533   77.7676  223.4932 H   0  0  0  0  0  0  0  0  0  0  0  0
  142.1732   78.7747  224.8899 H   0  0  0  0  0  0  0  0  0  0  0  0
  1  2  1  0
  2  3  1  0
  2  4  1  0
  4  5  1  0
  5  6  1  0
  6  7  1  0
  7  8  1  0
  7  9  2  0
  9 10  1  0
 10 11  1  0
 11 12  2  0
 11 13  1  0
 13 14  2  0
 14 15  1  0
 15 16  2  0
 16 17  1  0
 17 18  2  0
 18 19  1  0
 19 20  2  0
 20 21  1  0
 21 22  2  0
  5 23  1  0
 23 24  2  0
 23 25  1  0
 25 26  1  0
 26 27  1  0
 27 28  1  0
 28 29  1  0
 29 30  1  0
 22 13  1  0
 30 26  1  0
 21 16  1  0
  1 31  1  0
  1 32  1  0
  1 33  1  0
  2 34  1  0
  3 35  1  0
  3 36  1  0
  3 37  1  0
  4 38  1  0
  4 39  1  0
  5 40  1  1
  6 41  1  0
  8 42  1  0
  9 43  1  0
 10 44  1  0
 14 45  1  0
 15 46  1  0
 17 47  1  0
 18 48  1  0
 19 49  1  0
 20 50  1  0
 26 51  1  0
 27 52  1  0
 27 53  1  0
 28 54  1  0
 28 55  1  0
 29 56  1  0
 29 57  1  0
 30 58  1  0
 30 59  1  0
M  CHG  1  25  -1
M  END
>  <meeko>  (6) 
{"free_energy": -7.6, "intermolecular_energy": -10.88, "internal_energy": -3.11, "cluster_size": 15, "cluster_id": 1, "rank_in_cluster": 5}

$$$$

     RDKit          3D

 59 61  0  0  0  0  0  0  0  0999 V2000
  142.8450   77.4750  218.6770 C   0  0  0  0  0  0  0  0  0  0  0  0
  141.5380   78.2080  219.0060 C   0  0  0  0  0  0  0  0  0  0  0  0
  141.8120   79.4920  219.7990 C   0  0  0  0  0  0  0  0  0  0  0  0
  140.4780   77.2910  219.6740 C   0  0  0  0  0  0  0  0  0  0  0  0
  140.7880   76.7920  221.1070 C   0  0  2  0  0  0  0  0  0  0  0  0
  140.6670   75.3320  221.1590 N   0  0  0  0  0  0  0  0  0  0  0  0
  141.7410   74.4840  220.7330 C   0  0  0  0  0  0  0  0  0  0  0  0
  142.9780   75.0600  220.4380 O   0  0  0  0  0  0  0  0  0  0  0  0
  141.5830   73.1540  220.6230 C   0  0  0  0  0  0  0  0  0  0  0  0
  141.4680   72.2940  221.7700 N   0  0  0  0  0  0  0  0  0  0  0  0
  140.3960   72.4370  222.7170 C   0  0  0  0  0  0  0  0  0  0  0  0
  139.6220   73.4320  222.6470 O   0  0  0  0  0  0  0  0  0  0  0  0
  140.1860   71.4140  223.7660 C   0  0  0  0  0  0  0  0  0  0  0  0
  139.5350   70.2010  223.4780 C   0  0  0  0  0  0  0  0  0  0  0  0
  139.3820   69.2410  224.4820 C   0  0  0  0  0  0  0  0  0  0  0  0
  139.8720   69.4930  225.7690 C   0  0  0  0  0  0  0  0  0  0  0  0
  139.7420   68.5490  226.7990 C   0  0  0  0  0  0  0  0  0  0  0  0
  140.2480   68.8320  228.0730 C   0  0  0  0  0  0  0  0  0  0  0  0
  140.8860   70.0520  228.3240 C   0  0  0  0  0  0  0  0  0  0  0  0
  141.0190   70.9980  227.3020 C   0  0  0  0  0  0  0  0  0  0  0  0
  140.5130   70.7240  226.0250 C   0  0  0  0  0  0  0  0  0  0  0  0
  140.6480   71.6380  225.0280 N   0  0  0  0  0  0  0  0  0  0  0  0
  139.8430   77.3770  222.1190 C   0  0  0  0  0  0  0  0  0  0  0  0
  139.0050   76.6350  222.7000 O   0  0  0  0  0  0  0  0  0  0  0  0
  139.8610   78.7880  222.3710 N   0  0  0  0  0  0  0  0  0  0  0  0
  140.4050   79.3890  223.5870 C   0  0  0  0  0  0  0  0  0  0  0  0
  140.5140   80.8940  223.4030 C   0  0  0  0  0  0  0  0  0  0  0  0
  141.8640   81.1310  222.7400 C   0  0  0  0  0  0  0  0  0  0  0  0
  142.7310   79.9180  223.0760 C   0  0  0  0  0  0  0  0  0  0  0  0
  141.8400   78.9280  223.8210 C   0  0  0  0  0  0  0  0  0  0  0  0
  143.3513   77.1910  219.6113 H   0  0  0  0  0  0  0  0  0  0  0  0
  142.6211   76.5708  218.0919 H   0  0  0  0  0  0  0  0  0  0  0  0
  143.4997   78.1376  218.0919 H   0  0  0  0  0  0  0  0  0  0  0  0
  141.0844   78.5096  218.0503 H   0  0  0  0  0  0  0  0  0  0  0  0
  141.7656   79.2746  220.8763 H   0  0  0  0  0  0  0  0  0  0  0  0
  142.8118   79.8737  219.5447 H   0  0  0  0  0  0  0  0  0  0  0  0
  141.0551   80.2486  219.5447 H   0  0  0  0  0  0  0  0  0  0  0  0
  139.5320   77.8508  219.7142 H   0  0  0  0  0  0  0  0  0  0  0  0
  140.4513   76.3833  219.0532 H   0  0  0  0  0  0  0  0  0  0  0  0
  141.8120   77.1117  221.3503 H   0  0  0  0  0  0  0  0  0  0  0  0
  139.8210   74.9020  221.6010 H   0  0  0  0  0  0  0  0  0  0  0  0
  143.2920   75.9160  220.8790 H   0  0  0  0  0  0  0  0  0  0  0  0
  141.5400   72.7067  219.6189 H   0  0  0  0  0  0  0  0  0  0  0  0
  142.1150   71.4820  221.8750 H   0  0  0  0  0  0  0  0  0  0  0  0
  139.1478   70.0087  222.4665 H   0  0  0  0  0  0  0  0  0  0  0  0
  138.8773   68.2888  224.2614 H   0  0  0  0  0  0  0  0  0  0  0  0
  139.2431   67.5879  226.6055 H   0  0  0  0  0  0  0  0  0  0  0  0
  140.1437   68.0923  228.8804 H   0  0  0  0  0  0  0  0  0  0  0  0
  141.2836   70.2675  229.3267 H   0  0  0  0  0  0  0  0  0  0  0  0
  141.5207   71.9565  227.5012 H   0  0  0  0  0  0  0  0  0  0  0  0
  139.7413   79.1023  224.4160 H   0  0  0  0  0  0  0  0  0  0  0  0
  139.7009   81.2617  222.7598 H   0  0  0  0  0  0  0  0  0  0  0  0
  140.4332   81.4273  224.3617 H   0  0  0  0  0  0  0  0  0  0  0  0
  141.7418   81.2208  221.6505 H   0  0  0  0  0  0  0  0  0  0  0  0
  142.3260   82.0622  223.0997 H   0  0  0  0  0  0  0  0  0  0  0  0
  143.1151   79.4602  222.1525 H   0  0  0  0  0  0  0  0  0  0  0  0
  143.5948   80.2101  223.6913 H   0  0  0  0  0  0  0  0  0  0  0  0
  141.9838   77.9121  223.4245 H   0  0  0  0  0  0  0  0  0  0  0  0
  142.0822   78.8987  224.8936 H   0  0  0  0  0  0  0  0  0  0  0  0
  1  2  1  0
  2  3  1  0
  2  4  1  0
  4  5  1  0
  5  6  1  0
  6  7  1  0
  7  8  1  0
  7  9  2  0
  9 10  1  0
 10 11  1  0
 11 12  2  0
 11 13  1  0
 13 14  2  0
 14 15  1  0
 15 16  2  0
 16 17  1  0
 17 18  2  0
 18 19  1  0
 19 20  2  0
 20 21  1  0
 21 22  2  0
  5 23  1  0
 23 24  2  0
 23 25  1  0
 25 26  1  0
 26 27  1  0
 27 28  1  0
 28 29  1  0
 29 30  1  0
 22 13  1  0
 30 26  1  0
 21 16  1  0
  1 31  1  0
  1 32  1  0
  1 33  1  0
  2 34  1  0
  3 35  1  0
  3 36  1  0
  3 37  1  0
  4 38  1  0
  4 39  1  0
  5 40  1  1
  6 41  1  0
  8 42  1  0
  9 43  1  0
 10 44  1  0
 14 45  1  0
 15 46  1  0
 17 47  1  0
 18 48  1  0
 19 49  1  0
 20 50  1  0
 26 51  1  0
 27 52  1  0
 27 53  1  0
 28 54  1  0
 28 55  1  0
 29 56  1  0
 29 57  1  0
 30 58  1  0
 30 59  1  0
M  CHG  1  25  -1
M  END
>  <meeko>  (7) 
{"free_energy": -7.45, "intermolecular_energy": -10.73, "internal_energy": -2.97, "cluster_size": 15, "cluster_id": 1, "rank_in_cluster": 8}

$$$$

     RDKit          3D

 59 61  0  0  0  0  0  0  0  0999 V2000
  141.7990   79.7850  219.2760 C   0  0  0  0  0  0  0  0  0  0  0  0
  142.0270   78.2790  219.4590 C   0  0  0  0  0  0  0  0  0  0  0  0
  142.6510   77.6600  218.2010 C   0  0  0  0  0  0  0  0  0  0  0  0
  140.7600   77.5270  219.9480 C   0  0  0  0  0  0  0  0  0  0  0  0
  140.8400   76.8550  221.3410 C   0  0  2  0  0  0  0  0  0  0  0  0
  140.6690   75.4060  221.2020 N   0  0  0  0  0  0  0  0  0  0  0  0
  141.7500   74.5720  220.7660 C   0  0  0  0  0  0  0  0  0  0  0  0
  142.9720   75.1650  220.4450 O   0  0  0  0  0  0  0  0  0  0  0  0
  141.6120   73.2380  220.6710 C   0  0  0  0  0  0  0  0  0  0  0  0
  141.4920   72.3910  221.8270 N   0  0  0  0  0  0  0  0  0  0  0  0
  140.3680   72.4860  222.7190 C   0  0  0  0  0  0  0  0  0  0  0  0
  139.5410   73.4310  222.5930 O   0  0  0  0  0  0  0  0  0  0  0  0
  140.1670   71.4690  223.7760 C   0  0  0  0  0  0  0  0  0  0  0  0
  139.4960   70.2630  223.5060 C   0  0  0  0  0  0  0  0  0  0  0  0
  139.3520   69.3090  224.5170 C   0  0  0  0  0  0  0  0  0  0  0  0
  139.8720   69.5600  225.7930 C   0  0  0  0  0  0  0  0  0  0  0  0
  139.7510   68.6210  226.8290 C   0  0  0  0  0  0  0  0  0  0  0  0
  140.2870   68.9020  228.0910 C   0  0  0  0  0  0  0  0  0  0  0  0
  140.9450   70.1150  228.3240 C   0  0  0  0  0  0  0  0  0  0  0  0
  141.0680   71.0560  227.2960 C   0  0  0  0  0  0  0  0  0  0  0  0
  140.5330   70.7840  226.0310 C   0  0  0  0  0  0  0  0  0  0  0  0
  140.6590   71.6920  225.0270 N   0  0  0  0  0  0  0  0  0  0  0  0
  139.7730   77.3650  222.2690 C   0  0  0  0  0  0  0  0  0  0  0  0
  138.9130   76.5700  222.7380 O   0  0  0  0  0  0  0  0  0  0  0  0
  139.7040   78.7660  222.5670 N   0  0  0  0  0  0  0  0  0  0  0  0
  140.3980   79.3930  223.6900 C   0  0  0  0  0  0  0  0  0  0  0  0
  140.5860   80.8740  223.4050 C   0  0  0  0  0  0  0  0  0  0  0  0
  141.8810   80.9790  222.6100 C   0  0  0  0  0  0  0  0  0  0  0  0
  142.6950   79.7290  222.9400 C   0  0  0  0  0  0  0  0  0  0  0  0
  141.8150   78.8460  223.8220 C   0  0  0  0  0  0  0  0  0  0  0  0
  141.7260   80.2673  220.2619 H   0  0  0  0  0  0  0  0  0  0  0  0
  142.6418   80.2182  218.7174 H   0  0  0  0  0  0  0  0  0  0  0  0
  140.8657   79.9494  218.7174 H   0  0  0  0  0  0  0  0  0  0  0  0
  142.7558   78.1564  220.2738 H   0  0  0  0  0  0  0  0  0  0  0  0
  143.4037   76.9134  218.4944 H   0  0  0  0  0  0  0  0  0  0  0  0
  141.8658   77.1738  217.6034 H   0  0  0  0  0  0  0  0  0  0  0  0
  143.1308   78.4491  217.6034 H   0  0  0  0  0  0  0  0  0  0  0  0
  139.9329   78.2517  219.9753 H   0  0  0  0  0  0  0  0  0  0  0  0
  140.6247   76.6989  219.2367 H   0  0  0  0  0  0  0  0  0  0  0  0
  141.8260   77.0969  221.7643 H   0  0  0  0  0  0  0  0  0  0  0  0
  139.7750   74.9620  221.5130 H   0  0  0  0  0  0  0  0  0  0  0  0
  143.2700   76.0410  220.8570 H   0  0  0  0  0  0  0  0  0  0  0  0
  141.5901   72.7775  219.6723 H   0  0  0  0  0  0  0  0  0  0  0  0
  142.1800   71.6220  221.9800 H   0  0  0  0  0  0  0  0  0  0  0  0
  139.0862   70.0714  222.5033 H   0  0  0  0  0  0  0  0  0  0  0  0
  138.8310   68.3624  224.3109 H   0  0  0  0  0  0  0  0  0  0  0  0
  139.2358   67.6658  226.6495 H   0  0  0  0  0  0  0  0  0  0  0  0
  140.1907   68.1664  228.9031 H   0  0  0  0  0  0  0  0  0  0  0  0
  141.3663   70.3290  229.3173 H   0  0  0  0  0  0  0  0  0  0  0  0
  141.5848   72.0092  227.4815 H   0  0  0  0  0  0  0  0  0  0  0  0
  139.7983   79.1994  224.5916 H   0  0  0  0  0  0  0  0  0  0  0  0
  139.7417   81.2615  222.8159 H   0  0  0  0  0  0  0  0  0  0  0  0
  140.6297   81.4638  224.3325 H   0  0  0  0  0  0  0  0  0  0  0  0
  141.6634   81.0173  221.5324 H   0  0  0  0  0  0  0  0  0  0  0  0
  142.4340   81.8938  222.8694 H   0  0  0  0  0  0  0  0  0  0  0  0
  142.9601   79.1953  222.0154 H   0  0  0  0  0  0  0  0  0  0  0  0
  143.6300   79.9931  223.4559 H   0  0  0  0  0  0  0  0  0  0  0  0
  141.8547   77.8022  223.4772 H   0  0  0  0  0  0  0  0  0  0  0  0
  142.1543   78.8588  224.8683 H   0  0  0  0  0  0  0  0  0  0  0  0
  1  2  1  0
  2  3  1  0
  2  4  1  0
  4  5  1  0
  5  6  1  0
  6  7  1  0
  7  8  1  0
  7  9  2  0
  9 10  1  0
 10 11  1  0
 11 12  2  0
 11 13  1  0
 13 14  2  0
 14 15  1  0
 15 16  2  0
 16 17  1  0
 17 18  2  0
 18 19  1  0
 19 20  2  0
 20 21  1  0
 21 22  2  0
  5 23  1  0
 23 24  2  0
 23 25  1  0
 25 26  1  0
 26 27  1  0
 27 28  1  0
 28 29  1  0
 29 30  1  0
 22 13  1  0
 30 26  1  0
 21 16  1  0
  1 31  1  0
  1 32  1  0
  1 33  1  0
  2 34  1  0
  3 35  1  0
  3 36  1  0
  3 37  1  0
  4 38  1  0
  4 39  1  0
  5 40  1  1
  6 41  1  0
  8 42  1  0
  9 43  1  0
 10 44  1  0
 14 45  1  0
 15 46  1  0
 17 47  1  0
 18 48  1  0
 19 49  1  0
 20 50  1  0
 26 51  1  0
 27 52  1  0
 27 53  1  0
 28 54  1  0
 28 55  1  0
 29 56  1  0
 29 57  1  0
 30 58  1  0
 30 59  1  0
M  CHG  1  25  -1
M  END
>  <meeko>  (8) 
{"free_energy": -7.54, "intermolecular_energy": -10.82, "internal_energy": -3.05, "cluster_size": 15, "cluster_id": 1, "rank_in_cluster": 7}

$$$$

     RDKit          3D

 59 61  0  0  0  0  0  0  0  0999 V2000
  143.2680   75.5970  219.6840 C   0  0  0  0  0  0  0  0  0  0  0  0
  142.2200   75.2360  220.7460 C   0  0  0  0  0  0  0  0  0  0  0  0
  141.9900   73.7200  220.7980 C   0  0  0  0  0  0  0  0  0  0  0  0
  140.9070   76.0510  220.6050 C   0  0  0  0  0  0  0  0  0  0  0  0
  139.9450   76.0430  221.8200 C   0  0  2  0  0  0  0  0  0  0  0  0
  138.6160   75.5980  221.3940 N   0  0  0  0  0  0  0  0  0  0  0  0
  138.3940   74.2570  220.9370 C   0  0  0  0  0  0  0  0  0  0  0  0
  139.0630   73.8160  219.7940 O   0  0  0  0  0  0  0  0  0  0  0  0
  137.5680   73.4220  221.5890 C   0  0  0  0  0  0  0  0  0  0  0  0
  138.0030   72.6180  222.6990 N   0  0  0  0  0  0  0  0  0  0  0  0
  139.2250   71.8630  222.6520 C   0  0  0  0  0  0  0  0  0  0  0  0
  139.8620   71.7620  221.5660 O   0  0  0  0  0  0  0  0  0  0  0  0
  139.7500   71.2140  223.8750 C   0  0  0  0  0  0  0  0  0  0  0  0
  140.6660   71.8760  224.7120 C   0  0  0  0  0  0  0  0  0  0  0  0
  141.1170   71.2510  225.8770 C   0  0  0  0  0  0  0  0  0  0  0  0
  140.6590   69.9680  226.2030 C   0  0  0  0  0  0  0  0  0  0  0  0
  141.0860   69.3140  227.3690 C   0  0  0  0  0  0  0  0  0  0  0  0
  140.6030   68.0340  227.6670 C   0  0  0  0  0  0  0  0  0  0  0  0
  139.6960   67.4050  226.8080 C   0  0  0  0  0  0  0  0  0  0  0  0
  139.2660   68.0510  225.6440 C   0  0  0  0  0  0  0  0  0  0  0  0
  139.7450   69.3310  225.3370 C   0  0  0  0  0  0  0  0  0  0  0  0
  139.3240   69.9650  224.2110 N   0  0  0  0  0  0  0  0  0  0  0  0
  139.8090   77.4080  222.4330 C   0  0  0  0  0  0  0  0  0  0  0  0
  138.6730   77.9510  222.5150 O   0  0  0  0  0  0  0  0  0  0  0  0
  140.9810   78.1090  222.8680 N   0  0  0  0  0  0  0  0  0  0  0  0
  141.6310   79.1640  222.0930 C   0  0  0  0  0  0  0  0  0  0  0  0
  142.9470   79.5400  222.7550 C   0  0  0  0  0  0  0  0  0  0  0  0
  142.5970   80.5910  223.8000 C   0  0  0  0  0  0  0  0  0  0  0  0
  141.2770   81.2210  223.3560 C   0  0  0  0  0  0  0  0  0  0  0  0
  140.8060   80.4460  222.1280 C   0  0  0  0  0  0  0  0  0  0  0  0
  144.1967   75.9169  220.1792 H   0  0  0  0  0  0  0  0  0  0  0  0
  143.4717   74.7172  219.0559 H   0  0  0  0  0  0  0  0  0  0  0  0
  142.8866   76.4156  219.0559 H   0  0  0  0  0  0  0  0  0  0  0  0
  142.6288   75.5332  221.7230 H   0  0  0  0  0  0  0  0  0  0  0  0
  141.9403   73.3924  221.8469 H   0  0  0  0  0  0  0  0  0  0  0  0
  141.0444   73.4750  220.2922 H   0  0  0  0  0  0  0  0  0  0  0  0
  142.8204   73.2056  220.2922 H   0  0  0  0  0  0  0  0  0  0  0  0
  141.1843   77.0969  220.4071 H   0  0  0  0  0  0  0  0  0  0  0  0
  140.3496   75.5601  219.7936 H   0  0  0  0  0  0  0  0  0  0  0  0
  140.3686   75.3579  222.5691 H   0  0  0  0  0  0  0  0  0  0  0  0
  137.7970   76.2380  221.5130 H   0  0  0  0  0  0  0  0  0  0  0  0
  139.5980   72.9560  219.7810 H   0  0  0  0  0  0  0  0  0  0  0  0
  136.5202   73.3507  221.2617 H   0  0  0  0  0  0  0  0  0  0  0  0
  137.4780   72.6520  223.6010 H   0  0  0  0  0  0  0  0  0  0  0  0
  141.0259   72.8820  224.4503 H   0  0  0  0  0  0  0  0  0  0  0  0
  141.8306   71.7655  226.5373 H   0  0  0  0  0  0  0  0  0  0  0  0
  141.7986   69.8059  228.0474 H   0  0  0  0  0  0  0  0  0  0  0  0
  140.9383   67.5210  228.5805 H   0  0  0  0  0  0  0  0  0  0  0  0
  139.3198   66.3997  227.0483 H   0  0  0  0  0  0  0  0  0  0  0  0
  138.5523   67.5542  224.9704 H   0  0  0  0  0  0  0  0  0  0  0  0
  141.7556   78.7844  221.0681 H   0  0  0  0  0  0  0  0  0  0  0  0
  143.4009   78.6597  223.2335 H   0  0  0  0  0  0  0  0  0  0  0  0
  143.6750   79.9212  222.0238 H   0  0  0  0  0  0  0  0  0  0  0  0
  142.4806   80.1210  224.7877 H   0  0  0  0  0  0  0  0  0  0  0  0
  143.3907   81.3479  223.8846 H   0  0  0  0  0  0  0  0  0  0  0  0
  140.5313   81.1435  224.1610 H   0  0  0  0  0  0  0  0  0  0  0  0
  141.4093   82.2875  223.1214 H   0  0  0  0  0  0  0  0  0  0  0  0
  139.7354   80.2085  222.2143 H   0  0  0  0  0  0  0  0  0  0  0  0
  140.9384   81.0336  221.2076 H   0  0  0  0  0  0  0  0  0  0  0  0
  1  2  1  0
  2  3  1  0
  2  4  1  0
  4  5  1  0
  5  6  1  0
  6  7  1  0
  7  8  1  0
  7  9  2  0
  9 10  1  0
 10 11  1  0
 11 12  2  0
 11 13  1  0
 13 14  2  0
 14 15  1  0
 15 16  2  0
 16 17  1  0
 17 18  2  0
 18 19  1  0
 19 20  2  0
 20 21  1  0
 21 22  2  0
  5 23  1  0
 23 24  2  0
 23 25  1  0
 25 26  1  0
 26 27  1  0
 27 28  1  0
 28 29  1  0
 29 30  1  0
 22 13  1  0
 30 26  1  0
 21 16  1  0
  1 31  1  0
  1 32  1  0
  1 33  1  0
  2 34  1  0
  3 35  1  0
  3 36  1  0
  3 37  1  0
  4 38  1  0
  4 39  1  0
  5 40  1  1
  6 41  1  0
  8 42  1  0
  9 43  1  0
 10 44  1  0
 14 45  1  0
 15 46  1  0
 17 47  1  0
 18 48  1  0
 19 49  1  0
 20 50  1  0
 26 51  1  0
 27 52  1  0
 27 53  1  0
 28 54  1  0
 28 55  1  0
 29 56  1  0
 29 57  1  0
 30 58  1  0
 30 59  1  0
M  CHG  1  25  -1
M  END
>  <meeko>  (9) 
{"free_energy": -6.57, "intermolecular_energy": -9.86, "internal_energy": -3.12, "cluster_size": 15, "cluster_id": 1, "rank_in_cluster": 14}

$$$$

     RDKit          3D

 59 61  0  0  0  0  0  0  0  0999 V2000
  135.9370   68.8340  222.9260 C   0  0  0  0  0  0  0  0  0  0  0  0
  136.4150   69.6060  224.1630 C   0  0  0  0  0  0  0  0  0  0  0  0
  135.2950   69.7210  225.2060 C   0  0  0  0  0  0  0  0  0  0  0  0
  137.0690   70.9690  223.8130 C   0  0  0  0  0  0  0  0  0  0  0  0
  138.5640   71.1430  224.1820 C   0  0  2  0  0  0  0  0  0  0  0  0
  139.1930   72.0910  223.2590 N   0  0  0  0  0  0  0  0  0  0  0  0
  138.7230   72.2360  221.9120 C   0  0  0  0  0  0  0  0  0  0  0  0
  138.9580   71.2040  221.0020 O   0  0  0  0  0  0  0  0  0  0  0  0
  138.0590   73.3350  221.5160 C   0  0  0  0  0  0  0  0  0  0  0  0
  138.6320   74.6520  221.5940 N   0  0  0  0  0  0  0  0  0  0  0  0
  140.0470   74.8520  221.7470 C   0  0  0  0  0  0  0  0  0  0  0  0
  140.8020   73.8670  221.9800 O   0  0  0  0  0  0  0  0  0  0  0  0
  140.6270   76.2080  221.6170 C   0  0  0  0  0  0  0  0  0  0  0  0
  140.9860   76.7270  220.3600 C   0  0  0  0  0  0  0  0  0  0  0  0
  141.5000   78.0230  220.2670 C   0  0  0  0  0  0  0  0  0  0  0  0
  141.6590   78.7960  221.4240 C   0  0  0  0  0  0  0  0  0  0  0  0
  142.1660   80.1030  221.3670 C   0  0  0  0  0  0  0  0  0  0  0  0
  142.3060   80.8500  222.5420 C   0  0  0  0  0  0  0  0  0  0  0  0
  141.9420   80.2980  223.7750 C   0  0  0  0  0  0  0  0  0  0  0  0
  141.4380   78.9950  223.8410 C   0  0  0  0  0  0  0  0  0  0  0  0
  141.2950   78.2410  222.6700 C   0  0  0  0  0  0  0  0  0  0  0  0
  140.7970   76.9770  222.7280 N   0  0  0  0  0  0  0  0  0  0  0  0
  139.3130   69.8430  224.1020 C   0  0  0  0  0  0  0  0  0  0  0  0
  139.5830   69.3400  222.9770 O   0  0  0  0  0  0  0  0  0  0  0  0
  139.6640   69.1530  225.3080 N   0  0  0  0  0  0  0  0  0  0  0  0
  140.9250   69.3500  226.0200 C   0  0  0  0  0  0  0  0  0  0  0  0
  140.6850   69.2360  227.5170 C   0  0  0  0  0  0  0  0  0  0  0  0
  140.2660   70.6280  227.9730 C   0  0  0  0  0  0  0  0  0  0  0  0
  140.8170   71.6070  226.9370 C   0  0  0  0  0  0  0  0  0  0  0  0
  141.4400   70.7710  225.8220 C   0  0  0  0  0  0  0  0  0  0  0  0
  135.3827   67.9387  223.2441 H   0  0  0  0  0  0  0  0  0  0  0  0
  135.2792   69.4777  222.3236 H   0  0  0  0  0  0  0  0  0  0  0  0
  136.8065   68.5321  222.3236 H   0  0  0  0  0  0  0  0  0  0  0  0
  137.2237   69.0186  224.6224 H   0  0  0  0  0  0  0  0  0  0  0  0
  135.7285   69.6765  226.2160 H   0  0  0  0  0  0  0  0  0  0  0  0
  134.7686   70.6779  225.0748 H   0  0  0  0  0  0  0  0  0  0  0  0
  134.5851   68.8910  225.0748 H   0  0  0  0  0  0  0  0  0  0  0  0
  136.9756   71.1135  222.7265 H   0  0  0  0  0  0  0  0  0  0  0  0
  136.5338   71.7101  224.4249 H   0  0  0  0  0  0  0  0  0  0  0  0
  138.6054   71.5141  225.2167 H   0  0  0  0  0  0  0  0  0  0  0  0
  139.9330   72.7390  223.6130 H   0  0  0  0  0  0  0  0  0  0  0  0
  139.2010   70.2670  221.3010 H   0  0  0  0  0  0  0  0  0  0  0  0
  137.0398   73.2234  221.1176 H   0  0  0  0  0  0  0  0  0  0  0  0
  138.0280   75.4890  221.4410 H   0  0  0  0  0  0  0  0  0  0  0  0
  140.8627   76.1153  219.4541 H   0  0  0  0  0  0  0  0  0  0  0  0
  141.7794   78.4356  219.2863 H   0  0  0  0  0  0  0  0  0  0  0  0
  142.4532   80.5402  220.3994 H   0  0  0  0  0  0  0  0  0  0  0  0
  142.7036   81.8746  222.4961 H   0  0  0  0  0  0  0  0  0  0  0  0
  142.0525   80.8905  224.6952 H   0  0  0  0  0  0  0  0  0  0  0  0
  141.1542   78.5630  224.8120 H   0  0  0  0  0  0  0  0  0  0  0  0
  141.6337   68.6002  225.6385 H   0  0  0  0  0  0  0  0  0  0  0  0
  139.8866   68.5080  227.7233 H   0  0  0  0  0  0  0  0  0  0  0  0
  141.5835   68.8876  228.0475 H   0  0  0  0  0  0  0  0  0  0  0  0
  139.1692   70.6993  228.0179 H   0  0  0  0  0  0  0  0  0  0  0  0
  140.6539   70.8514  228.9778 H   0  0  0  0  0  0  0  0  0  0  0  0
  140.0037   72.2285  226.5341 H   0  0  0  0  0  0  0  0  0  0  0  0
  141.5623   72.2785  227.3881 H   0  0  0  0  0  0  0  0  0  0  0  0
  141.1311   71.1554  224.8387 H   0  0  0  0  0  0  0  0  0  0  0  0
  142.5388   70.8086  225.8579 H   0  0  0  0  0  0  0  0  0  0  0  0
  1  2  1  0
  2  3  1  0
  2  4  1  0
  4  5  1  0
  5  6  1  0
  6  7  1  0
  7  8  1  0
  7  9  2  0
  9 10  1  0
 10 11  1  0
 11 12  2  0
 11 13  1  0
 13 14  2  0
 14 15  1  0
 15 16  2  0
 16 17  1  0
 17 18  2  0
 18 19  1  0
 19 20  2  0
 20 21  1  0
 21 22  2  0
  5 23  1  0
 23 24  2  0
 23 25  1  0
 25 26  1  0
 26 27  1  0
 27 28  1  0
 28 29  1  0
 29 30  1  0
 22 13  1  0
 30 26  1  0
 21 16  1  0
  1 31  1  0
  1 32  1  0
  1 33  1  0
  2 34  1  0
  3 35  1  0
  3 36  1  0
  3 37  1  0
  4 38  1  0
  4 39  1  0
  5 40  1  1
  6 41  1  0
  8 42  1  0
  9 43  1  0
 10 44  1  0
 14 45  1  0
 15 46  1  0
 17 47  1  0
 18 48  1  0
 19 49  1  0
 20 50  1  0
 26 51  1  0
 27 52  1  0
 27 53  1  0
 28 54  1  0
 28 55  1  0
 29 56  1  0
 29 57  1  0
 30 58  1  0
 30 59  1  0
M  CHG  1  25  -1
M  END
>  <meeko>  (10) 
{"free_energy": -6.52, "intermolecular_energy": -9.81, "internal_energy": -2.86, "cluster_size": 2, "cluster_id": 3, "rank_in_cluster": 1}

$$$$

     RDKit          3D

 59 61  0  0  0  0  0  0  0  0999 V2000
  141.0850   69.6580  226.7630 C   0  0  0  0  0  0  0  0  0  0  0  0
  141.1220   71.1360  226.3510 C   0  0  0  0  0  0  0  0  0  0  0  0
  141.1730   72.0490  227.5820 C   0  0  0  0  0  0  0  0  0  0  0  0
  139.9980   71.5160  225.3510 C   0  0  0  0  0  0  0  0  0  0  0  0
  140.2260   71.1410  223.8650 C   0  0  2  0  0  0  0  0  0  0  0  0
  140.1690   72.3490  223.0370 N   0  0  0  0  0  0  0  0  0  0  0  0
  140.6670   72.3490  221.6930 C   0  0  0  0  0  0  0  0  0  0  0  0
  140.1640   71.4130  220.7880 O   0  0  0  0  0  0  0  0  0  0  0  0
  141.5970   73.2320  221.2900 C   0  0  0  0  0  0  0  0  0  0  0  0
  141.4800   74.6430  221.5410 N   0  0  0  0  0  0  0  0  0  0  0  0
  140.2210   75.2480  221.8820 C   0  0  0  0  0  0  0  0  0  0  0  0
  139.1570   74.5720  221.8080 O   0  0  0  0  0  0  0  0  0  0  0  0
  140.1680   76.6560  222.3360 C   0  0  0  0  0  0  0  0  0  0  0  0
  138.9430   77.2740  222.6440 C   0  0  0  0  0  0  0  0  0  0  0  0
  138.9290   78.5940  223.1020 C   0  0  0  0  0  0  0  0  0  0  0  0
  140.1320   79.2950  223.2490 C   0  0  0  0  0  0  0  0  0  0  0  0
  140.1550   80.6190  223.7130 C   0  0  0  0  0  0  0  0  0  0  0  0
  141.3770   81.2880  223.8530 C   0  0  0  0  0  0  0  0  0  0  0  0
  142.5750   80.6420  223.5330 C   0  0  0  0  0  0  0  0  0  0  0  0
  142.5600   79.3230  223.0700 C   0  0  0  0  0  0  0  0  0  0  0  0
  141.3430   78.6460  222.9240 C   0  0  0  0  0  0  0  0  0  0  0  0
  141.3240   77.3610  222.4820 N   0  0  0  0  0  0  0  0  0  0  0  0
  139.1830   70.1810  223.3650 C   0  0  0  0  0  0  0  0  0  0  0  0
  139.1310   69.0100  223.8320 O   0  0  0  0  0  0  0  0  0  0  0  0
  138.2930   70.5850  222.3170 N   0  0  0  0  0  0  0  0  0  0  0  0
  136.8600   70.8010  222.5060 C   0  0  0  0  0  0  0  0  0  0  0  0
  136.2540   71.3330  221.2170 C   0  0  0  0  0  0  0  0  0  0  0  0
  136.4390   72.8440  221.2680 C   0  0  0  0  0  0  0  0  0  0  0  0
  136.5840   73.2130  222.7440 C   0  0  0  0  0  0  0  0  0  0  0  0
  136.6110   71.9040  223.5290 C   0  0  0  0  0  0  0  0  0  0  0  0
  141.0831   69.5832  227.8605 H   0  0  0  0  0  0  0  0  0  0  0  0
  140.1748   69.1882  226.3619 H   0  0  0  0  0  0  0  0  0  0  0  0
  141.9706   69.1433  226.3619 H   0  0  0  0  0  0  0  0  0  0  0  0
  142.0565   71.2964  225.7934 H   0  0  0  0  0  0  0  0  0  0  0  0
  141.1388   71.4361  228.4948 H   0  0  0  0  0  0  0  0  0  0  0  0
  142.1052   72.6328  227.5671 H   0  0  0  0  0  0  0  0  0  0  0  0
  140.3117   72.7330  227.5671 H   0  0  0  0  0  0  0  0  0  0  0  0
  139.0756   71.0164  225.6821 H   0  0  0  0  0  0  0  0  0  0  0  0
  139.9595   72.6152  225.3668 H   0  0  0  0  0  0  0  0  0  0  0  0
  141.2134   70.6612  223.7960 H   0  0  0  0  0  0  0  0  0  0  0  0
  139.6730   73.1970  223.3980 H   0  0  0  0  0  0  0  0  0  0  0  0
  139.3360   70.8640  220.9860 H   0  0  0  0  0  0  0  0  0  0  0  0
  142.4799   72.8616  220.7484 H   0  0  0  0  0  0  0  0  0  0  0  0
  142.3380   75.2370  221.5740 H   0  0  0  0  0  0  0  0  0  0  0  0
  137.9998   76.7206  222.5249 H   0  0  0  0  0  0  0  0  0  0  0  0
  137.9740   79.0818  223.3468 H   0  0  0  0  0  0  0  0  0  0  0  0
  139.2147   81.1305  223.9663 H   0  0  0  0  0  0  0  0  0  0  0  0
  141.3946   82.3261  224.2162 H   0  0  0  0  0  0  0  0  0  0  0  0
  143.5317   81.1730  223.6459 H   0  0  0  0  0  0  0  0  0  0  0  0
  143.5043   78.8170  222.8204 H   0  0  0  0  0  0  0  0  0  0  0  0
  136.4259   69.8414  222.8235 H   0  0  0  0  0  0  0  0  0  0  0  0
  136.7761   70.9118  220.3452 H   0  0  0  0  0  0  0  0  0  0  0  0
  135.1935   71.0566  221.1224 H   0  0  0  0  0  0  0  0  0  0  0  0
  137.3428   73.1353  220.7128 H   0  0  0  0  0  0  0  0  0  0  0  0
  135.5859   73.3653  220.8093 H   0  0  0  0  0  0  0  0  0  0  0  0
  137.5192   73.7694  222.9045 H   0  0  0  0  0  0  0  0  0  0  0  0
  135.7513   73.8519  223.0733 H   0  0  0  0  0  0  0  0  0  0  0  0
  137.4197   71.9227  224.2744 H   0  0  0  0  0  0  0  0  0  0  0  0
  135.6682   71.7422  224.0722 H   0  0  0  0  0  0  0  0  0  0  0  0
  1  2  1  0
  2  3  1  0
  2  4  1  0
  4  5  1  0
  5  6  1  0
  6  7  1  0
  7  8  1  0
  7  9  2  0
  9 10  1  0
 10 11  1  0
 11 12  2  0
 11 13  1  0
 13 14  2  0
 14 15  1  0
 15 16  2  0
 16 17  1  0
 17 18  2  0
 18 19  1  0
 19 20  2  0
 20 21  1  0
 21 22  2  0
  5 23  1  0
 23 24  2  0
 23 25  1  0
 25 26  1  0
 26 27  1  0
 27 28  1  0
 28 29  1  0
 29 30  1  0
 22 13  1  0
 30 26  1  0
 21 16  1  0
  1 31  1  0
  1 32  1  0
  1 33  1  0
  2 34  1  0
  3 35  1  0
  3 36  1  0
  3 37  1  0
  4 38  1  0
  4 39  1  0
  5 40  1  1
  6 41  1  0
  8 42  1  0
  9 43  1  0
 10 44  1  0
 14 45  1  0
 15 46  1  0
 17 47  1  0
 18 48  1  0
 19 49  1  0
 20 50  1  0
 26 51  1  0
 27 52  1  0
 27 53  1  0
 28 54  1  0
 28 55  1  0
 29 56  1  0
 29 57  1  0
 30 58  1  0
 30 59  1  0
M  CHG  1  25  -1
M  END
>  <meeko>  (11) 
{"free_energy": -6.25, "intermolecular_energy": -9.53, "internal_energy": -3.67, "cluster_size": 2, "cluster_id": 3, "rank_in_cluster": 2}

$$$$

     RDKit          3D

 59 61  0  0  0  0  0  0  0  0999 V2000
  142.9210   77.0840  218.7270 C   0  0  0  0  0  0  0  0  0  0  0  0
  141.6140   77.8850  218.8020 C   0  0  0  0  0  0  0  0  0  0  0  0
  141.8950   79.3760  219.0280 C   0  0  0  0  0  0  0  0  0  0  0  0
  140.5950   77.2930  219.8120 C   0  0  0  0  0  0  0  0  0  0  0  0
  141.0550   77.1870  221.2880 C   0  0  2  0  0  0  0  0  0  0  0  0
  141.4550   75.8090  221.5820 N   0  0  0  0  0  0  0  0  0  0  0  0
  140.8380   74.7000  220.9150 C   0  0  0  0  0  0  0  0  0  0  0  0
  141.5380   74.0540  219.8940 O   0  0  0  0  0  0  0  0  0  0  0  0
  139.6120   74.2690  221.2580 C   0  0  0  0  0  0  0  0  0  0  0  0
  139.3980   73.3130  222.3110 N   0  0  0  0  0  0  0  0  0  0  0  0
  140.2170   72.1400  222.4440 C   0  0  0  0  0  0  0  0  0  0  0  0
  141.0430   71.8410  221.5370 O   0  0  0  0  0  0  0  0  0  0  0  0
  140.1080   71.2860  223.6490 C   0  0  0  0  0  0  0  0  0  0  0  0
  139.5280   70.0070  223.5840 C   0  0  0  0  0  0  0  0  0  0  0  0
  139.4710   69.2130  224.7320 C   0  0  0  0  0  0  0  0  0  0  0  0
  139.9880   69.6950  225.9410 C   0  0  0  0  0  0  0  0  0  0  0  0
  139.9540   68.9210  227.1110 C   0  0  0  0  0  0  0  0  0  0  0  0
  140.4850   69.4320  228.3010 C   0  0  0  0  0  0  0  0  0  0  0  0
  141.0510   70.7110  228.3290 C   0  0  0  0  0  0  0  0  0  0  0  0
  141.0880   71.4880  227.1670 C   0  0  0  0  0  0  0  0  0  0  0  0
  140.5570   70.9860  225.9720 C   0  0  0  0  0  0  0  0  0  0  0  0
  140.5990   71.7350  224.8380 N   0  0  0  0  0  0  0  0  0  0  0  0
  139.9600   77.5720  222.2430 C   0  0  0  0  0  0  0  0  0  0  0  0
  139.2130   76.6820  222.7350 O   0  0  0  0  0  0  0  0  0  0  0  0
  139.7330   78.9560  222.5400 N   0  0  0  0  0  0  0  0  0  0  0  0
  140.4550   79.6940  223.5740 C   0  0  0  0  0  0  0  0  0  0  0  0
  140.7850   81.0880  223.0650 C   0  0  0  0  0  0  0  0  0  0  0  0
  142.1010   80.9510  222.3120 C   0  0  0  0  0  0  0  0  0  0  0  0
  142.7900   79.7040  222.8660 C   0  0  0  0  0  0  0  0  0  0  0  0
  141.8130   79.0550  223.8440 C   0  0  0  0  0  0  0  0  0  0  0  0
  143.2765   76.8662  219.7449 H   0  0  0  0  0  0  0  0  0  0  0  0
  142.7423   76.1401  218.1912 H   0  0  0  0  0  0  0  0  0  0  0  0
  143.6810   77.6717  218.1912 H   0  0  0  0  0  0  0  0  0  0  0  0
  141.1199   77.7953  217.8233 H   0  0  0  0  0  0  0  0  0  0  0  0
  141.9339   79.5822  220.1078 H   0  0  0  0  0  0  0  0  0  0  0  0
  142.8589   79.6411  218.5691 H   0  0  0  0  0  0  0  0  0  0  0  0
  141.0937   79.9738  218.5691 H   0  0  0  0  0  0  0  0  0  0  0  0
  139.6964   77.9269  219.7882 H   0  0  0  0  0  0  0  0  0  0  0  0
  140.4357   76.2549  219.4850 H   0  0  0  0  0  0  0  0  0  0  0  0
  141.8999   77.8792  221.4187 H   0  0  0  0  0  0  0  0  0  0  0  0
  142.2670   75.6340  222.2190 H   0  0  0  0  0  0  0  0  0  0  0  0
  141.5750   73.0450  219.8210 H   0  0  0  0  0  0  0  0  0  0  0  0
  138.7406   74.6617  220.7135 H   0  0  0  0  0  0  0  0  0  0  0  0
  138.6970   73.5140  223.0580 H   0  0  0  0  0  0  0  0  0  0  0  0
  139.1207   69.6330  222.6331 H   0  0  0  0  0  0  0  0  0  0  0  0
  139.0206   68.2105  224.6864 H   0  0  0  0  0  0  0  0  0  0  0  0
  139.5108   67.9144  227.0930 H   0  0  0  0  0  0  0  0  0  0  0  0
  140.4571   68.8253  229.2181 H   0  0  0  0  0  0  0  0  0  0  0  0
  141.4678   71.1063  229.2671 H   0  0  0  0  0  0  0  0  0  0  0  0
  141.5340   72.4932  227.1914 H   0  0  0  0  0  0  0  0  0  0  0  0
  139.8189   79.7014  224.4714 H   0  0  0  0  0  0  0  0  0  0  0  0
  139.9933   81.4477  222.3913 H   0  0  0  0  0  0  0  0  0  0  0  0
  140.8622   81.8131  223.8886 H   0  0  0  0  0  0  0  0  0  0  0  0
  141.9120   80.8339  221.2347 H   0  0  0  0  0  0  0  0  0  0  0  0
  142.7294   81.8442  222.4433 H   0  0  0  0  0  0  0  0  0  0  0  0
  143.0256   79.0071  222.0482 H   0  0  0  0  0  0  0  0  0  0  0  0
  143.7336   79.9654  223.3672 H   0  0  0  0  0  0  0  0  0  0  0  0
  141.7650   77.9697  223.6715 H   0  0  0  0  0  0  0  0  0  0  0  0
  142.1282   79.2077  224.8868 H   0  0  0  0  0  0  0  0  0  0  0  0
  1  2  1  0
  2  3  1  0
  2  4  1  0
  4  5  1  0
  5  6  1  0
  6  7  1  0
  7  8  1  0
  7  9  2  0
  9 10  1  0
 10 11  1  0
 11 12  2  0
 11 13  1  0
 13 14  2  0
 14 15  1  0
 15 16  2  0
 16 17  1  0
 17 18  2  0
 18 19  1  0
 19 20  2  0
 20 21  1  0
 21 22  2  0
  5 23  1  0
 23 24  2  0
 23 25  1  0
 25 26  1  0
 26 27  1  0
 27 28  1  0
 28 29  1  0
 29 30  1  0
 22 13  1  0
 30 26  1  0
 21 16  1  0
  1 31  1  0
  1 32  1  0
  1 33  1  0
  2 34  1  0
  3 35  1  0
  3 36  1  0
  3 37  1  0
  4 38  1  0
  4 39  1  0
  5 40  1  6
  6 41  1  0
  8 42  1  0
  9 43  1  0
 10 44  1  0
 14 45  1  0
 15 46  1  0
 17 47  1  0
 18 48  1  0
 19 49  1  0
 20 50  1  0
 26 51  1  0
 27 52  1  0
 27 53  1  0
 28 54  1  0
 28 55  1  0
 29 56  1  0
 29 57  1  0
 30 58  1  0
 30 59  1  0
M  CHG  1  25  -1
M  END
>  <meeko>  (12) 
{"free_energy": -7.87, "intermolecular_energy": -11.15, "internal_energy": -2.56, "cluster_size": 15, "cluster_id": 1, "rank_in_cluster": 2}

$$$$

     RDKit          3D

 59 61  0  0  0  0  0  0  0  0999 V2000
  141.8410   79.6090  219.2520 C   0  0  0  0  0  0  0  0  0  0  0  0
  142.0880   78.1170  219.5090 C   0  0  0  0  0  0  0  0  0  0  0  0
  142.7690   77.4560  218.3030 C   0  0  0  0  0  0  0  0  0  0  0  0
  140.8170   77.3630  219.9840 C   0  0  0  0  0  0  0  0  0  0  0  0
  140.8630   76.7370  221.4000 C   0  0  2  0  0  0  0  0  0  0  0  0
  140.6730   75.2870  221.3060 N   0  0  0  0  0  0  0  0  0  0  0  0
  141.7220   74.4320  220.8330 C   0  0  0  0  0  0  0  0  0  0  0  0
  142.9570   74.9970  220.5080 O   0  0  0  0  0  0  0  0  0  0  0  0
  141.5420   73.1070  220.7060 C   0  0  0  0  0  0  0  0  0  0  0  0
  141.4440   72.2300  221.8410 N   0  0  0  0  0  0  0  0  0  0  0  0
  140.3640   72.3310  222.7830 C   0  0  0  0  0  0  0  0  0  0  0  0
  139.5620   73.3050  222.7200 O   0  0  0  0  0  0  0  0  0  0  0  0
  140.1750   71.2910  223.8190 C   0  0  0  0  0  0  0  0  0  0  0  0
  139.5300   70.0770  223.5200 C   0  0  0  0  0  0  0  0  0  0  0  0
  139.3980   69.1010  224.5110 C   0  0  0  0  0  0  0  0  0  0  0  0
  139.9040   69.3360  225.7950 C   0  0  0  0  0  0  0  0  0  0  0  0
  139.7950   68.3750  226.8120 C   0  0  0  0  0  0  0  0  0  0  0  0
  140.3170   68.6420  228.0830 C   0  0  0  0  0  0  0  0  0  0  0  0
  140.9490   69.8620  228.3440 C   0  0  0  0  0  0  0  0  0  0  0  0
  141.0600   70.8250  227.3360 C   0  0  0  0  0  0  0  0  0  0  0  0
  140.5390   70.5680  226.0620 C   0  0  0  0  0  0  0  0  0  0  0  0
  140.6540   71.4980  225.0770 N   0  0  0  0  0  0  0  0  0  0  0  0
  139.7880   77.2940  222.2910 C   0  0  0  0  0  0  0  0  0  0  0  0
  138.8980   76.5300  222.7560 O   0  0  0  0  0  0  0  0  0  0  0  0
  139.7480   78.7010  222.5580 N   0  0  0  0  0  0  0  0  0  0  0  0
  140.4240   79.3340  223.6890 C   0  0  0  0  0  0  0  0  0  0  0  0
  140.5980   80.8180  223.4080 C   0  0  0  0  0  0  0  0  0  0  0  0
  141.8990   80.9390  222.6260 C   0  0  0  0  0  0  0  0  0  0  0  0
  142.7240   79.6980  222.9600 C   0  0  0  0  0  0  0  0  0  0  0  0
  141.8460   78.8030  223.8320 C   0  0  0  0  0  0  0  0  0  0  0  0
  141.7536   80.1370  220.2130 H   0  0  0  0  0  0  0  0  0  0  0  0
  142.6822   80.0266  218.6794 H   0  0  0  0  0  0  0  0  0  0  0  0
  140.9101   79.7332  218.6794 H   0  0  0  0  0  0  0  0  0  0  0  0
  142.7880   78.0436  220.3544 H   0  0  0  0  0  0  0  0  0  0  0  0
  143.5165   76.7304  218.6562 H   0  0  0  0  0  0  0  0  0  0  0  0
  142.0137   76.9374  217.6942 H   0  0  0  0  0  0  0  0  0  0  0  0
  143.2648   78.2264  217.6942 H   0  0  0  0  0  0  0  0  0  0  0  0
  139.9799   78.0763  219.9628 H   0  0  0  0  0  0  0  0  0  0  0  0
  140.7149   76.5106  219.2963 H   0  0  0  0  0  0  0  0  0  0  0  0
  141.8450   76.9782  221.8330 H   0  0  0  0  0  0  0  0  0  0  0  0
  139.7940   74.8590  221.6770 H   0  0  0  0  0  0  0  0  0  0  0  0
  143.2590   75.8860  220.8890 H   0  0  0  0  0  0  0  0  0  0  0  0
  141.4668   72.6770  219.6963 H   0  0  0  0  0  0  0  0  0  0  0  0
  142.1140   71.4350  221.9420 H   0  0  0  0  0  0  0  0  0  0  0  0
  139.1314   69.8970  222.5107 H   0  0  0  0  0  0  0  0  0  0  0  0
  138.8969   68.1488  224.2825 H   0  0  0  0  0  0  0  0  0  0  0  0
  139.3001   67.4135  226.6106 H   0  0  0  0  0  0  0  0  0  0  0  0
  140.2298   67.8890  228.8801 H   0  0  0  0  0  0  0  0  0  0  0  0
  141.3596   70.0645  229.3442 H   0  0  0  0  0  0  0  0  0  0  0  0
  141.5565   71.7843  227.5440 H   0  0  0  0  0  0  0  0  0  0  0  0
  139.8183   79.1322  224.5848 H   0  0  0  0  0  0  0  0  0  0  0  0
  139.7551   81.1969  222.8113 H   0  0  0  0  0  0  0  0  0  0  0  0
  140.6261   81.4067  224.3368 H   0  0  0  0  0  0  0  0  0  0  0  0
  141.6911   80.9777  221.5465 H   0  0  0  0  0  0  0  0  0  0  0  0
  142.4393   81.8591  222.8935 H   0  0  0  0  0  0  0  0  0  0  0  0
  143.0033   79.1697  222.0365 H   0  0  0  0  0  0  0  0  0  0  0  0
  143.6514   79.9712  223.4847 H   0  0  0  0  0  0  0  0  0  0  0  0
  141.9006   77.7606  223.4851 H   0  0  0  0  0  0  0  0  0  0  0  0
  142.1759   78.8173  224.8813 H   0  0  0  0  0  0  0  0  0  0  0  0
  1  2  1  0
  2  3  1  0
  2  4  1  0
  4  5  1  0
  5  6  1  0
  6  7  1  0
  7  8  1  0
  7  9  2  0
  9 10  1  0
 10 11  1  0
 11 12  2  0
 11 13  1  0
 13 14  2  0
 14 15  1  0
 15 16  2  0
 16 17  1  0
 17 18  2  0
 18 19  1  0
 19 20  2  0
 20 21  1  0
 21 22  2  0
  5 23  1  0
 23 24  2  0
 23 25  1  0
 25 26  1  0
 26 27  1  0
 27 28  1  0
 28 29  1  0
 29 30  1  0
 22 13  1  0
 30 26  1  0
 21 16  1  0
  1 31  1  0
  1 32  1  0
  1 33  1  0
  2 34  1  0
  3 35  1  0
  3 36  1  0
  3 37  1  0
  4 38  1  0
  4 39  1  0
  5 40  1  1
  6 41  1  0
  8 42  1  0
  9 43  1  0
 10 44  1  0
 14 45  1  0
 15 46  1  0
 17 47  1  0
 18 48  1  0
 19 49  1  0
 20 50  1  0
 26 51  1  0
 27 52  1  0
 27 53  1  0
 28 54  1  0
 28 55  1  0
 29 56  1  0
 29 57  1  0
 30 58  1  0
 30 59  1  0
M  CHG  1  25  -1
M  END
>  <meeko>  (13) 
{"free_energy": -7.56, "intermolecular_energy": -10.84, "internal_energy": -3.05, "cluster_size": 15, "cluster_id": 1, "rank_in_cluster": 6}

$$$$

     RDKit          3D

 59 61  0  0  0  0  0  0  0  0999 V2000
  141.8170   78.9230  219.3660 C   0  0  0  0  0  0  0  0  0  0  0  0
  141.7270   77.7030  220.2930 C   0  0  0  0  0  0  0  0  0  0  0  0
  142.5530   76.5320  219.7440 C   0  0  0  0  0  0  0  0  0  0  0  0
  140.2660   77.3110  220.6430 C   0  0  0  0  0  0  0  0  0  0  0  0
  139.9120   77.2040  222.1470 C   0  0  2  0  0  0  0  0  0  0  0  0
  139.1440   75.9790  222.3870 N   0  0  0  0  0  0  0  0  0  0  0  0
  139.6380   74.7010  221.9640 C   0  0  0  0  0  0  0  0  0  0  0  0
  141.0090   74.5440  221.7560 O   0  0  0  0  0  0  0  0  0  0  0  0
  138.8110   73.6590  221.7750 C   0  0  0  0  0  0  0  0  0  0  0  0
  138.7340   72.5590  222.6980 N   0  0  0  0  0  0  0  0  0  0  0  0
  139.8110   71.6190  222.8450 C   0  0  0  0  0  0  0  0  0  0  0  0
  140.7860   71.6480  222.0430 O   0  0  0  0  0  0  0  0  0  0  0  0
  139.7910   70.6250  223.9420 C   0  0  0  0  0  0  0  0  0  0  0  0
  139.1900   69.3660  223.7710 C   0  0  0  0  0  0  0  0  0  0  0  0
  139.2170   68.4370  224.8150 C   0  0  0  0  0  0  0  0  0  0  0  0
  139.8390   68.7660  226.0260 C   0  0  0  0  0  0  0  0  0  0  0  0
  139.8900   67.8560  227.0920 C   0  0  0  0  0  0  0  0  0  0  0  0
  140.5240   68.2160  228.2870 C   0  0  0  0  0  0  0  0  0  0  0  0
  141.1080   69.4800  228.4220 C   0  0  0  0  0  0  0  0  0  0  0  0
  141.0600   70.3930  227.3640 C   0  0  0  0  0  0  0  0  0  0  0  0
  140.4260   70.0420  226.1650 C   0  0  0  0  0  0  0  0  0  0  0  0
  140.3840   70.9240  225.1320 N   0  0  0  0  0  0  0  0  0  0  0  0
  139.0870   78.3730  222.6100 C   0  0  0  0  0  0  0  0  0  0  0  0
  137.9260   78.1830  223.0640 O   0  0  0  0  0  0  0  0  0  0  0  0
  139.6060   79.7020  222.4780 N   0  0  0  0  0  0  0  0  0  0  0  0
  140.4860   80.3340  223.4590 C   0  0  0  0  0  0  0  0  0  0  0  0
  141.3200   81.4050  222.7760 C   0  0  0  0  0  0  0  0  0  0  0  0
  142.5400   80.6830  222.2190 C   0  0  0  0  0  0  0  0  0  0  0  0
  142.7040   79.4080  223.0450 C   0  0  0  0  0  0  0  0  0  0  0  0
  141.5070   79.3330  223.9890 C   0  0  0  0  0  0  0  0  0  0  0  0
  141.8846   79.8391  219.9711 H   0  0  0  0  0  0  0  0  0  0  0  0
  142.7112   78.8360  218.7313 H   0  0  0  0  0  0  0  0  0  0  0  0
  140.9197   78.9682  218.7313 H   0  0  0  0  0  0  0  0  0  0  0  0
  142.1764   77.9913  221.2547 H   0  0  0  0  0  0  0  0  0  0  0  0
  142.9642   75.9490  220.5813 H   0  0  0  0  0  0  0  0  0  0  0  0
  141.9095   75.8861  219.1286 H   0  0  0  0  0  0  0  0  0  0  0  0
  143.3774   76.9215  219.1286 H   0  0  0  0  0  0  0  0  0  0  0  0
  139.6030   78.0677  220.1983 H   0  0  0  0  0  0  0  0  0  0  0  0
  140.1380   76.2937  220.2445 H   0  0  0  0  0  0  0  0  0  0  0  0
  140.8586   77.1921  222.7072 H   0  0  0  0  0  0  0  0  0  0  0  0
  138.2690   76.0250  222.9590 H   0  0  0  0  0  0  0  0  0  0  0  0
  141.4220   73.6430  221.5510 H   0  0  0  0  0  0  0  0  0  0  0  0
  138.1694   73.6470  220.8816 H   0  0  0  0  0  0  0  0  0  0  0  0
  137.9230   72.4860  223.3510 H   0  0  0  0  0  0  0  0  0  0  0  0
  138.7003   69.1127  222.8192 H   0  0  0  0  0  0  0  0  0  0  0  0
  138.7505   67.4492  224.6857 H   0  0  0  0  0  0  0  0  0  0  0  0
  139.4325   66.8609  226.9892 H   0  0  0  0  0  0  0  0  0  0  0  0
  140.5631   67.5023  229.1231 H   0  0  0  0  0  0  0  0  0  0  0  0
  141.6063   69.7564  229.3629 H   0  0  0  0  0  0  0  0  0  0  0  0
  141.5198   71.3863  227.4731 H   0  0  0  0  0  0  0  0  0  0  0  0
  139.8468   80.7323  224.2608 H   0  0  0  0  0  0  0  0  0  0  0  0
  140.7484   81.8760  221.9627 H   0  0  0  0  0  0  0  0  0  0  0  0
  141.6052   82.2052  223.4748 H   0  0  0  0  0  0  0  0  0  0  0  0
  142.3822   80.4319  221.1597 H   0  0  0  0  0  0  0  0  0  0  0  0
  143.4384   81.3148  222.2799 H   0  0  0  0  0  0  0  0  0  0  0  0
  142.7200   78.5288  222.3841 H   0  0  0  0  0  0  0  0  0  0  0  0
  143.6487   79.4231  223.6082 H   0  0  0  0  0  0  0  0  0  0  0  0
  141.0828   78.3181  223.9874 H   0  0  0  0  0  0  0  0  0  0  0  0
  141.7970   79.5653  225.0243 H   0  0  0  0  0  0  0  0  0  0  0  0
  1  2  1  0
  2  3  1  0
  2  4  1  0
  4  5  1  0
  5  6  1  0
  6  7  1  0
  7  8  1  0
  7  9  2  0
  9 10  1  0
 10 11  1  0
 11 12  2  0
 11 13  1  0
 13 14  2  0
 14 15  1  0
 15 16  2  0
 16 17  1  0
 17 18  2  0
 18 19  1  0
 19 20  2  0
 20 21  1  0
 21 22  2  0
  5 23  1  0
 23 24  2  0
 23 25  1  0
 25 26  1  0
 26 27  1  0
 27 28  1  0
 28 29  1  0
 29 30  1  0
 22 13  1  0
 30 26  1  0
 21 16  1  0
  1 31  1  0
  1 32  1  0
  1 33  1  0
  2 34  1  0
  3 35  1  0
  3 36  1  0
  3 37  1  0
  4 38  1  0
  4 39  1  0
  5 40  1  1
  6 41  1  0
  8 42  1  0
  9 43  1  0
 10 44  1  0
 14 45  1  0
 15 46  1  0
 17 47  1  0
 18 48  1  0
 19 49  1  0
 20 50  1  0
 26 51  1  0
 27 52  1  0
 27 53  1  0
 28 54  1  0
 28 55  1  0
 29 56  1  0
 29 57  1  0
 30 58  1  0
 30 59  1  0
M  CHG  1  25  -1
M  END
>  <meeko>  (14) 
{"free_energy": -7.36, "intermolecular_energy": -10.64, "internal_energy": -3.06, "cluster_size": 15, "cluster_id": 1, "rank_in_cluster": 10}

$$$$

     RDKit          3D

 59 61  0  0  0  0  0  0  0  0999 V2000
  145.5590   74.0720  220.5170 C   0  0  0  0  0  0  0  0  0  0  0  0
  144.0430   74.0570  220.7550 C   0  0  0  0  0  0  0  0  0  0  0  0
  143.4410   72.6960  220.3810 C   0  0  0  0  0  0  0  0  0  0  0  0
  143.3110   75.2530  220.0900 C   0  0  0  0  0  0  0  0  0  0  0  0
  141.8740   75.5550  220.5830 C   0  0  2  0  0  0  0  0  0  0  0  0
  140.9020   74.9330  219.6800 N   0  0  0  0  0  0  0  0  0  0  0  0
  140.1350   73.7930  220.0890 C   0  0  0  0  0  0  0  0  0  0  0  0
  140.4060   72.5540  219.5040 O   0  0  0  0  0  0  0  0  0  0  0  0
  139.1750   73.8920  221.0240 C   0  0  0  0  0  0  0  0  0  0  0  0
  139.2510   73.2040  222.2840 N   0  0  0  0  0  0  0  0  0  0  0  0
  139.3370   71.7720  222.3580 C   0  0  0  0  0  0  0  0  0  0  0  0
  139.1830   71.0760  221.3160 O   0  0  0  0  0  0  0  0  0  0  0  0
  139.6220   71.1070  223.6500 C   0  0  0  0  0  0  0  0  0  0  0  0
  139.3820   69.7330  223.8280 C   0  0  0  0  0  0  0  0  0  0  0  0
  139.6920   69.1280  225.0490 C   0  0  0  0  0  0  0  0  0  0  0  0
  140.2380   69.8920  226.0880 C   0  0  0  0  0  0  0  0  0  0  0  0
  140.5680   69.3160  227.3240 C   0  0  0  0  0  0  0  0  0  0  0  0
  141.1160   70.1080  228.3400 C   0  0  0  0  0  0  0  0  0  0  0  0
  141.3370   71.4730  228.1270 C   0  0  0  0  0  0  0  0  0  0  0  0
  141.0100   72.0550  226.8980 C   0  0  0  0  0  0  0  0  0  0  0  0
  140.4590   71.2700  225.8770 C   0  0  0  0  0  0  0  0  0  0  0  0
  140.1470   71.8300  224.6780 N   0  0  0  0  0  0  0  0  0  0  0  0
  141.5970   77.0320  220.6240 C   0  0  0  0  0  0  0  0  0  0  0  0
  142.1950   77.8070  219.8290 O   0  0  0  0  0  0  0  0  0  0  0  0
  140.6970   77.5560  221.6090 N   0  0  0  0  0  0  0  0  0  0  0  0
  141.1310   78.1450  222.8750 C   0  0  0  0  0  0  0  0  0  0  0  0
  140.0400   79.0600  223.4080 C   0  0  0  0  0  0  0  0  0  0  0  0
  140.2810   80.4130  222.7520 C   0  0  0  0  0  0  0  0  0  0  0  0
  141.7550   80.4440  222.3510 C   0  0  0  0  0  0  0  0  0  0  0  0
  142.3290   79.0630  222.6600 C   0  0  0  0  0  0  0  0  0  0  0  0
  146.0820   74.0772  221.4847 H   0  0  0  0  0  0  0  0  0  0  0  0
  145.8497   73.1767  219.9479 H   0  0  0  0  0  0  0  0  0  0  0  0
  145.8319   74.9729  219.9479 H   0  0  0  0  0  0  0  0  0  0  0  0
  143.8814   74.1959  221.8342 H   0  0  0  0  0  0  0  0  0  0  0  0
  143.1949   72.1396  221.2974 H   0  0  0  0  0  0  0  0  0  0  0  0
  142.5269   72.8497  219.7887 H   0  0  0  0  0  0  0  0  0  0  0  0
  144.1696   72.1231  219.7887 H   0  0  0  0  0  0  0  0  0  0  0  0
  143.9185   76.1533  220.2643 H   0  0  0  0  0  0  0  0  0  0  0  0
  143.1987   74.9695  219.0331 H   0  0  0  0  0  0  0  0  0  0  0  0
  141.7841   75.1477  221.6008 H   0  0  0  0  0  0  0  0  0  0  0  0
  140.6940   75.3830  218.7580 H   0  0  0  0  0  0  0  0  0  0  0  0
  140.0290   71.6900  219.8750 H   0  0  0  0  0  0  0  0  0  0  0  0
  138.2981   74.5232  220.8176 H   0  0  0  0  0  0  0  0  0  0  0  0
  139.3430   73.7510  223.1680 H   0  0  0  0  0  0  0  0  0  0  0  0
  138.9521   69.1368  223.0096 H   0  0  0  0  0  0  0  0  0  0  0  0
  139.5074   68.0533  225.1938 H   0  0  0  0  0  0  0  0  0  0  0  0
  140.3963   68.2430  227.4946 H   0  0  0  0  0  0  0  0  0  0  0  0
  141.3737   69.6556  229.3090 H   0  0  0  0  0  0  0  0  0  0  0  0
  141.7692   72.0902  228.9284 H   0  0  0  0  0  0  0  0  0  0  0  0
  141.1853   73.1284  226.7333 H   0  0  0  0  0  0  0  0  0  0  0  0
  141.3681   77.3140  223.5557 H   0  0  0  0  0  0  0  0  0  0  0  0
  139.0472   78.6727  223.1351 H   0  0  0  0  0  0  0  0  0  0  0  0
  140.0684   79.1297  224.5054 H   0  0  0  0  0  0  0  0  0  0  0  0
  139.6428   80.5233  221.8629 H   0  0  0  0  0  0  0  0  0  0  0  0
  140.0381   81.2371  223.4389 H   0  0  0  0  0  0  0  0  0  0  0  0
  141.8501   80.6613  221.2769 H   0  0  0  0  0  0  0  0  0  0  0  0
  142.2962   81.2272  222.9022 H   0  0  0  0  0  0  0  0  0  0  0  0
  142.9375   78.7051  221.8164 H   0  0  0  0  0  0  0  0  0  0  0  0
  142.9801   79.0878  223.5462 H   0  0  0  0  0  0  0  0  0  0  0  0
  1  2  1  0
  2  3  1  0
  2  4  1  0
  4  5  1  0
  5  6  1  0
  6  7  1  0
  7  8  1  0
  7  9  2  0
  9 10  1  0
 10 11  1  0
 11 12  2  0
 11 13  1  0
 13 14  2  0
 14 15  1  0
 15 16  2  0
 16 17  1  0
 17 18  2  0
 18 19  1  0
 19 20  2  0
 20 21  1  0
 21 22  2  0
  5 23  1  0
 23 24  2  0
 23 25  1  0
 25 26  1  0
 26 27  1  0
 27 28  1  0
 28 29  1  0
 29 30  1  0
 22 13  1  0
 30 26  1  0
 21 16  1  0
  1 31  1  0
  1 32  1  0
  1 33  1  0
  2 34  1  0
  3 35  1  0
  3 36  1  0
  3 37  1  0
  4 38  1  0
  4 39  1  0
  5 40  1  1
  6 41  1  0
  8 42  1  0
  9 43  1  0
 10 44  1  0
 14 45  1  0
 15 46  1  0
 17 47  1  0
 18 48  1  0
 19 49  1  0
 20 50  1  0
 26 51  1  0
 27 52  1  0
 27 53  1  0
 28 54  1  0
 28 55  1  0
 29 56  1  0
 29 57  1  0
 30 58  1  0
 30 59  1  0
M  CHG  1  25  -1
M  END
>  <meeko>  (15) 
{"free_energy": -6.56, "intermolecular_energy": -9.85, "internal_energy": -2.65, "cluster_size": 15, "cluster_id": 1, "rank_in_cluster": 15}

$$$$

     RDKit          3D

 59 61  0  0  0  0  0  0  0  0999 V2000
  137.2710   77.9210  221.1450 C   0  0  0  0  0  0  0  0  0  0  0  0
  137.2630   76.6710  222.0360 C   0  0  0  0  0  0  0  0  0  0  0  0
  136.0920   76.7090  223.0260 C   0  0  0  0  0  0  0  0  0  0  0  0
  138.6320   76.4020  222.7150 C   0  0  0  0  0  0  0  0  0  0  0  0
  139.8410   77.2250  222.2050 C   0  0  2  0  0  0  0  0  0  0  0  0
  141.0430   76.3870  222.2020 N   0  0  0  0  0  0  0  0  0  0  0  0
  141.2550   75.3970  221.1860 C   0  0  0  0  0  0  0  0  0  0  0  0
  142.3310   75.5510  220.3100 O   0  0  0  0  0  0  0  0  0  0  0  0
  140.4470   74.3300  221.0690 C   0  0  0  0  0  0  0  0  0  0  0  0
  140.0420   73.5410  222.2010 N   0  0  0  0  0  0  0  0  0  0  0  0
  140.3570   72.1420  222.2990 C   0  0  0  0  0  0  0  0  0  0  0  0
  140.8580   71.5380  221.3090 O   0  0  0  0  0  0  0  0  0  0  0  0
  140.1110   71.4080  223.5600 C   0  0  0  0  0  0  0  0  0  0  0  0
  139.3700   70.2130  223.5730 C   0  0  0  0  0  0  0  0  0  0  0  0
  139.1850   69.5250  224.7750 C   0  0  0  0  0  0  0  0  0  0  0  0
  139.7340   70.0300  225.9600 C   0  0  0  0  0  0  0  0  0  0  0  0
  139.5720   69.3620  227.1840 C   0  0  0  0  0  0  0  0  0  0  0  0
  140.1390   69.8920  228.3480 C   0  0  0  0  0  0  0  0  0  0  0  0
  140.8670   71.0860  228.2980 C   0  0  0  0  0  0  0  0  0  0  0  0
  141.0310   71.7580  227.0820 C   0  0  0  0  0  0  0  0  0  0  0  0
  140.4660   71.2360  225.9120 C   0  0  0  0  0  0  0  0  0  0  0  0
  140.6300   71.8820  224.7270 N   0  0  0  0  0  0  0  0  0  0  0  0
  140.1070   78.4230  223.0720 C   0  0  0  0  0  0  0  0  0  0  0  0
  139.2020   79.2840  223.2490 O   0  0  0  0  0  0  0  0  0  0  0  0
  141.4080   78.6100  223.6420 N   0  0  0  0  0  0  0  0  0  0  0  0
  142.4800   79.3630  222.9940 C   0  0  0  0  0  0  0  0  0  0  0  0
  142.8310   80.5750  223.8420 C   0  0  0  0  0  0  0  0  0  0  0  0
  141.8670   81.6720  223.4120 C   0  0  0  0  0  0  0  0  0  0  0  0
  141.4050   81.3140  222.0000 C   0  0  0  0  0  0  0  0  0  0  0  0
  142.0030   79.9480  221.6700 C   0  0  0  0  0  0  0  0  0  0  0  0
  137.2768   78.8215  221.7767 H   0  0  0  0  0  0  0  0  0  0  0  0
  138.1691   77.9129  220.5099 H   0  0  0  0  0  0  0  0  0  0  0  0
  136.3729   77.9243  220.5099 H   0  0  0  0  0  0  0  0  0  0  0  0
  137.1011   75.8027  221.3804 H   0  0  0  0  0  0  0  0  0  0  0  0
  136.4811   76.6964  224.0548 H   0  0  0  0  0  0  0  0  0  0  0  0
  135.5067   77.6266  222.8666 H   0  0  0  0  0  0  0  0  0  0  0  0
  135.4484   75.8313  222.8666 H   0  0  0  0  0  0  0  0  0  0  0  0
  138.5171   76.6109  223.7888 H   0  0  0  0  0  0  0  0  0  0  0  0
  138.8729   75.3569  222.4704 H   0  0  0  0  0  0  0  0  0  0  0  0
  139.5974   77.5688  221.1889 H   0  0  0  0  0  0  0  0  0  0  0  0
  141.8030   76.5760  222.8960 H   0  0  0  0  0  0  0  0  0  0  0  0
  143.1490   76.0960  220.5530 H   0  0  0  0  0  0  0  0  0  0  0  0
  140.0816   74.0495  220.0701 H   0  0  0  0  0  0  0  0  0  0  0  0
  139.5940   74.0050  223.0220 H   0  0  0  0  0  0  0  0  0  0  0  0
  138.9376   69.8213  222.6405 H   0  0  0  0  0  0  0  0  0  0  0  0
  138.6089   68.5880  224.7903 H   0  0  0  0  0  0  0  0  0  0  0  0
  139.0002   68.4233  227.2278 H   0  0  0  0  0  0  0  0  0  0  0  0
  140.0120   69.3678  229.3067 H   0  0  0  0  0  0  0  0  0  0  0  0
  141.3112   71.4970  229.2166 H   0  0  0  0  0  0  0  0  0  0  0  0
  141.6038   72.6964  227.0450 H   0  0  0  0  0  0  0  0  0  0  0  0
  143.3254   78.6728  222.8567 H   0  0  0  0  0  0  0  0  0  0  0  0
  142.7003   80.3466  224.9101 H   0  0  0  0  0  0  0  0  0  0  0  0
  143.8792   80.8781  223.7026 H   0  0  0  0  0  0  0  0  0  0  0  0
  141.0059   81.7106  224.0953 H   0  0  0  0  0  0  0  0  0  0  0  0
  142.3520   82.6591  223.4338 H   0  0  0  0  0  0  0  0  0  0  0  0
  140.3067   81.2651  221.9624 H   0  0  0  0  0  0  0  0  0  0  0  0
  141.7330   82.0729  221.2744 H   0  0  0  0  0  0  0  0  0  0  0  0
  141.2404   79.2968  221.2178 H   0  0  0  0  0  0  0  0  0  0  0  0
  142.8291   80.0351  220.9489 H   0  0  0  0  0  0  0  0  0  0  0  0
  1  2  1  0
  2  3  1  0
  2  4  1  0
  4  5  1  0
  5  6  1  0
  6  7  1  0
  7  8  1  0
  7  9  2  0
  9 10  1  0
 10 11  1  0
 11 12  2  0
 11 13  1  0
 13 14  2  0
 14 15  1  0
 15 16  2  0
 16 17  1  0
 17 18  2  0
 18 19  1  0
 19 20  2  0
 20 21  1  0
 21 22  2  0
  5 23  1  0
 23 24  2  0
 23 25  1  0
 25 26  1  0
 26 27  1  0
 27 28  1  0
 28 29  1  0
 29 30  1  0
 22 13  1  0
 30 26  1  0
 21 16  1  0
  1 31  1  0
  1 32  1  0
  1 33  1  0
  2 34  1  0
  3 35  1  0
  3 36  1  0
  3 37  1  0
  4 38  1  0
  4 39  1  0
  5 40  1  6
  6 41  1  0
  8 42  1  0
  9 43  1  0
 10 44  1  0
 14 45  1  0
 15 46  1  0
 17 47  1  0
 18 48  1  0
 19 49  1  0
 20 50  1  0
 26 51  1  0
 27 52  1  0
 27 53  1  0
 28 54  1  0
 28 55  1  0
 29 56  1  0
 29 57  1  0
 30 58  1  0
 30 59  1  0
M  CHG  1  25  -1
M  END
>  <meeko>  (16) 
{"free_energy": -7.88, "intermolecular_energy": -11.16, "internal_energy": -2.44, "cluster_size": 15, "cluster_id": 1, "rank_in_cluster": 1}

$$$$

     RDKit          3D

 59 61  0  0  0  0  0  0  0  0999 V2000
  142.9520   77.1100  219.0030 C   0  0  0  0  0  0  0  0  0  0  0  0
  141.6790   77.9660  218.9580 C   0  0  0  0  0  0  0  0  0  0  0  0
  142.0090   79.4520  219.1480 C   0  0  0  0  0  0  0  0  0  0  0  0
  140.5710   77.4570  219.9180 C   0  0  0  0  0  0  0  0  0  0  0  0
  140.9880   77.1770  221.3840 C   0  0  2  0  0  0  0  0  0  0  0  0
  141.3590   75.7670  221.5300 N   0  0  0  0  0  0  0  0  0  0  0  0
  140.4850   74.7210  221.0880 C   0  0  0  0  0  0  0  0  0  0  0  0
  139.2730   75.0660  220.4860 O   0  0  0  0  0  0  0  0  0  0  0  0
  140.8120   73.4260  221.2320 C   0  0  0  0  0  0  0  0  0  0  0  0
  140.5910   72.7070  222.4580 N   0  0  0  0  0  0  0  0  0  0  0  0
  139.8220   71.4940  222.4940 C   0  0  0  0  0  0  0  0  0  0  0  0
  139.1850   71.1210  221.4690 O   0  0  0  0  0  0  0  0  0  0  0  0
  139.7840   70.6690  223.7230 C   0  0  0  0  0  0  0  0  0  0  0  0
  139.1810   69.3990  223.7270 C   0  0  0  0  0  0  0  0  0  0  0  0
  139.1920   68.6310  224.8950 C   0  0  0  0  0  0  0  0  0  0  0  0
  139.8000   69.1300  226.0530 C   0  0  0  0  0  0  0  0  0  0  0  0
  139.8350   68.3830  227.2410 C   0  0  0  0  0  0  0  0  0  0  0  0
  140.4550   68.9110  228.3790 C   0  0  0  0  0  0  0  0  0  0  0  0
  141.0410   70.1810  228.3380 C   0  0  0  0  0  0  0  0  0  0  0  0
  141.0090   70.9320  227.1580 C   0  0  0  0  0  0  0  0  0  0  0  0
  140.3890   70.4120  226.0150 C   0  0  0  0  0  0  0  0  0  0  0  0
  140.3630   71.1360  224.8640 N   0  0  0  0  0  0  0  0  0  0  0  0
  139.8730   77.4720  222.3480 C   0  0  0  0  0  0  0  0  0  0  0  0
  139.1150   76.5420  222.7360 O   0  0  0  0  0  0  0  0  0  0  0  0
  139.6440   78.8210  222.7730 N   0  0  0  0  0  0  0  0  0  0  0  0
  140.4210   79.4880  223.8160 C   0  0  0  0  0  0  0  0  0  0  0  0
  140.6420   80.9420  223.4310 C   0  0  0  0  0  0  0  0  0  0  0  0
  141.8920   80.9510  222.5610 C   0  0  0  0  0  0  0  0  0  0  0  0
  142.6810   79.6930  222.9220 C   0  0  0  0  0  0  0  0  0  0  0  0
  141.8240   78.8980  223.9040 C   0  0  0  0  0  0  0  0  0  0  0  0
  143.2309   76.9225  220.0504 H   0  0  0  0  0  0  0  0  0  0  0  0
  142.7676   76.1517  218.4954 H   0  0  0  0  0  0  0  0  0  0  0  0
  143.7699   77.6423  218.4954 H   0  0  0  0  0  0  0  0  0  0  0  0
  141.2479   77.8579  217.9518 H   0  0  0  0  0  0  0  0  0  0  0  0
  142.0600   79.6818  220.2225 H   0  0  0  0  0  0  0  0  0  0  0  0
  142.9786   79.6752  218.6789 H   0  0  0  0  0  0  0  0  0  0  0  0
  141.2250   80.0646  218.6789 H   0  0  0  0  0  0  0  0  0  0  0  0
  139.7745   78.2154  219.9381 H   0  0  0  0  0  0  0  0  0  0  0  0
  140.2685   76.4795  219.5142 H   0  0  0  0  0  0  0  0  0  0  0  0
  141.8392   77.8346  221.6144 H   0  0  0  0  0  0  0  0  0  0  0  0
  142.3160   75.5210  221.8760 H   0  0  0  0  0  0  0  0  0  0  0  0
  138.5770   75.6260  220.9620 H   0  0  0  0  0  0  0  0  0  0  0  0
  141.2653   72.8961  220.3813 H   0  0  0  0  0  0  0  0  0  0  0  0
  141.0750   73.0110  223.3320 H   0  0  0  0  0  0  0  0  0  0  0  0
  138.7028   69.0115  222.8153 H   0  0  0  0  0  0  0  0  0  0  0  0
  138.7235   67.6358  224.9041 H   0  0  0  0  0  0  0  0  0  0  0  0
  139.3758   67.3841  227.2773 H   0  0  0  0  0  0  0  0  0  0  0  0
  140.4818   68.3252  229.3097 H   0  0  0  0  0  0  0  0  0  0  0  0
  141.5280   70.5899  229.2356 H   0  0  0  0  0  0  0  0  0  0  0  0
  141.4705   71.9301  227.1281 H   0  0  0  0  0  0  0  0  0  0  0  0
  139.8670   79.3707  224.7590 H   0  0  0  0  0  0  0  0  0  0  0  0
  139.7789   81.3251  222.8668 H   0  0  0  0  0  0  0  0  0  0  0  0
  140.7584   81.5839  224.3167 H   0  0  0  0  0  0  0  0  0  0  0  0
  141.6144   80.9331  221.4968 H   0  0  0  0  0  0  0  0  0  0  0  0
  142.4897   81.8583  222.7328 H   0  0  0  0  0  0  0  0  0  0  0  0
  142.8741   79.0955  222.0188 H   0  0  0  0  0  0  0  0  0  0  0  0
  143.6526   79.9523  223.3679 H   0  0  0  0  0  0  0  0  0  0  0  0
  141.8091   77.8345  223.6233 H   0  0  0  0  0  0  0  0  0  0  0  0
  142.2227   78.9612  224.9273 H   0  0  0  0  0  0  0  0  0  0  0  0
  1  2  1  0
  2  3  1  0
  2  4  1  0
  4  5  1  0
  5  6  1  0
  6  7  1  0
  7  8  1  0
  7  9  2  0
  9 10  1  0
 10 11  1  0
 11 12  2  0
 11 13  1  0
 13 14  2  0
 14 15  1  0
 15 16  2  0
 16 17  1  0
 17 18  2  0
 18 19  1  0
 19 20  2  0
 20 21  1  0
 21 22  2  0
  5 23  1  0
 23 24  2  0
 23 25  1  0
 25 26  1  0
 26 27  1  0
 27 28  1  0
 28 29  1  0
 29 30  1  0
 22 13  1  0
 30 26  1  0
 21 16  1  0
  1 31  1  0
  1 32  1  0
  1 33  1  0
  2 34  1  0
  3 35  1  0
  3 36  1  0
  3 37  1  0
  4 38  1  0
  4 39  1  0
  5 40  1  1
  6 41  1  0
  8 42  1  0
  9 43  1  0
 10 44  1  0
 14 45  1  0
 15 46  1  0
 17 47  1  0
 18 48  1  0
 19 49  1  0
 20 50  1  0
 26 51  1  0
 27 52  1  0
 27 53  1  0
 28 54  1  0
 28 55  1  0
 29 56  1  0
 29 57  1  0
 30 58  1  0
 30 59  1  0
M  CHG  1  25  -1
M  END
>  <meeko>  (17) 
{"free_energy": -7.15, "intermolecular_energy": -10.44, "internal_energy": -2.5, "cluster_size": 15, "cluster_id": 1, "rank_in_cluster": 13}

$$$$

     RDKit          3D

 59 61  0  0  0  0  0  0  0  0999 V2000
  143.6970   75.9530  216.7610 C   0  0  0  0  0  0  0  0  0  0  0  0
  142.9840   76.1750  218.1010 C   0  0  0  0  0  0  0  0  0  0  0  0
  142.6120   77.6520  218.2880 C   0  0  0  0  0  0  0  0  0  0  0  0
  143.7590   75.5810  219.3080 C   0  0  0  0  0  0  0  0  0  0  0  0
  143.4690   74.1020  219.6650 C   0  0  2  0  0  0  0  0  0  0  0  0
  142.6150   74.0390  220.8540 N   0  0  0  0  0  0  0  0  0  0  0  0
  141.4350   74.8460  220.9630 C   0  0  0  0  0  0  0  0  0  0  0  0
  141.5660   76.2350  220.9500 O   0  0  0  0  0  0  0  0  0  0  0  0
  140.2150   74.2920  221.0660 C   0  0  0  0  0  0  0  0  0  0  0  0
  139.8570   73.4120  222.1450 N   0  0  0  0  0  0  0  0  0  0  0  0
  140.5360   72.1630  222.3580 C   0  0  0  0  0  0  0  0  0  0  0  0
  141.3570   71.7370  221.4980 O   0  0  0  0  0  0  0  0  0  0  0  0
  140.2900   71.3790  223.5900 C   0  0  0  0  0  0  0  0  0  0  0  0
  139.6220   70.1420  223.5420 C   0  0  0  0  0  0  0  0  0  0  0  0
  139.4350   69.4110  224.7180 C   0  0  0  0  0  0  0  0  0  0  0  0
  139.9090   69.9130  225.9360 C   0  0  0  0  0  0  0  0  0  0  0  0
  139.7440   69.2020  227.1350 C   0  0  0  0  0  0  0  0  0  0  0  0
  140.2350   69.7320  228.3330 C   0  0  0  0  0  0  0  0  0  0  0  0
  140.8910   70.9670  228.3420 C   0  0  0  0  0  0  0  0  0  0  0  0
  141.0580   71.6820  227.1520 C   0  0  0  0  0  0  0  0  0  0  0  0
  140.5680   71.1610  225.9480 C   0  0  0  0  0  0  0  0  0  0  0  0
  140.7360   71.8490  224.7880 N   0  0  0  0  0  0  0  0  0  0  0  0
  144.7320   73.3400  219.9540 C   0  0  0  0  0  0  0  0  0  0  0  0
  145.0660   73.1040  221.1470 O   0  0  0  0  0  0  0  0  0  0  0  0
  145.5790   72.9370  218.8700 N   0  0  0  0  0  0  0  0  0  0  0  0
  145.3960   71.7030  218.1090 C   0  0  0  0  0  0  0  0  0  0  0  0
  143.9440   71.5900  217.6710 C   0  0  0  0  0  0  0  0  0  0  0  0
  143.2150   70.9260  218.8310 C   0  0  0  0  0  0  0  0  0  0  0  0
  144.2700   70.1580  219.6240 C   0  0  0  0  0  0  0  0  0  0  0  0
  145.6230   70.4840  218.9960 C   0  0  0  0  0  0  0  0  0  0  0  0
  144.7324   75.6306  216.9456 H   0  0  0  0  0  0  0  0  0  0  0  0
  143.1680   75.1771  216.1883 H   0  0  0  0  0  0  0  0  0  0  0  0
  143.7020   76.8921  216.1883 H   0  0  0  0  0  0  0  0  0  0  0  0
  142.0425   75.6072  218.0673 H   0  0  0  0  0  0  0  0  0  0  0  0
  142.5540   77.8824  219.3620 H   0  0  0  0  0  0  0  0  0  0  0  0
  143.3786   78.2855  217.8180 H   0  0  0  0  0  0  0  0  0  0  0  0
  141.6367   77.8468  217.8180 H   0  0  0  0  0  0  0  0  0  0  0  0
  144.8334   75.6656  219.0877 H   0  0  0  0  0  0  0  0  0  0  0  0
  143.4201   76.1593  220.1802 H   0  0  0  0  0  0  0  0  0  0  0  0
  142.9697   73.6473  218.7967 H   0  0  0  0  0  0  0  0  0  0  0  0
  142.8160   73.3270  221.5950 H   0  0  0  0  0  0  0  0  0  0  0  0
  142.1990   76.7220  221.5720 H   0  0  0  0  0  0  0  0  0  0  0  0
  139.4628   74.5202  220.2965 H   0  0  0  0  0  0  0  0  0  0  0  0
  139.1550   73.7190  222.8540 H   0  0  0  0  0  0  0  0  0  0  0  0
  139.2487   69.7521  222.5835 H   0  0  0  0  0  0  0  0  0  0  0  0
  138.9157   68.4418  224.6869 H   0  0  0  0  0  0  0  0  0  0  0  0
  139.2295   68.2297  227.1326 H   0  0  0  0  0  0  0  0  0  0  0  0
  140.1044   69.1747  229.2723 H   0  0  0  0  0  0  0  0  0  0  0  0
  141.2765   71.3768  229.2872 H   0  0  0  0  0  0  0  0  0  0  0  0
  141.5741   72.6534  227.1616 H   0  0  0  0  0  0  0  0  0  0  0  0
  146.1010   71.7335  217.2652 H   0  0  0  0  0  0  0  0  0  0  0  0
  143.5239   72.5874  217.4744 H   0  0  0  0  0  0  0  0  0  0  0  0
  143.8438   71.0091  216.7423 H   0  0  0  0  0  0  0  0  0  0  0  0
  142.7409   71.6875  219.4676 H   0  0  0  0  0  0  0  0  0  0  0  0
  142.4220   70.2546  218.4701 H   0  0  0  0  0  0  0  0  0  0  0  0
  144.2560   70.4747  220.6773 H   0  0  0  0  0  0  0  0  0  0  0  0
  144.0734   69.0761  219.5949 H   0  0  0  0  0  0  0  0  0  0  0  0
  146.3614   70.7136  219.7783 H   0  0  0  0  0  0  0  0  0  0  0  0
  146.0123   69.6334  218.4173 H   0  0  0  0  0  0  0  0  0  0  0  0
  1  2  1  0
  2  3  1  0
  2  4  1  0
  4  5  1  0
  5  6  1  0
  6  7  1  0
  7  8  1  0
  7  9  2  0
  9 10  1  0
 10 11  1  0
 11 12  2  0
 11 13  1  0
 13 14  2  0
 14 15  1  0
 15 16  2  0
 16 17  1  0
 17 18  2  0
 18 19  1  0
 19 20  2  0
 20 21  1  0
 21 22  2  0
  5 23  1  0
 23 24  2  0
 23 25  1  0
 25 26  1  0
 26 27  1  0
 27 28  1  0
 28 29  1  0
 29 30  1  0
 22 13  1  0
 30 26  1  0
 21 16  1  0
  1 31  1  0
  1 32  1  0
  1 33  1  0
  2 34  1  0
  3 35  1  0
  3 36  1  0
  3 37  1  0
  4 38  1  0
  4 39  1  0
  5 40  1  6
  6 41  1  0
  8 42  1  0
  9 43  1  0
 10 44  1  0
 14 45  1  0
 15 46  1  0
 17 47  1  0
 18 48  1  0
 19 49  1  0
 20 50  1  0
 26 51  1  0
 27 52  1  0
 27 53  1  0
 28 54  1  0
 28 55  1  0
 29 56  1  0
 29 57  1  0
 30 58  1  0
 30 59  1  0
M  CHG  1  25  -1
M  END
>  <meeko>  (18) 
{"free_energy": -7.34, "intermolecular_energy": -10.62, "internal_energy": -2.87, "cluster_size": 3, "cluster_id": 2, "rank_in_cluster": 1}

$$$$

     RDKit          3D

 59 61  0  0  0  0  0  0  0  0999 V2000
  136.4790   78.5170  222.8100 C   0  0  0  0  0  0  0  0  0  0  0  0
  137.1610   77.2240  222.3430 C   0  0  0  0  0  0  0  0  0  0  0  0
  136.6420   76.0130  223.1300 C   0  0  0  0  0  0  0  0  0  0  0  0
  138.7090   77.3260  222.3260 C   0  0  0  0  0  0  0  0  0  0  0  0
  139.3750   77.6420  220.9630 C   0  0  2  0  0  0  0  0  0  0  0  0
  139.8620   76.4030  220.3510 N   0  0  0  0  0  0  0  0  0  0  0  0
  140.3320   75.3140  221.1570 C   0  0  0  0  0  0  0  0  0  0  0  0
  141.4420   75.5160  221.9800 O   0  0  0  0  0  0  0  0  0  0  0  0
  139.7240   74.1160  221.1410 C   0  0  0  0  0  0  0  0  0  0  0  0
  139.5740   73.3110  222.3230 N   0  0  0  0  0  0  0  0  0  0  0  0
  139.8660   71.9040  222.3210 C   0  0  0  0  0  0  0  0  0  0  0  0
  140.1060   71.3120  221.2310 O   0  0  0  0  0  0  0  0  0  0  0  0
  139.9030   71.1470  223.5920 C   0  0  0  0  0  0  0  0  0  0  0  0
  139.4730   69.8090  223.6540 C   0  0  0  0  0  0  0  0  0  0  0  0
  139.5520   69.1120  224.8620 C   0  0  0  0  0  0  0  0  0  0  0  0
  140.0540   69.7470  226.0040 C   0  0  0  0  0  0  0  0  0  0  0  0
  140.1530   69.0750  227.2320 C   0  0  0  0  0  0  0  0  0  0  0  0
  140.6650   69.7390  228.3520 C   0  0  0  0  0  0  0  0  0  0  0  0
  141.0790   71.0720  228.2540 C   0  0  0  0  0  0  0  0  0  0  0  0
  140.9820   71.7490  227.0340 C   0  0  0  0  0  0  0  0  0  0  0  0
  140.4690   71.0930  225.9080 C   0  0  0  0  0  0  0  0  0  0  0  0
  140.3810   71.7450  224.7190 N   0  0  0  0  0  0  0  0  0  0  0  0
  140.5400   78.5790  221.1150 C   0  0  0  0  0  0  0  0  0  0  0  0
  141.7180   78.1390  221.0190 O   0  0  0  0  0  0  0  0  0  0  0  0
  140.3040   79.9580  221.4280 N   0  0  0  0  0  0  0  0  0  0  0  0
  140.4870   80.5320  222.7600 C   0  0  0  0  0  0  0  0  0  0  0  0
  141.8030   81.2930  222.8060 C   0  0  0  0  0  0  0  0  0  0  0  0
  142.8640   80.2590  223.1590 C   0  0  0  0  0  0  0  0  0  0  0  0
  142.1370   79.1160  223.8650 C   0  0  0  0  0  0  0  0  0  0  0  0
  140.6450   79.4320  223.8040 C   0  0  0  0  0  0  0  0  0  0  0  0
  136.4633   78.5468  223.9095 H   0  0  0  0  0  0  0  0  0  0  0  0
  137.0369   79.3845  222.4276 H   0  0  0  0  0  0  0  0  0  0  0  0
  135.4480   78.5465  222.4276 H   0  0  0  0  0  0  0  0  0  0  0  0
  136.8802   77.0684  221.2909 H   0  0  0  0  0  0  0  0  0  0  0  0
  136.7275   76.2125  224.2084 H   0  0  0  0  0  0  0  0  0  0  0  0
  135.5877   75.8330  222.8729 H   0  0  0  0  0  0  0  0  0  0  0  0
  137.2388   75.1255  222.8729 H   0  0  0  0  0  0  0  0  0  0  0  0
  138.9975   78.1210  223.0293 H   0  0  0  0  0  0  0  0  0  0  0  0
  139.0660   76.3206  222.5938 H   0  0  0  0  0  0  0  0  0  0  0  0
  138.6132   78.1208  220.3302 H   0  0  0  0  0  0  0  0  0  0  0  0
  139.7770   76.2720  219.3170 H   0  0  0  0  0  0  0  0  0  0  0  0
  141.9900   76.3670  221.9460 H   0  0  0  0  0  0  0  0  0  0  0  0
  139.3261   73.7368  220.1882 H   0  0  0  0  0  0  0  0  0  0  0  0
  139.3410   73.7660  223.2330 H   0  0  0  0  0  0  0  0  0  0  0  0
  139.0764   69.3139  222.7554 H   0  0  0  0  0  0  0  0  0  0  0  0
  139.2199   68.0647  224.9158 H   0  0  0  0  0  0  0  0  0  0  0  0
  139.8284   68.0272  227.3139 H   0  0  0  0  0  0  0  0  0  0  0  0
  140.7424   69.2108  229.3138 H   0  0  0  0  0  0  0  0  0  0  0  0
  141.4814   71.5883  229.1380 H   0  0  0  0  0  0  0  0  0  0  0  0
  141.3086   72.7967  226.9589 H   0  0  0  0  0  0  0  0  0  0  0  0
  139.6127   81.1679  222.9633 H   0  0  0  0  0  0  0  0  0  0  0  0
  142.0190   81.7455  221.8269 H   0  0  0  0  0  0  0  0  0  0  0  0
  141.7734   82.1117  223.5401 H   0  0  0  0  0  0  0  0  0  0  0  0
  143.3547   79.8909  222.2459 H   0  0  0  0  0  0  0  0  0  0  0  0
  143.6437   80.6925  223.8026 H   0  0  0  0  0  0  0  0  0  0  0  0
  142.3429   78.1641  223.3536 H   0  0  0  0  0  0  0  0  0  0  0  0
  142.4758   79.0191  224.9070 H   0  0  0  0  0  0  0  0  0  0  0  0
  140.0776   78.5382  223.5054 H   0  0  0  0  0  0  0  0  0  0  0  0
  140.2618   79.7511  224.7845 H   0  0  0  0  0  0  0  0  0  0  0  0
  1  2  1  0
  2  3  1  0
  2  4  1  0
  4  5  1  0
  5  6  1  0
  6  7  1  0
  7  8  1  0
  7  9  2  0
  9 10  1  0
 10 11  1  0
 11 12  2  0
 11 13  1  0
 13 14  2  0
 14 15  1  0
 15 16  2  0
 16 17  1  0
 17 18  2  0
 18 19  1  0
 19 20  2  0
 20 21  1  0
 21 22  2  0
  5 23  1  0
 23 24  2  0
 23 25  1  0
 25 26  1  0
 26 27  1  0
 27 28  1  0
 28 29  1  0
 29 30  1  0
 22 13  1  0
 30 26  1  0
 21 16  1  0
  1 31  1  0
  1 32  1  0
  1 33  1  0
  2 34  1  0
  3 35  1  0
  3 36  1  0
  3 37  1  0
  4 38  1  0
  4 39  1  0
  5 40  1  6
  6 41  1  0
  8 42  1  0
  9 43  1  0
 10 44  1  0
 14 45  1  0
 15 46  1  0
 17 47  1  0
 18 48  1  0
 19 49  1  0
 20 50  1  0
 26 51  1  0
 27 52  1  0
 27 53  1  0
 28 54  1  0
 28 55  1  0
 29 56  1  0
 29 57  1  0
 30 58  1  0
 30 59  1  0
M  CHG  1  25  -1
M  END
>  <meeko>  (19) 
{"free_energy": -7.42, "intermolecular_energy": -10.7, "internal_energy": -2.64, "cluster_size": 15, "cluster_id": 1, "rank_in_cluster": 9}

$$$$

     RDKit          3D

 59 61  0  0  0  0  0  0  0  0999 V2000
  141.7830   78.2250  219.4060 C   0  0  0  0  0  0  0  0  0  0  0  0
  141.8260   76.9740  220.2940 C   0  0  0  0  0  0  0  0  0  0  0  0
  142.8040   75.9340  219.7330 C   0  0  0  0  0  0  0  0  0  0  0  0
  140.4190   76.3930  220.5940 C   0  0  0  0  0  0  0  0  0  0  0  0
  139.9840   76.3430  222.0800 C   0  0  2  0  0  0  0  0  0  0  0  0
  139.3080   75.0730  222.3540 N   0  0  0  0  0  0  0  0  0  0  0  0
  138.4480   74.4660  221.3800 C   0  0  0  0  0  0  0  0  0  0  0  0
  137.6210   75.2850  220.6090 O   0  0  0  0  0  0  0  0  0  0  0  0
  138.4300   73.1360  221.1930 C   0  0  0  0  0  0  0  0  0  0  0  0
  138.7410   72.2050  222.2440 N   0  0  0  0  0  0  0  0  0  0  0  0
  139.9950   72.2500  222.9460 C   0  0  0  0  0  0  0  0  0  0  0  0
  140.9180   73.0100  222.5400 O   0  0  0  0  0  0  0  0  0  0  0  0
  140.2050   71.4200  224.1540 C   0  0  0  0  0  0  0  0  0  0  0  0
  140.9830   71.8850  225.2290 C   0  0  0  0  0  0  0  0  0  0  0  0
  141.1340   71.0910  226.3690 C   0  0  0  0  0  0  0  0  0  0  0  0
  140.5140   69.8380  226.4350 C   0  0  0  0  0  0  0  0  0  0  0  0
  140.6390   69.0180  227.5670 C   0  0  0  0  0  0  0  0  0  0  0  0
  140.0000   67.7730  227.6010 C   0  0  0  0  0  0  0  0  0  0  0  0
  139.2360   67.3430  226.5110 C   0  0  0  0  0  0  0  0  0  0  0  0
  139.1080   68.1530  225.3780 C   0  0  0  0  0  0  0  0  0  0  0  0
  139.7450   69.4000  225.3350 C   0  0  0  0  0  0  0  0  0  0  0  0
  139.6160   70.1940  224.2390 N   0  0  0  0  0  0  0  0  0  0  0  0
  139.0400   77.4610  222.4240 C   0  0  0  0  0  0  0  0  0  0  0  0
  137.8150   77.2190  222.5960 O   0  0  0  0  0  0  0  0  0  0  0  0
  139.5320   78.8060  222.4950 N   0  0  0  0  0  0  0  0  0  0  0  0
  140.2830   79.3380  223.6300 C   0  0  0  0  0  0  0  0  0  0  0  0
  140.5510   80.8180  223.4100 C   0  0  0  0  0  0  0  0  0  0  0  0
  141.8340   80.8870  222.5910 C   0  0  0  0  0  0  0  0  0  0  0  0
  142.5800   79.5780  222.8430 C   0  0  0  0  0  0  0  0  0  0  0  0
  141.6690   78.7050  223.7030 C   0  0  0  0  0  0  0  0  0  0  0  0
  141.7521   79.1236  220.0397 H   0  0  0  0  0  0  0  0  0  0  0  0
  142.6807   78.2549  218.7709 H   0  0  0  0  0  0  0  0  0  0  0  0
  140.8854   78.1932  218.7709 H   0  0  0  0  0  0  0  0  0  0  0  0
  142.2144   77.2842  221.2753 H   0  0  0  0  0  0  0  0  0  0  0  0
  143.2976   75.4091  220.5641 H   0  0  0  0  0  0  0  0  0  0  0  0
  142.2536   75.2083  219.1163 H   0  0  0  0  0  0  0  0  0  0  0  0
  143.5622   76.4388  219.1163 H   0  0  0  0  0  0  0  0  0  0  0  0
  139.6837   77.0066  220.0529 H   0  0  0  0  0  0  0  0  0  0  0  0
  140.4685   75.3417  220.2740 H   0  0  0  0  0  0  0  0  0  0  0  0
  140.8931   76.4454  222.6907 H   0  0  0  0  0  0  0  0  0  0  0  0
  139.5280   74.5530  223.2350 H   0  0  0  0  0  0  0  0  0  0  0  0
  137.3440   76.2100  220.9130 H   0  0  0  0  0  0  0  0  0  0  0  0
  138.1676   72.7444  220.1991 H   0  0  0  0  0  0  0  0  0  0  0  0
  138.0110   71.5390  222.5800 H   0  0  0  0  0  0  0  0  0  0  0  0
  141.4706   72.8694  225.1729 H   0  0  0  0  0  0  0  0  0  0  0  0
  141.7397   71.4506  227.2139 H   0  0  0  0  0  0  0  0  0  0  0  0
  141.2383   69.3531  228.4264 H   0  0  0  0  0  0  0  0  0  0  0  0
  140.0990   67.1304  228.4882 H   0  0  0  0  0  0  0  0  0  0  0  0
  138.7343   66.3647  226.5450 H   0  0  0  0  0  0  0  0  0  0  0  0
  138.5079   67.8113  224.5217 H   0  0  0  0  0  0  0  0  0  0  0  0
  139.6914   79.1363  224.5352 H   0  0  0  0  0  0  0  0  0  0  0  0
  139.7189   81.2808  222.8591 H   0  0  0  0  0  0  0  0  0  0  0  0
  140.6477   81.3593  224.3627 H   0  0  0  0  0  0  0  0  0  0  0  0
  141.5973   80.9898  221.5217 H   0  0  0  0  0  0  0  0  0  0  0  0
  142.4446   81.7550  222.8804 H   0  0  0  0  0  0  0  0  0  0  0  0
  142.7943   79.0752  221.8884 H   0  0  0  0  0  0  0  0  0  0  0  0
  143.5390   79.7632  223.3489 H   0  0  0  0  0  0  0  0  0  0  0  0
  141.6409   77.6785  223.3088 H   0  0  0  0  0  0  0  0  0  0  0  0
  142.0302   78.6478  224.7404 H   0  0  0  0  0  0  0  0  0  0  0  0
  1  2  1  0
  2  3  1  0
  2  4  1  0
  4  5  1  0
  5  6  1  0
  6  7  1  0
  7  8  1  0
  7  9  2  0
  9 10  1  0
 10 11  1  0
 11 12  2  0
 11 13  1  0
 13 14  2  0
 14 15  1  0
 15 16  2  0
 16 17  1  0
 17 18  2  0
 18 19  1  0
 19 20  2  0
 20 21  1  0
 21 22  2  0
  5 23  1  0
 23 24  2  0
 23 25  1  0
 25 26  1  0
 26 27  1  0
 27 28  1  0
 28 29  1  0
 29 30  1  0
 22 13  1  0
 30 26  1  0
 21 16  1  0
  1 31  1  0
  1 32  1  0
  1 33  1  0
  2 34  1  0
  3 35  1  0
  3 36  1  0
  3 37  1  0
  4 38  1  0
  4 39  1  0
  5 40  1  1
  6 41  1  0
  8 42  1  0
  9 43  1  0
 10 44  1  0
 14 45  1  0
 15 46  1  0
 17 47  1  0
 18 48  1  0
 19 49  1  0
 20 50  1  0
 26 51  1  0
 27 52  1  0
 27 53  1  0
 28 54  1  0
 28 55  1  0
 29 56  1  0
 29 57  1  0
 30 58  1  0
 30 59  1  0
M  CHG  1  25  -1
M  END
>  <meeko>  (20) 
{"free_energy": -7.17, "intermolecular_energy": -10.45, "internal_energy": -3.24, "cluster_size": 15, "cluster_id": 1, "rank_in_cluster": 12}

$$$$
