
     RDKit          3D

 43 45  0  0  0  0  0  0  0  0999 V2000
  139.2150   69.3280  223.8830 C   0  0  0  0  0  0  0  0  0  0  0  0
  139.3410   70.7740  224.3650 C   0  0  2  0  0  0  0  0  0  0  0  0
  140.1600   71.5300  223.4190 N   0  0  0  0  0  0  0  0  0  0  0  0
  139.6170   72.3350  222.3660 C   0  0  0  0  0  0  0  0  0  0  0  0
  138.3790   72.5670  222.3150 O   0  0  0  0  0  0  0  0  0  0  0  0
  140.5260   72.9300  221.3400 C   0  0  0  0  0  0  0  0  0  0  0  0
  141.0670   74.2090  221.8010 N   0  0  0  0  0  0  0  0  0  0  0  0
  140.4040   75.3180  221.9760 C   0  0  0  0  0  0  0  0  0  0  0  0
  139.2020   75.2840  222.6770 O   0  0  0  0  0  0  0  0  0  0  0  0
  140.8450   76.6110  221.4230 C   0  0  0  0  0  0  0  0  0  0  0  0
  140.8080   77.7810  222.1960 C   0  0  0  0  0  0  0  0  0  0  0  0
  141.2160   78.9910  221.6340 C   0  0  0  0  0  0  0  0  0  0  0  0
  141.6280   79.0350  220.2970 C   0  0  0  0  0  0  0  0  0  0  0  0
  142.0410   80.2360  219.7000 C   0  0  0  0  0  0  0  0  0  0  0  0
  142.4350   80.2490  218.3560 C   0  0  0  0  0  0  0  0  0  0  0  0
  142.9520   81.7500  217.6090 Cl  0  0  0  0  0  0  0  0  0  0  0  0
  142.4200   79.0660  217.6070 C   0  0  0  0  0  0  0  0  0  0  0  0
  142.0120   77.8650  218.1970 C   0  0  0  0  0  0  0  0  0  0  0  0
  141.6140   77.8440  219.5390 C   0  0  0  0  0  0  0  0  0  0  0  0
  141.2220   76.6770  220.1180 N   0  0  0  0  0  0  0  0  0  0  0  0
  139.9460   70.8160  225.7540 C   0  0  0  0  0  0  0  0  0  0  0  0
  139.6540   69.8150  226.7000 C   0  0  0  0  0  0  0  0  0  0  0  0
  140.2080   69.8730  227.9830 C   0  0  0  0  0  0  0  0  0  0  0  0
  141.0400   70.9370  228.3400 C   0  0  0  0  0  0  0  0  0  0  0  0
  141.3190   71.9460  227.4160 C   0  0  0  0  0  0  0  0  0  0  0  0
  140.7750   71.8890  226.1270 C   0  0  0  0  0  0  0  0  0  0  0  0
  139.1564   68.6557  224.7517 H   0  0  0  0  0  0  0  0  0  0  0  0
  138.3042   69.2221  223.2753 H   0  0  0  0  0  0  0  0  0  0  0  0
  140.0937   69.0662  223.2753 H   0  0  0  0  0  0  0  0  0  0  0  0
  138.3416   71.2305  224.4172 H   0  0  0  0  0  0  0  0  0  0  0  0
  141.3571   72.2353  221.1488 H   0  0  0  0  0  0  0  0  0  0  0  0
  139.9506   73.1032  220.4186 H   0  0  0  0  0  0  0  0  0  0  0  0
  138.8130   74.4060  223.0050 H   0  0  0  0  0  0  0  0  0  0  0  0
  140.4595   77.7447  223.2387 H   0  0  0  0  0  0  0  0  0  0  0  0
  141.2139   79.9087  222.2405 H   0  0  0  0  0  0  0  0  0  0  0  0
  142.0553   81.1662  220.2870 H   0  0  0  0  0  0  0  0  0  0  0  0
  142.7299   79.0811  216.5517 H   0  0  0  0  0  0  0  0  0  0  0  0
  142.0039   76.9370  217.6064 H   0  0  0  0  0  0  0  0  0  0  0  0
  138.9870   68.9834  226.4288 H   0  0  0  0  0  0  0  0  0  0  0  0
  139.9882   69.0794  228.7123 H   0  0  0  0  0  0  0  0  0  0  0  0
  141.4754   70.9799  229.3492 H   0  0  0  0  0  0  0  0  0  0  0  0
  141.9675   72.7874  227.7013 H   0  0  0  0  0  0  0  0  0  0  0  0
  140.9970   72.6869  225.4031 H   0  0  0  0  0  0  0  0  0  0  0  0
  1  2  1  0
  2  3  1  0
  3  4  1  0
  4  5  2  0
  4  6  1  0
  6  7  1  0
  7  8  2  0
  8  9  1  0
  8 10  1  0
 10 11  2  0
 11 12  1  0
 12 13  2  0
 13 14  1  0
 14 15  2  0
 15 16  1  0
 15 17  1  0
 17 18  2  0
 18 19  1  0
 19 20  2  0
  2 21  1  0
 21 22  2  0
 22 23  1  0
 23 24  2  0
 24 25  1  0
 25 26  2  0
 20 10  1  0
 26 21  1  0
 19 13  1  0
  1 27  1  0
  1 28  1  0
  1 29  1  0
  2 30  1  1
  6 31  1  0
  6 32  1  0
  9 33  1  0
 11 34  1  0
 12 35  1  0
 14 36  1  0
 17 37  1  0
 18 38  1  0
 22 39  1  0
 23 40  1  0
 24 41  1  0
 25 42  1  0
 26 43  1  0
M  CHG  1   3  -1
M  END
>  <meeko>  (1) 
{"free_energy": -7.17, "intermolecular_energy": -9.56, "internal_energy": -1.38, "cluster_size": 1, "cluster_id": 5, "rank_in_cluster": 1}

$$$$

     RDKit          3D

 43 45  0  0  0  0  0  0  0  0999 V2000
  141.7190   78.3230  219.2700 C   0  0  0  0  0  0  0  0  0  0  0  0
  141.3850   77.6780  220.6160 C   0  0  2  0  0  0  0  0  0  0  0  0
  139.9850   77.2610  220.6190 N   0  0  0  0  0  0  0  0  0  0  0  0
  139.5640   75.8930  220.6700 C   0  0  0  0  0  0  0  0  0  0  0  0
  139.5110   75.2020  219.6160 O   0  0  0  0  0  0  0  0  0  0  0  0
  139.2150   75.2690  221.9820 C   0  0  0  0  0  0  0  0  0  0  0  0
  140.1280   74.1690  222.2960 N   0  0  0  0  0  0  0  0  0  0  0  0
  139.9400   72.9040  222.0440 C   0  0  0  0  0  0  0  0  0  0  0  0
  139.6270   72.5120  220.7460 O   0  0  0  0  0  0  0  0  0  0  0  0
  139.9960   71.8630  223.0860 C   0  0  0  0  0  0  0  0  0  0  0  0
  139.4940   70.5740  222.8520 C   0  0  0  0  0  0  0  0  0  0  0  0
  139.5460   69.6190  223.8670 C   0  0  0  0  0  0  0  0  0  0  0  0
  140.0690   69.9610  225.1200 C   0  0  0  0  0  0  0  0  0  0  0  0
  140.1330   69.0260  226.1640 C   0  0  0  0  0  0  0  0  0  0  0  0
  140.6500   69.4030  227.4090 C   0  0  0  0  0  0  0  0  0  0  0  0
  140.7310   68.2340  228.7160 Cl  0  0  0  0  0  0  0  0  0  0  0  0
  141.1040   70.7120  227.6160 C   0  0  0  0  0  0  0  0  0  0  0  0
  141.0450   71.6480  226.5780 C   0  0  0  0  0  0  0  0  0  0  0  0
  140.5280   71.2800  225.3310 C   0  0  0  0  0  0  0  0  0  0  0  0
  140.4740   72.1860  224.3170 N   0  0  0  0  0  0  0  0  0  0  0  0
  141.6620   78.6470  221.7480 C   0  0  0  0  0  0  0  0  0  0  0  0
  142.1660   79.9350  221.4900 C   0  0  0  0  0  0  0  0  0  0  0  0
  142.4290   80.8140  222.5460 C   0  0  0  0  0  0  0  0  0  0  0  0
  142.2110   80.4110  223.8660 C   0  0  0  0  0  0  0  0  0  0  0  0
  141.7300   79.1270  224.1330 C   0  0  0  0  0  0  0  0  0  0  0  0
  141.4560   78.2460  223.0810 C   0  0  0  0  0  0  0  0  0  0  0  0
  142.2187   79.2881  219.4398 H   0  0  0  0  0  0  0  0  0  0  0  0
  142.3868   77.6594  218.7011 H   0  0  0  0  0  0  0  0  0  0  0  0
  140.7917   78.4854  218.7011 H   0  0  0  0  0  0  0  0  0  0  0  0
  142.0209   76.7930  220.7656 H   0  0  0  0  0  0  0  0  0  0  0  0
  139.2833   76.0307  222.7727 H   0  0  0  0  0  0  0  0  0  0  0  0
  138.1918   74.8700  221.9205 H   0  0  0  0  0  0  0  0  0  0  0  0
  139.5630   73.1920  219.9960 H   0  0  0  0  0  0  0  0  0  0  0  0
  139.0618   70.3180  221.8734 H   0  0  0  0  0  0  0  0  0  0  0  0
  139.1769   68.5991  223.6836 H   0  0  0  0  0  0  0  0  0  0  0  0
  139.7772   67.9975  226.0043 H   0  0  0  0  0  0  0  0  0  0  0  0
  141.5077   71.0044  228.5966 H   0  0  0  0  0  0  0  0  0  0  0  0
  141.4054   72.6742  226.7423 H   0  0  0  0  0  0  0  0  0  0  0  0
  142.3540   80.2521  220.4536 H   0  0  0  0  0  0  0  0  0  0  0  0
  142.8084   81.8251  222.3366 H   0  0  0  0  0  0  0  0  0  0  0  0
  142.4180   81.1044  224.6944 H   0  0  0  0  0  0  0  0  0  0  0  0
  141.5662   78.8077  225.1728 H   0  0  0  0  0  0  0  0  0  0  0  0
  141.0780   77.2358  223.2969 H   0  0  0  0  0  0  0  0  0  0  0  0
  1  2  1  0
  2  3  1  0
  3  4  1  0
  4  5  2  0
  4  6  1  0
  6  7  1  0
  7  8  2  0
  8  9  1  0
  8 10  1  0
 10 11  2  0
 11 12  1  0
 12 13  2  0
 13 14  1  0
 14 15  2  0
 15 16  1  0
 15 17  1  0
 17 18  2  0
 18 19  1  0
 19 20  2  0
  2 21  1  0
 21 22  2  0
 22 23  1  0
 23 24  2  0
 24 25  1  0
 25 26  2  0
 20 10  1  0
 26 21  1  0
 19 13  1  0
  1 27  1  0
  1 28  1  0
  1 29  1  0
  2 30  1  1
  6 31  1  0
  6 32  1  0
  9 33  1  0
 11 34  1  0
 12 35  1  0
 14 36  1  0
 17 37  1  0
 18 38  1  0
 22 39  1  0
 23 40  1  0
 24 41  1  0
 25 42  1  0
 26 43  1  0
M  CHG  1   3  -1
M  END
>  <meeko>  (2) 
{"free_energy": -7.12, "intermolecular_energy": -9.51, "internal_energy": -1.4, "cluster_size": 9, "cluster_id": 1, "rank_in_cluster": 6}

$$$$

     RDKit          3D

 43 45  0  0  0  0  0  0  0  0999 V2000
  140.6800   72.1330  223.3950 C   0  0  0  0  0  0  0  0  0  0  0  0
  140.2310   70.7960  223.9870 C   0  0  2  0  0  0  0  0  0  0  0  0
  138.8760   70.4950  223.5290 N   0  0  0  0  0  0  0  0  0  0  0  0
  138.0490   71.4300  222.8270 C   0  0  0  0  0  0  0  0  0  0  0  0
  136.9960   71.8750  223.3600 O   0  0  0  0  0  0  0  0  0  0  0  0
  138.4510   71.9080  221.4690 C   0  0  0  0  0  0  0  0  0  0  0  0
  137.8390   73.2030  221.1700 N   0  0  0  0  0  0  0  0  0  0  0  0
  137.7390   74.2230  221.9760 C   0  0  0  0  0  0  0  0  0  0  0  0
  136.5980   74.3550  222.7610 O   0  0  0  0  0  0  0  0  0  0  0  0
  138.7640   75.2780  222.0640 C   0  0  0  0  0  0  0  0  0  0  0  0
  140.0960   75.0280  221.7010 C   0  0  0  0  0  0  0  0  0  0  0  0
  141.0440   76.0460  221.8140 C   0  0  0  0  0  0  0  0  0  0  0  0
  140.6680   77.2960  222.3180 C   0  0  0  0  0  0  0  0  0  0  0  0
  141.5960   78.3400  222.4480 C   0  0  0  0  0  0  0  0  0  0  0  0
  141.1910   79.5760  222.9670 C   0  0  0  0  0  0  0  0  0  0  0  0
  142.3520   80.8810  223.1310 Cl  0  0  0  0  0  0  0  0  0  0  0  0
  139.8600   79.7730  223.3560 C   0  0  0  0  0  0  0  0  0  0  0  0
  138.9290   78.7370  223.2270 C   0  0  0  0  0  0  0  0  0  0  0  0
  139.3260   77.4990  222.7100 C   0  0  0  0  0  0  0  0  0  0  0  0
  138.4220   76.4910  222.5770 N   0  0  0  0  0  0  0  0  0  0  0  0
  140.2910   70.8420  225.5000 C   0  0  0  0  0  0  0  0  0  0  0  0
  140.9780   71.8740  226.1660 C   0  0  0  0  0  0  0  0  0  0  0  0
  141.0360   71.8970  227.5630 C   0  0  0  0  0  0  0  0  0  0  0  0
  140.4300   70.8820  228.3070 C   0  0  0  0  0  0  0  0  0  0  0  0
  139.7640   69.8410  227.6550 C   0  0  0  0  0  0  0  0  0  0  0  0
  139.6940   69.8180  226.2580 C   0  0  0  0  0  0  0  0  0  0  0  0
  140.9154   72.8340  224.2094 H   0  0  0  0  0  0  0  0  0  0  0  0
  141.5752   71.9773  222.7750 H   0  0  0  0  0  0  0  0  0  0  0  0
  139.8723   72.5492  222.7750 H   0  0  0  0  0  0  0  0  0  0  0  0
  140.9085   69.9991  223.6466 H   0  0  0  0  0  0  0  0  0  0  0  0
  139.5457   72.0097  221.4322 H   0  0  0  0  0  0  0  0  0  0  0  0
  138.1084   71.1762  220.7227 H   0  0  0  0  0  0  0  0  0  0  0  0
  136.5570   73.9620  223.6950 H   0  0  0  0  0  0  0  0  0  0  0  0
  140.3913   74.0356  221.3296 H   0  0  0  0  0  0  0  0  0  0  0  0
  142.0850   75.8660  221.5074 H   0  0  0  0  0  0  0  0  0  0  0  0
  142.6416   78.1878  222.1423 H   0  0  0  0  0  0  0  0  0  0  0  0
  139.5459   80.7450  223.7641 H   0  0  0  0  0  0  0  0  0  0  0  0
  137.8842   78.8957  223.5322 H   0  0  0  0  0  0  0  0  0  0  0  0
  141.4719   72.6666  225.5847 H   0  0  0  0  0  0  0  0  0  0  0  0
  141.5600   72.7162  228.0771 H   0  0  0  0  0  0  0  0  0  0  0  0
  140.4770   70.9022  229.4058 H   0  0  0  0  0  0  0  0  0  0  0  0
  139.2938   69.0379  228.2414 H   0  0  0  0  0  0  0  0  0  0  0  0
  139.1697   68.9954  225.7497 H   0  0  0  0  0  0  0  0  0  0  0  0
  1  2  1  0
  2  3  1  0
  3  4  1  0
  4  5  2  0
  4  6  1  0
  6  7  1  0
  7  8  2  0
  8  9  1  0
  8 10  1  0
 10 11  2  0
 11 12  1  0
 12 13  2  0
 13 14  1  0
 14 15  2  0
 15 16  1  0
 15 17  1  0
 17 18  2  0
 18 19  1  0
 19 20  2  0
  2 21  1  0
 21 22  2  0
 22 23  1  0
 23 24  2  0
 24 25  1  0
 25 26  2  0
 20 10  1  0
 26 21  1  0
 19 13  1  0
  1 27  1  0
  1 28  1  0
  1 29  1  0
  2 30  1  6
  6 31  1  0
  6 32  1  0
  9 33  1  0
 11 34  1  0
 12 35  1  0
 14 36  1  0
 17 37  1  0
 18 38  1  0
 22 39  1  0
 23 40  1  0
 24 41  1  0
 25 42  1  0
 26 43  1  0
M  CHG  1   3  -1
M  END
>  <meeko>  (3) 
{"free_energy": -6.76, "intermolecular_energy": -9.14, "internal_energy": -1.46, "cluster_size": 3, "cluster_id": 4, "rank_in_cluster": 3}

$$$$

     RDKit          3D

 43 45  0  0  0  0  0  0  0  0999 V2000
  141.0310   67.4030  226.3960 C   0  0  0  0  0  0  0  0  0  0  0  0
  139.8990   68.2740  226.9430 C   0  0  2  0  0  0  0  0  0  0  0  0
  138.7510   68.1970  226.0420 N   0  0  0  0  0  0  0  0  0  0  0  0
  138.7940   68.5930  224.6660 C   0  0  0  0  0  0  0  0  0  0  0  0
  139.1830   67.7830  223.7810 O   0  0  0  0  0  0  0  0  0  0  0  0
  138.3450   69.9630  224.2710 C   0  0  0  0  0  0  0  0  0  0  0  0
  139.4770   70.7740  223.8210 N   0  0  0  0  0  0  0  0  0  0  0  0
  139.8910   70.9220  222.5940 C   0  0  0  0  0  0  0  0  0  0  0  0
  139.9040   69.8190  221.7460 O   0  0  0  0  0  0  0  0  0  0  0  0
  140.3950   72.2040  222.0690 C   0  0  0  0  0  0  0  0  0  0  0  0
  141.5720   72.2640  221.3080 C   0  0  0  0  0  0  0  0  0  0  0  0
  142.0300   73.4970  220.8420 C   0  0  0  0  0  0  0  0  0  0  0  0
  141.3320   74.6660  221.1630 C   0  0  0  0  0  0  0  0  0  0  0  0
  141.7670   75.9220  220.7150 C   0  0  0  0  0  0  0  0  0  0  0  0
  141.0540   77.0750  221.0650 C   0  0  0  0  0  0  0  0  0  0  0  0
  141.5970   78.6460  220.5040 Cl  0  0  0  0  0  0  0  0  0  0  0  0
  139.9050   76.9770  221.8610 C   0  0  0  0  0  0  0  0  0  0  0  0
  139.4650   75.7280  222.3090 C   0  0  0  0  0  0  0  0  0  0  0  0
  140.1730   74.5710  221.9660 C   0  0  0  0  0  0  0  0  0  0  0  0
  139.7450   73.3530  222.3950 N   0  0  0  0  0  0  0  0  0  0  0  0
  140.3650   69.7070  227.1020 C   0  0  0  0  0  0  0  0  0  0  0  0
  139.9520   70.4830  228.2010 C   0  0  0  0  0  0  0  0  0  0  0  0
  140.3790   71.8090  228.3290 C   0  0  0  0  0  0  0  0  0  0  0  0
  141.2030   72.3780  227.3550 C   0  0  0  0  0  0  0  0  0  0  0  0
  141.6020   71.6220  226.2500 C   0  0  0  0  0  0  0  0  0  0  0  0
  141.1860   70.2920  226.1210 C   0  0  0  0  0  0  0  0  0  0  0  0
  141.5963   66.9680  227.2334 H   0  0  0  0  0  0  0  0  0  0  0  0
  140.6077   66.5955  225.7806 H   0  0  0  0  0  0  0  0  0  0  0  0
  141.7031   68.0191  225.7806 H   0  0  0  0  0  0  0  0  0  0  0  0
  139.5999   67.9047  227.9350 H   0  0  0  0  0  0  0  0  0  0  0  0
  137.6135   69.8806  223.4536 H   0  0  0  0  0  0  0  0  0  0  0  0
  137.8899   70.4497  225.1462 H   0  0  0  0  0  0  0  0  0  0  0  0
  139.8560   68.8760  222.1150 H   0  0  0  0  0  0  0  0  0  0  0  0
  142.1307   71.3443  221.0799 H   0  0  0  0  0  0  0  0  0  0  0  0
  142.9381   73.5496  220.2235 H   0  0  0  0  0  0  0  0  0  0  0  0
  142.6680   76.0011  220.0889 H   0  0  0  0  0  0  0  0  0  0  0  0
  139.3477   77.8852  222.1341 H   0  0  0  0  0  0  0  0  0  0  0  0
  138.5613   75.6548  222.9318 H   0  0  0  0  0  0  0  0  0  0  0  0
  139.2904   70.0449  228.9628 H   0  0  0  0  0  0  0  0  0  0  0  0
  140.0652   72.4050  229.1986 H   0  0  0  0  0  0  0  0  0  0  0  0
  141.5375   73.4208  227.4580 H   0  0  0  0  0  0  0  0  0  0  0  0
  142.2446   72.0732  225.4796 H   0  0  0  0  0  0  0  0  0  0  0  0
  141.5025   69.7015  225.2486 H   0  0  0  0  0  0  0  0  0  0  0  0
  1  2  1  0
  2  3  1  0
  3  4  1  0
  4  5  2  0
  4  6  1  0
  6  7  1  0
  7  8  2  0
  8  9  1  0
  8 10  1  0
 10 11  2  0
 11 12  1  0
 12 13  2  0
 13 14  1  0
 14 15  2  0
 15 16  1  0
 15 17  1  0
 17 18  2  0
 18 19  1  0
 19 20  2  0
  2 21  1  0
 21 22  2  0
 22 23  1  0
 23 24  2  0
 24 25  1  0
 25 26  2  0
 20 10  1  0
 26 21  1  0
 19 13  1  0
  1 27  1  0
  1 28  1  0
  1 29  1  0
  2 30  1  1
  6 31  1  0
  6 32  1  0
  9 33  1  0
 11 34  1  0
 12 35  1  0
 14 36  1  0
 17 37  1  0
 18 38  1  0
 22 39  1  0
 23 40  1  0
 24 41  1  0
 25 42  1  0
 26 43  1  0
M  CHG  1   3  -1
M  END
>  <meeko>  (4) 
{"free_energy": -7.44, "intermolecular_energy": -9.83, "internal_energy": -1.8, "cluster_size": 3, "cluster_id": 3, "rank_in_cluster": 1}

$$$$

     RDKit          3D

 43 45  0  0  0  0  0  0  0  0999 V2000
  141.9470   76.9490  219.4170 C   0  0  0  0  0  0  0  0  0  0  0  0
  141.2900   76.7450  220.7830 C   0  0  2  0  0  0  0  0  0  0  0  0
  139.8740   76.4350  220.5970 N   0  0  0  0  0  0  0  0  0  0  0  0
  139.1340   75.5570  221.4530 C   0  0  0  0  0  0  0  0  0  0  0  0
  139.1020   75.7580  222.6980 O   0  0  0  0  0  0  0  0  0  0  0  0
  138.3680   74.4160  220.8670 C   0  0  0  0  0  0  0  0  0  0  0  0
  138.9070   73.1350  221.3260 N   0  0  0  0  0  0  0  0  0  0  0  0
  139.9320   72.9580  222.1120 C   0  0  0  0  0  0  0  0  0  0  0  0
  141.0490   73.7740  221.9620 O   0  0  0  0  0  0  0  0  0  0  0  0
  139.9860   71.8940  223.1310 C   0  0  0  0  0  0  0  0  0  0  0  0
  139.4860   70.6110  222.8670 C   0  0  0  0  0  0  0  0  0  0  0  0
  139.5350   69.6330  223.8610 C   0  0  0  0  0  0  0  0  0  0  0  0
  140.0530   69.9480  225.1230 C   0  0  0  0  0  0  0  0  0  0  0  0
  140.1150   68.9900  226.1460 C   0  0  0  0  0  0  0  0  0  0  0  0
  140.6270   69.3400  227.4010 C   0  0  0  0  0  0  0  0  0  0  0  0
  140.7050   68.1430  228.6820 Cl  0  0  0  0  0  0  0  0  0  0  0  0
  141.0790   70.6440  227.6380 C   0  0  0  0  0  0  0  0  0  0  0  0
  141.0230   71.6030  226.6220 C   0  0  0  0  0  0  0  0  0  0  0  0
  140.5110   71.2620  225.3640 C   0  0  0  0  0  0  0  0  0  0  0  0
  140.4600   72.1910  224.3710 N   0  0  0  0  0  0  0  0  0  0  0  0
  141.4640   77.9800  221.6420 C   0  0  0  0  0  0  0  0  0  0  0  0
  141.8170   79.2160  221.0690 C   0  0  0  0  0  0  0  0  0  0  0  0
  141.9870   80.3460  221.8760 C   0  0  0  0  0  0  0  0  0  0  0  0
  141.8260   80.2500  223.2600 C   0  0  0  0  0  0  0  0  0  0  0  0
  141.4960   79.0230  223.8410 C   0  0  0  0  0  0  0  0  0  0  0  0
  141.3150   77.8910  223.0380 C   0  0  0  0  0  0  0  0  0  0  0  0
  142.9891   77.2726  219.5560 H   0  0  0  0  0  0  0  0  0  0  0  0
  141.9285   76.0028  218.8563 H   0  0  0  0  0  0  0  0  0  0  0  0
  141.3959   77.7183  218.8563 H   0  0  0  0  0  0  0  0  0  0  0  0
  141.7746   75.9039  221.3004 H   0  0  0  0  0  0  0  0  0  0  0  0
  137.3145   74.4941  221.1736 H   0  0  0  0  0  0  0  0  0  0  0  0
  138.4534   74.4610  219.7713 H   0  0  0  0  0  0  0  0  0  0  0  0
  140.9540   74.7800  221.8770 H   0  0  0  0  0  0  0  0  0  0  0  0
  139.0573   70.3767  221.8814 H   0  0  0  0  0  0  0  0  0  0  0  0
  139.1676   68.6171  223.6536 H   0  0  0  0  0  0  0  0  0  0  0  0
  139.7616   67.9647  225.9621 H   0  0  0  0  0  0  0  0  0  0  0  0
  141.4792   70.9146  228.6262 H   0  0  0  0  0  0  0  0  0  0  0  0
  141.3813   72.6257  226.8110 H   0  0  0  0  0  0  0  0  0  0  0  0
  141.9600   79.2939  219.9811 H   0  0  0  0  0  0  0  0  0  0  0  0
  142.2480   81.3122  221.4195 H   0  0  0  0  0  0  0  0  0  0  0  0
  141.9590   81.1402  223.8924 H   0  0  0  0  0  0  0  0  0  0  0  0
  141.3782   78.9464  224.9320 H   0  0  0  0  0  0  0  0  0  0  0  0
  141.0551   76.9274  223.5006 H   0  0  0  0  0  0  0  0  0  0  0  0
  1  2  1  0
  2  3  1  0
  3  4  1  0
  4  5  2  0
  4  6  1  0
  6  7  1  0
  7  8  2  0
  8  9  1  0
  8 10  1  0
 10 11  2  0
 11 12  1  0
 12 13  2  0
 13 14  1  0
 14 15  2  0
 15 16  1  0
 15 17  1  0
 17 18  2  0
 18 19  1  0
 19 20  2  0
  2 21  1  0
 21 22  2  0
 22 23  1  0
 23 24  2  0
 24 25  1  0
 25 26  2  0
 20 10  1  0
 26 21  1  0
 19 13  1  0
  1 27  1  0
  1 28  1  0
  1 29  1  0
  2 30  1  1
  6 31  1  0
  6 32  1  0
  9 33  1  0
 11 34  1  0
 12 35  1  0
 14 36  1  0
 17 37  1  0
 18 38  1  0
 22 39  1  0
 23 40  1  0
 24 41  1  0
 25 42  1  0
 26 43  1  0
M  CHG  1   3  -1
M  END
>  <meeko>  (5) 
{"free_energy": -7.02, "intermolecular_energy": -9.4, "internal_energy": -1.64, "cluster_size": 9, "cluster_id": 1, "rank_in_cluster": 8}

$$$$

     RDKit          3D

 43 45  0  0  0  0  0  0  0  0999 V2000
  138.0520   78.9920  223.0280 C   0  0  0  0  0  0  0  0  0  0  0  0
  139.3130   78.4220  222.3790 C   0  0  2  0  0  0  0  0  0  0  0  0
  139.4440   77.0100  222.7340 N   0  0  0  0  0  0  0  0  0  0  0  0
  139.2550   75.9360  221.8050 C   0  0  0  0  0  0  0  0  0  0  0  0
  138.0980   75.6440  221.3960 O   0  0  0  0  0  0  0  0  0  0  0  0
  140.4350   75.1780  221.2920 C   0  0  0  0  0  0  0  0  0  0  0  0
  140.6160   73.9290  222.0330 N   0  0  0  0  0  0  0  0  0  0  0  0
  139.7850   72.9260  222.0840 C   0  0  0  0  0  0  0  0  0  0  0  0
  138.7550   72.8530  221.1510 O   0  0  0  0  0  0  0  0  0  0  0  0
  139.8540   71.8810  223.1210 C   0  0  0  0  0  0  0  0  0  0  0  0
  139.3290   70.6000  222.8960 C   0  0  0  0  0  0  0  0  0  0  0  0
  139.3950   69.6410  223.9070 C   0  0  0  0  0  0  0  0  0  0  0  0
  139.9550   69.9710  225.1460 C   0  0  0  0  0  0  0  0  0  0  0  0
  140.0340   69.0320  226.1860 C   0  0  0  0  0  0  0  0  0  0  0  0
  140.5890   69.3980  227.4180 C   0  0  0  0  0  0  0  0  0  0  0  0
  140.6890   68.2240  228.7180 Cl  0  0  0  0  0  0  0  0  0  0  0  0
  141.0660   70.7000  227.6160 C   0  0  0  0  0  0  0  0  0  0  0  0
  140.9920   71.6410  226.5840 C   0  0  0  0  0  0  0  0  0  0  0  0
  140.4380   71.2830  225.3490 C   0  0  0  0  0  0  0  0  0  0  0  0
  140.3700   72.1940  224.3400 N   0  0  0  0  0  0  0  0  0  0  0  0
  140.5340   79.2040  222.8190 C   0  0  0  0  0  0  0  0  0  0  0  0
  140.4010   80.4450  223.4700 C   0  0  0  0  0  0  0  0  0  0  0  0
  141.5360   81.1630  223.8590 C   0  0  0  0  0  0  0  0  0  0  0  0
  142.8120   80.6610  223.5870 C   0  0  0  0  0  0  0  0  0  0  0  0
  142.9540   79.4400  222.9230 C   0  0  0  0  0  0  0  0  0  0  0  0
  141.8220   78.7120  222.5390 C   0  0  0  0  0  0  0  0  0  0  0  0
  138.1508   78.9474  224.1226 H   0  0  0  0  0  0  0  0  0  0  0  0
  137.9188   80.0378  222.7142 H   0  0  0  0  0  0  0  0  0  0  0  0
  137.1789   78.4010  222.7142 H   0  0  0  0  0  0  0  0  0  0  0  0
  139.2326   78.5098  221.2855 H   0  0  0  0  0  0  0  0  0  0  0  0
  140.2793   74.9462  220.2281 H   0  0  0  0  0  0  0  0  0  0  0  0
  141.3345   75.7976  221.4227 H   0  0  0  0  0  0  0  0  0  0  0  0
  138.1590   73.6520  220.9670 H   0  0  0  0  0  0  0  0  0  0  0  0
  138.8680   70.3530  221.9283 H   0  0  0  0  0  0  0  0  0  0  0  0
  139.0073   68.6268  223.7303 H   0  0  0  0  0  0  0  0  0  0  0  0
  139.6600   68.0089  226.0332 H   0  0  0  0  0  0  0  0  0  0  0  0
  141.5001   70.9833  228.5862 H   0  0  0  0  0  0  0  0  0  0  0  0
  141.3690   72.6622  226.7426 H   0  0  0  0  0  0  0  0  0  0  0  0
  139.3995   80.8518  223.6736 H   0  0  0  0  0  0  0  0  0  0  0  0
  141.4246   82.1252  224.3803 H   0  0  0  0  0  0  0  0  0  0  0  0
  143.7035   81.2268  223.8955 H   0  0  0  0  0  0  0  0  0  0  0  0
  143.9583   79.0497  222.7014 H   0  0  0  0  0  0  0  0  0  0  0  0
  141.9398   77.7514  222.0162 H   0  0  0  0  0  0  0  0  0  0  0  0
  1  2  1  0
  2  3  1  0
  3  4  1  0
  4  5  2  0
  4  6  1  0
  6  7  1  0
  7  8  2  0
  8  9  1  0
  8 10  1  0
 10 11  2  0
 11 12  1  0
 12 13  2  0
 13 14  1  0
 14 15  2  0
 15 16  1  0
 15 17  1  0
 17 18  2  0
 18 19  1  0
 19 20  2  0
  2 21  1  0
 21 22  2  0
 22 23  1  0
 23 24  2  0
 24 25  1  0
 25 26  2  0
 20 10  1  0
 26 21  1  0
 19 13  1  0
  1 27  1  0
  1 28  1  0
  1 29  1  0
  2 30  1  6
  6 31  1  0
  6 32  1  0
  9 33  1  0
 11 34  1  0
 12 35  1  0
 14 36  1  0
 17 37  1  0
 18 38  1  0
 22 39  1  0
 23 40  1  0
 24 41  1  0
 25 42  1  0
 26 43  1  0
M  CHG  1   3  -1
M  END
>  <meeko>  (6) 
{"free_energy": -7.43, "intermolecular_energy": -9.81, "internal_energy": -1.36, "cluster_size": 9, "cluster_id": 1, "rank_in_cluster": 3}

$$$$

     RDKit          3D

 43 45  0  0  0  0  0  0  0  0999 V2000
  140.0840   71.7840  223.3960 C   0  0  0  0  0  0  0  0  0  0  0  0
  139.9700   70.5060  224.2290 C   0  0  2  0  0  0  0  0  0  0  0  0
  138.6160   69.9700  224.1070 N   0  0  0  0  0  0  0  0  0  0  0  0
  138.3270   68.5870  223.8690 C   0  0  0  0  0  0  0  0  0  0  0  0
  138.8430   67.6940  224.5960 O   0  0  0  0  0  0  0  0  0  0  0  0
  137.3860   68.2000  222.7760 C   0  0  0  0  0  0  0  0  0  0  0  0
  136.1310   68.9460  222.8790 N   0  0  0  0  0  0  0  0  0  0  0  0
  135.4810   69.2310  223.9730 C   0  0  0  0  0  0  0  0  0  0  0  0
  135.0300   68.1920  224.7820 O   0  0  0  0  0  0  0  0  0  0  0  0
  135.1560   70.6110  224.3750 C   0  0  0  0  0  0  0  0  0  0  0  0
  135.8420   71.7060  223.8300 C   0  0  0  0  0  0  0  0  0  0  0  0
  135.5210   72.9980  224.2480 C   0  0  0  0  0  0  0  0  0  0  0  0
  134.5410   73.1910  225.2280 C   0  0  0  0  0  0  0  0  0  0  0  0
  134.1960   74.4750  225.6740 C   0  0  0  0  0  0  0  0  0  0  0  0
  133.2200   74.6330  226.6650 C   0  0  0  0  0  0  0  0  0  0  0  0
  132.7880   76.2400  227.2220 Cl  0  0  0  0  0  0  0  0  0  0  0  0
  132.5860   73.5110  227.2130 C   0  0  0  0  0  0  0  0  0  0  0  0
  132.9230   72.2270  226.7720 C   0  0  0  0  0  0  0  0  0  0  0  0
  133.8990   72.0610  225.7820 C   0  0  0  0  0  0  0  0  0  0  0  0
  134.2260   70.8140  225.3460 N   0  0  0  0  0  0  0  0  0  0  0  0
  140.3100   70.7880  225.6780 C   0  0  0  0  0  0  0  0  0  0  0  0
  139.7860   69.9890  226.7120 C   0  0  0  0  0  0  0  0  0  0  0  0
  140.0980   70.2680  228.0460 C   0  0  0  0  0  0  0  0  0  0  0  0
  140.9160   71.3550  228.3630 C   0  0  0  0  0  0  0  0  0  0  0  0
  141.4250   72.1660  227.3460 C   0  0  0  0  0  0  0  0  0  0  0  0
  141.1240   71.8870  226.0070 C   0  0  0  0  0  0  0  0  0  0  0  0
  140.1615   72.6528  224.0662 H   0  0  0  0  0  0  0  0  0  0  0  0
  140.9808   71.7293  222.7614 H   0  0  0  0  0  0  0  0  0  0  0  0
  139.1916   71.8889  222.7614 H   0  0  0  0  0  0  0  0  0  0  0  0
  140.6856   69.7593  223.8544 H   0  0  0  0  0  0  0  0  0  0  0  0
  137.8544   68.4155  221.8043 H   0  0  0  0  0  0  0  0  0  0  0  0
  137.1651   67.1262  222.8662 H   0  0  0  0  0  0  0  0  0  0  0  0
  134.4080   68.3690  225.5620 H   0  0  0  0  0  0  0  0  0  0  0  0
  136.6285   71.5473  223.0775 H   0  0  0  0  0  0  0  0  0  0  0  0
  136.0376   73.8636  223.8077 H   0  0  0  0  0  0  0  0  0  0  0  0
  134.6923   75.3580  225.2451 H   0  0  0  0  0  0  0  0  0  0  0  0
  131.8207   73.6398  227.9926 H   0  0  0  0  0  0  0  0  0  0  0  0
  132.4214   71.3480  227.2029 H   0  0  0  0  0  0  0  0  0  0  0  0
  139.1282   69.1414  226.4693 H   0  0  0  0  0  0  0  0  0  0  0  0
  139.6983   69.6299  228.8479 H   0  0  0  0  0  0  0  0  0  0  0  0
  141.1593   71.5723  229.4135 H   0  0  0  0  0  0  0  0  0  0  0  0
  142.0636   73.0256  227.5973 H   0  0  0  0  0  0  0  0  0  0  0  0
  141.5256   72.5296  225.2097 H   0  0  0  0  0  0  0  0  0  0  0  0
  1  2  1  0
  2  3  1  0
  3  4  1  0
  4  5  2  0
  4  6  1  0
  6  7  1  0
  7  8  2  0
  8  9  1  0
  8 10  1  0
 10 11  2  0
 11 12  1  0
 12 13  2  0
 13 14  1  0
 14 15  2  0
 15 16  1  0
 15 17  1  0
 17 18  2  0
 18 19  1  0
 19 20  2  0
  2 21  1  0
 21 22  2  0
 22 23  1  0
 23 24  2  0
 24 25  1  0
 25 26  2  0
 20 10  1  0
 26 21  1  0
 19 13  1  0
  1 27  1  0
  1 28  1  0
  1 29  1  0
  2 30  1  6
  6 31  1  0
  6 32  1  0
  9 33  1  0
 11 34  1  0
 12 35  1  0
 14 36  1  0
 17 37  1  0
 18 38  1  0
 22 39  1  0
 23 40  1  0
 24 41  1  0
 25 42  1  0
 26 43  1  0
M  CHG  1   3  -1
M  END
>  <meeko>  (7) 
{"free_energy": -6.78, "intermolecular_energy": -9.16, "internal_energy": -1.53, "cluster_size": 1, "cluster_id": 6, "rank_in_cluster": 1}

$$$$

     RDKit          3D

 43 45  0  0  0  0  0  0  0  0999 V2000
  140.6710   67.4010  226.8310 C   0  0  0  0  0  0  0  0  0  0  0  0
  139.6830   68.4790  226.3820 C   0  0  2  0  0  0  0  0  0  0  0  0
  139.4450   68.3490  224.9460 N   0  0  0  0  0  0  0  0  0  0  0  0
  138.5780   69.2130  224.2030 C   0  0  0  0  0  0  0  0  0  0  0  0
  137.6870   69.8830  224.7940 O   0  0  0  0  0  0  0  0  0  0  0  0
  138.7480   69.3480  222.7250 C   0  0  0  0  0  0  0  0  0  0  0  0
  139.4380   70.5950  222.3910 N   0  0  0  0  0  0  0  0  0  0  0  0
  139.0080   71.8060  222.6090 C   0  0  0  0  0  0  0  0  0  0  0  0
  137.8060   71.9850  223.2870 O   0  0  0  0  0  0  0  0  0  0  0  0
  139.7150   73.0060  222.1270 C   0  0  0  0  0  0  0  0  0  0  0  0
  140.9820   72.9120  221.5340 C   0  0  0  0  0  0  0  0  0  0  0  0
  141.6310   74.0710  221.1060 C   0  0  0  0  0  0  0  0  0  0  0  0
  141.0300   75.3190  221.3000 C   0  0  0  0  0  0  0  0  0  0  0  0
  141.6560   76.5040  220.8860 C   0  0  0  0  0  0  0  0  0  0  0  0
  141.0330   77.7380  221.1060 C   0  0  0  0  0  0  0  0  0  0  0  0
  141.8150   79.2200  220.5880 Cl  0  0  0  0  0  0  0  0  0  0  0  0
  139.7840   77.7930  221.7390 C   0  0  0  0  0  0  0  0  0  0  0  0
  139.1530   76.6150  222.1530 C   0  0  0  0  0  0  0  0  0  0  0  0
  139.7700   75.3770  221.9380 C   0  0  0  0  0  0  0  0  0  0  0  0
  139.1570   74.2290  222.3340 N   0  0  0  0  0  0  0  0  0  0  0  0
  140.2170   69.8570  226.7180 C   0  0  0  0  0  0  0  0  0  0  0  0
  140.9270   70.6090  225.7630 C   0  0  0  0  0  0  0  0  0  0  0  0
  141.4260   71.8740  226.0900 C   0  0  0  0  0  0  0  0  0  0  0  0
  141.2380   72.3920  227.3740 C   0  0  0  0  0  0  0  0  0  0  0  0
  140.5520   71.6440  228.3350 C   0  0  0  0  0  0  0  0  0  0  0  0
  140.0430   70.3820  228.0110 C   0  0  0  0  0  0  0  0  0  0  0  0
  140.7022   67.3670  227.9300 H   0  0  0  0  0  0  0  0  0  0  0  0
  140.3486   66.4235  226.4429 H   0  0  0  0  0  0  0  0  0  0  0  0
  141.6728   67.6372  226.4429 H   0  0  0  0  0  0  0  0  0  0  0  0
  138.7300   68.3472  226.9152 H   0  0  0  0  0  0  0  0  0  0  0  0
  139.3382   68.4984  222.3511 H   0  0  0  0  0  0  0  0  0  0  0  0
  137.7530   69.3601  222.2561 H   0  0  0  0  0  0  0  0  0  0  0  0
  137.7730   71.9930  224.3010 H   0  0  0  0  0  0  0  0  0  0  0  0
  141.4617   71.9303  221.4068 H   0  0  0  0  0  0  0  0  0  0  0  0
  142.6139   74.0031  220.6167 H   0  0  0  0  0  0  0  0  0  0  0  0
  142.6363   76.4636  220.3886 H   0  0  0  0  0  0  0  0  0  0  0  0
  139.2984   78.7650  221.9108 H   0  0  0  0  0  0  0  0  0  0  0  0
  138.1716   76.6616  222.6477 H   0  0  0  0  0  0  0  0  0  0  0  0
  141.0901   70.1999  224.7550 H   0  0  0  0  0  0  0  0  0  0  0  0
  141.9676   72.4624  225.3347 H   0  0  0  0  0  0  0  0  0  0  0  0
  141.6297   73.3879  227.6284 H   0  0  0  0  0  0  0  0  0  0  0  0
  140.4121   72.0486  229.3483 H   0  0  0  0  0  0  0  0  0  0  0  0
  139.5041   69.7975  228.7712 H   0  0  0  0  0  0  0  0  0  0  0  0
  1  2  1  0
  2  3  1  0
  3  4  1  0
  4  5  2  0
  4  6  1  0
  6  7  1  0
  7  8  2  0
  8  9  1  0
  8 10  1  0
 10 11  2  0
 11 12  1  0
 12 13  2  0
 13 14  1  0
 14 15  2  0
 15 16  1  0
 15 17  1  0
 17 18  2  0
 18 19  1  0
 19 20  2  0
  2 21  1  0
 21 22  2  0
 22 23  1  0
 23 24  2  0
 24 25  1  0
 25 26  2  0
 20 10  1  0
 26 21  1  0
 19 13  1  0
  1 27  1  0
  1 28  1  0
  1 29  1  0
  2 30  1  1
  6 31  1  0
  6 32  1  0
  9 33  1  0
 11 34  1  0
 12 35  1  0
 14 36  1  0
 17 37  1  0
 18 38  1  0
 22 39  1  0
 23 40  1  0
 24 41  1  0
 25 42  1  0
 26 43  1  0
M  CHG  1   3  -1
M  END
>  <meeko>  (8) 
{"free_energy": -7.09, "intermolecular_energy": -9.48, "internal_energy": -1.71, "cluster_size": 3, "cluster_id": 3, "rank_in_cluster": 2}

$$$$

     RDKit          3D

 43 45  0  0  0  0  0  0  0  0999 V2000
  138.4590   70.1990  224.0220 C   0  0  0  0  0  0  0  0  0  0  0  0
  139.5820   71.1080  224.5250 C   0  0  2  0  0  0  0  0  0  0  0  0
  140.6470   71.1590  223.5260 N   0  0  0  0  0  0  0  0  0  0  0  0
  140.4300   71.4900  222.1490 C   0  0  0  0  0  0  0  0  0  0  0  0
  139.3000   71.3050  221.6200 O   0  0  0  0  0  0  0  0  0  0  0  0
  141.5370   72.0880  221.3430 C   0  0  0  0  0  0  0  0  0  0  0  0
  141.1750   73.4250  220.8710 N   0  0  0  0  0  0  0  0  0  0  0  0
  140.5720   74.3560  221.5550 C   0  0  0  0  0  0  0  0  0  0  0  0
  139.5760   73.9950  222.4570 O   0  0  0  0  0  0  0  0  0  0  0  0
  140.8610   75.7910  221.3830 C   0  0  0  0  0  0  0  0  0  0  0  0
  141.6950   76.2440  220.3500 C   0  0  0  0  0  0  0  0  0  0  0  0
  141.9630   77.6080  220.2280 C   0  0  0  0  0  0  0  0  0  0  0  0
  141.4260   78.5100  221.1540 C   0  0  0  0  0  0  0  0  0  0  0  0
  141.6780   79.8870  221.0630 C   0  0  0  0  0  0  0  0  0  0  0  0
  141.1350   80.7610  222.0120 C   0  0  0  0  0  0  0  0  0  0  0  0
  141.4500   82.4840  221.9000 Cl  0  0  0  0  0  0  0  0  0  0  0  0
  140.3400   80.2640  223.0530 C   0  0  0  0  0  0  0  0  0  0  0  0
  140.0820   78.8930  223.1480 C   0  0  0  0  0  0  0  0  0  0  0  0
  140.6220   78.0120  222.2040 C   0  0  0  0  0  0  0  0  0  0  0  0
  140.3700   76.6780  222.2900 N   0  0  0  0  0  0  0  0  0  0  0  0
  140.1120   70.6070  225.8540 C   0  0  0  0  0  0  0  0  0  0  0  0
  140.0760   69.2380  226.1760 C   0  0  0  0  0  0  0  0  0  0  0  0
  140.5570   68.7910  227.4110 C   0  0  0  0  0  0  0  0  0  0  0  0
  141.0580   69.7040  228.3410 C   0  0  0  0  0  0  0  0  0  0  0  0
  141.0780   71.0680  228.0390 C   0  0  0  0  0  0  0  0  0  0  0  0
  140.6070   71.5210  226.8010 C   0  0  0  0  0  0  0  0  0  0  0  0
  137.9248   69.7666  224.8809 H   0  0  0  0  0  0  0  0  0  0  0  0
  137.7573   70.7865  223.4117 H   0  0  0  0  0  0  0  0  0  0  0  0
  138.8874   69.3903  223.4117 H   0  0  0  0  0  0  0  0  0  0  0  0
  139.1888   72.1236  224.6800 H   0  0  0  0  0  0  0  0  0  0  0  0
  142.4398   72.1586  221.9674 H   0  0  0  0  0  0  0  0  0  0  0  0
  141.7234   71.4453  220.4700 H   0  0  0  0  0  0  0  0  0  0  0  0
  139.6060   73.1040  222.9400 H   0  0  0  0  0  0  0  0  0  0  0  0
  142.1352   75.5281  219.6403 H   0  0  0  0  0  0  0  0  0  0  0  0
  142.5952   77.9738  219.4055 H   0  0  0  0  0  0  0  0  0  0  0  0
  142.3018   80.2796  220.2465 H   0  0  0  0  0  0  0  0  0  0  0  0
  139.9175   80.9544  223.7979 H   0  0  0  0  0  0  0  0  0  0  0  0
  139.4545   78.5068  223.9648 H   0  0  0  0  0  0  0  0  0  0  0  0
  139.6678   68.5160  225.4534 H   0  0  0  0  0  0  0  0  0  0  0  0
  140.5405   67.7174  227.6502 H   0  0  0  0  0  0  0  0  0  0  0  0
  141.4368   69.3496  229.3110 H   0  0  0  0  0  0  0  0  0  0  0  0
  141.4647   71.7875  228.7757 H   0  0  0  0  0  0  0  0  0  0  0  0
  140.6242   72.5959  226.5682 H   0  0  0  0  0  0  0  0  0  0  0  0
  1  2  1  0
  2  3  1  0
  3  4  1  0
  4  5  2  0
  4  6  1  0
  6  7  1  0
  7  8  2  0
  8  9  1  0
  8 10  1  0
 10 11  2  0
 11 12  1  0
 12 13  2  0
 13 14  1  0
 14 15  2  0
 15 16  1  0
 15 17  1  0
 17 18  2  0
 18 19  1  0
 19 20  2  0
  2 21  1  0
 21 22  2  0
 22 23  1  0
 23 24  2  0
 24 25  1  0
 25 26  2  0
 20 10  1  0
 26 21  1  0
 19 13  1  0
  1 27  1  0
  1 28  1  0
  1 29  1  0
  2 30  1  1
  6 31  1  0
  6 32  1  0
  9 33  1  0
 11 34  1  0
 12 35  1  0
 14 36  1  0
 17 37  1  0
 18 38  1  0
 22 39  1  0
 23 40  1  0
 24 41  1  0
 25 42  1  0
 26 43  1  0
M  CHG  1   3  -1
M  END
>  <meeko>  (9) 
{"free_energy": -7.21, "intermolecular_energy": -9.59, "internal_energy": -1.41, "cluster_size": 3, "cluster_id": 4, "rank_in_cluster": 2}

$$$$

     RDKit          3D

 43 45  0  0  0  0  0  0  0  0999 V2000
  142.0740   70.8390  220.0460 C   0  0  0  0  0  0  0  0  0  0  0  0
  142.1790   72.3140  220.4350 C   0  0  2  0  0  0  0  0  0  0  0  0
  141.4090   73.1200  219.4890 N   0  0  0  0  0  0  0  0  0  0  0  0
  140.5240   74.1760  219.8820 C   0  0  0  0  0  0  0  0  0  0  0  0
  139.6060   74.5590  219.1060 O   0  0  0  0  0  0  0  0  0  0  0  0
  140.6670   74.8060  221.2290 C   0  0  0  0  0  0  0  0  0  0  0  0
  140.0440   73.9760  222.2610 N   0  0  0  0  0  0  0  0  0  0  0  0
  139.6050   72.7560  222.1210 C   0  0  0  0  0  0  0  0  0  0  0  0
  138.9030   72.4190  220.9680 O   0  0  0  0  0  0  0  0  0  0  0  0
  139.7760   71.7200  223.1550 C   0  0  0  0  0  0  0  0  0  0  0  0
  139.3640   70.3980  222.9330 C   0  0  0  0  0  0  0  0  0  0  0  0
  139.5240   69.4470  223.9410 C   0  0  0  0  0  0  0  0  0  0  0  0
  140.0640   69.8240  225.1760 C   0  0  0  0  0  0  0  0  0  0  0  0
  140.2350   68.8940  226.2120 C   0  0  0  0  0  0  0  0  0  0  0  0
  140.7660   69.3050  227.4400 C   0  0  0  0  0  0  0  0  0  0  0  0
  140.9810   68.1430  228.7370 Cl  0  0  0  0  0  0  0  0  0  0  0  0
  141.1280   70.6440  227.6370 C   0  0  0  0  0  0  0  0  0  0  0  0
  140.9630   71.5760  226.6070 C   0  0  0  0  0  0  0  0  0  0  0  0
  140.4310   71.1730  225.3770 C   0  0  0  0  0  0  0  0  0  0  0  0
  140.2730   72.0750  224.3710 N   0  0  0  0  0  0  0  0  0  0  0  0
  143.6290   72.7520  220.4610 C   0  0  0  0  0  0  0  0  0  0  0  0
  143.9810   74.0690  220.8110 C   0  0  0  0  0  0  0  0  0  0  0  0
  145.3220   74.4630  220.8180 C   0  0  0  0  0  0  0  0  0  0  0  0
  146.3230   73.5560  220.4580 C   0  0  0  0  0  0  0  0  0  0  0  0
  145.9820   72.2520  220.0900 C   0  0  0  0  0  0  0  0  0  0  0  0
  144.6420   71.8490  220.0900 C   0  0  0  0  0  0  0  0  0  0  0  0
  142.0301   70.2221  220.9557 H   0  0  0  0  0  0  0  0  0  0  0  0
  141.1623   70.6806  219.4512 H   0  0  0  0  0  0  0  0  0  0  0  0
  142.9541   70.5531  219.4512 H   0  0  0  0  0  0  0  0  0  0  0  0
  141.7659   72.4558  221.4446 H   0  0  0  0  0  0  0  0  0  0  0  0
  141.7360   74.9255  221.4593 H   0  0  0  0  0  0  0  0  0  0  0  0
  140.1660   75.7852  221.2147 H   0  0  0  0  0  0  0  0  0  0  0  0
  139.2990   72.5790  220.0490 H   0  0  0  0  0  0  0  0  0  0  0  0
  138.9171   70.1125  221.9693 H   0  0  0  0  0  0  0  0  0  0  0  0
  139.2263   68.4027  223.7655 H   0  0  0  0  0  0  0  0  0  0  0  0
  139.9519   67.8421  226.0594 H   0  0  0  0  0  0  0  0  0  0  0  0
  141.5431   70.9633  228.6043 H   0  0  0  0  0  0  0  0  0  0  0  0
  141.2515   72.6258  226.7639 H   0  0  0  0  0  0  0  0  0  0  0  0
  143.1968   74.7918  221.0804 H   0  0  0  0  0  0  0  0  0  0  0  0
  145.5905   75.4897  221.1076 H   0  0  0  0  0  0  0  0  0  0  0  0
  147.3777   73.8685  220.4644 H   0  0  0  0  0  0  0  0  0  0  0  0
  146.7689   71.5404  219.7995 H   0  0  0  0  0  0  0  0  0  0  0  0
  144.3794   70.8213  219.7985 H   0  0  0  0  0  0  0  0  0  0  0  0
  1  2  1  0
  2  3  1  0
  3  4  1  0
  4  5  2  0
  4  6  1  0
  6  7  1  0
  7  8  2  0
  8  9  1  0
  8 10  1  0
 10 11  2  0
 11 12  1  0
 12 13  2  0
 13 14  1  0
 14 15  2  0
 15 16  1  0
 15 17  1  0
 17 18  2  0
 18 19  1  0
 19 20  2  0
  2 21  1  0
 21 22  2  0
 22 23  1  0
 23 24  2  0
 24 25  1  0
 25 26  2  0
 20 10  1  0
 26 21  1  0
 19 13  1  0
  1 27  1  0
  1 28  1  0
  1 29  1  0
  2 30  1  1
  6 31  1  0
  6 32  1  0
  9 33  1  0
 11 34  1  0
 12 35  1  0
 14 36  1  0
 17 37  1  0
 18 38  1  0
 22 39  1  0
 23 40  1  0
 24 41  1  0
 25 42  1  0
 26 43  1  0
M  CHG  1   3  -1
M  END
>  <meeko>  (10) 
{"free_energy": -6.43, "intermolecular_energy": -8.82, "internal_energy": -2.05, "cluster_size": 2, "cluster_id": 7, "rank_in_cluster": 1}

$$$$

     RDKit          3D

 43 45  0  0  0  0  0  0  0  0999 V2000
  137.9520   76.8190  222.9790 C   0  0  0  0  0  0  0  0  0  0  0  0
  139.2170   77.0530  222.1510 C   0  0  2  0  0  0  0  0  0  0  0  0
  140.0020   75.8200  222.1100 N   0  0  0  0  0  0  0  0  0  0  0  0
  140.4020   75.1740  220.8960 C   0  0  0  0  0  0  0  0  0  0  0  0
  139.9410   75.5590  219.7870 O   0  0  0  0  0  0  0  0  0  0  0  0
  141.3960   74.0600  220.9380 C   0  0  0  0  0  0  0  0  0  0  0  0
  140.7610   72.8100  221.3570 N   0  0  0  0  0  0  0  0  0  0  0  0
  139.8550   72.6690  222.2840 C   0  0  0  0  0  0  0  0  0  0  0  0
  138.7730   73.5430  222.3110 O   0  0  0  0  0  0  0  0  0  0  0  0
  139.9450   71.6480  223.3430 C   0  0  0  0  0  0  0  0  0  0  0  0
  139.4890   70.3390  223.1310 C   0  0  0  0  0  0  0  0  0  0  0  0
  139.5720   69.4030  224.1620 C   0  0  0  0  0  0  0  0  0  0  0  0
  140.0800   69.7840  225.4090 C   0  0  0  0  0  0  0  0  0  0  0  0
  140.1750   68.8700  226.4690 C   0  0  0  0  0  0  0  0  0  0  0  0
  140.6760   69.2850  227.7090 C   0  0  0  0  0  0  0  0  0  0  0  0
  140.7960   68.1430  229.0350 Cl  0  0  0  0  0  0  0  0  0  0  0  0
  141.0840   70.6130  227.8930 C   0  0  0  0  0  0  0  0  0  0  0  0
  140.9950   71.5290  226.8400 C   0  0  0  0  0  0  0  0  0  0  0  0
  140.4940   71.1220  225.5990 C   0  0  0  0  0  0  0  0  0  0  0  0
  140.4100   72.0080  224.5700 N   0  0  0  0  0  0  0  0  0  0  0  0
  140.0290   78.1900  222.7380 C   0  0  0  0  0  0  0  0  0  0  0  0
  139.3970   79.3070  223.3150 C   0  0  0  0  0  0  0  0  0  0  0  0
  140.1590   80.3560  223.8400 C   0  0  0  0  0  0  0  0  0  0  0  0
  141.5540   80.3090  223.7770 C   0  0  0  0  0  0  0  0  0  0  0  0
  142.1900   79.2140  223.1880 C   0  0  0  0  0  0  0  0  0  0  0  0
  141.4330   78.1570  222.6690 C   0  0  0  0  0  0  0  0  0  0  0  0
  138.2007   76.8650  224.0495 H   0  0  0  0  0  0  0  0  0  0  0  0
  137.2095   77.5950  222.7414 H   0  0  0  0  0  0  0  0  0  0  0  0
  137.5362   75.8287  222.7414 H   0  0  0  0  0  0  0  0  0  0  0  0
  138.9369   77.3332  221.1248 H   0  0  0  0  0  0  0  0  0  0  0  0
  141.8292   73.9258  219.9359 H   0  0  0  0  0  0  0  0  0  0  0  0
  142.1812   74.3164  221.6645 H   0  0  0  0  0  0  0  0  0  0  0  0
  138.8520   74.4600  222.7380 H   0  0  0  0  0  0  0  0  0  0  0  0
  139.0678   70.0516  222.1563 H   0  0  0  0  0  0  0  0  0  0  0  0
  139.2390   68.3680  223.9952 H   0  0  0  0  0  0  0  0  0  0  0  0
  139.8559   67.8271  226.3260 H   0  0  0  0  0  0  0  0  0  0  0  0
  141.4756   70.9360  228.8689 H   0  0  0  0  0  0  0  0  0  0  0  0
  141.3190   72.5698  226.9877 H   0  0  0  0  0  0  0  0  0  0  0  0
  138.2987   79.3555  223.3534 H   0  0  0  0  0  0  0  0  0  0  0  0
  139.6591   81.2194  224.3032 H   0  0  0  0  0  0  0  0  0  0  0  0
  142.1514   81.1345  224.1913 H   0  0  0  0  0  0  0  0  0  0  0  0
  143.2881   79.1820  223.1318 H   0  0  0  0  0  0  0  0  0  0  0  0
  141.9386   77.2971  222.2053 H   0  0  0  0  0  0  0  0  0  0  0  0
  1  2  1  0
  2  3  1  0
  3  4  1  0
  4  5  2  0
  4  6  1  0
  6  7  1  0
  7  8  2  0
  8  9  1  0
  8 10  1  0
 10 11  2  0
 11 12  1  0
 12 13  2  0
 13 14  1  0
 14 15  2  0
 15 16  1  0
 15 17  1  0
 17 18  2  0
 18 19  1  0
 19 20  2  0
  2 21  1  0
 21 22  2  0
 22 23  1  0
 23 24  2  0
 24 25  1  0
 25 26  2  0
 20 10  1  0
 26 21  1  0
 19 13  1  0
  1 27  1  0
  1 28  1  0
  1 29  1  0
  2 30  1  6
  6 31  1  0
  6 32  1  0
  9 33  1  0
 11 34  1  0
 12 35  1  0
 14 36  1  0
 17 37  1  0
 18 38  1  0
 22 39  1  0
 23 40  1  0
 24 41  1  0
 25 42  1  0
 26 43  1  0
M  CHG  1   3  -1
M  END
>  <meeko>  (11) 
{"free_energy": -7.29, "intermolecular_energy": -9.67, "internal_energy": -1.43, "cluster_size": 9, "cluster_id": 1, "rank_in_cluster": 5}

$$$$

     RDKit          3D

 43 45  0  0  0  0  0  0  0  0999 V2000
  139.6270   77.5790  220.5350 C   0  0  0  0  0  0  0  0  0  0  0  0
  141.1120   77.4990  220.8960 C   0  0  2  0  0  0  0  0  0  0  0  0
  141.4130   76.1650  221.4120 N   0  0  0  0  0  0  0  0  0  0  0  0
  140.4270   75.1400  221.5880 C   0  0  0  0  0  0  0  0  0  0  0  0
  139.5720   75.2300  222.5110 O   0  0  0  0  0  0  0  0  0  0  0  0
  140.3910   73.9740  220.6540 C   0  0  0  0  0  0  0  0  0  0  0  0
  140.2730   72.7170  221.3940 N   0  0  0  0  0  0  0  0  0  0  0  0
  139.3650   72.4160  222.2800 C   0  0  0  0  0  0  0  0  0  0  0  0
  138.1410   73.0760  222.2450 O   0  0  0  0  0  0  0  0  0  0  0  0
  139.5900   71.4340  223.3560 C   0  0  0  0  0  0  0  0  0  0  0  0
  139.2080   70.0930  223.2060 C   0  0  0  0  0  0  0  0  0  0  0  0
  139.4190   69.1940  224.2520 C   0  0  0  0  0  0  0  0  0  0  0  0
  139.9810   69.6420  225.4530 C   0  0  0  0  0  0  0  0  0  0  0  0
  140.2030   68.7670  226.5260 C   0  0  0  0  0  0  0  0  0  0  0  0
  140.7560   69.2490  227.7190 C   0  0  0  0  0  0  0  0  0  0  0  0
  141.0350   68.1550  229.0620 Cl  0  0  0  0  0  0  0  0  0  0  0  0
  141.0870   70.6040  227.8440 C   0  0  0  0  0  0  0  0  0  0  0  0
  140.8700   71.4820  226.7770 C   0  0  0  0  0  0  0  0  0  0  0  0
  140.3170   71.0080  225.5810 C   0  0  0  0  0  0  0  0  0  0  0  0
  140.1090   71.8580  224.5390 N   0  0  0  0  0  0  0  0  0  0  0  0
  141.4660   78.5640  221.9140 C   0  0  0  0  0  0  0  0  0  0  0  0
  141.8740   79.8470  221.5050 C   0  0  0  0  0  0  0  0  0  0  0  0
  142.2110   80.8160  222.4550 C   0  0  0  0  0  0  0  0  0  0  0  0
  142.1630   80.5100  223.8170 C   0  0  0  0  0  0  0  0  0  0  0  0
  141.7790   79.2330  224.2320 C   0  0  0  0  0  0  0  0  0  0  0  0
  141.4310   78.2610  223.2870 C   0  0  0  0  0  0  0  0  0  0  0  0
  139.0269   77.6113  221.4563 H   0  0  0  0  0  0  0  0  0  0  0  0
  139.4417   78.4884  219.9446 H   0  0  0  0  0  0  0  0  0  0  0  0
  139.3450   76.6947  219.9446 H   0  0  0  0  0  0  0  0  0  0  0  0
  141.7178   77.6788  219.9956 H   0  0  0  0  0  0  0  0  0  0  0  0
  139.5274   74.0782  219.9806 H   0  0  0  0  0  0  0  0  0  0  0  0
  141.3274   73.9562  220.0771 H   0  0  0  0  0  0  0  0  0  0  0  0
  137.9880   73.9220  222.7830 H   0  0  0  0  0  0  0  0  0  0  0  0
  138.7444   69.7517  222.2686 H   0  0  0  0  0  0  0  0  0  0  0  0
  139.1443   68.1355  224.1330 H   0  0  0  0  0  0  0  0  0  0  0  0
  139.9429   67.7024  226.4307 H   0  0  0  0  0  0  0  0  0  0  0  0
  141.5188   70.9788  228.7837 H   0  0  0  0  0  0  0  0  0  0  0  0
  141.1338   72.5452  226.8774 H   0  0  0  0  0  0  0  0  0  0  0  0
  141.9281   80.0887  220.4333 H   0  0  0  0  0  0  0  0  0  0  0  0
  142.5147   81.8217  222.1290 H   0  0  0  0  0  0  0  0  0  0  0  0
  142.4275   81.2745  224.5624 H   0  0  0  0  0  0  0  0  0  0  0  0
  141.7500   78.9904  225.3045 H   0  0  0  0  0  0  0  0  0  0  0  0
  141.1291   77.2568  223.6192 H   0  0  0  0  0  0  0  0  0  0  0  0
  1  2  1  0
  2  3  1  0
  3  4  1  0
  4  5  2  0
  4  6  1  0
  6  7  1  0
  7  8  2  0
  8  9  1  0
  8 10  1  0
 10 11  2  0
 11 12  1  0
 12 13  2  0
 13 14  1  0
 14 15  2  0
 15 16  1  0
 15 17  1  0
 17 18  2  0
 18 19  1  0
 19 20  2  0
  2 21  1  0
 21 22  2  0
 22 23  1  0
 23 24  2  0
 24 25  1  0
 25 26  2  0
 20 10  1  0
 26 21  1  0
 19 13  1  0
  1 27  1  0
  1 28  1  0
  1 29  1  0
  2 30  1  6
  6 31  1  0
  6 32  1  0
  9 33  1  0
 11 34  1  0
 12 35  1  0
 14 36  1  0
 17 37  1  0
 18 38  1  0
 22 39  1  0
 23 40  1  0
 24 41  1  0
 25 42  1  0
 26 43  1  0
M  CHG  1   3  -1
M  END
>  <meeko>  (12) 
{"free_energy": -7.62, "intermolecular_energy": -10.0, "internal_energy": -1.3, "cluster_size": 9, "cluster_id": 1, "rank_in_cluster": 1}

$$$$

     RDKit          3D

 43 45  0  0  0  0  0  0  0  0999 V2000
  138.7810   69.4600  223.8920 C   0  0  0  0  0  0  0  0  0  0  0  0
  139.3210   70.8420  224.2640 C   0  0  2  0  0  0  0  0  0  0  0  0
  140.3090   71.2590  223.2700 N   0  0  0  0  0  0  0  0  0  0  0  0
  140.0730   72.2820  222.2960 C   0  0  0  0  0  0  0  0  0  0  0  0
  140.7080   73.3700  222.3480 O   0  0  0  0  0  0  0  0  0  0  0  0
  139.0920   72.0480  221.1930 C   0  0  0  0  0  0  0  0  0  0  0  0
  138.1990   73.1970  221.0370 N   0  0  0  0  0  0  0  0  0  0  0  0
  137.6500   73.8930  221.9930 C   0  0  0  0  0  0  0  0  0  0  0  0
  136.6520   73.3100  222.7670 O   0  0  0  0  0  0  0  0  0  0  0  0
  138.0060   75.2970  222.2660 C   0  0  0  0  0  0  0  0  0  0  0  0
  137.0190   76.2870  222.3830 C   0  0  0  0  0  0  0  0  0  0  0  0
  137.3930   77.6090  222.6230 C   0  0  0  0  0  0  0  0  0  0  0  0
  138.7490   77.9440  222.7150 C   0  0  0  0  0  0  0  0  0  0  0  0
  139.1600   79.2650  222.9520 C   0  0  0  0  0  0  0  0  0  0  0  0
  140.5250   79.5700  223.0260 C   0  0  0  0  0  0  0  0  0  0  0  0
  141.0400   81.2200  223.3230 Cl  0  0  0  0  0  0  0  0  0  0  0  0
  141.4810   78.5590  222.8640 C   0  0  0  0  0  0  0  0  0  0  0  0
  141.0780   77.2410  222.6290 C   0  0  0  0  0  0  0  0  0  0  0  0
  139.7160   76.9280  222.5530 C   0  0  0  0  0  0  0  0  0  0  0  0
  139.3200   75.6450  222.3300 N   0  0  0  0  0  0  0  0  0  0  0  0
  139.9300   70.8160  225.6510 C   0  0  0  0  0  0  0  0  0  0  0  0
  139.6690   69.7520  226.5350 C   0  0  0  0  0  0  0  0  0  0  0  0
  140.2260   69.7470  227.8170 C   0  0  0  0  0  0  0  0  0  0  0  0
  141.0320   70.8090  228.2370 C   0  0  0  0  0  0  0  0  0  0  0  0
  141.2800   71.8790  227.3740 C   0  0  0  0  0  0  0  0  0  0  0  0
  140.7330   71.8860  226.0860 C   0  0  0  0  0  0  0  0  0  0  0  0
  138.5598   68.8938  224.8088 H   0  0  0  0  0  0  0  0  0  0  0  0
  137.8609   69.5731  223.2998 H   0  0  0  0  0  0  0  0  0  0  0  0
  139.5340   68.9193  223.2998 H   0  0  0  0  0  0  0  0  0  0  0  0
  138.4940   71.5672  224.2726 H   0  0  0  0  0  0  0  0  0  0  0  0
  139.6391   71.8865  220.2524 H   0  0  0  0  0  0  0  0  0  0  0  0
  138.4872   71.1635  221.4418 H   0  0  0  0  0  0  0  0  0  0  0  0
  136.7700   73.1870  223.7670 H   0  0  0  0  0  0  0  0  0  0  0  0
  135.9558   76.0220  222.2860 H   0  0  0  0  0  0  0  0  0  0  0  0
  136.6240   78.3868  222.7398 H   0  0  0  0  0  0  0  0  0  0  0  0
  138.4106   80.0601  223.0795 H   0  0  0  0  0  0  0  0  0  0  0  0
  142.5521   78.8028  222.9219 H   0  0  0  0  0  0  0  0  0  0  0  0
  141.8318   76.4497  222.5038 H   0  0  0  0  0  0  0  0  0  0  0  0
  139.0236   68.9205  226.2154 H   0  0  0  0  0  0  0  0  0  0  0  0
  140.0295   68.9051  228.4972 H   0  0  0  0  0  0  0  0  0  0  0  0
  141.4704   70.8021  229.2458 H   0  0  0  0  0  0  0  0  0  0  0  0
  141.9072   72.7187  227.7079 H   0  0  0  0  0  0  0  0  0  0  0  0
  140.9317   72.7315  225.4110 H   0  0  0  0  0  0  0  0  0  0  0  0
  1  2  1  0
  2  3  1  0
  3  4  1  0
  4  5  2  0
  4  6  1  0
  6  7  1  0
  7  8  2  0
  8  9  1  0
  8 10  1  0
 10 11  2  0
 11 12  1  0
 12 13  2  0
 13 14  1  0
 14 15  2  0
 15 16  1  0
 15 17  1  0
 17 18  2  0
 18 19  1  0
 19 20  2  0
  2 21  1  0
 21 22  2  0
 22 23  1  0
 23 24  2  0
 24 25  1  0
 25 26  2  0
 20 10  1  0
 26 21  1  0
 19 13  1  0
  1 27  1  0
  1 28  1  0
  1 29  1  0
  2 30  1  1
  6 31  1  0
  6 32  1  0
  9 33  1  0
 11 34  1  0
 12 35  1  0
 14 36  1  0
 17 37  1  0
 18 38  1  0
 22 39  1  0
 23 40  1  0
 24 41  1  0
 25 42  1  0
 26 43  1  0
M  CHG  1   3  -1
M  END
>  <meeko>  (13) 
{"free_energy": -7.35, "intermolecular_energy": -9.73, "internal_energy": -0.96, "cluster_size": 3, "cluster_id": 4, "rank_in_cluster": 1}

$$$$

     RDKit          3D

 43 45  0  0  0  0  0  0  0  0999 V2000
  140.0390   67.4420  226.4450 C   0  0  0  0  0  0  0  0  0  0  0  0
  139.1960   68.6960  226.2090 C   0  0  2  0  0  0  0  0  0  0  0  0
  138.8400   68.7810  224.7940 N   0  0  0  0  0  0  0  0  0  0  0  0
  137.9370   69.7550  224.2580 C   0  0  0  0  0  0  0  0  0  0  0  0
  138.3480   70.9090  223.9580 O   0  0  0  0  0  0  0  0  0  0  0  0
  136.5060   69.3940  224.0240 C   0  0  0  0  0  0  0  0  0  0  0  0
  135.6140   70.2840  224.7680 N   0  0  0  0  0  0  0  0  0  0  0  0
  135.4570   71.5650  224.5810 C   0  0  0  0  0  0  0  0  0  0  0  0
  136.2070   72.2010  223.5960 O   0  0  0  0  0  0  0  0  0  0  0  0
  134.5500   72.3890  225.4000 C   0  0  0  0  0  0  0  0  0  0  0  0
  133.5130   71.8060  226.1430 C   0  0  0  0  0  0  0  0  0  0  0  0
  132.6620   72.6190  226.8930 C   0  0  0  0  0  0  0  0  0  0  0  0
  132.8280   74.0080  226.8730 C   0  0  0  0  0  0  0  0  0  0  0  0
  131.9870   74.8540  227.6120 C   0  0  0  0  0  0  0  0  0  0  0  0
  132.1710   76.2410  227.5610 C   0  0  0  0  0  0  0  0  0  0  0  0
  131.1210   77.3000  228.4850 Cl  0  0  0  0  0  0  0  0  0  0  0  0
  133.1940   76.7860  226.7750 C   0  0  0  0  0  0  0  0  0  0  0  0
  134.0370   75.9490  226.0370 C   0  0  0  0  0  0  0  0  0  0  0  0
  133.8580   74.5610  226.0810 C   0  0  0  0  0  0  0  0  0  0  0  0
  134.6800   73.7420  225.3700 N   0  0  0  0  0  0  0  0  0  0  0  0
  139.9550   69.9320  226.6480 C   0  0  0  0  0  0  0  0  0  0  0  0
  139.8490   70.4150  227.9660 C   0  0  0  0  0  0  0  0  0  0  0  0
  140.5440   71.5650  228.3550 C   0  0  0  0  0  0  0  0  0  0  0  0
  141.3330   72.2530  227.4310 C   0  0  0  0  0  0  0  0  0  0  0  0
  141.4290   71.7940  226.1150 C   0  0  0  0  0  0  0  0  0  0  0  0
  140.7430   70.6390  225.7220 C   0  0  0  0  0  0  0  0  0  0  0  0
  140.1518   67.2742  227.5263 H   0  0  0  0  0  0  0  0  0  0  0  0
  139.5404   66.5739  225.9893 H   0  0  0  0  0  0  0  0  0  0  0  0
  141.0311   67.5760  225.9893 H   0  0  0  0  0  0  0  0  0  0  0  0
  138.2744   68.6347  226.8064 H   0  0  0  0  0  0  0  0  0  0  0  0
  136.2845   69.4780  222.9498 H   0  0  0  0  0  0  0  0  0  0  0  0
  136.3427   68.3629  224.3708 H   0  0  0  0  0  0  0  0  0  0  0  0
  137.0860   72.6560  223.8210 H   0  0  0  0  0  0  0  0  0  0  0  0
  133.3714   70.7152  226.1346 H   0  0  0  0  0  0  0  0  0  0  0  0
  131.8621   72.1684  227.4989 H   0  0  0  0  0  0  0  0  0  0  0  0
  131.1837   74.4277  228.2309 H   0  0  0  0  0  0  0  0  0  0  0  0
  133.3349   77.8763  226.7380 H   0  0  0  0  0  0  0  0  0  0  0  0
  134.8404   76.3809  225.4222 H   0  0  0  0  0  0  0  0  0  0  0  0
  139.2165   69.8855  228.6937 H   0  0  0  0  0  0  0  0  0  0  0  0
  140.4688   71.9279  229.3907 H   0  0  0  0  0  0  0  0  0  0  0  0
  141.8791   73.1567  227.7393 H   0  0  0  0  0  0  0  0  0  0  0  0
  142.0449   72.3414  225.3863 H   0  0  0  0  0  0  0  0  0  0  0  0
  140.8205   70.2826  224.6842 H   0  0  0  0  0  0  0  0  0  0  0  0
  1  2  1  0
  2  3  1  0
  3  4  1  0
  4  5  2  0
  4  6  1  0
  6  7  1  0
  7  8  2  0
  8  9  1  0
  8 10  1  0
 10 11  2  0
 11 12  1  0
 12 13  2  0
 13 14  1  0
 14 15  2  0
 15 16  1  0
 15 17  1  0
 17 18  2  0
 18 19  1  0
 19 20  2  0
  2 21  1  0
 21 22  2  0
 22 23  1  0
 23 24  2  0
 24 25  1  0
 25 26  2  0
 20 10  1  0
 26 21  1  0
 19 13  1  0
  1 27  1  0
  1 28  1  0
  1 29  1  0
  2 30  1  1
  6 31  1  0
  6 32  1  0
  9 33  1  0
 11 34  1  0
 12 35  1  0
 14 36  1  0
 17 37  1  0
 18 38  1  0
 22 39  1  0
 23 40  1  0
 24 41  1  0
 25 42  1  0
 26 43  1  0
M  CHG  1   3  -1
M  END
>  <meeko>  (14) 
{"free_energy": -7.52, "intermolecular_energy": -9.91, "internal_energy": -1.42, "cluster_size": 1, "cluster_id": 2, "rank_in_cluster": 1}

$$$$

     RDKit          3D

 43 45  0  0  0  0  0  0  0  0999 V2000
  140.2390   67.4550  226.2020 C   0  0  0  0  0  0  0  0  0  0  0  0
  139.2120   68.5880  226.2460 C   0  0  2  0  0  0  0  0  0  0  0  0
  138.5620   68.7030  224.9420 N   0  0  0  0  0  0  0  0  0  0  0  0
  137.3120   69.3700  224.7330 C   0  0  0  0  0  0  0  0  0  0  0  0
  136.2270   68.7950  225.0210 O   0  0  0  0  0  0  0  0  0  0  0  0
  137.2930   70.7660  224.2020 C   0  0  0  0  0  0  0  0  0  0  0  0
  137.7910   70.8080  222.8260 N   0  0  0  0  0  0  0  0  0  0  0  0
  139.0390   70.8290  222.4490 C   0  0  0  0  0  0  0  0  0  0  0  0
  139.7660   69.6430  222.4520 O   0  0  0  0  0  0  0  0  0  0  0  0
  139.7370   72.0670  222.0590 C   0  0  0  0  0  0  0  0  0  0  0  0
  141.0370   72.0330  221.5350 C   0  0  0  0  0  0  0  0  0  0  0  0
  141.6750   73.2260  221.1950 C   0  0  0  0  0  0  0  0  0  0  0  0
  141.0280   74.4480  221.4080 C   0  0  0  0  0  0  0  0  0  0  0  0
  141.6410   75.6670  221.0810 C   0  0  0  0  0  0  0  0  0  0  0  0
  140.9720   76.8730  221.3180 C   0  0  0  0  0  0  0  0  0  0  0  0
  141.7380   78.3970  220.9080 Cl  0  0  0  0  0  0  0  0  0  0  0  0
  139.6890   76.8670  221.8810 C   0  0  0  0  0  0  0  0  0  0  0  0
  139.0700   75.6560  222.2070 C   0  0  0  0  0  0  0  0  0  0  0  0
  139.7330   74.4450  221.9750 C   0  0  0  0  0  0  0  0  0  0  0  0
  139.1330   73.2650  222.2860 N   0  0  0  0  0  0  0  0  0  0  0  0
  139.8810   69.8920  226.6310 C   0  0  0  0  0  0  0  0  0  0  0  0
  140.5210   70.6890  225.6640 C   0  0  0  0  0  0  0  0  0  0  0  0
  141.1470   71.8840  226.0350 C   0  0  0  0  0  0  0  0  0  0  0  0
  141.1570   72.2840  227.3740 C   0  0  0  0  0  0  0  0  0  0  0  0
  140.5420   71.4890  228.3450 C   0  0  0  0  0  0  0  0  0  0  0  0
  139.9060   70.2970  227.9780 C   0  0  0  0  0  0  0  0  0  0  0  0
  140.5052   67.1613  227.2281 H   0  0  0  0  0  0  0  0  0  0  0  0
  139.8097   66.5913  225.6731 H   0  0  0  0  0  0  0  0  0  0  0  0
  141.1406   67.7977  225.6731 H   0  0  0  0  0  0  0  0  0  0  0  0
  138.4502   68.3615  227.0065 H   0  0  0  0  0  0  0  0  0  0  0  0
  136.2607   71.1454  224.2232 H   0  0  0  0  0  0  0  0  0  0  0  0
  137.9446   71.3903  224.8310 H   0  0  0  0  0  0  0  0  0  0  0  0
  139.6390   68.9540  223.1850 H   0  0  0  0  0  0  0  0  0  0  0  0
  141.5510   71.0709  221.3928 H   0  0  0  0  0  0  0  0  0  0  0  0
  142.6852   73.2060  220.7601 H   0  0  0  0  0  0  0  0  0  0  0  0
  142.6479   75.6747  220.6381 H   0  0  0  0  0  0  0  0  0  0  0  0
  139.1672   77.8173  222.0671 H   0  0  0  0  0  0  0  0  0  0  0  0
  138.0614   75.6550  222.6460 H   0  0  0  0  0  0  0  0  0  0  0  0
  140.5292   70.3709  224.6110 H   0  0  0  0  0  0  0  0  0  0  0  0
  141.6321   72.5098  225.2714 H   0  0  0  0  0  0  0  0  0  0  0  0
  141.6488   73.2243  227.6636 H   0  0  0  0  0  0  0  0  0  0  0  0
  140.5577   71.8005  229.3999 H   0  0  0  0  0  0  0  0  0  0  0  0
  139.4238   69.6745  228.7461 H   0  0  0  0  0  0  0  0  0  0  0  0
  1  2  1  0
  2  3  1  0
  3  4  1  0
  4  5  2  0
  4  6  1  0
  6  7  1  0
  7  8  2  0
  8  9  1  0
  8 10  1  0
 10 11  2  0
 11 12  1  0
 12 13  2  0
 13 14  1  0
 14 15  2  0
 15 16  1  0
 15 17  1  0
 17 18  2  0
 18 19  1  0
 19 20  2  0
  2 21  1  0
 21 22  2  0
 22 23  1  0
 23 24  2  0
 24 25  1  0
 25 26  2  0
 20 10  1  0
 26 21  1  0
 19 13  1  0
  1 27  1  0
  1 28  1  0
  1 29  1  0
  2 30  1  1
  6 31  1  0
  6 32  1  0
  9 33  1  0
 11 34  1  0
 12 35  1  0
 14 36  1  0
 17 37  1  0
 18 38  1  0
 22 39  1  0
 23 40  1  0
 24 41  1  0
 25 42  1  0
 26 43  1  0
M  CHG  1   3  -1
M  END
>  <meeko>  (15) 
{"free_energy": -6.55, "intermolecular_energy": -8.93, "internal_energy": -2.16, "cluster_size": 3, "cluster_id": 3, "rank_in_cluster": 3}

$$$$

     RDKit          3D

 43 45  0  0  0  0  0  0  0  0999 V2000
  138.8080   76.9480  222.7010 C   0  0  0  0  0  0  0  0  0  0  0  0
  140.0540   76.9590  221.8140 C   0  0  2  0  0  0  0  0  0  0  0  0
  140.7570   75.6850  221.9530 N   0  0  0  0  0  0  0  0  0  0  0  0
  141.4920   75.0640  220.8920 C   0  0  0  0  0  0  0  0  0  0  0  0
  142.5730   75.5700  220.4840 O   0  0  0  0  0  0  0  0  0  0  0  0
  140.9930   73.7930  220.2850 C   0  0  0  0  0  0  0  0  0  0  0  0
  140.8690   72.7440  221.2980 N   0  0  0  0  0  0  0  0  0  0  0  0
  139.9990   72.6970  222.2680 C   0  0  0  0  0  0  0  0  0  0  0  0
  139.0100   73.6730  222.3380 O   0  0  0  0  0  0  0  0  0  0  0  0
  140.0390   71.6770  223.3310 C   0  0  0  0  0  0  0  0  0  0  0  0
  139.5400   70.3840  223.1160 C   0  0  0  0  0  0  0  0  0  0  0  0
  139.5770   69.4490  224.1510 C   0  0  0  0  0  0  0  0  0  0  0  0
  140.0820   69.8150  225.4030 C   0  0  0  0  0  0  0  0  0  0  0  0
  140.1310   68.9010  226.4670 C   0  0  0  0  0  0  0  0  0  0  0  0
  140.6310   69.3030  227.7110 C   0  0  0  0  0  0  0  0  0  0  0  0
  140.6930   68.1600  229.0420 Cl  0  0  0  0  0  0  0  0  0  0  0  0
  141.0830   70.6150  227.8980 C   0  0  0  0  0  0  0  0  0  0  0  0
  141.0400   71.5310  226.8410 C   0  0  0  0  0  0  0  0  0  0  0  0
  140.5400   71.1380  225.5940 C   0  0  0  0  0  0  0  0  0  0  0  0
  140.5010   72.0240  224.5620 N   0  0  0  0  0  0  0  0  0  0  0  0
  140.9570   78.1170  222.1870 C   0  0  0  0  0  0  0  0  0  0  0  0
  141.3730   78.3090  223.5170 C   0  0  0  0  0  0  0  0  0  0  0  0
  142.1960   79.3900  223.8500 C   0  0  0  0  0  0  0  0  0  0  0  0
  142.5940   80.2980  222.8650 C   0  0  0  0  0  0  0  0  0  0  0  0
  142.1690   80.1270  221.5450 C   0  0  0  0  0  0  0  0  0  0  0  0
  141.3530   79.0420  221.2050 C   0  0  0  0  0  0  0  0  0  0  0  0
  139.1107   76.9507  223.7585 H   0  0  0  0  0  0  0  0  0  0  0  0
  138.2007   77.8408  222.4912 H   0  0  0  0  0  0  0  0  0  0  0  0
  138.2165   76.0446  222.4912 H   0  0  0  0  0  0  0  0  0  0  0  0
  139.7549   77.0895  220.7635 H   0  0  0  0  0  0  0  0  0  0  0  0
  140.0075   73.9734  219.8308 H   0  0  0  0  0  0  0  0  0  0  0  0
  141.7128   73.4615  219.5221 H   0  0  0  0  0  0  0  0  0  0  0  0
  139.1630   74.5370  222.8460 H   0  0  0  0  0  0  0  0  0  0  0  0
  139.1217   70.1085  222.1367 H   0  0  0  0  0  0  0  0  0  0  0  0
  139.2097   68.4259  223.9827 H   0  0  0  0  0  0  0  0  0  0  0  0
  139.7767   67.8696  226.3234 H   0  0  0  0  0  0  0  0  0  0  0  0
  141.4729   70.9264  228.8783 H   0  0  0  0  0  0  0  0  0  0  0  0
  141.3991   72.5600  226.9901 H   0  0  0  0  0  0  0  0  0  0  0  0
  141.0497   77.6059  224.2987 H   0  0  0  0  0  0  0  0  0  0  0  0
  142.5305   79.5256  224.8891 H   0  0  0  0  0  0  0  0  0  0  0  0
  143.2417   81.1471  223.1288 H   0  0  0  0  0  0  0  0  0  0  0  0
  142.4763   80.8464  220.7717 H   0  0  0  0  0  0  0  0  0  0  0  0
  141.0199   78.9123  220.1647 H   0  0  0  0  0  0  0  0  0  0  0  0
  1  2  1  0
  2  3  1  0
  3  4  1  0
  4  5  2  0
  4  6  1  0
  6  7  1  0
  7  8  2  0
  8  9  1  0
  8 10  1  0
 10 11  2  0
 11 12  1  0
 12 13  2  0
 13 14  1  0
 14 15  2  0
 15 16  1  0
 15 17  1  0
 17 18  2  0
 18 19  1  0
 19 20  2  0
  2 21  1  0
 21 22  2  0
 22 23  1  0
 23 24  2  0
 24 25  1  0
 25 26  2  0
 20 10  1  0
 26 21  1  0
 19 13  1  0
  1 27  1  0
  1 28  1  0
  1 29  1  0
  2 30  1  6
  6 31  1  0
  6 32  1  0
  9 33  1  0
 11 34  1  0
 12 35  1  0
 14 36  1  0
 17 37  1  0
 18 38  1  0
 22 39  1  0
 23 40  1  0
 24 41  1  0
 25 42  1  0
 26 43  1  0
M  CHG  1   3  -1
M  END
>  <meeko>  (16) 
{"free_energy": -7.53, "intermolecular_energy": -9.92, "internal_energy": -1.49, "cluster_size": 9, "cluster_id": 1, "rank_in_cluster": 2}

$$$$

     RDKit          3D

 43 45  0  0  0  0  0  0  0  0999 V2000
  138.2560   76.7720  222.6910 C   0  0  0  0  0  0  0  0  0  0  0  0
  138.9930   77.2160  221.4270 C   0  0  2  0  0  0  0  0  0  0  0  0
  139.4860   76.0390  220.7150 N   0  0  0  0  0  0  0  0  0  0  0  0
  140.5080   75.1740  221.2240 C   0  0  0  0  0  0  0  0  0  0  0  0
  141.0360   75.4010  222.3460 O   0  0  0  0  0  0  0  0  0  0  0  0
  140.9300   73.9760  220.4360 C   0  0  0  0  0  0  0  0  0  0  0  0
  140.3610   72.7520  221.0020 N   0  0  0  0  0  0  0  0  0  0  0  0
  139.5630   72.6660  222.0290 C   0  0  0  0  0  0  0  0  0  0  0  0
  138.5410   73.6000  222.1710 O   0  0  0  0  0  0  0  0  0  0  0  0
  139.7200   71.6470  223.0820 C   0  0  0  0  0  0  0  0  0  0  0  0
  139.2810   70.3300  222.8880 C   0  0  0  0  0  0  0  0  0  0  0  0
  139.4280   69.3950  223.9140 C   0  0  0  0  0  0  0  0  0  0  0  0
  139.9840   69.7860  225.1380 C   0  0  0  0  0  0  0  0  0  0  0  0
  140.1440   68.8730  226.1910 C   0  0  0  0  0  0  0  0  0  0  0  0
  140.6910   69.2990  227.4080 C   0  0  0  0  0  0  0  0  0  0  0  0
  140.8920   68.1580  228.7260 Cl  0  0  0  0  0  0  0  0  0  0  0  0
  141.0810   70.6340  227.5760 C   0  0  0  0  0  0  0  0  0  0  0  0
  140.9270   71.5480  226.5290 C   0  0  0  0  0  0  0  0  0  0  0  0
  140.3790   71.1310  225.3100 C   0  0  0  0  0  0  0  0  0  0  0  0
  140.2320   72.0160  224.2870 N   0  0  0  0  0  0  0  0  0  0  0  0
  140.1340   78.1490  221.7810 C   0  0  0  0  0  0  0  0  0  0  0  0
  140.7920   78.8960  220.7870 C   0  0  0  0  0  0  0  0  0  0  0  0
  141.8520   79.7430  221.1260 C   0  0  0  0  0  0  0  0  0  0  0  0
  142.2780   79.8380  222.4530 C   0  0  0  0  0  0  0  0  0  0  0  0
  141.6450   79.0840  223.4440 C   0  0  0  0  0  0  0  0  0  0  0  0
  140.5770   78.2420  223.1130 C   0  0  0  0  0  0  0  0  0  0  0  0
  138.8136   77.1079  223.5777 H   0  0  0  0  0  0  0  0  0  0  0  0
  137.2486   77.2137  222.7023 H   0  0  0  0  0  0  0  0  0  0  0  0
  138.1756   75.6750  222.7023 H   0  0  0  0  0  0  0  0  0  0  0  0
  138.2989   77.7643  220.7730 H   0  0  0  0  0  0  0  0  0  0  0  0
  140.5839   74.0875  219.3978 H   0  0  0  0  0  0  0  0  0  0  0  0
  142.0270   73.9019  220.4693 H   0  0  0  0  0  0  0  0  0  0  0  0
  138.7430   74.5920  222.2260 H   0  0  0  0  0  0  0  0  0  0  0  0
  138.8231   70.0349  221.9324 H   0  0  0  0  0  0  0  0  0  0  0  0
  139.1078   68.3538  223.7613 H   0  0  0  0  0  0  0  0  0  0  0  0
  139.8402   67.8238  226.0610 H   0  0  0  0  0  0  0  0  0  0  0  0
  141.5094   70.9641  228.5339 H   0  0  0  0  0  0  0  0  0  0  0  0
  141.2365   72.5950  226.6632 H   0  0  0  0  0  0  0  0  0  0  0  0
  140.4712   78.8135  219.7380 H   0  0  0  0  0  0  0  0  0  0  0  0
  142.3516   80.3359  220.3457 H   0  0  0  0  0  0  0  0  0  0  0  0
  143.1111   80.5059  222.7173 H   0  0  0  0  0  0  0  0  0  0  0  0
  141.9868   79.1521  224.4873 H   0  0  0  0  0  0  0  0  0  0  0  0
  140.0821   77.6507  223.8975 H   0  0  0  0  0  0  0  0  0  0  0  0
  1  2  1  0
  2  3  1  0
  3  4  1  0
  4  5  2  0
  4  6  1  0
  6  7  1  0
  7  8  2  0
  8  9  1  0
  8 10  1  0
 10 11  2  0
 11 12  1  0
 12 13  2  0
 13 14  1  0
 14 15  2  0
 15 16  1  0
 15 17  1  0
 17 18  2  0
 18 19  1  0
 19 20  2  0
  2 21  1  0
 21 22  2  0
 22 23  1  0
 23 24  2  0
 24 25  1  0
 25 26  2  0
 20 10  1  0
 26 21  1  0
 19 13  1  0
  1 27  1  0
  1 28  1  0
  1 29  1  0
  2 30  1  6
  6 31  1  0
  6 32  1  0
  9 33  1  0
 11 34  1  0
 12 35  1  0
 14 36  1  0
 17 37  1  0
 18 38  1  0
 22 39  1  0
 23 40  1  0
 24 41  1  0
 25 42  1  0
 26 43  1  0
M  CHG  1   3  -1
M  END
>  <meeko>  (17) 
{"free_energy": -6.52, "intermolecular_energy": -8.91, "internal_energy": -1.73, "cluster_size": 9, "cluster_id": 1, "rank_in_cluster": 9}

$$$$

     RDKit          3D

 43 45  0  0  0  0  0  0  0  0999 V2000
  138.0990   78.6620  222.9560 C   0  0  0  0  0  0  0  0  0  0  0  0
  139.4220   78.2330  222.3190 C   0  0  2  0  0  0  0  0  0  0  0  0
  139.6990   76.8420  222.6710 N   0  0  0  0  0  0  0  0  0  0  0  0
  139.2970   75.7250  221.8690 C   0  0  0  0  0  0  0  0  0  0  0  0
  138.0810   75.5460  221.5890 O   0  0  0  0  0  0  0  0  0  0  0  0
  140.3270   74.7840  221.3330 C   0  0  0  0  0  0  0  0  0  0  0  0
  140.5000   73.6370  222.2260 N   0  0  0  0  0  0  0  0  0  0  0  0
  139.6630   72.6530  222.4020 C   0  0  0  0  0  0  0  0  0  0  0  0
  138.5290   72.5780  221.5990 O   0  0  0  0  0  0  0  0  0  0  0  0
  139.8360   71.6330  223.4520 C   0  0  0  0  0  0  0  0  0  0  0  0
  139.4170   70.3090  223.2530 C   0  0  0  0  0  0  0  0  0  0  0  0
  139.5790   69.3740  224.2760 C   0  0  0  0  0  0  0  0  0  0  0  0
  140.1280   69.7690  225.5010 C   0  0  0  0  0  0  0  0  0  0  0  0
  140.3010   68.8550  226.5520 C   0  0  0  0  0  0  0  0  0  0  0  0
  140.8410   69.2850  227.7700 C   0  0  0  0  0  0  0  0  0  0  0  0
  141.0590   68.1430  229.0840 Cl  0  0  0  0  0  0  0  0  0  0  0  0
  141.2090   70.6250  227.9430 C   0  0  0  0  0  0  0  0  0  0  0  0
  141.0410   71.5410  226.8990 C   0  0  0  0  0  0  0  0  0  0  0  0
  140.5010   71.1200  225.6780 C   0  0  0  0  0  0  0  0  0  0  0  0
  140.3410   72.0060  224.6580 N   0  0  0  0  0  0  0  0  0  0  0  0
  140.5460   79.1400  222.7780 C   0  0  0  0  0  0  0  0  0  0  0  0
  140.2750   80.4100  223.3200 C   0  0  0  0  0  0  0  0  0  0  0  0
  141.3230   81.2420  223.7260 C   0  0  0  0  0  0  0  0  0  0  0  0
  142.6480   80.8250  223.5790 C   0  0  0  0  0  0  0  0  0  0  0  0
  142.9280   79.5740  223.0230 C   0  0  0  0  0  0  0  0  0  0  0  0
  141.8830   78.7330  222.6220 C   0  0  0  0  0  0  0  0  0  0  0  0
  138.1927   78.6316  224.0516 H   0  0  0  0  0  0  0  0  0  0  0  0
  137.8535   79.6858  222.6372 H   0  0  0  0  0  0  0  0  0  0  0  0
  137.2995   77.9771  222.6372 H   0  0  0  0  0  0  0  0  0  0  0  0
  139.3463   78.3161  221.2248 H   0  0  0  0  0  0  0  0  0  0  0  0
  140.0073   74.4253  220.3435 H   0  0  0  0  0  0  0  0  0  0  0  0
  141.2856   75.3180  221.2561 H   0  0  0  0  0  0  0  0  0  0  0  0
  137.9640   73.4000  221.4140 H   0  0  0  0  0  0  0  0  0  0  0  0
  138.9636   70.0098  222.2965 H   0  0  0  0  0  0  0  0  0  0  0  0
  139.2757   68.3283  224.1198 H   0  0  0  0  0  0  0  0  0  0  0  0
  140.0126   67.8019  226.4188 H   0  0  0  0  0  0  0  0  0  0  0  0
  141.6313   70.9583  228.9024 H   0  0  0  0  0  0  0  0  0  0  0  0
  141.3333   72.5924  227.0376 H   0  0  0  0  0  0  0  0  0  0  0  0
  139.2341   80.7498  223.4248 H   0  0  0  0  0  0  0  0  0  0  0  0
  141.1034   82.2276  224.1623 H   0  0  0  0  0  0  0  0  0  0  0  0
  143.4704   81.4809  223.9007 H   0  0  0  0  0  0  0  0  0  0  0  0
  143.9718   79.2492  222.9001 H   0  0  0  0  0  0  0  0  0  0  0  0
  142.1087   77.7499  222.1831 H   0  0  0  0  0  0  0  0  0  0  0  0
  1  2  1  0
  2  3  1  0
  3  4  1  0
  4  5  2  0
  4  6  1  0
  6  7  1  0
  7  8  2  0
  8  9  1  0
  8 10  1  0
 10 11  2  0
 11 12  1  0
 12 13  2  0
 13 14  1  0
 14 15  2  0
 15 16  1  0
 15 17  1  0
 17 18  2  0
 18 19  1  0
 19 20  2  0
  2 21  1  0
 21 22  2  0
 22 23  1  0
 23 24  2  0
 24 25  1  0
 25 26  2  0
 20 10  1  0
 26 21  1  0
 19 13  1  0
  1 27  1  0
  1 28  1  0
  1 29  1  0
  2 30  1  6
  6 31  1  0
  6 32  1  0
  9 33  1  0
 11 34  1  0
 12 35  1  0
 14 36  1  0
 17 37  1  0
 18 38  1  0
 22 39  1  0
 23 40  1  0
 24 41  1  0
 25 42  1  0
 26 43  1  0
M  CHG  1   3  -1
M  END
>  <meeko>  (18) 
{"free_energy": -7.39, "intermolecular_energy": -9.78, "internal_energy": -1.3, "cluster_size": 9, "cluster_id": 1, "rank_in_cluster": 4}

$$$$

     RDKit          3D

 43 45  0  0  0  0  0  0  0  0999 V2000
  141.4500   78.5180  219.7800 C   0  0  0  0  0  0  0  0  0  0  0  0
  141.4650   77.9840  221.2130 C   0  0  2  0  0  0  0  0  0  0  0  0
  140.2380   77.2280  221.4590 N   0  0  0  0  0  0  0  0  0  0  0  0
  140.2200   75.8670  221.9070 C   0  0  0  0  0  0  0  0  0  0  0  0
  141.2940   75.2120  222.0000 O   0  0  0  0  0  0  0  0  0  0  0  0
  138.9270   75.2290  222.2970 C   0  0  0  0  0  0  0  0  0  0  0  0
  138.8390   73.8650  221.7720 N   0  0  0  0  0  0  0  0  0  0  0  0
  139.7490   72.9350  221.8610 C   0  0  0  0  0  0  0  0  0  0  0  0
  140.7190   72.8410  220.8680 O   0  0  0  0  0  0  0  0  0  0  0  0
  139.7720   71.9400  222.9480 C   0  0  0  0  0  0  0  0  0  0  0  0
  139.1290   70.7010  222.8120 C   0  0  0  0  0  0  0  0  0  0  0  0
  139.1560   69.7910  223.8690 C   0  0  0  0  0  0  0  0  0  0  0  0
  139.7960   70.1310  225.0660 C   0  0  0  0  0  0  0  0  0  0  0  0
  139.8380   69.2410  226.1500 C   0  0  0  0  0  0  0  0  0  0  0  0
  140.4750   69.6160  227.3390 C   0  0  0  0  0  0  0  0  0  0  0  0
  140.5300   68.5030  228.6940 Cl  0  0  0  0  0  0  0  0  0  0  0  0
  141.0710   70.8790  227.4490 C   0  0  0  0  0  0  0  0  0  0  0  0
  141.0350   71.7700  226.3720 C   0  0  0  0  0  0  0  0  0  0  0  0
  140.3990   71.4030  225.1810 C   0  0  0  0  0  0  0  0  0  0  0  0
  140.3650   72.2660  224.1290 N   0  0  0  0  0  0  0  0  0  0  0  0
  141.6030   79.1240  222.2000 C   0  0  0  0  0  0  0  0  0  0  0  0
  140.4820   79.8810  222.5920 C   0  0  0  0  0  0  0  0  0  0  0  0
  140.6260   80.9390  223.4940 C   0  0  0  0  0  0  0  0  0  0  0  0
  141.8870   81.2660  223.9980 C   0  0  0  0  0  0  0  0  0  0  0  0
  143.0090   80.5350  223.5990 C   0  0  0  0  0  0  0  0  0  0  0  0
  142.8700   79.4680  222.7040 C   0  0  0  0  0  0  0  0  0  0  0  0
  141.4191   79.6174  219.7987 H   0  0  0  0  0  0  0  0  0  0  0  0
  142.3578   78.1856  219.2553 H   0  0  0  0  0  0  0  0  0  0  0  0
  140.5623   78.1351  219.2553 H   0  0  0  0  0  0  0  0  0  0  0  0
  142.3294   77.3169  221.3463 H   0  0  0  0  0  0  0  0  0  0  0  0
  138.8571   75.1979  223.3943 H   0  0  0  0  0  0  0  0  0  0  0  0
  138.1013   75.8218  221.8765 H   0  0  0  0  0  0  0  0  0  0  0  0
  141.2840   73.6420  220.6110 H   0  0  0  0  0  0  0  0  0  0  0  0
  138.6066   70.4483  221.8775 H   0  0  0  0  0  0  0  0  0  0  0  0
  138.6749   68.8076  223.7617 H   0  0  0  0  0  0  0  0  0  0  0  0
  139.3705   68.2489  226.0656 H   0  0  0  0  0  0  0  0  0  0  0  0
  141.5688   71.1707  228.3855 H   0  0  0  0  0  0  0  0  0  0  0  0
  141.5068   72.7597  226.4611 H   0  0  0  0  0  0  0  0  0  0  0  0
  139.4886   79.6386  222.1865 H   0  0  0  0  0  0  0  0  0  0  0  0
  139.7436   81.5159  223.8079 H   0  0  0  0  0  0  0  0  0  0  0  0
  141.9967   82.0985  224.7086 H   0  0  0  0  0  0  0  0  0  0  0  0
  144.0032   80.7986  223.9890 H   0  0  0  0  0  0  0  0  0  0  0  0
  143.7564   78.8955  222.3932 H   0  0  0  0  0  0  0  0  0  0  0  0
  1  2  1  0
  2  3  1  0
  3  4  1  0
  4  5  2  0
  4  6  1  0
  6  7  1  0
  7  8  2  0
  8  9  1  0
  8 10  1  0
 10 11  2  0
 11 12  1  0
 12 13  2  0
 13 14  1  0
 14 15  2  0
 15 16  1  0
 15 17  1  0
 17 18  2  0
 18 19  1  0
 19 20  2  0
  2 21  1  0
 21 22  2  0
 22 23  1  0
 23 24  2  0
 24 25  1  0
 25 26  2  0
 20 10  1  0
 26 21  1  0
 19 13  1  0
  1 27  1  0
  1 28  1  0
  1 29  1  0
  2 30  1  6
  6 31  1  0
  6 32  1  0
  9 33  1  0
 11 34  1  0
 12 35  1  0
 14 36  1  0
 17 37  1  0
 18 38  1  0
 22 39  1  0
 23 40  1  0
 24 41  1  0
 25 42  1  0
 26 43  1  0
M  CHG  1   3  -1
M  END
>  <meeko>  (19) 
{"free_energy": -7.09, "intermolecular_energy": -9.48, "internal_energy": -1.35, "cluster_size": 9, "cluster_id": 1, "rank_in_cluster": 7}

$$$$

     RDKit          3D

 43 45  0  0  0  0  0  0  0  0999 V2000
  142.6620   76.3580  219.7340 C   0  0  0  0  0  0  0  0  0  0  0  0
  142.5210   74.8790  219.3730 C   0  0  2  0  0  0  0  0  0  0  0  0
  141.2920   74.3520  219.9630 N   0  0  0  0  0  0  0  0  0  0  0  0
  140.5260   73.2890  219.3840 C   0  0  0  0  0  0  0  0  0  0  0  0
  141.0680   72.4690  218.5940 O   0  0  0  0  0  0  0  0  0  0  0  0
  139.0840   73.1310  219.7420 C   0  0  0  0  0  0  0  0  0  0  0  0
  138.9370   72.4300  221.0180 N   0  0  0  0  0  0  0  0  0  0  0  0
  139.6220   72.6410  222.1070 C   0  0  0  0  0  0  0  0  0  0  0  0
  140.2680   73.8630  222.2730 O   0  0  0  0  0  0  0  0  0  0  0  0
  139.7880   71.6230  223.1590 C   0  0  0  0  0  0  0  0  0  0  0  0
  139.3810   70.2960  222.9560 C   0  0  0  0  0  0  0  0  0  0  0  0
  139.5360   69.3620  223.9810 C   0  0  0  0  0  0  0  0  0  0  0  0
  140.0650   69.7610  225.2130 C   0  0  0  0  0  0  0  0  0  0  0  0
  140.2310   68.8490  226.2660 C   0  0  0  0  0  0  0  0  0  0  0  0
  140.7520   69.2830  227.4920 C   0  0  0  0  0  0  0  0  0  0  0  0
  140.9600   68.1430  228.8090 Cl  0  0  0  0  0  0  0  0  0  0  0  0
  141.1090   70.6260  227.6680 C   0  0  0  0  0  0  0  0  0  0  0  0
  140.9490   71.5400  226.6220 C   0  0  0  0  0  0  0  0  0  0  0  0
  140.4270   71.1150  225.3950 C   0  0  0  0  0  0  0  0  0  0  0  0
  140.2750   72.0000  224.3720 N   0  0  0  0  0  0  0  0  0  0  0  0
  143.7280   74.1000  219.8560 C   0  0  0  0  0  0  0  0  0  0  0  0
  143.7790   72.6990  219.7390 C   0  0  0  0  0  0  0  0  0  0  0  0
  144.8930   71.9910  220.2010 C   0  0  0  0  0  0  0  0  0  0  0  0
  145.9560   72.6700  220.8020 C   0  0  0  0  0  0  0  0  0  0  0  0
  145.9060   74.0590  220.9420 C   0  0  0  0  0  0  0  0  0  0  0  0
  144.7980   74.7740  220.4730 C   0  0  0  0  0  0  0  0  0  0  0  0
  142.6726   76.4689  220.8283 H   0  0  0  0  0  0  0  0  0  0  0  0
  143.6015   76.7493  219.3167 H   0  0  0  0  0  0  0  0  0  0  0  0
  141.8133   76.9198  219.3167 H   0  0  0  0  0  0  0  0  0  0  0  0
  142.4665   74.7731  218.2795 H   0  0  0  0  0  0  0  0  0  0  0  0
  138.6216   74.1259  219.8222 H   0  0  0  0  0  0  0  0  0  0  0  0
  138.5895   72.5399  218.9571 H   0  0  0  0  0  0  0  0  0  0  0  0
  140.8220   74.2670  221.5270 H   0  0  0  0  0  0  0  0  0  0  0  0
  138.9420   69.9933  221.9939 H   0  0  0  0  0  0  0  0  0  0  0  0
  139.2428   68.3140  223.8206 H   0  0  0  0  0  0  0  0  0  0  0  0
  139.9523   67.7937  226.1292 H   0  0  0  0  0  0  0  0  0  0  0  0
  141.5167   70.9628  228.6325 H   0  0  0  0  0  0  0  0  0  0  0  0
  141.2334   72.5931  226.7635 H   0  0  0  0  0  0  0  0  0  0  0  0
  142.9379   72.1574  219.2815 H   0  0  0  0  0  0  0  0  0  0  0  0
  144.9325   70.8972  220.0910 H   0  0  0  0  0  0  0  0  0  0  0  0
  146.8314   72.1113  221.1646 H   0  0  0  0  0  0  0  0  0  0  0  0
  146.7397   74.5922  221.4221 H   0  0  0  0  0  0  0  0  0  0  0  0
  144.7635   75.8675  220.5872 H   0  0  0  0  0  0  0  0  0  0  0  0
  1  2  1  0
  2  3  1  0
  3  4  1  0
  4  5  2  0
  4  6  1  0
  6  7  1  0
  7  8  2  0
  8  9  1  0
  8 10  1  0
 10 11  2  0
 11 12  1  0
 12 13  2  0
 13 14  1  0
 14 15  2  0
 15 16  1  0
 15 17  1  0
 17 18  2  0
 18 19  1  0
 19 20  2  0
  2 21  1  0
 21 22  2  0
 22 23  1  0
 23 24  2  0
 24 25  1  0
 25 26  2  0
 20 10  1  0
 26 21  1  0
 19 13  1  0
  1 27  1  0
  1 28  1  0
  1 29  1  0
  2 30  1  6
  6 31  1  0
  6 32  1  0
  9 33  1  0
 11 34  1  0
 12 35  1  0
 14 36  1  0
 17 37  1  0
 18 38  1  0
 22 39  1  0
 23 40  1  0
 24 41  1  0
 25 42  1  0
 26 43  1  0
M  CHG  1   3  -1
M  END
>  <meeko>  (20) 
{"free_energy": -6.38, "intermolecular_energy": -8.76, "internal_energy": -1.77, "cluster_size": 2, "cluster_id": 7, "rank_in_cluster": 2}

$$$$
