
     RDKit          3D

 43 45  0  0  0  0  0  0  0  0999 V2000
  140.0290   67.4910  226.4490 C   0  0  0  0  0  0  0  0  0  0  0  0
  139.2680   68.7430  226.0180 C   0  0  2  0  0  0  0  0  0  0  0  0
  139.1890   68.7880  224.5600 N   0  0  0  0  0  0  0  0  0  0  0  0
  137.9990   69.1540  223.8560 C   0  0  0  0  0  0  0  0  0  0  0  0
  136.9730   69.5260  224.4890 O   0  0  0  0  0  0  0  0  0  0  0  0
  138.0020   69.2030  222.3610 C   0  0  0  0  0  0  0  0  0  0  0  0
  138.1500   70.5890  221.9220 N   0  0  0  0  0  0  0  0  0  0  0  0
  139.0230   71.4530  222.3620 C   0  0  0  0  0  0  0  0  0  0  0  0
  140.2520   71.0570  222.8970 O   0  0  0  0  0  0  0  0  0  0  0  0
  138.7150   72.8940  222.3200 C   0  0  0  0  0  0  0  0  0  0  0  0
  137.3920   73.3690  222.3320 C   0  0  0  0  0  0  0  0  0  0  0  0
  137.1490   74.7440  222.3360 C   0  0  0  0  0  0  0  0  0  0  0  0
  138.2230   75.6410  222.3310 C   0  0  0  0  0  0  0  0  0  0  0  0
  138.0150   77.0290  222.3440 C   0  0  0  0  0  0  0  0  0  0  0  0
  139.1110   77.9000  222.3430 C   0  0  0  0  0  0  0  0  0  0  0  0
  138.8510   79.6340  222.3630 Cl  0  0  0  0  0  0  0  0  0  0  0  0
  140.4150   77.3890  222.3300 C   0  0  0  0  0  0  0  0  0  0  0  0
  140.6290   76.0080  222.3170 C   0  0  0  0  0  0  0  0  0  0  0  0
  139.5390   75.1290  222.3180 C   0  0  0  0  0  0  0  0  0  0  0  0
  139.7450   73.7860  222.3150 N   0  0  0  0  0  0  0  0  0  0  0  0
  139.9540   69.9900  226.5360 C   0  0  0  0  0  0  0  0  0  0  0  0
  140.7640   70.7610  225.6830 C   0  0  0  0  0  0  0  0  0  0  0  0
  141.4190   71.8960  226.1700 C   0  0  0  0  0  0  0  0  0  0  0  0
  141.2740   72.2740  227.5060 C   0  0  0  0  0  0  0  0  0  0  0  0
  140.4640   71.5200  228.3600 C   0  0  0  0  0  0  0  0  0  0  0  0
  139.8030   70.3880  227.8780 C   0  0  0  0  0  0  0  0  0  0  0  0
  140.0597   67.4405  227.5474 H   0  0  0  0  0  0  0  0  0  0  0  0
  139.5202   66.5989  226.0550 H   0  0  0  0  0  0  0  0  0  0  0  0
  141.0552   67.5319  226.0550 H   0  0  0  0  0  0  0  0  0  0  0  0
  138.2533   68.7041  226.4409 H   0  0  0  0  0  0  0  0  0  0  0  0
  138.8405   68.6043  221.9757 H   0  0  0  0  0  0  0  0  0  0  0  0
  137.0552   68.7949  221.9777 H   0  0  0  0  0  0  0  0  0  0  0  0
  140.3790   70.2310  223.4660 H   0  0  0  0  0  0  0  0  0  0  0  0
  136.5511   72.6599  222.3382 H   0  0  0  0  0  0  0  0  0  0  0  0
  136.1157   75.1212  222.3431 H   0  0  0  0  0  0  0  0  0  0  0  0
  136.9916   77.4321  222.3550 H   0  0  0  0  0  0  0  0  0  0  0  0
  141.2734   78.0768  222.3300 H   0  0  0  0  0  0  0  0  0  0  0  0
  141.6548   75.6111  222.3060 H   0  0  0  0  0  0  0  0  0  0  0  0
  140.8826   70.4699  224.6289 H   0  0  0  0  0  0  0  0  0  0  0  0
  142.0515   72.4939  225.4974 H   0  0  0  0  0  0  0  0  0  0  0  0
  141.7965   73.1642  227.8862 H   0  0  0  0  0  0  0  0  0  0  0  0
  140.3471   71.8184  229.4123 H   0  0  0  0  0  0  0  0  0  0  0  0
  139.1597   69.8031  228.5519 H   0  0  0  0  0  0  0  0  0  0  0  0
  1  2  1  0
  2  3  1  0
  3  4  1  0
  4  5  2  0
  4  6  1  0
  6  7  1  0
  7  8  2  0
  8  9  1  0
  8 10  1  0
 10 11  2  0
 11 12  1  0
 12 13  2  0
 13 14  1  0
 14 15  2  0
 15 16  1  0
 15 17  1  0
 17 18  2  0
 18 19  1  0
 19 20  2  0
  2 21  1  0
 21 22  2  0
 22 23  1  0
 23 24  2  0
 24 25  1  0
 25 26  2  0
 20 10  1  0
 26 21  1  0
 19 13  1  0
  1 27  1  0
  1 28  1  0
  1 29  1  0
  2 30  1  1
  6 31  1  0
  6 32  1  0
  9 33  1  0
 11 34  1  0
 12 35  1  0
 14 36  1  0
 17 37  1  0
 18 38  1  0
 22 39  1  0
 23 40  1  0
 24 41  1  0
 25 42  1  0
 26 43  1  0
M  CHG  1   3  -1
M  END
>  <meeko>  (1) 
{"free_energy": -6.35, "intermolecular_energy": -8.74, "internal_energy": -1.9, "cluster_size": 1, "cluster_id": 6, "rank_in_cluster": 1}

$$$$

     RDKit          3D

 43 45  0  0  0  0  0  0  0  0999 V2000
  139.2630   68.2240  224.9960 C   0  0  0  0  0  0  0  0  0  0  0  0
  139.1790   69.7400  224.8240 C   0  0  2  0  0  0  0  0  0  0  0  0
  139.7640   70.1170  223.5400 N   0  0  0  0  0  0  0  0  0  0  0  0
  139.3580   71.2800  222.8110 C   0  0  0  0  0  0  0  0  0  0  0  0
  138.2150   71.7800  222.9960 O   0  0  0  0  0  0  0  0  0  0  0  0
  140.3290   71.9700  221.9070 C   0  0  0  0  0  0  0  0  0  0  0  0
  140.4750   73.3620  222.3270 N   0  0  0  0  0  0  0  0  0  0  0  0
  139.6530   74.3420  222.0680 C   0  0  0  0  0  0  0  0  0  0  0  0
  138.2730   74.1430  221.9680 O   0  0  0  0  0  0  0  0  0  0  0  0
  140.1770   75.7030  221.8510 C   0  0  0  0  0  0  0  0  0  0  0  0
  141.0900   75.9880  220.8200 C   0  0  0  0  0  0  0  0  0  0  0  0
  141.5240   77.3010  220.6240 C   0  0  0  0  0  0  0  0  0  0  0  0
  141.0480   78.3240  221.4520 C   0  0  0  0  0  0  0  0  0  0  0  0
  141.4570   79.6550  221.2770 C   0  0  0  0  0  0  0  0  0  0  0  0
  140.9580   80.6550  222.1190 C   0  0  0  0  0  0  0  0  0  0  0  0
  141.4670   82.3190  221.8970 Cl  0  0  0  0  0  0  0  0  0  0  0  0
  140.0510   80.3310  223.1350 C   0  0  0  0  0  0  0  0  0  0  0  0
  139.6390   79.0080  223.3150 C   0  0  0  0  0  0  0  0  0  0  0  0
  140.1330   78.0010  222.4770 C   0  0  0  0  0  0  0  0  0  0  0  0
  139.7270   76.7150  222.6440 N   0  0  0  0  0  0  0  0  0  0  0  0
  139.9040   70.4460  225.9500 C   0  0  0  0  0  0  0  0  0  0  0  0
  139.7370   70.0180  227.2790 C   0  0  0  0  0  0  0  0  0  0  0  0
  140.3850   70.6880  228.3220 C   0  0  0  0  0  0  0  0  0  0  0  0
  141.2040   71.7860  228.0510 C   0  0  0  0  0  0  0  0  0  0  0  0
  141.3840   72.2140  226.7320 C   0  0  0  0  0  0  0  0  0  0  0  0
  140.7430   71.5450  225.6870 C   0  0  0  0  0  0  0  0  0  0  0  0
  139.2767   67.9768  226.0678 H   0  0  0  0  0  0  0  0  0  0  0  0
  138.3896   67.7523  224.5220 H   0  0  0  0  0  0  0  0  0  0  0  0
  140.1832   67.8516  224.5220 H   0  0  0  0  0  0  0  0  0  0  0  0
  138.1218   70.0428  224.8498 H   0  0  0  0  0  0  0  0  0  0  0  0
  141.3048   71.4653  221.9622 H   0  0  0  0  0  0  0  0  0  0  0  0
  139.9580   71.9345  220.8721 H   0  0  0  0  0  0  0  0  0  0  0  0
  137.6990   73.7850  222.7180 H   0  0  0  0  0  0  0  0  0  0  0  0
  141.4605   75.1808  220.1711 H   0  0  0  0  0  0  0  0  0  0  0  0
  142.2388   77.5307  219.8201 H   0  0  0  0  0  0  0  0  0  0  0  0
  142.1690   79.9118  220.4788 H   0  0  0  0  0  0  0  0  0  0  0  0
  139.6612   81.1208  223.7940 H   0  0  0  0  0  0  0  0  0  0  0  0
  138.9267   78.7577  224.1150 H   0  0  0  0  0  0  0  0  0  0  0  0
  139.0943   69.1529  227.4993 H   0  0  0  0  0  0  0  0  0  0  0  0
  140.2489   70.3487  229.3595 H   0  0  0  0  0  0  0  0  0  0  0  0
  141.7072   72.3139  228.8745 H   0  0  0  0  0  0  0  0  0  0  0  0
  142.0305   73.0777  226.5175 H   0  0  0  0  0  0  0  0  0  0  0  0
  140.8950   71.8796  224.6502 H   0  0  0  0  0  0  0  0  0  0  0  0
  1  2  1  0
  2  3  1  0
  3  4  1  0
  4  5  2  0
  4  6  1  0
  6  7  1  0
  7  8  2  0
  8  9  1  0
  8 10  1  0
 10 11  2  0
 11 12  1  0
 12 13  2  0
 13 14  1  0
 14 15  2  0
 15 16  1  0
 15 17  1  0
 17 18  2  0
 18 19  1  0
 19 20  2  0
  2 21  1  0
 21 22  2  0
 22 23  1  0
 23 24  2  0
 24 25  1  0
 25 26  2  0
 20 10  1  0
 26 21  1  0
 19 13  1  0
  1 27  1  0
  1 28  1  0
  1 29  1  0
  2 30  1  6
  6 31  1  0
  6 32  1  0
  9 33  1  0
 11 34  1  0
 12 35  1  0
 14 36  1  0
 17 37  1  0
 18 38  1  0
 22 39  1  0
 23 40  1  0
 24 41  1  0
 25 42  1  0
 26 43  1  0
M  CHG  1   3  -1
M  END
>  <meeko>  (2) 
{"free_energy": -7.42, "intermolecular_energy": -9.8, "internal_energy": -1.38, "cluster_size": 5, "cluster_id": 3, "rank_in_cluster": 1}

$$$$

     RDKit          3D

 43 45  0  0  0  0  0  0  0  0999 V2000
  141.7930   78.5140  219.3710 C   0  0  0  0  0  0  0  0  0  0  0  0
  141.6280   77.9060  220.7620 C   0  0  2  0  0  0  0  0  0  0  0  0
  140.3020   77.3050  220.8770 N   0  0  0  0  0  0  0  0  0  0  0  0
  140.0530   76.1000  221.6080 C   0  0  0  0  0  0  0  0  0  0  0  0
  139.4360   76.1380  222.7070 O   0  0  0  0  0  0  0  0  0  0  0  0
  140.4290   74.7780  221.0160 C   0  0  0  0  0  0  0  0  0  0  0  0
  140.2750   73.7340  222.0260 N   0  0  0  0  0  0  0  0  0  0  0  0
  139.8330   72.5230  221.8300 C   0  0  0  0  0  0  0  0  0  0  0  0
  139.3330   72.1090  220.5920 O   0  0  0  0  0  0  0  0  0  0  0  0
  139.8350   71.5510  222.9390 C   0  0  0  0  0  0  0  0  0  0  0  0
  139.3450   70.2430  222.7770 C   0  0  0  0  0  0  0  0  0  0  0  0
  139.4070   69.3430  223.8430 C   0  0  0  0  0  0  0  0  0  0  0  0
  139.9590   69.7470  225.0640 C   0  0  0  0  0  0  0  0  0  0  0  0
  140.0440   68.8660  226.1530 C   0  0  0  0  0  0  0  0  0  0  0  0
  140.6060   69.2990  227.3600 C   0  0  0  0  0  0  0  0  0  0  0  0
  140.7170   68.1960  228.7190 Cl  0  0  0  0  0  0  0  0  0  0  0  0
  141.0820   70.6100  227.4830 C   0  0  0  0  0  0  0  0  0  0  0  0
  140.9990   71.4930  226.4020 C   0  0  0  0  0  0  0  0  0  0  0  0
  140.4400   71.0680  225.1920 C   0  0  0  0  0  0  0  0  0  0  0  0
  140.3670   71.9210  224.1370 N   0  0  0  0  0  0  0  0  0  0  0  0
  141.8110   78.9630  221.8320 C   0  0  0  0  0  0  0  0  0  0  0  0
  141.9870   80.3110  221.4730 C   0  0  0  0  0  0  0  0  0  0  0  0
  142.1840   81.2820  222.4600 C   0  0  0  0  0  0  0  0  0  0  0  0
  142.2070   80.9210  223.8080 C   0  0  0  0  0  0  0  0  0  0  0  0
  142.0230   79.5850  224.1750 C   0  0  0  0  0  0  0  0  0  0  0  0
  141.8210   78.6110  223.1950 C   0  0  0  0  0  0  0  0  0  0  0  0
  142.0800   79.5717  219.4649 H   0  0  0  0  0  0  0  0  0  0  0  0
  142.5757   77.9689  218.8231 H   0  0  0  0  0  0  0  0  0  0  0  0
  140.8421   78.4393  218.8231 H   0  0  0  0  0  0  0  0  0  0  0  0
  142.3964   77.1319  220.9045 H   0  0  0  0  0  0  0  0  0  0  0  0
  139.7743   74.5597  220.1594 H   0  0  0  0  0  0  0  0  0  0  0  0
  141.4750   74.8107  220.6772 H   0  0  0  0  0  0  0  0  0  0  0  0
  139.7450   72.3610  219.7040 H   0  0  0  0  0  0  0  0  0  0  0  0
  138.9145   69.9299  221.8144 H   0  0  0  0  0  0  0  0  0  0  0  0
  139.0230   68.3192  223.7233 H   0  0  0  0  0  0  0  0  0  0  0  0
  139.6694   67.8361  226.0584 H   0  0  0  0  0  0  0  0  0  0  0  0
  141.5227   70.9464  228.4331 H   0  0  0  0  0  0  0  0  0  0  0  0
  141.3734   72.5224  226.5030 H   0  0  0  0  0  0  0  0  0  0  0  0
  141.9697   80.6027  220.4125 H   0  0  0  0  0  0  0  0  0  0  0  0
  142.3214   82.3349  222.1727 H   0  0  0  0  0  0  0  0  0  0  0  0
  142.3697   81.6869  224.5806 H   0  0  0  0  0  0  0  0  0  0  0  0
  142.0373   79.3004  225.2374 H   0  0  0  0  0  0  0  0  0  0  0  0
  141.6688   77.5622  223.4899 H   0  0  0  0  0  0  0  0  0  0  0  0
  1  2  1  0
  2  3  1  0
  3  4  1  0
  4  5  2  0
  4  6  1  0
  6  7  1  0
  7  8  2  0
  8  9  1  0
  8 10  1  0
 10 11  2  0
 11 12  1  0
 12 13  2  0
 13 14  1  0
 14 15  2  0
 15 16  1  0
 15 17  1  0
 17 18  2  0
 18 19  1  0
 19 20  2  0
  2 21  1  0
 21 22  2  0
 22 23  1  0
 23 24  2  0
 24 25  1  0
 25 26  2  0
 20 10  1  0
 26 21  1  0
 19 13  1  0
  1 27  1  0
  1 28  1  0
  1 29  1  0
  2 30  1  1
  6 31  1  0
  6 32  1  0
  9 33  1  0
 11 34  1  0
 12 35  1  0
 14 36  1  0
 17 37  1  0
 18 38  1  0
 22 39  1  0
 23 40  1  0
 24 41  1  0
 25 42  1  0
 26 43  1  0
M  CHG  1   3  -1
M  END
>  <meeko>  (3) 
{"free_energy": -7.55, "intermolecular_energy": -9.94, "internal_energy": -0.62, "cluster_size": 7, "cluster_id": 1, "rank_in_cluster": 2}

$$$$

     RDKit          3D

 43 45  0  0  0  0  0  0  0  0999 V2000
  140.4150   71.4610  223.3640 C   0  0  0  0  0  0  0  0  0  0  0  0
  139.9390   70.3770  224.3280 C   0  0  2  0  0  0  0  0  0  0  0  0
  138.4790   70.3370  224.3350 N   0  0  0  0  0  0  0  0  0  0  0  0
  137.7320   69.2310  224.8520 C   0  0  0  0  0  0  0  0  0  0  0  0
  138.3290   68.2190  225.3110 O   0  0  0  0  0  0  0  0  0  0  0  0
  136.2420   69.3180  224.9490 C   0  0  0  0  0  0  0  0  0  0  0  0
  135.7510   70.3060  223.9910 N   0  0  0  0  0  0  0  0  0  0  0  0
  135.8610   71.6020  224.0880 C   0  0  0  0  0  0  0  0  0  0  0  0
  136.8750   72.3100  223.4360 O   0  0  0  0  0  0  0  0  0  0  0  0
  134.9090   72.3600  224.9210 C   0  0  0  0  0  0  0  0  0  0  0  0
  133.9440   71.7150  225.7140 C   0  0  0  0  0  0  0  0  0  0  0  0
  133.0920   72.4720  226.5210 C   0  0  0  0  0  0  0  0  0  0  0  0
  133.2050   73.8670  226.5370 C   0  0  0  0  0  0  0  0  0  0  0  0
  132.3710   74.6580  227.3420 C   0  0  0  0  0  0  0  0  0  0  0  0
  132.5130   76.0500  227.3400 C   0  0  0  0  0  0  0  0  0  0  0  0
  131.4740   77.0370  228.3500 Cl  0  0  0  0  0  0  0  0  0  0  0  0
  133.4860   76.6560  226.5350 C   0  0  0  0  0  0  0  0  0  0  0  0
  134.3200   75.8740  225.7310 C   0  0  0  0  0  0  0  0  0  0  0  0
  134.1850   74.4810  225.7270 C   0  0  0  0  0  0  0  0  0  0  0  0
  135.0010   73.7180  224.9530 N   0  0  0  0  0  0  0  0  0  0  0  0
  140.4560   70.6410  225.7270 C   0  0  0  0  0  0  0  0  0  0  0  0
  140.5270   69.5970  226.6660 C   0  0  0  0  0  0  0  0  0  0  0  0
  140.9790   69.8480  227.9650 C   0  0  0  0  0  0  0  0  0  0  0  0
  141.3620   71.1370  228.3400 C   0  0  0  0  0  0  0  0  0  0  0  0
  141.3040   72.1800  227.4120 C   0  0  0  0  0  0  0  0  0  0  0  0
  140.8590   71.9340  226.1110 C   0  0  0  0  0  0  0  0  0  0  0  0
  140.7926   72.3209  223.9367 H   0  0  0  0  0  0  0  0  0  0  0  0
  141.2200   71.0604  222.7304 H   0  0  0  0  0  0  0  0  0  0  0  0
  139.5753   71.7827  222.7304 H   0  0  0  0  0  0  0  0  0  0  0  0
  140.3316   69.4061  223.9915 H   0  0  0  0  0  0  0  0  0  0  0  0
  135.8013   68.3360  224.7221 H   0  0  0  0  0  0  0  0  0  0  0  0
  135.9567   69.6199  225.9676 H   0  0  0  0  0  0  0  0  0  0  0  0
  137.8410   72.3120  223.7310 H   0  0  0  0  0  0  0  0  0  0  0  0
  133.8603   70.6183  225.6989 H   0  0  0  0  0  0  0  0  0  0  0  0
  132.3339   71.9731  227.1426 H   0  0  0  0  0  0  0  0  0  0  0  0
  131.6059   74.1839  227.9743 H   0  0  0  0  0  0  0  0  0  0  0  0
  133.5941   77.7507  226.5356 H   0  0  0  0  0  0  0  0  0  0  0  0
  135.0832   76.3539  225.1008 H   0  0  0  0  0  0  0  0  0  0  0  0
  140.2258   68.5791  226.3776 H   0  0  0  0  0  0  0  0  0  0  0  0
  141.0331   69.0265  228.6945 H   0  0  0  0  0  0  0  0  0  0  0  0
  141.7093   71.3315  229.3655 H   0  0  0  0  0  0  0  0  0  0  0  0
  141.6089   73.1952  227.7061 H   0  0  0  0  0  0  0  0  0  0  0  0
  140.8232   72.7564  225.3814 H   0  0  0  0  0  0  0  0  0  0  0  0
  1  2  1  0
  2  3  1  0
  3  4  1  0
  4  5  2  0
  4  6  1  0
  6  7  1  0
  7  8  2  0
  8  9  1  0
  8 10  1  0
 10 11  2  0
 11 12  1  0
 12 13  2  0
 13 14  1  0
 14 15  2  0
 15 16  1  0
 15 17  1  0
 17 18  2  0
 18 19  1  0
 19 20  2  0
  2 21  1  0
 21 22  2  0
 22 23  1  0
 23 24  2  0
 24 25  1  0
 25 26  2  0
 20 10  1  0
 26 21  1  0
 19 13  1  0
  1 27  1  0
  1 28  1  0
  1 29  1  0
  2 30  1  6
  6 31  1  0
  6 32  1  0
  9 33  1  0
 11 34  1  0
 12 35  1  0
 14 36  1  0
 17 37  1  0
 18 38  1  0
 22 39  1  0
 23 40  1  0
 24 41  1  0
 25 42  1  0
 26 43  1  0
M  CHG  1   3  -1
M  END
>  <meeko>  (4) 
{"free_energy": -6.84, "intermolecular_energy": -9.22, "internal_energy": -1.59, "cluster_size": 2, "cluster_id": 2, "rank_in_cluster": 2}

$$$$

     RDKit          3D

 43 45  0  0  0  0  0  0  0  0999 V2000
  140.7110   67.2520  226.8100 C   0  0  0  0  0  0  0  0  0  0  0  0
  139.6070   68.2770  226.5550 C   0  0  2  0  0  0  0  0  0  0  0  0
  139.1320   68.1500  225.1800 N   0  0  0  0  0  0  0  0  0  0  0  0
  138.1290   69.0030  224.6200 C   0  0  0  0  0  0  0  0  0  0  0  0
  137.4030   69.7100  225.3720 O   0  0  0  0  0  0  0  0  0  0  0  0
  138.0130   69.1440  223.1350 C   0  0  0  0  0  0  0  0  0  0  0  0
  139.0950   69.9950  222.6440 N   0  0  0  0  0  0  0  0  0  0  0  0
  139.3970   71.1900  223.0700 C   0  0  0  0  0  0  0  0  0  0  0  0
  138.9650   71.6650  224.3120 O   0  0  0  0  0  0  0  0  0  0  0  0
  140.2000   72.0910  222.2220 C   0  0  0  0  0  0  0  0  0  0  0  0
  141.1110   71.5960  221.2730 C   0  0  0  0  0  0  0  0  0  0  0  0
  141.8170   72.4870  220.4620 C   0  0  0  0  0  0  0  0  0  0  0  0
  141.6120   73.8640  220.5960 C   0  0  0  0  0  0  0  0  0  0  0  0
  142.2990   74.7870  219.7910 C   0  0  0  0  0  0  0  0  0  0  0  0
  142.0680   76.1580  219.9470 C   0  0  0  0  0  0  0  0  0  0  0  0
  142.9230   77.3100  218.9380 Cl  0  0  0  0  0  0  0  0  0  0  0  0
  141.1530   76.6120  220.9050 C   0  0  0  0  0  0  0  0  0  0  0  0
  140.4660   75.6990  221.7100 C   0  0  0  0  0  0  0  0  0  0  0  0
  140.6900   74.3260  221.5600 C   0  0  0  0  0  0  0  0  0  0  0  0
  140.0170   73.4360  222.3350 N   0  0  0  0  0  0  0  0  0  0  0  0
  140.1180   69.6820  226.7970 C   0  0  0  0  0  0  0  0  0  0  0  0
  140.9570   70.3040  225.8550 C   0  0  0  0  0  0  0  0  0  0  0  0
  141.4510   71.5900  226.0920 C   0  0  0  0  0  0  0  0  0  0  0  0
  141.1130   72.2680  227.2650 C   0  0  0  0  0  0  0  0  0  0  0  0
  140.2720   71.6630  228.2030 C   0  0  0  0  0  0  0  0  0  0  0  0
  139.7720   70.3800  227.9690 C   0  0  0  0  0  0  0  0  0  0  0  0
  140.8491   67.1238  227.8937 H   0  0  0  0  0  0  0  0  0  0  0  0
  140.4283   66.2889  226.3599 H   0  0  0  0  0  0  0  0  0  0  0  0
  141.6505   67.6053  226.3599 H   0  0  0  0  0  0  0  0  0  0  0  0
  138.7764   68.0850  227.2502 H   0  0  0  0  0  0  0  0  0  0  0  0
  138.0839   68.1519  222.6652 H   0  0  0  0  0  0  0  0  0  0  0  0
  137.0436   69.5987  222.8829 H   0  0  0  0  0  0  0  0  0  0  0  0
  138.0000   71.6680  224.6100 H   0  0  0  0  0  0  0  0  0  0  0  0
  141.2671   70.5120  221.1696 H   0  0  0  0  0  0  0  0  0  0  0  0
  142.5333   72.1064  219.7189 H   0  0  0  0  0  0  0  0  0  0  0  0
  143.0184   74.4323  219.0382 H   0  0  0  0  0  0  0  0  0  0  0  0
  140.9743   77.6908  221.0244 H   0  0  0  0  0  0  0  0  0  0  0  0
  139.7488   76.0600  222.4619 H   0  0  0  0  0  0  0  0  0  0  0  0
  141.2255   69.7763  224.9279 H   0  0  0  0  0  0  0  0  0  0  0  0
  142.1084   72.0696  225.3518 H   0  0  0  0  0  0  0  0  0  0  0  0
  141.5084   73.2776  227.4506 H   0  0  0  0  0  0  0  0  0  0  0  0
  140.0037   72.1976  229.1262 H   0  0  0  0  0  0  0  0  0  0  0  0
  139.1030   69.9118  228.7060 H   0  0  0  0  0  0  0  0  0  0  0  0
  1  2  1  0
  2  3  1  0
  3  4  1  0
  4  5  2  0
  4  6  1  0
  6  7  1  0
  7  8  2  0
  8  9  1  0
  8 10  1  0
 10 11  2  0
 11 12  1  0
 12 13  2  0
 13 14  1  0
 14 15  2  0
 15 16  1  0
 15 17  1  0
 17 18  2  0
 18 19  1  0
 19 20  2  0
  2 21  1  0
 21 22  2  0
 22 23  1  0
 23 24  2  0
 24 25  1  0
 25 26  2  0
 20 10  1  0
 26 21  1  0
 19 13  1  0
  1 27  1  0
  1 28  1  0
  1 29  1  0
  2 30  1  1
  6 31  1  0
  6 32  1  0
  9 33  1  0
 11 34  1  0
 12 35  1  0
 14 36  1  0
 17 37  1  0
 18 38  1  0
 22 39  1  0
 23 40  1  0
 24 41  1  0
 25 42  1  0
 26 43  1  0
M  CHG  1   3  -1
M  END
>  <meeko>  (5) 
{"free_energy": -7.03, "intermolecular_energy": -9.42, "internal_energy": -1.79, "cluster_size": 4, "cluster_id": 4, "rank_in_cluster": 3}

$$$$

     RDKit          3D

 43 45  0  0  0  0  0  0  0  0999 V2000
  140.3850   67.3270  226.4830 C   0  0  0  0  0  0  0  0  0  0  0  0
  139.3700   68.4510  226.2870 C   0  0  2  0  0  0  0  0  0  0  0  0
  138.9080   68.4560  224.9020 N   0  0  0  0  0  0  0  0  0  0  0  0
  137.6210   68.9450  224.5120 C   0  0  0  0  0  0  0  0  0  0  0  0
  136.8540   69.4700  225.3650 O   0  0  0  0  0  0  0  0  0  0  0  0
  137.2260   68.9350  223.0690 C   0  0  0  0  0  0  0  0  0  0  0  0
  136.7140   70.2520  222.6990 N   0  0  0  0  0  0  0  0  0  0  0  0
  137.2420   71.4050  223.0050 C   0  0  0  0  0  0  0  0  0  0  0  0
  136.5750   72.3350  223.8090 O   0  0  0  0  0  0  0  0  0  0  0  0
  138.5730   71.7660  222.4840 C   0  0  0  0  0  0  0  0  0  0  0  0
  139.5120   70.7870  222.1140 C   0  0  0  0  0  0  0  0  0  0  0  0
  140.7440   71.1760  221.5830 C   0  0  0  0  0  0  0  0  0  0  0  0
  141.0350   72.5350  221.4190 C   0  0  0  0  0  0  0  0  0  0  0  0
  142.2590   72.9600  220.8800 C   0  0  0  0  0  0  0  0  0  0  0  0
  142.5170   74.3270  220.7250 C   0  0  0  0  0  0  0  0  0  0  0  0
  144.0460   74.8570  220.0480 Cl  0  0  0  0  0  0  0  0  0  0  0  0
  141.5560   75.2710  221.1060 C   0  0  0  0  0  0  0  0  0  0  0  0
  140.3350   74.8550  221.6430 C   0  0  0  0  0  0  0  0  0  0  0  0
  140.0680   73.4900  221.8010 C   0  0  0  0  0  0  0  0  0  0  0  0
  138.8780   73.0820  222.3150 N   0  0  0  0  0  0  0  0  0  0  0  0
  139.9850   69.7910  226.6320 C   0  0  0  0  0  0  0  0  0  0  0  0
  140.0010   70.2420  227.9640 C   0  0  0  0  0  0  0  0  0  0  0  0
  140.5450   71.4920  228.2780 C   0  0  0  0  0  0  0  0  0  0  0  0
  141.0760   72.3010  227.2720 C   0  0  0  0  0  0  0  0  0  0  0  0
  141.0730   71.8580  225.9470 C   0  0  0  0  0  0  0  0  0  0  0  0
  140.5370   70.6090  225.6280 C   0  0  0  0  0  0  0  0  0  0  0  0
  140.5395   67.1559  227.5586 H   0  0  0  0  0  0  0  0  0  0  0  0
  140.0067   66.4058  226.0158 H   0  0  0  0  0  0  0  0  0  0  0  0
  141.3399   67.6097  226.0158 H   0  0  0  0  0  0  0  0  0  0  0  0
  138.5156   68.2785  226.9580 H   0  0  0  0  0  0  0  0  0  0  0  0
  138.1028   68.6945  222.4498 H   0  0  0  0  0  0  0  0  0  0  0  0
  136.4454   68.1773  222.9061 H   0  0  0  0  0  0  0  0  0  0  0  0
  136.9340   73.2550  224.0240 H   0  0  0  0  0  0  0  0  0  0  0  0
  139.2775   69.7199  222.2421 H   0  0  0  0  0  0  0  0  0  0  0  0
  141.4843   70.4154  221.2942 H   0  0  0  0  0  0  0  0  0  0  0  0
  143.0150   72.2196  220.5796 H   0  0  0  0  0  0  0  0  0  0  0  0
  141.7629   76.3442  220.9821 H   0  0  0  0  0  0  0  0  0  0  0  0
  139.5833   75.6004  221.9417 H   0  0  0  0  0  0  0  0  0  0  0  0
  139.5843   69.6096  228.7618 H   0  0  0  0  0  0  0  0  0  0  0  0
  140.5543   71.8388  229.3219 H   0  0  0  0  0  0  0  0  0  0  0  0
  141.4964   73.2862  227.5222 H   0  0  0  0  0  0  0  0  0  0  0  0
  141.4935   72.4941  225.1542 H   0  0  0  0  0  0  0  0  0  0  0  0
  140.5461   70.2615  224.5844 H   0  0  0  0  0  0  0  0  0  0  0  0
  1  2  1  0
  2  3  1  0
  3  4  1  0
  4  5  2  0
  4  6  1  0
  6  7  1  0
  7  8  2  0
  8  9  1  0
  8 10  1  0
 10 11  2  0
 11 12  1  0
 12 13  2  0
 13 14  1  0
 14 15  2  0
 15 16  1  0
 15 17  1  0
 17 18  2  0
 18 19  1  0
 19 20  2  0
  2 21  1  0
 21 22  2  0
 22 23  1  0
 23 24  2  0
 24 25  1  0
 25 26  2  0
 20 10  1  0
 26 21  1  0
 19 13  1  0
  1 27  1  0
  1 28  1  0
  1 29  1  0
  2 30  1  1
  6 31  1  0
  6 32  1  0
  9 33  1  0
 11 34  1  0
 12 35  1  0
 14 36  1  0
 17 37  1  0
 18 38  1  0
 22 39  1  0
 23 40  1  0
 24 41  1  0
 25 42  1  0
 26 43  1  0
M  CHG  1   3  -1
M  END
>  <meeko>  (6) 
{"free_energy": -6.83, "intermolecular_energy": -9.22, "internal_energy": -1.71, "cluster_size": 4, "cluster_id": 4, "rank_in_cluster": 4}

$$$$

     RDKit          3D

 43 45  0  0  0  0  0  0  0  0999 V2000
  139.2230   69.2370  223.9680 C   0  0  0  0  0  0  0  0  0  0  0  0
  139.5980   70.6840  224.2840 C   0  0  2  0  0  0  0  0  0  0  0  0
  140.6350   71.1320  223.3590 N   0  0  0  0  0  0  0  0  0  0  0  0
  140.4050   71.3100  221.9570 C   0  0  0  0  0  0  0  0  0  0  0  0
  139.2690   71.0710  221.4640 O   0  0  0  0  0  0  0  0  0  0  0  0
  141.4810   71.8840  221.0920 C   0  0  0  0  0  0  0  0  0  0  0  0
  141.1690   73.2810  220.7960 N   0  0  0  0  0  0  0  0  0  0  0  0
  140.6590   74.1540  221.6200 C   0  0  0  0  0  0  0  0  0  0  0  0
  139.8320   73.7750  222.6820 O   0  0  0  0  0  0  0  0  0  0  0  0
  140.9340   75.5910  221.4310 C   0  0  0  0  0  0  0  0  0  0  0  0
  141.4110   76.0980  220.2100 C   0  0  0  0  0  0  0  0  0  0  0  0
  141.6150   77.4720  220.0640 C   0  0  0  0  0  0  0  0  0  0  0  0
  141.3410   78.3350  221.1310 C   0  0  0  0  0  0  0  0  0  0  0  0
  141.5270   79.7210  221.0160 C   0  0  0  0  0  0  0  0  0  0  0  0
  141.2400   80.5570  222.1010 C   0  0  0  0  0  0  0  0  0  0  0  0
  141.4680   82.2900  221.9550 Cl  0  0  0  0  0  0  0  0  0  0  0  0
  140.7680   80.0140  223.3020 C   0  0  0  0  0  0  0  0  0  0  0  0
  140.5810   78.6340  223.4240 C   0  0  0  0  0  0  0  0  0  0  0  0
  140.8650   77.7900  222.3440 C   0  0  0  0  0  0  0  0  0  0  0  0
  140.6750   76.4490  222.4560 N   0  0  0  0  0  0  0  0  0  0  0  0
  140.0890   70.8090  225.7110 C   0  0  0  0  0  0  0  0  0  0  0  0
  140.9740   71.8410  226.0680 C   0  0  0  0  0  0  0  0  0  0  0  0
  141.4490   71.9400  227.3800 C   0  0  0  0  0  0  0  0  0  0  0  0
  141.0460   71.0150  228.3450 C   0  0  0  0  0  0  0  0  0  0  0  0
  140.1590   69.9910  228.0030 C   0  0  0  0  0  0  0  0  0  0  0  0
  139.6780   69.8900  226.6950 C   0  0  0  0  0  0  0  0  0  0  0  0
  139.0792   68.6821  224.9068 H   0  0  0  0  0  0  0  0  0  0  0  0
  138.2905   69.2189  223.3848 H   0  0  0  0  0  0  0  0  0  0  0  0
  140.0293   68.7682  223.3848 H   0  0  0  0  0  0  0  0  0  0  0  0
  138.7047   71.3154  224.1685 H   0  0  0  0  0  0  0  0  0  0  0  0
  142.4453   71.8264  221.6181 H   0  0  0  0  0  0  0  0  0  0  0  0
  141.5430   71.3135  220.1536 H   0  0  0  0  0  0  0  0  0  0  0  0
  139.4230   72.8570  222.7770 H   0  0  0  0  0  0  0  0  0  0  0  0
  141.6226   75.4159  219.3734 H   0  0  0  0  0  0  0  0  0  0  0  0
  141.9904   77.8751  219.1119 H   0  0  0  0  0  0  0  0  0  0  0  0
  141.8981   80.1502  220.0736 H   0  0  0  0  0  0  0  0  0  0  0  0
  140.5437   80.6751  224.1521 H   0  0  0  0  0  0  0  0  0  0  0  0
  140.2104   78.2111  224.3694 H   0  0  0  0  0  0  0  0  0  0  0  0
  141.2943   72.5737  225.3127 H   0  0  0  0  0  0  0  0  0  0  0  0
  142.1424   72.7494  227.6523 H   0  0  0  0  0  0  0  0  0  0  0  0
  141.4266   71.0923  229.3741 H   0  0  0  0  0  0  0  0  0  0  0  0
  139.8392   69.2639  228.7639 H   0  0  0  0  0  0  0  0  0  0  0  0
  138.9735   69.0871  226.4324 H   0  0  0  0  0  0  0  0  0  0  0  0
  1  2  1  0
  2  3  1  0
  3  4  1  0
  4  5  2  0
  4  6  1  0
  6  7  1  0
  7  8  2  0
  8  9  1  0
  8 10  1  0
 10 11  2  0
 11 12  1  0
 12 13  2  0
 13 14  1  0
 14 15  2  0
 15 16  1  0
 15 17  1  0
 17 18  2  0
 18 19  1  0
 19 20  2  0
  2 21  1  0
 21 22  2  0
 22 23  1  0
 23 24  2  0
 24 25  1  0
 25 26  2  0
 20 10  1  0
 26 21  1  0
 19 13  1  0
  1 27  1  0
  1 28  1  0
  1 29  1  0
  2 30  1  1
  6 31  1  0
  6 32  1  0
  9 33  1  0
 11 34  1  0
 12 35  1  0
 14 36  1  0
 17 37  1  0
 18 38  1  0
 22 39  1  0
 23 40  1  0
 24 41  1  0
 25 42  1  0
 26 43  1  0
M  CHG  1   3  -1
M  END
>  <meeko>  (7) 
{"free_energy": -7.1, "intermolecular_energy": -9.49, "internal_energy": -1.66, "cluster_size": 5, "cluster_id": 3, "rank_in_cluster": 3}

$$$$

     RDKit          3D

 43 45  0  0  0  0  0  0  0  0999 V2000
  138.0430   79.0470  222.7680 C   0  0  0  0  0  0  0  0  0  0  0  0
  139.3430   78.4090  222.2820 C   0  0  2  0  0  0  0  0  0  0  0  0
  139.4220   77.0340  222.7660 N   0  0  0  0  0  0  0  0  0  0  0  0
  139.9240   75.9550  221.9690 C   0  0  0  0  0  0  0  0  0  0  0  0
  141.1640   75.7320  221.9100 O   0  0  0  0  0  0  0  0  0  0  0  0
  138.9710   75.0220  221.2920 C   0  0  0  0  0  0  0  0  0  0  0  0
  138.9970   73.7280  221.9710 N   0  0  0  0  0  0  0  0  0  0  0  0
  140.0430   72.9700  222.1580 C   0  0  0  0  0  0  0  0  0  0  0  0
  141.2030   73.1070  221.3890 O   0  0  0  0  0  0  0  0  0  0  0  0
  140.0140   71.9200  223.1920 C   0  0  0  0  0  0  0  0  0  0  0  0
  139.5380   70.6260  222.9180 C   0  0  0  0  0  0  0  0  0  0  0  0
  139.5710   69.6500  223.9170 C   0  0  0  0  0  0  0  0  0  0  0  0
  140.0800   69.9650  225.1820 C   0  0  0  0  0  0  0  0  0  0  0  0
  140.1350   69.0070  226.2060 C   0  0  0  0  0  0  0  0  0  0  0  0
  140.6540   69.3520  227.4590 C   0  0  0  0  0  0  0  0  0  0  0  0
  140.7280   68.1530  228.7360 Cl  0  0  0  0  0  0  0  0  0  0  0  0
  141.1180   70.6520  227.6930 C   0  0  0  0  0  0  0  0  0  0  0  0
  141.0650   71.6120  226.6780 C   0  0  0  0  0  0  0  0  0  0  0  0
  140.5480   71.2750  225.4220 C   0  0  0  0  0  0  0  0  0  0  0  0
  140.5040   72.2030  224.4300 N   0  0  0  0  0  0  0  0  0  0  0  0
  140.5400   79.1980  222.7700 C   0  0  0  0  0  0  0  0  0  0  0  0
  140.3600   80.4410  223.4020 C   0  0  0  0  0  0  0  0  0  0  0  0
  141.4660   81.1820  223.8280 C   0  0  0  0  0  0  0  0  0  0  0  0
  142.7590   80.6930  223.6300 C   0  0  0  0  0  0  0  0  0  0  0  0
  142.9490   79.4540  223.0120 C   0  0  0  0  0  0  0  0  0  0  0  0
  141.8470   78.7070  222.5890 C   0  0  0  0  0  0  0  0  0  0  0  0
  138.0272   79.0548  223.8679 H   0  0  0  0  0  0  0  0  0  0  0  0
  137.9785   80.0791  222.3931 H   0  0  0  0  0  0  0  0  0  0  0  0
  137.1871   78.4666  222.3931 H   0  0  0  0  0  0  0  0  0  0  0  0
  139.3504   78.4126  221.1820 H   0  0  0  0  0  0  0  0  0  0  0  0
  137.9543   75.4396  221.3360 H   0  0  0  0  0  0  0  0  0  0  0  0
  139.2668   74.8923  220.2405 H   0  0  0  0  0  0  0  0  0  0  0  0
  141.6870   73.9830  221.2500 H   0  0  0  0  0  0  0  0  0  0  0  0
  139.1412   70.3830  221.9213 H   0  0  0  0  0  0  0  0  0  0  0  0
  139.1978   68.6362  223.7098 H   0  0  0  0  0  0  0  0  0  0  0  0
  139.7703   67.9853  226.0238 H   0  0  0  0  0  0  0  0  0  0  0  0
  141.5258   70.9191  228.6791 H   0  0  0  0  0  0  0  0  0  0  0  0
  141.4298   72.6325  226.8667 H   0  0  0  0  0  0  0  0  0  0  0  0
  139.3444   80.8320  223.5619 H   0  0  0  0  0  0  0  0  0  0  0  0
  141.3173   82.1540  224.3211 H   0  0  0  0  0  0  0  0  0  0  0  0
  143.6271   81.2824  223.9601 H   0  0  0  0  0  0  0  0  0  0  0  0
  143.9671   79.0667  222.8585 H   0  0  0  0  0  0  0  0  0  0  0  0
  142.0015   77.7283  222.1112 H   0  0  0  0  0  0  0  0  0  0  0  0
  1  2  1  0
  2  3  1  0
  3  4  1  0
  4  5  2  0
  4  6  1  0
  6  7  1  0
  7  8  2  0
  8  9  1  0
  8 10  1  0
 10 11  2  0
 11 12  1  0
 12 13  2  0
 13 14  1  0
 14 15  2  0
 15 16  1  0
 15 17  1  0
 17 18  2  0
 18 19  1  0
 19 20  2  0
  2 21  1  0
 21 22  2  0
 22 23  1  0
 23 24  2  0
 24 25  1  0
 25 26  2  0
 20 10  1  0
 26 21  1  0
 19 13  1  0
  1 27  1  0
  1 28  1  0
  1 29  1  0
  2 30  1  6
  6 31  1  0
  6 32  1  0
  9 33  1  0
 11 34  1  0
 12 35  1  0
 14 36  1  0
 17 37  1  0
 18 38  1  0
 22 39  1  0
 23 40  1  0
 24 41  1  0
 25 42  1  0
 26 43  1  0
M  CHG  1   3  -1
M  END
>  <meeko>  (8) 
{"free_energy": -7.14, "intermolecular_energy": -9.52, "internal_energy": -1.37, "cluster_size": 7, "cluster_id": 1, "rank_in_cluster": 4}

$$$$

     RDKit          3D

 43 45  0  0  0  0  0  0  0  0999 V2000
  142.9810   76.5540  219.3080 C   0  0  0  0  0  0  0  0  0  0  0  0
  142.8490   75.0920  218.8860 C   0  0  2  0  0  0  0  0  0  0  0  0
  141.5080   74.6120  219.2080 N   0  0  0  0  0  0  0  0  0  0  0  0
  140.5920   75.3470  220.0260 C   0  0  0  0  0  0  0  0  0  0  0  0
  139.6090   75.9400  219.5040 O   0  0  0  0  0  0  0  0  0  0  0  0
  140.7360   75.3220  221.5140 C   0  0  0  0  0  0  0  0  0  0  0  0
  140.0120   74.1710  222.0510 N   0  0  0  0  0  0  0  0  0  0  0  0
  140.2870   72.9140  221.8390 C   0  0  0  0  0  0  0  0  0  0  0  0
  140.6860   72.4440  220.5840 O   0  0  0  0  0  0  0  0  0  0  0  0
  140.1600   71.9390  222.9380 C   0  0  0  0  0  0  0  0  0  0  0  0
  139.5840   70.6720  222.7390 C   0  0  0  0  0  0  0  0  0  0  0  0
  139.5250   69.7640  223.7990 C   0  0  0  0  0  0  0  0  0  0  0  0
  140.0410   70.1190  225.0500 C   0  0  0  0  0  0  0  0  0  0  0  0
  140.0060   69.2280  226.1340 C   0  0  0  0  0  0  0  0  0  0  0  0
  140.5350   69.6120  227.3720 C   0  0  0  0  0  0  0  0  0  0  0  0
  140.4950   68.4970  228.7240 Cl  0  0  0  0  0  0  0  0  0  0  0  0
  141.1000   70.8840  227.5310 C   0  0  0  0  0  0  0  0  0  0  0  0
  141.1380   71.7760  226.4550 C   0  0  0  0  0  0  0  0  0  0  0  0
  140.6120   71.4000  225.2140 C   0  0  0  0  0  0  0  0  0  0  0  0
  140.6560   72.2620  224.1650 N   0  0  0  0  0  0  0  0  0  0  0  0
  143.8860   74.2390  219.5860 C   0  0  0  0  0  0  0  0  0  0  0  0
  144.8340   74.8320  220.4380 C   0  0  0  0  0  0  0  0  0  0  0  0
  145.8090   74.0470  221.0630 C   0  0  0  0  0  0  0  0  0  0  0  0
  145.8470   72.6680  220.8450 C   0  0  0  0  0  0  0  0  0  0  0  0
  144.9030   72.0680  220.0080 C   0  0  0  0  0  0  0  0  0  0  0  0
  143.9240   72.8460  219.3860 C   0  0  0  0  0  0  0  0  0  0  0  0
  142.9869   76.6196  220.4060 H   0  0  0  0  0  0  0  0  0  0  0  0
  143.9201   76.9669  218.9109 H   0  0  0  0  0  0  0  0  0  0  0  0
  142.1311   77.1284  218.9109 H   0  0  0  0  0  0  0  0  0  0  0  0
  143.0154   75.0183  217.8012 H   0  0  0  0  0  0  0  0  0  0  0  0
  141.8007   75.2423  221.7787 H   0  0  0  0  0  0  0  0  0  0  0  0
  140.3225   76.2482  221.9395 H   0  0  0  0  0  0  0  0  0  0  0  0
  141.0020   73.0410  219.8330 H   0  0  0  0  0  0  0  0  0  0  0  0
  139.1816   70.3969  221.7529 H   0  0  0  0  0  0  0  0  0  0  0  0
  139.0737   68.7719  223.6503 H   0  0  0  0  0  0  0  0  0  0  0  0
  139.5632   68.2286  226.0109 H   0  0  0  0  0  0  0  0  0  0  0  0
  141.5150   71.1819  228.5052 H   0  0  0  0  0  0  0  0  0  0  0  0
  141.5818   72.7742  226.5841 H   0  0  0  0  0  0  0  0  0  0  0  0
  144.8091   75.9175  220.6140 H   0  0  0  0  0  0  0  0  0  0  0  0
  146.5480   74.5174  221.7282 H   0  0  0  0  0  0  0  0  0  0  0  0
  146.6196   72.0548  221.3319 H   0  0  0  0  0  0  0  0  0  0  0  0
  144.9308   70.9815  219.8386 H   0  0  0  0  0  0  0  0  0  0  0  0
  143.1775   72.3670  218.7354 H   0  0  0  0  0  0  0  0  0  0  0  0
  1  2  1  0
  2  3  1  0
  3  4  1  0
  4  5  2  0
  4  6  1  0
  6  7  1  0
  7  8  2  0
  8  9  1  0
  8 10  1  0
 10 11  2  0
 11 12  1  0
 12 13  2  0
 13 14  1  0
 14 15  2  0
 15 16  1  0
 15 17  1  0
 17 18  2  0
 18 19  1  0
 19 20  2  0
  2 21  1  0
 21 22  2  0
 22 23  1  0
 23 24  2  0
 24 25  1  0
 25 26  2  0
 20 10  1  0
 26 21  1  0
 19 13  1  0
  1 27  1  0
  1 28  1  0
  1 29  1  0
  2 30  1  6
  6 31  1  0
  6 32  1  0
  9 33  1  0
 11 34  1  0
 12 35  1  0
 14 36  1  0
 17 37  1  0
 18 38  1  0
 22 39  1  0
 23 40  1  0
 24 41  1  0
 25 42  1  0
 26 43  1  0
M  CHG  1   3  -1
M  END
>  <meeko>  (9) 
{"free_energy": -6.57, "intermolecular_energy": -8.96, "internal_energy": -1.9, "cluster_size": 1, "cluster_id": 5, "rank_in_cluster": 1}

$$$$

     RDKit          3D

 43 45  0  0  0  0  0  0  0  0999 V2000
  139.0350   69.0980  224.1760 C   0  0  0  0  0  0  0  0  0  0  0  0
  139.3850   70.5640  224.4240 C   0  0  2  0  0  0  0  0  0  0  0  0
  140.2980   71.0300  223.3830 N   0  0  0  0  0  0  0  0  0  0  0  0
  139.8980   71.9250  222.3410 C   0  0  0  0  0  0  0  0  0  0  0  0
  138.7750   72.4980  222.3890 O   0  0  0  0  0  0  0  0  0  0  0  0
  140.8570   72.2690  221.2450 C   0  0  0  0  0  0  0  0  0  0  0  0
  141.4660   73.5670  221.5250 N   0  0  0  0  0  0  0  0  0  0  0  0
  140.8640   74.7240  221.5220 C   0  0  0  0  0  0  0  0  0  0  0  0
  139.7320   74.9720  222.3050 O   0  0  0  0  0  0  0  0  0  0  0  0
  141.3640   75.8110  220.6600 C   0  0  0  0  0  0  0  0  0  0  0  0
  142.0360   75.5480  219.4540 C   0  0  0  0  0  0  0  0  0  0  0  0
  142.4520   76.6100  218.6480 C   0  0  0  0  0  0  0  0  0  0  0  0
  142.1960   77.9270  219.0430 C   0  0  0  0  0  0  0  0  0  0  0  0
  142.5930   79.0170  218.2530 C   0  0  0  0  0  0  0  0  0  0  0  0
  142.3170   80.3230  218.6740 C   0  0  0  0  0  0  0  0  0  0  0  0
  142.8090   81.6840  217.6840 Cl  0  0  0  0  0  0  0  0  0  0  0  0
  141.6450   80.5450  219.8830 C   0  0  0  0  0  0  0  0  0  0  0  0
  141.2480   79.4640  220.6740 C   0  0  0  0  0  0  0  0  0  0  0  0
  141.5190   78.1550  220.2610 C   0  0  0  0  0  0  0  0  0  0  0  0
  141.1250   77.1020  221.0240 N   0  0  0  0  0  0  0  0  0  0  0  0
  140.0230   70.7370  225.7860 C   0  0  0  0  0  0  0  0  0  0  0  0
  139.8600   69.7520  226.7760 C   0  0  0  0  0  0  0  0  0  0  0  0
  140.4260   69.9250  228.0430 C   0  0  0  0  0  0  0  0  0  0  0  0
  141.1590   71.0770  228.3340 C   0  0  0  0  0  0  0  0  0  0  0  0
  141.3350   72.0580  227.3540 C   0  0  0  0  0  0  0  0  0  0  0  0
  140.7770   71.8880  226.0860 C   0  0  0  0  0  0  0  0  0  0  0  0
  138.9119   68.5823  225.1398 H   0  0  0  0  0  0  0  0  0  0  0  0
  138.0969   69.0365  223.6048 H   0  0  0  0  0  0  0  0  0  0  0  0
  139.8441   68.6194  223.6048 H   0  0  0  0  0  0  0  0  0  0  0  0
  138.4606   71.1596  224.3960 H   0  0  0  0  0  0  0  0  0  0  0  0
  141.6413   71.4998  221.1884 H   0  0  0  0  0  0  0  0  0  0  0  0
  140.3197   72.3136  220.2862 H   0  0  0  0  0  0  0  0  0  0  0  0
  139.1810   74.2480  222.7450 H   0  0  0  0  0  0  0  0  0  0  0  0
  142.2334   74.5105  219.1463 H   0  0  0  0  0  0  0  0  0  0  0  0
  142.9802   76.4109  217.7039 H   0  0  0  0  0  0  0  0  0  0  0  0
  143.1208   78.8450  217.3034 H   0  0  0  0  0  0  0  0  0  0  0  0
  141.4294   81.5728  220.2103 H   0  0  0  0  0  0  0  0  0  0  0  0
  140.7214   79.6423  221.6232 H   0  0  0  0  0  0  0  0  0  0  0  0
  139.2848   68.8413  226.5529 H   0  0  0  0  0  0  0  0  0  0  0  0
  140.2932   69.1507  228.8130 H   0  0  0  0  0  0  0  0  0  0  0  0
  141.5976   71.2125  229.3336 H   0  0  0  0  0  0  0  0  0  0  0  0
  141.9139   72.9650  227.5824 H   0  0  0  0  0  0  0  0  0  0  0  0
  140.9272   72.6586  225.3155 H   0  0  0  0  0  0  0  0  0  0  0  0
  1  2  1  0
  2  3  1  0
  3  4  1  0
  4  5  2  0
  4  6  1  0
  6  7  1  0
  7  8  2  0
  8  9  1  0
  8 10  1  0
 10 11  2  0
 11 12  1  0
 12 13  2  0
 13 14  1  0
 14 15  2  0
 15 16  1  0
 15 17  1  0
 17 18  2  0
 18 19  1  0
 19 20  2  0
  2 21  1  0
 21 22  2  0
 22 23  1  0
 23 24  2  0
 24 25  1  0
 25 26  2  0
 20 10  1  0
 26 21  1  0
 19 13  1  0
  1 27  1  0
  1 28  1  0
  1 29  1  0
  2 30  1  1
  6 31  1  0
  6 32  1  0
  9 33  1  0
 11 34  1  0
 12 35  1  0
 14 36  1  0
 17 37  1  0
 18 38  1  0
 22 39  1  0
 23 40  1  0
 24 41  1  0
 25 42  1  0
 26 43  1  0
M  CHG  1   3  -1
M  END
>  <meeko>  (10) 
{"free_energy": -6.95, "intermolecular_energy": -9.34, "internal_energy": -1.41, "cluster_size": 5, "cluster_id": 3, "rank_in_cluster": 4}

$$$$

     RDKit          3D

 43 45  0  0  0  0  0  0  0  0999 V2000
  141.1020   67.4280  226.2190 C   0  0  0  0  0  0  0  0  0  0  0  0
  140.0490   68.2150  226.9950 C   0  0  2  0  0  0  0  0  0  0  0  0
  138.7530   68.0780  226.3360 N   0  0  0  0  0  0  0  0  0  0  0  0
  138.5480   68.3750  224.9510 C   0  0  0  0  0  0  0  0  0  0  0  0
  139.2490   67.8080  224.0680 O   0  0  0  0  0  0  0  0  0  0  0  0
  137.4270   69.2760  224.5390 C   0  0  0  0  0  0  0  0  0  0  0  0
  137.8390   70.0580  223.3760 N   0  0  0  0  0  0  0  0  0  0  0  0
  137.9470   71.3570  223.3120 C   0  0  0  0  0  0  0  0  0  0  0  0
  136.9520   72.2070  223.8040 O   0  0  0  0  0  0  0  0  0  0  0  0
  139.1370   71.9660  222.6910 C   0  0  0  0  0  0  0  0  0  0  0  0
  140.2840   71.2100  222.3930 C   0  0  0  0  0  0  0  0  0  0  0  0
  141.3710   71.8210  221.7630 C   0  0  0  0  0  0  0  0  0  0  0  0
  141.3110   73.1780  221.4300 C   0  0  0  0  0  0  0  0  0  0  0  0
  142.3820   73.8210  220.7890 C   0  0  0  0  0  0  0  0  0  0  0  0
  142.2880   75.1790  220.4650 C   0  0  0  0  0  0  0  0  0  0  0  0
  143.6240   75.9810  219.6600 Cl  0  0  0  0  0  0  0  0  0  0  0  0
  141.1280   75.8990  220.7780 C   0  0  0  0  0  0  0  0  0  0  0  0
  140.0590   75.2650  221.4160 C   0  0  0  0  0  0  0  0  0  0  0  0
  140.1430   73.9070  221.7440 C   0  0  0  0  0  0  0  0  0  0  0  0
  139.1010   73.2860  222.3560 N   0  0  0  0  0  0  0  0  0  0  0  0
  140.4320   69.6780  227.0820 C   0  0  0  0  0  0  0  0  0  0  0  0
  140.1230   70.4240  228.2330 C   0  0  0  0  0  0  0  0  0  0  0  0
  140.4530   71.7820  228.3010 C   0  0  0  0  0  0  0  0  0  0  0  0
  141.0920   72.4050  227.2280 C   0  0  0  0  0  0  0  0  0  0  0  0
  141.4120   71.6700  226.0840 C   0  0  0  0  0  0  0  0  0  0  0  0
  141.0900   70.3130  226.0120 C   0  0  0  0  0  0  0  0  0  0  0  0
  141.7772   66.9234  226.9257 H   0  0  0  0  0  0  0  0  0  0  0  0
  140.6061   66.6774  225.5861 H   0  0  0  0  0  0  0  0  0  0  0  0
  141.6815   68.1162  225.5861 H   0  0  0  0  0  0  0  0  0  0  0  0
  139.9865   67.8114  228.0164 H   0  0  0  0  0  0  0  0  0  0  0  0
  136.5451   68.6711  224.2814 H   0  0  0  0  0  0  0  0  0  0  0  0
  137.1748   69.9534  225.3681 H   0  0  0  0  0  0  0  0  0  0  0  0
  136.9870   73.2150  223.7370 H   0  0  0  0  0  0  0  0  0  0  0  0
  140.3255   70.1424  222.6546 H   0  0  0  0  0  0  0  0  0  0  0  0
  142.2726   71.2357  221.5293 H   0  0  0  0  0  0  0  0  0  0  0  0
  143.2940   73.2578  220.5418 H   0  0  0  0  0  0  0  0  0  0  0  0
  141.0586   76.9663  220.5208 H   0  0  0  0  0  0  0  0  0  0  0  0
  139.1500   75.8339  221.6609 H   0  0  0  0  0  0  0  0  0  0  0  0
  139.6203   69.9386  229.0825 H   0  0  0  0  0  0  0  0  0  0  0  0
  140.2079   72.3608  229.2037 H   0  0  0  0  0  0  0  0  0  0  0  0
  141.3436   73.4744  227.2831 H   0  0  0  0  0  0  0  0  0  0  0  0
  141.9180   72.1604  225.2393 H   0  0  0  0  0  0  0  0  0  0  0  0
  141.3524   69.7364  225.1128 H   0  0  0  0  0  0  0  0  0  0  0  0
  1  2  1  0
  2  3  1  0
  3  4  1  0
  4  5  2  0
  4  6  1  0
  6  7  1  0
  7  8  2  0
  8  9  1  0
  8 10  1  0
 10 11  2  0
 11 12  1  0
 12 13  2  0
 13 14  1  0
 14 15  2  0
 15 16  1  0
 15 17  1  0
 17 18  2  0
 18 19  1  0
 19 20  2  0
  2 21  1  0
 21 22  2  0
 22 23  1  0
 23 24  2  0
 24 25  1  0
 25 26  2  0
 20 10  1  0
 26 21  1  0
 19 13  1  0
  1 27  1  0
  1 28  1  0
  1 29  1  0
  2 30  1  1
  6 31  1  0
  6 32  1  0
  9 33  1  0
 11 34  1  0
 12 35  1  0
 14 36  1  0
 17 37  1  0
 18 38  1  0
 22 39  1  0
 23 40  1  0
 24 41  1  0
 25 42  1  0
 26 43  1  0
M  CHG  1   3  -1
M  END
>  <meeko>  (11) 
{"free_energy": -7.03, "intermolecular_energy": -9.42, "internal_energy": -1.64, "cluster_size": 4, "cluster_id": 4, "rank_in_cluster": 2}

$$$$

     RDKit          3D

 43 45  0  0  0  0  0  0  0  0999 V2000
  141.4540   67.3750  226.3270 C   0  0  0  0  0  0  0  0  0  0  0  0
  140.1680   68.0210  226.8390 C   0  0  2  0  0  0  0  0  0  0  0  0
  139.0950   67.8060  225.8720 N   0  0  0  0  0  0  0  0  0  0  0  0
  138.4380   68.8770  225.1860 C   0  0  0  0  0  0  0  0  0  0  0  0
  137.5080   69.5180  225.7500 O   0  0  0  0  0  0  0  0  0  0  0  0
  138.9260   69.3120  223.8410 C   0  0  0  0  0  0  0  0  0  0  0  0
  139.4070   70.6890  223.9230 N   0  0  0  0  0  0  0  0  0  0  0  0
  138.9920   71.7010  223.2110 C   0  0  0  0  0  0  0  0  0  0  0  0
  137.6530   72.1030  223.2060 O   0  0  0  0  0  0  0  0  0  0  0  0
  139.9440   72.4430  222.3640 C   0  0  0  0  0  0  0  0  0  0  0  0
  140.9700   71.7910  221.6580 C   0  0  0  0  0  0  0  0  0  0  0  0
  141.8200   72.5290  220.8320 C   0  0  0  0  0  0  0  0  0  0  0  0
  141.6450   73.9120  220.7100 C   0  0  0  0  0  0  0  0  0  0  0  0
  142.4760   74.6840  219.8840 C   0  0  0  0  0  0  0  0  0  0  0  0
  142.2710   76.0640  219.7800 C   0  0  0  0  0  0  0  0  0  0  0  0
  143.3070   77.0270  218.7430 Cl  0  0  0  0  0  0  0  0  0  0  0  0
  141.2390   76.6780  220.5000 C   0  0  0  0  0  0  0  0  0  0  0  0
  140.4080   75.9160  221.3250 C   0  0  0  0  0  0  0  0  0  0  0  0
  140.6040   74.5350  221.4350 C   0  0  0  0  0  0  0  0  0  0  0  0
  139.7920   73.7900  222.2290 N   0  0  0  0  0  0  0  0  0  0  0  0
  140.3690   69.5050  227.0660 C   0  0  0  0  0  0  0  0  0  0  0  0
  141.1890   70.2500  226.1990 C   0  0  0  0  0  0  0  0  0  0  0  0
  141.3970   71.6140  226.4250 C   0  0  0  0  0  0  0  0  0  0  0  0
  140.7920   72.2470  227.5130 C   0  0  0  0  0  0  0  0  0  0  0  0
  139.9680   71.5180  228.3750 C   0  0  0  0  0  0  0  0  0  0  0  0
  139.7530   70.1570  228.1510 C   0  0  0  0  0  0  0  0  0  0  0  0
  142.0733   67.0639  227.1812 H   0  0  0  0  0  0  0  0  0  0  0  0
  141.2042   66.4954  225.7155 H   0  0  0  0  0  0  0  0  0  0  0  0
  142.0105   68.1005  225.7155 H   0  0  0  0  0  0  0  0  0  0  0  0
  139.8964   67.5571  227.7987 H   0  0  0  0  0  0  0  0  0  0  0  0
  139.7468   68.6549  223.5179 H   0  0  0  0  0  0  0  0  0  0  0  0
  138.1028   69.2523  223.1138 H   0  0  0  0  0  0  0  0  0  0  0  0
  137.3510   73.0600  223.3210 H   0  0  0  0  0  0  0  0  0  0  0  0
  141.1027   70.7034  221.7560 H   0  0  0  0  0  0  0  0  0  0  0  0
  142.6255   72.0244  220.2783 H   0  0  0  0  0  0  0  0  0  0  0  0
  143.2884   74.2043  219.3184 H   0  0  0  0  0  0  0  0  0  0  0  0
  141.0821   77.7635  220.4158 H   0  0  0  0  0  0  0  0  0  0  0  0
  139.5985   76.4025  221.8889 H   0  0  0  0  0  0  0  0  0  0  0  0
  141.6683   69.7576  225.3401 H   0  0  0  0  0  0  0  0  0  0  0  0
  142.0395   72.1907  225.7434 H   0  0  0  0  0  0  0  0  0  0  0  0
  140.9639   73.3187  227.6914 H   0  0  0  0  0  0  0  0  0  0  0  0
  139.4887   72.0169  229.2302 H   0  0  0  0  0  0  0  0  0  0  0  0
  139.0971   69.5896  228.8276 H   0  0  0  0  0  0  0  0  0  0  0  0
  1  2  1  0
  2  3  1  0
  3  4  1  0
  4  5  2  0
  4  6  1  0
  6  7  1  0
  7  8  2  0
  8  9  1  0
  8 10  1  0
 10 11  2  0
 11 12  1  0
 12 13  2  0
 13 14  1  0
 14 15  2  0
 15 16  1  0
 15 17  1  0
 17 18  2  0
 18 19  1  0
 19 20  2  0
  2 21  1  0
 21 22  2  0
 22 23  1  0
 23 24  2  0
 24 25  1  0
 25 26  2  0
 20 10  1  0
 26 21  1  0
 19 13  1  0
  1 27  1  0
  1 28  1  0
  1 29  1  0
  2 30  1  1
  6 31  1  0
  6 32  1  0
  9 33  1  0
 11 34  1  0
 12 35  1  0
 14 36  1  0
 17 37  1  0
 18 38  1  0
 22 39  1  0
 23 40  1  0
 24 41  1  0
 25 42  1  0
 26 43  1  0
M  CHG  1   3  -1
M  END
>  <meeko>  (12) 
{"free_energy": -7.36, "intermolecular_energy": -9.74, "internal_energy": -1.26, "cluster_size": 4, "cluster_id": 4, "rank_in_cluster": 1}

$$$$

     RDKit          3D

 43 45  0  0  0  0  0  0  0  0999 V2000
  140.9280   67.3600  226.4300 C   0  0  0  0  0  0  0  0  0  0  0  0
  139.8180   68.2500  226.9850 C   0  0  2  0  0  0  0  0  0  0  0  0
  138.6640   68.2050  226.0910 N   0  0  0  0  0  0  0  0  0  0  0  0
  138.7780   68.3070  224.6670 C   0  0  0  0  0  0  0  0  0  0  0  0
  139.1520   67.3130  223.9860 O   0  0  0  0  0  0  0  0  0  0  0  0
  138.3470   69.5600  223.9730 C   0  0  0  0  0  0  0  0  0  0  0  0
  137.0010   69.3770  223.4360 N   0  0  0  0  0  0  0  0  0  0  0  0
  135.8810   69.4680  224.1000 C   0  0  0  0  0  0  0  0  0  0  0  0
  135.0870   68.3480  224.3680 O   0  0  0  0  0  0  0  0  0  0  0  0
  135.4120   70.7820  224.5740 C   0  0  0  0  0  0  0  0  0  0  0  0
  135.9030   71.9830  224.0310 C   0  0  0  0  0  0  0  0  0  0  0  0
  135.3960   73.2040  224.4800 C   0  0  0  0  0  0  0  0  0  0  0  0
  134.4020   73.2260  225.4650 C   0  0  0  0  0  0  0  0  0  0  0  0
  133.8650   74.4350  225.9330 C   0  0  0  0  0  0  0  0  0  0  0  0
  132.8680   74.4230  226.9150 C   0  0  0  0  0  0  0  0  0  0  0  0
  132.1940   75.9340  227.4960 Cl  0  0  0  0  0  0  0  0  0  0  0  0
  132.4050   73.2070  227.4330 C   0  0  0  0  0  0  0  0  0  0  0  0
  132.9360   71.9990  226.9710 C   0  0  0  0  0  0  0  0  0  0  0  0
  133.9330   72.0020  225.9880 C   0  0  0  0  0  0  0  0  0  0  0  0
  134.4440   70.8290  225.5310 N   0  0  0  0  0  0  0  0  0  0  0  0
  140.3010   69.6770  227.1350 C   0  0  0  0  0  0  0  0  0  0  0  0
  141.0640   70.2770  226.1170 C   0  0  0  0  0  0  0  0  0  0  0  0
  141.5330   71.5860  226.2670 C   0  0  0  0  0  0  0  0  0  0  0  0
  141.2480   72.3060  227.4290 C   0  0  0  0  0  0  0  0  0  0  0  0
  140.4830   71.7220  228.4420 C   0  0  0  0  0  0  0  0  0  0  0  0
  140.0070   70.4180  228.2950 C   0  0  0  0  0  0  0  0  0  0  0  0
  141.4886   66.9105  227.2629 H   0  0  0  0  0  0  0  0  0  0  0  0
  140.4856   66.5635  225.8136 H   0  0  0  0  0  0  0  0  0  0  0  0
  141.6093   67.9649  225.8136 H   0  0  0  0  0  0  0  0  0  0  0  0
  139.5282   67.8771  227.9785 H   0  0  0  0  0  0  0  0  0  0  0  0
  138.3463   70.3949  224.6892 H   0  0  0  0  0  0  0  0  0  0  0  0
  139.0436   69.7841  223.1517 H   0  0  0  0  0  0  0  0  0  0  0  0
  134.4300   67.9530  223.7100 H   0  0  0  0  0  0  0  0  0  0  0  0
  136.6832   71.9604  223.2559 H   0  0  0  0  0  0  0  0  0  0  0  0
  135.7770   74.1467  224.0604 H   0  0  0  0  0  0  0  0  0  0  0  0
  134.2275   75.3915  225.5283 H   0  0  0  0  0  0  0  0  0  0  0  0
  131.6217   73.2023  228.2052 H   0  0  0  0  0  0  0  0  0  0  0  0
  132.5703   71.0456  227.3800 H   0  0  0  0  0  0  0  0  0  0  0  0
  141.2926   69.7147  225.1997 H   0  0  0  0  0  0  0  0  0  0  0  0
  142.1284   72.0500  225.4669 H   0  0  0  0  0  0  0  0  0  0  0  0
  141.6255   73.3324  227.5468 H   0  0  0  0  0  0  0  0  0  0  0  0
  140.2557   72.2903  229.3560 H   0  0  0  0  0  0  0  0  0  0  0  0
  139.3977   69.9662  229.0916 H   0  0  0  0  0  0  0  0  0  0  0  0
  1  2  1  0
  2  3  1  0
  3  4  1  0
  4  5  2  0
  4  6  1  0
  6  7  1  0
  7  8  2  0
  8  9  1  0
  8 10  1  0
 10 11  2  0
 11 12  1  0
 12 13  2  0
 13 14  1  0
 14 15  2  0
 15 16  1  0
 15 17  1  0
 17 18  2  0
 18 19  1  0
 19 20  2  0
  2 21  1  0
 21 22  2  0
 22 23  1  0
 23 24  2  0
 24 25  1  0
 25 26  2  0
 20 10  1  0
 26 21  1  0
 19 13  1  0
  1 27  1  0
  1 28  1  0
  1 29  1  0
  2 30  1  1
  6 31  1  0
  6 32  1  0
  9 33  1  0
 11 34  1  0
 12 35  1  0
 14 36  1  0
 17 37  1  0
 18 38  1  0
 22 39  1  0
 23 40  1  0
 24 41  1  0
 25 42  1  0
 26 43  1  0
M  CHG  1   3  -1
M  END
>  <meeko>  (13) 
{"free_energy": -7.59, "intermolecular_energy": -9.98, "internal_energy": -0.95, "cluster_size": 2, "cluster_id": 2, "rank_in_cluster": 1}

$$$$

     RDKit          3D

 43 45  0  0  0  0  0  0  0  0999 V2000
  139.7460   78.2520  220.3540 C   0  0  0  0  0  0  0  0  0  0  0  0
  140.7470   77.7570  221.3970 C   0  0  2  0  0  0  0  0  0  0  0  0
  140.0710   76.8680  222.3370 N   0  0  0  0  0  0  0  0  0  0  0  0
  139.5620   75.5820  221.9670 C   0  0  0  0  0  0  0  0  0  0  0  0
  138.3350   75.3220  222.0970 O   0  0  0  0  0  0  0  0  0  0  0  0
  140.4660   74.5810  221.3200 C   0  0  0  0  0  0  0  0  0  0  0  0
  140.5340   73.3820  222.1530 N   0  0  0  0  0  0  0  0  0  0  0  0
  139.5750   72.5210  222.3530 C   0  0  0  0  0  0  0  0  0  0  0  0
  138.4100   72.5160  221.5800 O   0  0  0  0  0  0  0  0  0  0  0  0
  139.6950   71.5260  223.4350 C   0  0  0  0  0  0  0  0  0  0  0  0
  139.3180   70.1840  223.2510 C   0  0  0  0  0  0  0  0  0  0  0  0
  139.4910   69.2680  224.2900 C   0  0  0  0  0  0  0  0  0  0  0  0
  140.0390   69.6890  225.5070 C   0  0  0  0  0  0  0  0  0  0  0  0
  140.2340   68.7930  226.5690 C   0  0  0  0  0  0  0  0  0  0  0  0
  140.7890   69.2450  227.7720 C   0  0  0  0  0  0  0  0  0  0  0  0
  141.0370   68.1230  229.0970 Cl  0  0  0  0  0  0  0  0  0  0  0  0
  141.1510   70.5900  227.9180 C   0  0  0  0  0  0  0  0  0  0  0  0
  140.9590   71.4880  226.8640 C   0  0  0  0  0  0  0  0  0  0  0  0
  140.4050   71.0440  225.6570 C   0  0  0  0  0  0  0  0  0  0  0  0
  140.2260   71.9130  224.6280 N   0  0  0  0  0  0  0  0  0  0  0  0
  141.3640   78.9230  222.1400 C   0  0  0  0  0  0  0  0  0  0  0  0
  141.6860   78.8040  223.5040 C   0  0  0  0  0  0  0  0  0  0  0  0
  142.2310   79.8900  224.1960 C   0  0  0  0  0  0  0  0  0  0  0  0
  142.4600   81.1000  223.5390 C   0  0  0  0  0  0  0  0  0  0  0  0
  142.1530   81.2250  222.1810 C   0  0  0  0  0  0  0  0  0  0  0  0
  141.6130   80.1430  221.4830 C   0  0  0  0  0  0  0  0  0  0  0  0
  138.8713   78.6846  220.8616 H   0  0  0  0  0  0  0  0  0  0  0  0
  140.2212   79.0190  219.7248 H   0  0  0  0  0  0  0  0  0  0  0  0
  139.4250   77.4088  219.7248 H   0  0  0  0  0  0  0  0  0  0  0  0
  141.5513   77.2080  220.8853 H   0  0  0  0  0  0  0  0  0  0  0  0
  140.0716   74.3171  220.3277 H   0  0  0  0  0  0  0  0  0  0  0  0
  141.4726   75.0107  221.2098 H   0  0  0  0  0  0  0  0  0  0  0  0
  137.8360   73.3320  221.4210 H   0  0  0  0  0  0  0  0  0  0  0  0
  138.8886   69.8573  222.2924 H   0  0  0  0  0  0  0  0  0  0  0  0
  139.1971   68.2170  224.1524 H   0  0  0  0  0  0  0  0  0  0  0  0
  139.9509   67.7360  226.4563 H   0  0  0  0  0  0  0  0  0  0  0  0
  141.5876   70.9408  228.8647 H   0  0  0  0  0  0  0  0  0  0  0  0
  141.2433   72.5440  226.9828 H   0  0  0  0  0  0  0  0  0  0  0  0
  141.5085   77.8534  224.0282 H   0  0  0  0  0  0  0  0  0  0  0  0
  142.4803   79.7903  225.2627 H   0  0  0  0  0  0  0  0  0  0  0  0
  142.8815   81.9542  224.0892 H   0  0  0  0  0  0  0  0  0  0  0  0
  142.3371   82.1770  221.6616 H   0  0  0  0  0  0  0  0  0  0  0  0
  141.3806   80.2445  220.4126 H   0  0  0  0  0  0  0  0  0  0  0  0
  1  2  1  0
  2  3  1  0
  3  4  1  0
  4  5  2  0
  4  6  1  0
  6  7  1  0
  7  8  2  0
  8  9  1  0
  8 10  1  0
 10 11  2  0
 11 12  1  0
 12 13  2  0
 13 14  1  0
 14 15  2  0
 15 16  1  0
 15 17  1  0
 17 18  2  0
 18 19  1  0
 19 20  2  0
  2 21  1  0
 21 22  2  0
 22 23  1  0
 23 24  2  0
 24 25  1  0
 25 26  2  0
 20 10  1  0
 26 21  1  0
 19 13  1  0
  1 27  1  0
  1 28  1  0
  1 29  1  0
  2 30  1  6
  6 31  1  0
  6 32  1  0
  9 33  1  0
 11 34  1  0
 12 35  1  0
 14 36  1  0
 17 37  1  0
 18 38  1  0
 22 39  1  0
 23 40  1  0
 24 41  1  0
 25 42  1  0
 26 43  1  0
M  CHG  1   3  -1
M  END
>  <meeko>  (14) 
{"free_energy": -7.29, "intermolecular_energy": -9.68, "internal_energy": -1.31, "cluster_size": 7, "cluster_id": 1, "rank_in_cluster": 3}

$$$$

     RDKit          3D

 43 45  0  0  0  0  0  0  0  0999 V2000
  141.4270   77.0400  220.9820 C   0  0  0  0  0  0  0  0  0  0  0  0
  140.7730   77.3510  222.3270 C   0  0  2  0  0  0  0  0  0  0  0  0
  139.3210   77.2890  222.1890 N   0  0  0  0  0  0  0  0  0  0  0  0
  138.5680   76.0930  222.4170 C   0  0  0  0  0  0  0  0  0  0  0  0
  137.6550   76.0730  223.2870 O   0  0  0  0  0  0  0  0  0  0  0  0
  138.7870   74.8960  221.5470 C   0  0  0  0  0  0  0  0  0  0  0  0
  139.9550   74.1590  222.0240 N   0  0  0  0  0  0  0  0  0  0  0  0
  140.2150   72.8980  221.8160 C   0  0  0  0  0  0  0  0  0  0  0  0
  140.5930   72.4180  220.5580 O   0  0  0  0  0  0  0  0  0  0  0  0
  140.0940   71.9300  222.9220 C   0  0  0  0  0  0  0  0  0  0  0  0
  139.5160   70.6620  222.7340 C   0  0  0  0  0  0  0  0  0  0  0  0
  139.4640   69.7610  223.8000 C   0  0  0  0  0  0  0  0  0  0  0  0
  139.9880   70.1230  225.0460 C   0  0  0  0  0  0  0  0  0  0  0  0
  139.9590   69.2390  226.1350 C   0  0  0  0  0  0  0  0  0  0  0  0
  140.4960   69.6300  227.3670 C   0  0  0  0  0  0  0  0  0  0  0  0
  140.4640   68.5240  228.7270 Cl  0  0  0  0  0  0  0  0  0  0  0  0
  141.0630   70.9020  227.5140 C   0  0  0  0  0  0  0  0  0  0  0  0
  141.0950   71.7880  226.4340 C   0  0  0  0  0  0  0  0  0  0  0  0
  140.5600   71.4050  225.1980 C   0  0  0  0  0  0  0  0  0  0  0  0
  140.5980   72.2600  224.1430 N   0  0  0  0  0  0  0  0  0  0  0  0
  141.1880   78.7230  222.8160 C   0  0  0  0  0  0  0  0  0  0  0  0
  142.5370   79.1160  222.7670 C   0  0  0  0  0  0  0  0  0  0  0  0
  142.9230   80.3720  223.2450 C   0  0  0  0  0  0  0  0  0  0  0  0
  141.9710   81.2460  223.7740 C   0  0  0  0  0  0  0  0  0  0  0  0
  140.6260   80.8700  223.8180 C   0  0  0  0  0  0  0  0  0  0  0  0
  140.2340   79.6180  223.3380 C   0  0  0  0  0  0  0  0  0  0  0  0
  142.4086   76.5732  221.1508 H   0  0  0  0  0  0  0  0  0  0  0  0
  140.7860   76.3503  220.4133 H   0  0  0  0  0  0  0  0  0  0  0  0
  141.5574   77.9725  220.4133 H   0  0  0  0  0  0  0  0  0  0  0  0
  141.1037   76.6048  223.0645 H   0  0  0  0  0  0  0  0  0  0  0  0
  137.9007   74.2457  221.5870 H   0  0  0  0  0  0  0  0  0  0  0  0
  138.9548   75.2206  220.5094 H   0  0  0  0  0  0  0  0  0  0  0  0
  141.1570   72.9390  219.9020 H   0  0  0  0  0  0  0  0  0  0  0  0
  139.1069   70.3811  221.7523 H   0  0  0  0  0  0  0  0  0  0  0  0
  139.0117   68.7681  223.6602 H   0  0  0  0  0  0  0  0  0  0  0  0
  139.5145   68.2393  226.0207 H   0  0  0  0  0  0  0  0  0  0  0  0
  141.4849   71.2049  228.4837 H   0  0  0  0  0  0  0  0  0  0  0  0
  141.5405   72.7865  226.5548 H   0  0  0  0  0  0  0  0  0  0  0  0
  143.2919   78.4326  222.3509 H   0  0  0  0  0  0  0  0  0  0  0  0
  143.9803   80.6727  223.2042 H   0  0  0  0  0  0  0  0  0  0  0  0
  142.2799   82.2302  224.1560 H   0  0  0  0  0  0  0  0  0  0  0  0
  139.8755   81.5602  224.2308 H   0  0  0  0  0  0  0  0  0  0  0  0
  139.1730   79.3292  223.3679 H   0  0  0  0  0  0  0  0  0  0  0  0
  1  2  1  0
  2  3  1  0
  3  4  1  0
  4  5  2  0
  4  6  1  0
  6  7  1  0
  7  8  2  0
  8  9  1  0
  8 10  1  0
 10 11  2  0
 11 12  1  0
 12 13  2  0
 13 14  1  0
 14 15  2  0
 15 16  1  0
 15 17  1  0
 17 18  2  0
 18 19  1  0
 19 20  2  0
  2 21  1  0
 21 22  2  0
 22 23  1  0
 23 24  2  0
 24 25  1  0
 25 26  2  0
 20 10  1  0
 26 21  1  0
 19 13  1  0
  1 27  1  0
  1 28  1  0
  1 29  1  0
  2 30  1  1
  6 31  1  0
  6 32  1  0
  9 33  1  0
 11 34  1  0
 12 35  1  0
 14 36  1  0
 17 37  1  0
 18 38  1  0
 22 39  1  0
 23 40  1  0
 24 41  1  0
 25 42  1  0
 26 43  1  0
M  CHG  1   3  -1
M  END
>  <meeko>  (15) 
{"free_energy": -7.69, "intermolecular_energy": -10.08, "internal_energy": -0.71, "cluster_size": 7, "cluster_id": 1, "rank_in_cluster": 1}

$$$$

     RDKit          3D

 43 45  0  0  0  0  0  0  0  0999 V2000
  138.1060   76.7800  223.0080 C   0  0  0  0  0  0  0  0  0  0  0  0
  138.6540   77.7930  222.0040 C   0  0  2  0  0  0  0  0  0  0  0  0
  139.1250   77.0930  220.8120 N   0  0  0  0  0  0  0  0  0  0  0  0
  139.3490   75.6800  220.7770 C   0  0  0  0  0  0  0  0  0  0  0  0
  138.4190   74.8960  220.4430 O   0  0  0  0  0  0  0  0  0  0  0  0
  140.7200   75.1360  221.0290 C   0  0  0  0  0  0  0  0  0  0  0  0
  140.6350   74.0400  221.9920 N   0  0  0  0  0  0  0  0  0  0  0  0
  140.1200   72.8600  221.7830 C   0  0  0  0  0  0  0  0  0  0  0  0
  139.6320   72.4780  220.5300 O   0  0  0  0  0  0  0  0  0  0  0  0
  140.0230   71.8930  222.8910 C   0  0  0  0  0  0  0  0  0  0  0  0
  139.4470   70.6220  222.7160 C   0  0  0  0  0  0  0  0  0  0  0  0
  139.4170   69.7220  223.7830 C   0  0  0  0  0  0  0  0  0  0  0  0
  139.9630   70.0880  225.0190 C   0  0  0  0  0  0  0  0  0  0  0  0
  139.9570   69.2050  226.1100 C   0  0  0  0  0  0  0  0  0  0  0  0
  140.5150   69.6000  227.3310 C   0  0  0  0  0  0  0  0  0  0  0  0
  140.5110   68.4950  228.6920 Cl  0  0  0  0  0  0  0  0  0  0  0  0
  141.0790   70.8750  227.4670 C   0  0  0  0  0  0  0  0  0  0  0  0
  141.0880   71.7590  226.3850 C   0  0  0  0  0  0  0  0  0  0  0  0
  140.5330   71.3720  225.1590 C   0  0  0  0  0  0  0  0  0  0  0  0
  140.5480   72.2270  224.1030 N   0  0  0  0  0  0  0  0  0  0  0  0
  139.7860   78.5920  222.6150 C   0  0  0  0  0  0  0  0  0  0  0  0
  141.0280   77.9820  222.8680 C   0  0  0  0  0  0  0  0  0  0  0  0
  142.0640   78.7130  223.4580 C   0  0  0  0  0  0  0  0  0  0  0  0
  141.8740   80.0540  223.7990 C   0  0  0  0  0  0  0  0  0  0  0  0
  140.6470   80.6720  223.5430 C   0  0  0  0  0  0  0  0  0  0  0  0
  139.6100   79.9480  222.9490 C   0  0  0  0  0  0  0  0  0  0  0  0
  138.2987   77.1363  224.0307 H   0  0  0  0  0  0  0  0  0  0  0  0
  137.0224   76.6645  222.8581 H   0  0  0  0  0  0  0  0  0  0  0  0
  138.6023   75.8099  222.8581 H   0  0  0  0  0  0  0  0  0  0  0  0
  137.8485   78.4891  221.7273 H   0  0  0  0  0  0  0  0  0  0  0  0
  141.1469   74.7642  220.0859 H   0  0  0  0  0  0  0  0  0  0  0  0
  141.3639   75.9316  221.4320 H   0  0  0  0  0  0  0  0  0  0  0  0
  139.0040   73.0410  219.9730 H   0  0  0  0  0  0  0  0  0  0  0  0
  139.0217   70.3380  221.7421 H   0  0  0  0  0  0  0  0  0  0  0  0
  138.9653   68.7275  223.6527 H   0  0  0  0  0  0  0  0  0  0  0  0
  139.5141   68.2035  226.0054 H   0  0  0  0  0  0  0  0  0  0  0  0
  141.5162   71.1813  228.4288 H   0  0  0  0  0  0  0  0  0  0  0  0
  141.5313   72.7595  226.4963 H   0  0  0  0  0  0  0  0  0  0  0  0
  141.1849   76.9265  222.6009 H   0  0  0  0  0  0  0  0  0  0  0  0
  143.0325   78.2298  223.6543 H   0  0  0  0  0  0  0  0  0  0  0  0
  142.6896   80.6233  224.2687 H   0  0  0  0  0  0  0  0  0  0  0  0
  140.4975   81.7288  223.8092 H   0  0  0  0  0  0  0  0  0  0  0  0
  138.6491   80.4413  222.7409 H   0  0  0  0  0  0  0  0  0  0  0  0
  1  2  1  0
  2  3  1  0
  3  4  1  0
  4  5  2  0
  4  6  1  0
  6  7  1  0
  7  8  2  0
  8  9  1  0
  8 10  1  0
 10 11  2  0
 11 12  1  0
 12 13  2  0
 13 14  1  0
 14 15  2  0
 15 16  1  0
 15 17  1  0
 17 18  2  0
 18 19  1  0
 19 20  2  0
  2 21  1  0
 21 22  2  0
 22 23  1  0
 23 24  2  0
 24 25  1  0
 25 26  2  0
 20 10  1  0
 26 21  1  0
 19 13  1  0
  1 27  1  0
  1 28  1  0
  1 29  1  0
  2 30  1  6
  6 31  1  0
  6 32  1  0
  9 33  1  0
 11 34  1  0
 12 35  1  0
 14 36  1  0
 17 37  1  0
 18 38  1  0
 22 39  1  0
 23 40  1  0
 24 41  1  0
 25 42  1  0
 26 43  1  0
M  CHG  1   3  -1
M  END
>  <meeko>  (16) 
{"free_energy": -6.78, "intermolecular_energy": -9.16, "internal_energy": -1.52, "cluster_size": 7, "cluster_id": 1, "rank_in_cluster": 6}

$$$$

     RDKit          3D

 43 45  0  0  0  0  0  0  0  0999 V2000
  139.3670   69.0720  224.1920 C   0  0  0  0  0  0  0  0  0  0  0  0
  139.6290   70.5610  224.4050 C   0  0  2  0  0  0  0  0  0  0  0  0
  140.6360   71.0200  223.4520 N   0  0  0  0  0  0  0  0  0  0  0  0
  140.3170   71.4290  222.1180 C   0  0  0  0  0  0  0  0  0  0  0  0
  139.1210   71.4170  221.7180 O   0  0  0  0  0  0  0  0  0  0  0  0
  141.3880   71.9760  221.2290 C   0  0  0  0  0  0  0  0  0  0  0  0
  141.0630   73.3540  220.8710 N   0  0  0  0  0  0  0  0  0  0  0  0
  140.4970   74.2430  221.6400 C   0  0  0  0  0  0  0  0  0  0  0  0
  139.5340   73.8930  222.5910 O   0  0  0  0  0  0  0  0  0  0  0  0
  140.8540   75.6670  221.5030 C   0  0  0  0  0  0  0  0  0  0  0  0
  141.6880   76.1250  220.4690 C   0  0  0  0  0  0  0  0  0  0  0  0
  141.9630   77.4890  220.3530 C   0  0  0  0  0  0  0  0  0  0  0  0
  141.4050   78.3920  221.2650 C   0  0  0  0  0  0  0  0  0  0  0  0
  141.6550   79.7700  221.1730 C   0  0  0  0  0  0  0  0  0  0  0  0
  141.0770   80.6480  222.0980 C   0  0  0  0  0  0  0  0  0  0  0  0
  141.3850   82.3700  221.9790 Cl  0  0  0  0  0  0  0  0  0  0  0  0
  140.2520   80.1540  223.1150 C   0  0  0  0  0  0  0  0  0  0  0  0
  140.0000   78.7830  223.2130 C   0  0  0  0  0  0  0  0  0  0  0  0
  140.5720   77.8980  222.2920 C   0  0  0  0  0  0  0  0  0  0  0  0
  140.3220   76.5650  222.3790 N   0  0  0  0  0  0  0  0  0  0  0  0
  140.1000   70.8240  225.8200 C   0  0  0  0  0  0  0  0  0  0  0  0
  140.9780   71.8880  226.0900 C   0  0  0  0  0  0  0  0  0  0  0  0
  141.4340   72.1130  227.3920 C   0  0  0  0  0  0  0  0  0  0  0  0
  141.0200   71.2830  228.4360 C   0  0  0  0  0  0  0  0  0  0  0  0
  140.1390   70.2280  228.1800 C   0  0  0  0  0  0  0  0  0  0  0  0
  139.6770   70.0020  226.8820 C   0  0  0  0  0  0  0  0  0  0  0  0
  139.2790   68.5719  225.1678 H   0  0  0  0  0  0  0  0  0  0  0  0
  138.4321   68.9413  223.6274 H   0  0  0  0  0  0  0  0  0  0  0  0
  140.2012   68.6300  223.6274 H   0  0  0  0  0  0  0  0  0  0  0  0
  138.6909   71.1124  224.2439 H   0  0  0  0  0  0  0  0  0  0  0  0
  142.3522   71.9517  221.7579 H   0  0  0  0  0  0  0  0  0  0  0  0
  141.4563   71.3652  220.3167 H   0  0  0  0  0  0  0  0  0  0  0  0
  139.5630   73.0430  223.1360 H   0  0  0  0  0  0  0  0  0  0  0  0
  142.1227   75.4115  219.7535 H   0  0  0  0  0  0  0  0  0  0  0  0
  142.6167   77.8530  219.5467 H   0  0  0  0  0  0  0  0  0  0  0  0
  142.3042   80.1598  220.3752 H   0  0  0  0  0  0  0  0  0  0  0  0
  139.8004   80.8474  223.8397 H   0  0  0  0  0  0  0  0  0  0  0  0
  139.3517   78.3992  224.0145 H   0  0  0  0  0  0  0  0  0  0  0  0
  141.3077   72.5466  225.2729 H   0  0  0  0  0  0  0  0  0  0  0  0
  142.1217   72.9472  227.5951 H   0  0  0  0  0  0  0  0  0  0  0  0
  141.3865   71.4590  229.4581 H   0  0  0  0  0  0  0  0  0  0  0  0
  139.8096   69.5754  229.0019 H   0  0  0  0  0  0  0  0  0  0  0  0
  138.9774   69.1757  226.6876 H   0  0  0  0  0  0  0  0  0  0  0  0
  1  2  1  0
  2  3  1  0
  3  4  1  0
  4  5  2  0
  4  6  1  0
  6  7  1  0
  7  8  2  0
  8  9  1  0
  8 10  1  0
 10 11  2  0
 11 12  1  0
 12 13  2  0
 13 14  1  0
 14 15  2  0
 15 16  1  0
 15 17  1  0
 17 18  2  0
 18 19  1  0
 19 20  2  0
  2 21  1  0
 21 22  2  0
 22 23  1  0
 23 24  2  0
 24 25  1  0
 25 26  2  0
 20 10  1  0
 26 21  1  0
 19 13  1  0
  1 27  1  0
  1 28  1  0
  1 29  1  0
  2 30  1  6
  6 31  1  0
  6 32  1  0
  9 33  1  0
 11 34  1  0
 12 35  1  0
 14 36  1  0
 17 37  1  0
 18 38  1  0
 22 39  1  0
 23 40  1  0
 24 41  1  0
 25 42  1  0
 26 43  1  0
M  CHG  1   3  -1
M  END
>  <meeko>  (17) 
{"free_energy": -7.12, "intermolecular_energy": -9.51, "internal_energy": -1.59, "cluster_size": 5, "cluster_id": 3, "rank_in_cluster": 2}

$$$$

     RDKit          3D

 43 45  0  0  0  0  0  0  0  0999 V2000
  137.3770   78.3060  222.6980 C   0  0  0  0  0  0  0  0  0  0  0  0
  138.6920   77.8870  222.0430 C   0  0  2  0  0  0  0  0  0  0  0  0
  138.9040   76.4570  222.2440 N   0  0  0  0  0  0  0  0  0  0  0  0
  138.8100   75.4990  221.1860 C   0  0  0  0  0  0  0  0  0  0  0  0
  139.5710   75.5810  220.1830 O   0  0  0  0  0  0  0  0  0  0  0  0
  137.8830   74.3320  221.3150 C   0  0  0  0  0  0  0  0  0  0  0  0
  138.6650   73.1080  221.4730 N   0  0  0  0  0  0  0  0  0  0  0  0
  139.7500   72.9660  222.1830 C   0  0  0  0  0  0  0  0  0  0  0  0
  140.8730   73.7760  221.9900 O   0  0  0  0  0  0  0  0  0  0  0  0
  139.8220   71.9120  223.2130 C   0  0  0  0  0  0  0  0  0  0  0  0
  139.4260   70.5900  222.9460 C   0  0  0  0  0  0  0  0  0  0  0  0
  139.5540   69.6160  223.9390 C   0  0  0  0  0  0  0  0  0  0  0  0
  140.0760   69.9610  225.1910 C   0  0  0  0  0  0  0  0  0  0  0  0
  140.2250   69.0050  226.2080 C   0  0  0  0  0  0  0  0  0  0  0  0
  140.7550   69.3820  227.4480 C   0  0  0  0  0  0  0  0  0  0  0  0
  140.9450   68.1860  228.7170 Cl  0  0  0  0  0  0  0  0  0  0  0  0
  141.1360   70.7100  227.6750 C   0  0  0  0  0  0  0  0  0  0  0  0
  140.9900   71.6660  226.6670 C   0  0  0  0  0  0  0  0  0  0  0  0
  140.4610   71.2990  225.4240 C   0  0  0  0  0  0  0  0  0  0  0  0
  140.3270   72.2250  224.4390 N   0  0  0  0  0  0  0  0  0  0  0  0
  139.8510   78.6690  222.6260 C   0  0  0  0  0  0  0  0  0  0  0  0
  141.0690   78.0250  222.9080 C   0  0  0  0  0  0  0  0  0  0  0  0
  142.1300   78.7410  223.4710 C   0  0  0  0  0  0  0  0  0  0  0  0
  141.9880   80.1010  223.7570 C   0  0  0  0  0  0  0  0  0  0  0  0
  140.7850   80.7520  223.4720 C   0  0  0  0  0  0  0  0  0  0  0  0
  139.7240   80.0430  222.9040 C   0  0  0  0  0  0  0  0  0  0  0  0
  137.4851   78.2716  223.7921 H   0  0  0  0  0  0  0  0  0  0  0  0
  137.1222   79.3298  222.3867 H   0  0  0  0  0  0  0  0  0  0  0  0
  136.5769   77.6183  222.3867 H   0  0  0  0  0  0  0  0  0  0  0  0
  138.6359   78.1014  220.9655 H   0  0  0  0  0  0  0  0  0  0  0  0
  137.2373   74.4714  222.1946 H   0  0  0  0  0  0  0  0  0  0  0  0
  137.2590   74.2561  220.4123 H   0  0  0  0  0  0  0  0  0  0  0  0
  140.8270   74.7570  221.7520 H   0  0  0  0  0  0  0  0  0  0  0  0
  139.0173   70.3238  221.9600 H   0  0  0  0  0  0  0  0  0  0  0  0
  139.2451   68.5797  223.7374 H   0  0  0  0  0  0  0  0  0  0  0  0
  139.9259   67.9613  226.0311 H   0  0  0  0  0  0  0  0  0  0  0  0
  141.5518   71.0016  228.6507 H   0  0  0  0  0  0  0  0  0  0  0  0
  141.2910   72.7081  226.8501 H   0  0  0  0  0  0  0  0  0  0  0  0
  141.1875   76.9544  222.6849 H   0  0  0  0  0  0  0  0  0  0  0  0
  143.0801   78.2314  223.6895 H   0  0  0  0  0  0  0  0  0  0  0  0
  142.8227   80.6590  224.2063 H   0  0  0  0  0  0  0  0  0  0  0  0
  140.6734   81.8234  223.6950 H   0  0  0  0  0  0  0  0  0  0  0  0
  138.7823   80.5622  222.6723 H   0  0  0  0  0  0  0  0  0  0  0  0
  1  2  1  0
  2  3  1  0
  3  4  1  0
  4  5  2  0
  4  6  1  0
  6  7  1  0
  7  8  2  0
  8  9  1  0
  8 10  1  0
 10 11  2  0
 11 12  1  0
 12 13  2  0
 13 14  1  0
 14 15  2  0
 15 16  1  0
 15 17  1  0
 17 18  2  0
 18 19  1  0
 19 20  2  0
  2 21  1  0
 21 22  2  0
 22 23  1  0
 23 24  2  0
 24 25  1  0
 25 26  2  0
 20 10  1  0
 26 21  1  0
 19 13  1  0
  1 27  1  0
  1 28  1  0
  1 29  1  0
  2 30  1  6
  6 31  1  0
  6 32  1  0
  9 33  1  0
 11 34  1  0
 12 35  1  0
 14 36  1  0
 17 37  1  0
 18 38  1  0
 22 39  1  0
 23 40  1  0
 24 41  1  0
 25 42  1  0
 26 43  1  0
M  CHG  1   3  -1
M  END
>  <meeko>  (18) 
{"free_energy": -6.75, "intermolecular_energy": -9.13, "internal_energy": -1.57, "cluster_size": 7, "cluster_id": 1, "rank_in_cluster": 7}

$$$$

     RDKit          3D

 43 45  0  0  0  0  0  0  0  0999 V2000
  138.4530   76.4130  222.7440 C   0  0  0  0  0  0  0  0  0  0  0  0
  138.9010   77.5500  221.8280 C   0  0  2  0  0  0  0  0  0  0  0  0
  139.5150   76.9950  220.6250 N   0  0  0  0  0  0  0  0  0  0  0  0
  139.7520   75.5950  220.4470 C   0  0  0  0  0  0  0  0  0  0  0  0
  138.9940   74.9100  219.7070 O   0  0  0  0  0  0  0  0  0  0  0  0
  140.9660   74.9610  221.0500 C   0  0  0  0  0  0  0  0  0  0  0  0
  140.5540   74.0220  222.0910 N   0  0  0  0  0  0  0  0  0  0  0  0
  139.9410   72.8840  221.9120 C   0  0  0  0  0  0  0  0  0  0  0  0
  139.2830   72.5790  220.7160 O   0  0  0  0  0  0  0  0  0  0  0  0
  139.9110   71.8860  222.9960 C   0  0  0  0  0  0  0  0  0  0  0  0
  139.3930   70.5940  222.7970 C   0  0  0  0  0  0  0  0  0  0  0  0
  139.4270   69.6670  223.8410 C   0  0  0  0  0  0  0  0  0  0  0  0
  139.9780   70.0270  225.0760 C   0  0  0  0  0  0  0  0  0  0  0  0
  140.0340   69.1180  226.1440 C   0  0  0  0  0  0  0  0  0  0  0  0
  140.5960   69.5080  227.3650 C   0  0  0  0  0  0  0  0  0  0  0  0
  140.6710   68.3700  228.6970 Cl  0  0  0  0  0  0  0  0  0  0  0  0
  141.1000   70.8050  227.5240 C   0  0  0  0  0  0  0  0  0  0  0  0
  141.0460   71.7160  226.4650 C   0  0  0  0  0  0  0  0  0  0  0  0
  140.4870   71.3340  225.2400 C   0  0  0  0  0  0  0  0  0  0  0  0
  140.4420   72.2140  224.2060 N   0  0  0  0  0  0  0  0  0  0  0  0
  139.8860   78.4530  222.5410 C   0  0  0  0  0  0  0  0  0  0  0  0
  139.5060   79.7500  222.9300 C   0  0  0  0  0  0  0  0  0  0  0  0
  140.4240   80.5930  223.5630 C   0  0  0  0  0  0  0  0  0  0  0  0
  141.7250   80.1530  223.8160 C   0  0  0  0  0  0  0  0  0  0  0  0
  142.1100   78.8630  223.4420 C   0  0  0  0  0  0  0  0  0  0  0  0
  141.1960   78.0150  222.8130 C   0  0  0  0  0  0  0  0  0  0  0  0
  138.5735   76.7187  223.7938 H   0  0  0  0  0  0  0  0  0  0  0  0
  137.3958   76.1799  222.5490 H   0  0  0  0  0  0  0  0  0  0  0  0
  139.0671   75.5214  222.5490 H   0  0  0  0  0  0  0  0  0  0  0  0
  138.0210   78.1480  221.5488 H   0  0  0  0  0  0  0  0  0  0  0  0
  141.5252   74.4230  220.2703 H   0  0  0  0  0  0  0  0  0  0  0  0
  141.6084   75.7387  221.4886 H   0  0  0  0  0  0  0  0  0  0  0  0
  138.9220   73.2730  220.0770 H   0  0  0  0  0  0  0  0  0  0  0  0
  138.9631   70.3148  221.8237 H   0  0  0  0  0  0  0  0  0  0  0  0
  139.0213   68.6554  223.6928 H   0  0  0  0  0  0  0  0  0  0  0  0
  139.6364   68.0997  226.0214 H   0  0  0  0  0  0  0  0  0  0  0  0
  141.5399   71.1079  228.4856 H   0  0  0  0  0  0  0  0  0  0  0  0
  141.4431   72.7336  226.5945 H   0  0  0  0  0  0  0  0  0  0  0  0
  138.4823   80.1025  222.7354 H   0  0  0  0  0  0  0  0  0  0  0  0
  140.1204   81.6068  223.8630 H   0  0  0  0  0  0  0  0  0  0  0  0
  142.4460   80.8214  224.3093 H   0  0  0  0  0  0  0  0  0  0  0  0
  143.1339   78.5151  223.6432 H   0  0  0  0  0  0  0  0  0  0  0  0
  141.5018   76.9975  222.5280 H   0  0  0  0  0  0  0  0  0  0  0  0
  1  2  1  0
  2  3  1  0
  3  4  1  0
  4  5  2  0
  4  6  1  0
  6  7  1  0
  7  8  2  0
  8  9  1  0
  8 10  1  0
 10 11  2  0
 11 12  1  0
 12 13  2  0
 13 14  1  0
 14 15  2  0
 15 16  1  0
 15 17  1  0
 17 18  2  0
 18 19  1  0
 19 20  2  0
  2 21  1  0
 21 22  2  0
 22 23  1  0
 23 24  2  0
 24 25  1  0
 25 26  2  0
 20 10  1  0
 26 21  1  0
 19 13  1  0
  1 27  1  0
  1 28  1  0
  1 29  1  0
  2 30  1  6
  6 31  1  0
  6 32  1  0
  9 33  1  0
 11 34  1  0
 12 35  1  0
 14 36  1  0
 17 37  1  0
 18 38  1  0
 22 39  1  0
 23 40  1  0
 24 41  1  0
 25 42  1  0
 26 43  1  0
M  CHG  1   3  -1
M  END
>  <meeko>  (19) 
{"free_energy": -6.79, "intermolecular_energy": -9.18, "internal_energy": -1.56, "cluster_size": 7, "cluster_id": 1, "rank_in_cluster": 5}

$$$$

     RDKit          3D

 43 45  0  0  0  0  0  0  0  0999 V2000
  138.9620   68.9170  224.3240 C   0  0  0  0  0  0  0  0  0  0  0  0
  139.3270   70.4000  224.3580 C   0  0  2  0  0  0  0  0  0  0  0  0
  140.2380   70.7030  223.2570 N   0  0  0  0  0  0  0  0  0  0  0  0
  139.7860   71.0000  221.9320 C   0  0  0  0  0  0  0  0  0  0  0  0
  138.5530   70.9970  221.6650 O   0  0  0  0  0  0  0  0  0  0  0  0
  140.7680   71.4230  220.8860 C   0  0  0  0  0  0  0  0  0  0  0  0
  140.7270   72.8770  220.7440 N   0  0  0  0  0  0  0  0  0  0  0  0
  140.5340   73.7450  221.6980 C   0  0  0  0  0  0  0  0  0  0  0  0
  139.9500   73.3880  222.9170 O   0  0  0  0  0  0  0  0  0  0  0  0
  140.9190   75.1550  221.4980 C   0  0  0  0  0  0  0  0  0  0  0  0
  141.7570   75.5500  220.4410 C   0  0  0  0  0  0  0  0  0  0  0  0
  142.0580   76.9020  220.2640 C   0  0  0  0  0  0  0  0  0  0  0  0
  141.5220   77.8550  221.1370 C   0  0  0  0  0  0  0  0  0  0  0  0
  141.7980   79.2230  220.9840 C   0  0  0  0  0  0  0  0  0  0  0  0
  141.2430   80.1510  221.8710 C   0  0  0  0  0  0  0  0  0  0  0  0
  141.5840   81.8600  221.6760 Cl  0  0  0  0  0  0  0  0  0  0  0  0
  140.4130   79.7190  222.9130 C   0  0  0  0  0  0  0  0  0  0  0  0
  140.1350   78.3580  223.0720 C   0  0  0  0  0  0  0  0  0  0  0  0
  140.6850   77.4230  222.1890 C   0  0  0  0  0  0  0  0  0  0  0  0
  140.4090   76.1000  222.3350 N   0  0  0  0  0  0  0  0  0  0  0  0
  139.9760   70.7600  225.6790 C   0  0  0  0  0  0  0  0  0  0  0  0
  139.7370   69.9770  226.8220 C   0  0  0  0  0  0  0  0  0  0  0  0
  140.3140   70.3250  228.0470 C   0  0  0  0  0  0  0  0  0  0  0  0
  141.1310   71.4530  228.1450 C   0  0  0  0  0  0  0  0  0  0  0  0
  141.3820   72.2320  227.0130 C   0  0  0  0  0  0  0  0  0  0  0  0
  140.8130   71.8860  225.7850 C   0  0  0  0  0  0  0  0  0  0  0  0
  138.8689   68.5386  225.3527 H   0  0  0  0  0  0  0  0  0  0  0  0
  138.0050   68.7869  223.7974 H   0  0  0  0  0  0  0  0  0  0  0  0
  139.7493   68.3576  223.7974 H   0  0  0  0  0  0  0  0  0  0  0  0
  138.4078   70.9944  224.2496 H   0  0  0  0  0  0  0  0  0  0  0  0
  141.7798   71.1115  221.1846 H   0  0  0  0  0  0  0  0  0  0  0  0
  140.5095   70.9518  219.9262 H   0  0  0  0  0  0  0  0  0  0  0  0
  139.2690   72.6500  223.0210 H   0  0  0  0  0  0  0  0  0  0  0  0
  142.1740   74.7971  219.7560 H   0  0  0  0  0  0  0  0  0  0  0  0
  142.7151   77.2171  219.4400 H   0  0  0  0  0  0  0  0  0  0  0  0
  142.4504   79.5648  220.1669 H   0  0  0  0  0  0  0  0  0  0  0  0
  139.9786   80.4524  223.6082 H   0  0  0  0  0  0  0  0  0  0  0  0
  139.4833   78.0223  223.8921 H   0  0  0  0  0  0  0  0  0  0  0  0
  139.0937   69.0874  226.7522 H   0  0  0  0  0  0  0  0  0  0  0  0
  140.1235   69.7076  228.9372 H   0  0  0  0  0  0  0  0  0  0  0  0
  141.5765   71.7279  229.1125 H   0  0  0  0  0  0  0  0  0  0  0  0
  142.0284   73.1188  227.0886 H   0  0  0  0  0  0  0  0  0  0  0  0
  141.0207   72.4980  224.8949 H   0  0  0  0  0  0  0  0  0  0  0  0
  1  2  1  0
  2  3  1  0
  3  4  1  0
  4  5  2  0
  4  6  1  0
  6  7  1  0
  7  8  2  0
  8  9  1  0
  8 10  1  0
 10 11  2  0
 11 12  1  0
 12 13  2  0
 13 14  1  0
 14 15  2  0
 15 16  1  0
 15 17  1  0
 17 18  2  0
 18 19  1  0
 19 20  2  0
  2 21  1  0
 21 22  2  0
 22 23  1  0
 23 24  2  0
 24 25  1  0
 25 26  2  0
 20 10  1  0
 26 21  1  0
 19 13  1  0
  1 27  1  0
  1 28  1  0
  1 29  1  0
  2 30  1  6
  6 31  1  0
  6 32  1  0
  9 33  1  0
 11 34  1  0
 12 35  1  0
 14 36  1  0
 17 37  1  0
 18 38  1  0
 22 39  1  0
 23 40  1  0
 24 41  1  0
 25 42  1  0
 26 43  1  0
M  CHG  1   3  -1
M  END
>  <meeko>  (20) 
{"free_energy": -6.91, "intermolecular_energy": -9.3, "internal_energy": -1.64, "cluster_size": 5, "cluster_id": 3, "rank_in_cluster": 5}

$$$$
