
     RDKit          3D

 44 46  0  0  0  0  0  0  0  0999 V2000
  137.5830   76.4540  222.1210 C   0  0  0  0  0  0  0  0  0  0  0  0
  139.0660   76.3750  221.8460 C   0  0  2  0  0  0  0  0  0  0  0  0
  139.6230   75.1390  222.3130 N   0  0  0  0  0  0  0  0  0  0  0  0
  140.6000   74.5330  221.5160 C   0  0  0  0  0  0  0  0  0  0  0  0
  141.7810   75.2030  221.2800 O   0  0  0  0  0  0  0  0  0  0  0  0
  140.2840   73.3420  221.0490 C   0  0  0  0  0  0  0  0  0  0  0  0
  139.6150   72.5430  221.9770 N   0  0  0  0  0  0  0  0  0  0  0  0
  138.9900   71.7980  222.8420 C   0  0  0  0  0  0  0  0  0  0  0  0
  137.7430   71.5560  222.5910 O   0  0  0  0  0  0  0  0  0  0  0  0
  139.4930   71.2210  224.0410 C   0  0  0  0  0  0  0  0  0  0  0  0
  140.5400   71.8950  224.6820 C   0  0  0  0  0  0  0  0  0  0  0  0
  141.0950   71.3440  225.8030 C   0  0  0  0  0  0  0  0  0  0  0  0
  140.5840   70.1450  226.2390 C   0  0  0  0  0  0  0  0  0  0  0  0
  141.1240   69.5820  227.3500 C   0  0  0  0  0  0  0  0  0  0  0  0
  140.6940   68.3910  227.8730 C   0  0  0  0  0  0  0  0  0  0  0  0
  141.2460   67.8470  228.9790 F   0  0  0  0  0  0  0  0  0  0  0  0
  139.6770   67.7320  227.2550 C   0  0  0  0  0  0  0  0  0  0  0  0
  139.1080   68.2740  226.1290 C   0  0  0  0  0  0  0  0  0  0  0  0
  139.5510   69.4730  225.6140 C   0  0  0  0  0  0  0  0  0  0  0  0
  139.0580   70.0630  224.5300 N   0  0  0  0  0  0  0  0  0  0  0  0
  139.6640   77.5540  222.5550 C   0  0  0  0  0  0  0  0  0  0  0  0
  138.9040   78.5980  223.0260 C   0  0  0  0  0  0  0  0  0  0  0  0
  139.4610   79.6810  223.6840 C   0  0  0  0  0  0  0  0  0  0  0  0
  140.8260   79.6760  223.8540 C   0  0  0  0  0  0  0  0  0  0  0  0
  141.5980   78.6210  223.3800 C   0  0  0  0  0  0  0  0  0  0  0  0
  141.0460   77.5440  222.7240 C   0  0  0  0  0  0  0  0  0  0  0  0
  137.4115   76.4631  223.2075 H   0  0  0  0  0  0  0  0  0  0  0  0
  137.1765   77.3751  221.6779 H   0  0  0  0  0  0  0  0  0  0  0  0
  137.0809   75.5813  221.6779 H   0  0  0  0  0  0  0  0  0  0  0  0
  139.2803   76.4011  220.7674 H   0  0  0  0  0  0  0  0  0  0  0  0
  139.2590   74.7650  223.2260 H   0  0  0  0  0  0  0  0  0  0  0  0
  142.3570   75.6210  221.9770 H   0  0  0  0  0  0  0  0  0  0  0  0
  140.5240   73.0103  220.0280 H   0  0  0  0  0  0  0  0  0  0  0  0
  138.5410   73.2870  221.7920 H   0  0  0  0  0  0  0  0  0  0  0  0
  140.9102   72.8535  224.2892 H   0  0  0  0  0  0  0  0  0  0  0  0
  141.9190   71.8412  226.3357 H   0  0  0  0  0  0  0  0  0  0  0  0
  141.9474   70.1080  227.8552 H   0  0  0  0  0  0  0  0  0  0  0  0
  139.3137   66.7734  227.6538 H   0  0  0  0  0  0  0  0  0  0  0  0
  138.2847   67.7422  225.6296 H   0  0  0  0  0  0  0  0  0  0  0  0
  137.8148   78.5719  222.8747 H   0  0  0  0  0  0  0  0  0  0  0  0
  138.8393   80.5093  224.0547 H   0  0  0  0  0  0  0  0  0  0  0  0
  141.3125   80.5163  224.3709 H   0  0  0  0  0  0  0  0  0  0  0  0
  142.6868   78.6480  223.5345 H   0  0  0  0  0  0  0  0  0  0  0  0
  141.6666   76.7157  222.3514 H   0  0  0  0  0  0  0  0  0  0  0  0
  1  2  1  0
  2  3  1  0
  3  4  1  0
  4  5  1  0
  4  6  2  0
  6  7  1  0
  7  8  1  0
  8  9  2  0
  8 10  1  0
 10 11  2  0
 11 12  1  0
 12 13  2  0
 13 14  1  0
 14 15  2  0
 15 16  1  0
 15 17  1  0
 17 18  2  0
 18 19  1  0
 19 20  2  0
  2 21  1  0
 21 22  2  0
 22 23  1  0
 23 24  2  0
 24 25  1  0
 25 26  2  0
 20 10  1  0
 26 21  1  0
 19 13  1  0
  1 27  1  0
  1 28  1  0
  1 29  1  0
  2 30  1  6
  3 31  1  0
  5 32  1  0
  6 33  1  0
  7 34  1  0
 11 35  1  0
 12 36  1  0
 14 37  1  0
 17 38  1  0
 18 39  1  0
 22 40  1  0
 23 41  1  0
 24 42  1  0
 25 43  1  0
 26 44  1  0
M  END
>  <meeko>  (1) 
{"free_energy": -7.83, "intermolecular_energy": -9.92, "internal_energy": -0.91, "cluster_size": 10, "cluster_id": 2, "rank_in_cluster": 10}

$$$$

     RDKit          3D

 44 46  0  0  0  0  0  0  0  0999 V2000
  139.6300   77.4080  220.8180 C   0  0  0  0  0  0  0  0  0  0  0  0
  141.0860   77.2230  221.1760 C   0  0  2  0  0  0  0  0  0  0  0  0
  141.2850   76.0520  221.9790 N   0  0  0  0  0  0  0  0  0  0  0  0
  140.2830   75.0760  221.9500 C   0  0  0  0  0  0  0  0  0  0  0  0
  139.0460   75.3700  222.4830 O   0  0  0  0  0  0  0  0  0  0  0  0
  140.6320   73.9290  221.4030 C   0  0  0  0  0  0  0  0  0  0  0  0
  139.9330   72.8360  221.9160 N   0  0  0  0  0  0  0  0  0  0  0  0
  139.2800   71.8160  222.3930 C   0  0  0  0  0  0  0  0  0  0  0  0
  138.2180   71.4630  221.7430 O   0  0  0  0  0  0  0  0  0  0  0  0
  139.5710   71.0410  223.5500 C   0  0  0  0  0  0  0  0  0  0  0  0
  139.2160   69.6860  223.5150 C   0  0  0  0  0  0  0  0  0  0  0  0
  139.4220   68.9180  224.6270 C   0  0  0  0  0  0  0  0  0  0  0  0
  139.9730   69.5310  225.7260 C   0  0  0  0  0  0  0  0  0  0  0  0
  140.1840   68.7840  226.8400 C   0  0  0  0  0  0  0  0  0  0  0  0
  140.7260   69.2900  227.9920 C   0  0  0  0  0  0  0  0  0  0  0  0
  140.9270   68.5310  229.0910 F   0  0  0  0  0  0  0  0  0  0  0  0
  141.0750   70.6050  228.0320 C   0  0  0  0  0  0  0  0  0  0  0  0
  140.8760   71.3890  226.9210 C   0  0  0  0  0  0  0  0  0  0  0  0
  140.3280   70.8660  225.7700 C   0  0  0  0  0  0  0  0  0  0  0  0
  140.1010   71.5550  224.6560 N   0  0  0  0  0  0  0  0  0  0  0  0
  141.4740   78.4720  221.9120 C   0  0  0  0  0  0  0  0  0  0  0  0
  141.8240   79.6330  221.2660 C   0  0  0  0  0  0  0  0  0  0  0  0
  142.1770   80.7840  221.9510 C   0  0  0  0  0  0  0  0  0  0  0  0
  142.1650   80.7220  223.3250 C   0  0  0  0  0  0  0  0  0  0  0  0
  141.8120   79.5490  223.9820 C   0  0  0  0  0  0  0  0  0  0  0  0
  141.4610   78.4040  223.3030 C   0  0  0  0  0  0  0  0  0  0  0  0
  139.0328   77.4839  221.7387 H   0  0  0  0  0  0  0  0  0  0  0  0
  139.5117   78.3284  220.2273 H   0  0  0  0  0  0  0  0  0  0  0  0
  139.2853   76.5464  220.2273 H   0  0  0  0  0  0  0  0  0  0  0  0
  141.7085   77.0714  220.2819 H   0  0  0  0  0  0  0  0  0  0  0  0
  142.1730   76.0020  222.5410 H   0  0  0  0  0  0  0  0  0  0  0  0
  138.5280   74.7820  223.0980 H   0  0  0  0  0  0  0  0  0  0  0  0
  141.3989   73.8419  220.6192 H   0  0  0  0  0  0  0  0  0  0  0  0
  138.8090   73.4360  221.5710 H   0  0  0  0  0  0  0  0  0  0  0  0
  138.7782   69.2468  222.6065 H   0  0  0  0  0  0  0  0  0  0  0  0
  139.1568   67.8505  224.6412 H   0  0  0  0  0  0  0  0  0  0  0  0
  139.9060   67.7200  226.8164 H   0  0  0  0  0  0  0  0  0  0  0  0
  141.5121   71.0360  228.9448 H   0  0  0  0  0  0  0  0  0  0  0  0
  141.1589   72.4516  226.9511 H   0  0  0  0  0  0  0  0  0  0  0  0
  141.8239   79.6490  220.1661 H   0  0  0  0  0  0  0  0  0  0  0  0
  142.4545   81.7064  221.4199 H   0  0  0  0  0  0  0  0  0  0  0  0
  142.4381   81.6118  223.9112 H   0  0  0  0  0  0  0  0  0  0  0  0
  141.8131   79.5352  225.0819 H   0  0  0  0  0  0  0  0  0  0  0  0
  141.1839   77.4808  223.8330 H   0  0  0  0  0  0  0  0  0  0  0  0
  1  2  1  0
  2  3  1  0
  3  4  1  0
  4  5  1  0
  4  6  2  0
  6  7  1  0
  7  8  1  0
  8  9  2  0
  8 10  1  0
 10 11  2  0
 11 12  1  0
 12 13  2  0
 13 14  1  0
 14 15  2  0
 15 16  1  0
 15 17  1  0
 17 18  2  0
 18 19  1  0
 19 20  2  0
  2 21  1  0
 21 22  2  0
 22 23  1  0
 23 24  2  0
 24 25  1  0
 25 26  2  0
 20 10  1  0
 26 21  1  0
 19 13  1  0
  1 27  1  0
  1 28  1  0
  1 29  1  0
  2 30  1  6
  3 31  1  0
  5 32  1  0
  6 33  1  0
  7 34  1  0
 11 35  1  0
 12 36  1  0
 14 37  1  0
 17 38  1  0
 18 39  1  0
 22 40  1  0
 23 41  1  0
 24 42  1  0
 25 43  1  0
 26 44  1  0
M  END
>  <meeko>  (2) 
{"free_energy": -8.39, "intermolecular_energy": -10.48, "internal_energy": -1.28, "cluster_size": 10, "cluster_id": 2, "rank_in_cluster": 8}

$$$$

     RDKit          3D

 44 46  0  0  0  0  0  0  0  0999 V2000
  142.7730   76.0630  219.1410 C   0  0  0  0  0  0  0  0  0  0  0  0
  142.3880   74.8290  219.9230 C   0  0  2  0  0  0  0  0  0  0  0  0
  141.7730   75.1690  221.1720 N   0  0  0  0  0  0  0  0  0  0  0  0
  140.6580   74.4190  221.5640 C   0  0  0  0  0  0  0  0  0  0  0  0
  139.7180   74.9970  222.3890 O   0  0  0  0  0  0  0  0  0  0  0  0
  140.6160   73.1890  221.0930 C   0  0  0  0  0  0  0  0  0  0  0  0
  139.8040   72.3370  221.8430 N   0  0  0  0  0  0  0  0  0  0  0  0
  139.0460   71.5430  222.5430 C   0  0  0  0  0  0  0  0  0  0  0  0
  137.8080   71.4620  222.1710 O   0  0  0  0  0  0  0  0  0  0  0  0
  139.3940   70.7570  223.6760 C   0  0  0  0  0  0  0  0  0  0  0  0
  139.0570   69.3970  223.6360 C   0  0  0  0  0  0  0  0  0  0  0  0
  139.3170   68.6180  224.7290 C   0  0  0  0  0  0  0  0  0  0  0  0
  139.9030   69.2240  225.8130 C   0  0  0  0  0  0  0  0  0  0  0  0
  140.1670   68.4650  226.9080 C   0  0  0  0  0  0  0  0  0  0  0  0
  140.7470   68.9640  228.0450 C   0  0  0  0  0  0  0  0  0  0  0  0
  141.0020   68.1930  229.1240 F   0  0  0  0  0  0  0  0  0  0  0  0
  141.0780   70.2830  228.0890 C   0  0  0  0  0  0  0  0  0  0  0  0
  140.8240   71.0790  226.9980 C   0  0  0  0  0  0  0  0  0  0  0  0
  140.2390   70.5640  225.8620 C   0  0  0  0  0  0  0  0  0  0  0  0
  139.9590   71.2630  224.7680 N   0  0  0  0  0  0  0  0  0  0  0  0
  143.6690   74.0730  220.1250 C   0  0  0  0  0  0  0  0  0  0  0  0
  144.8440   74.6900  220.4840 C   0  0  0  0  0  0  0  0  0  0  0  0
  146.0210   73.9880  220.6740 C   0  0  0  0  0  0  0  0  0  0  0  0
  145.9740   72.6250  220.4870 C   0  0  0  0  0  0  0  0  0  0  0  0
  144.7870   71.9980  220.1240 C   0  0  0  0  0  0  0  0  0  0  0  0
  143.6160   72.6950  219.9350 C   0  0  0  0  0  0  0  0  0  0  0  0
  143.0263   76.8749  219.8386 H   0  0  0  0  0  0  0  0  0  0  0  0
  143.6439   75.8388  218.5075 H   0  0  0  0  0  0  0  0  0  0  0  0
  141.9291   76.3738  218.5075 H   0  0  0  0  0  0  0  0  0  0  0  0
  141.6420   74.2244  219.3864 H   0  0  0  0  0  0  0  0  0  0  0  0
  142.1980   75.9630  221.7160 H   0  0  0  0  0  0  0  0  0  0  0  0
  139.1390   74.5090  223.0360 H   0  0  0  0  0  0  0  0  0  0  0  0
  141.1665   72.8657  220.1972 H   0  0  0  0  0  0  0  0  0  0  0  0
  138.8180   73.2010  221.6940 H   0  0  0  0  0  0  0  0  0  0  0  0
  138.5906   68.9633  222.7391 H   0  0  0  0  0  0  0  0  0  0  0  0
  139.0664   67.5470  224.7397 H   0  0  0  0  0  0  0  0  0  0  0  0
  139.9024   67.3976  226.8809 H   0  0  0  0  0  0  0  0  0  0  0  0
  141.5447   70.7083  228.9897 H   0  0  0  0  0  0  0  0  0  0  0  0
  141.0923   72.1452  227.0323 H   0  0  0  0  0  0  0  0  0  0  0  0
  144.8485   75.7809  220.6252 H   0  0  0  0  0  0  0  0  0  0  0  0
  146.9530   74.4965  220.9617 H   0  0  0  0  0  0  0  0  0  0  0  0
  146.8855   72.0252  220.6263 H   0  0  0  0  0  0  0  0  0  0  0  0
  144.7843   70.9071  219.9831 H   0  0  0  0  0  0  0  0  0  0  0  0
  142.6831   72.1880  219.6477 H   0  0  0  0  0  0  0  0  0  0  0  0
  1  2  1  0
  2  3  1  0
  3  4  1  0
  4  5  1  0
  4  6  2  0
  6  7  1  0
  7  8  1  0
  8  9  2  0
  8 10  1  0
 10 11  2  0
 11 12  1  0
 12 13  2  0
 13 14  1  0
 14 15  2  0
 15 16  1  0
 15 17  1  0
 17 18  2  0
 18 19  1  0
 19 20  2  0
  2 21  1  0
 21 22  2  0
 22 23  1  0
 23 24  2  0
 24 25  1  0
 25 26  2  0
 20 10  1  0
 26 21  1  0
 19 13  1  0
  1 27  1  0
  1 28  1  0
  1 29  1  0
  2 30  1  6
  3 31  1  0
  5 32  1  0
  6 33  1  0
  7 34  1  0
 11 35  1  0
 12 36  1  0
 14 37  1  0
 17 38  1  0
 18 39  1  0
 22 40  1  0
 23 41  1  0
 24 42  1  0
 25 43  1  0
 26 44  1  0
M  END
>  <meeko>  (3) 
{"free_energy": -8.35, "intermolecular_energy": -10.44, "internal_energy": -1.48, "cluster_size": 9, "cluster_id": 1, "rank_in_cluster": 8}

$$$$

     RDKit          3D

 44 46  0  0  0  0  0  0  0  0999 V2000
  138.9470   77.5500  222.7070 C   0  0  0  0  0  0  0  0  0  0  0  0
  140.2100   77.3620  221.8980 C   0  0  2  0  0  0  0  0  0  0  0  0
  140.8420   76.1100  222.1940 N   0  0  0  0  0  0  0  0  0  0  0  0
  140.1000   74.9460  221.9600 C   0  0  0  0  0  0  0  0  0  0  0  0
  138.7340   74.9750  222.1420 O   0  0  0  0  0  0  0  0  0  0  0  0
  140.8040   73.8980  221.5810 C   0  0  0  0  0  0  0  0  0  0  0  0
  140.3390   72.6960  222.1160 N   0  0  0  0  0  0  0  0  0  0  0  0
  139.9040   71.5750  222.6140 C   0  0  0  0  0  0  0  0  0  0  0  0
  139.1600   70.8560  221.8360 O   0  0  0  0  0  0  0  0  0  0  0  0
  140.1280   71.0370  223.9120 C   0  0  0  0  0  0  0  0  0  0  0  0
  140.7160   71.8840  224.8610 C   0  0  0  0  0  0  0  0  0  0  0  0
  141.0050   71.3890  226.1020 C   0  0  0  0  0  0  0  0  0  0  0  0
  140.6960   70.0730  226.3460 C   0  0  0  0  0  0  0  0  0  0  0  0
  140.9780   69.5640  227.5730 C   0  0  0  0  0  0  0  0  0  0  0  0
  140.7140   68.2670  227.9270 C   0  0  0  0  0  0  0  0  0  0  0  0
  141.0030   67.7800  229.1530 F   0  0  0  0  0  0  0  0  0  0  0  0
  140.1420   67.4400  227.0100 C   0  0  0  0  0  0  0  0  0  0  0  0
  139.8440   67.9230  225.7590 C   0  0  0  0  0  0  0  0  0  0  0  0
  140.1160   69.2300  225.4180 C   0  0  0  0  0  0  0  0  0  0  0  0
  139.8610   69.7740  224.2320 N   0  0  0  0  0  0  0  0  0  0  0  0
  141.0880   78.5240  222.2610 C   0  0  0  0  0  0  0  0  0  0  0  0
  141.5680   78.7200  223.5330 C   0  0  0  0  0  0  0  0  0  0  0  0
  142.3820   79.7910  223.8600 C   0  0  0  0  0  0  0  0  0  0  0  0
  142.6990   80.6680  222.8490 C   0  0  0  0  0  0  0  0  0  0  0  0
  142.2150   80.4730  221.5600 C   0  0  0  0  0  0  0  0  0  0  0  0
  141.4050   79.4090  221.2330 C   0  0  0  0  0  0  0  0  0  0  0  0
  139.1896   77.5139  223.7793 H   0  0  0  0  0  0  0  0  0  0  0  0
  138.4984   78.5248  222.4652 H   0  0  0  0  0  0  0  0  0  0  0  0
  138.2339   76.7481  222.4652 H   0  0  0  0  0  0  0  0  0  0  0  0
  140.0011   77.3345  220.8184 H   0  0  0  0  0  0  0  0  0  0  0  0
  141.8230   76.1450  222.5690 H   0  0  0  0  0  0  0  0  0  0  0  0
  138.2320   74.4550  222.8270 H   0  0  0  0  0  0  0  0  0  0  0  0
  141.6725   73.9644  220.9092 H   0  0  0  0  0  0  0  0  0  0  0  0
  139.2020   72.8900  221.4740 H   0  0  0  0  0  0  0  0  0  0  0  0
  140.9416   72.9312  224.6111 H   0  0  0  0  0  0  0  0  0  0  0  0
  141.4672   72.0201  226.8754 H   0  0  0  0  0  0  0  0  0  0  0  0
  141.4413   70.2257  228.3196 H   0  0  0  0  0  0  0  0  0  0  0  0
  139.9202   66.3940  227.2682 H   0  0  0  0  0  0  0  0  0  0  0  0
  139.3807   67.2555  225.0175 H   0  0  0  0  0  0  0  0  0  0  0  0
  141.2960   78.0007  224.3195 H   0  0  0  0  0  0  0  0  0  0  0  0
  142.7587   79.9343  224.8835 H   0  0  0  0  0  0  0  0  0  0  0  0
  143.3430   81.5338  223.0626 H   0  0  0  0  0  0  0  0  0  0  0  0
  142.4886   81.1934  220.7750 H   0  0  0  0  0  0  0  0  0  0  0  0
  141.0267   79.2647  220.2102 H   0  0  0  0  0  0  0  0  0  0  0  0
  1  2  1  0
  2  3  1  0
  3  4  1  0
  4  5  1  0
  4  6  2  0
  6  7  1  0
  7  8  1  0
  8  9  2  0
  8 10  1  0
 10 11  2  0
 11 12  1  0
 12 13  2  0
 13 14  1  0
 14 15  2  0
 15 16  1  0
 15 17  1  0
 17 18  2  0
 18 19  1  0
 19 20  2  0
  2 21  1  0
 21 22  2  0
 22 23  1  0
 23 24  2  0
 24 25  1  0
 25 26  2  0
 20 10  1  0
 26 21  1  0
 19 13  1  0
  1 27  1  0
  1 28  1  0
  1 29  1  0
  2 30  1  6
  3 31  1  0
  5 32  1  0
  6 33  1  0
  7 34  1  0
 11 35  1  0
 12 36  1  0
 14 37  1  0
 17 38  1  0
 18 39  1  0
 22 40  1  0
 23 41  1  0
 24 42  1  0
 25 43  1  0
 26 44  1  0
M  END
>  <meeko>  (4) 
{"free_energy": -8.52, "intermolecular_energy": -10.61, "internal_energy": -1.15, "cluster_size": 10, "cluster_id": 2, "rank_in_cluster": 1}

$$$$

     RDKit          3D

 44 46  0  0  0  0  0  0  0  0999 V2000
  137.6600   77.8810  222.3110 C   0  0  0  0  0  0  0  0  0  0  0  0
  139.0500   77.3370  222.0770 C   0  0  2  0  0  0  0  0  0  0  0  0
  139.2190   76.0480  222.6830 N   0  0  0  0  0  0  0  0  0  0  0  0
  139.9560   75.0960  221.9710 C   0  0  0  0  0  0  0  0  0  0  0  0
  141.3310   75.1960  221.9450 O   0  0  0  0  0  0  0  0  0  0  0  0
  139.2400   74.1680  221.3680 C   0  0  0  0  0  0  0  0  0  0  0  0
  139.6480   72.8690  221.6740 N   0  0  0  0  0  0  0  0  0  0  0  0
  140.0280   71.6570  221.9590 C   0  0  0  0  0  0  0  0  0  0  0  0
  140.5040   70.9630  220.9750 O   0  0  0  0  0  0  0  0  0  0  0  0
  139.9780   70.9850  223.2110 C   0  0  0  0  0  0  0  0  0  0  0  0
  139.3190   69.7480  223.2450 C   0  0  0  0  0  0  0  0  0  0  0  0
  139.1940   69.0970  224.4400 C   0  0  0  0  0  0  0  0  0  0  0  0
  139.7300   69.7030  225.5500 C   0  0  0  0  0  0  0  0  0  0  0  0
  139.6140   69.0700  226.7470 C   0  0  0  0  0  0  0  0  0  0  0  0
  140.1090   69.5810  227.9170 C   0  0  0  0  0  0  0  0  0  0  0  0
  139.9820   68.9370  229.0970 F   0  0  0  0  0  0  0  0  0  0  0  0
  140.7520   70.7800  227.8910 C   0  0  0  0  0  0  0  0  0  0  0  0
  140.8870   71.4460  226.6970 C   0  0  0  0  0  0  0  0  0  0  0  0
  140.3820   70.9210  225.5270 C   0  0  0  0  0  0  0  0  0  0  0  0
  140.4690   71.5000  224.3350 N   0  0  0  0  0  0  0  0  0  0  0  0
  139.9780   78.3540  222.6730 C   0  0  0  0  0  0  0  0  0  0  0  0
  141.3450   78.2190  222.6400 C   0  0  0  0  0  0  0  0  0  0  0  0
  142.1960   79.1630  223.1880 C   0  0  0  0  0  0  0  0  0  0  0  0
  141.6150   80.2620  223.7780 C   0  0  0  0  0  0  0  0  0  0  0  0
  140.2320   80.4030  223.8130 C   0  0  0  0  0  0  0  0  0  0  0  0
  139.3840   79.4650  223.2690 C   0  0  0  0  0  0  0  0  0  0  0  0
  137.4723   77.9545  223.3924 H   0  0  0  0  0  0  0  0  0  0  0  0
  137.5752   78.8787  221.8555 H   0  0  0  0  0  0  0  0  0  0  0  0
  136.9206   77.2059  221.8555 H   0  0  0  0  0  0  0  0  0  0  0  0
  139.2517   77.1840  221.0065 H   0  0  0  0  0  0  0  0  0  0  0  0
  138.7770   75.9000  223.6260 H   0  0  0  0  0  0  0  0  0  0  0  0
  141.8490   76.0460  221.9790 H   0  0  0  0  0  0  0  0  0  0  0  0
  138.4036   74.3950  220.6906 H   0  0  0  0  0  0  0  0  0  0  0  0
  139.1900   72.4840  220.4980 H   0  0  0  0  0  0  0  0  0  0  0  0
  138.9089   69.3082  222.3239 H   0  0  0  0  0  0  0  0  0  0  0  0
  138.6838   68.1250  224.5103 H   0  0  0  0  0  0  0  0  0  0  0  0
  139.0971   68.0995  226.7775 H   0  0  0  0  0  0  0  0  0  0  0  0
  141.1597   71.2117  228.8169 H   0  0  0  0  0  0  0  0  0  0  0  0
  141.4071   72.4150  226.6744 H   0  0  0  0  0  0  0  0  0  0  0  0
  141.7786   77.3288  222.1609 H   0  0  0  0  0  0  0  0  0  0  0  0
  143.2886   79.0401  223.1534 H   0  0  0  0  0  0  0  0  0  0  0  0
  142.2520   81.0381  224.2272 H   0  0  0  0  0  0  0  0  0  0  0  0
  139.8009   81.2946  224.2918 H   0  0  0  0  0  0  0  0  0  0  0  0
  138.2912   79.5864  223.3030 H   0  0  0  0  0  0  0  0  0  0  0  0
  1  2  1  0
  2  3  1  0
  3  4  1  0
  4  5  1  0
  4  6  2  0
  6  7  1  0
  7  8  1  0
  8  9  2  0
  8 10  1  0
 10 11  2  0
 11 12  1  0
 12 13  2  0
 13 14  1  0
 14 15  2  0
 15 16  1  0
 15 17  1  0
 17 18  2  0
 18 19  1  0
 19 20  2  0
  2 21  1  0
 21 22  2  0
 22 23  1  0
 23 24  2  0
 24 25  1  0
 25 26  2  0
 20 10  1  0
 26 21  1  0
 19 13  1  0
  1 27  1  0
  1 28  1  0
  1 29  1  0
  2 30  1  6
  3 31  1  0
  5 32  1  0
  6 33  1  0
  7 34  1  0
 11 35  1  0
 12 36  1  0
 14 37  1  0
 17 38  1  0
 18 39  1  0
 22 40  1  0
 23 41  1  0
 24 42  1  0
 25 43  1  0
 26 44  1  0
M  END
>  <meeko>  (5) 
{"free_energy": -7.87, "intermolecular_energy": -9.96, "internal_energy": -0.76, "cluster_size": 10, "cluster_id": 2, "rank_in_cluster": 9}

$$$$

     RDKit          3D

 44 46  0  0  0  0  0  0  0  0999 V2000
  142.8130   76.0980  218.9900 C   0  0  0  0  0  0  0  0  0  0  0  0
  142.4070   74.9120  219.8330 C   0  0  2  0  0  0  0  0  0  0  0  0
  141.8080   75.3260  221.0690 N   0  0  0  0  0  0  0  0  0  0  0  0
  140.7460   74.5560  221.5560 C   0  0  0  0  0  0  0  0  0  0  0  0
  139.7920   75.1570  222.3500 O   0  0  0  0  0  0  0  0  0  0  0  0
  140.7640   73.2870  221.2020 C   0  0  0  0  0  0  0  0  0  0  0  0
  140.0390   72.4620  222.0630 N   0  0  0  0  0  0  0  0  0  0  0  0
  139.3620   71.6930  222.8660 C   0  0  0  0  0  0  0  0  0  0  0  0
  138.1510   71.4140  222.5040 O   0  0  0  0  0  0  0  0  0  0  0  0
  139.7740   71.1240  224.1040 C   0  0  0  0  0  0  0  0  0  0  0  0
  140.6760   71.8660  224.8770 C   0  0  0  0  0  0  0  0  0  0  0  0
  141.1450   71.3300  226.0440 C   0  0  0  0  0  0  0  0  0  0  0  0
  140.6960   70.0790  226.3910 C   0  0  0  0  0  0  0  0  0  0  0  0
  141.1530   69.5300  227.5470 C   0  0  0  0  0  0  0  0  0  0  0  0
  140.7740   68.2910  227.9910 C   0  0  0  0  0  0  0  0  0  0  0  0
  141.2400   67.7620  229.1420 F   0  0  0  0  0  0  0  0  0  0  0  0
  139.8960   67.5660  227.2440 C   0  0  0  0  0  0  0  0  0  0  0  0
  139.4140   68.0920  226.0700 C   0  0  0  0  0  0  0  0  0  0  0  0
  139.8060   69.3400  225.6360 C   0  0  0  0  0  0  0  0  0  0  0  0
  139.3900   69.9190  224.5150 N   0  0  0  0  0  0  0  0  0  0  0  0
  143.6720   74.1390  220.0640 C   0  0  0  0  0  0  0  0  0  0  0  0
  144.8390   74.7360  220.4770 C   0  0  0  0  0  0  0  0  0  0  0  0
  146.0030   74.0160  220.6930 C   0  0  0  0  0  0  0  0  0  0  0  0
  145.9480   72.6590  220.4740 C   0  0  0  0  0  0  0  0  0  0  0  0
  144.7690   72.0520  220.0570 C   0  0  0  0  0  0  0  0  0  0  0  0
  143.6120   72.7660  219.8420 C   0  0  0  0  0  0  0  0  0  0  0  0
  143.0990   76.9334  219.6460 H   0  0  0  0  0  0  0  0  0  0  0  0
  143.6676   75.8212  218.3551 H   0  0  0  0  0  0  0  0  0  0  0  0
  141.9681   76.4030  218.3551 H   0  0  0  0  0  0  0  0  0  0  0  0
  141.6445   74.2987  219.3305 H   0  0  0  0  0  0  0  0  0  0  0  0
  142.2050   76.1840  221.5300 H   0  0  0  0  0  0  0  0  0  0  0  0
  139.2580   74.7010  223.0560 H   0  0  0  0  0  0  0  0  0  0  0  0
  141.2978   72.9146  220.3153 H   0  0  0  0  0  0  0  0  0  0  0  0
  138.9630   73.1740  221.7850 H   0  0  0  0  0  0  0  0  0  0  0  0
  141.0020   72.8645  224.5502 H   0  0  0  0  0  0  0  0  0  0  0  0
  141.8544   71.8792  226.6804 H   0  0  0  0  0  0  0  0  0  0  0  0
  141.8624   70.1093  228.1563 H   0  0  0  0  0  0  0  0  0  0  0  0
  139.5756   66.5680  227.5777 H   0  0  0  0  0  0  0  0  0  0  0  0
  138.7037   67.5077  225.4666 H   0  0  0  0  0  0  0  0  0  0  0  0
  144.8493   75.8235  220.6419 H   0  0  0  0  0  0  0  0  0  0  0  0
  146.9295   74.5075  221.0247 H   0  0  0  0  0  0  0  0  0  0  0  0
  146.8482   72.0466  220.6308 H   0  0  0  0  0  0  0  0  0  0  0  0
  144.7604   70.9643  219.8933 H   0  0  0  0  0  0  0  0  0  0  0  0
  142.6848   72.2754  219.5108 H   0  0  0  0  0  0  0  0  0  0  0  0
  1  2  1  0
  2  3  1  0
  3  4  1  0
  4  5  1  0
  4  6  2  0
  6  7  1  0
  7  8  1  0
  8  9  2  0
  8 10  1  0
 10 11  2  0
 11 12  1  0
 12 13  2  0
 13 14  1  0
 14 15  2  0
 15 16  1  0
 15 17  1  0
 17 18  2  0
 18 19  1  0
 19 20  2  0
  2 21  1  0
 21 22  2  0
 22 23  1  0
 23 24  2  0
 24 25  1  0
 25 26  2  0
 20 10  1  0
 26 21  1  0
 19 13  1  0
  1 27  1  0
  1 28  1  0
  1 29  1  0
  2 30  1  6
  3 31  1  0
  5 32  1  0
  6 33  1  0
  7 34  1  0
 11 35  1  0
 12 36  1  0
 14 37  1  0
 17 38  1  0
 18 39  1  0
 22 40  1  0
 23 41  1  0
 24 42  1  0
 25 43  1  0
 26 44  1  0
M  END
>  <meeko>  (6) 
{"free_energy": -8.36, "intermolecular_energy": -10.45, "internal_energy": -1.47, "cluster_size": 9, "cluster_id": 1, "rank_in_cluster": 7}

$$$$

     RDKit          3D

 44 46  0  0  0  0  0  0  0  0999 V2000
  139.5360   77.3680  220.8970 C   0  0  0  0  0  0  0  0  0  0  0  0
  141.0140   77.1930  221.1570 C   0  0  2  0  0  0  0  0  0  0  0  0
  141.2730   76.0280  221.9520 N   0  0  0  0  0  0  0  0  0  0  0  0
  140.3010   75.0220  221.9520 C   0  0  0  0  0  0  0  0  0  0  0  0
  139.0720   75.2790  222.5190 O   0  0  0  0  0  0  0  0  0  0  0  0
  140.6700   73.8850  221.3960 C   0  0  0  0  0  0  0  0  0  0  0  0
  139.9710   72.7790  221.8810 N   0  0  0  0  0  0  0  0  0  0  0  0
  139.3170   71.7480  222.3340 C   0  0  0  0  0  0  0  0  0  0  0  0
  138.2830   71.3820  221.6460 O   0  0  0  0  0  0  0  0  0  0  0  0
  139.5820   70.9730  223.4960 C   0  0  0  0  0  0  0  0  0  0  0  0
  139.1790   69.6310  223.4730 C   0  0  0  0  0  0  0  0  0  0  0  0
  139.3580   68.8660  224.5920 C   0  0  0  0  0  0  0  0  0  0  0  0
  139.9310   69.4690  225.6850 C   0  0  0  0  0  0  0  0  0  0  0  0
  140.1150   68.7240  226.8060 C   0  0  0  0  0  0  0  0  0  0  0  0
  140.6750   69.2200  227.9540 C   0  0  0  0  0  0  0  0  0  0  0  0
  140.8490   68.4640  229.0580 F   0  0  0  0  0  0  0  0  0  0  0  0
  141.0700   70.5220  227.9820 C   0  0  0  0  0  0  0  0  0  0  0  0
  140.8980   71.3030  226.8650 C   0  0  0  0  0  0  0  0  0  0  0  0
  140.3320   70.7910  225.7180 C   0  0  0  0  0  0  0  0  0  0  0  0
  140.1290   71.4770  224.5990 N   0  0  0  0  0  0  0  0  0  0  0  0
  141.4430   78.4480  221.8580 C   0  0  0  0  0  0  0  0  0  0  0  0
  141.8000   79.5900  221.1810 C   0  0  0  0  0  0  0  0  0  0  0  0
  142.1900   80.7460  221.8340 C   0  0  0  0  0  0  0  0  0  0  0  0
  142.2100   80.7120  223.2100 C   0  0  0  0  0  0  0  0  0  0  0  0
  141.8490   79.5590  223.8980 C   0  0  0  0  0  0  0  0  0  0  0  0
  141.4610   78.4080  223.2510 C   0  0  0  0  0  0  0  0  0  0  0  0
  139.0001   77.4314  221.8555 H   0  0  0  0  0  0  0  0  0  0  0  0
  139.3715   78.2919  220.3231 H   0  0  0  0  0  0  0  0  0  0  0  0
  139.1603   76.5081  220.3231 H   0  0  0  0  0  0  0  0  0  0  0  0
  141.5759   77.0393  220.2239 H   0  0  0  0  0  0  0  0  0  0  0  0
  142.1790   76.0050  222.4860 H   0  0  0  0  0  0  0  0  0  0  0  0
  138.5380   74.6330  223.0580 H   0  0  0  0  0  0  0  0  0  0  0  0
  141.4520   73.8151  220.6255 H   0  0  0  0  0  0  0  0  0  0  0  0
  138.8500   73.3640  221.5010 H   0  0  0  0  0  0  0  0  0  0  0  0
  138.7255   69.1996  222.5684 H   0  0  0  0  0  0  0  0  0  0  0  0
  139.0549   67.8088  224.6160 H   0  0  0  0  0  0  0  0  0  0  0  0
  139.7988   67.6705  226.7914 H   0  0  0  0  0  0  0  0  0  0  0  0
  141.5229   70.9452  228.8907 H   0  0  0  0  0  0  0  0  0  0  0  0
  141.2177   72.3553  226.8868 H   0  0  0  0  0  0  0  0  0  0  0  0
  141.7747   79.5846  220.0813 H   0  0  0  0  0  0  0  0  0  0  0  0
  142.4717   81.6523  221.2779 H   0  0  0  0  0  0  0  0  0  0  0  0
  142.5151   81.6073  223.7716 H   0  0  0  0  0  0  0  0  0  0  0  0
  141.8744   79.5671  224.9977 H   0  0  0  0  0  0  0  0  0  0  0  0
  141.1790   77.5011  223.8060 H   0  0  0  0  0  0  0  0  0  0  0  0
  1  2  1  0
  2  3  1  0
  3  4  1  0
  4  5  1  0
  4  6  2  0
  6  7  1  0
  7  8  1  0
  8  9  2  0
  8 10  1  0
 10 11  2  0
 11 12  1  0
 12 13  2  0
 13 14  1  0
 14 15  2  0
 15 16  1  0
 15 17  1  0
 17 18  2  0
 18 19  1  0
 19 20  2  0
  2 21  1  0
 21 22  2  0
 22 23  1  0
 23 24  2  0
 24 25  1  0
 25 26  2  0
 20 10  1  0
 26 21  1  0
 19 13  1  0
  1 27  1  0
  1 28  1  0
  1 29  1  0
  2 30  1  6
  3 31  1  0
  5 32  1  0
  6 33  1  0
  7 34  1  0
 11 35  1  0
 12 36  1  0
 14 37  1  0
 17 38  1  0
 18 39  1  0
 22 40  1  0
 23 41  1  0
 24 42  1  0
 25 43  1  0
 26 44  1  0
M  END
>  <meeko>  (7) 
{"free_energy": -8.41, "intermolecular_energy": -10.5, "internal_energy": -1.26, "cluster_size": 10, "cluster_id": 2, "rank_in_cluster": 7}

$$$$

     RDKit          3D

 44 46  0  0  0  0  0  0  0  0999 V2000
  142.6750   75.9200  219.1880 C   0  0  0  0  0  0  0  0  0  0  0  0
  142.3270   74.6740  219.9670 C   0  0  2  0  0  0  0  0  0  0  0  0
  141.7540   74.9930  221.2420 N   0  0  0  0  0  0  0  0  0  0  0  0
  140.6650   74.2240  221.6660 C   0  0  0  0  0  0  0  0  0  0  0  0
  139.6300   74.8410  222.3350 O   0  0  0  0  0  0  0  0  0  0  0  0
  140.7390   72.9400  221.3800 C   0  0  0  0  0  0  0  0  0  0  0  0
  139.8820   72.1510  222.1480 N   0  0  0  0  0  0  0  0  0  0  0  0
  139.0810   71.4160  222.8650 C   0  0  0  0  0  0  0  0  0  0  0  0
  137.8300   71.4460  222.5330 O   0  0  0  0  0  0  0  0  0  0  0  0
  139.3970   70.5890  223.9780 C   0  0  0  0  0  0  0  0  0  0  0  0
  138.9660   69.2570  223.9240 C   0  0  0  0  0  0  0  0  0  0  0  0
  139.1950   68.4430  224.9990 C   0  0  0  0  0  0  0  0  0  0  0  0
  139.8420   68.9900  226.0800 C   0  0  0  0  0  0  0  0  0  0  0  0
  140.0760   68.1960  227.1570 C   0  0  0  0  0  0  0  0  0  0  0  0
  140.7110   68.6340  228.2890 C   0  0  0  0  0  0  0  0  0  0  0  0
  140.9330   67.8300  229.3510 F   0  0  0  0  0  0  0  0  0  0  0  0
  141.1320   69.9270  228.3470 C   0  0  0  0  0  0  0  0  0  0  0  0
  140.9120   70.7560  227.2740 C   0  0  0  0  0  0  0  0  0  0  0  0
  140.2710   70.3020  226.1430 C   0  0  0  0  0  0  0  0  0  0  0  0
  140.0170   71.0370  225.0660 N   0  0  0  0  0  0  0  0  0  0  0  0
  143.6200   73.9260  220.1140 C   0  0  0  0  0  0  0  0  0  0  0  0
  144.7740   74.5220  220.5640 C   0  0  0  0  0  0  0  0  0  0  0  0
  145.9620   73.8250  220.7020 C   0  0  0  0  0  0  0  0  0  0  0  0
  145.9480   72.4910  220.3660 C   0  0  0  0  0  0  0  0  0  0  0  0
  144.7830   71.8840  219.9110 C   0  0  0  0  0  0  0  0  0  0  0  0
  143.6000   72.5760  219.7730 C   0  0  0  0  0  0  0  0  0  0  0  0
  142.9034   76.7378  219.8873 H   0  0  0  0  0  0  0  0  0  0  0  0
  143.5526   75.7233  218.5546 H   0  0  0  0  0  0  0  0  0  0  0  0
  141.8225   76.2065  218.5546 H   0  0  0  0  0  0  0  0  0  0  0  0
  141.5667   74.0708  219.4493 H   0  0  0  0  0  0  0  0  0  0  0  0
  142.1880   75.7880  221.7770 H   0  0  0  0  0  0  0  0  0  0  0  0
  139.1010   74.4380  223.0770 H   0  0  0  0  0  0  0  0  0  0  0  0
  141.4106   72.5302  220.6112 H   0  0  0  0  0  0  0  0  0  0  0  0
  138.9690   73.0990  222.0410 H   0  0  0  0  0  0  0  0  0  0  0  0
  138.4516   68.8720  223.0312 H   0  0  0  0  0  0  0  0  0  0  0  0
  138.8735   67.3910  224.9978 H   0  0  0  0  0  0  0  0  0  0  0  0
  139.7390   67.1496  227.1182 H   0  0  0  0  0  0  0  0  0  0  0  0
  141.6436   70.3046  229.2446 H   0  0  0  0  0  0  0  0  0  0  0  0
  141.2538   71.8006  227.3190 H   0  0  0  0  0  0  0  0  0  0  0  0
  144.7527   75.5907  220.8236 H   0  0  0  0  0  0  0  0  0  0  0  0
  146.8771   74.3162  221.0644 H   0  0  0  0  0  0  0  0  0  0  0  0
  146.8696   71.8976  220.4585 H   0  0  0  0  0  0  0  0  0  0  0  0
  144.8067   70.8151  219.6525 H   0  0  0  0  0  0  0  0  0  0  0  0
  142.6841   72.0860  219.4110 H   0  0  0  0  0  0  0  0  0  0  0  0
  1  2  1  0
  2  3  1  0
  3  4  1  0
  4  5  1  0
  4  6  2  0
  6  7  1  0
  7  8  1  0
  8  9  2  0
  8 10  1  0
 10 11  2  0
 11 12  1  0
 12 13  2  0
 13 14  1  0
 14 15  2  0
 15 16  1  0
 15 17  1  0
 17 18  2  0
 18 19  1  0
 19 20  2  0
  2 21  1  0
 21 22  2  0
 22 23  1  0
 23 24  2  0
 24 25  1  0
 25 26  2  0
 20 10  1  0
 26 21  1  0
 19 13  1  0
  1 27  1  0
  1 28  1  0
  1 29  1  0
  2 30  1  6
  3 31  1  0
  5 32  1  0
  6 33  1  0
  7 34  1  0
 11 35  1  0
 12 36  1  0
 14 37  1  0
 17 38  1  0
 18 39  1  0
 22 40  1  0
 23 41  1  0
 24 42  1  0
 25 43  1  0
 26 44  1  0
M  END
>  <meeko>  (8) 
{"free_energy": -8.48, "intermolecular_energy": -10.57, "internal_energy": -1.4, "cluster_size": 9, "cluster_id": 1, "rank_in_cluster": 2}

$$$$

     RDKit          3D

 44 46  0  0  0  0  0  0  0  0999 V2000
  139.6550   77.1110  220.6640 C   0  0  0  0  0  0  0  0  0  0  0  0
  141.1260   76.9860  220.9840 C   0  0  2  0  0  0  0  0  0  0  0  0
  141.4110   75.7690  221.6870 N   0  0  0  0  0  0  0  0  0  0  0  0
  140.3330   74.9210  221.9630 C   0  0  0  0  0  0  0  0  0  0  0  0
  139.2810   75.3970  222.7150 O   0  0  0  0  0  0  0  0  0  0  0  0
  140.4340   73.7050  221.4630 C   0  0  0  0  0  0  0  0  0  0  0  0
  139.6830   72.7570  222.1600 N   0  0  0  0  0  0  0  0  0  0  0  0
  138.9810   71.8740  222.8100 C   0  0  0  0  0  0  0  0  0  0  0  0
  137.7420   71.7560  222.4540 O   0  0  0  0  0  0  0  0  0  0  0  0
  139.3930   71.0240  223.8730 C   0  0  0  0  0  0  0  0  0  0  0  0
  139.1780   69.6490  223.7100 C   0  0  0  0  0  0  0  0  0  0  0  0
  139.5030   68.8010  224.7320 C   0  0  0  0  0  0  0  0  0  0  0  0
  140.0280   69.3590  225.8730 C   0  0  0  0  0  0  0  0  0  0  0  0
  140.3550   68.5320  226.9000 C   0  0  0  0  0  0  0  0  0  0  0  0
  140.8840   68.9760  228.0830 C   0  0  0  0  0  0  0  0  0  0  0  0
  141.2010   68.1380  229.0930 F   0  0  0  0  0  0  0  0  0  0  0  0
  141.0960   70.3110  228.2470 C   0  0  0  0  0  0  0  0  0  0  0  0
  140.7770   71.1750  227.2270 C   0  0  0  0  0  0  0  0  0  0  0  0
  140.2440   70.7130  226.0440 C   0  0  0  0  0  0  0  0  0  0  0  0
  139.9070   71.4790  225.0120 N   0  0  0  0  0  0  0  0  0  0  0  0
  141.4540   78.1930  221.8130 C   0  0  0  0  0  0  0  0  0  0  0  0
  141.4160   78.1800  223.1870 C   0  0  0  0  0  0  0  0  0  0  0  0
  141.7240   79.2960  223.9470 C   0  0  0  0  0  0  0  0  0  0  0  0
  142.0750   80.4390  223.2670 C   0  0  0  0  0  0  0  0  0  0  0  0
  142.1150   80.4560  221.8770 C   0  0  0  0  0  0  0  0  0  0  0  0
  141.8080   79.3480  221.1200 C   0  0  0  0  0  0  0  0  0  0  0  0
  139.0790   77.1599  221.5999 H   0  0  0  0  0  0  0  0  0  0  0  0
  139.4834   78.0270  220.0796 H   0  0  0  0  0  0  0  0  0  0  0  0
  139.3313   76.2371  220.0796 H   0  0  0  0  0  0  0  0  0  0  0  0
  141.7377   76.9437  220.0707 H   0  0  0  0  0  0  0  0  0  0  0  0
  142.4130   75.5920  221.9520 H   0  0  0  0  0  0  0  0  0  0  0  0
  138.8310   74.9050  223.4550 H   0  0  0  0  0  0  0  0  0  0  0  0
  141.0490   73.4618  220.5840 H   0  0  0  0  0  0  0  0  0  0  0  0
  138.6500   73.5770  222.0950 H   0  0  0  0  0  0  0  0  0  0  0  0
  138.7539   69.2576  222.7735 H   0  0  0  0  0  0  0  0  0  0  0  0
  139.3504   67.7152  224.6445 H   0  0  0  0  0  0  0  0  0  0  0  0
  140.1866   67.4521  226.7754 H   0  0  0  0  0  0  0  0  0  0  0  0
  141.5187   70.6944  229.1874 H   0  0  0  0  0  0  0  0  0  0  0  0
  140.9502   72.2534  227.3576 H   0  0  0  0  0  0  0  0  0  0  0  0
  141.1309   77.2503  223.7011 H   0  0  0  0  0  0  0  0  0  0  0  0
  141.6895   79.2695  225.0461 H   0  0  0  0  0  0  0  0  0  0  0  0
  142.3270   81.3503  223.8292 H   0  0  0  0  0  0  0  0  0  0  0  0
  142.4017   81.3864  221.3651 H   0  0  0  0  0  0  0  0  0  0  0  0
  141.8407   79.3736  220.0208 H   0  0  0  0  0  0  0  0  0  0  0  0
  1  2  1  0
  2  3  1  0
  3  4  1  0
  4  5  1  0
  4  6  2  0
  6  7  1  0
  7  8  1  0
  8  9  2  0
  8 10  1  0
 10 11  2  0
 11 12  1  0
 12 13  2  0
 13 14  1  0
 14 15  2  0
 15 16  1  0
 15 17  1  0
 17 18  2  0
 18 19  1  0
 19 20  2  0
  2 21  1  0
 21 22  2  0
 22 23  1  0
 23 24  2  0
 24 25  1  0
 25 26  2  0
 20 10  1  0
 26 21  1  0
 19 13  1  0
  1 27  1  0
  1 28  1  0
  1 29  1  0
  2 30  1  6
  3 31  1  0
  5 32  1  0
  6 33  1  0
  7 34  1  0
 11 35  1  0
 12 36  1  0
 14 37  1  0
 17 38  1  0
 18 39  1  0
 22 40  1  0
 23 41  1  0
 24 42  1  0
 25 43  1  0
 26 44  1  0
M  END
>  <meeko>  (9) 
{"free_energy": -8.48, "intermolecular_energy": -10.57, "internal_energy": -1.26, "cluster_size": 10, "cluster_id": 2, "rank_in_cluster": 3}

$$$$

     RDKit          3D

 44 46  0  0  0  0  0  0  0  0999 V2000
  138.9610   77.5050  222.6840 C   0  0  0  0  0  0  0  0  0  0  0  0
  140.2090   77.3380  221.8490 C   0  0  2  0  0  0  0  0  0  0  0  0
  140.8580   76.0880  222.1190 N   0  0  0  0  0  0  0  0  0  0  0  0
  140.1200   74.9200  221.8970 C   0  0  0  0  0  0  0  0  0  0  0  0
  138.7500   74.9580  222.0380 O   0  0  0  0  0  0  0  0  0  0  0  0
  140.8320   73.8600  221.5700 C   0  0  0  0  0  0  0  0  0  0  0  0
  140.3440   72.6750  222.1210 N   0  0  0  0  0  0  0  0  0  0  0  0
  139.8880   71.5690  222.6350 C   0  0  0  0  0  0  0  0  0  0  0  0
  139.1070   70.8670  221.8770 O   0  0  0  0  0  0  0  0  0  0  0  0
  140.1250   71.0300  223.9300 C   0  0  0  0  0  0  0  0  0  0  0  0
  140.7180   71.8790  224.8740 C   0  0  0  0  0  0  0  0  0  0  0  0
  141.0200   71.3850  226.1120 C   0  0  0  0  0  0  0  0  0  0  0  0
  140.7180   70.0670  226.3590 C   0  0  0  0  0  0  0  0  0  0  0  0
  141.0120   69.5590  227.5830 C   0  0  0  0  0  0  0  0  0  0  0  0
  140.7550   68.2610  227.9390 C   0  0  0  0  0  0  0  0  0  0  0  0
  141.0560   67.7740  229.1610 F   0  0  0  0  0  0  0  0  0  0  0  0
  140.1780   67.4320  227.0260 C   0  0  0  0  0  0  0  0  0  0  0  0
  139.8670   67.9150  225.7780 C   0  0  0  0  0  0  0  0  0  0  0  0
  140.1320   69.2230  225.4350 C   0  0  0  0  0  0  0  0  0  0  0  0
  139.8650   69.7660  224.2520 N   0  0  0  0  0  0  0  0  0  0  0  0
  141.0830   78.5040  222.2050 C   0  0  0  0  0  0  0  0  0  0  0  0
  141.5520   78.7150  223.4790 C   0  0  0  0  0  0  0  0  0  0  0  0
  142.3630   79.7900  223.8010 C   0  0  0  0  0  0  0  0  0  0  0  0
  142.6870   80.6560  222.7820 C   0  0  0  0  0  0  0  0  0  0  0  0
  142.2140   80.4460  221.4920 C   0  0  0  0  0  0  0  0  0  0  0  0
  141.4080   79.3770  221.1700 C   0  0  0  0  0  0  0  0  0  0  0  0
  139.2262   77.4695  223.7510 H   0  0  0  0  0  0  0  0  0  0  0  0
  138.4932   78.4737  222.4545 H   0  0  0  0  0  0  0  0  0  0  0  0
  138.2549   76.6933  222.4545 H   0  0  0  0  0  0  0  0  0  0  0  0
  139.9790   77.3202  220.7735 H   0  0  0  0  0  0  0  0  0  0  0  0
  141.8500   76.1290  222.4670 H   0  0  0  0  0  0  0  0  0  0  0  0
  138.2340   74.5360  222.7780 H   0  0  0  0  0  0  0  0  0  0  0  0
  141.7229   73.9054  220.9263 H   0  0  0  0  0  0  0  0  0  0  0  0
  139.1990   72.8980  221.5030 H   0  0  0  0  0  0  0  0  0  0  0  0
  140.9371   72.9272  224.6224 H   0  0  0  0  0  0  0  0  0  0  0  0
  141.4868   72.0178  226.8812 H   0  0  0  0  0  0  0  0  0  0  0  0
  141.4796   70.2221  228.3257 H   0  0  0  0  0  0  0  0  0  0  0  0
  139.9627   66.3849  227.2853 H   0  0  0  0  0  0  0  0  0  0  0  0
  139.3988   67.2466  225.0405 H   0  0  0  0  0  0  0  0  0  0  0  0
  141.2733   78.0047  224.2713 H   0  0  0  0  0  0  0  0  0  0  0  0
  142.7318   79.9448  224.8257 H   0  0  0  0  0  0  0  0  0  0  0  0
  143.3281   81.5251  222.9908 H   0  0  0  0  0  0  0  0  0  0  0  0
  142.4931   81.1581  220.7014 H   0  0  0  0  0  0  0  0  0  0  0  0
  141.0391   79.2204  220.1456 H   0  0  0  0  0  0  0  0  0  0  0  0
  1  2  1  0
  2  3  1  0
  3  4  1  0
  4  5  1  0
  4  6  2  0
  6  7  1  0
  7  8  1  0
  8  9  2  0
  8 10  1  0
 10 11  2  0
 11 12  1  0
 12 13  2  0
 13 14  1  0
 14 15  2  0
 15 16  1  0
 15 17  1  0
 17 18  2  0
 18 19  1  0
 19 20  2  0
  2 21  1  0
 21 22  2  0
 22 23  1  0
 23 24  2  0
 24 25  1  0
 25 26  2  0
 20 10  1  0
 26 21  1  0
 19 13  1  0
  1 27  1  0
  1 28  1  0
  1 29  1  0
  2 30  1  6
  3 31  1  0
  5 32  1  0
  6 33  1  0
  7 34  1  0
 11 35  1  0
 12 36  1  0
 14 37  1  0
 17 38  1  0
 18 39  1  0
 22 40  1  0
 23 41  1  0
 24 42  1  0
 25 43  1  0
 26 44  1  0
M  END
>  <meeko>  (10) 
{"free_energy": -8.49, "intermolecular_energy": -10.58, "internal_energy": -1.18, "cluster_size": 10, "cluster_id": 2, "rank_in_cluster": 2}

$$$$

     RDKit          3D

 44 46  0  0  0  0  0  0  0  0999 V2000
  142.6200   75.8420  219.1050 C   0  0  0  0  0  0  0  0  0  0  0  0
  142.2930   74.6250  219.9380 C   0  0  2  0  0  0  0  0  0  0  0  0
  141.7350   74.9910  221.2070 N   0  0  0  0  0  0  0  0  0  0  0  0
  140.6010   74.2930  221.6340 C   0  0  0  0  0  0  0  0  0  0  0  0
  139.6480   74.9540  222.3790 O   0  0  0  0  0  0  0  0  0  0  0  0
  140.5530   73.0260  221.2750 C   0  0  0  0  0  0  0  0  0  0  0  0
  139.7390   72.2470  222.0990 N   0  0  0  0  0  0  0  0  0  0  0  0
  138.9790   71.5220  222.8670 C   0  0  0  0  0  0  0  0  0  0  0  0
  137.7090   71.5620  222.6160 O   0  0  0  0  0  0  0  0  0  0  0  0
  139.3570   70.6940  223.9610 C   0  0  0  0  0  0  0  0  0  0  0  0
  139.0350   69.3340  223.8720 C   0  0  0  0  0  0  0  0  0  0  0  0
  139.3260   68.5140  224.9270 C   0  0  0  0  0  0  0  0  0  0  0  0
  139.9250   69.0830  226.0240 C   0  0  0  0  0  0  0  0  0  0  0  0
  140.2190   68.2840  227.0820 C   0  0  0  0  0  0  0  0  0  0  0  0
  140.8150   68.7430  228.2270 C   0  0  0  0  0  0  0  0  0  0  0  0
  141.0990   67.9320  229.2690 F   0  0  0  0  0  0  0  0  0  0  0  0
  141.1310   70.0630  228.3190 C   0  0  0  0  0  0  0  0  0  0  0  0
  140.8480   70.8990  227.2660 C   0  0  0  0  0  0  0  0  0  0  0  0
  140.2470   70.4240  226.1210 C   0  0  0  0  0  0  0  0  0  0  0  0
  139.9370   71.1630  225.0620 N   0  0  0  0  0  0  0  0  0  0  0  0
  143.5940   73.8930  220.0960 C   0  0  0  0  0  0  0  0  0  0  0  0
  143.7130   72.5400  219.8830 C   0  0  0  0  0  0  0  0  0  0  0  0
  144.9170   71.8710  220.0260 C   0  0  0  0  0  0  0  0  0  0  0  0
  146.0090   72.6210  220.3960 C   0  0  0  0  0  0  0  0  0  0  0  0
  145.8930   73.9900  220.6120 C   0  0  0  0  0  0  0  0  0  0  0  0
  144.6970   74.6570  220.4700 C   0  0  0  0  0  0  0  0  0  0  0  0
  142.8478   76.6897  219.7680 H   0  0  0  0  0  0  0  0  0  0  0  0
  143.4925   75.6282  218.4702 H   0  0  0  0  0  0  0  0  0  0  0  0
  141.7578   76.0943  218.4702 H   0  0  0  0  0  0  0  0  0  0  0  0
  141.5307   73.9953  219.4559 H   0  0  0  0  0  0  0  0  0  0  0  0
  142.2140   75.7630  221.7370 H   0  0  0  0  0  0  0  0  0  0  0  0
  139.0500   74.5340  223.0560 H   0  0  0  0  0  0  0  0  0  0  0  0
  141.1006   72.6219  220.4108 H   0  0  0  0  0  0  0  0  0  0  0  0
  138.8300   73.2030  222.0470 H   0  0  0  0  0  0  0  0  0  0  0  0
  138.5555   68.9316  222.9675 H   0  0  0  0  0  0  0  0  0  0  0  0
  139.0894   67.4401  224.8981 H   0  0  0  0  0  0  0  0  0  0  0  0
  139.9661   67.2155  227.0164 H   0  0  0  0  0  0  0  0  0  0  0  0
  141.6087   70.4574  229.2280 H   0  0  0  0  0  0  0  0  0  0  0  0
  141.1058   71.9659  227.3385 H   0  0  0  0  0  0  0  0  0  0  0  0
  142.8203   71.9687  219.5886 H   0  0  0  0  0  0  0  0  0  0  0  0
  144.9966   70.7879  219.8514 H   0  0  0  0  0  0  0  0  0  0  0  0
  146.9862   72.1320  220.5226 H   0  0  0  0  0  0  0  0  0  0  0  0
  146.7871   74.5591  220.9063 H   0  0  0  0  0  0  0  0  0  0  0  0
  144.6164   75.7402  220.6434 H   0  0  0  0  0  0  0  0  0  0  0  0
  1  2  1  0
  2  3  1  0
  3  4  1  0
  4  5  1  0
  4  6  2  0
  6  7  1  0
  7  8  1  0
  8  9  2  0
  8 10  1  0
 10 11  2  0
 11 12  1  0
 12 13  2  0
 13 14  1  0
 14 15  2  0
 15 16  1  0
 15 17  1  0
 17 18  2  0
 18 19  1  0
 19 20  2  0
  2 21  1  0
 21 22  2  0
 22 23  1  0
 23 24  2  0
 24 25  1  0
 25 26  2  0
 20 10  1  0
 26 21  1  0
 19 13  1  0
  1 27  1  0
  1 28  1  0
  1 29  1  0
  2 30  1  6
  3 31  1  0
  5 32  1  0
  6 33  1  0
  7 34  1  0
 11 35  1  0
 12 36  1  0
 14 37  1  0
 17 38  1  0
 18 39  1  0
 22 40  1  0
 23 41  1  0
 24 42  1  0
 25 43  1  0
 26 44  1  0
M  END
>  <meeko>  (11) 
{"free_energy": -8.44, "intermolecular_energy": -10.53, "internal_energy": -1.43, "cluster_size": 9, "cluster_id": 1, "rank_in_cluster": 3}

$$$$

     RDKit          3D

 44 46  0  0  0  0  0  0  0  0999 V2000
  142.6970   75.8750  219.0630 C   0  0  0  0  0  0  0  0  0  0  0  0
  142.3610   74.6690  219.9080 C   0  0  2  0  0  0  0  0  0  0  0  0
  141.7720   75.0500  221.1580 N   0  0  0  0  0  0  0  0  0  0  0  0
  140.6770   74.3030  221.6060 C   0  0  0  0  0  0  0  0  0  0  0  0
  139.7110   74.9230  222.3690 O   0  0  0  0  0  0  0  0  0  0  0  0
  140.6790   73.0350  221.2480 C   0  0  0  0  0  0  0  0  0  0  0  0
  139.8410   72.2380  222.0300 N   0  0  0  0  0  0  0  0  0  0  0  0
  139.0590   71.4950  222.7590 C   0  0  0  0  0  0  0  0  0  0  0  0
  137.8060   71.4950  222.4310 O   0  0  0  0  0  0  0  0  0  0  0  0
  139.3960   70.6900  223.8810 C   0  0  0  0  0  0  0  0  0  0  0  0
  139.0430   69.3350  223.8220 C   0  0  0  0  0  0  0  0  0  0  0  0
  139.2930   68.5370  224.9040 C   0  0  0  0  0  0  0  0  0  0  0  0
  139.8830   69.1220  225.9980 C   0  0  0  0  0  0  0  0  0  0  0  0
  140.1370   68.3450  227.0820 C   0  0  0  0  0  0  0  0  0  0  0  0
  140.7210   68.8210  228.2270 C   0  0  0  0  0  0  0  0  0  0  0  0
  140.9640   68.0320  229.2960 F   0  0  0  0  0  0  0  0  0  0  0  0
  141.0660   70.1360  228.2900 C   0  0  0  0  0  0  0  0  0  0  0  0
  140.8230   70.9490  227.2100 C   0  0  0  0  0  0  0  0  0  0  0  0
  140.2350   70.4570  226.0660 C   0  0  0  0  0  0  0  0  0  0  0  0
  139.9640   71.1750  224.9810 N   0  0  0  0  0  0  0  0  0  0  0  0
  143.6630   73.9500  220.1060 C   0  0  0  0  0  0  0  0  0  0  0  0
  144.8130   74.5940  220.4930 C   0  0  0  0  0  0  0  0  0  0  0  0
  146.0100   73.9240  220.6790 C   0  0  0  0  0  0  0  0  0  0  0  0
  146.0080   72.5660  220.4580 C   0  0  0  0  0  0  0  0  0  0  0  0
  144.8460   71.9110  220.0670 C   0  0  0  0  0  0  0  0  0  0  0  0
  143.6550   72.5750  219.8810 C   0  0  0  0  0  0  0  0  0  0  0  0
  142.9343   76.7267  219.7175 H   0  0  0  0  0  0  0  0  0  0  0  0
  143.5659   75.6473  218.4281 H   0  0  0  0  0  0  0  0  0  0  0  0
  141.8355   76.1294  218.4281 H   0  0  0  0  0  0  0  0  0  0  0  0
  141.6143   74.0259  219.4193 H   0  0  0  0  0  0  0  0  0  0  0  0
  142.2000   75.8700  221.6590 H   0  0  0  0  0  0  0  0  0  0  0  0
  139.1160   74.4690  223.0260 H   0  0  0  0  0  0  0  0  0  0  0  0
  141.2814   72.6431  220.4152 H   0  0  0  0  0  0  0  0  0  0  0  0
  138.9080   73.1640  221.9130 H   0  0  0  0  0  0  0  0  0  0  0  0
  138.5719   68.9196  222.9189 H   0  0  0  0  0  0  0  0  0  0  0  0
  139.0319   67.4685  224.8986 H   0  0  0  0  0  0  0  0  0  0  0  0
  139.8605   67.2812  227.0392 H   0  0  0  0  0  0  0  0  0  0  0  0
  141.5351   70.5439  229.1975 H   0  0  0  0  0  0  0  0  0  0  0  0
  141.1029   72.0116  227.2597 H   0  0  0  0  0  0  0  0  0  0  0  0
  144.7816   75.6806  220.6610 H   0  0  0  0  0  0  0  0  0  0  0  0
  146.9225   74.4539  220.9898 H   0  0  0  0  0  0  0  0  0  0  0  0
  146.9367   71.9920  220.5923 H   0  0  0  0  0  0  0  0  0  0  0  0
  144.8796   70.8242  219.9005 H   0  0  0  0  0  0  0  0  0  0  0  0
  142.7419   72.0463  219.5701 H   0  0  0  0  0  0  0  0  0  0  0  0
  1  2  1  0
  2  3  1  0
  3  4  1  0
  4  5  1  0
  4  6  2  0
  6  7  1  0
  7  8  1  0
  8  9  2  0
  8 10  1  0
 10 11  2  0
 11 12  1  0
 12 13  2  0
 13 14  1  0
 14 15  2  0
 15 16  1  0
 15 17  1  0
 17 18  2  0
 18 19  1  0
 19 20  2  0
  2 21  1  0
 21 22  2  0
 22 23  1  0
 23 24  2  0
 24 25  1  0
 25 26  2  0
 20 10  1  0
 26 21  1  0
 19 13  1  0
  1 27  1  0
  1 28  1  0
  1 29  1  0
  2 30  1  6
  3 31  1  0
  5 32  1  0
  6 33  1  0
  7 34  1  0
 11 35  1  0
 12 36  1  0
 14 37  1  0
 17 38  1  0
 18 39  1  0
 22 40  1  0
 23 41  1  0
 24 42  1  0
 25 43  1  0
 26 44  1  0
M  END
>  <meeko>  (12) 
{"free_energy": -8.44, "intermolecular_energy": -10.53, "internal_energy": -1.44, "cluster_size": 9, "cluster_id": 1, "rank_in_cluster": 4}

$$$$

     RDKit          3D

 44 46  0  0  0  0  0  0  0  0999 V2000
  139.6050   77.1990  220.7580 C   0  0  0  0  0  0  0  0  0  0  0  0
  141.0910   77.0770  221.0000 C   0  0  2  0  0  0  0  0  0  0  0  0
  141.4230   75.8260  221.6170 N   0  0  0  0  0  0  0  0  0  0  0  0
  140.3670   74.9580  221.9160 C   0  0  0  0  0  0  0  0  0  0  0  0
  139.3360   75.4080  222.7130 O   0  0  0  0  0  0  0  0  0  0  0  0
  140.4660   73.7530  221.3930 C   0  0  0  0  0  0  0  0  0  0  0  0
  139.6980   72.7960  222.0590 N   0  0  0  0  0  0  0  0  0  0  0  0
  138.9800   71.9050  222.6790 C   0  0  0  0  0  0  0  0  0  0  0  0
  137.7630   71.7600  222.2600 O   0  0  0  0  0  0  0  0  0  0  0  0
  139.3520   71.0720  223.7700 C   0  0  0  0  0  0  0  0  0  0  0  0
  139.0410   69.7090  223.6670 C   0  0  0  0  0  0  0  0  0  0  0  0
  139.3250   68.8840  224.7190 C   0  0  0  0  0  0  0  0  0  0  0  0
  139.9070   69.4490  225.8280 C   0  0  0  0  0  0  0  0  0  0  0  0
  140.1950   68.6440  226.8830 C   0  0  0  0  0  0  0  0  0  0  0  0
  140.7730   69.0980  228.0390 C   0  0  0  0  0  0  0  0  0  0  0  0
  141.0510   68.2820  229.0780 F   0  0  0  0  0  0  0  0  0  0  0  0
  141.0780   70.4210  228.1450 C   0  0  0  0  0  0  0  0  0  0  0  0
  140.8010   71.2620  227.0950 C   0  0  0  0  0  0  0  0  0  0  0  0
  140.2170   70.7910  225.9390 C   0  0  0  0  0  0  0  0  0  0  0  0
  139.9150   71.5370  224.8820 N   0  0  0  0  0  0  0  0  0  0  0  0
  141.4450   78.2400  221.8800 C   0  0  0  0  0  0  0  0  0  0  0  0
  141.4200   78.1640  223.2520 C   0  0  0  0  0  0  0  0  0  0  0  0
  141.7520   79.2390  224.0590 C   0  0  0  0  0  0  0  0  0  0  0  0
  142.1140   80.4060  223.4280 C   0  0  0  0  0  0  0  0  0  0  0  0
  142.1410   80.4870  222.0400 C   0  0  0  0  0  0  0  0  0  0  0  0
  141.8110   79.4190  221.2360 C   0  0  0  0  0  0  0  0  0  0  0  0
  139.0787   77.2422  221.7229 H   0  0  0  0  0  0  0  0  0  0  0  0
  139.4006   78.1169  220.1874 H   0  0  0  0  0  0  0  0  0  0  0  0
  139.2536   76.3267  220.1874 H   0  0  0  0  0  0  0  0  0  0  0  0
  141.6589   77.0955  220.0581 H   0  0  0  0  0  0  0  0  0  0  0  0
  142.4400   75.6410  221.8080 H   0  0  0  0  0  0  0  0  0  0  0  0
  138.9200   74.8970  223.4610 H   0  0  0  0  0  0  0  0  0  0  0  0
  141.0919   73.5235  220.5180 H   0  0  0  0  0  0  0  0  0  0  0  0
  138.6540   73.5950  221.9320 H   0  0  0  0  0  0  0  0  0  0  0  0
  138.5757   69.3097  222.7538 H   0  0  0  0  0  0  0  0  0  0  0  0
  139.0964   67.8088  224.6793 H   0  0  0  0  0  0  0  0  0  0  0  0
  139.9521   67.5740  226.8055 H   0  0  0  0  0  0  0  0  0  0  0  0
  141.5417   70.8123  229.0626 H   0  0  0  0  0  0  0  0  0  0  0  0
  141.0497   72.3303  227.1783 H   0  0  0  0  0  0  0  0  0  0  0  0
  141.1259   77.2158  223.7257 H   0  0  0  0  0  0  0  0  0  0  0  0
  141.7273   79.1629  225.1561 H   0  0  0  0  0  0  0  0  0  0  0  0
  142.3856   81.2865  224.0288 H   0  0  0  0  0  0  0  0  0  0  0  0
  142.4359   81.4361  221.5686 H   0  0  0  0  0  0  0  0  0  0  0  0
  141.8353   79.4936  220.1388 H   0  0  0  0  0  0  0  0  0  0  0  0
  1  2  1  0
  2  3  1  0
  3  4  1  0
  4  5  1  0
  4  6  2  0
  6  7  1  0
  7  8  1  0
  8  9  2  0
  8 10  1  0
 10 11  2  0
 11 12  1  0
 12 13  2  0
 13 14  1  0
 14 15  2  0
 15 16  1  0
 15 17  1  0
 17 18  2  0
 18 19  1  0
 19 20  2  0
  2 21  1  0
 21 22  2  0
 22 23  1  0
 23 24  2  0
 24 25  1  0
 25 26  2  0
 20 10  1  0
 26 21  1  0
 19 13  1  0
  1 27  1  0
  1 28  1  0
  1 29  1  0
  2 30  1  6
  3 31  1  0
  5 32  1  0
  6 33  1  0
  7 34  1  0
 11 35  1  0
 12 36  1  0
 14 37  1  0
 17 38  1  0
 18 39  1  0
 22 40  1  0
 23 41  1  0
 24 42  1  0
 25 43  1  0
 26 44  1  0
M  END
>  <meeko>  (13) 
{"free_energy": -8.45, "intermolecular_energy": -10.54, "internal_energy": -1.26, "cluster_size": 10, "cluster_id": 2, "rank_in_cluster": 4}

$$$$

     RDKit          3D

 44 46  0  0  0  0  0  0  0  0999 V2000
  142.5830   75.9390  219.1840 C   0  0  0  0  0  0  0  0  0  0  0  0
  142.2770   74.6910  219.9780 C   0  0  2  0  0  0  0  0  0  0  0  0
  141.7200   75.0070  221.2610 N   0  0  0  0  0  0  0  0  0  0  0  0
  140.5950   74.2810  221.6690 C   0  0  0  0  0  0  0  0  0  0  0  0
  139.5620   74.9440  222.2970 O   0  0  0  0  0  0  0  0  0  0  0  0
  140.6350   72.9900  221.4080 C   0  0  0  0  0  0  0  0  0  0  0  0
  139.8070   72.2320  222.2370 N   0  0  0  0  0  0  0  0  0  0  0  0
  139.0330   71.5260  223.0100 C   0  0  0  0  0  0  0  0  0  0  0  0
  137.7620   71.6190  222.7830 O   0  0  0  0  0  0  0  0  0  0  0  0
  139.4000   70.6700  224.0850 C   0  0  0  0  0  0  0  0  0  0  0  0
  138.9920   69.3320  224.0020 C   0  0  0  0  0  0  0  0  0  0  0  0
  139.2690   68.4890  225.0420 C   0  0  0  0  0  0  0  0  0  0  0  0
  139.9410   69.0140  226.1200 C   0  0  0  0  0  0  0  0  0  0  0  0
  140.2230   68.1910  227.1630 C   0  0  0  0  0  0  0  0  0  0  0  0
  140.8870   68.6050  228.2880 C   0  0  0  0  0  0  0  0  0  0  0  0
  141.1570   67.7720  229.3150 F   0  0  0  0  0  0  0  0  0  0  0  0
  141.2860   69.9040  228.3740 C   0  0  0  0  0  0  0  0  0  0  0  0
  141.0170   70.7620  227.3360 C   0  0  0  0  0  0  0  0  0  0  0  0
  140.3470   70.3320  226.2110 C   0  0  0  0  0  0  0  0  0  0  0  0
  140.0460   71.0960  225.1670 N   0  0  0  0  0  0  0  0  0  0  0  0
  143.5880   73.9730  220.1070 C   0  0  0  0  0  0  0  0  0  0  0  0
  144.7500   74.6120  220.4670 C   0  0  0  0  0  0  0  0  0  0  0  0
  145.9560   73.9430  220.5890 C   0  0  0  0  0  0  0  0  0  0  0  0
  145.9510   72.5910  220.3300 C   0  0  0  0  0  0  0  0  0  0  0  0
  144.7770   71.9410  219.9660 C   0  0  0  0  0  0  0  0  0  0  0  0
  143.5770   72.6050  219.8440 C   0  0  0  0  0  0  0  0  0  0  0  0
  142.7871   76.7714  219.8735 H   0  0  0  0  0  0  0  0  0  0  0  0
  143.4647   75.7633  218.5501 H   0  0  0  0  0  0  0  0  0  0  0  0
  141.7201   76.1911  218.5501 H   0  0  0  0  0  0  0  0  0  0  0  0
  141.5214   74.0671  219.4782 H   0  0  0  0  0  0  0  0  0  0  0  0
  142.1920   75.7660  221.8150 H   0  0  0  0  0  0  0  0  0  0  0  0
  139.0240   74.5860  223.0550 H   0  0  0  0  0  0  0  0  0  0  0  0
  141.2595   72.5529  220.6149 H   0  0  0  0  0  0  0  0  0  0  0  0
  138.9350   73.2230  222.2140 H   0  0  0  0  0  0  0  0  0  0  0  0
  138.4570   68.9655  223.1135 H   0  0  0  0  0  0  0  0  0  0  0  0
  138.9659   67.4319  225.0171 H   0  0  0  0  0  0  0  0  0  0  0  0
  139.9027   67.1405  227.1017 H   0  0  0  0  0  0  0  0  0  0  0  0
  141.8190   70.2629  229.2668 H   0  0  0  0  0  0  0  0  0  0  0  0
  141.3420   71.8107  227.4037 H   0  0  0  0  0  0  0  0  0  0  0  0
  144.7210   75.6936  220.6653 H   0  0  0  0  0  0  0  0  0  0  0  0
  146.8774   74.4686  220.8800 H   0  0  0  0  0  0  0  0  0  0  0  0
  146.8866   72.0183  220.4119 H   0  0  0  0  0  0  0  0  0  0  0  0
  144.8080   70.8593  219.7688 H   0  0  0  0  0  0  0  0  0  0  0  0
  142.6547   72.0809  219.5531 H   0  0  0  0  0  0  0  0  0  0  0  0
  1  2  1  0
  2  3  1  0
  3  4  1  0
  4  5  1  0
  4  6  2  0
  6  7  1  0
  7  8  1  0
  8  9  2  0
  8 10  1  0
 10 11  2  0
 11 12  1  0
 12 13  2  0
 13 14  1  0
 14 15  2  0
 15 16  1  0
 15 17  1  0
 17 18  2  0
 18 19  1  0
 19 20  2  0
  2 21  1  0
 21 22  2  0
 22 23  1  0
 23 24  2  0
 24 25  1  0
 25 26  2  0
 20 10  1  0
 26 21  1  0
 19 13  1  0
  1 27  1  0
  1 28  1  0
  1 29  1  0
  2 30  1  6
  3 31  1  0
  5 32  1  0
  6 33  1  0
  7 34  1  0
 11 35  1  0
 12 36  1  0
 14 37  1  0
 17 38  1  0
 18 39  1  0
 22 40  1  0
 23 41  1  0
 24 42  1  0
 25 43  1  0
 26 44  1  0
M  END
>  <meeko>  (14) 
{"free_energy": -8.53, "intermolecular_energy": -10.62, "internal_energy": -1.37, "cluster_size": 9, "cluster_id": 1, "rank_in_cluster": 1}

$$$$

     RDKit          3D

 44 46  0  0  0  0  0  0  0  0999 V2000
  138.9420   77.5420  222.6900 C   0  0  0  0  0  0  0  0  0  0  0  0
  140.2080   77.3530  221.8870 C   0  0  2  0  0  0  0  0  0  0  0  0
  140.8440   76.1050  222.1950 N   0  0  0  0  0  0  0  0  0  0  0  0
  140.1290   74.9350  221.9180 C   0  0  0  0  0  0  0  0  0  0  0  0
  138.7530   74.9560  221.9980 O   0  0  0  0  0  0  0  0  0  0  0  0
  140.8650   73.8890  221.6010 C   0  0  0  0  0  0  0  0  0  0  0  0
  140.3830   72.6910  222.1320 N   0  0  0  0  0  0  0  0  0  0  0  0
  139.9320   71.5740  222.6260 C   0  0  0  0  0  0  0  0  0  0  0  0
  139.2140   70.8470  221.8310 O   0  0  0  0  0  0  0  0  0  0  0  0
  140.1130   71.0490  223.9350 C   0  0  0  0  0  0  0  0  0  0  0  0
  140.7210   71.8860  224.8800 C   0  0  0  0  0  0  0  0  0  0  0  0
  140.9700   71.4010  226.1330 C   0  0  0  0  0  0  0  0  0  0  0  0
  140.6040   70.1020  226.3930 C   0  0  0  0  0  0  0  0  0  0  0  0
  140.8450   69.6030  227.6320 C   0  0  0  0  0  0  0  0  0  0  0  0
  140.5230   68.3230  228.0020 C   0  0  0  0  0  0  0  0  0  0  0  0
  140.7730   67.8440  229.2390 F   0  0  0  0  0  0  0  0  0  0  0  0
  139.9320   67.5050  227.0890 C   0  0  0  0  0  0  0  0  0  0  0  0
  139.6730   67.9800  225.8260 C   0  0  0  0  0  0  0  0  0  0  0  0
  140.0040   69.2680  225.4680 C   0  0  0  0  0  0  0  0  0  0  0  0
  139.7900   69.8030  224.2710 N   0  0  0  0  0  0  0  0  0  0  0  0
  141.0800   78.5210  222.2430 C   0  0  0  0  0  0  0  0  0  0  0  0
  141.5480   78.7340  223.5170 C   0  0  0  0  0  0  0  0  0  0  0  0
  142.3560   79.8110  223.8390 C   0  0  0  0  0  0  0  0  0  0  0  0
  142.6800   80.6760  222.8190 C   0  0  0  0  0  0  0  0  0  0  0  0
  142.2090   80.4630  221.5280 C   0  0  0  0  0  0  0  0  0  0  0  0
  141.4050   79.3930  221.2070 C   0  0  0  0  0  0  0  0  0  0  0  0
  139.1799   77.5065  223.7634 H   0  0  0  0  0  0  0  0  0  0  0  0
  138.4949   78.5169  222.4456 H   0  0  0  0  0  0  0  0  0  0  0  0
  138.2296   76.7403  222.4456 H   0  0  0  0  0  0  0  0  0  0  0  0
  140.0028   77.3164  220.8069 H   0  0  0  0  0  0  0  0  0  0  0  0
  141.8090   76.1490  222.6110 H   0  0  0  0  0  0  0  0  0  0  0  0
  138.2120   74.5560  222.7330 H   0  0  0  0  0  0  0  0  0  0  0  0
  141.7701   73.9533  220.9792 H   0  0  0  0  0  0  0  0  0  0  0  0
  139.2680   72.8780  221.4510 H   0  0  0  0  0  0  0  0  0  0  0  0
  140.9939   72.9186  224.6170 H   0  0  0  0  0  0  0  0  0  0  0  0
  141.4449   72.0260  226.9036 H   0  0  0  0  0  0  0  0  0  0  0  0
  141.3222   70.2580  228.3758 H   0  0  0  0  0  0  0  0  0  0  0  0
  139.6641   66.4730  227.3597 H   0  0  0  0  0  0  0  0  0  0  0  0
  139.1931   67.3202  225.0882 H   0  0  0  0  0  0  0  0  0  0  0  0
  141.2708   78.0234  224.3095 H   0  0  0  0  0  0  0  0  0  0  0  0
  142.7226   79.9682  224.8641 H   0  0  0  0  0  0  0  0  0  0  0  0
  143.3193   81.5465  223.0274 H   0  0  0  0  0  0  0  0  0  0  0  0
  142.4885   81.1738  220.7364 H   0  0  0  0  0  0  0  0  0  0  0  0
  141.0372   79.2344  220.1825 H   0  0  0  0  0  0  0  0  0  0  0  0
  1  2  1  0
  2  3  1  0
  3  4  1  0
  4  5  1  0
  4  6  2  0
  6  7  1  0
  7  8  1  0
  8  9  2  0
  8 10  1  0
 10 11  2  0
 11 12  1  0
 12 13  2  0
 13 14  1  0
 14 15  2  0
 15 16  1  0
 15 17  1  0
 17 18  2  0
 18 19  1  0
 19 20  2  0
  2 21  1  0
 21 22  2  0
 22 23  1  0
 23 24  2  0
 24 25  1  0
 25 26  2  0
 20 10  1  0
 26 21  1  0
 19 13  1  0
  1 27  1  0
  1 28  1  0
  1 29  1  0
  2 30  1  6
  3 31  1  0
  5 32  1  0
  6 33  1  0
  7 34  1  0
 11 35  1  0
 12 36  1  0
 14 37  1  0
 17 38  1  0
 18 39  1  0
 22 40  1  0
 23 41  1  0
 24 42  1  0
 25 43  1  0
 26 44  1  0
M  END
>  <meeko>  (15) 
{"free_energy": -8.43, "intermolecular_energy": -10.52, "internal_energy": -1.2, "cluster_size": 10, "cluster_id": 2, "rank_in_cluster": 5}

$$$$

     RDKit          3D

 44 46  0  0  0  0  0  0  0  0999 V2000
  142.7080   75.9930  219.3230 C   0  0  0  0  0  0  0  0  0  0  0  0
  142.3280   74.7070  220.0170 C   0  0  2  0  0  0  0  0  0  0  0  0
  141.7300   74.9560  221.2960 N   0  0  0  0  0  0  0  0  0  0  0  0
  140.5570   74.2570  221.6030 C   0  0  0  0  0  0  0  0  0  0  0  0
  139.5880   74.8760  222.3620 O   0  0  0  0  0  0  0  0  0  0  0  0
  140.4930   73.0310  221.1240 C   0  0  0  0  0  0  0  0  0  0  0  0
  139.7020   72.1770  221.8940 N   0  0  0  0  0  0  0  0  0  0  0  0
  138.9620   71.3810  222.6110 C   0  0  0  0  0  0  0  0  0  0  0  0
  137.7210   71.2830  222.2570 O   0  0  0  0  0  0  0  0  0  0  0  0
  139.3350   70.6110  223.7470 C   0  0  0  0  0  0  0  0  0  0  0  0
  139.0300   69.2430  223.7180 C   0  0  0  0  0  0  0  0  0  0  0  0
  139.3150   68.4770  224.8130 C   0  0  0  0  0  0  0  0  0  0  0  0
  139.8920   69.1040  225.8910 C   0  0  0  0  0  0  0  0  0  0  0  0
  140.1810   68.3590  226.9890 C   0  0  0  0  0  0  0  0  0  0  0  0
  140.7550   68.8780  228.1190 C   0  0  0  0  0  0  0  0  0  0  0  0
  141.0330   68.1200  229.2020 F   0  0  0  0  0  0  0  0  0  0  0  0
  141.0550   70.2050  228.1540 C   0  0  0  0  0  0  0  0  0  0  0  0
  140.7760   70.9880  227.0590 C   0  0  0  0  0  0  0  0  0  0  0  0
  140.1970   70.4520  225.9300 C   0  0  0  0  0  0  0  0  0  0  0  0
  139.8940   71.1380  224.8330 N   0  0  0  0  0  0  0  0  0  0  0  0
  143.6090   73.9350  220.1470 C   0  0  0  0  0  0  0  0  0  0  0  0
  144.7960   74.5250  220.5090 C   0  0  0  0  0  0  0  0  0  0  0  0
  145.9730   73.8070  220.6320 C   0  0  0  0  0  0  0  0  0  0  0  0
  145.9120   72.4570  220.3730 C   0  0  0  0  0  0  0  0  0  0  0  0
  144.7130   71.8560  220.0070 C   0  0  0  0  0  0  0  0  0  0  0  0
  143.5410   72.5690  219.8840 C   0  0  0  0  0  0  0  0  0  0  0  0
  142.9353   76.7624  220.0755 H   0  0  0  0  0  0  0  0  0  0  0  0
  143.5941   75.8222  218.6939 H   0  0  0  0  0  0  0  0  0  0  0  0
  141.8714   76.3312  218.6939 H   0  0  0  0  0  0  0  0  0  0  0  0
  141.5728   74.1458  219.4471 H   0  0  0  0  0  0  0  0  0  0  0  0
  142.2100   75.6500  221.9230 H   0  0  0  0  0  0  0  0  0  0  0  0
  138.9920   74.4230  223.0190 H   0  0  0  0  0  0  0  0  0  0  0  0
  141.0117   72.7122  220.2079 H   0  0  0  0  0  0  0  0  0  0  0  0
  138.7030   73.0290  221.7500 H   0  0  0  0  0  0  0  0  0  0  0  0
  138.5681   68.7929  222.8269 H   0  0  0  0  0  0  0  0  0  0  0  0
  139.0912   67.4001  224.8309 H   0  0  0  0  0  0  0  0  0  0  0  0
  139.9422   67.2854  226.9699 H   0  0  0  0  0  0  0  0  0  0  0  0
  141.5162   70.6467  229.0497 H   0  0  0  0  0  0  0  0  0  0  0  0
  141.0192   72.0605  227.0849 H   0  0  0  0  0  0  0  0  0  0  0  0
  144.8114   75.6067  220.7082 H   0  0  0  0  0  0  0  0  0  0  0  0
  146.9152   74.2940  220.9238 H   0  0  0  0  0  0  0  0  0  0  0  0
  146.8229   71.8460  220.4565 H   0  0  0  0  0  0  0  0  0  0  0  0
  144.6999   70.7741  219.8089 H   0  0  0  0  0  0  0  0  0  0  0  0
  142.5979   72.0836  219.5925 H   0  0  0  0  0  0  0  0  0  0  0  0
  1  2  1  0
  2  3  1  0
  3  4  1  0
  4  5  1  0
  4  6  2  0
  6  7  1  0
  7  8  1  0
  8  9  2  0
  8 10  1  0
 10 11  2  0
 11 12  1  0
 12 13  2  0
 13 14  1  0
 14 15  2  0
 15 16  1  0
 15 17  1  0
 17 18  2  0
 18 19  1  0
 19 20  2  0
  2 21  1  0
 21 22  2  0
 22 23  1  0
 23 24  2  0
 24 25  1  0
 25 26  2  0
 20 10  1  0
 26 21  1  0
 19 13  1  0
  1 27  1  0
  1 28  1  0
  1 29  1  0
  2 30  1  6
  3 31  1  0
  5 32  1  0
  6 33  1  0
  7 34  1  0
 11 35  1  0
 12 36  1  0
 14 37  1  0
 17 38  1  0
 18 39  1  0
 22 40  1  0
 23 41  1  0
 24 42  1  0
 25 43  1  0
 26 44  1  0
M  END
>  <meeko>  (16) 
{"free_energy": -8.34, "intermolecular_energy": -10.43, "internal_energy": -1.48, "cluster_size": 9, "cluster_id": 1, "rank_in_cluster": 9}

$$$$

     RDKit          3D

 44 46  0  0  0  0  0  0  0  0999 V2000
  138.7080   68.8810  225.2570 C   0  0  0  0  0  0  0  0  0  0  0  0
  139.1480   70.2900  224.9350 C   0  0  2  0  0  0  0  0  0  0  0  0
  139.9280   70.3350  223.7320 N   0  0  0  0  0  0  0  0  0  0  0  0
  139.8060   71.4760  222.9310 C   0  0  0  0  0  0  0  0  0  0  0  0
  138.6140   72.1680  222.9280 O   0  0  0  0  0  0  0  0  0  0  0  0
  140.8780   71.7880  222.2310 C   0  0  0  0  0  0  0  0  0  0  0  0
  140.8220   73.0650  221.6720 N   0  0  0  0  0  0  0  0  0  0  0  0
  140.7710   74.2570  221.1500 C   0  0  0  0  0  0  0  0  0  0  0  0
  141.2290   74.3720  219.9440 O   0  0  0  0  0  0  0  0  0  0  0  0
  140.2870   75.4600  221.7350 C   0  0  0  0  0  0  0  0  0  0  0  0
  138.8980   75.6380  221.7680 C   0  0  0  0  0  0  0  0  0  0  0  0
  138.3920   76.8070  222.2660 C   0  0  0  0  0  0  0  0  0  0  0  0
  139.2900   77.7470  222.7090 C   0  0  0  0  0  0  0  0  0  0  0  0
  138.8050   78.9150  223.2050 C   0  0  0  0  0  0  0  0  0  0  0  0
  139.6070   79.9220  223.6740 C   0  0  0  0  0  0  0  0  0  0  0  0
  139.1050   81.0760  224.1620 F   0  0  0  0  0  0  0  0  0  0  0  0
  140.9570   79.7540  223.6450 C   0  0  0  0  0  0  0  0  0  0  0  0
  141.4800   78.5840  223.1500 C   0  0  0  0  0  0  0  0  0  0  0  0
  140.6620   77.5800  222.6810 C   0  0  0  0  0  0  0  0  0  0  0  0
  141.0860   76.4230  222.1850 N   0  0  0  0  0  0  0  0  0  0  0  0
  139.9430   70.7380  226.1260 C   0  0  0  0  0  0  0  0  0  0  0  0
  140.7020   71.8830  226.1220 C   0  0  0  0  0  0  0  0  0  0  0  0
  141.4300   72.2940  227.2260 C   0  0  0  0  0  0  0  0  0  0  0  0
  141.3660   71.5000  228.3480 C   0  0  0  0  0  0  0  0  0  0  0  0
  140.5990   70.3400  228.3560 C   0  0  0  0  0  0  0  0  0  0  0  0
  139.8750   69.9300  227.2590 C   0  0  0  0  0  0  0  0  0  0  0  0
  138.6671   68.7500  226.3484 H   0  0  0  0  0  0  0  0  0  0  0  0
  137.7109   68.7013  224.8285 H   0  0  0  0  0  0  0  0  0  0  0  0
  139.4256   68.1658  224.8285 H   0  0  0  0  0  0  0  0  0  0  0  0
  138.2889   70.9517  224.7502 H   0  0  0  0  0  0  0  0  0  0  0  0
  140.5420   69.5070  223.5270 H   0  0  0  0  0  0  0  0  0  0  0  0
  138.4340   73.0120  223.4260 H   0  0  0  0  0  0  0  0  0  0  0  0
  141.7330   71.1084  222.1003 H   0  0  0  0  0  0  0  0  0  0  0  0
  141.9820   72.8240  221.0890 H   0  0  0  0  0  0  0  0  0  0  0  0
  138.2248   74.8501  221.3992 H   0  0  0  0  0  0  0  0  0  0  0  0
  137.3078   76.9873  222.3100 H   0  0  0  0  0  0  0  0  0  0  0  0
  137.7148   79.0594  223.2314 H   0  0  0  0  0  0  0  0  0  0  0  0
  141.6233   80.5475  224.0144 H   0  0  0  0  0  0  0  0  0  0  0  0
  142.5712   78.4466  223.1278 H   0  0  0  0  0  0  0  0  0  0  0  0
  140.7326   72.4955  225.2088 H   0  0  0  0  0  0  0  0  0  0  0  0
  142.0325   73.2141  227.2069 H   0  0  0  0  0  0  0  0  0  0  0  0
  141.9281   71.7862  229.2492 H   0  0  0  0  0  0  0  0  0  0  0  0
  140.5697   69.7290  229.2702 H   0  0  0  0  0  0  0  0  0  0  0  0
  139.2725   69.0098  227.2762 H   0  0  0  0  0  0  0  0  0  0  0  0
  1  2  1  0
  2  3  1  0
  3  4  1  0
  4  5  1  0
  4  6  2  0
  6  7  1  0
  7  8  1  0
  8  9  2  0
  8 10  1  0
 10 11  2  0
 11 12  1  0
 12 13  2  0
 13 14  1  0
 14 15  2  0
 15 16  1  0
 15 17  1  0
 17 18  2  0
 18 19  1  0
 19 20  2  0
  2 21  1  0
 21 22  2  0
 22 23  1  0
 23 24  2  0
 24 25  1  0
 25 26  2  0
 20 10  1  0
 26 21  1  0
 19 13  1  0
  1 27  1  0
  1 28  1  0
  1 29  1  0
  2 30  1  6
  3 31  1  0
  5 32  1  0
  6 33  1  0
  7 34  1  0
 11 35  1  0
 12 36  1  0
 14 37  1  0
 17 38  1  0
 18 39  1  0
 22 40  1  0
 23 41  1  0
 24 42  1  0
 25 43  1  0
 26 44  1  0
M  END
>  <meeko>  (17) 
{"free_energy": -7.29, "intermolecular_energy": -9.37, "internal_energy": -0.93, "cluster_size": 1, "cluster_id": 3, "rank_in_cluster": 1}

$$$$

     RDKit          3D

 44 46  0  0  0  0  0  0  0  0999 V2000
  142.7490   75.8460  219.1060 C   0  0  0  0  0  0  0  0  0  0  0  0
  142.4360   74.6070  219.9110 C   0  0  2  0  0  0  0  0  0  0  0  0
  141.8370   74.9360  221.1720 N   0  0  0  0  0  0  0  0  0  0  0  0
  140.8120   74.1020  221.6320 C   0  0  0  0  0  0  0  0  0  0  0  0
  139.7620   74.6560  222.3320 O   0  0  0  0  0  0  0  0  0  0  0  0
  140.9570   72.8240  221.3460 C   0  0  0  0  0  0  0  0  0  0  0  0
  140.0750   71.9970  222.0450 N   0  0  0  0  0  0  0  0  0  0  0  0
  139.2520   71.2270  222.6960 C   0  0  0  0  0  0  0  0  0  0  0  0
  138.0430   71.1680  222.2380 O   0  0  0  0  0  0  0  0  0  0  0  0
  139.5020   70.4460  223.8580 C   0  0  0  0  0  0  0  0  0  0  0  0
  139.0390   69.1230  223.8490 C   0  0  0  0  0  0  0  0  0  0  0  0
  139.2040   68.3560  224.9680 C   0  0  0  0  0  0  0  0  0  0  0  0
  139.8220   68.9370  226.0480 C   0  0  0  0  0  0  0  0  0  0  0  0
  139.9930   68.1900  227.1700 C   0  0  0  0  0  0  0  0  0  0  0  0
  140.5950   68.6660  228.3050 C   0  0  0  0  0  0  0  0  0  0  0  0
  140.7540   67.9070  229.4100 F   0  0  0  0  0  0  0  0  0  0  0  0
  141.0480   69.9490  228.3190 C   0  0  0  0  0  0  0  0  0  0  0  0
  140.8910   70.7320  227.2010 C   0  0  0  0  0  0  0  0  0  0  0  0
  140.2830   70.2400  226.0670 C   0  0  0  0  0  0  0  0  0  0  0  0
  140.0910   70.9300  224.9480 N   0  0  0  0  0  0  0  0  0  0  0  0
  143.7510   73.9080  220.0900 C   0  0  0  0  0  0  0  0  0  0  0  0
  144.8430   74.5180  220.6600 C   0  0  0  0  0  0  0  0  0  0  0  0
  146.0530   73.8660  220.8270 C   0  0  0  0  0  0  0  0  0  0  0  0
  146.1260   72.5630  220.3920 C   0  0  0  0  0  0  0  0  0  0  0  0
  145.0240   71.9420  219.8150 C   0  0  0  0  0  0  0  0  0  0  0  0
  143.8200   72.5880  219.6480 C   0  0  0  0  0  0  0  0  0  0  0  0
  142.9604   76.6827  219.7881 H   0  0  0  0  0  0  0  0  0  0  0  0
  143.6281   75.6589  218.4718 H   0  0  0  0  0  0  0  0  0  0  0  0
  141.8865   76.0988  218.4718 H   0  0  0  0  0  0  0  0  0  0  0  0
  141.7036   73.9654  219.3993 H   0  0  0  0  0  0  0  0  0  0  0  0
  142.2060   75.7850  221.6700 H   0  0  0  0  0  0  0  0  0  0  0  0
  139.1590   74.1640  222.9540 H   0  0  0  0  0  0  0  0  0  0  0  0
  141.6993   72.4458  220.6277 H   0  0  0  0  0  0  0  0  0  0  0  0
  139.1210   72.8810  221.8180 H   0  0  0  0  0  0  0  0  0  0  0  0
  138.5503   68.7085  222.9549 H   0  0  0  0  0  0  0  0  0  0  0  0
  138.8552   67.3133  225.0023 H   0  0  0  0  0  0  0  0  0  0  0  0
  139.6301   67.1516  227.1670 H   0  0  0  0  0  0  0  0  0  0  0  0
  141.5355   70.3556  229.2173 H   0  0  0  0  0  0  0  0  0  0  0  0
  141.2570   71.7693  227.2116 H   0  0  0  0  0  0  0  0  0  0  0  0
  144.7523   75.5616  220.9955 H   0  0  0  0  0  0  0  0  0  0  0  0
  146.9173   74.3675  221.2869 H   0  0  0  0  0  0  0  0  0  0  0  0
  147.0679   72.0055  220.5020 H   0  0  0  0  0  0  0  0  0  0  0  0
  145.1175   70.8983  219.4804 H   0  0  0  0  0  0  0  0  0  0  0  0
  142.9551   72.0872  219.1884 H   0  0  0  0  0  0  0  0  0  0  0  0
  1  2  1  0
  2  3  1  0
  3  4  1  0
  4  5  1  0
  4  6  2  0
  6  7  1  0
  7  8  1  0
  8  9  2  0
  8 10  1  0
 10 11  2  0
 11 12  1  0
 12 13  2  0
 13 14  1  0
 14 15  2  0
 15 16  1  0
 15 17  1  0
 17 18  2  0
 18 19  1  0
 19 20  2  0
  2 21  1  0
 21 22  2  0
 22 23  1  0
 23 24  2  0
 24 25  1  0
 25 26  2  0
 20 10  1  0
 26 21  1  0
 19 13  1  0
  1 27  1  0
  1 28  1  0
  1 29  1  0
  2 30  1  6
  3 31  1  0
  5 32  1  0
  6 33  1  0
  7 34  1  0
 11 35  1  0
 12 36  1  0
 14 37  1  0
 17 38  1  0
 18 39  1  0
 22 40  1  0
 23 41  1  0
 24 42  1  0
 25 43  1  0
 26 44  1  0
M  END
>  <meeko>  (18) 
{"free_energy": -8.39, "intermolecular_energy": -10.48, "internal_energy": -1.41, "cluster_size": 9, "cluster_id": 1, "rank_in_cluster": 6}

$$$$

     RDKit          3D

 44 46  0  0  0  0  0  0  0  0999 V2000
  142.7960   76.2750  219.2550 C   0  0  0  0  0  0  0  0  0  0  0  0
  142.3680   75.0260  219.9890 C   0  0  2  0  0  0  0  0  0  0  0  0
  141.7360   75.3400  221.2380 N   0  0  0  0  0  0  0  0  0  0  0  0
  140.5950   74.6080  221.5810 C   0  0  0  0  0  0  0  0  0  0  0  0
  139.5850   75.2310  222.2830 O   0  0  0  0  0  0  0  0  0  0  0  0
  140.5970   73.3490  221.1910 C   0  0  0  0  0  0  0  0  0  0  0  0
  139.8890   72.5040  222.0470 N   0  0  0  0  0  0  0  0  0  0  0  0
  139.2280   71.7150  222.8450 C   0  0  0  0  0  0  0  0  0  0  0  0
  138.0220   71.4180  222.4820 O   0  0  0  0  0  0  0  0  0  0  0  0
  139.6530   71.1440  224.0760 C   0  0  0  0  0  0  0  0  0  0  0  0
  140.5690   71.8810  224.8390 C   0  0  0  0  0  0  0  0  0  0  0  0
  141.0500   71.3410  225.9990 C   0  0  0  0  0  0  0  0  0  0  0  0
  140.5990   70.0920  226.3510 C   0  0  0  0  0  0  0  0  0  0  0  0
  141.0680   69.5400  227.5000 C   0  0  0  0  0  0  0  0  0  0  0  0
  140.6890   68.3020  227.9470 C   0  0  0  0  0  0  0  0  0  0  0  0
  141.1680   67.7700  229.0920 F   0  0  0  0  0  0  0  0  0  0  0  0
  139.7990   67.5820  227.2110 C   0  0  0  0  0  0  0  0  0  0  0  0
  139.3040   68.1120  226.0440 C   0  0  0  0  0  0  0  0  0  0  0  0
  139.6960   69.3580  225.6060 C   0  0  0  0  0  0  0  0  0  0  0  0
  139.2680   69.9400  224.4910 N   0  0  0  0  0  0  0  0  0  0  0  0
  143.6270   74.2350  220.1900 C   0  0  0  0  0  0  0  0  0  0  0  0
  144.8300   74.8230  220.5000 C   0  0  0  0  0  0  0  0  0  0  0  0
  145.9870   74.0880  220.6890 C   0  0  0  0  0  0  0  0  0  0  0  0
  145.8900   72.7220  220.5520 C   0  0  0  0  0  0  0  0  0  0  0  0
  144.6750   72.1230  220.2390 C   0  0  0  0  0  0  0  0  0  0  0  0
  143.5230   72.8530  220.0500 C   0  0  0  0  0  0  0  0  0  0  0  0
  143.0633   77.0549  219.9833 H   0  0  0  0  0  0  0  0  0  0  0  0
  143.6679   76.0487  218.6236 H   0  0  0  0  0  0  0  0  0  0  0  0
  141.9686   76.6310  218.6236 H   0  0  0  0  0  0  0  0  0  0  0  0
  141.6190   74.4565  219.4192 H   0  0  0  0  0  0  0  0  0  0  0  0
  142.1710   76.1030  221.8160 H   0  0  0  0  0  0  0  0  0  0  0  0
  139.1340   74.8660  223.0920 H   0  0  0  0  0  0  0  0  0  0  0  0
  141.1062   72.9989  220.2810 H   0  0  0  0  0  0  0  0  0  0  0  0
  138.8000   73.1980  221.7770 H   0  0  0  0  0  0  0  0  0  0  0  0
  140.8957   72.8783  224.5095 H   0  0  0  0  0  0  0  0  0  0  0  0
  141.7707   71.8857  226.6266 H   0  0  0  0  0  0  0  0  0  0  0  0
  141.7875   70.1154  228.1010 H   0  0  0  0  0  0  0  0  0  0  0  0
  139.4789   66.5848  227.5474 H   0  0  0  0  0  0  0  0  0  0  0  0
  138.5828   67.5319  225.4496 H   0  0  0  0  0  0  0  0  0  0  0  0
  144.8746   75.9174  220.6015 H   0  0  0  0  0  0  0  0  0  0  0  0
  146.9420   74.5739  220.9377 H   0  0  0  0  0  0  0  0  0  0  0  0
  146.7842   72.0968  220.6918 H   0  0  0  0  0  0  0  0  0  0  0  0
  144.6326   71.0284  220.1389 H   0  0  0  0  0  0  0  0  0  0  0  0
  142.5674   72.3686  219.8007 H   0  0  0  0  0  0  0  0  0  0  0  0
  1  2  1  0
  2  3  1  0
  3  4  1  0
  4  5  1  0
  4  6  2  0
  6  7  1  0
  7  8  1  0
  8  9  2  0
  8 10  1  0
 10 11  2  0
 11 12  1  0
 12 13  2  0
 13 14  1  0
 14 15  2  0
 15 16  1  0
 15 17  1  0
 17 18  2  0
 18 19  1  0
 19 20  2  0
  2 21  1  0
 21 22  2  0
 22 23  1  0
 23 24  2  0
 24 25  1  0
 25 26  2  0
 20 10  1  0
 26 21  1  0
 19 13  1  0
  1 27  1  0
  1 28  1  0
  1 29  1  0
  2 30  1  6
  3 31  1  0
  5 32  1  0
  6 33  1  0
  7 34  1  0
 11 35  1  0
 12 36  1  0
 14 37  1  0
 17 38  1  0
 18 39  1  0
 22 40  1  0
 23 41  1  0
 24 42  1  0
 25 43  1  0
 26 44  1  0
M  END
>  <meeko>  (19) 
{"free_energy": -8.4, "intermolecular_energy": -10.48, "internal_energy": -1.45, "cluster_size": 9, "cluster_id": 1, "rank_in_cluster": 5}

$$$$

     RDKit          3D

 44 46  0  0  0  0  0  0  0  0999 V2000
  139.6720   77.1980  220.6790 C   0  0  0  0  0  0  0  0  0  0  0  0
  141.1440   77.0640  220.9940 C   0  0  2  0  0  0  0  0  0  0  0  0
  141.4270   75.8290  221.6650 N   0  0  0  0  0  0  0  0  0  0  0  0
  140.3520   74.9660  221.9030 C   0  0  0  0  0  0  0  0  0  0  0  0
  139.3080   75.3990  222.6920 O   0  0  0  0  0  0  0  0  0  0  0  0
  140.4460   73.7810  221.3340 C   0  0  0  0  0  0  0  0  0  0  0  0
  139.7090   72.7930  221.9880 N   0  0  0  0  0  0  0  0  0  0  0  0
  139.0200   71.8720  222.5970 C   0  0  0  0  0  0  0  0  0  0  0  0
  137.8230   71.6650  222.1500 O   0  0  0  0  0  0  0  0  0  0  0  0
  139.4050   71.0650  223.7040 C   0  0  0  0  0  0  0  0  0  0  0  0
  139.1470   69.6910  223.6110 C   0  0  0  0  0  0  0  0  0  0  0  0
  139.4440   68.8870  224.6760 C   0  0  0  0  0  0  0  0  0  0  0  0
  139.9850   69.4860  225.7880 C   0  0  0  0  0  0  0  0  0  0  0  0
  140.2860   68.7030  226.8570 C   0  0  0  0  0  0  0  0  0  0  0  0
  140.8270   69.1910  228.0160 C   0  0  0  0  0  0  0  0  0  0  0  0
  141.1180   68.3960  229.0690 F   0  0  0  0  0  0  0  0  0  0  0  0
  141.0810   70.5250  228.1120 C   0  0  0  0  0  0  0  0  0  0  0  0
  140.7890   71.3450  227.0490 C   0  0  0  0  0  0  0  0  0  0  0  0
  140.2440   70.8400  225.8900 C   0  0  0  0  0  0  0  0  0  0  0  0
  139.9310   71.5620  224.8190 N   0  0  0  0  0  0  0  0  0  0  0  0
  141.4740   78.2490  221.8530 C   0  0  0  0  0  0  0  0  0  0  0  0
  141.4420   78.2000  223.2260 C   0  0  0  0  0  0  0  0  0  0  0  0
  141.7520   79.2950  224.0140 C   0  0  0  0  0  0  0  0  0  0  0  0
  142.0990   80.4560  223.3620 C   0  0  0  0  0  0  0  0  0  0  0  0
  142.1330   80.5100  221.9730 C   0  0  0  0  0  0  0  0  0  0  0  0
  141.8240   79.4210  221.1880 C   0  0  0  0  0  0  0  0  0  0  0  0
  139.0996   77.2501  221.6169 H   0  0  0  0  0  0  0  0  0  0  0  0
  139.5039   78.1152  220.0954 H   0  0  0  0  0  0  0  0  0  0  0  0
  139.3411   76.3263  220.0954 H   0  0  0  0  0  0  0  0  0  0  0  0
  141.7555   77.0452  220.0799 H   0  0  0  0  0  0  0  0  0  0  0  0
  142.4270   75.6500  221.9380 H   0  0  0  0  0  0  0  0  0  0  0  0
  138.6000   74.8170  223.0820 H   0  0  0  0  0  0  0  0  0  0  0  0
  141.0463   73.5896  220.4323 H   0  0  0  0  0  0  0  0  0  0  0  0
  138.6320   73.5400  221.8290 H   0  0  0  0  0  0  0  0  0  0  0  0
  138.7119   69.2655  222.6946 H   0  0  0  0  0  0  0  0  0  0  0  0
  139.2573   67.8034  224.6440 H   0  0  0  0  0  0  0  0  0  0  0  0
  140.0850   67.6237  226.7877 H   0  0  0  0  0  0  0  0  0  0  0  0
  141.5160   70.9425  229.0321 H   0  0  0  0  0  0  0  0  0  0  0  0
  140.9941   72.4230  227.1252 H   0  0  0  0  0  0  0  0  0  0  0  0
  141.1599   77.2567  223.7164 H   0  0  0  0  0  0  0  0  0  0  0  0
  141.7223   79.2395  225.1122 H   0  0  0  0  0  0  0  0  0  0  0  0
  142.3526   81.3525  223.9468 H   0  0  0  0  0  0  0  0  0  0  0  0
  142.4161   81.4541  221.4846 H   0  0  0  0  0  0  0  0  0  0  0  0
  141.8524   79.4748  220.0897 H   0  0  0  0  0  0  0  0  0  0  0  0
  1  2  1  0
  2  3  1  0
  3  4  1  0
  4  5  1  0
  4  6  2  0
  6  7  1  0
  7  8  1  0
  8  9  2  0
  8 10  1  0
 10 11  2  0
 11 12  1  0
 12 13  2  0
 13 14  1  0
 14 15  2  0
 15 16  1  0
 15 17  1  0
 17 18  2  0
 18 19  1  0
 19 20  2  0
  2 21  1  0
 21 22  2  0
 22 23  1  0
 23 24  2  0
 24 25  1  0
 25 26  2  0
 20 10  1  0
 26 21  1  0
 19 13  1  0
  1 27  1  0
  1 28  1  0
  1 29  1  0
  2 30  1  6
  3 31  1  0
  5 32  1  0
  6 33  1  0
  7 34  1  0
 11 35  1  0
 12 36  1  0
 14 37  1  0
 17 38  1  0
 18 39  1  0
 22 40  1  0
 23 41  1  0
 24 42  1  0
 25 43  1  0
 26 44  1  0
M  END
>  <meeko>  (20) 
{"free_energy": -8.42, "intermolecular_energy": -10.51, "internal_energy": -1.29, "cluster_size": 10, "cluster_id": 2, "rank_in_cluster": 6}

$$$$
