
     RDKit          3D

 49 52  0  0  0  0  0  0  0  0999 V2000
  138.3630   71.9600  221.1650 O   0  0  0  0  0  0  0  0  0  0  0  0
  139.2070   72.3120  222.2240 C   0  0  0  0  0  0  0  0  0  0  0  0
  139.8100   73.4650  222.2780 N   0  0  0  0  0  0  0  0  0  0  0  0
  141.0990   73.8000  221.7500 C   0  0  0  0  0  0  0  0  0  0  0  0
  141.4670   73.3440  220.5480 C   0  0  0  0  0  0  0  0  0  0  0  0
  140.5310   72.7370  219.7090 O   0  0  0  0  0  0  0  0  0  0  0  0
  142.8270   73.4490  220.1100 N   0  0  0  0  0  0  0  0  0  0  0  0
  143.5660   72.3230  219.5640 C   0  0  0  0  0  0  0  0  0  0  0  0
  144.9940   72.8340  219.3570 C   0  0  2  0  0  0  0  0  0  0  0  0
  145.9590   71.8870  219.7430 O   0  0  0  0  0  0  0  0  0  0  0  0
  145.1050   74.1400  220.1590 C   0  0  0  0  0  0  0  0  0  0  0  0
  143.6650   74.5980  220.4190 C   0  0  1  0  0  0  0  0  0  0  0  0
  143.2790   75.7760  219.5460 C   0  0  0  0  0  0  0  0  0  0  0  0
  143.6450   75.7980  218.1900 C   0  0  0  0  0  0  0  0  0  0  0  0
  143.2950   76.8840  217.3810 C   0  0  0  0  0  0  0  0  0  0  0  0
  142.5750   77.9550  217.9180 C   0  0  0  0  0  0  0  0  0  0  0  0
  142.2000   77.9410  219.2640 C   0  0  0  0  0  0  0  0  0  0  0  0
  142.5460   76.8570  220.0740 C   0  0  0  0  0  0  0  0  0  0  0  0
  139.4280   71.3510  223.3200 C   0  0  0  0  0  0  0  0  0  0  0  0
  139.0780   69.9980  223.1840 C   0  0  0  0  0  0  0  0  0  0  0  0
  139.3180   69.1140  224.2380 C   0  0  0  0  0  0  0  0  0  0  0  0
  139.9060   69.5780  225.4200 C   0  0  0  0  0  0  0  0  0  0  0  0
  140.1650   68.7150  226.4950 C   0  0  0  0  0  0  0  0  0  0  0  0
  140.7580   69.2110  227.6630 C   0  0  0  0  0  0  0  0  0  0  0  0
  141.0820   68.1320  229.0070 Cl  0  0  0  0  0  0  0  0  0  0  0  0
  141.0930   70.5670  227.7590 C   0  0  0  0  0  0  0  0  0  0  0  0
  140.8370   71.4330  226.6920 C   0  0  0  0  0  0  0  0  0  0  0  0
  140.2450   70.9450  225.5220 C   0  0  0  0  0  0  0  0  0  0  0  0
  139.9970   71.7830  224.4810 N   0  0  0  0  0  0  0  0  0  0  0  0
  138.6900   71.6630  220.2570 H   0  0  0  0  0  0  0  0  0  0  0  0
  141.7854   74.4318  222.3329 H   0  0  0  0  0  0  0  0  0  0  0  0
  139.5340   72.8300  219.8610 H   0  0  0  0  0  0  0  0  0  0  0  0
  143.5580   71.4792  220.2696 H   0  0  0  0  0  0  0  0  0  0  0  0
  143.1221   71.9596  218.6254 H   0  0  0  0  0  0  0  0  0  0  0  0
  145.1936   73.0142  218.2904 H   0  0  0  0  0  0  0  0  0  0  0  0
  145.8790   71.7520  220.7250 H   0  0  0  0  0  0  0  0  0  0  0  0
  145.6272   73.9613  221.1105 H   0  0  0  0  0  0  0  0  0  0  0  0
  145.6783   74.9024  219.6113 H   0  0  0  0  0  0  0  0  0  0  0  0
  143.5469   74.9361  221.4591 H   0  0  0  0  0  0  0  0  0  0  0  0
  144.2099   74.9567  217.7621 H   0  0  0  0  0  0  0  0  0  0  0  0
  143.5868   76.8953  216.3205 H   0  0  0  0  0  0  0  0  0  0  0  0
  142.3034   78.8094  217.2806 H   0  0  0  0  0  0  0  0  0  0  0  0
  141.6323   78.7836  219.6856 H   0  0  0  0  0  0  0  0  0  0  0  0
  142.2440   76.8473  221.1317 H   0  0  0  0  0  0  0  0  0  0  0  0
  138.6175   69.6366  222.2527 H   0  0  0  0  0  0  0  0  0  0  0  0
  139.0449   68.0530  224.1391 H   0  0  0  0  0  0  0  0  0  0  0  0
  139.9026   67.6493  226.4208 H   0  0  0  0  0  0  0  0  0  0  0  0
  141.5595   70.9524  228.6776 H   0  0  0  0  0  0  0  0  0  0  0  0
  141.1009   72.4979  226.7722 H   0  0  0  0  0  0  0  0  0  0  0  0
  1  2  1  0
  2  3  2  0
  3  4  1  0
  4  5  2  0
  5  6  1  0
  5  7  1  0
  7  8  1  0
  8  9  1  0
  9 10  1  0
  9 11  1  0
 11 12  1  0
 12 13  1  0
 13 14  2  0
 14 15  1  0
 15 16  2  0
 16 17  1  0
 17 18  2  0
  2 19  1  0
 19 20  2  0
 20 21  1  0
 21 22  2  0
 22 23  1  0
 23 24  2  0
 24 25  1  0
 24 26  1  0
 26 27  2  0
 27 28  1  0
 28 29  2  0
 12  7  1  0
 18 13  1  0
 29 19  1  0
 28 22  1  0
  1 30  1  0
  4 31  1  0
  6 32  1  0
  8 33  1  0
  8 34  1  0
  9 35  1  6
 10 36  1  0
 11 37  1  0
 11 38  1  0
 12 39  1  1
 14 40  1  0
 15 41  1  0
 16 42  1  0
 17 43  1  0
 18 44  1  0
 20 45  1  0
 21 46  1  0
 23 47  1  0
 26 48  1  0
 27 49  1  0
M  END
>  <meeko>  (1) 
{"free_energy": -7.43, "intermolecular_energy": -10.12, "internal_energy": -2.41, "cluster_size": 5, "cluster_id": 3, "rank_in_cluster": 4}

$$$$

     RDKit          3D

 49 52  0  0  0  0  0  0  0  0999 V2000
  138.6550   73.5180  222.3520 O   0  0  0  0  0  0  0  0  0  0  0  0
  139.7050   72.5950  222.3080 C   0  0  0  0  0  0  0  0  0  0  0  0
  140.5790   72.5830  221.3440 N   0  0  0  0  0  0  0  0  0  0  0  0
  141.6070   73.5480  221.0860 C   0  0  0  0  0  0  0  0  0  0  0  0
  141.2860   74.7510  220.6030 C   0  0  0  0  0  0  0  0  0  0  0  0
  140.0390   75.3120  220.8810 O   0  0  0  0  0  0  0  0  0  0  0  0
  142.2040   75.4770  219.7750 N   0  0  0  0  0  0  0  0  0  0  0  0
  142.2000   76.9270  219.6830 C   0  0  0  0  0  0  0  0  0  0  0  0
  143.2310   77.2690  218.6040 C   0  0  2  0  0  0  0  0  0  0  0  0
  142.7870   78.2950  217.7510 O   0  0  0  0  0  0  0  0  0  0  0  0
  143.5130   75.9630  217.8470 C   0  0  0  0  0  0  0  0  0  0  0  0
  143.0250   74.8330  218.7610 C   0  0  1  0  0  0  0  0  0  0  0  0
  144.1780   74.0950  219.4140 C   0  0  0  0  0  0  0  0  0  0  0  0
  144.5630   72.8300  218.9390 C   0  0  0  0  0  0  0  0  0  0  0  0
  145.6230   72.1420  219.5390 C   0  0  0  0  0  0  0  0  0  0  0  0
  146.3090   72.7130  220.6150 C   0  0  0  0  0  0  0  0  0  0  0  0
  145.9380   73.9730  221.0920 C   0  0  0  0  0  0  0  0  0  0  0  0
  144.8810   74.6640  220.4930 C   0  0  0  0  0  0  0  0  0  0  0  0
  139.8320   71.5970  223.3860 C   0  0  0  0  0  0  0  0  0  0  0  0
  139.4510   70.2600  223.1870 C   0  0  0  0  0  0  0  0  0  0  0  0
  139.6010   69.3380  224.2260 C   0  0  0  0  0  0  0  0  0  0  0  0
  140.1310   69.7490  225.4540 C   0  0  0  0  0  0  0  0  0  0  0  0
  140.2990   68.8480  226.5160 C   0  0  0  0  0  0  0  0  0  0  0  0
  140.8360   69.2910  227.7310 C   0  0  0  0  0  0  0  0  0  0  0  0
  141.0470   68.1640  229.0580 Cl  0  0  0  0  0  0  0  0  0  0  0  0
  141.2050   70.6330  227.8890 C   0  0  0  0  0  0  0  0  0  0  0  0
  141.0390   71.5360  226.8350 C   0  0  0  0  0  0  0  0  0  0  0  0
  140.5030   71.1010  225.6180 C   0  0  0  0  0  0  0  0  0  0  0  0
  140.3430   71.9760  224.5900 N   0  0  0  0  0  0  0  0  0  0  0  0
  138.7460   74.4630  222.6970 H   0  0  0  0  0  0  0  0  0  0  0  0
  142.6594   73.2979  221.2857 H   0  0  0  0  0  0  0  0  0  0  0  0
  139.2330   74.7420  221.1120 H   0  0  0  0  0  0  0  0  0  0  0  0
  141.2036   77.2914  219.3925 H   0  0  0  0  0  0  0  0  0  0  0  0
  142.4443   77.3986  220.6463 H   0  0  0  0  0  0  0  0  0  0  0  0
  144.1532   77.6631  219.0560 H   0  0  0  0  0  0  0  0  0  0  0  0
  143.5880   78.7180  217.3400 H   0  0  0  0  0  0  0  0  0  0  0  0
  142.9647   75.9475  216.8935 H   0  0  0  0  0  0  0  0  0  0  0  0
  144.5818   75.8569  217.6095 H   0  0  0  0  0  0  0  0  0  0  0  0
  142.4668   74.0807  218.1844 H   0  0  0  0  0  0  0  0  0  0  0  0
  144.0280   72.3782  218.0907 H   0  0  0  0  0  0  0  0  0  0  0  0
  145.9170   71.1507  219.1638 H   0  0  0  0  0  0  0  0  0  0  0  0
  147.1414   72.1701  221.0865 H   0  0  0  0  0  0  0  0  0  0  0  0
  146.4780   74.4211  221.9391 H   0  0  0  0  0  0  0  0  0  0  0  0
  144.5966   75.6586  220.8669 H   0  0  0  0  0  0  0  0  0  0  0  0
  139.0371   69.9407  222.2192 H   0  0  0  0  0  0  0  0  0  0  0  0
  139.3026   68.2895  224.0787 H   0  0  0  0  0  0  0  0  0  0  0  0
  140.0090   67.7939  226.3944 H   0  0  0  0  0  0  0  0  0  0  0  0
  141.6265   70.9771  228.8450 H   0  0  0  0  0  0  0  0  0  0  0  0
  141.3299   72.5892  226.9624 H   0  0  0  0  0  0  0  0  0  0  0  0
  1  2  1  0
  2  3  2  0
  3  4  1  0
  4  5  2  0
  5  6  1  0
  5  7  1  0
  7  8  1  0
  8  9  1  0
  9 10  1  0
  9 11  1  0
 11 12  1  0
 12 13  1  0
 13 14  2  0
 14 15  1  0
 15 16  2  0
 16 17  1  0
 17 18  2  0
  2 19  1  0
 19 20  2  0
 20 21  1  0
 21 22  2  0
 22 23  1  0
 23 24  2  0
 24 25  1  0
 24 26  1  0
 26 27  2  0
 27 28  1  0
 28 29  2  0
 12  7  1  0
 18 13  1  0
 29 19  1  0
 28 22  1  0
  1 30  1  0
  4 31  1  0
  6 32  1  0
  8 33  1  0
  8 34  1  0
  9 35  1  1
 10 36  1  0
 11 37  1  0
 11 38  1  0
 12 39  1  6
 14 40  1  0
 15 41  1  0
 16 42  1  0
 17 43  1  0
 18 44  1  0
 20 45  1  0
 21 46  1  0
 23 47  1  0
 26 48  1  0
 27 49  1  0
M  END
>  <meeko>  (2) 
{"free_energy": -7.6, "intermolecular_energy": -10.29, "internal_energy": -2.22, "cluster_size": 10, "cluster_id": 1, "rank_in_cluster": 9}

$$$$

     RDKit          3D

 49 52  0  0  0  0  0  0  0  0999 V2000
  137.7750   72.9750  222.2950 O   0  0  0  0  0  0  0  0  0  0  0  0
  138.8030   72.0400  222.1340 C   0  0  0  0  0  0  0  0  0  0  0  0
  139.4930   71.9480  221.0330 N   0  0  0  0  0  0  0  0  0  0  0  0
  140.4960   72.8530  220.5550 C   0  0  0  0  0  0  0  0  0  0  0  0
  140.6430   74.0500  221.1310 C   0  0  0  0  0  0  0  0  0  0  0  0
  139.9760   74.3460  222.3200 O   0  0  0  0  0  0  0  0  0  0  0  0
  141.4710   75.0550  220.5310 N   0  0  0  0  0  0  0  0  0  0  0  0
  141.3150   76.4720  220.8140 C   0  0  0  0  0  0  0  0  0  0  0  0
  142.2920   77.1840  219.8740 C   0  0  2  0  0  0  0  0  0  0  0  0
  141.7330   78.3430  219.3060 O   0  0  0  0  0  0  0  0  0  0  0  0
  142.6980   76.1520  218.8110 C   0  0  0  0  0  0  0  0  0  0  0  0
  142.3410   74.7810  219.3980 C   0  0  1  0  0  0  0  0  0  0  0  0
  143.5720   74.0230  219.8550 C   0  0  0  0  0  0  0  0  0  0  0  0
  144.6350   74.7100  220.4660 C   0  0  0  0  0  0  0  0  0  0  0  0
  145.7750   74.0160  220.8870 C   0  0  0  0  0  0  0  0  0  0  0  0
  145.8610   72.6330  220.7050 C   0  0  0  0  0  0  0  0  0  0  0  0
  144.8080   71.9400  220.1040 C   0  0  0  0  0  0  0  0  0  0  0  0
  143.6670   72.6290  219.6840 C   0  0  0  0  0  0  0  0  0  0  0  0
  139.1220   71.1200  223.2420 C   0  0  0  0  0  0  0  0  0  0  0  0
  138.8080   69.7530  223.1660 C   0  0  0  0  0  0  0  0  0  0  0  0
  139.1390   68.9100  224.2290 C   0  0  0  0  0  0  0  0  0  0  0  0
  139.7830   69.4280  225.3580 C   0  0  0  0  0  0  0  0  0  0  0  0
  140.1340   68.6070  226.4400 C   0  0  0  0  0  0  0  0  0  0  0  0
  140.7810   69.1560  227.5540 C   0  0  0  0  0  0  0  0  0  0  0  0
  141.2210   68.1300  228.9070 Cl  0  0  0  0  0  0  0  0  0  0  0  0
  141.0770   70.5240  227.5900 C   0  0  0  0  0  0  0  0  0  0  0  0
  140.7290   71.3480  226.5160 C   0  0  0  0  0  0  0  0  0  0  0  0
  140.0830   70.8060  225.4000 C   0  0  0  0  0  0  0  0  0  0  0  0
  139.7460   71.6040  224.3520 N   0  0  0  0  0  0  0  0  0  0  0  0
  137.8930   73.8730  222.7420 H   0  0  0  0  0  0  0  0  0  0  0  0
  141.1442   72.5628  219.7150 H   0  0  0  0  0  0  0  0  0  0  0  0
  139.7130   73.6260  222.9830 H   0  0  0  0  0  0  0  0  0  0  0  0
  140.2827   76.7936  220.6117 H   0  0  0  0  0  0  0  0  0  0  0  0
  141.5204   76.7035  221.8695 H   0  0  0  0  0  0  0  0  0  0  0  0
  143.1741   77.5417  220.4253 H   0  0  0  0  0  0  0  0  0  0  0  0
  142.4800   78.9230  219.0000 H   0  0  0  0  0  0  0  0  0  0  0  0
  142.1421   76.3251  217.8777 H   0  0  0  0  0  0  0  0  0  0  0  0
  143.7689   76.2213  218.5692 H   0  0  0  0  0  0  0  0  0  0  0  0
  141.8559   74.1482  218.6402 H   0  0  0  0  0  0  0  0  0  0  0  0
  144.5706   75.7981  220.6140 H   0  0  0  0  0  0  0  0  0  0  0  0
  146.6048   74.5600  221.3619 H   0  0  0  0  0  0  0  0  0  0  0  0
  146.7587   72.0899  221.0354 H   0  0  0  0  0  0  0  0  0  0  0  0
  144.8767   70.8515  219.9612 H   0  0  0  0  0  0  0  0  0  0  0  0
  142.8375   72.0782  219.2166 H   0  0  0  0  0  0  0  0  0  0  0  0
  138.3047   69.3492  222.2751 H   0  0  0  0  0  0  0  0  0  0  0  0
  138.8935   67.8389  224.1787 H   0  0  0  0  0  0  0  0  0  0  0  0
  139.9011   67.5323  226.4134 H   0  0  0  0  0  0  0  0  0  0  0  0
  141.5853   70.9518  228.4667 H   0  0  0  0  0  0  0  0  0  0  0  0
  140.9631   72.4223  226.5484 H   0  0  0  0  0  0  0  0  0  0  0  0
  1  2  1  0
  2  3  2  0
  3  4  1  0
  4  5  2  0
  5  6  1  0
  5  7  1  0
  7  8  1  0
  8  9  1  0
  9 10  1  0
  9 11  1  0
 11 12  1  0
 12 13  1  0
 13 14  2  0
 14 15  1  0
 15 16  2  0
 16 17  1  0
 17 18  2  0
  2 19  1  0
 19 20  2  0
 20 21  1  0
 21 22  2  0
 22 23  1  0
 23 24  2  0
 24 25  1  0
 24 26  1  0
 26 27  2  0
 27 28  1  0
 28 29  2  0
 12  7  1  0
 18 13  1  0
 29 19  1  0
 28 22  1  0
  1 30  1  0
  4 31  1  0
  6 32  1  0
  8 33  1  0
  8 34  1  0
  9 35  1  1
 10 36  1  0
 11 37  1  0
 11 38  1  0
 12 39  1  6
 14 40  1  0
 15 41  1  0
 16 42  1  0
 17 43  1  0
 18 44  1  0
 20 45  1  0
 21 46  1  0
 23 47  1  0
 26 48  1  0
 27 49  1  0
M  END
>  <meeko>  (3) 
{"free_energy": -8.11, "intermolecular_energy": -10.8, "internal_energy": -2.35, "cluster_size": 10, "cluster_id": 1, "rank_in_cluster": 7}

$$$$

     RDKit          3D

 49 52  0  0  0  0  0  0  0  0999 V2000
  138.1140   73.2540  222.1880 O   0  0  0  0  0  0  0  0  0  0  0  0
  138.8460   72.0850  221.9580 C   0  0  0  0  0  0  0  0  0  0  0  0
  139.3040   71.7730  220.7800 N   0  0  0  0  0  0  0  0  0  0  0  0
  140.5470   72.1790  220.1910 C   0  0  0  0  0  0  0  0  0  0  0  0
  141.3590   73.0070  220.8550 C   0  0  0  0  0  0  0  0  0  0  0  0
  140.9150   73.6580  222.0060 O   0  0  0  0  0  0  0  0  0  0  0  0
  142.6910   73.2570  220.3860 N   0  0  0  0  0  0  0  0  0  0  0  0
  143.5050   72.2340  219.7510 C   0  0  0  0  0  0  0  0  0  0  0  0
  144.8760   72.8810  219.5380 C   0  0  2  0  0  0  0  0  0  0  0  0
  145.9310   72.0000  219.8380 O   0  0  0  0  0  0  0  0  0  0  0  0
  144.9010   74.1400  220.4160 C   0  0  0  0  0  0  0  0  0  0  0  0
  143.4370   74.4540  220.7430 C   0  0  1  0  0  0  0  0  0  0  0  0
  142.9230   75.6440  219.9570 C   0  0  0  0  0  0  0  0  0  0  0  0
  141.8850   76.4360  220.4750 C   0  0  0  0  0  0  0  0  0  0  0  0
  141.4040   77.5330  219.7520 C   0  0  0  0  0  0  0  0  0  0  0  0
  141.9580   77.8500  218.5080 C   0  0  0  0  0  0  0  0  0  0  0  0
  142.9950   77.0730  217.9860 C   0  0  0  0  0  0  0  0  0  0  0  0
  143.4790   75.9780  218.7060 C   0  0  0  0  0  0  0  0  0  0  0  0
  139.1120   71.1670  223.0810 C   0  0  0  0  0  0  0  0  0  0  0  0
  138.6880   69.8290  223.0420 C   0  0  0  0  0  0  0  0  0  0  0  0
  138.9710   68.9840  224.1180 C   0  0  0  0  0  0  0  0  0  0  0  0
  139.6760   69.4740  225.2240 C   0  0  0  0  0  0  0  0  0  0  0  0
  139.9800   68.6510  226.3180 C   0  0  0  0  0  0  0  0  0  0  0  0
  140.6900   69.1710  227.4080 C   0  0  0  0  0  0  0  0  0  0  0  0
  141.0710   68.1420  228.7770 Cl  0  0  0  0  0  0  0  0  0  0  0  0
  141.0940   70.5110  227.4080 C   0  0  0  0  0  0  0  0  0  0  0  0
  140.7930   71.3370  226.3210 C   0  0  0  0  0  0  0  0  0  0  0  0
  140.0850   70.8240  225.2290 C   0  0  0  0  0  0  0  0  0  0  0  0
  139.7930   71.6240  224.1690 N   0  0  0  0  0  0  0  0  0  0  0  0
  138.4040   73.9890  222.8180 H   0  0  0  0  0  0  0  0  0  0  0  0
  140.8314   71.8096  219.1947 H   0  0  0  0  0  0  0  0  0  0  0  0
  140.2940   73.2100  222.6700 H   0  0  0  0  0  0  0  0  0  0  0  0
  143.5925   71.3521  220.4026 H   0  0  0  0  0  0  0  0  0  0  0  0
  143.0637   71.8886  218.8045 H   0  0  0  0  0  0  0  0  0  0  0  0
  145.0241   73.1428  218.4799 H   0  0  0  0  0  0  0  0  0  0  0  0
  145.9320   71.8470  220.8200 H   0  0  0  0  0  0  0  0  0  0  0  0
  145.4672   73.9508  221.3399 H   0  0  0  0  0  0  0  0  0  0  0  0
  145.3890   74.9811  219.9017 H   0  0  0  0  0  0  0  0  0  0  0  0
  143.3246   74.7177  221.8050 H   0  0  0  0  0  0  0  0  0  0  0  0
  141.4478   76.1924  221.4546 H   0  0  0  0  0  0  0  0  0  0  0  0
  140.5889   78.1469  220.1628 H   0  0  0  0  0  0  0  0  0  0  0  0
  141.5771   78.7116  217.9401 H   0  0  0  0  0  0  0  0  0  0  0  0
  143.4307   77.3235  217.0075 H   0  0  0  0  0  0  0  0  0  0  0  0
  144.2996   75.3725  218.2936 H   0  0  0  0  0  0  0  0  0  0  0  0
  138.1364   69.4485  222.1697 H   0  0  0  0  0  0  0  0  0  0  0  0
  138.6404   67.9351  224.0963 H   0  0  0  0  0  0  0  0  0  0  0  0
  139.6613   67.5982  226.3203 H   0  0  0  0  0  0  0  0  0  0  0  0
  141.6503   70.9157  228.2663 H   0  0  0  0  0  0  0  0  0  0  0  0
  141.1127   72.3895  226.3244 H   0  0  0  0  0  0  0  0  0  0  0  0
  1  2  1  0
  2  3  2  0
  3  4  1  0
  4  5  2  0
  5  6  1  0
  5  7  1  0
  7  8  1  0
  8  9  1  0
  9 10  1  0
  9 11  1  0
 11 12  1  0
 12 13  1  0
 13 14  2  0
 14 15  1  0
 15 16  2  0
 16 17  1  0
 17 18  2  0
  2 19  1  0
 19 20  2  0
 20 21  1  0
 21 22  2  0
 22 23  1  0
 23 24  2  0
 24 25  1  0
 24 26  1  0
 26 27  2  0
 27 28  1  0
 28 29  2  0
 12  7  1  0
 18 13  1  0
 29 19  1  0
 28 22  1  0
  1 30  1  0
  4 31  1  0
  6 32  1  0
  8 33  1  0
  8 34  1  0
  9 35  1  6
 10 36  1  0
 11 37  1  0
 11 38  1  0
 12 39  1  1
 14 40  1  0
 15 41  1  0
 16 42  1  0
 17 43  1  0
 18 44  1  0
 20 45  1  0
 21 46  1  0
 23 47  1  0
 26 48  1  0
 27 49  1  0
M  END
>  <meeko>  (4) 
{"free_energy": -7.84, "intermolecular_energy": -10.52, "internal_energy": -2.16, "cluster_size": 5, "cluster_id": 3, "rank_in_cluster": 2}

$$$$

     RDKit          3D

 49 52  0  0  0  0  0  0  0  0999 V2000
  138.4660   73.3490  222.0160 O   0  0  0  0  0  0  0  0  0  0  0  0
  139.7350   72.9400  222.4400 C   0  0  0  0  0  0  0  0  0  0  0  0
  140.8280   73.4610  221.9630 N   0  0  0  0  0  0  0  0  0  0  0  0
  140.9830   74.7390  221.3340 C   0  0  0  0  0  0  0  0  0  0  0  0
  140.1350   75.7310  221.6220 C   0  0  0  0  0  0  0  0  0  0  0  0
  139.3020   75.6430  222.7380 O   0  0  0  0  0  0  0  0  0  0  0  0
  140.0510   76.8900  220.7830 N   0  0  0  0  0  0  0  0  0  0  0  0
  138.8890   77.1800  219.9600 C   0  0  0  0  0  0  0  0  0  0  0  0
  139.2710   78.4140  219.1380 C   0  0  2  0  0  0  0  0  0  0  0  0
  138.8440   78.3160  217.8010 O   0  0  0  0  0  0  0  0  0  0  0  0
  140.7970   78.5540  219.2520 C   0  0  0  0  0  0  0  0  0  0  0  0
  141.2050   77.7200  220.4720 C   0  0  1  0  0  0  0  0  0  0  0  0
  141.5570   78.5920  221.6620 C   0  0  0  0  0  0  0  0  0  0  0  0
  141.2910   78.1440  222.9670 C   0  0  0  0  0  0  0  0  0  0  0  0
  141.6100   78.9460  224.0680 C   0  0  0  0  0  0  0  0  0  0  0  0
  142.2010   80.1980  223.8760 C   0  0  0  0  0  0  0  0  0  0  0  0
  142.4760   80.6500  222.5830 C   0  0  0  0  0  0  0  0  0  0  0  0
  142.1600   79.8520  221.4810 C   0  0  0  0  0  0  0  0  0  0  0  0
  139.8470   71.8810  223.4600 C   0  0  0  0  0  0  0  0  0  0  0  0
  139.4810   70.5550  223.1760 C   0  0  0  0  0  0  0  0  0  0  0  0
  139.6160   69.5760  224.1630 C   0  0  0  0  0  0  0  0  0  0  0  0
  140.1170   69.9190  225.4240 C   0  0  0  0  0  0  0  0  0  0  0  0
  140.2700   68.9580  226.4340 C   0  0  0  0  0  0  0  0  0  0  0  0
  140.7790   69.3330  227.6840 C   0  0  0  0  0  0  0  0  0  0  0  0
  140.9710   68.1320  228.9480 Cl  0  0  0  0  0  0  0  0  0  0  0  0
  141.1330   70.6660  227.9270 C   0  0  0  0  0  0  0  0  0  0  0  0
  140.9820   71.6280  226.9240 C   0  0  0  0  0  0  0  0  0  0  0  0
  140.4750   71.2610  225.6740 C   0  0  0  0  0  0  0  0  0  0  0  0
  140.3300   72.1930  224.6950 N   0  0  0  0  0  0  0  0  0  0  0  0
  137.8800   73.9950  222.5250 H   0  0  0  0  0  0  0  0  0  0  0  0
  141.7990   74.9035  220.6149 H   0  0  0  0  0  0  0  0  0  0  0  0
  139.2570   74.8070  223.3100 H   0  0  0  0  0  0  0  0  0  0  0  0
  138.6647   76.3308  219.2978 H   0  0  0  0  0  0  0  0  0  0  0  0
  137.9900   77.3562  220.5689 H   0  0  0  0  0  0  0  0  0  0  0  0
  138.7674   79.3116  219.5262 H   0  0  0  0  0  0  0  0  0  0  0  0
  139.5930   77.9400  217.2680 H   0  0  0  0  0  0  0  0  0  0  0  0
  141.2855   78.1692  218.3446 H   0  0  0  0  0  0  0  0  0  0  0  0
  141.0991   79.6059  219.3623 H   0  0  0  0  0  0  0  0  0  0  0  0
  142.1032   77.1243  220.2520 H   0  0  0  0  0  0  0  0  0  0  0  0
  140.8296   77.1578  223.1237 H   0  0  0  0  0  0  0  0  0  0  0  0
  141.3953   78.5906  225.0866 H   0  0  0  0  0  0  0  0  0  0  0  0
  142.4496   80.8275  224.7431 H   0  0  0  0  0  0  0  0  0  0  0  0
  142.9417   81.6351  222.4326 H   0  0  0  0  0  0  0  0  0  0  0  0
  142.3835   80.2099  220.4652 H   0  0  0  0  0  0  0  0  0  0  0  0
  139.0905   70.2893  222.1826 H   0  0  0  0  0  0  0  0  0  0  0  0
  139.3287   68.5359  223.9493 H   0  0  0  0  0  0  0  0  0  0  0  0
  139.9906   67.9110  226.2448 H   0  0  0  0  0  0  0  0  0  0  0  0
  141.5311   70.9570  228.9103 H   0  0  0  0  0  0  0  0  0  0  0  0
  141.2621   72.6738  227.1184 H   0  0  0  0  0  0  0  0  0  0  0  0
  1  2  1  0
  2  3  2  0
  3  4  1  0
  4  5  2  0
  5  6  1  0
  5  7  1  0
  7  8  1  0
  8  9  1  0
  9 10  1  0
  9 11  1  0
 11 12  1  0
 12 13  1  0
 13 14  2  0
 14 15  1  0
 15 16  2  0
 16 17  1  0
 17 18  2  0
  2 19  1  0
 19 20  2  0
 20 21  1  0
 21 22  2  0
 22 23  1  0
 23 24  2  0
 24 25  1  0
 24 26  1  0
 26 27  2  0
 27 28  1  0
 28 29  2  0
 12  7  1  0
 18 13  1  0
 29 19  1  0
 28 22  1  0
  1 30  1  0
  4 31  1  0
  6 32  1  0
  8 33  1  0
  8 34  1  0
  9 35  1  1
 10 36  1  0
 11 37  1  0
 11 38  1  0
 12 39  1  6
 14 40  1  0
 15 41  1  0
 16 42  1  0
 17 43  1  0
 18 44  1  0
 20 45  1  0
 21 46  1  0
 23 47  1  0
 26 48  1  0
 27 49  1  0
M  END
>  <meeko>  (5) 
{"free_energy": -8.18, "intermolecular_energy": -10.86, "internal_energy": -2.09, "cluster_size": 2, "cluster_id": 2, "rank_in_cluster": 2}

$$$$

     RDKit          3D

 49 52  0  0  0  0  0  0  0  0999 V2000
  137.8600   73.2780  222.2850 O   0  0  0  0  0  0  0  0  0  0  0  0
  138.8190   72.2750  222.1020 C   0  0  0  0  0  0  0  0  0  0  0  0
  139.4850   72.1450  220.9910 N   0  0  0  0  0  0  0  0  0  0  0  0
  140.4510   73.0500  220.4420 C   0  0  0  0  0  0  0  0  0  0  0  0
  140.7370   74.1880  221.0810 C   0  0  0  0  0  0  0  0  0  0  0  0
  140.1920   74.4450  222.3390 O   0  0  0  0  0  0  0  0  0  0  0  0
  141.5890   75.1720  220.4790 N   0  0  0  0  0  0  0  0  0  0  0  0
  141.4470   76.5950  220.7360 C   0  0  0  0  0  0  0  0  0  0  0  0
  142.4500   77.2780  219.8020 C   0  0  2  0  0  0  0  0  0  0  0  0
  141.9180   78.4350  219.2040 O   0  0  0  0  0  0  0  0  0  0  0  0
  142.8620   76.2230  218.7640 C   0  0  0  0  0  0  0  0  0  0  0  0
  142.4760   74.8670  219.3670 C   0  0  1  0  0  0  0  0  0  0  0  0
  143.6880   74.1010  219.8600 C   0  0  0  0  0  0  0  0  0  0  0  0
  143.7680   72.7110  219.6710 C   0  0  0  0  0  0  0  0  0  0  0  0
  144.8820   71.9990  220.1270 C   0  0  0  0  0  0  0  0  0  0  0  0
  145.9270   72.6680  220.7720 C   0  0  0  0  0  0  0  0  0  0  0  0
  145.8600   74.0510  220.9600 C   0  0  0  0  0  0  0  0  0  0  0  0
  144.7500   74.7660  220.5040 C   0  0  0  0  0  0  0  0  0  0  0  0
  139.0900   71.3280  223.1990 C   0  0  0  0  0  0  0  0  0  0  0  0
  138.6690   69.9900  223.1260 C   0  0  0  0  0  0  0  0  0  0  0  0
  138.9570   69.1170  224.1770 C   0  0  0  0  0  0  0  0  0  0  0  0
  139.6640   69.5780  225.2940 C   0  0  0  0  0  0  0  0  0  0  0  0
  139.9740   68.7260  226.3640 C   0  0  0  0  0  0  0  0  0  0  0  0
  140.6860   69.2170  227.4650 C   0  0  0  0  0  0  0  0  0  0  0  0
  141.0740   68.1520  228.8040 Cl  0  0  0  0  0  0  0  0  0  0  0  0
  141.0890   70.5580  227.5000 C   0  0  0  0  0  0  0  0  0  0  0  0
  140.7820   71.4120  226.4370 C   0  0  0  0  0  0  0  0  0  0  0  0
  140.0710   70.9280  225.3340 C   0  0  0  0  0  0  0  0  0  0  0  0
  139.7740   71.7550  224.2970 N   0  0  0  0  0  0  0  0  0  0  0  0
  138.0400   74.1530  222.7550 H   0  0  0  0  0  0  0  0  0  0  0  0
  140.9565   72.8080  219.4955 H   0  0  0  0  0  0  0  0  0  0  0  0
  139.8890   73.7000  222.9560 H   0  0  0  0  0  0  0  0  0  0  0  0
  140.4229   76.9267  220.5100 H   0  0  0  0  0  0  0  0  0  0  0  0
  141.6366   76.8414  221.7911 H   0  0  0  0  0  0  0  0  0  0  0  0
  143.3262   77.6335  220.3641 H   0  0  0  0  0  0  0  0  0  0  0  0
  142.6500   79.1020  219.1250 H   0  0  0  0  0  0  0  0  0  0  0  0
  142.3258   76.3875  217.8177 H   0  0  0  0  0  0  0  0  0  0  0  0
  143.9380   76.2743  218.5412 H   0  0  0  0  0  0  0  0  0  0  0  0
  141.9967   74.2277  218.6109 H   0  0  0  0  0  0  0  0  0  0  0  0
  142.9502   72.1801  219.1618 H   0  0  0  0  0  0  0  0  0  0  0  0
  144.9363   70.9105  219.9780 H   0  0  0  0  0  0  0  0  0  0  0  0
  146.8015   72.1057  221.1313 H   0  0  0  0  0  0  0  0  0  0  0  0
  146.6820   74.5771  221.4675 H   0  0  0  0  0  0  0  0  0  0  0  0
  144.7048   75.8555  220.6487 H   0  0  0  0  0  0  0  0  0  0  0  0
  138.1154   69.6318  222.2456 H   0  0  0  0  0  0  0  0  0  0  0  0
  138.6288   68.0683  224.1274 H   0  0  0  0  0  0  0  0  0  0  0  0
  139.6580   67.6727  226.3382 H   0  0  0  0  0  0  0  0  0  0  0  0
  141.6487   70.9401  228.3665 H   0  0  0  0  0  0  0  0  0  0  0  0
  141.0995   72.4647  226.4678 H   0  0  0  0  0  0  0  0  0  0  0  0
  1  2  1  0
  2  3  2  0
  3  4  1  0
  4  5  2  0
  5  6  1  0
  5  7  1  0
  7  8  1  0
  8  9  1  0
  9 10  1  0
  9 11  1  0
 11 12  1  0
 12 13  1  0
 13 14  2  0
 14 15  1  0
 15 16  2  0
 16 17  1  0
 17 18  2  0
  2 19  1  0
 19 20  2  0
 20 21  1  0
 21 22  2  0
 22 23  1  0
 23 24  2  0
 24 25  1  0
 24 26  1  0
 26 27  2  0
 27 28  1  0
 28 29  2  0
 12  7  1  0
 18 13  1  0
 29 19  1  0
 28 22  1  0
  1 30  1  0
  4 31  1  0
  6 32  1  0
  8 33  1  0
  8 34  1  0
  9 35  1  1
 10 36  1  0
 11 37  1  0
 11 38  1  0
 12 39  1  6
 14 40  1  0
 15 41  1  0
 16 42  1  0
 17 43  1  0
 18 44  1  0
 20 45  1  0
 21 46  1  0
 23 47  1  0
 26 48  1  0
 27 49  1  0
M  END
>  <meeko>  (6) 
{"free_energy": -8.02, "intermolecular_energy": -10.7, "internal_energy": -2.4, "cluster_size": 10, "cluster_id": 1, "rank_in_cluster": 8}

$$$$

     RDKit          3D

 49 52  0  0  0  0  0  0  0  0999 V2000
  137.6960   72.9200  222.3580 O   0  0  0  0  0  0  0  0  0  0  0  0
  138.8170   72.0960  222.2110 C   0  0  0  0  0  0  0  0  0  0  0  0
  139.5620   72.1210  221.1440 N   0  0  0  0  0  0  0  0  0  0  0  0
  140.1740   73.2640  220.5330 C   0  0  0  0  0  0  0  0  0  0  0  0
  140.3760   74.3740  221.2500 C   0  0  0  0  0  0  0  0  0  0  0  0
  139.6950   74.5700  222.4510 O   0  0  0  0  0  0  0  0  0  0  0  0
  141.2770   75.3890  220.7890 N   0  0  0  0  0  0  0  0  0  0  0  0
  141.1700   76.7790  221.2000 C   0  0  0  0  0  0  0  0  0  0  0  0
  142.2240   77.5270  220.3800 C   0  0  2  0  0  0  0  0  0  0  0  0
  141.7470   78.7610  219.9010 O   0  0  0  0  0  0  0  0  0  0  0  0
  142.6380   76.5820  219.2420 C   0  0  0  0  0  0  0  0  0  0  0  0
  142.1910   75.1810  219.6760 C   0  0  1  0  0  0  0  0  0  0  0  0
  143.3620   74.3240  220.1160 C   0  0  0  0  0  0  0  0  0  0  0  0
  143.2260   72.9270  220.1850 C   0  0  0  0  0  0  0  0  0  0  0  0
  144.3020   72.1310  220.5930 C   0  0  0  0  0  0  0  0  0  0  0  0
  145.5230   72.7230  220.9320 C   0  0  0  0  0  0  0  0  0  0  0  0
  145.6710   74.1100  220.8600 C   0  0  0  0  0  0  0  0  0  0  0  0
  144.5990   74.9080  220.4510 C   0  0  0  0  0  0  0  0  0  0  0  0
  139.1720   71.1620  223.2950 C   0  0  0  0  0  0  0  0  0  0  0  0
  138.9410   69.7820  223.1730 C   0  0  0  0  0  0  0  0  0  0  0  0
  139.3060   68.9270  224.2140 C   0  0  0  0  0  0  0  0  0  0  0  0
  139.9000   69.4460  225.3700 C   0  0  0  0  0  0  0  0  0  0  0  0
  140.2830   68.6130  226.4320 C   0  0  0  0  0  0  0  0  0  0  0  0
  140.8780   69.1640  227.5740 C   0  0  0  0  0  0  0  0  0  0  0  0
  141.3570   68.1230  228.9020 Cl  0  0  0  0  0  0  0  0  0  0  0  0
  141.0920   70.5460  227.6570 C   0  0  0  0  0  0  0  0  0  0  0  0
  140.7120   71.3810  226.6020 C   0  0  0  0  0  0  0  0  0  0  0  0
  140.1170   70.8380  225.4600 C   0  0  0  0  0  0  0  0  0  0  0  0
  139.7490   71.6470  224.4310 N   0  0  0  0  0  0  0  0  0  0  0  0
  137.7090   73.8140  222.8280 H   0  0  0  0  0  0  0  0  0  0  0  0
  140.4769   73.2279  219.4761 H   0  0  0  0  0  0  0  0  0  0  0  0
  139.5210   73.8110  223.1010 H   0  0  0  0  0  0  0  0  0  0  0  0
  140.1647   77.1686  220.9818 H   0  0  0  0  0  0  0  0  0  0  0  0
  141.3313   76.8996  222.2814 H   0  0  0  0  0  0  0  0  0  0  0  0
  143.0916   77.7866  221.0044 H   0  0  0  0  0  0  0  0  0  0  0  0
  142.4660   79.4360  220.0290 H   0  0  0  0  0  0  0  0  0  0  0  0
  142.1389   76.8698  218.3049 H   0  0  0  0  0  0  0  0  0  0  0  0
  143.7218   76.6214  219.0583 H   0  0  0  0  0  0  0  0  0  0  0  0
  141.7182   74.6476  218.8382 H   0  0  0  0  0  0  0  0  0  0  0  0
  142.2684   72.4567  219.9168 H   0  0  0  0  0  0  0  0  0  0  0  0
  144.1875   71.0383  220.6472 H   0  0  0  0  0  0  0  0  0  0  0  0
  146.3670   72.0961  221.2554 H   0  0  0  0  0  0  0  0  0  0  0  0
  146.6321   74.5746  221.1254 H   0  0  0  0  0  0  0  0  0  0  0  0
  144.7222   75.9994  220.3904 H   0  0  0  0  0  0  0  0  0  0  0  0
  138.4751   69.3774  222.2623 H   0  0  0  0  0  0  0  0  0  0  0  0
  139.1268   67.8453  224.1258 H   0  0  0  0  0  0  0  0  0  0  0  0
  140.1161   67.5276  226.3678 H   0  0  0  0  0  0  0  0  0  0  0  0
  141.5604   70.9754  228.5549 H   0  0  0  0  0  0  0  0  0  0  0  0
  140.8814   72.4657  226.6708 H   0  0  0  0  0  0  0  0  0  0  0  0
  1  2  1  0
  2  3  2  0
  3  4  1  0
  4  5  2  0
  5  6  1  0
  5  7  1  0
  7  8  1  0
  8  9  1  0
  9 10  1  0
  9 11  1  0
 11 12  1  0
 12 13  1  0
 13 14  2  0
 14 15  1  0
 15 16  2  0
 16 17  1  0
 17 18  2  0
  2 19  1  0
 19 20  2  0
 20 21  1  0
 21 22  2  0
 22 23  1  0
 23 24  2  0
 24 25  1  0
 24 26  1  0
 26 27  2  0
 27 28  1  0
 28 29  2  0
 12  7  1  0
 18 13  1  0
 29 19  1  0
 28 22  1  0
  1 30  1  0
  4 31  1  0
  6 32  1  0
  8 33  1  0
  8 34  1  0
  9 35  1  1
 10 36  1  0
 11 37  1  0
 11 38  1  0
 12 39  1  6
 14 40  1  0
 15 41  1  0
 16 42  1  0
 17 43  1  0
 18 44  1  0
 20 45  1  0
 21 46  1  0
 23 47  1  0
 26 48  1  0
 27 49  1  0
M  END
>  <meeko>  (7) 
{"free_energy": -8.14, "intermolecular_energy": -10.82, "internal_energy": -2.32, "cluster_size": 10, "cluster_id": 1, "rank_in_cluster": 6}

$$$$

     RDKit          3D

 49 52  0  0  0  0  0  0  0  0999 V2000
  139.8220   72.4290  220.5080 O   0  0  0  0  0  0  0  0  0  0  0  0
  139.9370   72.8770  221.8280 C   0  0  0  0  0  0  0  0  0  0  0  0
  140.0350   74.1400  222.1270 N   0  0  0  0  0  0  0  0  0  0  0  0
  139.9760   75.2560  221.2300 C   0  0  0  0  0  0  0  0  0  0  0  0
  140.9370   76.1850  221.2570 C   0  0  0  0  0  0  0  0  0  0  0  0
  141.1050   76.9910  222.3830 O   0  0  0  0  0  0  0  0  0  0  0  0
  141.7950   76.3830  220.1260 N   0  0  0  0  0  0  0  0  0  0  0  0
  142.1310   77.7020  219.6170 C   0  0  0  0  0  0  0  0  0  0  0  0
  142.9440   77.4510  218.3440 C   0  0  2  0  0  0  0  0  0  0  0  0
  142.5890   78.3300  217.3050 O   0  0  0  0  0  0  0  0  0  0  0  0
  142.7130   75.9800  217.9670 C   0  0  0  0  0  0  0  0  0  0  0  0
  142.1790   75.3000  219.2330 C   0  0  1  0  0  0  0  0  0  0  0  0
  143.2280   74.4260  219.8920 C   0  0  0  0  0  0  0  0  0  0  0  0
  144.4900   74.9570  220.2090 C   0  0  0  0  0  0  0  0  0  0  0  0
  145.4630   74.1540  220.8140 C   0  0  0  0  0  0  0  0  0  0  0  0
  145.1830   72.8170  221.1100 C   0  0  0  0  0  0  0  0  0  0  0  0
  143.9300   72.2800  220.8040 C   0  0  0  0  0  0  0  0  0  0  0  0
  142.9550   73.0800  220.2020 C   0  0  0  0  0  0  0  0  0  0  0  0
  139.9510   71.8920  222.9260 C   0  0  0  0  0  0  0  0  0  0  0  0
  139.4890   70.5800  222.7320 C   0  0  0  0  0  0  0  0  0  0  0  0
  139.5320   69.6700  223.7900 C   0  0  0  0  0  0  0  0  0  0  0  0
  140.0360   70.0670  225.0330 C   0  0  0  0  0  0  0  0  0  0  0  0
  140.0970   69.1760  226.1150 C   0  0  0  0  0  0  0  0  0  0  0  0
  140.6110   69.6040  227.3460 C   0  0  0  0  0  0  0  0  0  0  0  0
  140.6890   68.4900  228.6980 Cl  0  0  0  0  0  0  0  0  0  0  0  0
  141.0620   70.9210  227.4980 C   0  0  0  0  0  0  0  0  0  0  0  0
  141.0030   71.8140  226.4240 C   0  0  0  0  0  0  0  0  0  0  0  0
  140.4910   71.3930  225.1930 C   0  0  0  0  0  0  0  0  0  0  0  0
  140.4340   72.2580  224.1450 N   0  0  0  0  0  0  0  0  0  0  0  0
  139.7780   73.0400  219.7050 H   0  0  0  0  0  0  0  0  0  0  0  0
  139.1409   75.3482  220.5200 H   0  0  0  0  0  0  0  0  0  0  0  0
  142.0200   77.1760  222.7790 H   0  0  0  0  0  0  0  0  0  0  0  0
  141.2176   78.2692  219.3848 H   0  0  0  0  0  0  0  0  0  0  0  0
  142.6953   78.2933  220.3532 H   0  0  0  0  0  0  0  0  0  0  0  0
  144.0127   77.6442  218.5188 H   0  0  0  0  0  0  0  0  0  0  0  0
  143.3820   78.8900  217.0940 H   0  0  0  0  0  0  0  0  0  0  0  0
  141.9770   75.9048  217.1530 H   0  0  0  0  0  0  0  0  0  0  0  0
  143.6393   75.5038  217.6132 H   0  0  0  0  0  0  0  0  0  0  0  0
  141.3359   74.6361  218.9913 H   0  0  0  0  0  0  0  0  0  0  0  0
  144.7140   76.0094  219.9803 H   0  0  0  0  0  0  0  0  0  0  0  0
  146.4496   74.5754  221.0570 H   0  0  0  0  0  0  0  0  0  0  0  0
  145.9499   72.1870  221.5843 H   0  0  0  0  0  0  0  0  0  0  0  0
  143.7109   71.2275  221.0369 H   0  0  0  0  0  0  0  0  0  0  0  0
  141.9675   72.6552  219.9687 H   0  0  0  0  0  0  0  0  0  0  0  0
  139.0956   70.2712  221.7523 H   0  0  0  0  0  0  0  0  0  0  0  0
  139.1697   68.6414  223.6462 H   0  0  0  0  0  0  0  0  0  0  0  0
  139.7414   68.1418  225.9969 H   0  0  0  0  0  0  0  0  0  0  0  0
  141.4642   71.2541  228.4661 H   0  0  0  0  0  0  0  0  0  0  0  0
  141.3592   72.8474  226.5474 H   0  0  0  0  0  0  0  0  0  0  0  0
  1  2  1  0
  2  3  2  0
  3  4  1  0
  4  5  2  0
  5  6  1  0
  5  7  1  0
  7  8  1  0
  8  9  1  0
  9 10  1  0
  9 11  1  0
 11 12  1  0
 12 13  1  0
 13 14  2  0
 14 15  1  0
 15 16  2  0
 16 17  1  0
 17 18  2  0
  2 19  1  0
 19 20  2  0
 20 21  1  0
 21 22  2  0
 22 23  1  0
 23 24  2  0
 24 25  1  0
 24 26  1  0
 26 27  2  0
 27 28  1  0
 28 29  2  0
 12  7  1  0
 18 13  1  0
 29 19  1  0
 28 22  1  0
  1 30  1  0
  4 31  1  0
  6 32  1  0
  8 33  1  0
  8 34  1  0
  9 35  1  1
 10 36  1  0
 11 37  1  0
 11 38  1  0
 12 39  1  6
 14 40  1  0
 15 41  1  0
 16 42  1  0
 17 43  1  0
 18 44  1  0
 20 45  1  0
 21 46  1  0
 23 47  1  0
 26 48  1  0
 27 49  1  0
M  END
>  <meeko>  (8) 
{"free_energy": -8.39, "intermolecular_energy": -11.08, "internal_energy": -1.26, "cluster_size": 10, "cluster_id": 1, "rank_in_cluster": 1}

$$$$

     RDKit          3D

 49 52  0  0  0  0  0  0  0  0999 V2000
  140.1160   74.3310  222.2220 O   0  0  0  0  0  0  0  0  0  0  0  0
  140.4980   75.5440  221.6380 C   0  0  0  0  0  0  0  0  0  0  0  0
  141.1900   75.5960  220.5370 N   0  0  0  0  0  0  0  0  0  0  0  0
  141.6420   76.7680  219.8460 C   0  0  0  0  0  0  0  0  0  0  0  0
  140.7530   77.6250  219.3350 C   0  0  0  0  0  0  0  0  0  0  0  0
  139.3860   77.4180  219.5240 O   0  0  0  0  0  0  0  0  0  0  0  0
  141.1840   78.7570  218.5680 N   0  0  0  0  0  0  0  0  0  0  0  0
  140.8850   78.9070  217.1540 C   0  0  0  0  0  0  0  0  0  0  0  0
  141.6360   80.1650  216.7110 C   0  0  2  0  0  0  0  0  0  0  0  0
  142.2490   80.0030  215.4550 O   0  0  0  0  0  0  0  0  0  0  0  0
  142.6540   80.4730  217.8190 C   0  0  0  0  0  0  0  0  0  0  0  0
  142.1740   79.7050  219.0560 C   0  0  1  0  0  0  0  0  0  0  0  0
  141.5520   80.6250  220.0890 C   0  0  0  0  0  0  0  0  0  0  0  0
  140.3180   81.2440  219.8280 C   0  0  0  0  0  0  0  0  0  0  0  0
  139.7410   82.0970  220.7750 C   0  0  0  0  0  0  0  0  0  0  0  0
  140.3900   82.3360  221.9910 C   0  0  0  0  0  0  0  0  0  0  0  0
  141.6140   81.7200  222.2630 C   0  0  0  0  0  0  0  0  0  0  0  0
  142.1920   80.8660  221.3200 C   0  0  0  0  0  0  0  0  0  0  0  0
  140.1110   76.8100  222.2870 C   0  0  0  0  0  0  0  0  0  0  0  0
  141.0710   77.6520  222.8700 C   0  0  0  0  0  0  0  0  0  0  0  0
  140.6690   78.8520  223.4620 C   0  0  0  0  0  0  0  0  0  0  0  0
  139.3160   79.2090  223.4670 C   0  0  0  0  0  0  0  0  0  0  0  0
  138.8800   80.4090  224.0480 C   0  0  0  0  0  0  0  0  0  0  0  0
  137.5190   80.7390  224.0330 C   0  0  0  0  0  0  0  0  0  0  0  0
  136.9730   82.2400  224.7590 Cl  0  0  0  0  0  0  0  0  0  0  0  0
  136.5930   79.8720  223.4410 C   0  0  0  0  0  0  0  0  0  0  0  0
  137.0210   78.6740  222.8610 C   0  0  0  0  0  0  0  0  0  0  0  0
  138.3780   78.3390  222.8720 C   0  0  0  0  0  0  0  0  0  0  0  0
  138.7990   77.1760  222.3060 N   0  0  0  0  0  0  0  0  0  0  0  0
  139.2480   74.1920  222.7210 H   0  0  0  0  0  0  0  0  0  0  0  0
  142.7193   76.9616  219.7365 H   0  0  0  0  0  0  0  0  0  0  0  0
  139.0320   76.7360  220.1860 H   0  0  0  0  0  0  0  0  0  0  0  0
  141.2373   78.0301  216.5910 H   0  0  0  0  0  0  0  0  0  0  0  0
  139.8035   78.9905  216.9712 H   0  0  0  0  0  0  0  0  0  0  0  0
  140.9411   81.0069  216.5759 H   0  0  0  0  0  0  0  0  0  0  0  0
  143.2260   80.1400  215.5720 H   0  0  0  0  0  0  0  0  0  0  0  0
  143.6570   80.1323  217.5225 H   0  0  0  0  0  0  0  0  0  0  0  0
  142.7225   81.5531  218.0156 H   0  0  0  0  0  0  0  0  0  0  0  0
  143.0187   79.2096  219.5571 H   0  0  0  0  0  0  0  0  0  0  0  0
  139.8029   81.0570  218.8742 H   0  0  0  0  0  0  0  0  0  0  0  0
  138.7758   82.5803  220.5631 H   0  0  0  0  0  0  0  0  0  0  0  0
  139.9364   83.0092  222.7333 H   0  0  0  0  0  0  0  0  0  0  0  0
  142.1230   81.9073  223.2200 H   0  0  0  0  0  0  0  0  0  0  0  0
  143.1532   80.3788  221.5407 H   0  0  0  0  0  0  0  0  0  0  0  0
  142.1338   77.3686  222.8608 H   0  0  0  0  0  0  0  0  0  0  0  0
  141.4152   79.5154  223.9236 H   0  0  0  0  0  0  0  0  0  0  0  0
  139.6065   81.0903  224.5150 H   0  0  0  0  0  0  0  0  0  0  0  0
  135.5248   80.1342  223.4321 H   0  0  0  0  0  0  0  0  0  0  0  0
  136.2903   77.9956  222.3963 H   0  0  0  0  0  0  0  0  0  0  0  0
  1  2  1  0
  2  3  2  0
  3  4  1  0
  4  5  2  0
  5  6  1  0
  5  7  1  0
  7  8  1  0
  8  9  1  0
  9 10  1  0
  9 11  1  0
 11 12  1  0
 12 13  1  0
 13 14  2  0
 14 15  1  0
 15 16  2  0
 16 17  1  0
 17 18  2  0
  2 19  1  0
 19 20  2  0
 20 21  1  0
 21 22  2  0
 22 23  1  0
 23 24  2  0
 24 25  1  0
 24 26  1  0
 26 27  2  0
 27 28  1  0
 28 29  2  0
 12  7  1  0
 18 13  1  0
 29 19  1  0
 28 22  1  0
  1 30  1  0
  4 31  1  0
  6 32  1  0
  8 33  1  0
  8 34  1  0
  9 35  1  6
 10 36  1  0
 11 37  1  0
 11 38  1  0
 12 39  1  1
 14 40  1  0
 15 41  1  0
 16 42  1  0
 17 43  1  0
 18 44  1  0
 20 45  1  0
 21 46  1  0
 23 47  1  0
 26 48  1  0
 27 49  1  0
M  END
>  <meeko>  (9) 
{"free_energy": -5.95, "intermolecular_energy": -8.63, "internal_energy": -3.28, "cluster_size": 1, "cluster_id": 5, "rank_in_cluster": 1}

$$$$

     RDKit          3D

 49 52  0  0  0  0  0  0  0  0999 V2000
  137.8200   72.9140  222.3350 O   0  0  0  0  0  0  0  0  0  0  0  0
  138.8980   72.0280  222.2360 C   0  0  0  0  0  0  0  0  0  0  0  0
  139.6620   71.9780  221.1840 N   0  0  0  0  0  0  0  0  0  0  0  0
  140.7410   72.8600  220.8460 C   0  0  0  0  0  0  0  0  0  0  0  0
  140.7190   74.1290  221.2640 C   0  0  0  0  0  0  0  0  0  0  0  0
  139.9030   74.5060  222.3300 O   0  0  0  0  0  0  0  0  0  0  0  0
  141.5160   75.1280  220.6120 N   0  0  0  0  0  0  0  0  0  0  0  0
  141.3890   76.5460  220.9030 C   0  0  0  0  0  0  0  0  0  0  0  0
  142.3100   77.2500  219.9030 C   0  0  2  0  0  0  0  0  0  0  0  0
  141.7260   78.4130  219.3700 O   0  0  0  0  0  0  0  0  0  0  0  0
  142.6420   76.2140  218.8180 C   0  0  0  0  0  0  0  0  0  0  0  0
  142.3120   74.8470  219.4270 C   0  0  1  0  0  0  0  0  0  0  0  0
  143.5640   74.0800  219.8090 C   0  0  0  0  0  0  0  0  0  0  0  0
  143.6700   72.7110  219.5080 C   0  0  0  0  0  0  0  0  0  0  0  0
  144.8210   71.9980  219.8610 C   0  0  0  0  0  0  0  0  0  0  0  0
  145.8750   72.6450  220.5130 C   0  0  0  0  0  0  0  0  0  0  0  0
  145.7820   74.0070  220.8120 C   0  0  0  0  0  0  0  0  0  0  0  0
  144.6350   74.7230  220.4590 C   0  0  0  0  0  0  0  0  0  0  0  0
  139.1840   71.1130  223.3570 C   0  0  0  0  0  0  0  0  0  0  0  0
  138.8430   69.7530  223.2910 C   0  0  0  0  0  0  0  0  0  0  0  0
  139.1440   68.9130  224.3650 C   0  0  0  0  0  0  0  0  0  0  0  0
  139.7850   69.4290  225.4970 C   0  0  0  0  0  0  0  0  0  0  0  0
  140.1060   68.6110  226.5910 C   0  0  0  0  0  0  0  0  0  0  0  0
  140.7500   69.1590  227.7080 C   0  0  0  0  0  0  0  0  0  0  0  0
  141.1520   68.1370  229.0750 Cl  0  0  0  0  0  0  0  0  0  0  0  0
  141.0750   70.5200  227.7340 C   0  0  0  0  0  0  0  0  0  0  0  0
  140.7570   71.3410  226.6480 C   0  0  0  0  0  0  0  0  0  0  0  0
  140.1130   70.8010  225.5300 C   0  0  0  0  0  0  0  0  0  0  0  0
  139.8050   71.5950  224.4700 N   0  0  0  0  0  0  0  0  0  0  0  0
  137.8770   73.8290  222.7600 H   0  0  0  0  0  0  0  0  0  0  0  0
  141.5851   72.4927  220.2438 H   0  0  0  0  0  0  0  0  0  0  0  0
  139.5950   73.8420  223.0320 H   0  0  0  0  0  0  0  0  0  0  0  0
  140.3485   76.8754  220.7659 H   0  0  0  0  0  0  0  0  0  0  0  0
  141.6623   76.7763  221.9433 H   0  0  0  0  0  0  0  0  0  0  0  0
  143.2273   77.6018  220.3978 H   0  0  0  0  0  0  0  0  0  0  0  0
  142.4050   79.1380  219.4040 H   0  0  0  0  0  0  0  0  0  0  0  0
  142.0308   76.3906  217.9206 H   0  0  0  0  0  0  0  0  0  0  0  0
  143.6964   76.2751  218.5106 H   0  0  0  0  0  0  0  0  0  0  0  0
  141.7763   74.2178  218.7009 H   0  0  0  0  0  0  0  0  0  0  0  0
  142.8445   72.1981  218.9927 H   0  0  0  0  0  0  0  0  0  0  0  0
  144.8967   70.9263  219.6250 H   0  0  0  0  0  0  0  0  0  0  0  0
  146.7780   72.0817  220.7908 H   0  0  0  0  0  0  0  0  0  0  0  0
  146.6116   74.5154  221.3251 H   0  0  0  0  0  0  0  0  0  0  0  0
  144.5683   75.7963  220.6905 H   0  0  0  0  0  0  0  0  0  0  0  0
  138.3415   69.3512  222.3982 H   0  0  0  0  0  0  0  0  0  0  0  0
  138.8775   67.8467  224.3214 H   0  0  0  0  0  0  0  0  0  0  0  0
  139.8523   67.5408  226.5716 H   0  0  0  0  0  0  0  0  0  0  0  0
  141.5826   70.9454  228.6123 H   0  0  0  0  0  0  0  0  0  0  0  0
  141.0130   72.4105  226.6728 H   0  0  0  0  0  0  0  0  0  0  0  0
  1  2  1  0
  2  3  2  0
  3  4  1  0
  4  5  2  0
  5  6  1  0
  5  7  1  0
  7  8  1  0
  8  9  1  0
  9 10  1  0
  9 11  1  0
 11 12  1  0
 12 13  1  0
 13 14  2  0
 14 15  1  0
 15 16  2  0
 16 17  1  0
 17 18  2  0
  2 19  1  0
 19 20  2  0
 20 21  1  0
 21 22  2  0
 22 23  1  0
 23 24  2  0
 24 25  1  0
 24 26  1  0
 26 27  2  0
 27 28  1  0
 28 29  2  0
 12  7  1  0
 18 13  1  0
 29 19  1  0
 28 22  1  0
  1 30  1  0
  4 31  1  0
  6 32  1  0
  8 33  1  0
  8 34  1  0
  9 35  1  1
 10 36  1  0
 11 37  1  0
 11 38  1  0
 12 39  1  6
 14 40  1  0
 15 41  1  0
 16 42  1  0
 17 43  1  0
 18 44  1  0
 20 45  1  0
 21 46  1  0
 23 47  1  0
 26 48  1  0
 27 49  1  0
M  END
>  <meeko>  (10) 
{"free_energy": -8.31, "intermolecular_energy": -11.0, "internal_energy": -2.27, "cluster_size": 10, "cluster_id": 1, "rank_in_cluster": 3}

$$$$

     RDKit          3D

 49 52  0  0  0  0  0  0  0  0999 V2000
  137.8750   72.9140  222.3610 O   0  0  0  0  0  0  0  0  0  0  0  0
  138.9660   72.0430  222.2670 C   0  0  0  0  0  0  0  0  0  0  0  0
  139.7410   72.0110  221.2220 N   0  0  0  0  0  0  0  0  0  0  0  0
  140.8400   72.8820  220.9230 C   0  0  0  0  0  0  0  0  0  0  0  0
  140.7970   74.1620  221.3040 C   0  0  0  0  0  0  0  0  0  0  0  0
  139.9600   74.5590  222.3470 O   0  0  0  0  0  0  0  0  0  0  0  0
  141.5910   75.1510  220.6360 N   0  0  0  0  0  0  0  0  0  0  0  0
  141.4740   76.5720  220.9160 C   0  0  0  0  0  0  0  0  0  0  0  0
  142.3890   77.2630  219.9020 C   0  0  2  0  0  0  0  0  0  0  0  0
  141.8050   78.4250  219.3640 O   0  0  0  0  0  0  0  0  0  0  0  0
  142.7050   76.2170  218.8220 C   0  0  0  0  0  0  0  0  0  0  0  0
  142.3750   74.8570  219.4460 C   0  0  1  0  0  0  0  0  0  0  0  0
  143.6260   74.0870  219.8220 C   0  0  0  0  0  0  0  0  0  0  0  0
  144.6850   74.7400  220.4750 C   0  0  0  0  0  0  0  0  0  0  0  0
  145.8440   74.0360  220.8210 C   0  0  0  0  0  0  0  0  0  0  0  0
  145.9530   72.6750  220.5210 C   0  0  0  0  0  0  0  0  0  0  0  0
  144.9040   72.0150  219.8770 C   0  0  0  0  0  0  0  0  0  0  0  0
  143.7440   72.7140  219.5320 C   0  0  0  0  0  0  0  0  0  0  0  0
  139.2530   71.1230  223.3840 C   0  0  0  0  0  0  0  0  0  0  0  0
  138.9240   69.7600  223.3080 C   0  0  0  0  0  0  0  0  0  0  0  0
  139.2250   68.9170  224.3790 C   0  0  0  0  0  0  0  0  0  0  0  0
  139.8540   69.4310  225.5180 C   0  0  0  0  0  0  0  0  0  0  0  0
  140.1750   68.6100  226.6090 C   0  0  0  0  0  0  0  0  0  0  0  0
  140.8080   69.1560  227.7330 C   0  0  0  0  0  0  0  0  0  0  0  0
  141.2100   68.1290  229.0970 Cl  0  0  0  0  0  0  0  0  0  0  0  0
  141.1210   70.5200  227.7700 C   0  0  0  0  0  0  0  0  0  0  0  0
  140.8020   71.3440  226.6860 C   0  0  0  0  0  0  0  0  0  0  0  0
  140.1700   70.8060  225.5600 C   0  0  0  0  0  0  0  0  0  0  0  0
  139.8620   71.6040  224.5040 N   0  0  0  0  0  0  0  0  0  0  0  0
  137.9290   73.8480  222.7420 H   0  0  0  0  0  0  0  0  0  0  0  0
  141.7166   72.4973  220.3812 H   0  0  0  0  0  0  0  0  0  0  0  0
  139.6420   73.9100  223.0570 H   0  0  0  0  0  0  0  0  0  0  0  0
  140.4339   76.9055  220.7857 H   0  0  0  0  0  0  0  0  0  0  0  0
  141.7583   76.8095  221.9518 H   0  0  0  0  0  0  0  0  0  0  0  0
  143.3125   77.6139  220.3857 H   0  0  0  0  0  0  0  0  0  0  0  0
  142.4760   79.1560  219.4150 H   0  0  0  0  0  0  0  0  0  0  0  0
  142.0853   76.3891  217.9296 H   0  0  0  0  0  0  0  0  0  0  0  0
  143.7563   76.2707  218.5028 H   0  0  0  0  0  0  0  0  0  0  0  0
  141.8297   74.2245  218.7300 H   0  0  0  0  0  0  0  0  0  0  0  0
  144.6026   75.8102  220.7155 H   0  0  0  0  0  0  0  0  0  0  0  0
  146.6702   74.5543  221.3297 H   0  0  0  0  0  0  0  0  0  0  0  0
  146.8654   72.1236  220.7923 H   0  0  0  0  0  0  0  0  0  0  0  0
  144.9909   70.9441  219.6411 H   0  0  0  0  0  0  0  0  0  0  0  0
  142.9179   72.1883  219.0307 H   0  0  0  0  0  0  0  0  0  0  0  0
  138.4319   69.3590  222.4097 H   0  0  0  0  0  0  0  0  0  0  0  0
  138.9677   67.8488  224.3275 H   0  0  0  0  0  0  0  0  0  0  0  0
  139.9298   67.5380  226.5820 H   0  0  0  0  0  0  0  0  0  0  0  0
  141.6191   70.9447  228.6540 H   0  0  0  0  0  0  0  0  0  0  0  0
  141.0482   72.4156  226.7188 H   0  0  0  0  0  0  0  0  0  0  0  0
  1  2  1  0
  2  3  2  0
  3  4  1  0
  4  5  2  0
  5  6  1  0
  5  7  1  0
  7  8  1  0
  8  9  1  0
  9 10  1  0
  9 11  1  0
 11 12  1  0
 12 13  1  0
 13 14  2  0
 14 15  1  0
 15 16  2  0
 16 17  1  0
 17 18  2  0
  2 19  1  0
 19 20  2  0
 20 21  1  0
 21 22  2  0
 22 23  1  0
 23 24  2  0
 24 25  1  0
 24 26  1  0
 26 27  2  0
 27 28  1  0
 28 29  2  0
 12  7  1  0
 18 13  1  0
 29 19  1  0
 28 22  1  0
  1 30  1  0
  4 31  1  0
  6 32  1  0
  8 33  1  0
  8 34  1  0
  9 35  1  1
 10 36  1  0
 11 37  1  0
 11 38  1  0
 12 39  1  6
 14 40  1  0
 15 41  1  0
 16 42  1  0
 17 43  1  0
 18 44  1  0
 20 45  1  0
 21 46  1  0
 23 47  1  0
 26 48  1  0
 27 49  1  0
M  END
>  <meeko>  (11) 
{"free_energy": -8.3, "intermolecular_energy": -10.99, "internal_energy": -2.29, "cluster_size": 10, "cluster_id": 1, "rank_in_cluster": 4}

$$$$

     RDKit          3D

 49 52  0  0  0  0  0  0  0  0999 V2000
  139.4520   72.4270  220.6940 O   0  0  0  0  0  0  0  0  0  0  0  0
  139.8800   72.7870  221.9770 C   0  0  0  0  0  0  0  0  0  0  0  0
  140.2650   73.9970  222.2670 N   0  0  0  0  0  0  0  0  0  0  0  0
  141.1560   74.8320  221.5170 C   0  0  0  0  0  0  0  0  0  0  0  0
  140.8550   75.1670  220.2580 C   0  0  0  0  0  0  0  0  0  0  0  0
  139.6030   74.8540  219.7270 O   0  0  0  0  0  0  0  0  0  0  0  0
  141.8150   75.8310  219.4270 N   0  0  0  0  0  0  0  0  0  0  0  0
  141.8880   77.2780  219.3140 C   0  0  0  0  0  0  0  0  0  0  0  0
  142.9430   77.5490  218.2380 C   0  0  2  0  0  0  0  0  0  0  0  0
  142.5600   78.5840  217.3660 O   0  0  0  0  0  0  0  0  0  0  0  0
  143.1610   76.2180  217.5020 C   0  0  0  0  0  0  0  0  0  0  0  0
  142.6080   75.1300  218.4290 C   0  0  1  0  0  0  0  0  0  0  0  0
  143.7160   74.3410  219.1010 C   0  0  0  0  0  0  0  0  0  0  0  0
  144.3830   74.8750  220.2160 C   0  0  0  0  0  0  0  0  0  0  0  0
  145.4090   74.1540  220.8380 C   0  0  0  0  0  0  0  0  0  0  0  0
  145.7730   72.8940  220.3540 C   0  0  0  0  0  0  0  0  0  0  0  0
  145.1120   72.3520  219.2490 C   0  0  0  0  0  0  0  0  0  0  0  0
  144.0860   73.0680  218.6270 C   0  0  0  0  0  0  0  0  0  0  0  0
  139.9020   71.7680  223.0420 C   0  0  0  0  0  0  0  0  0  0  0  0
  139.4420   70.4620  222.8090 C   0  0  0  0  0  0  0  0  0  0  0  0
  139.4930   69.5190  223.8380 C   0  0  0  0  0  0  0  0  0  0  0  0
  140.0040   69.8780  225.0910 C   0  0  0  0  0  0  0  0  0  0  0  0
  140.0740   68.9530  226.1430 C   0  0  0  0  0  0  0  0  0  0  0  0
  140.5930   69.3440  227.3840 C   0  0  0  0  0  0  0  0  0  0  0  0
  140.6810   68.1880  228.7000 Cl  0  0  0  0  0  0  0  0  0  0  0  0
  141.0420   70.6560  227.5750 C   0  0  0  0  0  0  0  0  0  0  0  0
  140.9750   71.5830  226.5310 C   0  0  0  0  0  0  0  0  0  0  0  0
  140.4570   71.1990  225.2890 C   0  0  0  0  0  0  0  0  0  0  0  0
  140.3920   72.0970  224.2700 N   0  0  0  0  0  0  0  0  0  0  0  0
  139.9000   72.7320  219.8420 H   0  0  0  0  0  0  0  0  0  0  0  0
  142.0864   75.1969  221.9765 H   0  0  0  0  0  0  0  0  0  0  0  0
  138.9210   74.3110  220.2430 H   0  0  0  0  0  0  0  0  0  0  0  0
  140.9142   77.6900  219.0106 H   0  0  0  0  0  0  0  0  0  0  0  0
  142.1501   77.7505  220.2721 H   0  0  0  0  0  0  0  0  0  0  0  0
  143.8812   77.9010  218.6917 H   0  0  0  0  0  0  0  0  0  0  0  0
  143.3830   79.0610  217.0780 H   0  0  0  0  0  0  0  0  0  0  0  0
  142.6190   76.2169  216.5448 H   0  0  0  0  0  0  0  0  0  0  0  0
  144.2242   76.0521  217.2738 H   0  0  0  0  0  0  0  0  0  0  0  0
  142.0145   74.3998  217.8593 H   0  0  0  0  0  0  0  0  0  0  0  0
  144.0976   75.8646  220.6023 H   0  0  0  0  0  0  0  0  0  0  0  0
  145.9295   74.5794  221.7087 H   0  0  0  0  0  0  0  0  0  0  0  0
  146.5801   72.3291  220.8434 H   0  0  0  0  0  0  0  0  0  0  0  0
  145.3995   71.3608  218.8683 H   0  0  0  0  0  0  0  0  0  0  0  0
  143.5639   72.6343  217.7614 H   0  0  0  0  0  0  0  0  0  0  0  0
  139.0439   70.1833  221.8222 H   0  0  0  0  0  0  0  0  0  0  0  0
  139.1318   68.4947  223.6640 H   0  0  0  0  0  0  0  0  0  0  0  0
  139.7218   67.9217  225.9937 H   0  0  0  0  0  0  0  0  0  0  0  0
  141.4493   70.9588  228.5509 H   0  0  0  0  0  0  0  0  0  0  0  0
  141.3290   72.6130  226.6855 H   0  0  0  0  0  0  0  0  0  0  0  0
  1  2  1  0
  2  3  2  0
  3  4  1  0
  4  5  2  0
  5  6  1  0
  5  7  1  0
  7  8  1  0
  8  9  1  0
  9 10  1  0
  9 11  1  0
 11 12  1  0
 12 13  1  0
 13 14  2  0
 14 15  1  0
 15 16  2  0
 16 17  1  0
 17 18  2  0
  2 19  1  0
 19 20  2  0
 20 21  1  0
 21 22  2  0
 22 23  1  0
 23 24  2  0
 24 25  1  0
 24 26  1  0
 26 27  2  0
 27 28  1  0
 28 29  2  0
 12  7  1  0
 18 13  1  0
 29 19  1  0
 28 22  1  0
  1 30  1  0
  4 31  1  0
  6 32  1  0
  8 33  1  0
  8 34  1  0
  9 35  1  1
 10 36  1  0
 11 37  1  0
 11 38  1  0
 12 39  1  6
 14 40  1  0
 15 41  1  0
 16 42  1  0
 17 43  1  0
 18 44  1  0
 20 45  1  0
 21 46  1  0
 23 47  1  0
 26 48  1  0
 27 49  1  0
M  END
>  <meeko>  (12) 
{"free_energy": -7.59, "intermolecular_energy": -10.27, "internal_energy": -2.6, "cluster_size": 10, "cluster_id": 1, "rank_in_cluster": 10}

$$$$

     RDKit          3D

 49 52  0  0  0  0  0  0  0  0999 V2000
  138.4180   73.5020  222.0610 O   0  0  0  0  0  0  0  0  0  0  0  0
  139.6710   72.9270  222.2990 C   0  0  0  0  0  0  0  0  0  0  0  0
  140.7370   73.2890  221.6460 N   0  0  0  0  0  0  0  0  0  0  0  0
  141.2470   74.6180  221.4760 C   0  0  0  0  0  0  0  0  0  0  0  0
  140.4400   75.6680  221.6520 C   0  0  0  0  0  0  0  0  0  0  0  0
  139.5450   75.6980  222.7210 O   0  0  0  0  0  0  0  0  0  0  0  0
  140.4640   76.7710  220.7360 N   0  0  0  0  0  0  0  0  0  0  0  0
  139.4550   76.9590  219.7070 C   0  0  0  0  0  0  0  0  0  0  0  0
  139.9330   78.1580  218.8840 C   0  0  2  0  0  0  0  0  0  0  0  0
  139.7480   77.9620  217.5030 O   0  0  0  0  0  0  0  0  0  0  0  0
  141.4090   78.3730  219.2500 C   0  0  0  0  0  0  0  0  0  0  0  0
  141.6260   77.6320  220.5740 C   0  0  1  0  0  0  0  0  0  0  0  0
  141.7350   78.5880  221.7470 C   0  0  0  0  0  0  0  0  0  0  0  0
  141.4400   78.1440  223.0470 C   0  0  0  0  0  0  0  0  0  0  0  0
  141.5360   79.0220  224.1320 C   0  0  0  0  0  0  0  0  0  0  0  0
  141.9290   80.3480  223.9280 C   0  0  0  0  0  0  0  0  0  0  0  0
  142.2300   80.7980  222.6410 C   0  0  0  0  0  0  0  0  0  0  0  0
  142.1380   79.9240  221.5550 C   0  0  0  0  0  0  0  0  0  0  0  0
  139.7980   71.8710  223.3210 C   0  0  0  0  0  0  0  0  0  0  0  0
  139.4200   70.5460  223.0490 C   0  0  0  0  0  0  0  0  0  0  0  0
  139.5690   69.5700  224.0370 C   0  0  0  0  0  0  0  0  0  0  0  0
  140.0940   69.9150  225.2870 C   0  0  0  0  0  0  0  0  0  0  0  0
  140.2610   68.9580  226.2990 C   0  0  0  0  0  0  0  0  0  0  0  0
  140.7940   69.3360  227.5380 C   0  0  0  0  0  0  0  0  0  0  0  0
  141.0040   68.1390  228.8030 Cl  0  0  0  0  0  0  0  0  0  0  0  0
  141.1590   70.6680  227.7690 C   0  0  0  0  0  0  0  0  0  0  0  0
  140.9940   71.6270  226.7650 C   0  0  0  0  0  0  0  0  0  0  0  0
  140.4630   71.2570  225.5250 C   0  0  0  0  0  0  0  0  0  0  0  0
  140.3040   72.1860  224.5460 N   0  0  0  0  0  0  0  0  0  0  0  0
  137.9790   74.1750  222.6730 H   0  0  0  0  0  0  0  0  0  0  0  0
  142.3008   74.7729  221.2012 H   0  0  0  0  0  0  0  0  0  0  0  0
  139.2650   74.8560  223.2110 H   0  0  0  0  0  0  0  0  0  0  0  0
  139.3795   76.0628  219.0736 H   0  0  0  0  0  0  0  0  0  0  0  0
  138.4576   77.1300  220.1382 H   0  0  0  0  0  0  0  0  0  0  0  0
  139.3404   79.0543  219.1195 H   0  0  0  0  0  0  0  0  0  0  0  0
  138.7770   78.0450  217.3100 H   0  0  0  0  0  0  0  0  0  0  0  0
  142.0615   77.9578  218.4678 H   0  0  0  0  0  0  0  0  0  0  0  0
  141.6507   79.4422  219.3414 H   0  0  0  0  0  0  0  0  0  0  0  0
  142.5686   77.0654  220.5516 H   0  0  0  0  0  0  0  0  0  0  0  0
  141.1321   77.1010  223.2125 H   0  0  0  0  0  0  0  0  0  0  0  0
  141.3019   78.6685  225.1470 H   0  0  0  0  0  0  0  0  0  0  0  0
  142.0012   81.0374  224.7821 H   0  0  0  0  0  0  0  0  0  0  0  0
  142.5398   81.8414  222.4820 H   0  0  0  0  0  0  0  0  0  0  0  0
  142.3818   80.2814  220.5436 H   0  0  0  0  0  0  0  0  0  0  0  0
  139.0092   70.2786  222.0642 H   0  0  0  0  0  0  0  0  0  0  0  0
  139.2736   68.5304  223.8323 H   0  0  0  0  0  0  0  0  0  0  0  0
  139.9736   67.9115  226.1197 H   0  0  0  0  0  0  0  0  0  0  0  0
  141.5769   70.9608  228.7435 H   0  0  0  0  0  0  0  0  0  0  0  0
  141.2818   72.6724  226.9503 H   0  0  0  0  0  0  0  0  0  0  0  0
  1  2  1  0
  2  3  2  0
  3  4  1  0
  4  5  2  0
  5  6  1  0
  5  7  1  0
  7  8  1  0
  8  9  1  0
  9 10  1  0
  9 11  1  0
 11 12  1  0
 12 13  1  0
 13 14  2  0
 14 15  1  0
 15 16  2  0
 16 17  1  0
 17 18  2  0
  2 19  1  0
 19 20  2  0
 20 21  1  0
 21 22  2  0
 22 23  1  0
 23 24  2  0
 24 25  1  0
 24 26  1  0
 26 27  2  0
 27 28  1  0
 28 29  2  0
 12  7  1  0
 18 13  1  0
 29 19  1  0
 28 22  1  0
  1 30  1  0
  4 31  1  0
  6 32  1  0
  8 33  1  0
  8 34  1  0
  9 35  1  1
 10 36  1  0
 11 37  1  0
 11 38  1  0
 12 39  1  6
 14 40  1  0
 15 41  1  0
 16 42  1  0
 17 43  1  0
 18 44  1  0
 20 45  1  0
 21 46  1  0
 23 47  1  0
 26 48  1  0
 27 49  1  0
M  END
>  <meeko>  (13) 
{"free_energy": -8.22, "intermolecular_energy": -10.91, "internal_energy": -2.01, "cluster_size": 2, "cluster_id": 2, "rank_in_cluster": 1}

$$$$

     RDKit          3D

 49 52  0  0  0  0  0  0  0  0999 V2000
  137.8020   73.0020  222.4010 O   0  0  0  0  0  0  0  0  0  0  0  0
  138.8940   72.1370  222.2800 C   0  0  0  0  0  0  0  0  0  0  0  0
  139.6540   72.1200  221.2230 N   0  0  0  0  0  0  0  0  0  0  0  0
  140.7900   72.9500  220.9530 C   0  0  0  0  0  0  0  0  0  0  0  0
  140.7700   74.2400  221.2990 C   0  0  0  0  0  0  0  0  0  0  0  0
  139.9450   74.6790  222.3340 O   0  0  0  0  0  0  0  0  0  0  0  0
  141.5770   75.1980  220.6020 N   0  0  0  0  0  0  0  0  0  0  0  0
  141.4560   76.6300  220.8140 C   0  0  0  0  0  0  0  0  0  0  0  0
  142.3900   77.2750  219.7860 C   0  0  2  0  0  0  0  0  0  0  0  0
  141.8170   78.4100  219.1850 O   0  0  0  0  0  0  0  0  0  0  0  0
  142.7260   76.1800  218.7620 C   0  0  0  0  0  0  0  0  0  0  0  0
  142.3830   74.8490  219.4410 C   0  0  1  0  0  0  0  0  0  0  0  0
  143.6270   74.0980  219.8750 C   0  0  0  0  0  0  0  0  0  0  0  0
  143.7270   72.7140  219.6550 C   0  0  0  0  0  0  0  0  0  0  0  0
  144.8710   72.0150  220.0560 C   0  0  0  0  0  0  0  0  0  0  0  0
  145.9240   72.6930  220.6780 C   0  0  0  0  0  0  0  0  0  0  0  0
  145.8380   74.0700  220.8960 C   0  0  0  0  0  0  0  0  0  0  0  0
  144.6980   74.7710  220.4950 C   0  0  0  0  0  0  0  0  0  0  0  0
  139.2010   71.2060  223.3820 C   0  0  0  0  0  0  0  0  0  0  0  0
  138.9060   69.8360  223.2820 C   0  0  0  0  0  0  0  0  0  0  0  0
  139.2260   68.9820  224.3390 C   0  0  0  0  0  0  0  0  0  0  0  0
  139.8390   69.4930  225.4890 C   0  0  0  0  0  0  0  0  0  0  0  0
  140.1780   68.6620  226.5670 C   0  0  0  0  0  0  0  0  0  0  0  0
  140.7940   69.2040  227.7020 C   0  0  0  0  0  0  0  0  0  0  0  0
  141.2180   68.1640  229.0490 Cl  0  0  0  0  0  0  0  0  0  0  0  0
  141.0720   70.5750  227.7630 C   0  0  0  0  0  0  0  0  0  0  0  0
  140.7360   71.4090  226.6920 C   0  0  0  0  0  0  0  0  0  0  0  0
  140.1200   70.8750  225.5560 C   0  0  0  0  0  0  0  0  0  0  0  0
  139.7950   71.6820  224.5120 N   0  0  0  0  0  0  0  0  0  0  0  0
  137.8650   73.9480  222.7490 H   0  0  0  0  0  0  0  0  0  0  0  0
  141.6777   72.5255  220.4613 H   0  0  0  0  0  0  0  0  0  0  0  0
  139.5450   74.0390  223.0110 H   0  0  0  0  0  0  0  0  0  0  0  0
  140.4186   76.9569  220.6495 H   0  0  0  0  0  0  0  0  0  0  0  0
  141.7219   76.9146  221.8427 H   0  0  0  0  0  0  0  0  0  0  0  0
  143.3043   77.6492  220.2698 H   0  0  0  0  0  0  0  0  0  0  0  0
  142.5150   79.1160  219.1380 H   0  0  0  0  0  0  0  0  0  0  0  0
  142.1239   76.3108  217.8507 H   0  0  0  0  0  0  0  0  0  0  0  0
  143.7835   76.2191  218.4618 H   0  0  0  0  0  0  0  0  0  0  0  0
  141.8506   74.1838  218.7453 H   0  0  0  0  0  0  0  0  0  0  0  0
  142.9016   72.1770  219.1649 H   0  0  0  0  0  0  0  0  0  0  0  0
  144.9420   70.9312  219.8818 H   0  0  0  0  0  0  0  0  0  0  0  0
  146.8210   72.1414  220.9959 H   0  0  0  0  0  0  0  0  0  0  0  0
  146.6679   74.6025  221.3835 H   0  0  0  0  0  0  0  0  0  0  0  0
  144.6363   75.8561  220.6646 H   0  0  0  0  0  0  0  0  0  0  0  0
  138.4256   69.4385  222.3758 H   0  0  0  0  0  0  0  0  0  0  0  0
  138.9966   67.9085  224.2682 H   0  0  0  0  0  0  0  0  0  0  0  0
  139.9600   67.5848  226.5209 H   0  0  0  0  0  0  0  0  0  0  0  0
  141.5561   70.9972  228.6560 H   0  0  0  0  0  0  0  0  0  0  0  0
  140.9564   72.4855  226.7432 H   0  0  0  0  0  0  0  0  0  0  0  0
  1  2  1  0
  2  3  2  0
  3  4  1  0
  4  5  2  0
  5  6  1  0
  5  7  1  0
  7  8  1  0
  8  9  1  0
  9 10  1  0
  9 11  1  0
 11 12  1  0
 12 13  1  0
 13 14  2  0
 14 15  1  0
 15 16  2  0
 16 17  1  0
 17 18  2  0
  2 19  1  0
 19 20  2  0
 20 21  1  0
 21 22  2  0
 22 23  1  0
 23 24  2  0
 24 25  1  0
 24 26  1  0
 26 27  2  0
 27 28  1  0
 28 29  2  0
 12  7  1  0
 18 13  1  0
 29 19  1  0
 28 22  1  0
  1 30  1  0
  4 31  1  0
  6 32  1  0
  8 33  1  0
  8 34  1  0
  9 35  1  1
 10 36  1  0
 11 37  1  0
 11 38  1  0
 12 39  1  6
 14 40  1  0
 15 41  1  0
 16 42  1  0
 17 43  1  0
 18 44  1  0
 20 45  1  0
 21 46  1  0
 23 47  1  0
 26 48  1  0
 27 49  1  0
M  END
>  <meeko>  (14) 
{"free_energy": -8.25, "intermolecular_energy": -10.94, "internal_energy": -2.26, "cluster_size": 10, "cluster_id": 1, "rank_in_cluster": 5}

$$$$

     RDKit          3D

 49 52  0  0  0  0  0  0  0  0999 V2000
  138.4490   73.5460  220.7210 O   0  0  0  0  0  0  0  0  0  0  0  0
  139.4740   74.1210  221.4780 C   0  0  0  0  0  0  0  0  0  0  0  0
  140.2410   73.4160  222.2600 N   0  0  0  0  0  0  0  0  0  0  0  0
  141.3360   72.5740  221.8790 C   0  0  0  0  0  0  0  0  0  0  0  0
  141.6540   72.4360  220.5880 C   0  0  0  0  0  0  0  0  0  0  0  0
  140.7100   71.9590  219.6780 O   0  0  0  0  0  0  0  0  0  0  0  0
  142.9710   72.7550  220.1200 N   0  0  0  0  0  0  0  0  0  0  0  0
  143.8780   71.7540  219.5850 C   0  0  0  0  0  0  0  0  0  0  0  0
  145.1970   72.4900  219.3380 C   0  0  2  0  0  0  0  0  0  0  0  0
  146.3130   71.7260  219.7270 O   0  0  0  0  0  0  0  0  0  0  0  0
  145.1020   73.8160  220.1080 C   0  0  0  0  0  0  0  0  0  0  0  0
  143.6100   74.0350  220.3860 C   0  0  1  0  0  0  0  0  0  0  0  0
  143.0200   75.1100  219.4950 C   0  0  0  0  0  0  0  0  0  0  0  0
  143.3440   76.4600  219.7100 C   0  0  0  0  0  0  0  0  0  0  0  0
  142.7990   77.4570  218.8930 C   0  0  0  0  0  0  0  0  0  0  0  0
  141.9300   77.1130  217.8530 C   0  0  0  0  0  0  0  0  0  0  0  0
  141.6050   75.7740  217.6270 C   0  0  0  0  0  0  0  0  0  0  0  0
  142.1490   74.7750  218.4390 C   0  0  0  0  0  0  0  0  0  0  0  0
  139.7020   75.5760  221.3970 C   0  0  0  0  0  0  0  0  0  0  0  0
  139.1250   76.3470  220.3750 C   0  0  0  0  0  0  0  0  0  0  0  0
  139.3490   77.7240  220.3400 C   0  0  0  0  0  0  0  0  0  0  0  0
  140.1430   78.3290  221.3210 C   0  0  0  0  0  0  0  0  0  0  0  0
  140.3840   79.7110  221.3170 C   0  0  0  0  0  0  0  0  0  0  0  0
  141.1810   80.2840  222.3160 C   0  0  0  0  0  0  0  0  0  0  0  0
  141.4820   82.0130  222.3120 Cl  0  0  0  0  0  0  0  0  0  0  0  0
  141.7380   79.4810  223.3180 C   0  0  0  0  0  0  0  0  0  0  0  0
  141.5020   78.1030  223.3280 C   0  0  0  0  0  0  0  0  0  0  0  0
  140.7080   77.5230  222.3330 C   0  0  0  0  0  0  0  0  0  0  0  0
  140.4740   76.1840  222.3410 N   0  0  0  0  0  0  0  0  0  0  0  0
  138.6030   72.9390  219.9280 H   0  0  0  0  0  0  0  0  0  0  0  0
  141.9145   72.0416  222.6483 H   0  0  0  0  0  0  0  0  0  0  0  0
  139.7160   71.9790  219.8740 H   0  0  0  0  0  0  0  0  0  0  0  0
  144.0221   70.9389  220.3095 H   0  0  0  0  0  0  0  0  0  0  0  0
  143.4859   71.2976  218.6641 H   0  0  0  0  0  0  0  0  0  0  0  0
  145.3464   72.6738  218.2638 H   0  0  0  0  0  0  0  0  0  0  0  0
  146.2410   71.5550  220.7030 H   0  0  0  0  0  0  0  0  0  0  0  0
  145.6616   73.7507  221.0528 H   0  0  0  0  0  0  0  0  0  0  0  0
  145.5319   74.6489  219.5322 H   0  0  0  0  0  0  0  0  0  0  0  0
  143.4529   74.3753  221.4202 H   0  0  0  0  0  0  0  0  0  0  0  0
  144.0298   76.7349  220.5250 H   0  0  0  0  0  0  0  0  0  0  0  0
  143.0545   78.5123  219.0692 H   0  0  0  0  0  0  0  0  0  0  0  0
  141.5020   77.8980  217.2122 H   0  0  0  0  0  0  0  0  0  0  0  0
  140.9202   75.5052  216.8092 H   0  0  0  0  0  0  0  0  0  0  0  0
  141.8958   73.7209  218.2527 H   0  0  0  0  0  0  0  0  0  0  0  0
  138.5001   75.8684  219.6066 H   0  0  0  0  0  0  0  0  0  0  0  0
  138.9015   78.3339  219.5414 H   0  0  0  0  0  0  0  0  0  0  0  0
  139.9475   80.3438  220.5302 H   0  0  0  0  0  0  0  0  0  0  0  0
  142.3636   79.9357  224.1003 H   0  0  0  0  0  0  0  0  0  0  0  0
  141.9404   77.4753  224.1178 H   0  0  0  0  0  0  0  0  0  0  0  0
  1  2  1  0
  2  3  2  0
  3  4  1  0
  4  5  2  0
  5  6  1  0
  5  7  1  0
  7  8  1  0
  8  9  1  0
  9 10  1  0
  9 11  1  0
 11 12  1  0
 12 13  1  0
 13 14  2  0
 14 15  1  0
 15 16  2  0
 16 17  1  0
 17 18  2  0
  2 19  1  0
 19 20  2  0
 20 21  1  0
 21 22  2  0
 22 23  1  0
 23 24  2  0
 24 25  1  0
 24 26  1  0
 26 27  2  0
 27 28  1  0
 28 29  2  0
 12  7  1  0
 18 13  1  0
 29 19  1  0
 28 22  1  0
  1 30  1  0
  4 31  1  0
  6 32  1  0
  8 33  1  0
  8 34  1  0
  9 35  1  6
 10 36  1  0
 11 37  1  0
 11 38  1  0
 12 39  1  1
 14 40  1  0
 15 41  1  0
 16 42  1  0
 17 43  1  0
 18 44  1  0
 20 45  1  0
 21 46  1  0
 23 47  1  0
 26 48  1  0
 27 49  1  0
M  END
>  <meeko>  (15) 
{"free_energy": -5.81, "intermolecular_energy": -8.5, "internal_energy": -3.44, "cluster_size": 2, "cluster_id": 4, "rank_in_cluster": 2}

$$$$

     RDKit          3D

 49 52  0  0  0  0  0  0  0  0999 V2000
  139.2230   74.6190  222.2500 O   0  0  0  0  0  0  0  0  0  0  0  0
  139.3060   73.2760  221.8660 C   0  0  0  0  0  0  0  0  0  0  0  0
  139.3840   72.9140  220.6180 N   0  0  0  0  0  0  0  0  0  0  0  0
  140.5710   72.6700  219.8530 C   0  0  0  0  0  0  0  0  0  0  0  0
  141.6510   72.1530  220.4460 C   0  0  0  0  0  0  0  0  0  0  0  0
  141.5160   71.1380  221.3940 O   0  0  0  0  0  0  0  0  0  0  0  0
  142.9620   72.6420  220.1350 N   0  0  0  0  0  0  0  0  0  0  0  0
  143.9080   71.8940  219.3250 C   0  0  0  0  0  0  0  0  0  0  0  0
  145.2050   72.7070  219.3590 C   0  0  2  0  0  0  0  0  0  0  0  0
  146.3410   71.8910  219.5050 O   0  0  0  0  0  0  0  0  0  0  0  0
  145.0560   73.7090  220.5140 C   0  0  0  0  0  0  0  0  0  0  0  0
  143.5550   73.7840  220.8150 C   0  0  1  0  0  0  0  0  0  0  0  0
  142.9390   75.0730  220.3060 C   0  0  0  0  0  0  0  0  0  0  0  0
  141.7710   75.5790  220.9020 C   0  0  0  0  0  0  0  0  0  0  0  0
  141.1960   76.7660  220.4340 C   0  0  0  0  0  0  0  0  0  0  0  0
  141.7840   77.4580  219.3710 C   0  0  0  0  0  0  0  0  0  0  0  0
  142.9480   76.9670  218.7750 C   0  0  0  0  0  0  0  0  0  0  0  0
  143.5260   75.7830  219.2400 C   0  0  0  0  0  0  0  0  0  0  0  0
  139.3030   72.2280  222.9030 C   0  0  0  0  0  0  0  0  0  0  0  0
  138.3610   71.1870  222.8840 C   0  0  0  0  0  0  0  0  0  0  0  0
  138.3990   70.2030  223.8740 C   0  0  0  0  0  0  0  0  0  0  0  0
  139.3750   70.2580  224.8760 C   0  0  0  0  0  0  0  0  0  0  0  0
  139.4430   69.2830  225.8820 C   0  0  0  0  0  0  0  0  0  0  0  0
  140.4340   69.3640  226.8680 C   0  0  0  0  0  0  0  0  0  0  0  0
  140.5210   68.1450  228.1260 Cl  0  0  0  0  0  0  0  0  0  0  0  0
  141.3560   70.4180  226.8530 C   0  0  0  0  0  0  0  0  0  0  0  0
  141.2920   71.3940  225.8530 C   0  0  0  0  0  0  0  0  0  0  0  0
  140.3050   71.3190  224.8650 C   0  0  0  0  0  0  0  0  0  0  0  0
  140.2420   72.2640  223.8900 N   0  0  0  0  0  0  0  0  0  0  0  0
  138.8610   74.9310  223.1390 H   0  0  0  0  0  0  0  0  0  0  0  0
  140.5930   72.9080  218.7793 H   0  0  0  0  0  0  0  0  0  0  0  0
  141.3130   71.3360  222.3670 H   0  0  0  0  0  0  0  0  0  0  0  0
  144.0705   70.8924  219.7496 H   0  0  0  0  0  0  0  0  0  0  0  0
  143.5424   71.7501  218.2976 H   0  0  0  0  0  0  0  0  0  0  0  0
  145.3610   73.2323  218.4052 H   0  0  0  0  0  0  0  0  0  0  0  0
  146.3300   71.5140  220.4240 H   0  0  0  0  0  0  0  0  0  0  0  0
  145.6065   73.3572  221.3990 H   0  0  0  0  0  0  0  0  0  0  0  0
  145.4640   74.6953  220.2479 H   0  0  0  0  0  0  0  0  0  0  0  0
  143.3751   73.7663  221.9000 H   0  0  0  0  0  0  0  0  0  0  0  0
  141.3065   75.0393  221.7405 H   0  0  0  0  0  0  0  0  0  0  0  0
  140.2803   77.1550  220.9031 H   0  0  0  0  0  0  0  0  0  0  0  0
  141.3296   78.3900  219.0036 H   0  0  0  0  0  0  0  0  0  0  0  0
  143.4098   77.5128  217.9391 H   0  0  0  0  0  0  0  0  0  0  0  0
  144.4453   75.4027  218.7708 H   0  0  0  0  0  0  0  0  0  0  0  0
  137.5972   71.1468  222.0935 H   0  0  0  0  0  0  0  0  0  0  0  0
  137.6629   69.3856  223.8665 H   0  0  0  0  0  0  0  0  0  0  0  0
  138.7185   68.4554  225.8964 H   0  0  0  0  0  0  0  0  0  0  0  0
  142.1326   70.4785  227.6297 H   0  0  0  0  0  0  0  0  0  0  0  0
  142.0179   72.2204  225.8437 H   0  0  0  0  0  0  0  0  0  0  0  0
  1  2  1  0
  2  3  2  0
  3  4  1  0
  4  5  2  0
  5  6  1  0
  5  7  1  0
  7  8  1  0
  8  9  1  0
  9 10  1  0
  9 11  1  0
 11 12  1  0
 12 13  1  0
 13 14  2  0
 14 15  1  0
 15 16  2  0
 16 17  1  0
 17 18  2  0
  2 19  1  0
 19 20  2  0
 20 21  1  0
 21 22  2  0
 22 23  1  0
 23 24  2  0
 24 25  1  0
 24 26  1  0
 26 27  2  0
 27 28  1  0
 28 29  2  0
 12  7  1  0
 18 13  1  0
 29 19  1  0
 28 22  1  0
  1 30  1  0
  4 31  1  0
  6 32  1  0
  8 33  1  0
  8 34  1  0
  9 35  1  6
 10 36  1  0
 11 37  1  0
 11 38  1  0
 12 39  1  1
 14 40  1  0
 15 41  1  0
 16 42  1  0
 17 43  1  0
 18 44  1  0
 20 45  1  0
 21 46  1  0
 23 47  1  0
 26 48  1  0
 27 49  1  0
M  END
>  <meeko>  (16) 
{"free_energy": -7.32, "intermolecular_energy": -10.01, "internal_energy": -2.17, "cluster_size": 5, "cluster_id": 3, "rank_in_cluster": 5}

$$$$

     RDKit          3D

 49 52  0  0  0  0  0  0  0  0999 V2000
  139.4250   73.5510  222.3830 O   0  0  0  0  0  0  0  0  0  0  0  0
  139.7780   74.1760  221.1830 C   0  0  0  0  0  0  0  0  0  0  0  0
  139.8730   73.5220  220.0610 N   0  0  0  0  0  0  0  0  0  0  0  0
  140.9850   72.7470  219.5950 C   0  0  0  0  0  0  0  0  0  0  0  0
  141.9940   72.4640  220.4230 C   0  0  0  0  0  0  0  0  0  0  0  0
  141.7400   71.9240  221.6840 O   0  0  0  0  0  0  0  0  0  0  0  0
  143.3510   72.7280  220.0420 N   0  0  0  0  0  0  0  0  0  0  0  0
  144.2620   71.6840  219.6060 C   0  0  0  0  0  0  0  0  0  0  0  0
  145.6170   72.3730  219.4320 C   0  0  2  0  0  0  0  0  0  0  0  0
  146.6780   71.5910  219.9240 O   0  0  0  0  0  0  0  0  0  0  0  0
  145.5090   73.7260  220.1510 C   0  0  0  0  0  0  0  0  0  0  0  0
  144.0090   73.9970  220.3130 C   0  0  1  0  0  0  0  0  0  0  0  0
  143.5180   75.0580  219.3470 C   0  0  0  0  0  0  0  0  0  0  0  0
  143.1670   74.7060  218.0330 C   0  0  0  0  0  0  0  0  0  0  0  0
  142.7160   75.6820  217.1370 C   0  0  0  0  0  0  0  0  0  0  0  0
  142.6090   77.0140  217.5470 C   0  0  0  0  0  0  0  0  0  0  0  0
  142.9490   77.3740  218.8530 C   0  0  0  0  0  0  0  0  0  0  0  0
  143.3970   76.4020  219.7510 C   0  0  0  0  0  0  0  0  0  0  0  0
  140.0570   75.6240  221.1780 C   0  0  0  0  0  0  0  0  0  0  0  0
  139.7030   76.4300  220.0840 C   0  0  0  0  0  0  0  0  0  0  0  0
  139.9690   77.8000  220.1210 C   0  0  0  0  0  0  0  0  0  0  0  0
  140.5820   78.3630  221.2470 C   0  0  0  0  0  0  0  0  0  0  0  0
  140.8580   79.7360  221.3190 C   0  0  0  0  0  0  0  0  0  0  0  0
  141.4690   80.2680  222.4610 C   0  0  0  0  0  0  0  0  0  0  0  0
  141.8140   81.9850  222.5510 Cl  0  0  0  0  0  0  0  0  0  0  0  0
  141.8060   79.4310  223.5320 C   0  0  0  0  0  0  0  0  0  0  0  0
  141.5350   78.0610  223.4660 C   0  0  0  0  0  0  0  0  0  0  0  0
  140.9250   77.5230  222.3280 C   0  0  0  0  0  0  0  0  0  0  0  0
  140.6560   76.1920  222.2620 N   0  0  0  0  0  0  0  0  0  0  0  0
  138.8170   73.9620  223.0770 H   0  0  0  0  0  0  0  0  0  0  0  0
  141.0074   72.3856  218.5563 H   0  0  0  0  0  0  0  0  0  0  0  0
  140.8550   72.0600  222.1590 H   0  0  0  0  0  0  0  0  0  0  0  0
  144.3286   70.8901  220.3644 H   0  0  0  0  0  0  0  0  0  0  0  0
  143.9226   71.2082  218.6741 H   0  0  0  0  0  0  0  0  0  0  0  0
  145.8479   72.5164  218.3661 H   0  0  0  0  0  0  0  0  0  0  0  0
  146.5900   71.5430  220.9130 H   0  0  0  0  0  0  0  0  0  0  0  0
  145.9973   73.6762  221.1354 H   0  0  0  0  0  0  0  0  0  0  0  0
  146.0049   74.5264  219.5822 H   0  0  0  0  0  0  0  0  0  0  0  0
  143.7891   74.3764  221.3218 H   0  0  0  0  0  0  0  0  0  0  0  0
  143.2470   73.6585  217.7069 H   0  0  0  0  0  0  0  0  0  0  0  0
  142.4454   75.4005  216.1087 H   0  0  0  0  0  0  0  0  0  0  0  0
  142.2566   77.7797  216.8402 H   0  0  0  0  0  0  0  0  0  0  0  0
  142.8641   78.4226  219.1744 H   0  0  0  0  0  0  0  0  0  0  0  0
  143.6571   76.6883  220.7808 H   0  0  0  0  0  0  0  0  0  0  0  0
  139.2187   75.9843  219.2026 H   0  0  0  0  0  0  0  0  0  0  0  0
  139.6972   78.4367  219.2662 H   0  0  0  0  0  0  0  0  0  0  0  0
  140.5946   80.3949  220.4785 H   0  0  0  0  0  0  0  0  0  0  0  0
  142.2853   79.8527  224.4278 H   0  0  0  0  0  0  0  0  0  0  0  0
  141.8014   77.4063  224.3088 H   0  0  0  0  0  0  0  0  0  0  0  0
  1  2  1  0
  2  3  2  0
  3  4  1  0
  4  5  2  0
  5  6  1  0
  5  7  1  0
  7  8  1  0
  8  9  1  0
  9 10  1  0
  9 11  1  0
 11 12  1  0
 12 13  1  0
 13 14  2  0
 14 15  1  0
 15 16  2  0
 16 17  1  0
 17 18  2  0
  2 19  1  0
 19 20  2  0
 20 21  1  0
 21 22  2  0
 22 23  1  0
 23 24  2  0
 24 25  1  0
 24 26  1  0
 26 27  2  0
 27 28  1  0
 28 29  2  0
 12  7  1  0
 18 13  1  0
 29 19  1  0
 28 22  1  0
  1 30  1  0
  4 31  1  0
  6 32  1  0
  8 33  1  0
  8 34  1  0
  9 35  1  6
 10 36  1  0
 11 37  1  0
 11 38  1  0
 12 39  1  1
 14 40  1  0
 15 41  1  0
 16 42  1  0
 17 43  1  0
 18 44  1  0
 20 45  1  0
 21 46  1  0
 23 47  1  0
 26 48  1  0
 27 49  1  0
M  END
>  <meeko>  (17) 
{"free_energy": -6.32, "intermolecular_energy": -9.0, "internal_energy": -3.17, "cluster_size": 2, "cluster_id": 4, "rank_in_cluster": 1}

$$$$

     RDKit          3D

 49 52  0  0  0  0  0  0  0  0999 V2000
  138.6160   71.8310  221.0640 O   0  0  0  0  0  0  0  0  0  0  0  0
  139.3520   72.2350  222.1830 C   0  0  0  0  0  0  0  0  0  0  0  0
  139.8760   73.4230  222.2790 N   0  0  0  0  0  0  0  0  0  0  0  0
  141.0340   73.9230  221.5990 C   0  0  0  0  0  0  0  0  0  0  0  0
  141.4470   73.3410  220.4690 C   0  0  0  0  0  0  0  0  0  0  0  0
  140.5520   72.6090  219.6870 O   0  0  0  0  0  0  0  0  0  0  0  0
  142.8150   73.4380  220.0520 N   0  0  0  0  0  0  0  0  0  0  0  0
  143.5630   72.3030  219.5400 C   0  0  0  0  0  0  0  0  0  0  0  0
  144.9940   72.8110  219.3490 C   0  0  2  0  0  0  0  0  0  0  0  0
  145.9530   71.8720  219.7700 O   0  0  0  0  0  0  0  0  0  0  0  0
  145.0910   74.1320  220.1280 C   0  0  0  0  0  0  0  0  0  0  0  0
  143.6460   74.5930  220.3540 C   0  0  1  0  0  0  0  0  0  0  0  0
  143.2750   75.7550  219.4520 C   0  0  0  0  0  0  0  0  0  0  0  0
  142.5710   76.8540  219.9730 C   0  0  0  0  0  0  0  0  0  0  0  0
  142.2230   77.9260  219.1440 C   0  0  0  0  0  0  0  0  0  0  0  0
  142.5780   77.9120  217.7920 C   0  0  0  0  0  0  0  0  0  0  0  0
  143.2830   76.8270  217.2660 C   0  0  0  0  0  0  0  0  0  0  0  0
  143.6350   75.7550  218.0900 C   0  0  0  0  0  0  0  0  0  0  0  0
  139.5490   71.2880  223.2970 C   0  0  0  0  0  0  0  0  0  0  0  0
  139.1950   69.9350  223.1730 C   0  0  0  0  0  0  0  0  0  0  0  0
  139.4110   69.0640  224.2430 C   0  0  0  0  0  0  0  0  0  0  0  0
  139.9800   69.5420  225.4290 C   0  0  0  0  0  0  0  0  0  0  0  0
  140.2150   68.6930  226.5200 C   0  0  0  0  0  0  0  0  0  0  0  0
  140.7890   69.2020  227.6920 C   0  0  0  0  0  0  0  0  0  0  0  0
  141.0830   68.1410  229.0570 Cl  0  0  0  0  0  0  0  0  0  0  0  0
  141.1290   70.5580  227.7750 C   0  0  0  0  0  0  0  0  0  0  0  0
  140.8970   71.4100  226.6910 C   0  0  0  0  0  0  0  0  0  0  0  0
  140.3230   70.9080  225.5180 C   0  0  0  0  0  0  0  0  0  0  0  0
  140.0990   71.7330  224.4610 N   0  0  0  0  0  0  0  0  0  0  0  0
  138.9840   71.2500  220.3250 H   0  0  0  0  0  0  0  0  0  0  0  0
  141.5825   74.7850  222.0066 H   0  0  0  0  0  0  0  0  0  0  0  0
  139.5590   72.5840  219.8870 H   0  0  0  0  0  0  0  0  0  0  0  0
  143.5427   71.4722  220.2606 H   0  0  0  0  0  0  0  0  0  0  0  0
  143.1357   71.9221  218.6007 H   0  0  0  0  0  0  0  0  0  0  0  0
  145.2117   72.9711  218.2827 H   0  0  0  0  0  0  0  0  0  0  0  0
  145.6530   71.4990  220.6410 H   0  0  0  0  0  0  0  0  0  0  0  0
  145.5968   73.9718  221.0916 H   0  0  0  0  0  0  0  0  0  0  0  0
  145.6737   74.8845  219.5765 H   0  0  0  0  0  0  0  0  0  0  0  0
  143.5087   74.9500  221.3853 H   0  0  0  0  0  0  0  0  0  0  0  0
  142.2924   76.8715  221.0370 H   0  0  0  0  0  0  0  0  0  0  0  0
  141.6688   78.7817  219.5570 H   0  0  0  0  0  0  0  0  0  0  0  0
  142.3021   78.7556  217.1423 H   0  0  0  0  0  0  0  0  0  0  0  0
  143.5614   76.8165  216.2019 H   0  0  0  0  0  0  0  0  0  0  0  0
  144.1965   74.9061  217.6728 H   0  0  0  0  0  0  0  0  0  0  0  0
  138.7500   69.5631  222.2383 H   0  0  0  0  0  0  0  0  0  0  0  0
  139.1342   68.0032  224.1538 H   0  0  0  0  0  0  0  0  0  0  0  0
  139.9487   67.6277  226.4555 H   0  0  0  0  0  0  0  0  0  0  0  0
  141.5803   70.9543  228.6966 H   0  0  0  0  0  0  0  0  0  0  0  0
  141.1656   72.4744  226.7604 H   0  0  0  0  0  0  0  0  0  0  0  0
  1  2  1  0
  2  3  2  0
  3  4  1  0
  4  5  2  0
  5  6  1  0
  5  7  1  0
  7  8  1  0
  8  9  1  0
  9 10  1  0
  9 11  1  0
 11 12  1  0
 12 13  1  0
 13 14  2  0
 14 15  1  0
 15 16  2  0
 16 17  1  0
 17 18  2  0
  2 19  1  0
 19 20  2  0
 20 21  1  0
 21 22  2  0
 22 23  1  0
 23 24  2  0
 24 25  1  0
 24 26  1  0
 26 27  2  0
 27 28  1  0
 28 29  2  0
 12  7  1  0
 18 13  1  0
 29 19  1  0
 28 22  1  0
  1 30  1  0
  4 31  1  0
  6 32  1  0
  8 33  1  0
  8 34  1  0
  9 35  1  6
 10 36  1  0
 11 37  1  0
 11 38  1  0
 12 39  1  1
 14 40  1  0
 15 41  1  0
 16 42  1  0
 17 43  1  0
 18 44  1  0
 20 45  1  0
 21 46  1  0
 23 47  1  0
 26 48  1  0
 27 49  1  0
M  END
>  <meeko>  (18) 
{"free_energy": -7.5, "intermolecular_energy": -10.19, "internal_energy": -2.38, "cluster_size": 5, "cluster_id": 3, "rank_in_cluster": 3}

$$$$

     RDKit          3D

 49 52  0  0  0  0  0  0  0  0999 V2000
  139.5930   74.1450  222.3480 O   0  0  0  0  0  0  0  0  0  0  0  0
  139.7330   72.7960  222.0050 C   0  0  0  0  0  0  0  0  0  0  0  0
  139.8100   72.3990  220.7680 N   0  0  0  0  0  0  0  0  0  0  0  0
  140.9020   71.7180  220.1360 C   0  0  0  0  0  0  0  0  0  0  0  0
  141.6200   72.3400  219.1960 C   0  0  0  0  0  0  0  0  0  0  0  0
  141.1060   72.4990  217.9090 O   0  0  0  0  0  0  0  0  0  0  0  0
  142.9350   72.8330  219.4850 N   0  0  0  0  0  0  0  0  0  0  0  0
  144.1350   72.2570  218.9020 C   0  0  0  0  0  0  0  0  0  0  0  0
  145.3020   72.9840  219.5760 C   0  0  2  0  0  0  0  0  0  0  0  0
  146.3520   72.1090  219.9100 O   0  0  0  0  0  0  0  0  0  0  0  0
  144.7180   73.6900  220.8080 C   0  0  0  0  0  0  0  0  0  0  0  0
  143.2040   73.7560  220.5770 C   0  0  1  0  0  0  0  0  0  0  0  0
  142.7480   75.1540  220.2050 C   0  0  0  0  0  0  0  0  0  0  0  0
  141.6850   75.7560  220.9000 C   0  0  0  0  0  0  0  0  0  0  0  0
  141.2580   77.0440  220.5580 C   0  0  0  0  0  0  0  0  0  0  0  0
  141.8890   77.7410  219.5240 C   0  0  0  0  0  0  0  0  0  0  0  0
  142.9500   77.1540  218.8310 C   0  0  0  0  0  0  0  0  0  0  0  0
  143.3820   75.8680  219.1700 C   0  0  0  0  0  0  0  0  0  0  0  0
  139.7940   71.7830  223.0740 C   0  0  0  0  0  0  0  0  0  0  0  0
  139.3390   70.4710  222.8610 C   0  0  0  0  0  0  0  0  0  0  0  0
  139.4280   69.5340  223.8920 C   0  0  0  0  0  0  0  0  0  0  0  0
  139.9700   69.9040  225.1280 C   0  0  0  0  0  0  0  0  0  0  0  0
  140.0780   68.9850  226.1830 C   0  0  0  0  0  0  0  0  0  0  0  0
  140.6290   69.3870  227.4060 C   0  0  0  0  0  0  0  0  0  0  0  0
  140.7640   68.2380  228.7250 Cl  0  0  0  0  0  0  0  0  0  0  0  0
  141.0720   70.7040  227.5790 C   0  0  0  0  0  0  0  0  0  0  0  0
  140.9670   71.6240  226.5320 C   0  0  0  0  0  0  0  0  0  0  0  0
  140.4170   71.2300  225.3080 C   0  0  0  0  0  0  0  0  0  0  0  0
  140.3160   72.1220  224.2860 N   0  0  0  0  0  0  0  0  0  0  0  0
  139.2250   74.4690  223.2320 H   0  0  0  0  0  0  0  0  0  0  0  0
  141.1484   70.6854  220.4243 H   0  0  0  0  0  0  0  0  0  0  0  0
  140.1110   72.4670  217.7190 H   0  0  0  0  0  0  0  0  0  0  0  0
  144.1832   71.1775  219.1079 H   0  0  0  0  0  0  0  0  0  0  0  0
  144.1560   72.3742  217.8085 H   0  0  0  0  0  0  0  0  0  0  0  0
  145.7559   73.7135  218.8891 H   0  0  0  0  0  0  0  0  0  0  0  0
  146.1960   71.7860  220.8370 H   0  0  0  0  0  0  0  0  0  0  0  0
  144.9412   73.1160  221.7194 H   0  0  0  0  0  0  0  0  0  0  0  0
  145.1500   74.6928  220.9411 H   0  0  0  0  0  0  0  0  0  0  0  0
  142.6587   73.4908  221.4948 H   0  0  0  0  0  0  0  0  0  0  0  0
  141.1866   75.2124  221.7162 H   0  0  0  0  0  0  0  0  0  0  0  0
  140.4239   77.5088  221.1042 H   0  0  0  0  0  0  0  0  0  0  0  0
  141.5498   78.7525  219.2558 H   0  0  0  0  0  0  0  0  0  0  0  0
  143.4463   77.7038  218.0177 H   0  0  0  0  0  0  0  0  0  0  0  0
  144.2216   75.4116  218.6252 H   0  0  0  0  0  0  0  0  0  0  0  0
  138.9151   70.1837  221.8875 H   0  0  0  0  0  0  0  0  0  0  0  0
  139.0722   68.5053  223.7329 H   0  0  0  0  0  0  0  0  0  0  0  0
  139.7302   67.9500  226.0494 H   0  0  0  0  0  0  0  0  0  0  0  0
  141.5039   71.0154  228.5415 H   0  0  0  0  0  0  0  0  0  0  0  0
  141.3168   72.6576  226.6707 H   0  0  0  0  0  0  0  0  0  0  0  0
  1  2  1  0
  2  3  2  0
  3  4  1  0
  4  5  2  0
  5  6  1  0
  5  7  1  0
  7  8  1  0
  8  9  1  0
  9 10  1  0
  9 11  1  0
 11 12  1  0
 12 13  1  0
 13 14  2  0
 14 15  1  0
 15 16  2  0
 16 17  1  0
 17 18  2  0
  2 19  1  0
 19 20  2  0
 20 21  1  0
 21 22  2  0
 22 23  1  0
 23 24  2  0
 24 25  1  0
 24 26  1  0
 26 27  2  0
 27 28  1  0
 28 29  2  0
 12  7  1  0
 18 13  1  0
 29 19  1  0
 28 22  1  0
  1 30  1  0
  4 31  1  0
  6 32  1  0
  8 33  1  0
  8 34  1  0
  9 35  1  6
 10 36  1  0
 11 37  1  0
 11 38  1  0
 12 39  1  1
 14 40  1  0
 15 41  1  0
 16 42  1  0
 17 43  1  0
 18 44  1  0
 20 45  1  0
 21 46  1  0
 23 47  1  0
 26 48  1  0
 27 49  1  0
M  END
>  <meeko>  (19) 
{"free_energy": -8.14, "intermolecular_energy": -10.82, "internal_energy": -1.5, "cluster_size": 5, "cluster_id": 3, "rank_in_cluster": 1}

$$$$

     RDKit          3D

 49 52  0  0  0  0  0  0  0  0999 V2000
  137.7950   72.9070  222.4100 O   0  0  0  0  0  0  0  0  0  0  0  0
  138.9110   72.0690  222.3070 C   0  0  0  0  0  0  0  0  0  0  0  0
  139.6900   72.0740  221.2640 N   0  0  0  0  0  0  0  0  0  0  0  0
  140.8200   72.9220  221.0240 C   0  0  0  0  0  0  0  0  0  0  0  0
  140.7560   74.2210  221.3320 C   0  0  0  0  0  0  0  0  0  0  0  0
  139.8890   74.6660  222.3300 O   0  0  0  0  0  0  0  0  0  0  0  0
  141.5590   75.1800  220.6320 N   0  0  0  0  0  0  0  0  0  0  0  0
  141.4510   76.6110  220.8610 C   0  0  0  0  0  0  0  0  0  0  0  0
  142.3740   77.2590  219.8250 C   0  0  2  0  0  0  0  0  0  0  0  0
  141.8000   78.4050  219.2460 O   0  0  0  0  0  0  0  0  0  0  0  0
  142.6850   76.1730  218.7840 C   0  0  0  0  0  0  0  0  0  0  0  0
  142.3430   74.8380  219.4550 C   0  0  1  0  0  0  0  0  0  0  0  0
  143.5890   74.0730  219.8610 C   0  0  0  0  0  0  0  0  0  0  0  0
  144.6580   74.7450  220.4760 C   0  0  0  0  0  0  0  0  0  0  0  0
  145.8110   74.0450  220.8490 C   0  0  0  0  0  0  0  0  0  0  0  0
  145.9030   72.6700  220.6140 C   0  0  0  0  0  0  0  0  0  0  0  0
  144.8430   71.9910  220.0090 C   0  0  0  0  0  0  0  0  0  0  0  0
  143.6890   72.6860  219.6370 C   0  0  0  0  0  0  0  0  0  0  0  0
  139.2210   71.1430  223.4120 C   0  0  0  0  0  0  0  0  0  0  0  0
  138.9320   69.7720  223.3160 C   0  0  0  0  0  0  0  0  0  0  0  0
  139.2550   68.9230  224.3760 C   0  0  0  0  0  0  0  0  0  0  0  0
  139.8650   69.4400  225.5250 C   0  0  0  0  0  0  0  0  0  0  0  0
  140.2070   68.6130  226.6060 C   0  0  0  0  0  0  0  0  0  0  0  0
  140.8200   69.1610  227.7390 C   0  0  0  0  0  0  0  0  0  0  0  0
  141.2480   68.1280  229.0900 Cl  0  0  0  0  0  0  0  0  0  0  0  0
  141.0920   70.5330  227.7960 C   0  0  0  0  0  0  0  0  0  0  0  0
  140.7540   71.3630  226.7220 C   0  0  0  0  0  0  0  0  0  0  0  0
  140.1410   70.8220  225.5870 C   0  0  0  0  0  0  0  0  0  0  0  0
  139.8130   71.6250  224.5410 N   0  0  0  0  0  0  0  0  0  0  0  0
  137.8350   73.8650  222.7270 H   0  0  0  0  0  0  0  0  0  0  0  0
  141.7389   72.5043  220.5868 H   0  0  0  0  0  0  0  0  0  0  0  0
  139.5110   74.0400  223.0320 H   0  0  0  0  0  0  0  0  0  0  0  0
  140.4136   76.9468  220.7158 H   0  0  0  0  0  0  0  0  0  0  0  0
  141.7339   76.8835  221.8885 H   0  0  0  0  0  0  0  0  0  0  0  0
  143.2994   77.6199  220.2976 H   0  0  0  0  0  0  0  0  0  0  0  0
  142.4760   79.1330  219.2730 H   0  0  0  0  0  0  0  0  0  0  0  0
  142.0691   76.3179  217.8842 H   0  0  0  0  0  0  0  0  0  0  0  0
  143.7376   76.2075  218.4663 H   0  0  0  0  0  0  0  0  0  0  0  0
  141.7941   74.1843  218.7612 H   0  0  0  0  0  0  0  0  0  0  0  0
  144.5887   75.8264  220.6653 H   0  0  0  0  0  0  0  0  0  0  0  0
  146.6460   74.5775  221.3278 H   0  0  0  0  0  0  0  0  0  0  0  0
  146.8112   72.1223  220.9059 H   0  0  0  0  0  0  0  0  0  0  0  0
  144.9165   70.9089  219.8253 H   0  0  0  0  0  0  0  0  0  0  0  0
  142.8538   72.1466  219.1664 H   0  0  0  0  0  0  0  0  0  0  0  0
  138.4539   69.3695  222.4108 H   0  0  0  0  0  0  0  0  0  0  0  0
  139.0303   67.8483  224.3084 H   0  0  0  0  0  0  0  0  0  0  0  0
  139.9935   67.5348  226.5631 H   0  0  0  0  0  0  0  0  0  0  0  0
  141.5731   70.9598  228.6884 H   0  0  0  0  0  0  0  0  0  0  0  0
  140.9701   72.4405  226.7699 H   0  0  0  0  0  0  0  0  0  0  0  0
  1  2  1  0
  2  3  2  0
  3  4  1  0
  4  5  2  0
  5  6  1  0
  5  7  1  0
  7  8  1  0
  8  9  1  0
  9 10  1  0
  9 11  1  0
 11 12  1  0
 12 13  1  0
 13 14  2  0
 14 15  1  0
 15 16  2  0
 16 17  1  0
 17 18  2  0
  2 19  1  0
 19 20  2  0
 20 21  1  0
 21 22  2  0
 22 23  1  0
 23 24  2  0
 24 25  1  0
 24 26  1  0
 26 27  2  0
 27 28  1  0
 28 29  2  0
 12  7  1  0
 18 13  1  0
 29 19  1  0
 28 22  1  0
  1 30  1  0
  4 31  1  0
  6 32  1  0
  8 33  1  0
  8 34  1  0
  9 35  1  1
 10 36  1  0
 11 37  1  0
 11 38  1  0
 12 39  1  6
 14 40  1  0
 15 41  1  0
 16 42  1  0
 17 43  1  0
 18 44  1  0
 20 45  1  0
 21 46  1  0
 23 47  1  0
 26 48  1  0
 27 49  1  0
M  END
>  <meeko>  (20) 
{"free_energy": -8.32, "intermolecular_energy": -11.01, "internal_energy": -2.25, "cluster_size": 10, "cluster_id": 1, "rank_in_cluster": 2}

$$$$
