
     RDKit          3D

 39 40  0  0  0  0  0  0  0  0999 V2000
  139.4730   79.7380  223.7050 C   0  0  0  0  0  0  0  0  0  0  0  0
  140.4530   79.3000  222.6090 C   0  0  0  0  0  0  0  0  0  0  0  0
  141.5010   80.3940  222.3740 C   0  0  0  0  0  0  0  0  0  0  0  0
  141.1450   77.9680  222.9570 C   0  0  0  0  0  0  0  0  0  0  0  0
  141.0380   77.0150  221.8560 N   0  0  0  0  0  0  0  0  0  0  0  0
  140.3640   75.7550  221.9530 C   0  0  0  0  0  0  0  0  0  0  0  0
  139.1990   75.6480  222.7150 O   0  0  0  0  0  0  0  0  0  0  0  0
  140.8520   74.6890  221.3150 C   0  0  0  0  0  0  0  0  0  0  0  0
  140.6880   73.3800  221.8750 N   0  0  0  0  0  0  0  0  0  0  0  0
  139.6190   72.8880  222.4360 C   0  0  0  0  0  0  0  0  0  0  0  0
  138.3310   73.3190  222.0980 O   0  0  0  0  0  0  0  0  0  0  0  0
  139.7760   71.8390  223.4630 C   0  0  0  0  0  0  0  0  0  0  0  0
  139.4430   70.5020  223.1880 C   0  0  0  0  0  0  0  0  0  0  0  0
  139.6020   69.5310  224.1800 C   0  0  0  0  0  0  0  0  0  0  0  0
  140.0930   69.8950  225.4390 C   0  0  0  0  0  0  0  0  0  0  0  0
  140.2660   68.9450  226.4570 C   0  0  0  0  0  0  0  0  0  0  0  0
  140.7590   69.3410  227.7060 C   0  0  0  0  0  0  0  0  0  0  0  0
  140.9750   68.1530  228.9790 Cl  0  0  0  0  0  0  0  0  0  0  0  0
  141.0810   70.6830  227.9410 C   0  0  0  0  0  0  0  0  0  0  0  0
  140.9120   71.6350  226.9310 C   0  0  0  0  0  0  0  0  0  0  0  0
  140.4190   71.2470  225.6800 C   0  0  0  0  0  0  0  0  0  0  0  0
  140.2530   72.1710  224.6960 N   0  0  0  0  0  0  0  0  0  0  0  0
  139.9152   79.5404  224.6926 H   0  0  0  0  0  0  0  0  0  0  0  0
  139.2670   80.8138  223.6041 H   0  0  0  0  0  0  0  0  0  0  0  0
  138.5341   79.1739  223.6041 H   0  0  0  0  0  0  0  0  0  0  0  0
  139.8743   79.1423  221.6869 H   0  0  0  0  0  0  0  0  0  0  0  0
  141.8616   80.7704  223.3426 H   0  0  0  0  0  0  0  0  0  0  0  0
  142.3452   79.9769  221.8054 H   0  0  0  0  0  0  0  0  0  0  0  0
  141.0481   81.2196  221.8054 H   0  0  0  0  0  0  0  0  0  0  0  0
  142.2083   78.1593  223.1642 H   0  0  0  0  0  0  0  0  0  0  0  0
  140.6496   77.5379  223.8399 H   0  0  0  0  0  0  0  0  0  0  0  0
  139.0440   74.8750  223.3530 H   0  0  0  0  0  0  0  0  0  0  0  0
  141.3805   74.8153  220.3586 H   0  0  0  0  0  0  0  0  0  0  0  0
  137.7940   73.9850  222.6340 H   0  0  0  0  0  0  0  0  0  0  0  0
  139.0589   70.2210  222.1963 H   0  0  0  0  0  0  0  0  0  0  0  0
  139.3418   68.4827  223.9719 H   0  0  0  0  0  0  0  0  0  0  0  0
  140.0145   67.8899  226.2738 H   0  0  0  0  0  0  0  0  0  0  0  0
  141.4684   70.9896  228.9238 H   0  0  0  0  0  0  0  0  0  0  0  0
  141.1664   72.6884  227.1196 H   0  0  0  0  0  0  0  0  0  0  0  0
  1  2  1  0
  2  3  1  0
  2  4  1  0
  4  5  1  0
  5  6  1  0
  6  7  1  0
  6  8  2  0
  8  9  1  0
  9 10  2  0
 10 11  1  0
 10 12  1  0
 12 13  2  0
 13 14  1  0
 14 15  2  0
 15 16  1  0
 16 17  2  0
 17 18  1  0
 17 19  1  0
 19 20  2  0
 20 21  1  0
 21 22  2  0
 22 12  1  0
 21 15  1  0
  1 23  1  0
  1 24  1  0
  1 25  1  0
  2 26  1  0
  3 27  1  0
  3 28  1  0
  3 29  1  0
  4 30  1  0
  4 31  1  0
  7 32  1  0
  8 33  1  0
 11 34  1  0
 13 35  1  0
 14 36  1  0
 16 37  1  0
 19 38  1  0
 20 39  1  0
M  CHG  1   5  -1
M  END
>  <meeko>  (1) 
{"free_energy": -6.01, "intermolecular_energy": -8.69, "internal_energy": -1.73, "cluster_size": 11, "cluster_id": 1, "rank_in_cluster": 5}

$$$$

     RDKit          3D

 39 40  0  0  0  0  0  0  0  0999 V2000
  142.2170   79.3390  223.4080 C   0  0  0  0  0  0  0  0  0  0  0  0
  141.1160   78.4130  222.8750 C   0  0  0  0  0  0  0  0  0  0  0  0
  139.7380   79.0360  223.1250 C   0  0  0  0  0  0  0  0  0  0  0  0
  141.2980   78.1100  221.3740 C   0  0  0  0  0  0  0  0  0  0  0  0
  140.5080   76.9510  220.9710 N   0  0  0  0  0  0  0  0  0  0  0  0
  140.3940   75.7530  221.7470 C   0  0  0  0  0  0  0  0  0  0  0  0
  139.3770   75.6350  222.6970 O   0  0  0  0  0  0  0  0  0  0  0  0
  141.2590   74.7550  221.5600 C   0  0  0  0  0  0  0  0  0  0  0  0
  140.7930   73.4000  221.5000 N   0  0  0  0  0  0  0  0  0  0  0  0
  139.7040   72.9160  222.0280 C   0  0  0  0  0  0  0  0  0  0  0  0
  138.4290   73.3270  221.6230 O   0  0  0  0  0  0  0  0  0  0  0  0
  139.8230   71.8970  223.0890 C   0  0  0  0  0  0  0  0  0  0  0  0
  139.4250   70.5680  222.8650 C   0  0  0  0  0  0  0  0  0  0  0  0
  139.5490   69.6260  223.8890 C   0  0  0  0  0  0  0  0  0  0  0  0
  140.0710   70.0090  225.1300 C   0  0  0  0  0  0  0  0  0  0  0  0
  140.2110   69.0880  226.1780 C   0  0  0  0  0  0  0  0  0  0  0  0
  140.7370   69.5030  227.4080 C   0  0  0  0  0  0  0  0  0  0  0  0
  140.9110   68.3510  228.7200 Cl  0  0  0  0  0  0  0  0  0  0  0  0
  141.1230   70.8350  227.5930 C   0  0  0  0  0  0  0  0  0  0  0  0
  140.9880   71.7590  226.5510 C   0  0  0  0  0  0  0  0  0  0  0  0
  140.4630   71.3520  225.3200 C   0  0  0  0  0  0  0  0  0  0  0  0
  140.3290   72.2480  224.3060 N   0  0  0  0  0  0  0  0  0  0  0  0
  142.2044   79.3284  224.5079 H   0  0  0  0  0  0  0  0  0  0  0  0
  143.1961   78.9889  223.0491 H   0  0  0  0  0  0  0  0  0  0  0  0
  142.0399   80.3636  223.0491 H   0  0  0  0  0  0  0  0  0  0  0  0
  141.1903   77.4591  223.4177 H   0  0  0  0  0  0  0  0  0  0  0  0
  139.5625   79.1153  224.2080 H   0  0  0  0  0  0  0  0  0  0  0  0
  139.7013   80.0383  222.6732 H   0  0  0  0  0  0  0  0  0  0  0  0
  138.9613   78.4015  222.6732 H   0  0  0  0  0  0  0  0  0  0  0  0
  140.9762   78.9846  220.7896 H   0  0  0  0  0  0  0  0  0  0  0  0
  142.3597   77.8898  221.1889 H   0  0  0  0  0  0  0  0  0  0  0  0
  139.1250   74.7420  223.1060 H   0  0  0  0  0  0  0  0  0  0  0  0
  142.3320   74.9717  221.4516 H   0  0  0  0  0  0  0  0  0  0  0  0
  138.1410   74.2900  221.5350 H   0  0  0  0  0  0  0  0  0  0  0  0
  139.0176   70.2708  221.8874 H   0  0  0  0  0  0  0  0  0  0  0  0
  139.2369   68.5848  223.7204 H   0  0  0  0  0  0  0  0  0  0  0  0
  139.9080   68.0404  226.0343 H   0  0  0  0  0  0  0  0  0  0  0  0
  141.5341   71.1570  228.5611 H   0  0  0  0  0  0  0  0  0  0  0  0
  141.2946   72.8049  226.6998 H   0  0  0  0  0  0  0  0  0  0  0  0
  1  2  1  0
  2  3  1  0
  2  4  1  0
  4  5  1  0
  5  6  1  0
  6  7  1  0
  6  8  2  0
  8  9  1  0
  9 10  2  0
 10 11  1  0
 10 12  1  0
 12 13  2  0
 13 14  1  0
 14 15  2  0
 15 16  1  0
 16 17  2  0
 17 18  1  0
 17 19  1  0
 19 20  2  0
 20 21  1  0
 21 22  2  0
 22 12  1  0
 21 15  1  0
  1 23  1  0
  1 24  1  0
  1 25  1  0
  2 26  1  0
  3 27  1  0
  3 28  1  0
  3 29  1  0
  4 30  1  0
  4 31  1  0
  7 32  1  0
  8 33  1  0
 11 34  1  0
 13 35  1  0
 14 36  1  0
 16 37  1  0
 19 38  1  0
 20 39  1  0
M  CHG  1   5  -1
M  END
>  <meeko>  (2) 
{"free_energy": -5.58, "intermolecular_energy": -8.26, "internal_energy": -2.01, "cluster_size": 11, "cluster_id": 1, "rank_in_cluster": 11}

$$$$

     RDKit          3D

 39 40  0  0  0  0  0  0  0  0999 V2000
  143.7740   68.4750  219.3680 C   0  0  0  0  0  0  0  0  0  0  0  0
  145.2910   68.6970  219.3380 C   0  0  0  0  0  0  0  0  0  0  0  0
  145.9910   67.4610  218.7620 C   0  0  0  0  0  0  0  0  0  0  0  0
  145.6720   69.9510  218.5260 C   0  0  0  0  0  0  0  0  0  0  0  0
  146.3220   70.9480  219.3710 N   0  0  0  0  0  0  0  0  0  0  0  0
  145.8510   72.2910  219.5280 C   0  0  0  0  0  0  0  0  0  0  0  0
  146.1330   73.2450  218.5480 O   0  0  0  0  0  0  0  0  0  0  0  0
  145.1470   72.6270  220.6100 C   0  0  0  0  0  0  0  0  0  0  0  0
  144.4450   73.8760  220.6530 N   0  0  0  0  0  0  0  0  0  0  0  0
  143.6590   74.3720  219.7390 C   0  0  0  0  0  0  0  0  0  0  0  0
  143.5950   73.8490  218.4420 O   0  0  0  0  0  0  0  0  0  0  0  0
  142.8070   75.5260  220.0880 C   0  0  0  0  0  0  0  0  0  0  0  0
  143.0060   76.7800  219.4860 C   0  0  0  0  0  0  0  0  0  0  0  0
  142.1840   77.8540  219.8360 C   0  0  0  0  0  0  0  0  0  0  0  0
  141.1670   77.6750  220.7810 C   0  0  0  0  0  0  0  0  0  0  0  0
  140.3240   78.7320  221.1540 C   0  0  0  0  0  0  0  0  0  0  0  0
  139.3150   78.5200  222.1040 C   0  0  0  0  0  0  0  0  0  0  0  0
  138.2610   79.8420  222.5710 Cl  0  0  0  0  0  0  0  0  0  0  0  0
  139.1480   77.2560  222.6800 C   0  0  0  0  0  0  0  0  0  0  0  0
  139.9850   76.1980  222.3120 C   0  0  0  0  0  0  0  0  0  0  0  0
  140.9950   76.4010  221.3650 C   0  0  0  0  0  0  0  0  0  0  0  0
  141.8110   75.3740  221.0060 N   0  0  0  0  0  0  0  0  0  0  0  0
  143.4313   68.4249  220.4121 H   0  0  0  0  0  0  0  0  0  0  0  0
  143.2712   69.3091  218.8567 H   0  0  0  0  0  0  0  0  0  0  0  0
  143.5313   67.5318  218.8567 H   0  0  0  0  0  0  0  0  0  0  0  0
  145.6258   68.8586  220.3733 H   0  0  0  0  0  0  0  0  0  0  0  0
  146.3505   66.8262  219.5853 H   0  0  0  0  0  0  0  0  0  0  0  0
  145.2809   66.8923  218.1437 H   0  0  0  0  0  0  0  0  0  0  0  0
  146.8439   67.7775  218.1437 H   0  0  0  0  0  0  0  0  0  0  0  0
  146.3605   69.6606  217.7188 H   0  0  0  0  0  0  0  0  0  0  0  0
  144.7529   70.3908  218.1114 H   0  0  0  0  0  0  0  0  0  0  0  0
  145.7370   74.1780  218.5770 H   0  0  0  0  0  0  0  0  0  0  0  0
  145.1051   71.9440  221.4713 H   0  0  0  0  0  0  0  0  0  0  0  0
  144.2690   73.2080  218.0520 H   0  0  0  0  0  0  0  0  0  0  0  0
  143.8053   76.9154  218.7425 H   0  0  0  0  0  0  0  0  0  0  0  0
  142.3357   78.8387  219.3697 H   0  0  0  0  0  0  0  0  0  0  0  0
  140.4544   79.7262  220.7017 H   0  0  0  0  0  0  0  0  0  0  0  0
  138.3553   77.0938  223.4252 H   0  0  0  0  0  0  0  0  0  0  0  0
  139.8494   75.2058  222.7671 H   0  0  0  0  0  0  0  0  0  0  0  0
  1  2  1  0
  2  3  1  0
  2  4  1  0
  4  5  1  0
  5  6  1  0
  6  7  1  0
  6  8  2  0
  8  9  1  0
  9 10  2  0
 10 11  1  0
 10 12  1  0
 12 13  2  0
 13 14  1  0
 14 15  2  0
 15 16  1  0
 16 17  2  0
 17 18  1  0
 17 19  1  0
 19 20  2  0
 20 21  1  0
 21 22  2  0
 22 12  1  0
 21 15  1  0
  1 23  1  0
  1 24  1  0
  1 25  1  0
  2 26  1  0
  3 27  1  0
  3 28  1  0
  3 29  1  0
  4 30  1  0
  4 31  1  0
  7 32  1  0
  8 33  1  0
 11 34  1  0
 13 35  1  0
 14 36  1  0
 16 37  1  0
 19 38  1  0
 20 39  1  0
M  CHG  1   5  -1
M  END
>  <meeko>  (3) 
{"free_energy": -5.14, "intermolecular_energy": -7.82, "internal_energy": -2.12, "cluster_size": 5, "cluster_id": 2, "rank_in_cluster": 5}

$$$$

     RDKit          3D

 39 40  0  0  0  0  0  0  0  0999 V2000
  142.2480   79.6700  222.9980 C   0  0  0  0  0  0  0  0  0  0  0  0
  140.9280   78.9330  223.2570 C   0  0  0  0  0  0  0  0  0  0  0  0
  139.8870   79.9050  223.8250 C   0  0  0  0  0  0  0  0  0  0  0  0
  140.3850   78.2600  221.9810 C   0  0  0  0  0  0  0  0  0  0  0  0
  141.0600   76.9900  221.7280 N   0  0  0  0  0  0  0  0  0  0  0  0
  140.4580   75.7090  221.9430 C   0  0  0  0  0  0  0  0  0  0  0  0
  139.3350   75.5990  222.7660 O   0  0  0  0  0  0  0  0  0  0  0  0
  140.9730   74.6250  221.3590 C   0  0  0  0  0  0  0  0  0  0  0  0
  140.8230   73.3380  221.9720 N   0  0  0  0  0  0  0  0  0  0  0  0
  139.7490   72.8460  222.5230 C   0  0  0  0  0  0  0  0  0  0  0  0
  138.4630   73.2710  222.1690 O   0  0  0  0  0  0  0  0  0  0  0  0
  139.8980   71.8010  223.5560 C   0  0  0  0  0  0  0  0  0  0  0  0
  139.5420   70.4680  223.2930 C   0  0  0  0  0  0  0  0  0  0  0  0
  139.6940   69.5010  224.2900 C   0  0  0  0  0  0  0  0  0  0  0  0
  140.2010   69.8650  225.5430 C   0  0  0  0  0  0  0  0  0  0  0  0
  140.3670   68.9200  226.5660 C   0  0  0  0  0  0  0  0  0  0  0  0
  140.8760   69.3170  227.8090 C   0  0  0  0  0  0  0  0  0  0  0  0
  141.0830   68.1340  229.0880 Cl  0  0  0  0  0  0  0  0  0  0  0  0
  141.2200   70.6550  228.0320 C   0  0  0  0  0  0  0  0  0  0  0  0
  141.0570   71.6020  227.0160 C   0  0  0  0  0  0  0  0  0  0  0  0
  140.5490   71.2140  225.7720 C   0  0  0  0  0  0  0  0  0  0  0  0
  140.3890   72.1340  224.7830 N   0  0  0  0  0  0  0  0  0  0  0  0
  142.7165   79.9315  223.9583 H   0  0  0  0  0  0  0  0  0  0  0  0
  142.9249   79.0193  222.4250 H   0  0  0  0  0  0  0  0  0  0  0  0
  142.0493   80.5877  222.4250 H   0  0  0  0  0  0  0  0  0  0  0  0
  141.1280   78.1385  223.9910 H   0  0  0  0  0  0  0  0  0  0  0  0
  139.9189   79.8752  224.9241 H   0  0  0  0  0  0  0  0  0  0  0  0
  140.1106   80.9250  223.4792 H   0  0  0  0  0  0  0  0  0  0  0  0
  138.8847   79.6121  223.4792 H   0  0  0  0  0  0  0  0  0  0  0  0
  139.3074   78.0760  222.1028 H   0  0  0  0  0  0  0  0  0  0  0  0
  140.5692   78.9294  221.1278 H   0  0  0  0  0  0  0  0  0  0  0  0
  139.1990   74.8090  223.3870 H   0  0  0  0  0  0  0  0  0  0  0  0
  141.5135   74.7194  220.4056 H   0  0  0  0  0  0  0  0  0  0  0  0
  137.9210   73.9430  222.6930 H   0  0  0  0  0  0  0  0  0  0  0  0
  139.1453   70.1866  222.3064 H   0  0  0  0  0  0  0  0  0  0  0  0
  139.4158   68.4556  224.0907 H   0  0  0  0  0  0  0  0  0  0  0  0
  140.0976   67.8677  226.3922 H   0  0  0  0  0  0  0  0  0  0  0  0
  141.6198   70.9628  229.0094 H   0  0  0  0  0  0  0  0  0  0  0  0
  141.3285   72.6528  227.1953 H   0  0  0  0  0  0  0  0  0  0  0  0
  1  2  1  0
  2  3  1  0
  2  4  1  0
  4  5  1  0
  5  6  1  0
  6  7  1  0
  6  8  2  0
  8  9  1  0
  9 10  2  0
 10 11  1  0
 10 12  1  0
 12 13  2  0
 13 14  1  0
 14 15  2  0
 15 16  1  0
 16 17  2  0
 17 18  1  0
 17 19  1  0
 19 20  2  0
 20 21  1  0
 21 22  2  0
 22 12  1  0
 21 15  1  0
  1 23  1  0
  1 24  1  0
  1 25  1  0
  2 26  1  0
  3 27  1  0
  3 28  1  0
  3 29  1  0
  4 30  1  0
  4 31  1  0
  7 32  1  0
  8 33  1  0
 11 34  1  0
 13 35  1  0
 14 36  1  0
 16 37  1  0
 19 38  1  0
 20 39  1  0
M  CHG  1   5  -1
M  END
>  <meeko>  (4) 
{"free_energy": -6.23, "intermolecular_energy": -8.91, "internal_energy": -1.74, "cluster_size": 11, "cluster_id": 1, "rank_in_cluster": 1}

$$$$

     RDKit          3D

 39 40  0  0  0  0  0  0  0  0999 V2000
  143.8080   72.0880  220.4450 C   0  0  0  0  0  0  0  0  0  0  0  0
  144.3420   73.4780  220.8140 C   0  0  0  0  0  0  0  0  0  0  0  0
  145.8480   73.4060  221.0900 C   0  0  0  0  0  0  0  0  0  0  0  0
  144.0530   74.5150  219.7100 C   0  0  0  0  0  0  0  0  0  0  0  0
  142.9490   75.3920  220.0880 N   0  0  0  0  0  0  0  0  0  0  0  0
  141.6160   74.9350  220.3390 C   0  0  0  0  0  0  0  0  0  0  0  0
  140.8310   74.4680  219.2830 O   0  0  0  0  0  0  0  0  0  0  0  0
  141.1280   74.9580  221.5810 C   0  0  0  0  0  0  0  0  0  0  0  0
  140.1020   74.0350  221.9670 N   0  0  0  0  0  0  0  0  0  0  0  0
  140.0430   72.7610  221.6980 C   0  0  0  0  0  0  0  0  0  0  0  0
  139.9880   72.2740  220.3870 O   0  0  0  0  0  0  0  0  0  0  0  0
  140.0350   71.8000  222.8190 C   0  0  0  0  0  0  0  0  0  0  0  0
  139.5280   70.5000  222.6530 C   0  0  0  0  0  0  0  0  0  0  0  0
  139.5340   69.6120  223.7320 C   0  0  0  0  0  0  0  0  0  0  0  0
  140.0440   70.0210  224.9700 C   0  0  0  0  0  0  0  0  0  0  0  0
  140.0650   69.1550  226.0730 C   0  0  0  0  0  0  0  0  0  0  0  0
  140.5820   69.5960  227.2980 C   0  0  0  0  0  0  0  0  0  0  0  0
  140.6070   68.5120  228.6780 Cl  0  0  0  0  0  0  0  0  0  0  0  0
  141.0780   70.8980  227.4230 C   0  0  0  0  0  0  0  0  0  0  0  0
  141.0600   71.7670  226.3270 C   0  0  0  0  0  0  0  0  0  0  0  0
  140.5450   71.3350  225.1000 C   0  0  0  0  0  0  0  0  0  0  0  0
  140.5260   72.1780  224.0330 N   0  0  0  0  0  0  0  0  0  0  0  0
  143.5909   71.5229  221.3635 H   0  0  0  0  0  0  0  0  0  0  0  0
  142.8867   72.1943  219.8535 H   0  0  0  0  0  0  0  0  0  0  0  0
  144.5635   71.5501  219.8535 H   0  0  0  0  0  0  0  0  0  0  0  0
  143.8182   73.8067  221.7237 H   0  0  0  0  0  0  0  0  0  0  0  0
  146.0217   73.3977  222.1762 H   0  0  0  0  0  0  0  0  0  0  0  0
  146.2586   72.4872  220.6460 H   0  0  0  0  0  0  0  0  0  0  0  0
  146.3444   74.2814  220.6460 H   0  0  0  0  0  0  0  0  0  0  0  0
  144.9543   75.1234  219.5439 H   0  0  0  0  0  0  0  0  0  0  0  0
  143.7737   73.9783  218.7913 H   0  0  0  0  0  0  0  0  0  0  0  0
  139.9380   74.0130  219.4370 H   0  0  0  0  0  0  0  0  0  0  0  0
  141.5139   75.6864  222.3093 H   0  0  0  0  0  0  0  0  0  0  0  0
  140.6850   72.4580  219.6810 H   0  0  0  0  0  0  0  0  0  0  0  0
  139.1283   70.1829  221.6785 H   0  0  0  0  0  0  0  0  0  0  0  0
  139.1385   68.5930  223.6088 H   0  0  0  0  0  0  0  0  0  0  0  0
  139.6759   68.1307  225.9763 H   0  0  0  0  0  0  0  0  0  0  0  0
  141.4837   71.2397  228.3867 H   0  0  0  0  0  0  0  0  0  0  0  0
  141.4508   72.7901  226.4298 H   0  0  0  0  0  0  0  0  0  0  0  0
  1  2  1  0
  2  3  1  0
  2  4  1  0
  4  5  1  0
  5  6  1  0
  6  7  1  0
  6  8  2  0
  8  9  1  0
  9 10  2  0
 10 11  1  0
 10 12  1  0
 12 13  2  0
 13 14  1  0
 14 15  2  0
 15 16  1  0
 16 17  2  0
 17 18  1  0
 17 19  1  0
 19 20  2  0
 20 21  1  0
 21 22  2  0
 22 12  1  0
 21 15  1  0
  1 23  1  0
  1 24  1  0
  1 25  1  0
  2 26  1  0
  3 27  1  0
  3 28  1  0
  3 29  1  0
  4 30  1  0
  4 31  1  0
  7 32  1  0
  8 33  1  0
 11 34  1  0
 13 35  1  0
 14 36  1  0
 16 37  1  0
 19 38  1  0
 20 39  1  0
M  CHG  1   5  -1
M  END
>  <meeko>  (5) 
{"free_energy": -4.95, "intermolecular_energy": -7.64, "internal_energy": -2.42, "cluster_size": 3, "cluster_id": 3, "rank_in_cluster": 3}

$$$$

     RDKit          3D

 39 40  0  0  0  0  0  0  0  0999 V2000
  141.8170   78.7890  223.9080 C   0  0  0  0  0  0  0  0  0  0  0  0
  140.9390   79.3780  222.7960 C   0  0  0  0  0  0  0  0  0  0  0  0
  141.8030   79.7420  221.5820 C   0  0  0  0  0  0  0  0  0  0  0  0
  139.8170   78.4080  222.3770 C   0  0  0  0  0  0  0  0  0  0  0  0
  140.3450   77.3010  221.5850 N   0  0  0  0  0  0  0  0  0  0  0  0
  140.1870   75.9210  221.9360 C   0  0  0  0  0  0  0  0  0  0  0  0
  139.1230   75.5290  222.7500 O   0  0  0  0  0  0  0  0  0  0  0  0
  141.0570   75.0160  221.4840 C   0  0  0  0  0  0  0  0  0  0  0  0
  140.9870   73.6600  221.9420 N   0  0  0  0  0  0  0  0  0  0  0  0
  139.9120   72.9630  222.1870 C   0  0  0  0  0  0  0  0  0  0  0  0
  138.7090   73.1780  221.5040 O   0  0  0  0  0  0  0  0  0  0  0  0
  139.9700   71.9110  223.2210 C   0  0  0  0  0  0  0  0  0  0  0  0
  139.5220   70.6070  222.9520 C   0  0  0  0  0  0  0  0  0  0  0  0
  139.5890   69.6320  223.9500 C   0  0  0  0  0  0  0  0  0  0  0  0
  140.1020   69.9590  225.2100 C   0  0  0  0  0  0  0  0  0  0  0  0
  140.1840   69.0040  226.2350 C   0  0  0  0  0  0  0  0  0  0  0  0
  140.7030   69.3630  227.4850 C   0  0  0  0  0  0  0  0  0  0  0  0
  140.8050   68.1690  228.7660 Cl  0  0  0  0  0  0  0  0  0  0  0  0
  141.1400   70.6730  227.7150 C   0  0  0  0  0  0  0  0  0  0  0  0
  141.0620   71.6290  226.6970 C   0  0  0  0  0  0  0  0  0  0  0  0
  140.5450   71.2790  225.4460 C   0  0  0  0  0  0  0  0  0  0  0  0
  140.4660   72.2080  224.4550 N   0  0  0  0  0  0  0  0  0  0  0  0
  141.4026   79.0670  224.8883 H   0  0  0  0  0  0  0  0  0  0  0  0
  141.8385   77.6930  223.8164 H   0  0  0  0  0  0  0  0  0  0  0  0
  142.8392   79.1848  223.8164 H   0  0  0  0  0  0  0  0  0  0  0  0
  140.4619   80.2864  223.1924 H   0  0  0  0  0  0  0  0  0  0  0  0
  142.7660   80.1477  221.9257 H   0  0  0  0  0  0  0  0  0  0  0  0
  141.9800   78.8420  220.9749 H   0  0  0  0  0  0  0  0  0  0  0  0
  141.2826   80.4974  220.9749 H   0  0  0  0  0  0  0  0  0  0  0  0
  139.3350   78.0053  223.2800 H   0  0  0  0  0  0  0  0  0  0  0  0
  139.0903   78.9602  221.7630 H   0  0  0  0  0  0  0  0  0  0  0  0
  139.0380   74.5830  223.1050 H   0  0  0  0  0  0  0  0  0  0  0  0
  141.8293   75.3113  220.7585 H   0  0  0  0  0  0  0  0  0  0  0  0
  138.2440   74.0710  221.4350 H   0  0  0  0  0  0  0  0  0  0  0  0
  139.1201   70.3548  221.9596 H   0  0  0  0  0  0  0  0  0  0  0  0
  139.2392   68.6093  223.7458 H   0  0  0  0  0  0  0  0  0  0  0  0
  139.8408   67.9742  226.0566 H   0  0  0  0  0  0  0  0  0  0  0  0
  141.5458   70.9512  228.6989 H   0  0  0  0  0  0  0  0  0  0  0  0
  141.4077   72.6570  226.8808 H   0  0  0  0  0  0  0  0  0  0  0  0
  1  2  1  0
  2  3  1  0
  2  4  1  0
  4  5  1  0
  5  6  1  0
  6  7  1  0
  6  8  2  0
  8  9  1  0
  9 10  2  0
 10 11  1  0
 10 12  1  0
 12 13  2  0
 13 14  1  0
 14 15  2  0
 15 16  1  0
 16 17  2  0
 17 18  1  0
 17 19  1  0
 19 20  2  0
 20 21  1  0
 21 22  2  0
 22 12  1  0
 21 15  1  0
  1 23  1  0
  1 24  1  0
  1 25  1  0
  2 26  1  0
  3 27  1  0
  3 28  1  0
  3 29  1  0
  4 30  1  0
  4 31  1  0
  7 32  1  0
  8 33  1  0
 11 34  1  0
 13 35  1  0
 14 36  1  0
 16 37  1  0
 19 38  1  0
 20 39  1  0
M  CHG  1   5  -1
M  END
>  <meeko>  (6) 
{"free_energy": -5.89, "intermolecular_energy": -8.57, "internal_energy": -1.98, "cluster_size": 11, "cluster_id": 1, "rank_in_cluster": 8}

$$$$

     RDKit          3D

 39 40  0  0  0  0  0  0  0  0999 V2000
  142.1590   79.1560  222.5190 C   0  0  0  0  0  0  0  0  0  0  0  0
  141.0210   78.1270  222.5020 C   0  0  0  0  0  0  0  0  0  0  0  0
  139.7380   78.7550  223.0610 C   0  0  0  0  0  0  0  0  0  0  0  0
  140.7680   77.5740  221.0850 C   0  0  0  0  0  0  0  0  0  0  0  0
  141.2450   76.2000  220.9640 N   0  0  0  0  0  0  0  0  0  0  0  0
  140.6380   75.0820  221.6210 C   0  0  0  0  0  0  0  0  0  0  0  0
  139.5070   75.2750  222.4160 O   0  0  0  0  0  0  0  0  0  0  0  0
  141.1550   73.8610  221.4720 C   0  0  0  0  0  0  0  0  0  0  0  0
  140.3000   72.7110  221.4900 N   0  0  0  0  0  0  0  0  0  0  0  0
  139.3360   72.4570  222.3290 C   0  0  0  0  0  0  0  0  0  0  0  0
  138.0860   73.0820  222.2470 O   0  0  0  0  0  0  0  0  0  0  0  0
  139.5730   71.4720  223.4040 C   0  0  0  0  0  0  0  0  0  0  0  0
  139.2850   70.1110  223.2140 C   0  0  0  0  0  0  0  0  0  0  0  0
  139.5190   69.2020  224.2490 C   0  0  0  0  0  0  0  0  0  0  0  0
  140.0410   69.6530  225.4670 C   0  0  0  0  0  0  0  0  0  0  0  0
  140.2890   68.7680  226.5260 C   0  0  0  0  0  0  0  0  0  0  0  0
  140.8120   69.2500  227.7330 C   0  0  0  0  0  0  0  0  0  0  0  0
  141.1210   68.1430  229.0580 Cl  0  0  0  0  0  0  0  0  0  0  0  0
  141.0860   70.6140  227.8840 C   0  0  0  0  0  0  0  0  0  0  0  0
  140.8420   71.5020  226.8310 C   0  0  0  0  0  0  0  0  0  0  0  0
  140.3200   71.0280  225.6230 C   0  0  0  0  0  0  0  0  0  0  0  0
  140.0800   71.8900  224.5980 N   0  0  0  0  0  0  0  0  0  0  0  0
  142.4224   79.3942  223.5601 H   0  0  0  0  0  0  0  0  0  0  0  0
  143.0376   78.7396  222.0045 H   0  0  0  0  0  0  0  0  0  0  0  0
  141.8328   80.0719  222.0045 H   0  0  0  0  0  0  0  0  0  0  0  0
  141.3240   77.2824  223.1382 H   0  0  0  0  0  0  0  0  0  0  0  0
  139.7708   78.7390  224.1604 H   0  0  0  0  0  0  0  0  0  0  0  0
  139.6565   79.7949  222.7117 H   0  0  0  0  0  0  0  0  0  0  0  0
  138.8667   78.1815  222.7117 H   0  0  0  0  0  0  0  0  0  0  0  0
  139.6881   77.5990  220.8772 H   0  0  0  0  0  0  0  0  0  0  0  0
  141.3152   78.1985  220.3635 H   0  0  0  0  0  0  0  0  0  0  0  0
  139.2090   74.5910  223.1020 H   0  0  0  0  0  0  0  0  0  0  0  0
  142.2394   73.7369  221.3351 H   0  0  0  0  0  0  0  0  0  0  0  0
  137.8430   73.9350  222.7290 H   0  0  0  0  0  0  0  0  0  0  0  0
  138.8768   69.7617  222.2541 H   0  0  0  0  0  0  0  0  0  0  0  0
  139.2936   68.1347  224.1070 H   0  0  0  0  0  0  0  0  0  0  0  0
  140.0730   67.6958  226.4091 H   0  0  0  0  0  0  0  0  0  0  0  0
  141.4946   70.9891  228.8339 H   0  0  0  0  0  0  0  0  0  0  0  0
  141.0607   72.5731  226.9530 H   0  0  0  0  0  0  0  0  0  0  0  0
  1  2  1  0
  2  3  1  0
  2  4  1  0
  4  5  1  0
  5  6  1  0
  6  7  1  0
  6  8  2  0
  8  9  1  0
  9 10  2  0
 10 11  1  0
 10 12  1  0
 12 13  2  0
 13 14  1  0
 14 15  2  0
 15 16  1  0
 16 17  2  0
 17 18  1  0
 17 19  1  0
 19 20  2  0
 20 21  1  0
 21 22  2  0
 22 12  1  0
 21 15  1  0
  1 23  1  0
  1 24  1  0
  1 25  1  0
  2 26  1  0
  3 27  1  0
  3 28  1  0
  3 29  1  0
  4 30  1  0
  4 31  1  0
  7 32  1  0
  8 33  1  0
 11 34  1  0
 13 35  1  0
 14 36  1  0
 16 37  1  0
 19 38  1  0
 20 39  1  0
M  CHG  1   5  -1
M  END
>  <meeko>  (7) 
{"free_energy": -5.97, "intermolecular_energy": -8.65, "internal_energy": -1.82, "cluster_size": 11, "cluster_id": 1, "rank_in_cluster": 6}

$$$$

     RDKit          3D

 39 40  0  0  0  0  0  0  0  0999 V2000
  142.5420   79.7250  223.0950 C   0  0  0  0  0  0  0  0  0  0  0  0
  141.3900   78.7130  223.1390 C   0  0  0  0  0  0  0  0  0  0  0  0
  140.1140   79.3920  223.6500 C   0  0  0  0  0  0  0  0  0  0  0  0
  141.1360   78.0730  221.7600 C   0  0  0  0  0  0  0  0  0  0  0  0
  139.8720   77.3430  221.7430 N   0  0  0  0  0  0  0  0  0  0  0  0
  139.7600   75.9330  221.9680 C   0  0  0  0  0  0  0  0  0  0  0  0
  138.6470   75.4220  222.6380 O   0  0  0  0  0  0  0  0  0  0  0  0
  140.7210   75.1130  221.5370 C   0  0  0  0  0  0  0  0  0  0  0  0
  140.7610   73.7530  221.9890 N   0  0  0  0  0  0  0  0  0  0  0  0
  139.7530   72.9410  222.1440 C   0  0  0  0  0  0  0  0  0  0  0  0
  138.5910   73.0350  221.3690 O   0  0  0  0  0  0  0  0  0  0  0  0
  139.8430   71.8870  223.1730 C   0  0  0  0  0  0  0  0  0  0  0  0
  139.4320   70.5720  222.9000 C   0  0  0  0  0  0  0  0  0  0  0  0
  139.5300   69.5950  223.8930 C   0  0  0  0  0  0  0  0  0  0  0  0
  140.0370   69.9310  225.1540 C   0  0  0  0  0  0  0  0  0  0  0  0
  140.1480   68.9740  226.1740 C   0  0  0  0  0  0  0  0  0  0  0  0
  140.6600   69.3430  227.4250 C   0  0  0  0  0  0  0  0  0  0  0  0
  140.7990   68.1460  228.7010 Cl  0  0  0  0  0  0  0  0  0  0  0  0
  141.0590   70.6640  227.6590 C   0  0  0  0  0  0  0  0  0  0  0  0
  140.9510   71.6220  226.6460 C   0  0  0  0  0  0  0  0  0  0  0  0
  140.4410   71.2620  225.3940 C   0  0  0  0  0  0  0  0  0  0  0  0
  140.3330   72.1920  224.4080 N   0  0  0  0  0  0  0  0  0  0  0  0
  142.8397   79.9865  224.1211 H   0  0  0  0  0  0  0  0  0  0  0  0
  143.3989   79.2823  222.5662 H   0  0  0  0  0  0  0  0  0  0  0  0
  142.2134   80.6318  222.5662 H   0  0  0  0  0  0  0  0  0  0  0  0
  141.6784   77.9075  223.8304 H   0  0  0  0  0  0  0  0  0  0  0  0
  140.1140   79.3920  224.7500 H   0  0  0  0  0  0  0  0  0  0  0  0
  140.0782   80.4285  223.2833 H   0  0  0  0  0  0  0  0  0  0  0  0
  139.2343   78.8427  223.2833 H   0  0  0  0  0  0  0  0  0  0  0  0
  141.1036   78.8648  220.9971 H   0  0  0  0  0  0  0  0  0  0  0  0
  141.9508   77.3648  221.5486 H   0  0  0  0  0  0  0  0  0  0  0  0
  138.6240   74.4750  222.9980 H   0  0  0  0  0  0  0  0  0  0  0  0
  141.4830   75.4811  220.8343 H   0  0  0  0  0  0  0  0  0  0  0  0
  138.0680   73.8860  221.2260 H   0  0  0  0  0  0  0  0  0  0  0  0
  139.0344   70.3126  221.9077 H   0  0  0  0  0  0  0  0  0  0  0  0
  139.2095   68.5635  223.6848 H   0  0  0  0  0  0  0  0  0  0  0  0
  139.8336   67.9357  225.9919 H   0  0  0  0  0  0  0  0  0  0  0  0
  141.4589   70.9496  228.6431 H   0  0  0  0  0  0  0  0  0  0  0  0
  141.2671   72.6588  226.8336 H   0  0  0  0  0  0  0  0  0  0  0  0
  1  2  1  0
  2  3  1  0
  2  4  1  0
  4  5  1  0
  5  6  1  0
  6  7  1  0
  6  8  2  0
  8  9  1  0
  9 10  2  0
 10 11  1  0
 10 12  1  0
 12 13  2  0
 13 14  1  0
 14 15  2  0
 15 16  1  0
 16 17  2  0
 17 18  1  0
 17 19  1  0
 19 20  2  0
 20 21  1  0
 21 22  2  0
 22 12  1  0
 21 15  1  0
  1 23  1  0
  1 24  1  0
  1 25  1  0
  2 26  1  0
  3 27  1  0
  3 28  1  0
  3 29  1  0
  4 30  1  0
  4 31  1  0
  7 32  1  0
  8 33  1  0
 11 34  1  0
 13 35  1  0
 14 36  1  0
 16 37  1  0
 19 38  1  0
 20 39  1  0
M  CHG  1   5  -1
M  END
>  <meeko>  (8) 
{"free_energy": -6.13, "intermolecular_energy": -8.81, "internal_energy": -1.97, "cluster_size": 11, "cluster_id": 1, "rank_in_cluster": 4}

$$$$

     RDKit          3D

 39 40  0  0  0  0  0  0  0  0999 V2000
  143.7980   72.1010  220.4930 C   0  0  0  0  0  0  0  0  0  0  0  0
  144.3790   73.4890  220.7910 C   0  0  0  0  0  0  0  0  0  0  0  0
  145.8970   73.3920  220.9860 C   0  0  0  0  0  0  0  0  0  0  0  0
  144.0510   74.5010  219.6750 C   0  0  0  0  0  0  0  0  0  0  0  0
  142.9740   75.3990  220.0790 N   0  0  0  0  0  0  0  0  0  0  0  0
  141.6300   74.9740  220.3290 C   0  0  0  0  0  0  0  0  0  0  0  0
  140.8490   74.4890  219.2780 O   0  0  0  0  0  0  0  0  0  0  0  0
  141.1280   75.0430  221.5630 C   0  0  0  0  0  0  0  0  0  0  0  0
  140.1580   74.0810  222.0000 N   0  0  0  0  0  0  0  0  0  0  0  0
  140.1280   72.8080  221.7230 C   0  0  0  0  0  0  0  0  0  0  0  0
  140.1440   72.3270  220.4090 O   0  0  0  0  0  0  0  0  0  0  0  0
  140.0750   71.8420  222.8380 C   0  0  0  0  0  0  0  0  0  0  0  0
  139.5220   70.5630  222.6610 C   0  0  0  0  0  0  0  0  0  0  0  0
  139.4860   69.6690  223.7350 C   0  0  0  0  0  0  0  0  0  0  0  0
  140.0000   70.0530  224.9790 C   0  0  0  0  0  0  0  0  0  0  0  0
  139.9800   69.1800  226.0770 C   0  0  0  0  0  0  0  0  0  0  0  0
  140.5030   69.5950  227.3090 C   0  0  0  0  0  0  0  0  0  0  0  0
  140.4760   68.5030  228.6820 Cl  0  0  0  0  0  0  0  0  0  0  0  0
  141.0450   70.8770  227.4450 C   0  0  0  0  0  0  0  0  0  0  0  0
  141.0690   71.7520  226.3540 C   0  0  0  0  0  0  0  0  0  0  0  0
  140.5490   71.3460  225.1210 C   0  0  0  0  0  0  0  0  0  0  0  0
  140.5700   72.1950  224.0580 N   0  0  0  0  0  0  0  0  0  0  0  0
  143.5813   71.5834  221.4391 H   0  0  0  0  0  0  0  0  0  0  0  0
  142.8695   72.2089  219.9131 H   0  0  0  0  0  0  0  0  0  0  0  0
  144.5265   71.5153  219.9131 H   0  0  0  0  0  0  0  0  0  0  0  0
  143.9123   73.8543  221.7177 H   0  0  0  0  0  0  0  0  0  0  0  0
  146.1284   73.3772  222.0613 H   0  0  0  0  0  0  0  0  0  0  0  0
  146.2685   72.4683  220.5183 H   0  0  0  0  0  0  0  0  0  0  0  0
  146.3830   74.2609  220.5183 H   0  0  0  0  0  0  0  0  0  0  0  0
  144.9498   75.0951  219.4534 H   0  0  0  0  0  0  0  0  0  0  0  0
  143.7255   73.9444  218.7838 H   0  0  0  0  0  0  0  0  0  0  0  0
  139.9240   74.1010  219.4300 H   0  0  0  0  0  0  0  0  0  0  0  0
  141.4585   75.8390  222.2465 H   0  0  0  0  0  0  0  0  0  0  0  0
  140.7930   72.6310  219.6990 H   0  0  0  0  0  0  0  0  0  0  0  0
  139.1190   70.2662  221.6815 H   0  0  0  0  0  0  0  0  0  0  0  0
  139.0546   68.6658  223.6028 H   0  0  0  0  0  0  0  0  0  0  0  0
  139.5544   68.1712  225.9710 H   0  0  0  0  0  0  0  0  0  0  0  0
  141.4542   71.1986  228.4141 H   0  0  0  0  0  0  0  0  0  0  0  0
  141.4968   72.7592  226.4659 H   0  0  0  0  0  0  0  0  0  0  0  0
  1  2  1  0
  2  3  1  0
  2  4  1  0
  4  5  1  0
  5  6  1  0
  6  7  1  0
  6  8  2  0
  8  9  1  0
  9 10  2  0
 10 11  1  0
 10 12  1  0
 12 13  2  0
 13 14  1  0
 14 15  2  0
 15 16  1  0
 16 17  2  0
 17 18  1  0
 17 19  1  0
 19 20  2  0
 20 21  1  0
 21 22  2  0
 22 12  1  0
 21 15  1  0
  1 23  1  0
  1 24  1  0
  1 25  1  0
  2 26  1  0
  3 27  1  0
  3 28  1  0
  3 29  1  0
  4 30  1  0
  4 31  1  0
  7 32  1  0
  8 33  1  0
 11 34  1  0
 13 35  1  0
 14 36  1  0
 16 37  1  0
 19 38  1  0
 20 39  1  0
M  CHG  1   5  -1
M  END
>  <meeko>  (9) 
{"free_energy": -4.96, "intermolecular_energy": -7.64, "internal_energy": -2.39, "cluster_size": 3, "cluster_id": 3, "rank_in_cluster": 2}

$$$$

     RDKit          3D

 39 40  0  0  0  0  0  0  0  0999 V2000
  143.5130   67.9340  219.2960 C   0  0  0  0  0  0  0  0  0  0  0  0
  144.7910   68.7100  219.6400 C   0  0  0  0  0  0  0  0  0  0  0  0
  146.0220   67.8340  219.3770 C   0  0  0  0  0  0  0  0  0  0  0  0
  144.8960   70.0260  218.8450 C   0  0  0  0  0  0  0  0  0  0  0  0
  146.0010   70.8470  219.3290 N   0  0  0  0  0  0  0  0  0  0  0  0
  145.9080   72.2580  219.5580 C   0  0  0  0  0  0  0  0  0  0  0  0
  146.3210   73.1510  218.5670 O   0  0  0  0  0  0  0  0  0  0  0  0
  145.4270   72.7130  220.7160 C   0  0  0  0  0  0  0  0  0  0  0  0
  144.7820   73.9920  220.7740 N   0  0  0  0  0  0  0  0  0  0  0  0
  143.8380   74.4370  219.9920 C   0  0  0  0  0  0  0  0  0  0  0  0
  144.0920   74.8780  218.6880 O   0  0  0  0  0  0  0  0  0  0  0  0
  142.4540   74.4740  220.5030 C   0  0  0  0  0  0  0  0  0  0  0  0
  141.6770   73.3060  220.5740 C   0  0  0  0  0  0  0  0  0  0  0  0
  140.3700   73.3730  221.0620 C   0  0  0  0  0  0  0  0  0  0  0  0
  139.8420   74.6010  221.4780 C   0  0  0  0  0  0  0  0  0  0  0  0
  138.5340   74.7020  221.9740 C   0  0  0  0  0  0  0  0  0  0  0  0
  138.0360   75.9470  222.3810 C   0  0  0  0  0  0  0  0  0  0  0  0
  136.3990   76.0740  223.0010 Cl  0  0  0  0  0  0  0  0  0  0  0  0
  138.8410   77.0880  222.2960 C   0  0  0  0  0  0  0  0  0  0  0  0
  140.1460   76.9930  221.8030 C   0  0  0  0  0  0  0  0  0  0  0  0
  140.6510   75.7550  221.3940 C   0  0  0  0  0  0  0  0  0  0  0  0
  141.9200   75.6600  220.9130 N   0  0  0  0  0  0  0  0  0  0  0  0
  143.0088   67.6279  220.2245 H   0  0  0  0  0  0  0  0  0  0  0  0
  142.8408   68.5766  218.7084 H   0  0  0  0  0  0  0  0  0  0  0  0
  143.7731   67.0412  218.7084 H   0  0  0  0  0  0  0  0  0  0  0  0
  144.7467   68.9712  220.7076 H   0  0  0  0  0  0  0  0  0  0  0  0
  146.4612   67.5214  220.3358 H   0  0  0  0  0  0  0  0  0  0  0  0
  145.7231   66.9443  218.8033 H   0  0  0  0  0  0  0  0  0  0  0  0
  146.7646   68.4079  218.8033 H   0  0  0  0  0  0  0  0  0  0  0  0
  145.0612   69.7917  217.7830 H   0  0  0  0  0  0  0  0  0  0  0  0
  143.9599   70.5885  218.9765 H   0  0  0  0  0  0  0  0  0  0  0  0
  146.1460   74.1470  218.6350 H   0  0  0  0  0  0  0  0  0  0  0  0
  145.5254   72.1058  221.6280 H   0  0  0  0  0  0  0  0  0  0  0  0
  144.9910   74.8230  218.2320 H   0  0  0  0  0  0  0  0  0  0  0  0
  142.0959   72.3430  220.2468 H   0  0  0  0  0  0  0  0  0  0  0  0
  139.7563   72.4619  221.1194 H   0  0  0  0  0  0  0  0  0  0  0  0
  137.9002   73.8056  222.0434 H   0  0  0  0  0  0  0  0  0  0  0  0
  138.4461   78.0629  222.6180 H   0  0  0  0  0  0  0  0  0  0  0  0
  140.7756   77.8926  221.7369 H   0  0  0  0  0  0  0  0  0  0  0  0
  1  2  1  0
  2  3  1  0
  2  4  1  0
  4  5  1  0
  5  6  1  0
  6  7  1  0
  6  8  2  0
  8  9  1  0
  9 10  2  0
 10 11  1  0
 10 12  1  0
 12 13  2  0
 13 14  1  0
 14 15  2  0
 15 16  1  0
 16 17  2  0
 17 18  1  0
 17 19  1  0
 19 20  2  0
 20 21  1  0
 21 22  2  0
 22 12  1  0
 21 15  1  0
  1 23  1  0
  1 24  1  0
  1 25  1  0
  2 26  1  0
  3 27  1  0
  3 28  1  0
  3 29  1  0
  4 30  1  0
  4 31  1  0
  7 32  1  0
  8 33  1  0
 11 34  1  0
 13 35  1  0
 14 36  1  0
 16 37  1  0
 19 38  1  0
 20 39  1  0
M  CHG  1   5  -1
M  END
>  <meeko>  (10) 
{"free_energy": -5.36, "intermolecular_energy": -8.05, "internal_energy": -1.97, "cluster_size": 5, "cluster_id": 2, "rank_in_cluster": 4}

$$$$

     RDKit          3D

 39 40  0  0  0  0  0  0  0  0999 V2000
  140.7080   69.8020  227.9440 C   0  0  0  0  0  0  0  0  0  0  0  0
  140.4240   71.0110  227.0430 C   0  0  0  0  0  0  0  0  0  0  0  0
  141.1630   72.2460  227.5730 C   0  0  0  0  0  0  0  0  0  0  0  0
  140.8210   70.7420  225.5790 C   0  0  0  0  0  0  0  0  0  0  0  0
  139.6580   70.7960  224.6990 N   0  0  0  0  0  0  0  0  0  0  0  0
  139.6130   71.5440  223.4780 C   0  0  0  0  0  0  0  0  0  0  0  0
  138.4600   71.5210  222.6920 O   0  0  0  0  0  0  0  0  0  0  0  0
  140.6740   72.2590  223.0970 C   0  0  0  0  0  0  0  0  0  0  0  0
  140.5490   73.2240  222.0450 N   0  0  0  0  0  0  0  0  0  0  0  0
  139.6830   74.1940  221.9610 C   0  0  0  0  0  0  0  0  0  0  0  0
  138.3020   73.9740  222.0300 O   0  0  0  0  0  0  0  0  0  0  0  0
  140.1790   75.5740  221.7880 C   0  0  0  0  0  0  0  0  0  0  0  0
  141.1920   75.8680  220.8610 C   0  0  0  0  0  0  0  0  0  0  0  0
  141.6410   77.1830  220.7190 C   0  0  0  0  0  0  0  0  0  0  0  0
  141.0790   78.2000  221.4990 C   0  0  0  0  0  0  0  0  0  0  0  0
  141.5060   79.5310  221.3820 C   0  0  0  0  0  0  0  0  0  0  0  0
  140.9230   80.5250  222.1780 C   0  0  0  0  0  0  0  0  0  0  0  0
  141.4580   82.1900  222.0310 Cl  0  0  0  0  0  0  0  0  0  0  0  0
  139.9150   80.1930  223.0900 C   0  0  0  0  0  0  0  0  0  0  0  0
  139.4850   78.8680  223.2120 C   0  0  0  0  0  0  0  0  0  0  0  0
  140.0620   77.8690  222.4210 C   0  0  0  0  0  0  0  0  0  0  0  0
  139.6450   76.5790  222.5380 N   0  0  0  0  0  0  0  0  0  0  0  0
  140.6366   70.1060  228.9988 H   0  0  0  0  0  0  0  0  0  0  0  0
  139.9711   69.0113  227.7396 H   0  0  0  0  0  0  0  0  0  0  0  0
  141.7198   69.4220  227.7396 H   0  0  0  0  0  0  0  0  0  0  0  0
  139.3398   71.1955  227.0635 H   0  0  0  0  0  0  0  0  0  0  0  0
  141.1556   72.2337  228.6729 H   0  0  0  0  0  0  0  0  0  0  0  0
  142.2024   72.2339  227.2131 H   0  0  0  0  0  0  0  0  0  0  0  0
  140.6610   73.1562  227.2131 H   0  0  0  0  0  0  0  0  0  0  0  0
  141.5488   71.5022  225.2590 H   0  0  0  0  0  0  0  0  0  0  0  0
  141.2593   69.7351  225.5161 H   0  0  0  0  0  0  0  0  0  0  0  0
  138.3450   72.1290  221.8890 H   0  0  0  0  0  0  0  0  0  0  0  0
  141.6450   72.1073  223.5910 H   0  0  0  0  0  0  0  0  0  0  0  0
  137.8270   73.5810  222.8290 H   0  0  0  0  0  0  0  0  0  0  0  0
  141.6302   75.0658  220.2490 H   0  0  0  0  0  0  0  0  0  0  0  0
  142.4351   77.4188  219.9952 H   0  0  0  0  0  0  0  0  0  0  0  0
  142.2982   79.7939  220.6656 H   0  0  0  0  0  0  0  0  0  0  0  0
  139.4594   80.9768  223.7129 H   0  0  0  0  0  0  0  0  0  0  0  0
  138.6926   78.6112  223.9304 H   0  0  0  0  0  0  0  0  0  0  0  0
  1  2  1  0
  2  3  1  0
  2  4  1  0
  4  5  1  0
  5  6  1  0
  6  7  1  0
  6  8  2  0
  8  9  1  0
  9 10  2  0
 10 11  1  0
 10 12  1  0
 12 13  2  0
 13 14  1  0
 14 15  2  0
 15 16  1  0
 16 17  2  0
 17 18  1  0
 17 19  1  0
 19 20  2  0
 20 21  1  0
 21 22  2  0
 22 12  1  0
 21 15  1  0
  1 23  1  0
  1 24  1  0
  1 25  1  0
  2 26  1  0
  3 27  1  0
  3 28  1  0
  3 29  1  0
  4 30  1  0
  4 31  1  0
  7 32  1  0
  8 33  1  0
 11 34  1  0
 13 35  1  0
 14 36  1  0
 16 37  1  0
 19 38  1  0
 20 39  1  0
M  CHG  1   5  -1
M  END
>  <meeko>  (11) 
{"free_energy": -5.17, "intermolecular_energy": -7.86, "internal_energy": -2.14, "cluster_size": 1, "cluster_id": 4, "rank_in_cluster": 1}

$$$$

     RDKit          3D

 39 40  0  0  0  0  0  0  0  0999 V2000
  142.1530   79.2840  222.8430 C   0  0  0  0  0  0  0  0  0  0  0  0
  141.0510   78.2210  222.7450 C   0  0  0  0  0  0  0  0  0  0  0  0
  139.6880   78.8460  223.0670 C   0  0  0  0  0  0  0  0  0  0  0  0
  141.0160   77.5580  221.3530 C   0  0  0  0  0  0  0  0  0  0  0  0
  141.3920   76.1500  221.4310 N   0  0  0  0  0  0  0  0  0  0  0  0
  140.4640   75.0870  221.6760 C   0  0  0  0  0  0  0  0  0  0  0  0
  139.5350   75.2020  222.7120 O   0  0  0  0  0  0  0  0  0  0  0  0
  140.4920   73.9910  220.9150 C   0  0  0  0  0  0  0  0  0  0  0  0
  140.1540   72.7170  221.4780 N   0  0  0  0  0  0  0  0  0  0  0  0
  139.2150   72.4590  222.3440 C   0  0  0  0  0  0  0  0  0  0  0  0
  137.9630   73.0840  222.3000 O   0  0  0  0  0  0  0  0  0  0  0  0
  139.4850   71.4720  223.4090 C   0  0  0  0  0  0  0  0  0  0  0  0
  139.2080   70.1080  223.2180 C   0  0  0  0  0  0  0  0  0  0  0  0
  139.4740   69.1980  224.2430 C   0  0  0  0  0  0  0  0  0  0  0  0
  140.0140   69.6480  225.4530 C   0  0  0  0  0  0  0  0  0  0  0  0
  140.2930   68.7610  226.5030 C   0  0  0  0  0  0  0  0  0  0  0  0
  140.8330   69.2440  227.7020 C   0  0  0  0  0  0  0  0  0  0  0  0
  141.1810   68.1340  229.0150 Cl  0  0  0  0  0  0  0  0  0  0  0  0
  141.0950   70.6100  227.8540 C   0  0  0  0  0  0  0  0  0  0  0  0
  140.8190   71.5000  226.8110 C   0  0  0  0  0  0  0  0  0  0  0  0
  140.2800   71.0260  225.6110 C   0  0  0  0  0  0  0  0  0  0  0  0
  140.0100   71.8900  224.5950 N   0  0  0  0  0  0  0  0  0  0  0  0
  142.3687   79.4920  223.9014 H   0  0  0  0  0  0  0  0  0  0  0  0
  143.0637   78.9146  222.3489 H   0  0  0  0  0  0  0  0  0  0  0  0
  141.8167   80.2075  222.3489 H   0  0  0  0  0  0  0  0  0  0  0  0
  141.2772   77.4358  223.4814 H   0  0  0  0  0  0  0  0  0  0  0  0
  139.5601   78.9047  224.1580 H   0  0  0  0  0  0  0  0  0  0  0  0
  139.6375   79.8572  222.6370 H   0  0  0  0  0  0  0  0  0  0  0  0
  138.8888   78.2244  222.6370 H   0  0  0  0  0  0  0  0  0  0  0  0
  139.9979   77.6356  220.9438 H   0  0  0  0  0  0  0  0  0  0  0  0
  141.7355   78.0758  220.7017 H   0  0  0  0  0  0  0  0  0  0  0  0
  139.2420   74.4020  223.2620 H   0  0  0  0  0  0  0  0  0  0  0  0
  140.7748   74.0655  219.8546 H   0  0  0  0  0  0  0  0  0  0  0  0
  137.7440   73.9540  222.7610 H   0  0  0  0  0  0  0  0  0  0  0  0
  138.7835   69.7585  222.2653 H   0  0  0  0  0  0  0  0  0  0  0  0
  139.2594   68.1287  224.0996 H   0  0  0  0  0  0  0  0  0  0  0  0
  140.0879   67.6867  226.3851 H   0  0  0  0  0  0  0  0  0  0  0  0
  141.5195   70.9852  228.7969 H   0  0  0  0  0  0  0  0  0  0  0  0
  141.0260   72.5732  226.9348 H   0  0  0  0  0  0  0  0  0  0  0  0
  1  2  1  0
  2  3  1  0
  2  4  1  0
  4  5  1  0
  5  6  1  0
  6  7  1  0
  6  8  2  0
  8  9  1  0
  9 10  2  0
 10 11  1  0
 10 12  1  0
 12 13  2  0
 13 14  1  0
 14 15  2  0
 15 16  1  0
 16 17  2  0
 17 18  1  0
 17 19  1  0
 19 20  2  0
 20 21  1  0
 21 22  2  0
 22 12  1  0
 21 15  1  0
  1 23  1  0
  1 24  1  0
  1 25  1  0
  2 26  1  0
  3 27  1  0
  3 28  1  0
  3 29  1  0
  4 30  1  0
  4 31  1  0
  7 32  1  0
  8 33  1  0
 11 34  1  0
 13 35  1  0
 14 36  1  0
 16 37  1  0
 19 38  1  0
 20 39  1  0
M  CHG  1   5  -1
M  END
>  <meeko>  (12) 
{"free_energy": -5.93, "intermolecular_energy": -8.61, "internal_energy": -1.85, "cluster_size": 11, "cluster_id": 1, "rank_in_cluster": 7}

$$$$

     RDKit          3D

 39 40  0  0  0  0  0  0  0  0999 V2000
  140.1250   80.3380  223.4520 C   0  0  0  0  0  0  0  0  0  0  0  0
  141.2920   79.5830  222.8010 C   0  0  0  0  0  0  0  0  0  0  0  0
  142.6270   80.1470  223.3030 C   0  0  0  0  0  0  0  0  0  0  0  0
  141.2190   78.0680  223.0730 C   0  0  0  0  0  0  0  0  0  0  0  0
  140.4360   77.3860  222.0480 N   0  0  0  0  0  0  0  0  0  0  0  0
  140.1050   75.9930  222.0900 C   0  0  0  0  0  0  0  0  0  0  0  0
  138.9250   75.5790  222.7110 O   0  0  0  0  0  0  0  0  0  0  0  0
  140.9240   75.0970  221.5370 C   0  0  0  0  0  0  0  0  0  0  0  0
  140.8950   73.7320  221.9720 N   0  0  0  0  0  0  0  0  0  0  0  0
  139.8430   72.9910  222.1800 C   0  0  0  0  0  0  0  0  0  0  0  0
  138.6510   73.1670  221.4680 O   0  0  0  0  0  0  0  0  0  0  0  0
  139.9140   71.9300  223.2030 C   0  0  0  0  0  0  0  0  0  0  0  0
  139.4930   70.6200  222.9190 C   0  0  0  0  0  0  0  0  0  0  0  0
  139.5720   69.6360  223.9070 C   0  0  0  0  0  0  0  0  0  0  0  0
  140.0720   69.9600  225.1740 C   0  0  0  0  0  0  0  0  0  0  0  0
  140.1660   68.9970  226.1890 C   0  0  0  0  0  0  0  0  0  0  0  0
  140.6700   69.3530  227.4470 C   0  0  0  0  0  0  0  0  0  0  0  0
  140.7870   68.1470  228.7160 Cl  0  0  0  0  0  0  0  0  0  0  0  0
  141.0810   70.6680  227.6920 C   0  0  0  0  0  0  0  0  0  0  0  0
  140.9900   71.6330  226.6840 C   0  0  0  0  0  0  0  0  0  0  0  0
  140.4880   71.2860  225.4260 C   0  0  0  0  0  0  0  0  0  0  0  0
  140.3970   72.2230  224.4440 N   0  0  0  0  0  0  0  0  0  0  0  0
  140.2155   80.2794  224.5467 H   0  0  0  0  0  0  0  0  0  0  0  0
  140.1494   81.3919  223.1379 H   0  0  0  0  0  0  0  0  0  0  0  0
  139.1737   79.8837  223.1379 H   0  0  0  0  0  0  0  0  0  0  0  0
  141.2185   79.7278  221.7130 H   0  0  0  0  0  0  0  0  0  0  0  0
  142.6335   80.1497  224.4030 H   0  0  0  0  0  0  0  0  0  0  0  0
  143.4520   79.5206  222.9330 H   0  0  0  0  0  0  0  0  0  0  0  0
  142.7530   81.1752  222.9330 H   0  0  0  0  0  0  0  0  0  0  0  0
  142.2385   77.6550  223.0800 H   0  0  0  0  0  0  0  0  0  0  0  0
  140.7310   77.9116  224.0463 H   0  0  0  0  0  0  0  0  0  0  0  0
  138.7990   74.6300  223.0470 H   0  0  0  0  0  0  0  0  0  0  0  0
  141.6227   75.4065  220.7458 H   0  0  0  0  0  0  0  0  0  0  0  0
  138.1370   74.0350  221.4200 H   0  0  0  0  0  0  0  0  0  0  0  0
  139.1023   70.3701  221.9215 H   0  0  0  0  0  0  0  0  0  0  0  0
  139.2423   68.6092  223.6903 H   0  0  0  0  0  0  0  0  0  0  0  0
  139.8442   67.9627  225.9977 H   0  0  0  0  0  0  0  0  0  0  0  0
  141.4769   70.9435  228.6806 H   0  0  0  0  0  0  0  0  0  0  0  0
  141.3136   72.6657  226.8809 H   0  0  0  0  0  0  0  0  0  0  0  0
  1  2  1  0
  2  3  1  0
  2  4  1  0
  4  5  1  0
  5  6  1  0
  6  7  1  0
  6  8  2  0
  8  9  1  0
  9 10  2  0
 10 11  1  0
 10 12  1  0
 12 13  2  0
 13 14  1  0
 14 15  2  0
 15 16  1  0
 16 17  2  0
 17 18  1  0
 17 19  1  0
 19 20  2  0
 20 21  1  0
 21 22  2  0
 22 12  1  0
 21 15  1  0
  1 23  1  0
  1 24  1  0
  1 25  1  0
  2 26  1  0
  3 27  1  0
  3 28  1  0
  3 29  1  0
  4 30  1  0
  4 31  1  0
  7 32  1  0
  8 33  1  0
 11 34  1  0
 13 35  1  0
 14 36  1  0
 16 37  1  0
 19 38  1  0
 20 39  1  0
M  CHG  1   5  -1
M  END
>  <meeko>  (13) 
{"free_energy": -6.19, "intermolecular_energy": -8.88, "internal_energy": -1.9, "cluster_size": 11, "cluster_id": 1, "rank_in_cluster": 2}

$$$$

     RDKit          3D

 39 40  0  0  0  0  0  0  0  0999 V2000
  142.1200   79.0280  222.3120 C   0  0  0  0  0  0  0  0  0  0  0  0
  140.7560   78.3730  222.5670 C   0  0  0  0  0  0  0  0  0  0  0  0
  139.9500   79.2110  223.5670 C   0  0  0  0  0  0  0  0  0  0  0  0
  139.9560   78.1860  221.2640 C   0  0  0  0  0  0  0  0  0  0  0  0
  140.0940   76.8260  220.7510 N   0  0  0  0  0  0  0  0  0  0  0  0
  140.0700   75.6550  221.5750 C   0  0  0  0  0  0  0  0  0  0  0  0
  139.2840   75.6340  222.7280 O   0  0  0  0  0  0  0  0  0  0  0  0
  140.8000   74.5900  221.2380 C   0  0  0  0  0  0  0  0  0  0  0  0
  140.7220   73.3900  222.0180 N   0  0  0  0  0  0  0  0  0  0  0  0
  139.6570   72.8660  222.5570 C   0  0  0  0  0  0  0  0  0  0  0  0
  138.3630   73.2620  222.1990 O   0  0  0  0  0  0  0  0  0  0  0  0
  139.8250   71.8170  223.5820 C   0  0  0  0  0  0  0  0  0  0  0  0
  139.4810   70.4810  223.3140 C   0  0  0  0  0  0  0  0  0  0  0  0
  139.6510   69.5100  224.3030 C   0  0  0  0  0  0  0  0  0  0  0  0
  140.1640   69.8710  225.5540 C   0  0  0  0  0  0  0  0  0  0  0  0
  140.3480   68.9210  226.5690 C   0  0  0  0  0  0  0  0  0  0  0  0
  140.8630   69.3160  227.8110 C   0  0  0  0  0  0  0  0  0  0  0  0
  141.0930   68.1260  229.0810 Cl  0  0  0  0  0  0  0  0  0  0  0  0
  141.1950   70.6550  228.0400 C   0  0  0  0  0  0  0  0  0  0  0  0
  141.0150   71.6080  227.0320 C   0  0  0  0  0  0  0  0  0  0  0  0
  140.5000   71.2220  225.7900 C   0  0  0  0  0  0  0  0  0  0  0  0
  140.3230   72.1470  224.8080 N   0  0  0  0  0  0  0  0  0  0  0  0
  142.6013   79.2591  223.2737 H   0  0  0  0  0  0  0  0  0  0  0  0
  142.7570   78.3376  221.7397 H   0  0  0  0  0  0  0  0  0  0  0  0
  141.9795   79.9568  221.7397 H   0  0  0  0  0  0  0  0  0  0  0  0
  140.9390   77.3739  222.9892 H   0  0  0  0  0  0  0  0  0  0  0  0
  140.2261   78.9240  224.5924 H   0  0  0  0  0  0  0  0  0  0  0  0
  140.1702   80.2777  223.4130 H   0  0  0  0  0  0  0  0  0  0  0  0
  138.8756   79.0325  223.4130 H   0  0  0  0  0  0  0  0  0  0  0  0
  138.8933   78.3884  221.4631 H   0  0  0  0  0  0  0  0  0  0  0  0
  140.3489   78.8844  220.5104 H   0  0  0  0  0  0  0  0  0  0  0  0
  139.2050   74.8070  223.3100 H   0  0  0  0  0  0  0  0  0  0  0  0
  141.4623   74.6331  220.3608 H   0  0  0  0  0  0  0  0  0  0  0  0
  137.8440   73.9950  222.6600 H   0  0  0  0  0  0  0  0  0  0  0  0
  139.0794   70.2013  222.3289 H   0  0  0  0  0  0  0  0  0  0  0  0
  139.3821   68.4630  224.0991 H   0  0  0  0  0  0  0  0  0  0  0  0
  140.0884   67.8671  226.3905 H   0  0  0  0  0  0  0  0  0  0  0  0
  141.5993   70.9600  229.0165 H   0  0  0  0  0  0  0  0  0  0  0  0
  141.2782   72.6601  227.2158 H   0  0  0  0  0  0  0  0  0  0  0  0
  1  2  1  0
  2  3  1  0
  2  4  1  0
  4  5  1  0
  5  6  1  0
  6  7  1  0
  6  8  2  0
  8  9  1  0
  9 10  2  0
 10 11  1  0
 10 12  1  0
 12 13  2  0
 13 14  1  0
 14 15  2  0
 15 16  1  0
 16 17  2  0
 17 18  1  0
 17 19  1  0
 19 20  2  0
 20 21  1  0
 21 22  2  0
 22 12  1  0
 21 15  1  0
  1 23  1  0
  1 24  1  0
  1 25  1  0
  2 26  1  0
  3 27  1  0
  3 28  1  0
  3 29  1  0
  4 30  1  0
  4 31  1  0
  7 32  1  0
  8 33  1  0
 11 34  1  0
 13 35  1  0
 14 36  1  0
 16 37  1  0
 19 38  1  0
 20 39  1  0
M  CHG  1   5  -1
M  END
>  <meeko>  (14) 
{"free_energy": -5.87, "intermolecular_energy": -8.56, "internal_energy": -1.92, "cluster_size": 11, "cluster_id": 1, "rank_in_cluster": 9}

$$$$

     RDKit          3D

 39 40  0  0  0  0  0  0  0  0999 V2000
  139.3960   79.0360  223.1230 C   0  0  0  0  0  0  0  0  0  0  0  0
  140.8600   79.0680  222.6650 C   0  0  0  0  0  0  0  0  0  0  0  0
  141.7840   78.7170  223.8370 C   0  0  0  0  0  0  0  0  0  0  0  0
  141.1130   78.1110  221.4840 C   0  0  0  0  0  0  0  0  0  0  0  0
  139.9460   77.2720  221.2270 N   0  0  0  0  0  0  0  0  0  0  0  0
  139.8090   75.9270  221.7000 C   0  0  0  0  0  0  0  0  0  0  0  0
  138.7370   75.5880  222.5270 O   0  0  0  0  0  0  0  0  0  0  0  0
  140.7070   75.0040  221.3490 C   0  0  0  0  0  0  0  0  0  0  0  0
  140.7150   73.7260  221.9980 N   0  0  0  0  0  0  0  0  0  0  0  0
  139.6960   72.9400  222.2090 C   0  0  0  0  0  0  0  0  0  0  0  0
  138.4960   73.0620  221.4990 O   0  0  0  0  0  0  0  0  0  0  0  0
  139.8160   71.8850  223.2340 C   0  0  0  0  0  0  0  0  0  0  0  0
  139.4290   70.5630  222.9600 C   0  0  0  0  0  0  0  0  0  0  0  0
  139.5530   69.5850  223.9500 C   0  0  0  0  0  0  0  0  0  0  0  0
  140.0640   69.9270  225.2080 C   0  0  0  0  0  0  0  0  0  0  0  0
  140.2030   68.9700  226.2240 C   0  0  0  0  0  0  0  0  0  0  0  0
  140.7170   69.3450  227.4720 C   0  0  0  0  0  0  0  0  0  0  0  0
  140.8900   68.1480  228.7430 Cl  0  0  0  0  0  0  0  0  0  0  0  0
  141.0920   70.6730  227.7070 C   0  0  0  0  0  0  0  0  0  0  0  0
  140.9570   71.6310  226.6980 C   0  0  0  0  0  0  0  0  0  0  0  0
  140.4440   71.2650  225.4490 C   0  0  0  0  0  0  0  0  0  0  0  0
  140.3100   72.1960  224.4660 N   0  0  0  0  0  0  0  0  0  0  0  0
  139.3556   79.0351  224.2223 H   0  0  0  0  0  0  0  0  0  0  0  0
  138.8717   79.9229  222.7376 H   0  0  0  0  0  0  0  0  0  0  0  0
  138.9110   78.1270  222.7376 H   0  0  0  0  0  0  0  0  0  0  0  0
  141.0795   80.0883  222.3175 H   0  0  0  0  0  0  0  0  0  0  0  0
  141.2638   78.9146  224.7859 H   0  0  0  0  0  0  0  0  0  0  0  0
  142.0566   77.6527  223.7830 H   0  0  0  0  0  0  0  0  0  0  0  0
  142.6945   79.3319  223.7830 H   0  0  0  0  0  0  0  0  0  0  0  0
  141.3353   78.7026  220.5836 H   0  0  0  0  0  0  0  0  0  0  0  0
  141.9621   77.4595  221.7384 H   0  0  0  0  0  0  0  0  0  0  0  0
  138.6510   74.6680  222.9460 H   0  0  0  0  0  0  0  0  0  0  0  0
  141.4418   75.2244  220.5607 H   0  0  0  0  0  0  0  0  0  0  0  0
  138.0210   73.9360  221.3290 H   0  0  0  0  0  0  0  0  0  0  0  0
  139.0298   70.2986  221.9697 H   0  0  0  0  0  0  0  0  0  0  0  0
  139.2498   68.5484  223.7416 H   0  0  0  0  0  0  0  0  0  0  0  0
  139.9087   67.9260  226.0410 H   0  0  0  0  0  0  0  0  0  0  0  0
  141.4942   70.9636  228.6887 H   0  0  0  0  0  0  0  0  0  0  0  0
  141.2543   72.6732  226.8862 H   0  0  0  0  0  0  0  0  0  0  0  0
  1  2  1  0
  2  3  1  0
  2  4  1  0
  4  5  1  0
  5  6  1  0
  6  7  1  0
  6  8  2  0
  8  9  1  0
  9 10  2  0
 10 11  1  0
 10 12  1  0
 12 13  2  0
 13 14  1  0
 14 15  2  0
 15 16  1  0
 16 17  2  0
 17 18  1  0
 17 19  1  0
 19 20  2  0
 20 21  1  0
 21 22  2  0
 22 12  1  0
 21 15  1  0
  1 23  1  0
  1 24  1  0
  1 25  1  0
  2 26  1  0
  3 27  1  0
  3 28  1  0
  3 29  1  0
  4 30  1  0
  4 31  1  0
  7 32  1  0
  8 33  1  0
 11 34  1  0
 13 35  1  0
 14 36  1  0
 16 37  1  0
 19 38  1  0
 20 39  1  0
M  CHG  1   5  -1
M  END
>  <meeko>  (15) 
{"free_energy": -5.78, "intermolecular_energy": -8.46, "internal_energy": -2.06, "cluster_size": 11, "cluster_id": 1, "rank_in_cluster": 10}

$$$$

     RDKit          3D

 39 40  0  0  0  0  0  0  0  0999 V2000
  142.5070   79.9180  223.1770 C   0  0  0  0  0  0  0  0  0  0  0  0
  141.3790   78.9040  223.4100 C   0  0  0  0  0  0  0  0  0  0  0  0
  140.0660   79.6390  223.7060 C   0  0  0  0  0  0  0  0  0  0  0  0
  141.1980   77.9600  222.2050 C   0  0  0  0  0  0  0  0  0  0  0  0
  139.8710   77.3520  222.2060 N   0  0  0  0  0  0  0  0  0  0  0  0
  139.6360   75.9450  222.0790 C   0  0  0  0  0  0  0  0  0  0  0  0
  138.4110   75.4070  222.4770 O   0  0  0  0  0  0  0  0  0  0  0  0
  140.5890   75.1540  221.5830 C   0  0  0  0  0  0  0  0  0  0  0  0
  140.6880   73.7900  222.0150 N   0  0  0  0  0  0  0  0  0  0  0  0
  139.7220   72.9220  222.1170 C   0  0  0  0  0  0  0  0  0  0  0  0
  138.6040   72.9420  221.2760 O   0  0  0  0  0  0  0  0  0  0  0  0
  139.8140   71.8790  223.1590 C   0  0  0  0  0  0  0  0  0  0  0  0
  139.3810   70.5660  222.9090 C   0  0  0  0  0  0  0  0  0  0  0  0
  139.4800   69.6010  223.9140 C   0  0  0  0  0  0  0  0  0  0  0  0
  140.0100   69.9470  225.1620 C   0  0  0  0  0  0  0  0  0  0  0  0
  140.1250   69.0020  226.1930 C   0  0  0  0  0  0  0  0  0  0  0  0
  140.6590   69.3800  227.4310 C   0  0  0  0  0  0  0  0  0  0  0  0
  140.8020   68.1980  228.7200 Cl  0  0  0  0  0  0  0  0  0  0  0  0
  141.0800   70.6980  227.6420 C   0  0  0  0  0  0  0  0  0  0  0  0
  140.9690   71.6440  226.6180 C   0  0  0  0  0  0  0  0  0  0  0  0
  140.4360   71.2750  225.3790 C   0  0  0  0  0  0  0  0  0  0  0  0
  140.3260   72.1940  224.3820 N   0  0  0  0  0  0  0  0  0  0  0  0
  142.8936   80.2656  224.1464 H   0  0  0  0  0  0  0  0  0  0  0  0
  143.3184   79.4397  222.6088 H   0  0  0  0  0  0  0  0  0  0  0  0
  142.1175   80.7756  222.6088 H   0  0  0  0  0  0  0  0  0  0  0  0
  141.6581   78.2866  224.2766 H   0  0  0  0  0  0  0  0  0  0  0  0
  139.9267   79.7170  224.7944 H   0  0  0  0  0  0  0  0  0  0  0  0
  140.1034   80.6473  223.2680 H   0  0  0  0  0  0  0  0  0  0  0  0
  139.2260   79.0799  223.2680 H   0  0  0  0  0  0  0  0  0  0  0  0
  141.3288   78.5346  221.2762 H   0  0  0  0  0  0  0  0  0  0  0  0
  141.9485   77.1588  222.2741 H   0  0  0  0  0  0  0  0  0  0  0  0
  138.3250   74.4530  222.8080 H   0  0  0  0  0  0  0  0  0  0  0  0
  141.2997   75.5484  220.8418 H   0  0  0  0  0  0  0  0  0  0  0  0
  138.0250   73.7540  221.1170 H   0  0  0  0  0  0  0  0  0  0  0  0
  138.9658   70.2991  221.9260 H   0  0  0  0  0  0  0  0  0  0  0  0
  139.1421   68.5714  223.7248 H   0  0  0  0  0  0  0  0  0  0  0  0
  139.7960   67.9653  226.0288 H   0  0  0  0  0  0  0  0  0  0  0  0
  141.4993   70.9906  228.6159 H   0  0  0  0  0  0  0  0  0  0  0  0
  141.3011   72.6789  226.7873 H   0  0  0  0  0  0  0  0  0  0  0  0
  1  2  1  0
  2  3  1  0
  2  4  1  0
  4  5  1  0
  5  6  1  0
  6  7  1  0
  6  8  2  0
  8  9  1  0
  9 10  2  0
 10 11  1  0
 10 12  1  0
 12 13  2  0
 13 14  1  0
 14 15  2  0
 15 16  1  0
 16 17  2  0
 17 18  1  0
 17 19  1  0
 19 20  2  0
 20 21  1  0
 21 22  2  0
 22 12  1  0
 21 15  1  0
  1 23  1  0
  1 24  1  0
  1 25  1  0
  2 26  1  0
  3 27  1  0
  3 28  1  0
  3 29  1  0
  4 30  1  0
  4 31  1  0
  7 32  1  0
  8 33  1  0
 11 34  1  0
 13 35  1  0
 14 36  1  0
 16 37  1  0
 19 38  1  0
 20 39  1  0
M  CHG  1   5  -1
M  END
>  <meeko>  (16) 
{"free_energy": -6.18, "intermolecular_energy": -8.86, "internal_energy": -1.9, "cluster_size": 11, "cluster_id": 1, "rank_in_cluster": 3}

$$$$

     RDKit          3D

 39 40  0  0  0  0  0  0  0  0999 V2000
  145.9550   67.1650  219.2360 C   0  0  0  0  0  0  0  0  0  0  0  0
  145.3460   68.5110  218.8240 C   0  0  0  0  0  0  0  0  0  0  0  0
  144.0790   68.7860  219.6430 C   0  0  0  0  0  0  0  0  0  0  0  0
  146.3490   69.6700  218.9920 C   0  0  0  0  0  0  0  0  0  0  0  0
  145.9170   70.8520  218.2520 N   0  0  0  0  0  0  0  0  0  0  0  0
  145.5640   72.0950  218.8680 C   0  0  0  0  0  0  0  0  0  0  0  0
  146.3080   73.2440  218.5900 O   0  0  0  0  0  0  0  0  0  0  0  0
  144.5270   72.1520  219.7050 C   0  0  0  0  0  0  0  0  0  0  0  0
  144.1210   73.4090  220.2630 N   0  0  0  0  0  0  0  0  0  0  0  0
  143.6270   74.4330  219.6250 C   0  0  0  0  0  0  0  0  0  0  0  0
  144.0040   74.7530  218.3160 O   0  0  0  0  0  0  0  0  0  0  0  0
  142.6350   75.2840  220.3120 C   0  0  0  0  0  0  0  0  0  0  0  0
  141.6700   74.7250  221.1670 C   0  0  0  0  0  0  0  0  0  0  0  0
  140.7440   75.5550  221.8030 C   0  0  0  0  0  0  0  0  0  0  0  0
  140.7820   76.9370  221.5860 C   0  0  0  0  0  0  0  0  0  0  0  0
  139.8680   77.7990  222.2090 C   0  0  0  0  0  0  0  0  0  0  0  0
  139.9330   79.1780  221.9720 C   0  0  0  0  0  0  0  0  0  0  0  0
  138.7880   80.2550  222.7510 Cl  0  0  0  0  0  0  0  0  0  0  0  0
  140.9090   79.6970  221.1140 C   0  0  0  0  0  0  0  0  0  0  0  0
  141.8240   78.8430  220.4900 C   0  0  0  0  0  0  0  0  0  0  0  0
  141.7660   77.4650  220.7220 C   0  0  0  0  0  0  0  0  0  0  0  0
  142.6540   76.6330  220.1150 N   0  0  0  0  0  0  0  0  0  0  0  0
  145.9858   67.0970  220.3335 H   0  0  0  0  0  0  0  0  0  0  0  0
  145.3397   66.3461  218.8350 H   0  0  0  0  0  0  0  0  0  0  0  0
  146.9763   67.0865  218.8350 H   0  0  0  0  0  0  0  0  0  0  0  0
  145.0869   68.4485  217.7568 H   0  0  0  0  0  0  0  0  0  0  0  0
  144.3173   68.7343  220.7156 H   0  0  0  0  0  0  0  0  0  0  0  0
  143.6959   69.7882  219.4004 H   0  0  0  0  0  0  0  0  0  0  0  0
  143.3149   68.0328  219.4004 H   0  0  0  0  0  0  0  0  0  0  0  0
  146.4287   69.9239  220.0593 H   0  0  0  0  0  0  0  0  0  0  0  0
  147.3237   69.3479  218.5967 H   0  0  0  0  0  0  0  0  0  0  0  0
  146.0130   74.1630  218.9000 H   0  0  0  0  0  0  0  0  0  0  0  0
  143.9823   71.2331  219.9677 H   0  0  0  0  0  0  0  0  0  0  0  0
  144.9600   74.8250  217.9990 H   0  0  0  0  0  0  0  0  0  0  0  0
  141.6440   73.6382  221.3347 H   0  0  0  0  0  0  0  0  0  0  0  0
  139.9862   75.1231  222.4732 H   0  0  0  0  0  0  0  0  0  0  0  0
  139.1002   77.3923  222.8836 H   0  0  0  0  0  0  0  0  0  0  0  0
  140.9567   80.7804  220.9297 H   0  0  0  0  0  0  0  0  0  0  0  0
  142.5897   79.2553  219.8164 H   0  0  0  0  0  0  0  0  0  0  0  0
  1  2  1  0
  2  3  1  0
  2  4  1  0
  4  5  1  0
  5  6  1  0
  6  7  1  0
  6  8  2  0
  8  9  1  0
  9 10  2  0
 10 11  1  0
 10 12  1  0
 12 13  2  0
 13 14  1  0
 14 15  2  0
 15 16  1  0
 16 17  2  0
 17 18  1  0
 17 19  1  0
 19 20  2  0
 20 21  1  0
 21 22  2  0
 22 12  1  0
 21 15  1  0
  1 23  1  0
  1 24  1  0
  1 25  1  0
  2 26  1  0
  3 27  1  0
  3 28  1  0
  3 29  1  0
  4 30  1  0
  4 31  1  0
  7 32  1  0
  8 33  1  0
 11 34  1  0
 13 35  1  0
 14 36  1  0
 16 37  1  0
 19 38  1  0
 20 39  1  0
M  CHG  1   5  -1
M  END
>  <meeko>  (17) 
{"free_energy": -5.66, "intermolecular_energy": -8.35, "internal_energy": -2.0, "cluster_size": 5, "cluster_id": 2, "rank_in_cluster": 3}

$$$$

     RDKit          3D

 39 40  0  0  0  0  0  0  0  0999 V2000
  144.0610   72.1480  220.3870 C   0  0  0  0  0  0  0  0  0  0  0  0
  144.4540   73.5580  220.8460 C   0  0  0  0  0  0  0  0  0  0  0  0
  145.9740   73.7370  220.7510 C   0  0  0  0  0  0  0  0  0  0  0  0
  143.7390   74.6490  220.0250 C   0  0  0  0  0  0  0  0  0  0  0  0
  142.2880   74.5250  220.1360 N   0  0  0  0  0  0  0  0  0  0  0  0
  141.4340   75.5590  220.6370 C   0  0  0  0  0  0  0  0  0  0  0  0
  141.8580   76.8890  220.5990 O   0  0  0  0  0  0  0  0  0  0  0  0
  140.2370   75.2490  221.1380 C   0  0  0  0  0  0  0  0  0  0  0  0
  140.1010   74.1460  222.0430 N   0  0  0  0  0  0  0  0  0  0  0  0
  140.2360   72.8790  221.7700 C   0  0  0  0  0  0  0  0  0  0  0  0
  140.4450   72.4110  220.4670 O   0  0  0  0  0  0  0  0  0  0  0  0
  140.1650   71.9040  222.8760 C   0  0  0  0  0  0  0  0  0  0  0  0
  139.6170   70.6250  222.6810 C   0  0  0  0  0  0  0  0  0  0  0  0
  139.5640   69.7240  223.7460 C   0  0  0  0  0  0  0  0  0  0  0  0
  140.0580   70.0980  225.0020 C   0  0  0  0  0  0  0  0  0  0  0  0
  140.0210   69.2170  226.0930 C   0  0  0  0  0  0  0  0  0  0  0  0
  140.5230   69.6230  227.3360 C   0  0  0  0  0  0  0  0  0  0  0  0
  140.4750   68.5210  228.7010 Cl  0  0  0  0  0  0  0  0  0  0  0  0
  141.0610   70.9050  227.4910 C   0  0  0  0  0  0  0  0  0  0  0  0
  141.1020   71.7880  226.4080 C   0  0  0  0  0  0  0  0  0  0  0  0
  140.6030   71.3910  225.1630 C   0  0  0  0  0  0  0  0  0  0  0  0
  140.6400   72.2480  224.1070 N   0  0  0  0  0  0  0  0  0  0  0  0
  143.8838   71.5121  221.2669 H   0  0  0  0  0  0  0  0  0  0  0  0
  143.1436   72.2016  219.7825 H   0  0  0  0  0  0  0  0  0  0  0  0
  144.8739   71.7193  219.7825 H   0  0  0  0  0  0  0  0  0  0  0  0
  144.1363   73.6688  221.8933 H   0  0  0  0  0  0  0  0  0  0  0  0
  146.4012   73.7873  221.7634 H   0  0  0  0  0  0  0  0  0  0  0  0
  146.4106   72.8841  220.2107 H   0  0  0  0  0  0  0  0  0  0  0  0
  146.2005   74.6680  220.2107 H   0  0  0  0  0  0  0  0  0  0  0  0
  144.0446   75.6376  220.3982 H   0  0  0  0  0  0  0  0  0  0  0  0
  144.0197   74.5309  218.9680 H   0  0  0  0  0  0  0  0  0  0  0  0
  142.6500   77.2160  221.1410 H   0  0  0  0  0  0  0  0  0  0  0  0
  139.3535   75.8406  220.8562 H   0  0  0  0  0  0  0  0  0  0  0  0
  141.0650   72.8440  219.7990 H   0  0  0  0  0  0  0  0  0  0  0  0
  139.2311   70.3347  221.6927 H   0  0  0  0  0  0  0  0  0  0  0  0
  139.1349   68.7219  223.5989 H   0  0  0  0  0  0  0  0  0  0  0  0
  139.5983   68.2086  225.9725 H   0  0  0  0  0  0  0  0  0  0  0  0
  141.4535   71.2196  228.4693 H   0  0  0  0  0  0  0  0  0  0  0  0
  141.5266   72.7948  226.5349 H   0  0  0  0  0  0  0  0  0  0  0  0
  1  2  1  0
  2  3  1  0
  2  4  1  0
  4  5  1  0
  5  6  1  0
  6  7  1  0
  6  8  2  0
  8  9  1  0
  9 10  2  0
 10 11  1  0
 10 12  1  0
 12 13  2  0
 13 14  1  0
 14 15  2  0
 15 16  1  0
 16 17  2  0
 17 18  1  0
 17 19  1  0
 19 20  2  0
 20 21  1  0
 21 22  2  0
 22 12  1  0
 21 15  1  0
  1 23  1  0
  1 24  1  0
  1 25  1  0
  2 26  1  0
  3 27  1  0
  3 28  1  0
  3 29  1  0
  4 30  1  0
  4 31  1  0
  7 32  1  0
  8 33  1  0
 11 34  1  0
 13 35  1  0
 14 36  1  0
 16 37  1  0
 19 38  1  0
 20 39  1  0
M  CHG  1   5  -1
M  END
>  <meeko>  (18) 
{"free_energy": -5.66, "intermolecular_energy": -8.35, "internal_energy": -1.53, "cluster_size": 3, "cluster_id": 3, "rank_in_cluster": 1}

$$$$

     RDKit          3D

 39 40  0  0  0  0  0  0  0  0999 V2000
  145.9950   67.1280  219.0490 C   0  0  0  0  0  0  0  0  0  0  0  0
  145.3400   68.4910  218.7920 C   0  0  0  0  0  0  0  0  0  0  0  0
  144.1150   68.6640  219.6970 C   0  0  0  0  0  0  0  0  0  0  0  0
  146.3290   69.6530  219.0090 C   0  0  0  0  0  0  0  0  0  0  0  0
  145.9380   70.8290  218.2390 N   0  0  0  0  0  0  0  0  0  0  0  0
  145.5700   72.0830  218.8260 C   0  0  0  0  0  0  0  0  0  0  0  0
  146.2920   73.2350  218.5110 O   0  0  0  0  0  0  0  0  0  0  0  0
  144.5390   72.1450  219.6710 C   0  0  0  0  0  0  0  0  0  0  0  0
  144.1520   73.4010  220.2410 N   0  0  0  0  0  0  0  0  0  0  0  0
  143.6350   74.4240  219.6210 C   0  0  0  0  0  0  0  0  0  0  0  0
  143.9790   74.7550  218.3050 O   0  0  0  0  0  0  0  0  0  0  0  0
  142.6510   75.2630  220.3350 C   0  0  0  0  0  0  0  0  0  0  0  0
  141.7020   74.6890  221.1980 C   0  0  0  0  0  0  0  0  0  0  0  0
  140.7840   75.5070  221.8600 C   0  0  0  0  0  0  0  0  0  0  0  0
  140.8140   76.8920  221.6600 C   0  0  0  0  0  0  0  0  0  0  0  0
  139.9070   77.7430  222.3090 C   0  0  0  0  0  0  0  0  0  0  0  0
  139.9630   79.1250  222.0880 C   0  0  0  0  0  0  0  0  0  0  0  0
  138.8270   80.1880  222.9000 Cl  0  0  0  0  0  0  0  0  0  0  0  0
  140.9220   79.6590  221.2210 C   0  0  0  0  0  0  0  0  0  0  0  0
  141.8300   78.8160  220.5710 C   0  0  0  0  0  0  0  0  0  0  0  0
  141.7810   77.4350  220.7860 C   0  0  0  0  0  0  0  0  0  0  0  0
  142.6620   76.6140  220.1540 N   0  0  0  0  0  0  0  0  0  0  0  0
  146.0763   66.9588  220.1329 H   0  0  0  0  0  0  0  0  0  0  0  0
  145.3797   66.3349  218.5992 H   0  0  0  0  0  0  0  0  0  0  0  0
  146.9987   67.1129  218.5992 H   0  0  0  0  0  0  0  0  0  0  0  0
  145.0241   68.5165  217.7387 H   0  0  0  0  0  0  0  0  0  0  0  0
  144.4283   68.6198  220.7505 H   0  0  0  0  0  0  0  0  0  0  0  0
  143.6444   69.6375  219.4950 H   0  0  0  0  0  0  0  0  0  0  0  0
  143.3932   67.8589  219.4950 H   0  0  0  0  0  0  0  0  0  0  0  0
  146.3476   69.9136  220.0775 H   0  0  0  0  0  0  0  0  0  0  0  0
  147.3249   69.3306  218.6711 H   0  0  0  0  0  0  0  0  0  0  0  0
  146.0080   74.1530  218.8360 H   0  0  0  0  0  0  0  0  0  0  0  0
  143.9856   71.2304  219.9302 H   0  0  0  0  0  0  0  0  0  0  0  0
  144.9260   74.8240  217.9640 H   0  0  0  0  0  0  0  0  0  0  0  0
  141.6824   73.5999  221.3514 H   0  0  0  0  0  0  0  0  0  0  0  0
  140.0389   75.0639  222.5371 H   0  0  0  0  0  0  0  0  0  0  0  0
  139.1521   77.3251  222.9912 H   0  0  0  0  0  0  0  0  0  0  0  0
  140.9624   80.7448  221.0497 H   0  0  0  0  0  0  0  0  0  0  0  0
  142.5830   79.2398  219.8903 H   0  0  0  0  0  0  0  0  0  0  0  0
  1  2  1  0
  2  3  1  0
  2  4  1  0
  4  5  1  0
  5  6  1  0
  6  7  1  0
  6  8  2  0
  8  9  1  0
  9 10  2  0
 10 11  1  0
 10 12  1  0
 12 13  2  0
 13 14  1  0
 14 15  2  0
 15 16  1  0
 16 17  2  0
 17 18  1  0
 17 19  1  0
 19 20  2  0
 20 21  1  0
 21 22  2  0
 22 12  1  0
 21 15  1  0
  1 23  1  0
  1 24  1  0
  1 25  1  0
  2 26  1  0
  3 27  1  0
  3 28  1  0
  3 29  1  0
  4 30  1  0
  4 31  1  0
  7 32  1  0
  8 33  1  0
 11 34  1  0
 13 35  1  0
 14 36  1  0
 16 37  1  0
 19 38  1  0
 20 39  1  0
M  CHG  1   5  -1
M  END
>  <meeko>  (19) 
{"free_energy": -5.67, "intermolecular_energy": -8.36, "internal_energy": -1.99, "cluster_size": 5, "cluster_id": 2, "rank_in_cluster": 2}

$$$$

     RDKit          3D

 39 40  0  0  0  0  0  0  0  0999 V2000
  145.9480   67.5800  219.7580 C   0  0  0  0  0  0  0  0  0  0  0  0
  146.0520   68.5900  218.6080 C   0  0  0  0  0  0  0  0  0  0  0  0
  145.6040   67.9380  217.2950 C   0  0  0  0  0  0  0  0  0  0  0  0
  145.2210   69.8590  218.8820 C   0  0  0  0  0  0  0  0  0  0  0  0
  146.0800   70.9860  219.2330 N   0  0  0  0  0  0  0  0  0  0  0  0
  145.6170   72.3360  219.3560 C   0  0  0  0  0  0  0  0  0  0  0  0
  146.2510   73.3550  218.6430 O   0  0  0  0  0  0  0  0  0  0  0  0
  144.5840   72.6150  220.1520 C   0  0  0  0  0  0  0  0  0  0  0  0
  143.4330   73.2900  219.6270 N   0  0  0  0  0  0  0  0  0  0  0  0
  143.3200   74.5580  219.3500 C   0  0  0  0  0  0  0  0  0  0  0  0
  143.9780   75.1500  218.2660 O   0  0  0  0  0  0  0  0  0  0  0  0
  142.4650   75.3980  220.2120 C   0  0  0  0  0  0  0  0  0  0  0  0
  141.6020   74.8200  221.1590 C   0  0  0  0  0  0  0  0  0  0  0  0
  140.8050   75.6400  221.9610 C   0  0  0  0  0  0  0  0  0  0  0  0
  140.8710   77.0310  221.8190 C   0  0  0  0  0  0  0  0  0  0  0  0
  140.0850   77.8830  222.6080 C   0  0  0  0  0  0  0  0  0  0  0  0
  140.1730   79.2710  222.4400 C   0  0  0  0  0  0  0  0  0  0  0  0
  139.1890   80.3370  223.4280 Cl  0  0  0  0  0  0  0  0  0  0  0  0
  141.0450   79.8090  221.4870 C   0  0  0  0  0  0  0  0  0  0  0  0
  141.8320   78.9650  220.6970 C   0  0  0  0  0  0  0  0  0  0  0  0
  141.7490   77.5780  220.8580 C   0  0  0  0  0  0  0  0  0  0  0  0
  142.5120   76.7550  220.0900 N   0  0  0  0  0  0  0  0  0  0  0  0
  146.0028   68.1119  220.7193 H   0  0  0  0  0  0  0  0  0  0  0  0
  144.9899   67.0439  219.6897 H   0  0  0  0  0  0  0  0  0  0  0  0
  146.7767   66.8599  219.6897 H   0  0  0  0  0  0  0  0  0  0  0  0
  147.1056   68.8952  218.5250 H   0  0  0  0  0  0  0  0  0  0  0  0
  144.9938   67.0499  217.5161 H   0  0  0  0  0  0  0  0  0  0  0  0
  145.0081   68.6568  216.7133 H   0  0  0  0  0  0  0  0  0  0  0  0
  146.4886   67.6395  216.7133 H   0  0  0  0  0  0  0  0  0  0  0  0
  144.6460   70.1134  217.9794 H   0  0  0  0  0  0  0  0  0  0  0  0
  144.5464   69.6582  219.7273 H   0  0  0  0  0  0  0  0  0  0  0  0
  145.9370   74.3180  218.6880 H   0  0  0  0  0  0  0  0  0  0  0  0
  144.6150   72.3268  221.2131 H   0  0  0  0  0  0  0  0  0  0  0  0
  144.8920   74.8760  217.9360 H   0  0  0  0  0  0  0  0  0  0  0  0
  141.5545   73.7264  221.2680 H   0  0  0  0  0  0  0  0  0  0  0  0
  140.1266   75.1935  222.7029 H   0  0  0  0  0  0  0  0  0  0  0  0
  139.3998   77.4618  223.3584 H   0  0  0  0  0  0  0  0  0  0  0  0
  141.1117   80.8995  221.3588 H   0  0  0  0  0  0  0  0  0  0  0  0
  142.5163   79.3919  219.9490 H   0  0  0  0  0  0  0  0  0  0  0  0
  1  2  1  0
  2  3  1  0
  2  4  1  0
  4  5  1  0
  5  6  1  0
  6  7  1  0
  6  8  2  0
  8  9  1  0
  9 10  2  0
 10 11  1  0
 10 12  1  0
 12 13  2  0
 13 14  1  0
 14 15  2  0
 15 16  1  0
 16 17  2  0
 17 18  1  0
 17 19  1  0
 19 20  2  0
 20 21  1  0
 21 22  2  0
 22 12  1  0
 21 15  1  0
  1 23  1  0
  1 24  1  0
  1 25  1  0
  2 26  1  0
  3 27  1  0
  3 28  1  0
  3 29  1  0
  4 30  1  0
  4 31  1  0
  7 32  1  0
  8 33  1  0
 11 34  1  0
 13 35  1  0
 14 36  1  0
 16 37  1  0
 19 38  1  0
 20 39  1  0
M  CHG  1   5  -1
M  END
>  <meeko>  (20) 
{"free_energy": -5.78, "intermolecular_energy": -8.46, "internal_energy": -1.7, "cluster_size": 5, "cluster_id": 2, "rank_in_cluster": 1}

$$$$
