
     RDKit          3D

 39 40  0  0  0  0  0  0  0  0999 V2000
  145.5750   73.1150  220.1530 C   0  0  0  0  0  0  0  0  0  0  0  0
  144.3710   73.8690  220.7330 C   0  0  0  0  0  0  0  0  0  0  0  0
  144.0750   75.1200  219.8980 C   0  0  0  0  0  0  0  0  0  0  0  0
  143.1240   72.9620  220.7960 C   0  0  0  0  0  0  0  0  0  0  0  0
  141.9000   73.7490  220.9360 N   0  0  0  0  0  0  0  0  0  0  0  0
  140.5720   73.3080  221.2790 C   0  0  0  0  0  0  0  0  0  0  0  0
  139.9330   73.9310  222.3480 O   0  0  0  0  0  0  0  0  0  0  0  0
  139.9120   72.3300  220.6420 C   0  0  0  0  0  0  0  0  0  0  0  0
  138.7780   71.6660  221.2130 N   0  0  0  0  0  0  0  0  0  0  0  0
  138.3250   71.8090  222.4260 C   0  0  0  0  0  0  0  0  0  0  0  0
  137.4210   72.8350  222.6890 O   0  0  0  0  0  0  0  0  0  0  0  0
  138.7180   70.9310  223.5450 C   0  0  0  0  0  0  0  0  0  0  0  0
  138.4150   69.5590  223.5370 C   0  0  0  0  0  0  0  0  0  0  0  0
  138.8440   68.7520  224.5930 C   0  0  0  0  0  0  0  0  0  0  0  0
  139.5860   69.3090  225.6400 C   0  0  0  0  0  0  0  0  0  0  0  0
  140.0330   68.5260  226.7150 C   0  0  0  0  0  0  0  0  0  0  0  0
  140.7810   69.1120  227.7430 C   0  0  0  0  0  0  0  0  0  0  0  0
  141.3400   68.1330  229.0860 Cl  0  0  0  0  0  0  0  0  0  0  0  0
  141.0850   70.4780  227.7000 C   0  0  0  0  0  0  0  0  0  0  0  0
  140.6440   71.2640  226.6310 C   0  0  0  0  0  0  0  0  0  0  0  0
  139.8940   70.6870  225.6010 C   0  0  0  0  0  0  0  0  0  0  0  0
  139.4610   71.4490  224.5600 N   0  0  0  0  0  0  0  0  0  0  0  0
  146.1949   72.7268  220.9746 H   0  0  0  0  0  0  0  0  0  0  0  0
  145.2199   72.2777  219.5343 H   0  0  0  0  0  0  0  0  0  0  0  0
  146.1733   73.8001  219.5343 H   0  0  0  0  0  0  0  0  0  0  0  0
  144.6229   74.1750  221.7591 H   0  0  0  0  0  0  0  0  0  0  0  0
  143.8741   75.9690  220.5680 H   0  0  0  0  0  0  0  0  0  0  0  0
  144.9432   75.3512  219.2634 H   0  0  0  0  0  0  0  0  0  0  0  0
  143.1952   74.9376  219.2634 H   0  0  0  0  0  0  0  0  0  0  0  0
  143.0650   72.3695  219.8711 H   0  0  0  0  0  0  0  0  0  0  0  0
  143.2166   72.3058  221.6739 H   0  0  0  0  0  0  0  0  0  0  0  0
  139.4990   73.3870  223.0830 H   0  0  0  0  0  0  0  0  0  0  0  0
  140.2545   72.0256  219.6420 H   0  0  0  0  0  0  0  0  0  0  0  0
  137.7340   73.7930  222.7970 H   0  0  0  0  0  0  0  0  0  0  0  0
  137.8435   69.1233  222.7042 H   0  0  0  0  0  0  0  0  0  0  0  0
  138.5987   67.6797  224.6015 H   0  0  0  0  0  0  0  0  0  0  0  0
  139.7959   67.4524  226.7500 H   0  0  0  0  0  0  0  0  0  0  0  0
  141.6728   70.9344  228.5100 H   0  0  0  0  0  0  0  0  0  0  0  0
  140.8869   72.3364  226.6000 H   0  0  0  0  0  0  0  0  0  0  0  0
  1  2  1  0
  2  3  1  0
  2  4  1  0
  4  5  1  0
  5  6  1  0
  6  7  1  0
  6  8  2  0
  8  9  1  0
  9 10  2  0
 10 11  1  0
 10 12  1  0
 12 13  2  0
 13 14  1  0
 14 15  2  0
 15 16  1  0
 16 17  2  0
 17 18  1  0
 17 19  1  0
 19 20  2  0
 20 21  1  0
 21 22  2  0
 22 12  1  0
 21 15  1  0
  1 23  1  0
  1 24  1  0
  1 25  1  0
  2 26  1  0
  3 27  1  0
  3 28  1  0
  3 29  1  0
  4 30  1  0
  4 31  1  0
  7 32  1  0
  8 33  1  0
 11 34  1  0
 13 35  1  0
 14 36  1  0
 16 37  1  0
 19 38  1  0
 20 39  1  0
M  CHG  1   5  -1
M  END
>  <meeko>  (1) 
{"free_energy": -5.83, "intermolecular_energy": -8.52, "internal_energy": -2.02, "cluster_size": 7, "cluster_id": 1, "rank_in_cluster": 6}

$$$$

     RDKit          3D

 39 40  0  0  0  0  0  0  0  0999 V2000
  145.9550   67.4160  219.2900 C   0  0  0  0  0  0  0  0  0  0  0  0
  145.3170   68.7400  218.8510 C   0  0  0  0  0  0  0  0  0  0  0  0
  144.0630   69.0280  219.6840 C   0  0  0  0  0  0  0  0  0  0  0  0
  146.3170   69.9080  218.9720 C   0  0  0  0  0  0  0  0  0  0  0  0
  145.9370   71.0280  218.1120 N   0  0  0  0  0  0  0  0  0  0  0  0
  145.3020   72.2710  218.4670 C   0  0  0  0  0  0  0  0  0  0  0  0
  146.1120   73.3880  218.6510 O   0  0  0  0  0  0  0  0  0  0  0  0
  143.9810   72.4220  218.6410 C   0  0  0  0  0  0  0  0  0  0  0  0
  143.4280   73.3730  219.5580 N   0  0  0  0  0  0  0  0  0  0  0  0
  143.2490   74.6460  219.3430 C   0  0  0  0  0  0  0  0  0  0  0  0
  143.8980   75.2440  218.2660 O   0  0  0  0  0  0  0  0  0  0  0  0
  142.3840   75.4940  220.1860 C   0  0  0  0  0  0  0  0  0  0  0  0
  141.5460   74.9370  221.1650 C   0  0  0  0  0  0  0  0  0  0  0  0
  140.7760   75.7750  221.9740 C   0  0  0  0  0  0  0  0  0  0  0  0
  140.8570   77.1630  221.8170 C   0  0  0  0  0  0  0  0  0  0  0  0
  140.0990   78.0340  222.6130 C   0  0  0  0  0  0  0  0  0  0  0  0
  140.2100   79.4180  222.4370 C   0  0  0  0  0  0  0  0  0  0  0  0
  139.2620   80.5060  223.4340 Cl  0  0  0  0  0  0  0  0  0  0  0  0
  141.0770   79.9360  221.4680 C   0  0  0  0  0  0  0  0  0  0  0  0
  141.8380   79.0740  220.6710 C   0  0  0  0  0  0  0  0  0  0  0  0
  141.7310   77.6890  220.8390 C   0  0  0  0  0  0  0  0  0  0  0  0
  142.4680   76.8470  220.0650 N   0  0  0  0  0  0  0  0  0  0  0  0
  145.9787   67.3669  220.3886 H   0  0  0  0  0  0  0  0  0  0  0  0
  145.3628   66.5759  218.8981 H   0  0  0  0  0  0  0  0  0  0  0  0
  146.9810   67.3557  218.8981 H   0  0  0  0  0  0  0  0  0  0  0  0
  145.0303   68.6445  217.7933 H   0  0  0  0  0  0  0  0  0  0  0  0
  144.3124   68.9707  220.7538 H   0  0  0  0  0  0  0  0  0  0  0  0
  143.6894   70.0353  219.4480 H   0  0  0  0  0  0  0  0  0  0  0  0
  143.2873   68.2846  219.4480 H   0  0  0  0  0  0  0  0  0  0  0  0
  146.3413   70.2514  220.0168 H   0  0  0  0  0  0  0  0  0  0  0  0
  147.3076   69.5494  218.6554 H   0  0  0  0  0  0  0  0  0  0  0  0
  145.7220   74.2650  218.9740 H   0  0  0  0  0  0  0  0  0  0  0  0
  143.2954   71.7908  218.0566 H   0  0  0  0  0  0  0  0  0  0  0  0
  144.8230   74.9450  217.9820 H   0  0  0  0  0  0  0  0  0  0  0  0
  141.4963   73.8457  221.2941 H   0  0  0  0  0  0  0  0  0  0  0  0
  140.1068   75.3447  222.7336 H   0  0  0  0  0  0  0  0  0  0  0  0
  139.4173   77.6294  223.3756 H   0  0  0  0  0  0  0  0  0  0  0  0
  141.1603   81.0244  221.3326 H   0  0  0  0  0  0  0  0  0  0  0  0
  142.5203   79.4850  219.9124 H   0  0  0  0  0  0  0  0  0  0  0  0
  1  2  1  0
  2  3  1  0
  2  4  1  0
  4  5  1  0
  5  6  1  0
  6  7  1  0
  6  8  2  0
  8  9  1  0
  9 10  2  0
 10 11  1  0
 10 12  1  0
 12 13  2  0
 13 14  1  0
 14 15  2  0
 15 16  1  0
 16 17  2  0
 17 18  1  0
 17 19  1  0
 19 20  2  0
 20 21  1  0
 21 22  2  0
 22 12  1  0
 21 15  1  0
  1 23  1  0
  1 24  1  0
  1 25  1  0
  2 26  1  0
  3 27  1  0
  3 28  1  0
  3 29  1  0
  4 30  1  0
  4 31  1  0
  7 32  1  0
  8 33  1  0
 11 34  1  0
 13 35  1  0
 14 36  1  0
 16 37  1  0
 19 38  1  0
 20 39  1  0
M  CHG  1   5  -1
M  END
>  <meeko>  (2) 
{"free_energy": -5.59, "intermolecular_energy": -8.27, "internal_energy": -1.94, "cluster_size": 8, "cluster_id": 2, "rank_in_cluster": 6}

$$$$

     RDKit          3D

 39 40  0  0  0  0  0  0  0  0999 V2000
  141.0180   71.9330  227.4920 C   0  0  0  0  0  0  0  0  0  0  0  0
  140.9010   70.6280  226.6940 C   0  0  0  0  0  0  0  0  0  0  0  0
  140.3460   69.5100  227.5830 C   0  0  0  0  0  0  0  0  0  0  0  0
  140.0080   70.8140  225.4500 C   0  0  0  0  0  0  0  0  0  0  0  0
  140.7380   71.4630  224.3620 N   0  0  0  0  0  0  0  0  0  0  0  0
  140.3740   71.5900  222.9740 C   0  0  0  0  0  0  0  0  0  0  0  0
  139.0600   71.3040  222.6160 O   0  0  0  0  0  0  0  0  0  0  0  0
  141.2200   71.9590  222.0010 C   0  0  0  0  0  0  0  0  0  0  0  0
  141.2310   73.2810  221.4500 N   0  0  0  0  0  0  0  0  0  0  0  0
  140.4460   74.2670  221.7810 C   0  0  0  0  0  0  0  0  0  0  0  0
  139.2040   73.9790  222.3390 O   0  0  0  0  0  0  0  0  0  0  0  0
  140.8100   75.6860  221.5990 C   0  0  0  0  0  0  0  0  0  0  0  0
  141.5690   76.1090  220.4960 C   0  0  0  0  0  0  0  0  0  0  0  0
  141.8550   77.4660  220.3340 C   0  0  0  0  0  0  0  0  0  0  0  0
  141.3670   78.3970  221.2590 C   0  0  0  0  0  0  0  0  0  0  0  0
  141.6330   79.7670  221.1250 C   0  0  0  0  0  0  0  0  0  0  0  0
  141.1240   80.6740  222.0620 C   0  0  0  0  0  0  0  0  0  0  0  0
  141.4560   82.3880  221.8940 Cl  0  0  0  0  0  0  0  0  0  0  0  0
  140.3470   80.2140  223.1330 C   0  0  0  0  0  0  0  0  0  0  0  0
  140.0760   78.8500  223.2720 C   0  0  0  0  0  0  0  0  0  0  0  0
  140.5840   77.9370  222.3420 C   0  0  0  0  0  0  0  0  0  0  0  0
  140.3240   76.6080  222.4740 N   0  0  0  0  0  0  0  0  0  0  0  0
  140.9978   71.7076  228.5685 H   0  0  0  0  0  0  0  0  0  0  0  0
  141.9646   72.4334  227.2399 H   0  0  0  0  0  0  0  0  0  0  0  0
  140.1755   72.5938  227.2399 H   0  0  0  0  0  0  0  0  0  0  0  0
  141.9079   70.3466  226.3519 H   0  0  0  0  0  0  0  0  0  0  0  0
  140.4807   69.7814  228.6404 H   0  0  0  0  0  0  0  0  0  0  0  0
  139.2750   69.3724  227.3733 H   0  0  0  0  0  0  0  0  0  0  0  0
  140.8839   68.5737  227.3733 H   0  0  0  0  0  0  0  0  0  0  0  0
  139.6593   69.8280  225.1090 H   0  0  0  0  0  0  0  0  0  0  0  0
  139.1575   71.4543  225.7268 H   0  0  0  0  0  0  0  0  0  0  0  0
  138.5260   71.9460  222.0430 H   0  0  0  0  0  0  0  0  0  0  0  0
  141.9330   71.2177  221.6111 H   0  0  0  0  0  0  0  0  0  0  0  0
  139.1230   73.3960  223.1640 H   0  0  0  0  0  0  0  0  0  0  0  0
  141.9363   75.3752  219.7635 H   0  0  0  0  0  0  0  0  0  0  0  0
  142.4626   77.8031  219.4812 H   0  0  0  0  0  0  0  0  0  0  0  0
  142.2418   80.1292  220.2835 H   0  0  0  0  0  0  0  0  0  0  0  0
  139.9485   80.9293  223.8676 H   0  0  0  0  0  0  0  0  0  0  0  0
  139.4629   78.4943  224.1132 H   0  0  0  0  0  0  0  0  0  0  0  0
  1  2  1  0
  2  3  1  0
  2  4  1  0
  4  5  1  0
  5  6  1  0
  6  7  1  0
  6  8  2  0
  8  9  1  0
  9 10  2  0
 10 11  1  0
 10 12  1  0
 12 13  2  0
 13 14  1  0
 14 15  2  0
 15 16  1  0
 16 17  2  0
 17 18  1  0
 17 19  1  0
 19 20  2  0
 20 21  1  0
 21 22  2  0
 22 12  1  0
 21 15  1  0
  1 23  1  0
  1 24  1  0
  1 25  1  0
  2 26  1  0
  3 27  1  0
  3 28  1  0
  3 29  1  0
  4 30  1  0
  4 31  1  0
  7 32  1  0
  8 33  1  0
 11 34  1  0
 13 35  1  0
 14 36  1  0
 16 37  1  0
 19 38  1  0
 20 39  1  0
M  CHG  1   5  -1
M  END
>  <meeko>  (3) 
{"free_energy": -5.33, "intermolecular_energy": -8.01, "internal_energy": -1.83, "cluster_size": 1, "cluster_id": 3, "rank_in_cluster": 1}

$$$$

     RDKit          3D

 39 40  0  0  0  0  0  0  0  0999 V2000
  143.7420   68.3410  219.3420 C   0  0  0  0  0  0  0  0  0  0  0  0
  145.2550   68.5910  219.3950 C   0  0  0  0  0  0  0  0  0  0  0  0
  146.0150   67.3470  218.9210 C   0  0  0  0  0  0  0  0  0  0  0  0
  145.6470   69.8140  218.5410 C   0  0  0  0  0  0  0  0  0  0  0  0
  146.3230   70.8310  219.3470 N   0  0  0  0  0  0  0  0  0  0  0  0
  145.9430   72.2000  219.5860 C   0  0  0  0  0  0  0  0  0  0  0  0
  146.2810   73.1490  218.6250 O   0  0  0  0  0  0  0  0  0  0  0  0
  145.2890   72.6220  220.6780 C   0  0  0  0  0  0  0  0  0  0  0  0
  144.7400   73.9410  220.7850 N   0  0  0  0  0  0  0  0  0  0  0  0
  143.7750   74.4410  220.0670 C   0  0  0  0  0  0  0  0  0  0  0  0
  144.0700   74.9580  218.8090 O   0  0  0  0  0  0  0  0  0  0  0  0
  142.3700   74.4850  220.5200 C   0  0  0  0  0  0  0  0  0  0  0  0
  141.5880   73.3210  220.5880 C   0  0  0  0  0  0  0  0  0  0  0  0
  140.2780   73.3960  221.0650 C   0  0  0  0  0  0  0  0  0  0  0  0
  139.7590   74.6240  221.4870 C   0  0  0  0  0  0  0  0  0  0  0  0
  138.4480   74.7350  221.9730 C   0  0  0  0  0  0  0  0  0  0  0  0
  137.9610   75.9770  222.3970 C   0  0  0  0  0  0  0  0  0  0  0  0
  136.3210   76.1140  223.0050 Cl  0  0  0  0  0  0  0  0  0  0  0  0
  138.7810   77.1100  222.3390 C   0  0  0  0  0  0  0  0  0  0  0  0
  140.0900   77.0070  221.8570 C   0  0  0  0  0  0  0  0  0  0  0  0
  140.5840   75.7700  221.4290 C   0  0  0  0  0  0  0  0  0  0  0  0
  141.8560   75.6660  220.9590 N   0  0  0  0  0  0  0  0  0  0  0  0
  143.3451   68.2754  220.3658 H   0  0  0  0  0  0  0  0  0  0  0  0
  143.2517   69.1703  218.8111 H   0  0  0  0  0  0  0  0  0  0  0  0
  143.5446   67.3981  218.8111 H   0  0  0  0  0  0  0  0  0  0  0  0
  145.5296   68.8021  220.4390 H   0  0  0  0  0  0  0  0  0  0  0  0
  146.3640   66.7758  219.7939 H   0  0  0  0  0  0  0  0  0  0  0  0
  145.3468   66.7180  218.3145 H   0  0  0  0  0  0  0  0  0  0  0  0
  146.8796   67.6545  218.3145 H   0  0  0  0  0  0  0  0  0  0  0  0
  146.3222   69.4875  217.7363 H   0  0  0  0  0  0  0  0  0  0  0  0
  144.7294   70.2549  218.1244 H   0  0  0  0  0  0  0  0  0  0  0  0
  146.0720   74.1290  218.7680 H   0  0  0  0  0  0  0  0  0  0  0  0
  145.1695   71.9290  221.5239 H   0  0  0  0  0  0  0  0  0  0  0  0
  144.8260   74.5770  218.2510 H   0  0  0  0  0  0  0  0  0  0  0  0
  142.0052   72.3551  220.2672 H   0  0  0  0  0  0  0  0  0  0  0  0
  139.6551   72.4904  221.1088 H   0  0  0  0  0  0  0  0  0  0  0  0
  137.8023   73.8458  222.0210 H   0  0  0  0  0  0  0  0  0  0  0  0
  138.3948   78.0842  222.6735 H   0  0  0  0  0  0  0  0  0  0  0  0
  140.7317   77.8994  221.8144 H   0  0  0  0  0  0  0  0  0  0  0  0
  1  2  1  0
  2  3  1  0
  2  4  1  0
  4  5  1  0
  5  6  1  0
  6  7  1  0
  6  8  2  0
  8  9  1  0
  9 10  2  0
 10 11  1  0
 10 12  1  0
 12 13  2  0
 13 14  1  0
 14 15  2  0
 15 16  1  0
 16 17  2  0
 17 18  1  0
 17 19  1  0
 19 20  2  0
 20 21  1  0
 21 22  2  0
 22 12  1  0
 21 15  1  0
  1 23  1  0
  1 24  1  0
  1 25  1  0
  2 26  1  0
  3 27  1  0
  3 28  1  0
  3 29  1  0
  4 30  1  0
  4 31  1  0
  7 32  1  0
  8 33  1  0
 11 34  1  0
 13 35  1  0
 14 36  1  0
 16 37  1  0
 19 38  1  0
 20 39  1  0
M  CHG  1   5  -1
M  END
>  <meeko>  (4) 
{"free_energy": -5.49, "intermolecular_energy": -8.18, "internal_energy": -2.1, "cluster_size": 8, "cluster_id": 2, "rank_in_cluster": 7}

$$$$

     RDKit          3D

 39 40  0  0  0  0  0  0  0  0999 V2000
  145.4100   67.0690  219.3550 C   0  0  0  0  0  0  0  0  0  0  0  0
  145.9570   68.3010  218.6220 C   0  0  0  0  0  0  0  0  0  0  0  0
  145.9660   68.0580  217.1080 C   0  0  0  0  0  0  0  0  0  0  0  0
  145.1300   69.5600  218.9550 C   0  0  0  0  0  0  0  0  0  0  0  0
  145.9670   70.7590  218.9690 N   0  0  0  0  0  0  0  0  0  0  0  0
  145.6050   72.1150  219.2980 C   0  0  0  0  0  0  0  0  0  0  0  0
  146.2910   73.1450  218.6620 O   0  0  0  0  0  0  0  0  0  0  0  0
  144.6550   72.4490  220.1830 C   0  0  0  0  0  0  0  0  0  0  0  0
  144.3160   73.8110  220.4710 N   0  0  0  0  0  0  0  0  0  0  0  0
  143.7750   74.6660  219.6510 C   0  0  0  0  0  0  0  0  0  0  0  0
  144.0680   74.5730  218.2930 O   0  0  0  0  0  0  0  0  0  0  0  0
  142.8570   75.7370  220.0880 C   0  0  0  0  0  0  0  0  0  0  0  0
  142.9350   77.0310  219.5480 C   0  0  0  0  0  0  0  0  0  0  0  0
  142.0200   78.0050  219.9530 C   0  0  0  0  0  0  0  0  0  0  0  0
  141.0220   77.6810  220.8790 C   0  0  0  0  0  0  0  0  0  0  0  0
  140.0860   78.6340  221.3060 C   0  0  0  0  0  0  0  0  0  0  0  0
  139.0940   78.2770  222.2270 C   0  0  0  0  0  0  0  0  0  0  0  0
  137.9230   79.4700  222.7600 Cl  0  0  0  0  0  0  0  0  0  0  0  0
  139.0330   76.9690  222.7220 C   0  0  0  0  0  0  0  0  0  0  0  0
  139.9620   76.0130  222.2990 C   0  0  0  0  0  0  0  0  0  0  0  0
  140.9580   76.3620  221.3810 C   0  0  0  0  0  0  0  0  0  0  0  0
  141.8640   75.4350  220.9690 N   0  0  0  0  0  0  0  0  0  0  0  0
  145.4803   67.2274  220.4413 H   0  0  0  0  0  0  0  0  0  0  0  0
  144.3579   66.9126  219.0746 H   0  0  0  0  0  0  0  0  0  0  0  0
  145.9996   66.1837  219.0746 H   0  0  0  0  0  0  0  0  0  0  0  0
  146.9888   68.4701  218.9638 H   0  0  0  0  0  0  0  0  0  0  0  0
  146.0061   66.9766  216.9104 H   0  0  0  0  0  0  0  0  0  0  0  0
  145.0517   68.4783  216.6637 H   0  0  0  0  0  0  0  0  0  0  0  0
  146.8467   68.5448  216.6637 H   0  0  0  0  0  0  0  0  0  0  0  0
  144.3425   69.6819  218.1968 H   0  0  0  0  0  0  0  0  0  0  0  0
  144.6915   69.4319  219.9556 H   0  0  0  0  0  0  0  0  0  0  0  0
  146.1000   74.1140  218.8900 H   0  0  0  0  0  0  0  0  0  0  0  0
  144.1153   71.6470  220.7079 H   0  0  0  0  0  0  0  0  0  0  0  0
  145.0060   74.7380  217.9480 H   0  0  0  0  0  0  0  0  0  0  0  0
  143.7128   77.2761  218.8098 H   0  0  0  0  0  0  0  0  0  0  0  0
  142.0835   79.0246  219.5451 H   0  0  0  0  0  0  0  0  0  0  0  0
  140.1313   79.6620  220.9173 H   0  0  0  0  0  0  0  0  0  0  0  0
  138.2522   76.6923  223.4457 H   0  0  0  0  0  0  0  0  0  0  0  0
  139.9094   74.9856  222.6886 H   0  0  0  0  0  0  0  0  0  0  0  0
  1  2  1  0
  2  3  1  0
  2  4  1  0
  4  5  1  0
  5  6  1  0
  6  7  1  0
  6  8  2  0
  8  9  1  0
  9 10  2  0
 10 11  1  0
 10 12  1  0
 12 13  2  0
 13 14  1  0
 14 15  2  0
 15 16  1  0
 16 17  2  0
 17 18  1  0
 17 19  1  0
 19 20  2  0
 20 21  1  0
 21 22  2  0
 22 12  1  0
 21 15  1  0
  1 23  1  0
  1 24  1  0
  1 25  1  0
  2 26  1  0
  3 27  1  0
  3 28  1  0
  3 29  1  0
  4 30  1  0
  4 31  1  0
  7 32  1  0
  8 33  1  0
 11 34  1  0
 13 35  1  0
 14 36  1  0
 16 37  1  0
 19 38  1  0
 20 39  1  0
M  CHG  1   5  -1
M  END
>  <meeko>  (5) 
{"free_energy": -5.68, "intermolecular_energy": -8.36, "internal_energy": -1.92, "cluster_size": 8, "cluster_id": 2, "rank_in_cluster": 4}

$$$$

     RDKit          3D

 39 40  0  0  0  0  0  0  0  0999 V2000
  143.8340   71.9750  220.7690 C   0  0  0  0  0  0  0  0  0  0  0  0
  144.3920   73.4020  220.8460 C   0  0  0  0  0  0  0  0  0  0  0  0
  145.9010   73.3690  221.1120 C   0  0  0  0  0  0  0  0  0  0  0  0
  144.0950   74.1870  219.5520 C   0  0  0  0  0  0  0  0  0  0  0  0
  142.9560   75.0880  219.7240 N   0  0  0  0  0  0  0  0  0  0  0  0
  141.6240   74.7890  220.1840 C   0  0  0  0  0  0  0  0  0  0  0  0
  140.6900   74.3600  219.2450 O   0  0  0  0  0  0  0  0  0  0  0  0
  141.2210   74.9030  221.4580 C   0  0  0  0  0  0  0  0  0  0  0  0
  140.1580   74.1120  222.0030 N   0  0  0  0  0  0  0  0  0  0  0  0
  139.9700   72.8350  221.8250 C   0  0  0  0  0  0  0  0  0  0  0  0
  139.7750   72.3590  220.5320 O   0  0  0  0  0  0  0  0  0  0  0  0
  139.9580   71.8570  222.9310 C   0  0  0  0  0  0  0  0  0  0  0  0
  139.5230   70.5370  222.7320 C   0  0  0  0  0  0  0  0  0  0  0  0
  139.5680   69.6280  223.7910 C   0  0  0  0  0  0  0  0  0  0  0  0
  140.0630   70.0320  225.0360 C   0  0  0  0  0  0  0  0  0  0  0  0
  140.1240   69.1450  226.1210 C   0  0  0  0  0  0  0  0  0  0  0  0
  140.6330   69.5780  227.3510 C   0  0  0  0  0  0  0  0  0  0  0  0
  140.7100   68.4680  228.7070 Cl  0  0  0  0  0  0  0  0  0  0  0  0
  141.0820   70.8960  227.5010 C   0  0  0  0  0  0  0  0  0  0  0  0
  141.0260   71.7850  226.4240 C   0  0  0  0  0  0  0  0  0  0  0  0
  140.5160   71.3620  225.1920 C   0  0  0  0  0  0  0  0  0  0  0  0
  140.4590   72.2250  224.1420 N   0  0  0  0  0  0  0  0  0  0  0  0
  143.6817   71.5855  221.7864 H   0  0  0  0  0  0  0  0  0  0  0  0
  142.8736   71.9853  220.2327 H   0  0  0  0  0  0  0  0  0  0  0  0
  144.5466   71.3311  220.2327 H   0  0  0  0  0  0  0  0  0  0  0  0
  143.8930   73.9178  221.6797 H   0  0  0  0  0  0  0  0  0  0  0  0
  146.0821   73.3650  222.1970 H   0  0  0  0  0  0  0  0  0  0  0  0
  146.3324   72.4612  220.6650 H   0  0  0  0  0  0  0  0  0  0  0  0
  146.3716   74.2571  220.6650 H   0  0  0  0  0  0  0  0  0  0  0  0
  144.9817   74.7788  219.2809 H   0  0  0  0  0  0  0  0  0  0  0  0
  143.8493   73.4660  218.7584 H   0  0  0  0  0  0  0  0  0  0  0  0
  139.7510   74.1060  219.5250 H   0  0  0  0  0  0  0  0  0  0  0  0
  141.7258   75.6316  222.1094 H   0  0  0  0  0  0  0  0  0  0  0  0
  140.4130   72.6020  219.7830 H   0  0  0  0  0  0  0  0  0  0  0  0
  139.1488   70.2206  221.7472 H   0  0  0  0  0  0  0  0  0  0  0  0
  139.2150   68.5962  223.6469 H   0  0  0  0  0  0  0  0  0  0  0  0
  139.7719   68.1093  226.0053 H   0  0  0  0  0  0  0  0  0  0  0  0
  141.4800   71.2327  228.4696 H   0  0  0  0  0  0  0  0  0  0  0  0
  141.3833   72.8183  226.5452 H   0  0  0  0  0  0  0  0  0  0  0  0
  1  2  1  0
  2  3  1  0
  2  4  1  0
  4  5  1  0
  5  6  1  0
  6  7  1  0
  6  8  2  0
  8  9  1  0
  9 10  2  0
 10 11  1  0
 10 12  1  0
 12 13  2  0
 13 14  1  0
 14 15  2  0
 15 16  1  0
 16 17  2  0
 17 18  1  0
 17 19  1  0
 19 20  2  0
 20 21  1  0
 21 22  2  0
 22 12  1  0
 21 15  1  0
  1 23  1  0
  1 24  1  0
  1 25  1  0
  2 26  1  0
  3 27  1  0
  3 28  1  0
  3 29  1  0
  4 30  1  0
  4 31  1  0
  7 32  1  0
  8 33  1  0
 11 34  1  0
 13 35  1  0
 14 36  1  0
 16 37  1  0
 19 38  1  0
 20 39  1  0
M  CHG  1   5  -1
M  END
>  <meeko>  (6) 
{"free_energy": -4.97, "intermolecular_energy": -7.65, "internal_energy": -2.43, "cluster_size": 4, "cluster_id": 4, "rank_in_cluster": 3}

$$$$

     RDKit          3D

 39 40  0  0  0  0  0  0  0  0999 V2000
  142.4640   79.9600  223.4550 C   0  0  0  0  0  0  0  0  0  0  0  0
  141.3010   78.9590  223.4620 C   0  0  0  0  0  0  0  0  0  0  0  0
  139.9910   79.6700  223.8200 C   0  0  0  0  0  0  0  0  0  0  0  0
  141.1680   78.2500  222.0990 C   0  0  0  0  0  0  0  0  0  0  0  0
  139.9720   77.4110  222.0490 N   0  0  0  0  0  0  0  0  0  0  0  0
  139.8680   75.9750  222.0850 C   0  0  0  0  0  0  0  0  0  0  0  0
  138.7430   75.4160  222.6850 O   0  0  0  0  0  0  0  0  0  0  0  0
  140.7890   75.1380  221.5840 C   0  0  0  0  0  0  0  0  0  0  0  0
  140.8720   73.7620  221.9720 N   0  0  0  0  0  0  0  0  0  0  0  0
  139.8730   72.9530  222.1820 C   0  0  0  0  0  0  0  0  0  0  0  0
  138.7330   73.0730  221.3930 O   0  0  0  0  0  0  0  0  0  0  0  0
  139.8870   71.9020  223.2190 C   0  0  0  0  0  0  0  0  0  0  0  0
  139.4700   70.5910  222.9360 C   0  0  0  0  0  0  0  0  0  0  0  0
  139.5410   69.6140  223.9310 C   0  0  0  0  0  0  0  0  0  0  0  0
  140.0430   69.9410  225.1960 C   0  0  0  0  0  0  0  0  0  0  0  0
  140.1300   68.9840  226.2170 C   0  0  0  0  0  0  0  0  0  0  0  0
  140.6450   69.3410  227.4690 C   0  0  0  0  0  0  0  0  0  0  0  0
  140.7530   68.1430  228.7450 Cl  0  0  0  0  0  0  0  0  0  0  0  0
  141.0750   70.6520  227.7030 C   0  0  0  0  0  0  0  0  0  0  0  0
  140.9940   71.6120  226.6890 C   0  0  0  0  0  0  0  0  0  0  0  0
  140.4780   71.2640  225.4360 C   0  0  0  0  0  0  0  0  0  0  0  0
  140.3950   72.1950  224.4470 N   0  0  0  0  0  0  0  0  0  0  0  0
  142.7455   80.2023  224.4904 H   0  0  0  0  0  0  0  0  0  0  0  0
  143.3260   79.5169  222.9348 H   0  0  0  0  0  0  0  0  0  0  0  0
  142.1542   80.8784  222.9348 H   0  0  0  0  0  0  0  0  0  0  0  0
  141.5139   78.1950  224.2242 H   0  0  0  0  0  0  0  0  0  0  0  0
  139.8905   79.7245  224.9141 H   0  0  0  0  0  0  0  0  0  0  0  0
  139.9996   80.6872  223.4014 H   0  0  0  0  0  0  0  0  0  0  0  0
  139.1428   79.1085  223.4014 H   0  0  0  0  0  0  0  0  0  0  0  0
  141.1062   79.0090  221.3052 H   0  0  0  0  0  0  0  0  0  0  0  0
  142.0486   77.6066  221.9559 H   0  0  0  0  0  0  0  0  0  0  0  0
  138.7650   74.4720  223.0510 H   0  0  0  0  0  0  0  0  0  0  0  0
  141.5083   75.5236  220.8465 H   0  0  0  0  0  0  0  0  0  0  0  0
  138.2680   73.9660  221.2780 H   0  0  0  0  0  0  0  0  0  0  0  0
  139.0896   70.3354  221.9360 H   0  0  0  0  0  0  0  0  0  0  0  0
  139.2028   68.5886  223.7210 H   0  0  0  0  0  0  0  0  0  0  0  0
  139.7937   67.9527  226.0343 H   0  0  0  0  0  0  0  0  0  0  0  0
  141.4783   70.9286  228.6883 H   0  0  0  0  0  0  0  0  0  0  0  0
  141.3360   72.6405  226.8767 H   0  0  0  0  0  0  0  0  0  0  0  0
  1  2  1  0
  2  3  1  0
  2  4  1  0
  4  5  1  0
  5  6  1  0
  6  7  1  0
  6  8  2  0
  8  9  1  0
  9 10  2  0
 10 11  1  0
 10 12  1  0
 12 13  2  0
 13 14  1  0
 14 15  2  0
 15 16  1  0
 16 17  2  0
 17 18  1  0
 17 19  1  0
 19 20  2  0
 20 21  1  0
 21 22  2  0
 22 12  1  0
 21 15  1  0
  1 23  1  0
  1 24  1  0
  1 25  1  0
  2 26  1  0
  3 27  1  0
  3 28  1  0
  3 29  1  0
  4 30  1  0
  4 31  1  0
  7 32  1  0
  8 33  1  0
 11 34  1  0
 13 35  1  0
 14 36  1  0
 16 37  1  0
 19 38  1  0
 20 39  1  0
M  CHG  1   5  -1
M  END
>  <meeko>  (7) 
{"free_energy": -6.18, "intermolecular_energy": -8.87, "internal_energy": -1.93, "cluster_size": 7, "cluster_id": 1, "rank_in_cluster": 2}

$$$$

     RDKit          3D

 39 40  0  0  0  0  0  0  0  0999 V2000
  144.1980   71.6810  220.1080 C   0  0  0  0  0  0  0  0  0  0  0  0
  144.0730   73.0560  220.7780 C   0  0  0  0  0  0  0  0  0  0  0  0
  145.4280   73.7740  220.7750 C   0  0  0  0  0  0  0  0  0  0  0  0
  143.0090   73.9230  220.0750 C   0  0  0  0  0  0  0  0  0  0  0  0
  141.9500   74.3230  221.0010 N   0  0  0  0  0  0  0  0  0  0  0  0
  140.7070   73.6590  221.2990 C   0  0  0  0  0  0  0  0  0  0  0  0
  139.9500   74.1400  222.3640 O   0  0  0  0  0  0  0  0  0  0  0  0
  140.2330   72.6030  220.6230 C   0  0  0  0  0  0  0  0  0  0  0  0
  139.1600   71.7910  221.1150 N   0  0  0  0  0  0  0  0  0  0  0  0
  138.6130   71.8590  222.2950 C   0  0  0  0  0  0  0  0  0  0  0  0
  137.6240   72.8110  222.5240 O   0  0  0  0  0  0  0  0  0  0  0  0
  138.9870   70.9690  223.4120 C   0  0  0  0  0  0  0  0  0  0  0  0
  138.7840   69.5810  223.3390 C   0  0  0  0  0  0  0  0  0  0  0  0
  139.1930   68.7670  224.3970 C   0  0  0  0  0  0  0  0  0  0  0  0
  139.8170   69.3350  225.5130 C   0  0  0  0  0  0  0  0  0  0  0  0
  140.2420   68.5460  226.5930 C   0  0  0  0  0  0  0  0  0  0  0  0
  140.8720   69.1440  227.6910 C   0  0  0  0  0  0  0  0  0  0  0  0
  141.4030   68.1560  229.0400 Cl  0  0  0  0  0  0  0  0  0  0  0  0
  141.0810   70.5280  227.7130 C   0  0  0  0  0  0  0  0  0  0  0  0
  140.6620   71.3200  226.6400 C   0  0  0  0  0  0  0  0  0  0  0  0
  140.0290   70.7320  225.5400 C   0  0  0  0  0  0  0  0  0  0  0  0
  139.6190   71.5000  224.4950 N   0  0  0  0  0  0  0  0  0  0  0  0
  144.2689   70.9016  220.8810 H   0  0  0  0  0  0  0  0  0  0  0  0
  143.3129   71.4966  219.4814 H   0  0  0  0  0  0  0  0  0  0  0  0
  145.1018   71.6592  219.4814 H   0  0  0  0  0  0  0  0  0  0  0  0
  143.7529   72.8995  221.8187 H   0  0  0  0  0  0  0  0  0  0  0  0
  145.7538   73.9466  221.8114 H   0  0  0  0  0  0  0  0  0  0  0  0
  146.1716   73.1516  220.2557 H   0  0  0  0  0  0  0  0  0  0  0  0
  145.3306   74.7388  220.2557 H   0  0  0  0  0  0  0  0  0  0  0  0
  143.4919   74.8255  219.6721 H   0  0  0  0  0  0  0  0  0  0  0  0
  142.5566   73.3288  219.2674 H   0  0  0  0  0  0  0  0  0  0  0  0
  139.6060   73.5130  223.0810 H   0  0  0  0  0  0  0  0  0  0  0  0
  140.6854   72.3500  219.6528 H   0  0  0  0  0  0  0  0  0  0  0  0
  137.8630   73.7650  222.7710 H   0  0  0  0  0  0  0  0  0  0  0  0
  138.3055   69.1379  222.4532 H   0  0  0  0  0  0  0  0  0  0  0  0
  139.0249   67.6808  224.3532 H   0  0  0  0  0  0  0  0  0  0  0  0
  140.0802   67.4581  226.5768 H   0  0  0  0  0  0  0  0  0  0  0  0
  141.5766   70.9939  228.5775 H   0  0  0  0  0  0  0  0  0  0  0  0
  140.8303   72.4069  226.6608 H   0  0  0  0  0  0  0  0  0  0  0  0
  1  2  1  0
  2  3  1  0
  2  4  1  0
  4  5  1  0
  5  6  1  0
  6  7  1  0
  6  8  2  0
  8  9  1  0
  9 10  2  0
 10 11  1  0
 10 12  1  0
 12 13  2  0
 13 14  1  0
 14 15  2  0
 15 16  1  0
 16 17  2  0
 17 18  1  0
 17 19  1  0
 19 20  2  0
 20 21  1  0
 21 22  2  0
 22 12  1  0
 21 15  1  0
  1 23  1  0
  1 24  1  0
  1 25  1  0
  2 26  1  0
  3 27  1  0
  3 28  1  0
  3 29  1  0
  4 30  1  0
  4 31  1  0
  7 32  1  0
  8 33  1  0
 11 34  1  0
 13 35  1  0
 14 36  1  0
 16 37  1  0
 19 38  1  0
 20 39  1  0
M  CHG  1   5  -1
M  END
>  <meeko>  (8) 
{"free_energy": -5.8, "intermolecular_energy": -8.49, "internal_energy": -2.11, "cluster_size": 7, "cluster_id": 1, "rank_in_cluster": 7}

$$$$

     RDKit          3D

 39 40  0  0  0  0  0  0  0  0999 V2000
  146.1410   73.3960  221.4720 C   0  0  0  0  0  0  0  0  0  0  0  0
  145.0680   73.2090  220.3910 C   0  0  0  0  0  0  0  0  0  0  0  0
  144.0770   72.1170  220.8100 C   0  0  0  0  0  0  0  0  0  0  0  0
  144.3210   74.5300  220.1140 C   0  0  0  0  0  0  0  0  0  0  0  0
  143.0370   74.2870  219.4570 N   0  0  0  0  0  0  0  0  0  0  0  0
  141.7040   74.4730  219.9730 C   0  0  0  0  0  0  0  0  0  0  0  0
  140.6390   74.3630  219.0840 O   0  0  0  0  0  0  0  0  0  0  0  0
  141.4220   74.7540  221.2530 C   0  0  0  0  0  0  0  0  0  0  0  0
  140.3720   74.0970  221.9730 N   0  0  0  0  0  0  0  0  0  0  0  0
  139.9880   72.8600  221.8280 C   0  0  0  0  0  0  0  0  0  0  0  0
  139.5720   72.4290  220.5720 O   0  0  0  0  0  0  0  0  0  0  0  0
  139.9740   71.8830  222.9340 C   0  0  0  0  0  0  0  0  0  0  0  0
  139.5380   70.5620  222.7350 C   0  0  0  0  0  0  0  0  0  0  0  0
  139.5820   69.6540  223.7950 C   0  0  0  0  0  0  0  0  0  0  0  0
  140.0770   70.0580  225.0390 C   0  0  0  0  0  0  0  0  0  0  0  0
  140.1380   69.1700  226.1240 C   0  0  0  0  0  0  0  0  0  0  0  0
  140.6470   69.6030  227.3540 C   0  0  0  0  0  0  0  0  0  0  0  0
  140.7230   68.4930  228.7100 Cl  0  0  0  0  0  0  0  0  0  0  0  0
  141.0980   70.9200  227.5040 C   0  0  0  0  0  0  0  0  0  0  0  0
  141.0430   71.8100  226.4260 C   0  0  0  0  0  0  0  0  0  0  0  0
  140.5330   71.3870  225.1940 C   0  0  0  0  0  0  0  0  0  0  0  0
  140.4760   72.2500  224.1440 N   0  0  0  0  0  0  0  0  0  0  0  0
  145.6777   73.3153  222.4664 H   0  0  0  0  0  0  0  0  0  0  0  0
  146.9115   72.6186  221.3622 H   0  0  0  0  0  0  0  0  0  0  0  0
  146.6030   74.3882  221.3622 H   0  0  0  0  0  0  0  0  0  0  0  0
  145.5699   72.8997  219.4624 H   0  0  0  0  0  0  0  0  0  0  0  0
  144.0305   72.0657  221.9078 H   0  0  0  0  0  0  0  0  0  0  0  0
  143.0796   72.3544  220.4114 H   0  0  0  0  0  0  0  0  0  0  0  0
  144.4098   71.1473  220.4114 H   0  0  0  0  0  0  0  0  0  0  0  0
  144.1430   75.0478  221.0680 H   0  0  0  0  0  0  0  0  0  0  0  0
  144.9413   75.1462  219.4465 H   0  0  0  0  0  0  0  0  0  0  0  0
  139.6910   74.2530  219.4210 H   0  0  0  0  0  0  0  0  0  0  0  0
  142.0199   75.5186  221.7706 H   0  0  0  0  0  0  0  0  0  0  0  0
  140.1700   72.5270  219.7600 H   0  0  0  0  0  0  0  0  0  0  0  0
  139.1643   70.2451  221.7502 H   0  0  0  0  0  0  0  0  0  0  0  0
  139.2278   68.6225  223.6517 H   0  0  0  0  0  0  0  0  0  0  0  0
  139.7860   68.1343  226.0079 H   0  0  0  0  0  0  0  0  0  0  0  0
  141.4969   71.2560  228.4725 H   0  0  0  0  0  0  0  0  0  0  0  0
  141.4010   72.8430  226.5472 H   0  0  0  0  0  0  0  0  0  0  0  0
  1  2  1  0
  2  3  1  0
  2  4  1  0
  4  5  1  0
  5  6  1  0
  6  7  1  0
  6  8  2  0
  8  9  1  0
  9 10  2  0
 10 11  1  0
 10 12  1  0
 12 13  2  0
 13 14  1  0
 14 15  2  0
 15 16  1  0
 16 17  2  0
 17 18  1  0
 17 19  1  0
 19 20  2  0
 20 21  1  0
 21 22  2  0
 22 12  1  0
 21 15  1  0
  1 23  1  0
  1 24  1  0
  1 25  1  0
  2 26  1  0
  3 27  1  0
  3 28  1  0
  3 29  1  0
  4 30  1  0
  4 31  1  0
  7 32  1  0
  8 33  1  0
 11 34  1  0
 13 35  1  0
 14 36  1  0
 16 37  1  0
 19 38  1  0
 20 39  1  0
M  CHG  1   5  -1
M  END
>  <meeko>  (9) 
{"free_energy": -5.17, "intermolecular_energy": -7.85, "internal_energy": -2.25, "cluster_size": 4, "cluster_id": 4, "rank_in_cluster": 1}

$$$$

     RDKit          3D

 39 40  0  0  0  0  0  0  0  0999 V2000
  144.2480   68.1500  219.7100 C   0  0  0  0  0  0  0  0  0  0  0  0
  145.7220   68.3730  219.3450 C   0  0  0  0  0  0  0  0  0  0  0  0
  146.2700   67.1590  218.5860 C   0  0  0  0  0  0  0  0  0  0  0  0
  145.8990   69.6540  218.5040 C   0  0  0  0  0  0  0  0  0  0  0  0
  146.3200   70.7820  219.3340 N   0  0  0  0  0  0  0  0  0  0  0  0
  145.7420   72.0980  219.4370 C   0  0  0  0  0  0  0  0  0  0  0  0
  146.3000   73.1170  218.6720 O   0  0  0  0  0  0  0  0  0  0  0  0
  144.7050   72.4070  220.2290 C   0  0  0  0  0  0  0  0  0  0  0  0
  144.3230   73.7590  220.5060 N   0  0  0  0  0  0  0  0  0  0  0  0
  143.7750   74.5980  219.6730 C   0  0  0  0  0  0  0  0  0  0  0  0
  144.0550   74.4750  218.3150 O   0  0  0  0  0  0  0  0  0  0  0  0
  142.8620   75.6780  220.0960 C   0  0  0  0  0  0  0  0  0  0  0  0
  142.9460   76.9640  219.5390 C   0  0  0  0  0  0  0  0  0  0  0  0
  142.0360   77.9470  219.9310 C   0  0  0  0  0  0  0  0  0  0  0  0
  141.0350   77.6400  220.8600 C   0  0  0  0  0  0  0  0  0  0  0  0
  140.1030   78.6030  221.2740 C   0  0  0  0  0  0  0  0  0  0  0  0
  139.1080   78.2620  222.1980 C   0  0  0  0  0  0  0  0  0  0  0  0
  137.9430   79.4670  222.7150 Cl  0  0  0  0  0  0  0  0  0  0  0  0
  139.0410   76.9600  222.7090 C   0  0  0  0  0  0  0  0  0  0  0  0
  139.9660   75.9950  222.3000 C   0  0  0  0  0  0  0  0  0  0  0  0
  140.9650   76.3280  221.3780 C   0  0  0  0  0  0  0  0  0  0  0  0
  141.8670   75.3920  220.9780 N   0  0  0  0  0  0  0  0  0  0  0  0
  144.1397   68.1336  220.8045 H   0  0  0  0  0  0  0  0  0  0  0  0
  143.6396   68.9663  219.2935 H   0  0  0  0  0  0  0  0  0  0  0  0
  143.9083   67.1902  219.2935 H   0  0  0  0  0  0  0  0  0  0  0  0
  146.2900   68.4972  220.2788 H   0  0  0  0  0  0  0  0  0  0  0  0
  146.6123   66.4006  219.3055 H   0  0  0  0  0  0  0  0  0  0  0  0
  145.4768   66.7331  217.9539 H   0  0  0  0  0  0  0  0  0  0  0  0
  147.1141   67.4721  217.9539 H   0  0  0  0  0  0  0  0  0  0  0  0
  146.6616   69.4731  217.7321 H   0  0  0  0  0  0  0  0  0  0  0  0
  144.9311   69.9037  218.0448 H   0  0  0  0  0  0  0  0  0  0  0  0
  146.1030   74.0890  218.8790 H   0  0  0  0  0  0  0  0  0  0  0  0
  144.1252   71.5902  220.6836 H   0  0  0  0  0  0  0  0  0  0  0  0
  144.9790   74.6780  217.9510 H   0  0  0  0  0  0  0  0  0  0  0  0
  143.7249   77.1956  218.7976 H   0  0  0  0  0  0  0  0  0  0  0  0
  142.1053   78.9611  219.5106 H   0  0  0  0  0  0  0  0  0  0  0  0
  140.1538   79.6259  220.8728 H   0  0  0  0  0  0  0  0  0  0  0  0
  138.2578   76.6957  223.4347 H   0  0  0  0  0  0  0  0  0  0  0  0
  139.9087   74.9731  222.7031 H   0  0  0  0  0  0  0  0  0  0  0  0
  1  2  1  0
  2  3  1  0
  2  4  1  0
  4  5  1  0
  5  6  1  0
  6  7  1  0
  6  8  2  0
  8  9  1  0
  9 10  2  0
 10 11  1  0
 10 12  1  0
 12 13  2  0
 13 14  1  0
 14 15  2  0
 15 16  1  0
 16 17  2  0
 17 18  1  0
 17 19  1  0
 19 20  2  0
 20 21  1  0
 21 22  2  0
 22 12  1  0
 21 15  1  0
  1 23  1  0
  1 24  1  0
  1 25  1  0
  2 26  1  0
  3 27  1  0
  3 28  1  0
  3 29  1  0
  4 30  1  0
  4 31  1  0
  7 32  1  0
  8 33  1  0
 11 34  1  0
 13 35  1  0
 14 36  1  0
 16 37  1  0
 19 38  1  0
 20 39  1  0
M  CHG  1   5  -1
M  END
>  <meeko>  (10) 
{"free_energy": -5.82, "intermolecular_energy": -8.5, "internal_energy": -1.92, "cluster_size": 8, "cluster_id": 2, "rank_in_cluster": 2}

$$$$

     RDKit          3D

 39 40  0  0  0  0  0  0  0  0999 V2000
  140.4580   80.7130  223.2920 C   0  0  0  0  0  0  0  0  0  0  0  0
  140.8270   79.3010  222.8190 C   0  0  0  0  0  0  0  0  0  0  0  0
  141.8090   78.6510  223.8010 C   0  0  0  0  0  0  0  0  0  0  0  0
  139.5700   78.4210  222.6600 C   0  0  0  0  0  0  0  0  0  0  0  0
  139.7810   77.3640  221.6710 N   0  0  0  0  0  0  0  0  0  0  0  0
  139.6560   75.9380  221.8260 C   0  0  0  0  0  0  0  0  0  0  0  0
  138.5260   75.4490  222.4740 O   0  0  0  0  0  0  0  0  0  0  0  0
  140.5610   75.0480  221.3920 C   0  0  0  0  0  0  0  0  0  0  0  0
  140.7010   73.7460  221.9730 N   0  0  0  0  0  0  0  0  0  0  0  0
  139.7500   72.8780  222.1690 C   0  0  0  0  0  0  0  0  0  0  0  0
  138.6200   72.9230  221.3570 O   0  0  0  0  0  0  0  0  0  0  0  0
  139.8100   71.8350  223.2130 C   0  0  0  0  0  0  0  0  0  0  0  0
  139.4340   70.5090  222.9430 C   0  0  0  0  0  0  0  0  0  0  0  0
  139.5470   69.5420  223.9430 C   0  0  0  0  0  0  0  0  0  0  0  0
  140.0500   69.8950  225.2000 C   0  0  0  0  0  0  0  0  0  0  0  0
  140.1800   68.9480  226.2270 C   0  0  0  0  0  0  0  0  0  0  0  0
  140.6950   69.3310  227.4710 C   0  0  0  0  0  0  0  0  0  0  0  0
  140.8560   68.1460  228.7550 Cl  0  0  0  0  0  0  0  0  0  0  0  0
  141.0840   70.6580  227.6920 C   0  0  0  0  0  0  0  0  0  0  0  0
  140.9600   71.6070  226.6730 C   0  0  0  0  0  0  0  0  0  0  0  0
  140.4430   71.2330  225.4280 C   0  0  0  0  0  0  0  0  0  0  0  0
  140.3200   72.1540  224.4340 N   0  0  0  0  0  0  0  0  0  0  0  0
  140.4506   80.7411  224.3916 H   0  0  0  0  0  0  0  0  0  0  0  0
  141.1983   81.4322  222.9118 H   0  0  0  0  0  0  0  0  0  0  0  0
  139.4604   80.9781  222.9118 H   0  0  0  0  0  0  0  0  0  0  0  0
  141.3100   79.3871  221.8345 H   0  0  0  0  0  0  0  0  0  0  0  0
  141.4900   78.8622  224.8323 H   0  0  0  0  0  0  0  0  0  0  0  0
  141.8250   77.5633  223.6376 H   0  0  0  0  0  0  0  0  0  0  0  0
  142.8165   79.0612  223.6376 H   0  0  0  0  0  0  0  0  0  0  0  0
  139.3299   77.9610  223.6300 H   0  0  0  0  0  0  0  0  0  0  0  0
  138.7423   79.0581  222.3150 H   0  0  0  0  0  0  0  0  0  0  0  0
  138.5040   74.5040  222.8380 H   0  0  0  0  0  0  0  0  0  0  0  0
  141.2210   75.3287  220.5579 H   0  0  0  0  0  0  0  0  0  0  0  0
  138.1960   73.8060  221.0990 H   0  0  0  0  0  0  0  0  0  0  0  0
  139.0525   70.2341  221.9486 H   0  0  0  0  0  0  0  0  0  0  0  0
  139.2412   68.5044  223.7433 H   0  0  0  0  0  0  0  0  0  0  0  0
  139.8772   67.9046  226.0547 H   0  0  0  0  0  0  0  0  0  0  0  0
  141.4886   70.9547  228.6709 H   0  0  0  0  0  0  0  0  0  0  0  0
  141.2689   72.6478  226.8501 H   0  0  0  0  0  0  0  0  0  0  0  0
  1  2  1  0
  2  3  1  0
  2  4  1  0
  4  5  1  0
  5  6  1  0
  6  7  1  0
  6  8  2  0
  8  9  1  0
  9 10  2  0
 10 11  1  0
 10 12  1  0
 12 13  2  0
 13 14  1  0
 14 15  2  0
 15 16  1  0
 16 17  2  0
 17 18  1  0
 17 19  1  0
 19 20  2  0
 20 21  1  0
 21 22  2  0
 22 12  1  0
 21 15  1  0
  1 23  1  0
  1 24  1  0
  1 25  1  0
  2 26  1  0
  3 27  1  0
  3 28  1  0
  3 29  1  0
  4 30  1  0
  4 31  1  0
  7 32  1  0
  8 33  1  0
 11 34  1  0
 13 35  1  0
 14 36  1  0
 16 37  1  0
 19 38  1  0
 20 39  1  0
M  CHG  1   5  -1
M  END
>  <meeko>  (11) 
{"free_energy": -5.93, "intermolecular_energy": -8.62, "internal_energy": -1.98, "cluster_size": 7, "cluster_id": 1, "rank_in_cluster": 5}

$$$$

     RDKit          3D

 39 40  0  0  0  0  0  0  0  0999 V2000
  144.5930   74.1650  220.7390 C   0  0  0  0  0  0  0  0  0  0  0  0
  145.9930   73.5590  220.5750 C   0  0  0  0  0  0  0  0  0  0  0  0
  146.6680   73.4020  221.9420 C   0  0  0  0  0  0  0  0  0  0  0  0
  145.9300   72.1980  219.8520 C   0  0  0  0  0  0  0  0  0  0  0  0
  145.9500   72.3650  218.3990 N   0  0  0  0  0  0  0  0  0  0  0  0
  145.0790   73.1520  217.5640 C   0  0  0  0  0  0  0  0  0  0  0  0
  145.6420   73.8130  216.4760 O   0  0  0  0  0  0  0  0  0  0  0  0
  143.7620   73.2970  217.7700 C   0  0  0  0  0  0  0  0  0  0  0  0
  143.0410   74.4620  217.3530 N   0  0  0  0  0  0  0  0  0  0  0  0
  143.4350   75.6990  217.4600 C   0  0  0  0  0  0  0  0  0  0  0  0
  144.4600   76.1520  216.6350 O   0  0  0  0  0  0  0  0  0  0  0  0
  142.8440   76.6560  218.4160 C   0  0  0  0  0  0  0  0  0  0  0  0
  142.7920   78.0310  218.1350 C   0  0  0  0  0  0  0  0  0  0  0  0
  142.1840   78.8990  219.0440 C   0  0  0  0  0  0  0  0  0  0  0  0
  141.6160   78.3930  220.2180 C   0  0  0  0  0  0  0  0  0  0  0  0
  140.9960   79.2370  221.1520 C   0  0  0  0  0  0  0  0  0  0  0  0
  140.4280   78.6990  222.3130 C   0  0  0  0  0  0  0  0  0  0  0  0
  139.6530   79.7550  223.4790 Cl  0  0  0  0  0  0  0  0  0  0  0  0
  140.4770   77.3190  222.5440 C   0  0  0  0  0  0  0  0  0  0  0  0
  141.0920   76.4710  221.6170 C   0  0  0  0  0  0  0  0  0  0  0  0
  141.6630   77.0010  220.4550 C   0  0  0  0  0  0  0  0  0  0  0  0
  142.2630   76.1800  219.5520 N   0  0  0  0  0  0  0  0  0  0  0  0
  144.3602   74.2658  221.8093 H   0  0  0  0  0  0  0  0  0  0  0  0
  144.5643   75.1561  220.2626 H   0  0  0  0  0  0  0  0  0  0  0  0
  143.8508   73.5076  220.2626 H   0  0  0  0  0  0  0  0  0  0  0  0
  146.5904   74.2460  219.9576 H   0  0  0  0  0  0  0  0  0  0  0  0
  145.9285   73.5740  222.7380 H   0  0  0  0  0  0  0  0  0  0  0  0
  147.0765   72.3849  222.0346 H   0  0  0  0  0  0  0  0  0  0  0  0
  147.4834   74.1345  222.0346 H   0  0  0  0  0  0  0  0  0  0  0  0
  146.7963   71.5914  220.1546 H   0  0  0  0  0  0  0  0  0  0  0  0
  144.9892   71.7007  220.1308 H   0  0  0  0  0  0  0  0  0  0  0  0
  145.1170   74.5130  215.9650 H   0  0  0  0  0  0  0  0  0  0  0  0
  143.2143   72.4901  218.2789 H   0  0  0  0  0  0  0  0  0  0  0  0
  145.4290   75.9370  216.8380 H   0  0  0  0  0  0  0  0  0  0  0  0
  143.2279   78.4220  217.2038 H   0  0  0  0  0  0  0  0  0  0  0  0
  142.1517   79.9789  218.8374 H   0  0  0  0  0  0  0  0  0  0  0  0
  140.9563   80.3214  220.9719 H   0  0  0  0  0  0  0  0  0  0  0  0
  140.0303   76.9001  223.4578 H   0  0  0  0  0  0  0  0  0  0  0  0
  141.1267   75.3872  221.8017 H   0  0  0  0  0  0  0  0  0  0  0  0
  1  2  1  0
  2  3  1  0
  2  4  1  0
  4  5  1  0
  5  6  1  0
  6  7  1  0
  6  8  2  0
  8  9  1  0
  9 10  2  0
 10 11  1  0
 10 12  1  0
 12 13  2  0
 13 14  1  0
 14 15  2  0
 15 16  1  0
 16 17  2  0
 17 18  1  0
 17 19  1  0
 19 20  2  0
 20 21  1  0
 21 22  2  0
 22 12  1  0
 21 15  1  0
  1 23  1  0
  1 24  1  0
  1 25  1  0
  2 26  1  0
  3 27  1  0
  3 28  1  0
  3 29  1  0
  4 30  1  0
  4 31  1  0
  7 32  1  0
  8 33  1  0
 11 34  1  0
 13 35  1  0
 14 36  1  0
 16 37  1  0
 19 38  1  0
 20 39  1  0
M  CHG  1   5  -1
M  END
>  <meeko>  (12) 
{"free_energy": -5.04, "intermolecular_energy": -7.72, "internal_energy": -2.46, "cluster_size": 8, "cluster_id": 2, "rank_in_cluster": 8}

$$$$

     RDKit          3D

 39 40  0  0  0  0  0  0  0  0999 V2000
  144.1880   68.6220  219.6930 C   0  0  0  0  0  0  0  0  0  0  0  0
  145.6820   68.6310  219.3420 C   0  0  0  0  0  0  0  0  0  0  0  0
  146.0600   67.3450  218.5970 C   0  0  0  0  0  0  0  0  0  0  0  0
  146.0470   69.8660  218.4920 C   0  0  0  0  0  0  0  0  0  0  0  0
  146.2590   71.0450  219.3310 N   0  0  0  0  0  0  0  0  0  0  0  0
  145.5800   72.3150  219.2990 C   0  0  0  0  0  0  0  0  0  0  0  0
  146.2010   73.3710  218.6390 O   0  0  0  0  0  0  0  0  0  0  0  0
  144.3900   72.5500  219.8710 C   0  0  0  0  0  0  0  0  0  0  0  0
  143.3650   73.3190  219.2300 N   0  0  0  0  0  0  0  0  0  0  0  0
  143.2900   74.6180  219.1740 C   0  0  0  0  0  0  0  0  0  0  0  0
  144.0450   75.2950  218.2200 O   0  0  0  0  0  0  0  0  0  0  0  0
  142.4360   75.4190  220.0740 C   0  0  0  0  0  0  0  0  0  0  0  0
  141.6500   74.8110  221.0660 C   0  0  0  0  0  0  0  0  0  0  0  0
  140.8900   75.6040  221.9270 C   0  0  0  0  0  0  0  0  0  0  0  0
  140.9310   76.9980  221.8100 C   0  0  0  0  0  0  0  0  0  0  0  0
  140.1820   77.8250  222.6600 C   0  0  0  0  0  0  0  0  0  0  0  0
  140.2520   79.2160  222.5220 C   0  0  0  0  0  0  0  0  0  0  0  0
  139.3150   80.2490  223.5860 Cl  0  0  0  0  0  0  0  0  0  0  0  0
  141.0690   79.7850  221.5380 C   0  0  0  0  0  0  0  0  0  0  0  0
  141.8200   78.9670  220.6880 C   0  0  0  0  0  0  0  0  0  0  0  0
  141.7540   77.5750  220.8170 C   0  0  0  0  0  0  0  0  0  0  0  0
  142.4820   76.7760  219.9910 N   0  0  0  0  0  0  0  0  0  0  0  0
  144.0683   68.6213  220.7865 H   0  0  0  0  0  0  0  0  0  0  0  0
  143.7071   69.5173  219.2721 H   0  0  0  0  0  0  0  0  0  0  0  0
  143.7179   67.7210  219.2721 H   0  0  0  0  0  0  0  0  0  0  0  0
  146.2522   68.6822  220.2813 H   0  0  0  0  0  0  0  0  0  0  0  0
  146.2925   66.5541  219.3254 H   0  0  0  0  0  0  0  0  0  0  0  0
  145.2176   67.0259  217.9656 H   0  0  0  0  0  0  0  0  0  0  0  0
  146.9410   67.5325  217.9656 H   0  0  0  0  0  0  0  0  0  0  0  0
  146.9693   69.6549  217.9310 H   0  0  0  0  0  0  0  0  0  0  0  0
  145.2128   70.0738  217.8057 H   0  0  0  0  0  0  0  0  0  0  0  0
  145.8960   74.3260  218.7840 H   0  0  0  0  0  0  0  0  0  0  0  0
  144.1932   72.1363  220.8711 H   0  0  0  0  0  0  0  0  0  0  0  0
  144.8940   74.8900  217.8420 H   0  0  0  0  0  0  0  0  0  0  0  0
  141.6333   73.7155  221.1640 H   0  0  0  0  0  0  0  0  0  0  0  0
  140.2597   75.1341  222.6964 H   0  0  0  0  0  0  0  0  0  0  0  0
  139.5399   77.3805  223.4347 H   0  0  0  0  0  0  0  0  0  0  0  0
  141.1204   80.8788  221.4330 H   0  0  0  0  0  0  0  0  0  0  0  0
  142.4629   79.4179  219.9177 H   0  0  0  0  0  0  0  0  0  0  0  0
  1  2  1  0
  2  3  1  0
  2  4  1  0
  4  5  1  0
  5  6  1  0
  6  7  1  0
  6  8  2  0
  8  9  1  0
  9 10  2  0
 10 11  1  0
 10 12  1  0
 12 13  2  0
 13 14  1  0
 14 15  2  0
 15 16  1  0
 16 17  2  0
 17 18  1  0
 17 19  1  0
 19 20  2  0
 20 21  1  0
 21 22  2  0
 22 12  1  0
 21 15  1  0
  1 23  1  0
  1 24  1  0
  1 25  1  0
  2 26  1  0
  3 27  1  0
  3 28  1  0
  3 29  1  0
  4 30  1  0
  4 31  1  0
  7 32  1  0
  8 33  1  0
 11 34  1  0
 13 35  1  0
 14 36  1  0
 16 37  1  0
 19 38  1  0
 20 39  1  0
M  CHG  1   5  -1
M  END
>  <meeko>  (13) 
{"free_energy": -5.83, "intermolecular_energy": -8.51, "internal_energy": -1.84, "cluster_size": 8, "cluster_id": 2, "rank_in_cluster": 1}

$$$$

     RDKit          3D

 39 40  0  0  0  0  0  0  0  0999 V2000
  144.3810   68.2880  219.7190 C   0  0  0  0  0  0  0  0  0  0  0  0
  145.8670   68.3580  219.3420 C   0  0  0  0  0  0  0  0  0  0  0  0
  146.2860   67.0870  218.5950 C   0  0  0  0  0  0  0  0  0  0  0  0
  146.1650   69.6040  218.4830 C   0  0  0  0  0  0  0  0  0  0  0  0
  146.2640   70.8090  219.3070 N   0  0  0  0  0  0  0  0  0  0  0  0
  145.5840   72.0700  219.1560 C   0  0  0  0  0  0  0  0  0  0  0  0
  146.3020   73.1390  218.6290 O   0  0  0  0  0  0  0  0  0  0  0  0
  144.3050   72.2850  219.4960 C   0  0  0  0  0  0  0  0  0  0  0  0
  143.4280   73.1090  218.7200 N   0  0  0  0  0  0  0  0  0  0  0  0
  143.6540   74.3320  218.3320 C   0  0  0  0  0  0  0  0  0  0  0  0
  144.4730   74.5480  217.2280 O   0  0  0  0  0  0  0  0  0  0  0  0
  143.0780   75.5130  219.0060 C   0  0  0  0  0  0  0  0  0  0  0  0
  143.1670   76.7940  218.4360 C   0  0  0  0  0  0  0  0  0  0  0  0
  142.5710   77.8790  219.0810 C   0  0  0  0  0  0  0  0  0  0  0  0
  141.8730   77.6820  220.2780 C   0  0  0  0  0  0  0  0  0  0  0  0
  141.2590   78.7490  220.9500 C   0  0  0  0  0  0  0  0  0  0  0  0
  140.5610   78.5170  222.1410 C   0  0  0  0  0  0  0  0  0  0  0  0
  139.7940   79.8530  222.9810 Cl  0  0  0  0  0  0  0  0  0  0  0  0
  140.4710   77.2210  222.6610 C   0  0  0  0  0  0  0  0  0  0  0  0
  141.0780   76.1510  221.9960 C   0  0  0  0  0  0  0  0  0  0  0  0
  141.7810   76.3750  220.8070 C   0  0  0  0  0  0  0  0  0  0  0  0
  142.3740   75.3370  220.1570 N   0  0  0  0  0  0  0  0  0  0  0  0
  144.2804   68.2833  220.8144 H   0  0  0  0  0  0  0  0  0  0  0  0
  143.8565   69.1624  219.3064 H   0  0  0  0  0  0  0  0  0  0  0  0
  143.9410   67.3681  219.3064 H   0  0  0  0  0  0  0  0  0  0  0  0
  146.4507   68.4361  220.2711 H   0  0  0  0  0  0  0  0  0  0  0  0
  146.5445   66.3029  219.3219 H   0  0  0  0  0  0  0  0  0  0  0  0
  145.4541   66.7418  217.9635 H   0  0  0  0  0  0  0  0  0  0  0  0
  147.1601   67.3041  217.9635 H   0  0  0  0  0  0  0  0  0  0  0  0
  147.1169   69.4538  217.9527 H   0  0  0  0  0  0  0  0  0  0  0  0
  145.3382   69.7389  217.7701 H   0  0  0  0  0  0  0  0  0  0  0  0
  145.9610   74.0880  218.7180 H   0  0  0  0  0  0  0  0  0  0  0  0
  143.9138   71.8094  220.4075 H   0  0  0  0  0  0  0  0  0  0  0  0
  145.4740   74.6700  217.3340 H   0  0  0  0  0  0  0  0  0  0  0  0
  143.7033   76.9411  217.4869 H   0  0  0  0  0  0  0  0  0  0  0  0
  142.6498   78.8876  218.6490 H   0  0  0  0  0  0  0  0  0  0  0  0
  141.3259   79.7680  220.5412 H   0  0  0  0  0  0  0  0  0  0  0  0
  139.9205   77.0432  223.5966 H   0  0  0  0  0  0  0  0  0  0  0  0
  141.0029   75.1336  222.4074 H   0  0  0  0  0  0  0  0  0  0  0  0
  1  2  1  0
  2  3  1  0
  2  4  1  0
  4  5  1  0
  5  6  1  0
  6  7  1  0
  6  8  2  0
  8  9  1  0
  9 10  2  0
 10 11  1  0
 10 12  1  0
 12 13  2  0
 13 14  1  0
 14 15  2  0
 15 16  1  0
 16 17  2  0
 17 18  1  0
 17 19  1  0
 19 20  2  0
 20 21  1  0
 21 22  2  0
 22 12  1  0
 21 15  1  0
  1 23  1  0
  1 24  1  0
  1 25  1  0
  2 26  1  0
  3 27  1  0
  3 28  1  0
  3 29  1  0
  4 30  1  0
  4 31  1  0
  7 32  1  0
  8 33  1  0
 11 34  1  0
 13 35  1  0
 14 36  1  0
 16 37  1  0
 19 38  1  0
 20 39  1  0
M  CHG  1   5  -1
M  END
>  <meeko>  (14) 
{"free_energy": -5.73, "intermolecular_energy": -8.41, "internal_energy": -1.78, "cluster_size": 8, "cluster_id": 2, "rank_in_cluster": 3}

$$$$

     RDKit          3D

 39 40  0  0  0  0  0  0  0  0999 V2000
  142.1440   79.6290  223.4610 C   0  0  0  0  0  0  0  0  0  0  0  0
  141.0590   78.6030  223.1050 C   0  0  0  0  0  0  0  0  0  0  0  0
  139.6690   79.1780  223.3980 C   0  0  0  0  0  0  0  0  0  0  0  0
  141.1600   78.1760  221.6260 C   0  0  0  0  0  0  0  0  0  0  0  0
  140.1820   77.1370  221.3040 N   0  0  0  0  0  0  0  0  0  0  0  0
  140.1070   75.7810  221.7840 C   0  0  0  0  0  0  0  0  0  0  0  0
  139.1960   75.4970  222.7970 O   0  0  0  0  0  0  0  0  0  0  0  0
  140.8640   74.7740  221.3250 C   0  0  0  0  0  0  0  0  0  0  0  0
  140.7870   73.4470  221.8580 N   0  0  0  0  0  0  0  0  0  0  0  0
  139.7400   72.8850  222.3930 C   0  0  0  0  0  0  0  0  0  0  0  0
  138.4740   73.2820  221.9720 O   0  0  0  0  0  0  0  0  0  0  0  0
  139.8260   71.8370  223.4290 C   0  0  0  0  0  0  0  0  0  0  0  0
  139.4950   70.5020  223.1460 C   0  0  0  0  0  0  0  0  0  0  0  0
  139.6330   69.5310  224.1400 C   0  0  0  0  0  0  0  0  0  0  0  0
  140.1160   69.8890  225.4030 C   0  0  0  0  0  0  0  0  0  0  0  0
  140.2690   68.9390  226.4230 C   0  0  0  0  0  0  0  0  0  0  0  0
  140.7640   69.3280  227.6740 C   0  0  0  0  0  0  0  0  0  0  0  0
  140.9540   68.1380  228.9480 Cl  0  0  0  0  0  0  0  0  0  0  0  0
  141.1090   70.6640  227.9070 C   0  0  0  0  0  0  0  0  0  0  0  0
  140.9610   71.6170  226.8950 C   0  0  0  0  0  0  0  0  0  0  0  0
  140.4650   71.2370  225.6430 C   0  0  0  0  0  0  0  0  0  0  0  0
  140.3190   72.1620  224.6560 N   0  0  0  0  0  0  0  0  0  0  0  0
  142.2284   79.7088  224.5548 H   0  0  0  0  0  0  0  0  0  0  0  0
  143.1076   79.3041  223.0416 H   0  0  0  0  0  0  0  0  0  0  0  0
  141.8734   80.6093  223.0416 H   0  0  0  0  0  0  0  0  0  0  0  0
  141.2159   77.7104  223.7285 H   0  0  0  0  0  0  0  0  0  0  0  0
  139.5197   79.2398  224.4861 H   0  0  0  0  0  0  0  0  0  0  0  0
  139.5881   80.1834  222.9591 H   0  0  0  0  0  0  0  0  0  0  0  0
  138.9015   78.5235  222.9591 H   0  0  0  0  0  0  0  0  0  0  0  0
  140.9755   79.0521  220.9869 H   0  0  0  0  0  0  0  0  0  0  0  0
  142.1673   77.7707  221.4500 H   0  0  0  0  0  0  0  0  0  0  0  0
  139.2600   74.6370  223.3270 H   0  0  0  0  0  0  0  0  0  0  0  0
  141.5717   74.9749  220.5072 H   0  0  0  0  0  0  0  0  0  0  0  0
  137.8630   73.8140  222.5810 H   0  0  0  0  0  0  0  0  0  0  0  0
  139.1291   70.2227  222.1469 H   0  0  0  0  0  0  0  0  0  0  0  0
  139.3622   68.4857  223.9300 H   0  0  0  0  0  0  0  0  0  0  0  0
  140.0002   67.8881  226.2405 H   0  0  0  0  0  0  0  0  0  0  0  0
  141.4983   70.9656  228.8906 H   0  0  0  0  0  0  0  0  0  0  0  0
  141.2345   72.6657  227.0830 H   0  0  0  0  0  0  0  0  0  0  0  0
  1  2  1  0
  2  3  1  0
  2  4  1  0
  4  5  1  0
  5  6  1  0
  6  7  1  0
  6  8  2  0
  8  9  1  0
  9 10  2  0
 10 11  1  0
 10 12  1  0
 12 13  2  0
 13 14  1  0
 14 15  2  0
 15 16  1  0
 16 17  2  0
 17 18  1  0
 17 19  1  0
 19 20  2  0
 20 21  1  0
 21 22  2  0
 22 12  1  0
 21 15  1  0
  1 23  1  0
  1 24  1  0
  1 25  1  0
  2 26  1  0
  3 27  1  0
  3 28  1  0
  3 29  1  0
  4 30  1  0
  4 31  1  0
  7 32  1  0
  8 33  1  0
 11 34  1  0
 13 35  1  0
 14 36  1  0
 16 37  1  0
 19 38  1  0
 20 39  1  0
M  CHG  1   5  -1
M  END
>  <meeko>  (15) 
{"free_energy": -6.21, "intermolecular_energy": -8.9, "internal_energy": -1.74, "cluster_size": 7, "cluster_id": 1, "rank_in_cluster": 1}

$$$$

     RDKit          3D

 39 40  0  0  0  0  0  0  0  0999 V2000
  143.8790   72.0810  220.5670 C   0  0  0  0  0  0  0  0  0  0  0  0
  144.4480   73.4830  220.8230 C   0  0  0  0  0  0  0  0  0  0  0  0
  145.9680   73.4130  221.0100 C   0  0  0  0  0  0  0  0  0  0  0  0
  144.0960   74.4460  219.6710 C   0  0  0  0  0  0  0  0  0  0  0  0
  142.9710   75.3110  220.0250 N   0  0  0  0  0  0  0  0  0  0  0  0
  141.6150   74.9490  220.3510 C   0  0  0  0  0  0  0  0  0  0  0  0
  140.7880   74.5190  219.3180 O   0  0  0  0  0  0  0  0  0  0  0  0
  141.0940   75.0050  221.5850 C   0  0  0  0  0  0  0  0  0  0  0  0
  140.0470   74.1300  222.0210 N   0  0  0  0  0  0  0  0  0  0  0  0
  139.9840   72.8420  221.8350 C   0  0  0  0  0  0  0  0  0  0  0  0
  139.9420   72.3520  220.5330 O   0  0  0  0  0  0  0  0  0  0  0  0
  139.9580   71.8660  222.9420 C   0  0  0  0  0  0  0  0  0  0  0  0
  139.5020   70.5520  222.7460 C   0  0  0  0  0  0  0  0  0  0  0  0
  139.5360   69.6440  223.8060 C   0  0  0  0  0  0  0  0  0  0  0  0
  140.0400   70.0420  225.0500 C   0  0  0  0  0  0  0  0  0  0  0  0
  140.0900   69.1550  226.1350 C   0  0  0  0  0  0  0  0  0  0  0  0
  140.6080   69.5820  227.3640 C   0  0  0  0  0  0  0  0  0  0  0  0
  140.6710   68.4720  228.7200 Cl  0  0  0  0  0  0  0  0  0  0  0  0
  141.0790   70.8920  227.5110 C   0  0  0  0  0  0  0  0  0  0  0  0
  141.0340   71.7810  226.4330 C   0  0  0  0  0  0  0  0  0  0  0  0
  140.5150   71.3640  225.2020 C   0  0  0  0  0  0  0  0  0  0  0  0
  140.4680   72.2270  224.1510 N   0  0  0  0  0  0  0  0  0  0  0  0
  143.6780   71.5857  221.5284 H   0  0  0  0  0  0  0  0  0  0  0  0
  142.9434   72.1639  219.9946 H   0  0  0  0  0  0  0  0  0  0  0  0
  144.6078   71.4884  219.9946 H   0  0  0  0  0  0  0  0  0  0  0  0
  143.9912   73.8727  221.7447 H   0  0  0  0  0  0  0  0  0  0  0  0
  146.2052   73.4021  222.0841 H   0  0  0  0  0  0  0  0  0  0  0  0
  146.3534   72.4962  220.5400 H   0  0  0  0  0  0  0  0  0  0  0  0
  146.4360   74.2905  220.5400 H   0  0  0  0  0  0  0  0  0  0  0  0
  144.9724   75.0719  219.4471 H   0  0  0  0  0  0  0  0  0  0  0  0
  143.8103   73.8472  218.7936 H   0  0  0  0  0  0  0  0  0  0  0  0
  139.8630   74.1550  219.5100 H   0  0  0  0  0  0  0  0  0  0  0  0
  141.4860   75.7524  222.2905 H   0  0  0  0  0  0  0  0  0  0  0  0
  140.6520   72.6050  219.8560 H   0  0  0  0  0  0  0  0  0  0  0  0
  139.1202   70.2401  221.7627 H   0  0  0  0  0  0  0  0  0  0  0  0
  139.1673   68.6174  223.6639 H   0  0  0  0  0  0  0  0  0  0  0  0
  139.7226   68.1245  226.0208 H   0  0  0  0  0  0  0  0  0  0  0  0
  141.4858   71.2230  228.4779 H   0  0  0  0  0  0  0  0  0  0  0  0
  141.4068   72.8090  226.5524 H   0  0  0  0  0  0  0  0  0  0  0  0
  1  2  1  0
  2  3  1  0
  2  4  1  0
  4  5  1  0
  5  6  1  0
  6  7  1  0
  6  8  2  0
  8  9  1  0
  9 10  2  0
 10 11  1  0
 10 12  1  0
 12 13  2  0
 13 14  1  0
 14 15  2  0
 15 16  1  0
 16 17  2  0
 17 18  1  0
 17 19  1  0
 19 20  2  0
 20 21  1  0
 21 22  2  0
 22 12  1  0
 21 15  1  0
  1 23  1  0
  1 24  1  0
  1 25  1  0
  2 26  1  0
  3 27  1  0
  3 28  1  0
  3 29  1  0
  4 30  1  0
  4 31  1  0
  7 32  1  0
  8 33  1  0
 11 34  1  0
 13 35  1  0
 14 36  1  0
 16 37  1  0
 19 38  1  0
 20 39  1  0
M  CHG  1   5  -1
M  END
>  <meeko>  (16) 
{"free_energy": -5.03, "intermolecular_energy": -7.71, "internal_energy": -2.41, "cluster_size": 4, "cluster_id": 4, "rank_in_cluster": 2}

$$$$

     RDKit          3D

 39 40  0  0  0  0  0  0  0  0999 V2000
  142.3440   79.7680  223.4600 C   0  0  0  0  0  0  0  0  0  0  0  0
  141.2720   78.7120  223.1580 C   0  0  0  0  0  0  0  0  0  0  0  0
  139.8760   79.2750  223.4490 C   0  0  0  0  0  0  0  0  0  0  0  0
  141.3590   78.2320  221.6950 C   0  0  0  0  0  0  0  0  0  0  0  0
  140.2700   77.3120  221.3700 N   0  0  0  0  0  0  0  0  0  0  0  0
  140.0800   75.9470  221.7890 C   0  0  0  0  0  0  0  0  0  0  0  0
  139.0970   75.6870  222.7400 O   0  0  0  0  0  0  0  0  0  0  0  0
  140.7930   74.9090  221.3290 C   0  0  0  0  0  0  0  0  0  0  0  0
  140.8120   73.6360  221.9840 N   0  0  0  0  0  0  0  0  0  0  0  0
  139.7760   72.9280  222.3350 C   0  0  0  0  0  0  0  0  0  0  0  0
  138.5570   73.1630  221.7060 O   0  0  0  0  0  0  0  0  0  0  0  0
  139.8270   71.8780  223.3710 C   0  0  0  0  0  0  0  0  0  0  0  0
  139.4580   70.5530  223.0860 C   0  0  0  0  0  0  0  0  0  0  0  0
  139.5640   69.5780  224.0800 C   0  0  0  0  0  0  0  0  0  0  0  0
  140.0530   69.9220  225.3460 C   0  0  0  0  0  0  0  0  0  0  0  0
  140.1740   68.9670  226.3660 C   0  0  0  0  0  0  0  0  0  0  0  0
  140.6740   69.3410  227.6190 C   0  0  0  0  0  0  0  0  0  0  0  0
  140.8250   68.1470  228.8940 Cl  0  0  0  0  0  0  0  0  0  0  0  0
  141.0570   70.6670  227.8540 C   0  0  0  0  0  0  0  0  0  0  0  0
  140.9410   71.6240  226.8410 C   0  0  0  0  0  0  0  0  0  0  0  0
  140.4390   71.2590  225.5880 C   0  0  0  0  0  0  0  0  0  0  0  0
  140.3240   72.1880  224.6000 N   0  0  0  0  0  0  0  0  0  0  0  0
  142.4547   79.8771  224.5490 H   0  0  0  0  0  0  0  0  0  0  0  0
  143.3031   79.4521  223.0238 H   0  0  0  0  0  0  0  0  0  0  0  0
  142.0425   80.7317  223.0238 H   0  0  0  0  0  0  0  0  0  0  0  0
  141.4531   77.8463  223.8120 H   0  0  0  0  0  0  0  0  0  0  0  0
  139.7247   79.3360  224.5368 H   0  0  0  0  0  0  0  0  0  0  0  0
  139.7868   80.2794  223.0095 H   0  0  0  0  0  0  0  0  0  0  0  0
  139.1149   78.6135  223.0095 H   0  0  0  0  0  0  0  0  0  0  0  0
  141.3014   79.1047  221.0279 H   0  0  0  0  0  0  0  0  0  0  0  0
  142.3128   77.7007  221.5610 H   0  0  0  0  0  0  0  0  0  0  0  0
  138.9820   74.7590  223.1270 H   0  0  0  0  0  0  0  0  0  0  0  0
  141.3867   75.0405  220.4124 H   0  0  0  0  0  0  0  0  0  0  0  0
  138.2150   74.1060  221.5640 H   0  0  0  0  0  0  0  0  0  0  0  0
  139.0876   70.2850  222.0855 H   0  0  0  0  0  0  0  0  0  0  0  0
  139.2637   68.5411  223.8687 H   0  0  0  0  0  0  0  0  0  0  0  0
  139.8761   67.9243  226.1815 H   0  0  0  0  0  0  0  0  0  0  0  0
  141.4507   70.9571  228.8393 H   0  0  0  0  0  0  0  0  0  0  0  0
  141.2447   72.6642  227.0299 H   0  0  0  0  0  0  0  0  0  0  0  0
  1  2  1  0
  2  3  1  0
  2  4  1  0
  4  5  1  0
  5  6  1  0
  6  7  1  0
  6  8  2  0
  8  9  1  0
  9 10  2  0
 10 11  1  0
 10 12  1  0
 12 13  2  0
 13 14  1  0
 14 15  2  0
 15 16  1  0
 16 17  2  0
 17 18  1  0
 17 19  1  0
 19 20  2  0
 20 21  1  0
 21 22  2  0
 22 12  1  0
 21 15  1  0
  1 23  1  0
  1 24  1  0
  1 25  1  0
  2 26  1  0
  3 27  1  0
  3 28  1  0
  3 29  1  0
  4 30  1  0
  4 31  1  0
  7 32  1  0
  8 33  1  0
 11 34  1  0
 13 35  1  0
 14 36  1  0
 16 37  1  0
 19 38  1  0
 20 39  1  0
M  CHG  1   5  -1
M  END
>  <meeko>  (17) 
{"free_energy": -6.0, "intermolecular_energy": -8.68, "internal_energy": -2.06, "cluster_size": 7, "cluster_id": 1, "rank_in_cluster": 3}

$$$$

     RDKit          3D

 39 40  0  0  0  0  0  0  0  0999 V2000
  143.9140   72.1150  220.4220 C   0  0  0  0  0  0  0  0  0  0  0  0
  144.4530   73.5000  220.8060 C   0  0  0  0  0  0  0  0  0  0  0  0
  145.9450   73.4130  221.1490 C   0  0  0  0  0  0  0  0  0  0  0  0
  144.2250   74.5200  219.6710 C   0  0  0  0  0  0  0  0  0  0  0  0
  143.0630   75.3650  219.9400 N   0  0  0  0  0  0  0  0  0  0  0  0
  141.7030   74.9770  220.2170 C   0  0  0  0  0  0  0  0  0  0  0  0
  140.9710   74.3880  219.1890 O   0  0  0  0  0  0  0  0  0  0  0  0
  141.0920   75.1520  221.3970 C   0  0  0  0  0  0  0  0  0  0  0  0
  140.2080   74.1750  221.9600 N   0  0  0  0  0  0  0  0  0  0  0  0
  140.2680   72.8850  221.7910 C   0  0  0  0  0  0  0  0  0  0  0  0
  140.4700   72.3840  220.5080 O   0  0  0  0  0  0  0  0  0  0  0  0
  140.1360   71.9170  222.8980 C   0  0  0  0  0  0  0  0  0  0  0  0
  139.5790   70.6450  222.6920 C   0  0  0  0  0  0  0  0  0  0  0  0
  139.5120   69.7400  223.7530 C   0  0  0  0  0  0  0  0  0  0  0  0
  140.0170   70.0990  225.0080 C   0  0  0  0  0  0  0  0  0  0  0  0
  139.9690   69.2140  226.0950 C   0  0  0  0  0  0  0  0  0  0  0  0
  140.4900   69.5990  227.3360 C   0  0  0  0  0  0  0  0  0  0  0  0
  140.4290   68.4920  228.6940 Cl  0  0  0  0  0  0  0  0  0  0  0  0
  141.0630   70.8670  227.4930 C   0  0  0  0  0  0  0  0  0  0  0  0
  141.1170   71.7540  226.4130 C   0  0  0  0  0  0  0  0  0  0  0  0
  140.5950   71.3780  225.1710 C   0  0  0  0  0  0  0  0  0  0  0  0
  140.6440   72.2390  224.1190 N   0  0  0  0  0  0  0  0  0  0  0  0
  143.6912   71.5424  221.3344 H   0  0  0  0  0  0  0  0  0  0  0  0
  142.9953   72.2308  219.8282 H   0  0  0  0  0  0  0  0  0  0  0  0
  144.6693   71.5793  219.8282 H   0  0  0  0  0  0  0  0  0  0  0  0
  143.9015   73.8466  221.6925 H   0  0  0  0  0  0  0  0  0  0  0  0
  146.0702   73.4057  222.2418 H   0  0  0  0  0  0  0  0  0  0  0  0
  146.3653   72.4888  220.7256 H   0  0  0  0  0  0  0  0  0  0  0  0
  146.4699   74.2821  220.7256 H   0  0  0  0  0  0  0  0  0  0  0  0
  145.1170   75.1569  219.5775 H   0  0  0  0  0  0  0  0  0  0  0  0
  144.0421   73.9658  218.7386 H   0  0  0  0  0  0  0  0  0  0  0  0
  140.0580   73.9880  219.3660 H   0  0  0  0  0  0  0  0  0  0  0  0
  141.2764   76.0819  221.9550 H   0  0  0  0  0  0  0  0  0  0  0  0
  141.1350   72.8150  219.8770 H   0  0  0  0  0  0  0  0  0  0  0  0
  139.1973   70.3628  221.6997 H   0  0  0  0  0  0  0  0  0  0  0  0
  139.0633   68.7470  223.6029 H   0  0  0  0  0  0  0  0  0  0  0  0
  139.5216   68.2166  225.9723 H   0  0  0  0  0  0  0  0  0  0  0  0
  141.4721   71.1665  228.4692 H   0  0  0  0  0  0  0  0  0  0  0  0
  141.5704   72.7481  226.5404 H   0  0  0  0  0  0  0  0  0  0  0  0
  1  2  1  0
  2  3  1  0
  2  4  1  0
  4  5  1  0
  5  6  1  0
  6  7  1  0
  6  8  2  0
  8  9  1  0
  9 10  2  0
 10 11  1  0
 10 12  1  0
 12 13  2  0
 13 14  1  0
 14 15  2  0
 15 16  1  0
 16 17  2  0
 17 18  1  0
 17 19  1  0
 19 20  2  0
 20 21  1  0
 21 22  2  0
 22 12  1  0
 21 15  1  0
  1 23  1  0
  1 24  1  0
  1 25  1  0
  2 26  1  0
  3 27  1  0
  3 28  1  0
  3 29  1  0
  4 30  1  0
  4 31  1  0
  7 32  1  0
  8 33  1  0
 11 34  1  0
 13 35  1  0
 14 36  1  0
 16 37  1  0
 19 38  1  0
 20 39  1  0
M  CHG  1   5  -1
M  END
>  <meeko>  (18) 
{"free_energy": -4.96, "intermolecular_energy": -7.64, "internal_energy": -2.33, "cluster_size": 4, "cluster_id": 4, "rank_in_cluster": 4}

$$$$

     RDKit          3D

 39 40  0  0  0  0  0  0  0  0999 V2000
  144.8510   74.4500  220.5080 C   0  0  0  0  0  0  0  0  0  0  0  0
  146.0770   73.5290  220.5450 C   0  0  0  0  0  0  0  0  0  0  0  0
  146.6050   73.4050  221.9790 C   0  0  0  0  0  0  0  0  0  0  0  0
  145.7430   72.1340  219.9780 C   0  0  0  0  0  0  0  0  0  0  0  0
  145.9320   72.0880  218.5280 N   0  0  0  0  0  0  0  0  0  0  0  0
  145.4050   72.9680  217.5160 C   0  0  0  0  0  0  0  0  0  0  0  0
  146.2870   73.8460  216.8920 O   0  0  0  0  0  0  0  0  0  0  0  0
  144.1190   73.0020  217.1400 C   0  0  0  0  0  0  0  0  0  0  0  0
  143.2400   74.0750  217.4970 N   0  0  0  0  0  0  0  0  0  0  0  0
  143.5240   75.3470  217.4890 C   0  0  0  0  0  0  0  0  0  0  0  0
  144.4310   75.8270  216.5490 O   0  0  0  0  0  0  0  0  0  0  0  0
  142.9270   76.3150  218.4300 C   0  0  0  0  0  0  0  0  0  0  0  0
  142.8730   77.6860  218.1300 C   0  0  0  0  0  0  0  0  0  0  0  0
  142.2590   78.5650  219.0250 C   0  0  0  0  0  0  0  0  0  0  0  0
  141.6860   78.0730  220.2030 C   0  0  0  0  0  0  0  0  0  0  0  0
  141.0600   78.9280  221.1230 C   0  0  0  0  0  0  0  0  0  0  0  0
  140.4890   78.4040  222.2880 C   0  0  0  0  0  0  0  0  0  0  0  0
  139.7060   79.4730  223.4370 Cl  0  0  0  0  0  0  0  0  0  0  0  0
  140.5400   77.0270  222.5380 C   0  0  0  0  0  0  0  0  0  0  0  0
  141.1600   76.1680  221.6250 C   0  0  0  0  0  0  0  0  0  0  0  0
  141.7360   76.6840  220.4590 C   0  0  0  0  0  0  0  0  0  0  0  0
  142.3420   75.8530  219.5690 N   0  0  0  0  0  0  0  0  0  0  0  0
  144.5379   74.6852  221.5359 H   0  0  0  0  0  0  0  0  0  0  0  0
  145.1074   75.3807  219.9808 H   0  0  0  0  0  0  0  0  0  0  0  0
  144.0285   73.9446  219.9808 H   0  0  0  0  0  0  0  0  0  0  0  0
  146.8579   73.9766  219.9127 H   0  0  0  0  0  0  0  0  0  0  0  0
  145.7869   73.5971  222.6888 H   0  0  0  0  0  0  0  0  0  0  0  0
  146.9981   72.3901  222.1385 H   0  0  0  0  0  0  0  0  0  0  0  0
  147.4088   74.1388  222.1385 H   0  0  0  0  0  0  0  0  0  0  0  0
  146.4017   71.3893  220.4486 H   0  0  0  0  0  0  0  0  0  0  0  0
  144.6874   71.9150  220.1967 H   0  0  0  0  0  0  0  0  0  0  0  0
  146.2820   74.8340  217.1180 H   0  0  0  0  0  0  0  0  0  0  0  0
  143.7233   72.1738  216.5338 H   0  0  0  0  0  0  0  0  0  0  0  0
  145.4250   75.8460  216.7430 H   0  0  0  0  0  0  0  0  0  0  0  0
  143.3118   78.0654  217.1954 H   0  0  0  0  0  0  0  0  0  0  0  0
  142.2259   79.6421  218.8043 H   0  0  0  0  0  0  0  0  0  0  0  0
  141.0182   80.0098  220.9283 H   0  0  0  0  0  0  0  0  0  0  0  0
  140.0908   76.6196  223.4557 H   0  0  0  0  0  0  0  0  0  0  0  0
  141.1948   75.0866  221.8236 H   0  0  0  0  0  0  0  0  0  0  0  0
  1  2  1  0
  2  3  1  0
  2  4  1  0
  4  5  1  0
  5  6  1  0
  6  7  1  0
  6  8  2  0
  8  9  1  0
  9 10  2  0
 10 11  1  0
 10 12  1  0
 12 13  2  0
 13 14  1  0
 14 15  2  0
 15 16  1  0
 16 17  2  0
 17 18  1  0
 17 19  1  0
 19 20  2  0
 20 21  1  0
 21 22  2  0
 22 12  1  0
 21 15  1  0
  1 23  1  0
  1 24  1  0
  1 25  1  0
  2 26  1  0
  3 27  1  0
  3 28  1  0
  3 29  1  0
  4 30  1  0
  4 31  1  0
  7 32  1  0
  8 33  1  0
 11 34  1  0
 13 35  1  0
 14 36  1  0
 16 37  1  0
 19 38  1  0
 20 39  1  0
M  CHG  1   5  -1
M  END
>  <meeko>  (19) 
{"free_energy": -5.62, "intermolecular_energy": -8.3, "internal_energy": -1.99, "cluster_size": 8, "cluster_id": 2, "rank_in_cluster": 5}

$$$$

     RDKit          3D

 39 40  0  0  0  0  0  0  0  0999 V2000
  142.0190   79.1600  223.2080 C   0  0  0  0  0  0  0  0  0  0  0  0
  141.0190   78.1040  222.7180 C   0  0  0  0  0  0  0  0  0  0  0  0
  139.5920   78.6620  222.7660 C   0  0  0  0  0  0  0  0  0  0  0  0
  141.3610   77.6360  221.2880 C   0  0  0  0  0  0  0  0  0  0  0  0
  140.4480   76.5850  220.8400 N   0  0  0  0  0  0  0  0  0  0  0  0
  140.1680   75.3070  221.4440 C   0  0  0  0  0  0  0  0  0  0  0  0
  139.5510   75.2970  222.6920 O   0  0  0  0  0  0  0  0  0  0  0  0
  140.4690   74.1250  220.8870 C   0  0  0  0  0  0  0  0  0  0  0  0
  140.3980   72.8920  221.6110 N   0  0  0  0  0  0  0  0  0  0  0  0
  139.4320   72.5070  222.3970 C   0  0  0  0  0  0  0  0  0  0  0  0
  138.1630   73.0510  222.2190 O   0  0  0  0  0  0  0  0  0  0  0  0
  139.6130   71.5130  223.4730 C   0  0  0  0  0  0  0  0  0  0  0  0
  139.3390   70.1520  223.2630 C   0  0  0  0  0  0  0  0  0  0  0  0
  139.5660   69.2350  224.2920 C   0  0  0  0  0  0  0  0  0  0  0  0
  140.0810   69.6740  225.5170 C   0  0  0  0  0  0  0  0  0  0  0  0
  140.3230   68.7800  226.5700 C   0  0  0  0  0  0  0  0  0  0  0  0
  140.8470   69.2500  227.7800 C   0  0  0  0  0  0  0  0  0  0  0  0
  141.1490   68.1310  229.0970 Cl  0  0  0  0  0  0  0  0  0  0  0  0
  141.1320   70.6110  227.9400 C   0  0  0  0  0  0  0  0  0  0  0  0
  140.8960   71.5080  226.8940 C   0  0  0  0  0  0  0  0  0  0  0  0
  140.3700   71.0480  225.6820 C   0  0  0  0  0  0  0  0  0  0  0  0
  140.1370   71.9170  224.6630 N   0  0  0  0  0  0  0  0  0  0  0  0
  142.0302   79.1719  224.3079 H   0  0  0  0  0  0  0  0  0  0  0  0
  143.0239   78.9150  222.8337 H   0  0  0  0  0  0  0  0  0  0  0  0
  141.7196   80.1501  222.8337 H   0  0  0  0  0  0  0  0  0  0  0  0
  141.0860   77.2338  223.3876 H   0  0  0  0  0  0  0  0  0  0  0  0
  139.2809   78.7836  223.8141 H   0  0  0  0  0  0  0  0  0  0  0  0
  139.5626   79.6379  222.2592 H   0  0  0  0  0  0  0  0  0  0  0  0
  138.9085   77.9649  222.2592 H   0  0  0  0  0  0  0  0  0  0  0  0
  141.2846   78.4930  220.6027 H   0  0  0  0  0  0  0  0  0  0  0  0
  142.3832   77.2298  221.2909 H   0  0  0  0  0  0  0  0  0  0  0  0
  139.4440   74.4340  223.2110 H   0  0  0  0  0  0  0  0  0  0  0  0
  140.7826   74.1018  219.8329 H   0  0  0  0  0  0  0  0  0  0  0  0
  137.8790   73.8890  222.7130 H   0  0  0  0  0  0  0  0  0  0  0  0
  138.9478   69.8098  222.2936 H   0  0  0  0  0  0  0  0  0  0  0  0
  139.3402   68.1692  224.1397 H   0  0  0  0  0  0  0  0  0  0  0  0
  140.1011   67.7099  226.4452 H   0  0  0  0  0  0  0  0  0  0  0  0
  141.5433   70.9763  228.8926 H   0  0  0  0  0  0  0  0  0  0  0  0
  141.1240   72.5762  227.0240 H   0  0  0  0  0  0  0  0  0  0  0  0
  1  2  1  0
  2  3  1  0
  2  4  1  0
  4  5  1  0
  5  6  1  0
  6  7  1  0
  6  8  2  0
  8  9  1  0
  9 10  2  0
 10 11  1  0
 10 12  1  0
 12 13  2  0
 13 14  1  0
 14 15  2  0
 15 16  1  0
 16 17  2  0
 17 18  1  0
 17 19  1  0
 19 20  2  0
 20 21  1  0
 21 22  2  0
 22 12  1  0
 21 15  1  0
  1 23  1  0
  1 24  1  0
  1 25  1  0
  2 26  1  0
  3 27  1  0
  3 28  1  0
  3 29  1  0
  4 30  1  0
  4 31  1  0
  7 32  1  0
  8 33  1  0
 11 34  1  0
 13 35  1  0
 14 36  1  0
 16 37  1  0
 19 38  1  0
 20 39  1  0
M  CHG  1   5  -1
M  END
>  <meeko>  (20) 
{"free_energy": -5.93, "intermolecular_energy": -8.62, "internal_energy": -1.97, "cluster_size": 7, "cluster_id": 1, "rank_in_cluster": 4}

$$$$
