
     RDKit          3D

 51 54  0  0  0  0  0  0  0  0999 V2000
  139.6200   74.7240  222.2860 O   0  0  0  0  0  0  0  0  0  0  0  0
  140.4130   74.2170  221.2500 C   0  0  0  0  0  0  0  0  0  0  0  0
  140.4360   72.8940  221.0130 C   0  0  0  0  0  0  0  0  0  0  0  0
  139.2970   72.0670  221.2860 N   0  0  0  0  0  0  0  0  0  0  0  0
  138.6690   72.0020  222.4270 C   0  0  0  0  0  0  0  0  0  0  0  0
  137.5680   72.8260  222.6440 O   0  0  0  0  0  0  0  0  0  0  0  0
  139.0720   71.0790  223.5050 C   0  0  0  0  0  0  0  0  0  0  0  0
  138.8450   69.6980  223.3960 C   0  0  0  0  0  0  0  0  0  0  0  0
  139.2340   68.8490  224.4330 C   0  0  0  0  0  0  0  0  0  0  0  0
  139.8480   69.3810  225.5730 C   0  0  0  0  0  0  0  0  0  0  0  0
  140.2330   68.5600  226.6420 C   0  0  0  0  0  0  0  0  0  0  0  0
  140.8480   69.1210  227.7680 C   0  0  0  0  0  0  0  0  0  0  0  0
  141.3250   68.0930  229.1070 Cl  0  0  0  0  0  0  0  0  0  0  0  0
  141.0840   70.4990  227.8250 C   0  0  0  0  0  0  0  0  0  0  0  0
  140.7050   71.3230  226.7620 C   0  0  0  0  0  0  0  0  0  0  0  0
  140.0830   70.7730  225.6370 C   0  0  0  0  0  0  0  0  0  0  0  0
  139.6980   71.5740  224.6060 N   0  0  0  0  0  0  0  0  0  0  0  0
  141.2040   75.1440  220.4600 N   0  0  0  0  0  0  0  0  0  0  0  0
  140.9240   76.5850  220.5990 C   0  0  0  0  0  0  0  0  0  0  0  0
  142.1680   77.4340  220.3020 C   0  0  0  0  0  0  0  0  0  0  0  0
  142.8790   77.0600  218.9870 C   0  0  0  0  0  0  0  0  0  0  0  0
  142.3090   75.8010  218.3220 C   0  0  0  0  0  0  0  0  0  0  0  0
  142.0540   74.6740  219.3400 C   0  0  1  0  0  0  0  0  0  0  0  0
  143.3690   74.0760  219.8200 C   0  0  0  0  0  0  0  0  0  0  0  0
  143.6000   72.7000  219.6420 C   0  0  0  0  0  0  0  0  0  0  0  0
  144.7940   72.1170  220.0760 C   0  0  0  0  0  0  0  0  0  0  0  0
  145.7740   72.9020  220.6860 C   0  0  0  0  0  0  0  0  0  0  0  0
  145.5600   74.2700  220.8680 C   0  0  0  0  0  0  0  0  0  0  0  0
  144.3660   74.8580  220.4370 C   0  0  0  0  0  0  0  0  0  0  0  0
  139.2240   74.1450  223.0160 H   0  0  0  0  0  0  0  0  0  0  0  0
  141.3476   72.4364  220.6011 H   0  0  0  0  0  0  0  0  0  0  0  0
  137.6800   73.8240  222.7760 H   0  0  0  0  0  0  0  0  0  0  0  0
  138.3626   69.2868  222.4970 H   0  0  0  0  0  0  0  0  0  0  0  0
  139.0588   67.7659  224.3549 H   0  0  0  0  0  0  0  0  0  0  0  0
  140.0521   67.4759  226.5964 H   0  0  0  0  0  0  0  0  0  0  0  0
  141.5698   70.9354  228.7102 H   0  0  0  0  0  0  0  0  0  0  0  0
  140.8961   72.4052  226.8103 H   0  0  0  0  0  0  0  0  0  0  0  0
  140.1258   76.8630  219.8950 H   0  0  0  0  0  0  0  0  0  0  0  0
  140.6166   76.7770  221.6376 H   0  0  0  0  0  0  0  0  0  0  0  0
  141.8615   78.4887  220.2423 H   0  0  0  0  0  0  0  0  0  0  0  0
  142.8837   77.2480  221.1164 H   0  0  0  0  0  0  0  0  0  0  0  0
  142.7783   77.9009  218.2850 H   0  0  0  0  0  0  0  0  0  0  0  0
  143.9295   76.8484  219.2352 H   0  0  0  0  0  0  0  0  0  0  0  0
  141.3585   76.0581  217.8317 H   0  0  0  0  0  0  0  0  0  0  0  0
  143.0485   75.4383  217.5928 H   0  0  0  0  0  0  0  0  0  0  0  0
  141.4953   73.8704  218.8380 H   0  0  0  0  0  0  0  0  0  0  0  0
  142.8341   72.0771  219.1569 H   0  0  0  0  0  0  0  0  0  0  0  0
  144.9615   71.0388  219.9368 H   0  0  0  0  0  0  0  0  0  0  0  0
  146.7150   72.4430  221.0234 H   0  0  0  0  0  0  0  0  0  0  0  0
  146.3321   74.8866  221.3514 H   0  0  0  0  0  0  0  0  0  0  0  0
  144.2045   75.9366  220.5805 H   0  0  0  0  0  0  0  0  0  0  0  0
  1  2  1  0
  2  3  2  0
  3  4  1  0
  4  5  2  0
  5  6  1  0
  5  7  1  0
  7  8  2  0
  8  9  1  0
  9 10  2  0
 10 11  1  0
 11 12  2  0
 12 13  1  0
 12 14  1  0
 14 15  2  0
 15 16  1  0
 16 17  2  0
  2 18  1  0
 18 19  1  0
 19 20  1  0
 20 21  1  0
 21 22  1  0
 22 23  1  0
 23 24  1  0
 24 25  2  0
 25 26  1  0
 26 27  2  0
 27 28  1  0
 28 29  2  0
 17  7  1  0
 23 18  1  0
 29 24  1  0
 16 10  1  0
  1 30  1  0
  3 31  1  0
  6 32  1  0
  8 33  1  0
  9 34  1  0
 11 35  1  0
 14 36  1  0
 15 37  1  0
 19 38  1  0
 19 39  1  0
 20 40  1  0
 20 41  1  0
 21 42  1  0
 21 43  1  0
 22 44  1  0
 22 45  1  0
 23 46  1  6
 25 47  1  0
 26 48  1  0
 27 49  1  0
 28 50  1  0
 29 51  1  0
M  END
>  <meeko>  (1) 
{"free_energy": -8.46, "intermolecular_energy": -10.84, "internal_energy": -2.33, "cluster_size": 9, "cluster_id": 2, "rank_in_cluster": 2}

$$$$

     RDKit          3D

 51 54  0  0  0  0  0  0  0  0999 V2000
  139.9420   74.4180  222.3050 O   0  0  0  0  0  0  0  0  0  0  0  0
  140.5580   73.9750  221.1280 C   0  0  0  0  0  0  0  0  0  0  0  0
  140.4590   72.6840  220.7690 C   0  0  0  0  0  0  0  0  0  0  0  0
  139.3150   71.8960  221.1240 N   0  0  0  0  0  0  0  0  0  0  0  0
  138.7050   71.9300  222.2760 C   0  0  0  0  0  0  0  0  0  0  0  0
  137.6740   72.8440  222.4720 O   0  0  0  0  0  0  0  0  0  0  0  0
  139.0570   71.0270  223.3890 C   0  0  0  0  0  0  0  0  0  0  0  0
  138.7390   69.6600  223.3380 C   0  0  0  0  0  0  0  0  0  0  0  0
  139.0810   68.8310  224.4060 C   0  0  0  0  0  0  0  0  0  0  0  0
  139.7390   69.3670  225.5200 C   0  0  0  0  0  0  0  0  0  0  0  0
  140.0800   68.5660  226.6200 C   0  0  0  0  0  0  0  0  0  0  0  0
  140.7400   69.1310  227.7170 C   0  0  0  0  0  0  0  0  0  0  0  0
  141.1610   68.1300  229.0950 Cl  0  0  0  0  0  0  0  0  0  0  0  0
  141.0660   70.4920  227.7160 C   0  0  0  0  0  0  0  0  0  0  0  0
  140.7320   71.2960  226.6220 C   0  0  0  0  0  0  0  0  0  0  0  0
  140.0650   70.7420  225.5250 C   0  0  0  0  0  0  0  0  0  0  0  0
  139.7240   71.5240  224.4650 N   0  0  0  0  0  0  0  0  0  0  0  0
  141.3020   74.9320  220.3280 N   0  0  0  0  0  0  0  0  0  0  0  0
  140.9770   76.3620  220.4800 C   0  0  0  0  0  0  0  0  0  0  0  0
  142.1860   77.2540  220.1650 C   0  0  0  0  0  0  0  0  0  0  0  0
  142.8830   76.9100  218.8350 C   0  0  0  0  0  0  0  0  0  0  0  0
  142.3430   75.6360  218.1730 C   0  0  0  0  0  0  0  0  0  0  0  0
  142.1460   74.4960  219.1900 C   0  0  1  0  0  0  0  0  0  0  0  0
  143.4890   73.9410  219.6420 C   0  0  0  0  0  0  0  0  0  0  0  0
  143.8730   72.6530  219.2230 C   0  0  0  0  0  0  0  0  0  0  0  0
  145.0960   72.1100  219.6240 C   0  0  0  0  0  0  0  0  0  0  0  0
  145.9540   72.8480  220.4410 C   0  0  0  0  0  0  0  0  0  0  0  0
  145.5890   74.1280  220.8640 C   0  0  0  0  0  0  0  0  0  0  0  0
  144.3640   74.6750  220.4670 C   0  0  0  0  0  0  0  0  0  0  0  0
  139.5390   73.7910  222.9900 H   0  0  0  0  0  0  0  0  0  0  0  0
  141.2727   72.2220  220.1906 H   0  0  0  0  0  0  0  0  0  0  0  0
  137.8670   73.7950  222.7650 H   0  0  0  0  0  0  0  0  0  0  0  0
  138.2226   69.2452  222.4598 H   0  0  0  0  0  0  0  0  0  0  0  0
  138.8347   67.7594  224.3735 H   0  0  0  0  0  0  0  0  0  0  0  0
  139.8289   67.4950  226.6202 H   0  0  0  0  0  0  0  0  0  0  0  0
  141.5872   70.9310  228.5795 H   0  0  0  0  0  0  0  0  0  0  0  0
  140.9939   72.3644  226.6243 H   0  0  0  0  0  0  0  0  0  0  0  0
  140.1570   76.6166  219.7924 H   0  0  0  0  0  0  0  0  0  0  0  0
  140.6830   76.5383  221.5252 H   0  0  0  0  0  0  0  0  0  0  0  0
  141.8434   78.2982  220.1170 H   0  0  0  0  0  0  0  0  0  0  0  0
  142.9229   77.0889  220.9648 H   0  0  0  0  0  0  0  0  0  0  0  0
  142.7410   77.7506  218.1399 H   0  0  0  0  0  0  0  0  0  0  0  0
  143.9443   76.7316  219.0625 H   0  0  0  0  0  0  0  0  0  0  0  0
  141.3751   75.8633  217.7024 H   0  0  0  0  0  0  0  0  0  0  0  0
  143.0796   75.3024  217.4272 H   0  0  0  0  0  0  0  0  0  0  0  0
  141.6057   73.6759  218.6946 H   0  0  0  0  0  0  0  0  0  0  0  0
  143.2039   72.0689  218.5740 H   0  0  0  0  0  0  0  0  0  0  0  0
  145.3831   71.1002  219.2957 H   0  0  0  0  0  0  0  0  0  0  0  0
  146.9188   72.4209  220.7521 H   0  0  0  0  0  0  0  0  0  0  0  0
  146.2655   74.7068  221.5101 H   0  0  0  0  0  0  0  0  0  0  0  0
  144.0823   75.6845  220.8011 H   0  0  0  0  0  0  0  0  0  0  0  0
  1  2  1  0
  2  3  2  0
  3  4  1  0
  4  5  2  0
  5  6  1  0
  5  7  1  0
  7  8  2  0
  8  9  1  0
  9 10  2  0
 10 11  1  0
 11 12  2  0
 12 13  1  0
 12 14  1  0
 14 15  2  0
 15 16  1  0
 16 17  2  0
  2 18  1  0
 18 19  1  0
 19 20  1  0
 20 21  1  0
 21 22  1  0
 22 23  1  0
 23 24  1  0
 24 25  2  0
 25 26  1  0
 26 27  2  0
 27 28  1  0
 28 29  2  0
 17  7  1  0
 23 18  1  0
 29 24  1  0
 16 10  1  0
  1 30  1  0
  3 31  1  0
  6 32  1  0
  8 33  1  0
  9 34  1  0
 11 35  1  0
 14 36  1  0
 15 37  1  0
 19 38  1  0
 19 39  1  0
 20 40  1  0
 20 41  1  0
 21 42  1  0
 21 43  1  0
 22 44  1  0
 22 45  1  0
 23 46  1  6
 25 47  1  0
 26 48  1  0
 27 49  1  0
 28 50  1  0
 29 51  1  0
M  END
>  <meeko>  (2) 
{"free_energy": -8.52, "intermolecular_energy": -10.91, "internal_energy": -2.44, "cluster_size": 9, "cluster_id": 2, "rank_in_cluster": 1}

$$$$

     RDKit          3D

 51 54  0  0  0  0  0  0  0  0999 V2000
  140.4110   73.9840  222.1810 O   0  0  0  0  0  0  0  0  0  0  0  0
  140.6590   73.7790  220.8190 C   0  0  0  0  0  0  0  0  0  0  0  0
  140.1450   72.7010  220.2020 C   0  0  0  0  0  0  0  0  0  0  0  0
  139.1910   71.8530  220.8530 N   0  0  0  0  0  0  0  0  0  0  0  0
  138.7270   72.0280  222.0600 C   0  0  0  0  0  0  0  0  0  0  0  0
  137.8930   73.1130  222.3160 O   0  0  0  0  0  0  0  0  0  0  0  0
  139.0430   71.1130  223.1740 C   0  0  0  0  0  0  0  0  0  0  0  0
  138.6450   69.7670  223.1380 C   0  0  0  0  0  0  0  0  0  0  0  0
  138.9550   68.9270  224.2070 C   0  0  0  0  0  0  0  0  0  0  0  0
  139.6590   69.4310  225.3070 C   0  0  0  0  0  0  0  0  0  0  0  0
  139.9700   68.6200  226.4070 C   0  0  0  0  0  0  0  0  0  0  0  0
  140.6780   69.1520  227.4910 C   0  0  0  0  0  0  0  0  0  0  0  0
  141.0610   68.1380  228.8690 Cl  0  0  0  0  0  0  0  0  0  0  0  0
  141.0820   70.4920  227.4750 C   0  0  0  0  0  0  0  0  0  0  0  0
  140.7790   71.3070  226.3800 C   0  0  0  0  0  0  0  0  0  0  0  0
  140.0640   70.7850  225.2970 C   0  0  0  0  0  0  0  0  0  0  0  0
  139.7530   71.5790  224.2360 N   0  0  0  0  0  0  0  0  0  0  0  0
  141.4820   74.7420  220.1070 N   0  0  0  0  0  0  0  0  0  0  0  0
  141.1710   76.1740  220.2730 C   0  0  0  0  0  0  0  0  0  0  0  0
  142.4170   77.0490  220.0790 C   0  0  0  0  0  0  0  0  0  0  0  0
  143.2110   76.7270  218.7990 C   0  0  0  0  0  0  0  0  0  0  0  0
  142.7020   75.4820  218.0610 C   0  0  0  0  0  0  0  0  0  0  0  0
  142.4050   74.3200  219.0260 C   0  0  1  0  0  0  0  0  0  0  0  0
  143.6970   73.7250  219.5660 C   0  0  0  0  0  0  0  0  0  0  0  0
  144.3340   74.3470  220.6570 C   0  0  0  0  0  0  0  0  0  0  0  0
  145.5250   73.8310  221.1740 C   0  0  0  0  0  0  0  0  0  0  0  0
  146.0910   72.6840  220.6140 C   0  0  0  0  0  0  0  0  0  0  0  0
  145.4710   72.0550  219.5330 C   0  0  0  0  0  0  0  0  0  0  0  0
  144.2800   72.5680  219.0100 C   0  0  0  0  0  0  0  0  0  0  0  0
  140.0310   73.2700  222.7890 H   0  0  0  0  0  0  0  0  0  0  0  0
  140.4634   72.4649  219.1759 H   0  0  0  0  0  0  0  0  0  0  0  0
  138.2620   73.9800  222.6880 H   0  0  0  0  0  0  0  0  0  0  0  0
  138.0915   69.3771  222.2710 H   0  0  0  0  0  0  0  0  0  0  0  0
  138.6472   67.8712  224.1860 H   0  0  0  0  0  0  0  0  0  0  0  0
  139.6577   67.5653  226.4184 H   0  0  0  0  0  0  0  0  0  0  0  0
  141.6404   70.9058  228.3277 H   0  0  0  0  0  0  0  0  0  0  0  0
  141.1028   72.3582  226.3702 H   0  0  0  0  0  0  0  0  0  0  0  0
  140.4127   76.4630  219.5304 H   0  0  0  0  0  0  0  0  0  0  0  0
  140.7979   76.3287  221.2962 H   0  0  0  0  0  0  0  0  0  0  0  0
  142.0983   78.1008  220.0337 H   0  0  0  0  0  0  0  0  0  0  0  0
  143.0852   76.8471  220.9292 H   0  0  0  0  0  0  0  0  0  0  0  0
  143.1397   77.5886  218.1188 H   0  0  0  0  0  0  0  0  0  0  0  0
  144.2477   76.5215  219.1040 H   0  0  0  0  0  0  0  0  0  0  0  0
  141.7785   75.7412  217.5226 H   0  0  0  0  0  0  0  0  0  0  0  0
  143.4891   75.1536  217.3663 H   0  0  0  0  0  0  0  0  0  0  0  0
  141.8907   73.5253  218.4658 H   0  0  0  0  0  0  0  0  0  0  0  0
  143.8898   75.2474  221.1063 H   0  0  0  0  0  0  0  0  0  0  0  0
  146.0170   74.3286  222.0227 H   0  0  0  0  0  0  0  0  0  0  0  0
  147.0261   72.2758  221.0249 H   0  0  0  0  0  0  0  0  0  0  0  0
  145.9205   71.1534  219.0914 H   0  0  0  0  0  0  0  0  0  0  0  0
  143.7951   72.0659  218.1598 H   0  0  0  0  0  0  0  0  0  0  0  0
  1  2  1  0
  2  3  2  0
  3  4  1  0
  4  5  2  0
  5  6  1  0
  5  7  1  0
  7  8  2  0
  8  9  1  0
  9 10  2  0
 10 11  1  0
 11 12  2  0
 12 13  1  0
 12 14  1  0
 14 15  2  0
 15 16  1  0
 16 17  2  0
  2 18  1  0
 18 19  1  0
 19 20  1  0
 20 21  1  0
 21 22  1  0
 22 23  1  0
 23 24  1  0
 24 25  2  0
 25 26  1  0
 26 27  2  0
 27 28  1  0
 28 29  2  0
 17  7  1  0
 23 18  1  0
 29 24  1  0
 16 10  1  0
  1 30  1  0
  3 31  1  0
  6 32  1  0
  8 33  1  0
  9 34  1  0
 11 35  1  0
 14 36  1  0
 15 37  1  0
 19 38  1  0
 19 39  1  0
 20 40  1  0
 20 41  1  0
 21 42  1  0
 21 43  1  0
 22 44  1  0
 22 45  1  0
 23 46  1  6
 25 47  1  0
 26 48  1  0
 27 49  1  0
 28 50  1  0
 29 51  1  0
M  END
>  <meeko>  (3) 
{"free_energy": -7.9, "intermolecular_energy": -10.28, "internal_energy": -2.56, "cluster_size": 9, "cluster_id": 2, "rank_in_cluster": 6}

$$$$

     RDKit          3D

 51 54  0  0  0  0  0  0  0  0999 V2000
  139.2940   75.7330  222.9270 O   0  0  0  0  0  0  0  0  0  0  0  0
  140.3050   75.8820  221.9700 C   0  0  0  0  0  0  0  0  0  0  0  0
  140.7110   74.8170  221.2580 C   0  0  0  0  0  0  0  0  0  0  0  0
  140.6910   73.4960  221.8140 N   0  0  0  0  0  0  0  0  0  0  0  0
  139.6790   72.9530  222.4310 C   0  0  0  0  0  0  0  0  0  0  0  0
  138.3900   73.3810  222.1280 O   0  0  0  0  0  0  0  0  0  0  0  0
  139.8410   71.8870  223.4390 C   0  0  0  0  0  0  0  0  0  0  0  0
  139.4970   70.5580  223.1470 C   0  0  0  0  0  0  0  0  0  0  0  0
  139.6570   69.5730  224.1210 C   0  0  0  0  0  0  0  0  0  0  0  0
  140.1610   69.9160  225.3810 C   0  0  0  0  0  0  0  0  0  0  0  0
  140.3160   68.9550  226.3900 C   0  0  0  0  0  0  0  0  0  0  0  0
  140.8250   69.3290  227.6390 C   0  0  0  0  0  0  0  0  0  0  0  0
  141.0140   68.1260  228.9020 Cl  0  0  0  0  0  0  0  0  0  0  0  0
  141.1850   70.6590  227.8810 C   0  0  0  0  0  0  0  0  0  0  0  0
  141.0350   71.6230  226.8800 C   0  0  0  0  0  0  0  0  0  0  0  0
  140.5200   71.2600  225.6310 C   0  0  0  0  0  0  0  0  0  0  0  0
  140.3580   72.1980  224.6580 N   0  0  0  0  0  0  0  0  0  0  0  0
  140.8990   77.1940  221.7810 N   0  0  0  0  0  0  0  0  0  0  0  0
  141.6710   77.4320  220.5480 C   0  0  0  0  0  0  0  0  0  0  0  0
  141.6490   78.9130  220.1430 C   0  0  0  0  0  0  0  0  0  0  0  0
  141.9950   79.8780  221.2930 C   0  0  0  0  0  0  0  0  0  0  0  0
  142.1220   79.1840  222.6560 C   0  0  0  0  0  0  0  0  0  0  0  0
  140.9900   78.1690  222.8940 C   0  0  1  0  0  0  0  0  0  0  0  0
  139.6710   78.8840  223.1490 C   0  0  0  0  0  0  0  0  0  0  0  0
  139.6700   80.0680  223.9100 C   0  0  0  0  0  0  0  0  0  0  0  0
  138.4770   80.7470  224.1680 C   0  0  0  0  0  0  0  0  0  0  0  0
  137.2700   80.2570  223.6640 C   0  0  0  0  0  0  0  0  0  0  0  0
  137.2540   79.0840  222.9060 C   0  0  0  0  0  0  0  0  0  0  0  0
  138.4460   78.4000  222.6460 C   0  0  0  0  0  0  0  0  0  0  0  0
  139.1430   74.8780  223.4460 H   0  0  0  0  0  0  0  0  0  0  0  0
  141.0661   74.9621  220.2270 H   0  0  0  0  0  0  0  0  0  0  0  0
  137.9120   74.0570  222.7130 H   0  0  0  0  0  0  0  0  0  0  0  0
  139.1030   70.2946  222.1544 H   0  0  0  0  0  0  0  0  0  0  0  0
  139.3880   68.5296  223.8998 H   0  0  0  0  0  0  0  0  0  0  0  0
  140.0378   67.9078  226.2002 H   0  0  0  0  0  0  0  0  0  0  0  0
  141.5878   70.9474  228.8631 H   0  0  0  0  0  0  0  0  0  0  0  0
  141.3219   72.6670  227.0744 H   0  0  0  0  0  0  0  0  0  0  0  0
  142.7135   77.1231  220.7146 H   0  0  0  0  0  0  0  0  0  0  0  0
  141.2122   76.8472  219.7371 H   0  0  0  0  0  0  0  0  0  0  0  0
  142.3791   79.0620  219.3339 H   0  0  0  0  0  0  0  0  0  0  0  0
  140.6201   79.1440  219.8300 H   0  0  0  0  0  0  0  0  0  0  0  0
  142.9523   80.3676  221.0608 H   0  0  0  0  0  0  0  0  0  0  0  0
  141.1671   80.5980  221.3719 H   0  0  0  0  0  0  0  0  0  0  0  0
  143.0864   78.6566  222.6974 H   0  0  0  0  0  0  0  0  0  0  0  0
  142.0564   79.9554  223.4374 H   0  0  0  0  0  0  0  0  0  0  0  0
  141.2262   77.5903  223.7992 H   0  0  0  0  0  0  0  0  0  0  0  0
  140.6177   80.4623  224.3053 H   0  0  0  0  0  0  0  0  0  0  0  0
  138.4880   81.6685  224.7686 H   0  0  0  0  0  0  0  0  0  0  0  0
  136.3317   80.7951  223.8641 H   0  0  0  0  0  0  0  0  0  0  0  0
  136.3022   78.6974  222.5128 H   0  0  0  0  0  0  0  0  0  0  0  0
  138.4276   77.4787  222.0453 H   0  0  0  0  0  0  0  0  0  0  0  0
  1  2  1  0
  2  3  2  0
  3  4  1  0
  4  5  2  0
  5  6  1  0
  5  7  1  0
  7  8  2  0
  8  9  1  0
  9 10  2  0
 10 11  1  0
 11 12  2  0
 12 13  1  0
 12 14  1  0
 14 15  2  0
 15 16  1  0
 16 17  2  0
  2 18  1  0
 18 19  1  0
 19 20  1  0
 20 21  1  0
 21 22  1  0
 22 23  1  0
 23 24  1  0
 24 25  2  0
 25 26  1  0
 26 27  2  0
 27 28  1  0
 28 29  2  0
 17  7  1  0
 23 18  1  0
 29 24  1  0
 16 10  1  0
  1 30  1  0
  3 31  1  0
  6 32  1  0
  8 33  1  0
  9 34  1  0
 11 35  1  0
 14 36  1  0
 15 37  1  0
 19 38  1  0
 19 39  1  0
 20 40  1  0
 20 41  1  0
 21 42  1  0
 21 43  1  0
 22 44  1  0
 22 45  1  0
 23 46  1  1
 25 47  1  0
 26 48  1  0
 27 49  1  0
 28 50  1  0
 29 51  1  0
M  END
>  <meeko>  (4) 
{"free_energy": -8.78, "intermolecular_energy": -11.17, "internal_energy": -2.2, "cluster_size": 7, "cluster_id": 1, "rank_in_cluster": 2}

$$$$

     RDKit          3D

 51 54  0  0  0  0  0  0  0  0999 V2000
  138.5880   75.6970  222.3330 O   0  0  0  0  0  0  0  0  0  0  0  0
  139.8250   75.9500  221.7290 C   0  0  0  0  0  0  0  0  0  0  0  0
  140.8620   75.1270  221.9600 C   0  0  0  0  0  0  0  0  0  0  0  0
  140.7610   73.7160  221.7290 N   0  0  0  0  0  0  0  0  0  0  0  0
  139.7460   72.9680  222.0640 C   0  0  0  0  0  0  0  0  0  0  0  0
  138.5280   73.1440  221.4140 O   0  0  0  0  0  0  0  0  0  0  0  0
  139.8360   71.9270  223.1070 C   0  0  0  0  0  0  0  0  0  0  0  0
  139.4120   70.6130  222.8530 C   0  0  0  0  0  0  0  0  0  0  0  0
  139.5050   69.6510  223.8590 C   0  0  0  0  0  0  0  0  0  0  0  0
  140.0210   70.0030  225.1120 C   0  0  0  0  0  0  0  0  0  0  0  0
  140.1110   69.0670  226.1520 C   0  0  0  0  0  0  0  0  0  0  0  0
  140.6340   69.4480  227.3930 C   0  0  0  0  0  0  0  0  0  0  0  0
  140.7410   68.2770  228.6950 Cl  0  0  0  0  0  0  0  0  0  0  0  0
  141.0740   70.7610  227.5950 C   0  0  0  0  0  0  0  0  0  0  0  0
  140.9910   71.7000  226.5630 C   0  0  0  0  0  0  0  0  0  0  0  0
  140.4610   71.3300  225.3220 C   0  0  0  0  0  0  0  0  0  0  0  0
  140.3640   72.2440  224.3190 N   0  0  0  0  0  0  0  0  0  0  0  0
  139.9550   77.1140  220.8690 N   0  0  0  0  0  0  0  0  0  0  0  0
  138.8340   77.4370  219.9680 C   0  0  0  0  0  0  0  0  0  0  0  0
  138.7720   78.9400  219.6590 C   0  0  0  0  0  0  0  0  0  0  0  0
  140.1210   79.5410  219.2190 C   0  0  0  0  0  0  0  0  0  0  0  0
  141.2960   78.5630  219.3440 C   0  0  0  0  0  0  0  0  0  0  0  0
  141.2620   77.7870  220.6730 C   0  0  1  0  0  0  0  0  0  0  0  0
  141.6260   78.6980  221.8370 C   0  0  0  0  0  0  0  0  0  0  0  0
  142.1700   79.9670  221.5680 C   0  0  0  0  0  0  0  0  0  0  0  0
  142.5200   80.8260  222.6130 C   0  0  0  0  0  0  0  0  0  0  0  0
  142.3270   80.4320  223.9380 C   0  0  0  0  0  0  0  0  0  0  0  0
  141.7870   79.1750  224.2210 C   0  0  0  0  0  0  0  0  0  0  0  0
  141.4360   78.3110  223.1790 C   0  0  0  0  0  0  0  0  0  0  0  0
  138.3570   74.8160  222.7760 H   0  0  0  0  0  0  0  0  0  0  0  0
  141.8082   75.5450  222.3342 H   0  0  0  0  0  0  0  0  0  0  0  0
  138.2680   74.0430  221.0250 H   0  0  0  0  0  0  0  0  0  0  0  0
  139.0085   70.3434  221.8658 H   0  0  0  0  0  0  0  0  0  0  0  0
  139.1741   68.6194  223.6684 H   0  0  0  0  0  0  0  0  0  0  0  0
  139.7705   68.0332  225.9926 H   0  0  0  0  0  0  0  0  0  0  0  0
  141.4873   71.0556  228.5709 H   0  0  0  0  0  0  0  0  0  0  0  0
  141.3422   72.7295  226.7264 H   0  0  0  0  0  0  0  0  0  0  0  0
  138.9625   76.8839  219.0259 H   0  0  0  0  0  0  0  0  0  0  0  0
  137.8972   77.1496  220.4677 H   0  0  0  0  0  0  0  0  0  0  0  0
  138.0421   79.0981  218.8514 H   0  0  0  0  0  0  0  0  0  0  0  0
  138.4846   79.4471  220.5918 H   0  0  0  0  0  0  0  0  0  0  0  0
  140.0372   79.8520  218.1672 H   0  0  0  0  0  0  0  0  0  0  0  0
  140.3320   80.3877  219.8887 H   0  0  0  0  0  0  0  0  0  0  0  0
  141.2501   77.8447  218.5122 H   0  0  0  0  0  0  0  0  0  0  0  0
  142.2281   79.1465  219.3152 H   0  0  0  0  0  0  0  0  0  0  0  0
  142.0215   76.9923  220.6320 H   0  0  0  0  0  0  0  0  0  0  0  0
  142.3211   80.2858  220.5261 H   0  0  0  0  0  0  0  0  0  0  0  0
  142.9484   81.8145  222.3910 H   0  0  0  0  0  0  0  0  0  0  0  0
  142.6000   81.1110  224.7592 H   0  0  0  0  0  0  0  0  0  0  0  0
  141.6376   78.8643  225.2656 H   0  0  0  0  0  0  0  0  0  0  0  0
  141.0091   77.3234  223.4080 H   0  0  0  0  0  0  0  0  0  0  0  0
  1  2  1  0
  2  3  2  0
  3  4  1  0
  4  5  2  0
  5  6  1  0
  5  7  1  0
  7  8  2  0
  8  9  1  0
  9 10  2  0
 10 11  1  0
 11 12  2  0
 12 13  1  0
 12 14  1  0
 14 15  2  0
 15 16  1  0
 16 17  2  0
  2 18  1  0
 18 19  1  0
 19 20  1  0
 20 21  1  0
 21 22  1  0
 22 23  1  0
 23 24  1  0
 24 25  2  0
 25 26  1  0
 26 27  2  0
 27 28  1  0
 28 29  2  0
 17  7  1  0
 23 18  1  0
 29 24  1  0
 16 10  1  0
  1 30  1  0
  3 31  1  0
  6 32  1  0
  8 33  1  0
  9 34  1  0
 11 35  1  0
 14 36  1  0
 15 37  1  0
 19 38  1  0
 19 39  1  0
 20 40  1  0
 20 41  1  0
 21 42  1  0
 21 43  1  0
 22 44  1  0
 22 45  1  0
 23 46  1  6
 25 47  1  0
 26 48  1  0
 27 49  1  0
 28 50  1  0
 29 51  1  0
M  END
>  <meeko>  (5) 
{"free_energy": -8.06, "intermolecular_energy": -10.45, "internal_energy": -2.32, "cluster_size": 7, "cluster_id": 1, "rank_in_cluster": 4}

$$$$

     RDKit          3D

 51 54  0  0  0  0  0  0  0  0999 V2000
  141.3950   75.1850  221.9510 O   0  0  0  0  0  0  0  0  0  0  0  0
  140.2770   75.7500  221.3260 C   0  0  0  0  0  0  0  0  0  0  0  0
  139.0640   75.1990  221.5020 C   0  0  0  0  0  0  0  0  0  0  0  0
  138.9060   73.9420  222.1720 N   0  0  0  0  0  0  0  0  0  0  0  0
  139.7300   72.9340  222.0860 C   0  0  0  0  0  0  0  0  0  0  0  0
  140.5580   72.8260  220.9730 O   0  0  0  0  0  0  0  0  0  0  0  0
  139.8280   71.8960  223.1310 C   0  0  0  0  0  0  0  0  0  0  0  0
  139.4080   70.5800  222.8840 C   0  0  0  0  0  0  0  0  0  0  0  0
  139.5100   69.6210  223.8920 C   0  0  0  0  0  0  0  0  0  0  0  0
  140.0300   69.9790  225.1420 C   0  0  0  0  0  0  0  0  0  0  0  0
  140.1280   69.0460  226.1840 C   0  0  0  0  0  0  0  0  0  0  0  0
  140.6560   69.4330  227.4210 C   0  0  0  0  0  0  0  0  0  0  0  0
  140.7730   68.2670  228.7260 Cl  0  0  0  0  0  0  0  0  0  0  0  0
  141.0920   70.7480  227.6180 C   0  0  0  0  0  0  0  0  0  0  0  0
  141.0000   71.6830  226.5830 C   0  0  0  0  0  0  0  0  0  0  0  0
  140.4660   71.3080  225.3460 C   0  0  0  0  0  0  0  0  0  0  0  0
  140.3600   72.2190  224.3400 N   0  0  0  0  0  0  0  0  0  0  0  0
  140.4650   76.9210  220.4870 N   0  0  0  0  0  0  0  0  0  0  0  0
  139.5110   77.1430  219.3860 C   0  0  0  0  0  0  0  0  0  0  0  0
  139.3770   78.6340  219.0450 C   0  0  0  0  0  0  0  0  0  0  0  0
  140.7260   79.3540  218.8560 C   0  0  0  0  0  0  0  0  0  0  0  0
  141.9380   78.4840  219.2170 C   0  0  0  0  0  0  0  0  0  0  0  0
  141.7210   77.7080  220.5290 C   0  0  1  0  0  0  0  0  0  0  0  0
  141.7780   78.6470  221.7250 C   0  0  0  0  0  0  0  0  0  0  0  0
  142.2080   79.9730  221.5340 C   0  0  0  0  0  0  0  0  0  0  0  0
  142.2780   80.8610  222.6110 C   0  0  0  0  0  0  0  0  0  0  0  0
  141.9130   80.4380  223.8900 C   0  0  0  0  0  0  0  0  0  0  0  0
  141.4830   79.1250  224.0960 C   0  0  0  0  0  0  0  0  0  0  0  0
  141.4130   78.2320  223.0220 C   0  0  0  0  0  0  0  0  0  0  0  0
  141.3930   74.2590  222.3590 H   0  0  0  0  0  0  0  0  0  0  0  0
  138.1741   75.7236  221.1240 H   0  0  0  0  0  0  0  0  0  0  0  0
  141.1020   73.6160  220.6470 H   0  0  0  0  0  0  0  0  0  0  0  0
  139.0002   70.3058  221.8999 H   0  0  0  0  0  0  0  0  0  0  0  0
  139.1831   68.5874  223.7056 H   0  0  0  0  0  0  0  0  0  0  0  0
  139.7902   68.0106  226.0294 H   0  0  0  0  0  0  0  0  0  0  0  0
  141.5087   71.0471  228.5911 H   0  0  0  0  0  0  0  0  0  0  0  0
  141.3478   72.7144  226.7416 H   0  0  0  0  0  0  0  0  0  0  0  0
  139.8631   76.6033  218.4945 H   0  0  0  0  0  0  0  0  0  0  0  0
  138.5254   76.7736  219.7056 H   0  0  0  0  0  0  0  0  0  0  0  0
  138.8016   78.7257  218.1120 H   0  0  0  0  0  0  0  0  0  0  0  0
  138.8756   79.1134  219.8987 H   0  0  0  0  0  0  0  0  0  0  0  0
  140.8153   79.6560  217.8020 H   0  0  0  0  0  0  0  0  0  0  0  0
  140.7315   80.2170  219.5381 H   0  0  0  0  0  0  0  0  0  0  0  0
  142.1134   77.7644  218.4037 H   0  0  0  0  0  0  0  0  0  0  0  0
  142.8040   79.1482  219.3545 H   0  0  0  0  0  0  0  0  0  0  0  0
  142.5410   76.9840  220.6449 H   0  0  0  0  0  0  0  0  0  0  0  0
  142.4918   80.3140  220.5274 H   0  0  0  0  0  0  0  0  0  0  0  0
  142.6209   81.8938  222.4505 H   0  0  0  0  0  0  0  0  0  0  0  0
  141.9640   81.1389  224.7362 H   0  0  0  0  0  0  0  0  0  0  0  0
  141.1988   78.7927  225.1053 H   0  0  0  0  0  0  0  0  0  0  0  0
  141.0712   77.2000  223.1901 H   0  0  0  0  0  0  0  0  0  0  0  0
  1  2  1  0
  2  3  2  0
  3  4  1  0
  4  5  2  0
  5  6  1  0
  5  7  1  0
  7  8  2  0
  8  9  1  0
  9 10  2  0
 10 11  1  0
 11 12  2  0
 12 13  1  0
 12 14  1  0
 14 15  2  0
 15 16  1  0
 16 17  2  0
  2 18  1  0
 18 19  1  0
 19 20  1  0
 20 21  1  0
 21 22  1  0
 22 23  1  0
 23 24  1  0
 24 25  2  0
 25 26  1  0
 26 27  2  0
 27 28  1  0
 28 29  2  0
 17  7  1  0
 23 18  1  0
 29 24  1  0
 16 10  1  0
  1 30  1  0
  3 31  1  0
  6 32  1  0
  8 33  1  0
  9 34  1  0
 11 35  1  0
 14 36  1  0
 15 37  1  0
 19 38  1  0
 19 39  1  0
 20 40  1  0
 20 41  1  0
 21 42  1  0
 21 43  1  0
 22 44  1  0
 22 45  1  0
 23 46  1  1
 25 47  1  0
 26 48  1  0
 27 49  1  0
 28 50  1  0
 29 51  1  0
M  END
>  <meeko>  (6) 
{"free_energy": -7.36, "intermolecular_energy": -9.75, "internal_energy": -2.32, "cluster_size": 7, "cluster_id": 1, "rank_in_cluster": 6}

$$$$

     RDKit          3D

 51 54  0  0  0  0  0  0  0  0999 V2000
  140.9990   73.8040  222.0340 O   0  0  0  0  0  0  0  0  0  0  0  0
  141.4350   73.1220  220.8920 C   0  0  0  0  0  0  0  0  0  0  0  0
  140.5470   72.4610  220.1300 C   0  0  0  0  0  0  0  0  0  0  0  0
  139.3130   71.9740  220.6750 N   0  0  0  0  0  0  0  0  0  0  0  0
  138.8880   72.1890  221.8890 C   0  0  0  0  0  0  0  0  0  0  0  0
  138.1410   73.3320  222.1540 O   0  0  0  0  0  0  0  0  0  0  0  0
  139.1610   71.2600  223.0030 C   0  0  0  0  0  0  0  0  0  0  0  0
  138.7390   69.9220  222.9470 C   0  0  0  0  0  0  0  0  0  0  0  0
  139.0070   69.0680  224.0170 C   0  0  0  0  0  0  0  0  0  0  0  0
  139.6960   69.5500  225.1360 C   0  0  0  0  0  0  0  0  0  0  0  0
  139.9650   68.7250  226.2370 C   0  0  0  0  0  0  0  0  0  0  0  0
  140.6580   69.2360  227.3410 C   0  0  0  0  0  0  0  0  0  0  0  0
  140.9900   68.2030  228.7200 Cl  0  0  0  0  0  0  0  0  0  0  0  0
  141.0890   70.5670  227.3440 C   0  0  0  0  0  0  0  0  0  0  0  0
  140.8260   71.3950  226.2500 C   0  0  0  0  0  0  0  0  0  0  0  0
  140.1270   70.8960  225.1460 C   0  0  0  0  0  0  0  0  0  0  0  0
  139.8560   71.7030  224.0850 N   0  0  0  0  0  0  0  0  0  0  0  0
  142.8510   73.1380  220.5670 N   0  0  0  0  0  0  0  0  0  0  0  0
  143.5490   71.8440  220.4560 C   0  0  0  0  0  0  0  0  0  0  0  0
  144.7450   71.9280  219.4970 C   0  0  0  0  0  0  0  0  0  0  0  0
  145.6810   73.1220  219.7710 C   0  0  0  0  0  0  0  0  0  0  0  0
  145.1420   74.0890  220.8330 C   0  0  0  0  0  0  0  0  0  0  0  0
  143.6440   74.3890  220.6340 C   0  0  1  0  0  0  0  0  0  0  0  0
  143.4310   75.2770  219.4170 C   0  0  0  0  0  0  0  0  0  0  0  0
  143.5260   74.7120  218.1320 C   0  0  0  0  0  0  0  0  0  0  0  0
  143.3410   75.5010  216.9930 C   0  0  0  0  0  0  0  0  0  0  0  0
  143.0520   76.8600  217.1230 C   0  0  0  0  0  0  0  0  0  0  0  0
  142.9520   77.4350  218.3920 C   0  0  0  0  0  0  0  0  0  0  0  0
  143.1380   76.6510  219.5350 C   0  0  0  0  0  0  0  0  0  0  0  0
  140.2950   73.4400  222.6630 H   0  0  0  0  0  0  0  0  0  0  0  0
  140.7712   72.2900  219.0667 H   0  0  0  0  0  0  0  0  0  0  0  0
  138.5070   74.0710  222.7440 H   0  0  0  0  0  0  0  0  0  0  0  0
  138.1997   69.5490  222.0638 H   0  0  0  0  0  0  0  0  0  0  0  0
  138.6779   68.0190  223.9814 H   0  0  0  0  0  0  0  0  0  0  0  0
  139.6318   67.6767  226.2335 H   0  0  0  0  0  0  0  0  0  0  0  0
  141.6373   70.9632  228.2114 H   0  0  0  0  0  0  0  0  0  0  0  0
  141.1689   72.4402  226.2568 H   0  0  0  0  0  0  0  0  0  0  0  0
  143.9098   71.5464  221.4516 H   0  0  0  0  0  0  0  0  0  0  0  0
  142.8398   71.1034  220.0578 H   0  0  0  0  0  0  0  0  0  0  0  0
  145.3296   71.0009  219.5900 H   0  0  0  0  0  0  0  0  0  0  0  0
  144.3351   72.0683  218.4859 H   0  0  0  0  0  0  0  0  0  0  0  0
  146.6509   72.7328  220.1143 H   0  0  0  0  0  0  0  0  0  0  0  0
  145.7682   73.6878  218.8317 H   0  0  0  0  0  0  0  0  0  0  0  0
  145.2852   73.6403  221.8271 H   0  0  0  0  0  0  0  0  0  0  0  0
  145.6932   75.0364  220.7406 H   0  0  0  0  0  0  0  0  0  0  0  0
  143.2799   74.9456  221.5101 H   0  0  0  0  0  0  0  0  0  0  0  0
  143.7478   73.6401  218.0227 H   0  0  0  0  0  0  0  0  0  0  0  0
  143.4233   75.0501  215.9931 H   0  0  0  0  0  0  0  0  0  0  0  0
  142.9029   77.4787  216.2258 H   0  0  0  0  0  0  0  0  0  0  0  0
  142.7264   78.5069  218.4925 H   0  0  0  0  0  0  0  0  0  0  0  0
  143.0552   77.1089  220.5317 H   0  0  0  0  0  0  0  0  0  0  0  0
  1  2  1  0
  2  3  2  0
  3  4  1  0
  4  5  2  0
  5  6  1  0
  5  7  1  0
  7  8  2  0
  8  9  1  0
  9 10  2  0
 10 11  1  0
 11 12  2  0
 12 13  1  0
 12 14  1  0
 14 15  2  0
 15 16  1  0
 16 17  2  0
  2 18  1  0
 18 19  1  0
 19 20  1  0
 20 21  1  0
 21 22  1  0
 22 23  1  0
 23 24  1  0
 24 25  2  0
 25 26  1  0
 26 27  2  0
 27 28  1  0
 28 29  2  0
 17  7  1  0
 23 18  1  0
 29 24  1  0
 16 10  1  0
  1 30  1  0
  3 31  1  0
  6 32  1  0
  8 33  1  0
  9 34  1  0
 11 35  1  0
 14 36  1  0
 15 37  1  0
 19 38  1  0
 19 39  1  0
 20 40  1  0
 20 41  1  0
 21 42  1  0
 21 43  1  0
 22 44  1  0
 22 45  1  0
 23 46  1  1
 25 47  1  0
 26 48  1  0
 27 49  1  0
 28 50  1  0
 29 51  1  0
M  END
>  <meeko>  (7) 
{"free_energy": -7.64, "intermolecular_energy": -10.03, "internal_energy": -2.33, "cluster_size": 9, "cluster_id": 2, "rank_in_cluster": 7}

$$$$

     RDKit          3D

 51 54  0  0  0  0  0  0  0  0999 V2000
  140.2360   73.3710  222.6270 O   0  0  0  0  0  0  0  0  0  0  0  0
  140.3330   73.2210  221.2390 C   0  0  0  0  0  0  0  0  0  0  0  0
  139.2200   73.0380  220.5080 C   0  0  0  0  0  0  0  0  0  0  0  0
  138.0740   73.8840  220.6700 N   0  0  0  0  0  0  0  0  0  0  0  0
  137.7650   74.5350  221.7570 C   0  0  0  0  0  0  0  0  0  0  0  0
  136.9300   73.9340  222.6940 O   0  0  0  0  0  0  0  0  0  0  0  0
  138.2730   75.8910  222.0440 C   0  0  0  0  0  0  0  0  0  0  0  0
  137.4340   77.0120  221.9450 C   0  0  0  0  0  0  0  0  0  0  0  0
  137.9430   78.2810  222.2190 C   0  0  0  0  0  0  0  0  0  0  0  0
  139.2850   78.4270  222.5900 C   0  0  0  0  0  0  0  0  0  0  0  0
  139.8350   79.6900  222.8530 C   0  0  0  0  0  0  0  0  0  0  0  0
  141.1800   79.8040  223.2240 C   0  0  0  0  0  0  0  0  0  0  0  0
  141.8680   81.3840  223.5480 Cl  0  0  0  0  0  0  0  0  0  0  0  0
  141.9750   78.6580  223.3410 C   0  0  0  0  0  0  0  0  0  0  0  0
  141.4330   77.3950  223.0830 C   0  0  0  0  0  0  0  0  0  0  0  0
  140.0930   77.2730  222.7030 C   0  0  0  0  0  0  0  0  0  0  0  0
  139.5660   76.0470  222.4360 N   0  0  0  0  0  0  0  0  0  0  0  0
  141.6480   73.2570  220.6230 N   0  0  0  0  0  0  0  0  0  0  0  0
  142.1630   72.0140  220.0190 C   0  0  0  0  0  0  0  0  0  0  0  0
  143.1450   72.3060  218.8760 C   0  0  0  0  0  0  0  0  0  0  0  0
  144.2430   73.3240  219.2420 C   0  0  0  0  0  0  0  0  0  0  0  0
  144.0370   73.9770  220.6150 C   0  0  0  0  0  0  0  0  0  0  0  0
  142.5720   74.3960  220.8410 C   0  0  1  0  0  0  0  0  0  0  0  0
  142.2190   75.6020  219.9830 C   0  0  0  0  0  0  0  0  0  0  0  0
  143.2530   76.4350  219.5150 C   0  0  0  0  0  0  0  0  0  0  0  0
  142.9630   77.5540  218.7310 C   0  0  0  0  0  0  0  0  0  0  0  0
  141.6410   77.8520  218.3970 C   0  0  0  0  0  0  0  0  0  0  0  0
  140.6040   77.0340  218.8530 C   0  0  0  0  0  0  0  0  0  0  0  0
  140.8880   75.9140  219.6400 C   0  0  0  0  0  0  0  0  0  0  0  0
  139.5370   73.9490  223.0750 H   0  0  0  0  0  0  0  0  0  0  0  0
  139.1878   72.2225  219.7705 H   0  0  0  0  0  0  0  0  0  0  0  0
  137.3100   73.4020  223.4690 H   0  0  0  0  0  0  0  0  0  0  0  0
  136.3806   76.8901  221.6528 H   0  0  0  0  0  0  0  0  0  0  0  0
  137.2921   79.1646  222.1439 H   0  0  0  0  0  0  0  0  0  0  0  0
  139.2096   80.5909  222.7678 H   0  0  0  0  0  0  0  0  0  0  0  0
  143.0303   78.7512  223.6371 H   0  0  0  0  0  0  0  0  0  0  0  0
  142.0611   76.4971  223.1790 H   0  0  0  0  0  0  0  0  0  0  0  0
  142.6803   71.4285  220.7933 H   0  0  0  0  0  0  0  0  0  0  0  0
  141.3113   71.4535  219.6062 H   0  0  0  0  0  0  0  0  0  0  0  0
  143.6301   71.3622  218.5863 H   0  0  0  0  0  0  0  0  0  0  0  0
  142.5594   72.7481  218.0565 H   0  0  0  0  0  0  0  0  0  0  0  0
  145.2127   72.8046  219.2451 H   0  0  0  0  0  0  0  0  0  0  0  0
  144.2033   74.1274  218.4917 H   0  0  0  0  0  0  0  0  0  0  0  0
  144.3256   73.2588  221.3967 H   0  0  0  0  0  0  0  0  0  0  0  0
  144.6597   74.8828  220.6572 H   0  0  0  0  0  0  0  0  0  0  0  0
  142.4545   74.6993  221.8918 H   0  0  0  0  0  0  0  0  0  0  0  0
  144.2978   76.2027  219.7688 H   0  0  0  0  0  0  0  0  0  0  0  0
  143.7782   78.2017  218.3761 H   0  0  0  0  0  0  0  0  0  0  0  0
  141.4155   78.7307  217.7749 H   0  0  0  0  0  0  0  0  0  0  0  0
  139.5621   77.2718  218.5922 H   0  0  0  0  0  0  0  0  0  0  0  0
  140.0676   75.2723  219.9937 H   0  0  0  0  0  0  0  0  0  0  0  0
  1  2  1  0
  2  3  2  0
  3  4  1  0
  4  5  2  0
  5  6  1  0
  5  7  1  0
  7  8  2  0
  8  9  1  0
  9 10  2  0
 10 11  1  0
 11 12  2  0
 12 13  1  0
 12 14  1  0
 14 15  2  0
 15 16  1  0
 16 17  2  0
  2 18  1  0
 18 19  1  0
 19 20  1  0
 20 21  1  0
 21 22  1  0
 22 23  1  0
 23 24  1  0
 24 25  2  0
 25 26  1  0
 26 27  2  0
 27 28  1  0
 28 29  2  0
 17  7  1  0
 23 18  1  0
 29 24  1  0
 16 10  1  0
  1 30  1  0
  3 31  1  0
  6 32  1  0
  8 33  1  0
  9 34  1  0
 11 35  1  0
 14 36  1  0
 15 37  1  0
 19 38  1  0
 19 39  1  0
 20 40  1  0
 20 41  1  0
 21 42  1  0
 21 43  1  0
 22 44  1  0
 22 45  1  0
 23 46  1  1
 25 47  1  0
 26 48  1  0
 27 49  1  0
 28 50  1  0
 29 51  1  0
M  END
>  <meeko>  (8) 
{"free_energy": -6.22, "intermolecular_energy": -8.6, "internal_energy": -3.35, "cluster_size": 1, "cluster_id": 4, "rank_in_cluster": 1}

$$$$

     RDKit          3D

 51 54  0  0  0  0  0  0  0  0999 V2000
  139.4150   75.5790  222.7480 O   0  0  0  0  0  0  0  0  0  0  0  0
  140.2770   75.6960  221.6520 C   0  0  0  0  0  0  0  0  0  0  0  0
  141.1730   74.7260  221.4010 C   0  0  0  0  0  0  0  0  0  0  0  0
  140.8640   73.3460  221.6380 N   0  0  0  0  0  0  0  0  0  0  0  0
  139.8160   72.9070  222.2770 C   0  0  0  0  0  0  0  0  0  0  0  0
  138.5650   73.4400  221.9770 O   0  0  0  0  0  0  0  0  0  0  0  0
  139.8970   71.8550  223.3090 C   0  0  0  0  0  0  0  0  0  0  0  0
  139.4840   70.5410  223.0340 C   0  0  0  0  0  0  0  0  0  0  0  0
  139.5680   69.5680  224.0300 C   0  0  0  0  0  0  0  0  0  0  0  0
  140.0640   69.9080  225.2940 C   0  0  0  0  0  0  0  0  0  0  0  0
  140.1440   68.9600  226.3240 C   0  0  0  0  0  0  0  0  0  0  0  0
  140.6470   69.3300  227.5770 C   0  0  0  0  0  0  0  0  0  0  0  0
  140.7420   68.1450  228.8670 Cl  0  0  0  0  0  0  0  0  0  0  0  0
  141.0760   70.6430  227.8010 C   0  0  0  0  0  0  0  0  0  0  0  0
  141.0020   71.5930  226.7790 C   0  0  0  0  0  0  0  0  0  0  0  0
  140.4930   71.2350  225.5270 C   0  0  0  0  0  0  0  0  0  0  0  0
  140.4040   72.1600  224.5330 N   0  0  0  0  0  0  0  0  0  0  0  0
  140.1840   76.8800  220.8150 N   0  0  0  0  0  0  0  0  0  0  0  0
  138.9760   77.0490  219.9870 C   0  0  0  0  0  0  0  0  0  0  0  0
  138.6770   78.5310  219.7190 C   0  0  0  0  0  0  0  0  0  0  0  0
  139.8950   79.3310  219.2180 C   0  0  0  0  0  0  0  0  0  0  0  0
  141.2050   78.5350  219.2520 C   0  0  0  0  0  0  0  0  0  0  0  0
  141.3650   77.7410  220.5620 C   0  0  1  0  0  0  0  0  0  0  0  0
  141.6610   78.6760  221.7250 C   0  0  0  0  0  0  0  0  0  0  0  0
  141.4320   78.2280  223.0390 C   0  0  0  0  0  0  0  0  0  0  0  0
  141.6880   79.0630  224.1290 C   0  0  0  0  0  0  0  0  0  0  0  0
  142.1830   80.3520  223.9230 C   0  0  0  0  0  0  0  0  0  0  0  0
  142.4170   80.8110  222.6250 C   0  0  0  0  0  0  0  0  0  0  0  0
  142.1610   79.9800  221.5290 C   0  0  0  0  0  0  0  0  0  0  0  0
  139.2520   74.7070  223.2360 H   0  0  0  0  0  0  0  0  0  0  0  0
  142.1633   74.9963  221.0058 H   0  0  0  0  0  0  0  0  0  0  0  0
  138.0200   73.9240  222.6810 H   0  0  0  0  0  0  0  0  0  0  0  0
  139.0962   70.2805  222.0381 H   0  0  0  0  0  0  0  0  0  0  0  0
  139.2455   68.5369  223.8228 H   0  0  0  0  0  0  0  0  0  0  0  0
  139.8118   67.9263  226.1477 H   0  0  0  0  0  0  0  0  0  0  0  0
  141.4733   70.9286  228.7862 H   0  0  0  0  0  0  0  0  0  0  0  0
  141.3443   72.6227  226.9595 H   0  0  0  0  0  0  0  0  0  0  0  0
  139.1274   76.5359  219.0258 H   0  0  0  0  0  0  0  0  0  0  0  0
  138.1226   76.6190  220.5318 H   0  0  0  0  0  0  0  0  0  0  0  0
  137.8849   78.5928  218.9583 H   0  0  0  0  0  0  0  0  0  0  0  0
  138.3749   78.9753  220.6788 H   0  0  0  0  0  0  0  0  0  0  0  0
  139.7039   79.6431  218.1806 H   0  0  0  0  0  0  0  0  0  0  0  0
  140.0197   80.1888  219.8952 H   0  0  0  0  0  0  0  0  0  0  0  0
  141.2146   77.8310  218.4068 H   0  0  0  0  0  0  0  0  0  0  0  0
  142.0383   79.2499  219.1846 H   0  0  0  0  0  0  0  0  0  0  0  0
  142.2289   77.0680  220.4585 H   0  0  0  0  0  0  0  0  0  0  0  0
  141.0481   77.2113  223.2093 H   0  0  0  0  0  0  0  0  0  0  0  0
  141.4992   78.7043  225.1516 H   0  0  0  0  0  0  0  0  0  0  0  0
  142.3887   81.0061  224.7831 H   0  0  0  0  0  0  0  0  0  0  0  0
  142.8035   81.8282  222.4640 H   0  0  0  0  0  0  0  0  0  0  0  0
  142.3507   80.3457  220.5091 H   0  0  0  0  0  0  0  0  0  0  0  0
  1  2  1  0
  2  3  2  0
  3  4  1  0
  4  5  2  0
  5  6  1  0
  5  7  1  0
  7  8  2  0
  8  9  1  0
  9 10  2  0
 10 11  1  0
 11 12  2  0
 12 13  1  0
 12 14  1  0
 14 15  2  0
 15 16  1  0
 16 17  2  0
  2 18  1  0
 18 19  1  0
 19 20  1  0
 20 21  1  0
 21 22  1  0
 22 23  1  0
 23 24  1  0
 24 25  2  0
 25 26  1  0
 26 27  2  0
 27 28  1  0
 28 29  2  0
 17  7  1  0
 23 18  1  0
 29 24  1  0
 16 10  1  0
  1 30  1  0
  3 31  1  0
  6 32  1  0
  8 33  1  0
  9 34  1  0
 11 35  1  0
 14 36  1  0
 15 37  1  0
 19 38  1  0
 19 39  1  0
 20 40  1  0
 20 41  1  0
 21 42  1  0
 21 43  1  0
 22 44  1  0
 22 45  1  0
 23 46  1  6
 25 47  1  0
 26 48  1  0
 27 49  1  0
 28 50  1  0
 29 51  1  0
M  END
>  <meeko>  (9) 
{"free_energy": -8.77, "intermolecular_energy": -11.16, "internal_energy": -2.04, "cluster_size": 7, "cluster_id": 1, "rank_in_cluster": 3}

$$$$

     RDKit          3D

 51 54  0  0  0  0  0  0  0  0999 V2000
  140.1470   74.3400  222.2940 O   0  0  0  0  0  0  0  0  0  0  0  0
  140.4530   74.1620  220.9400 C   0  0  0  0  0  0  0  0  0  0  0  0
  140.0290   73.0590  220.3000 C   0  0  0  0  0  0  0  0  0  0  0  0
  139.5320   71.9230  221.0190 N   0  0  0  0  0  0  0  0  0  0  0  0
  138.9000   71.9710  222.1590 C   0  0  0  0  0  0  0  0  0  0  0  0
  137.8850   72.9060  222.3340 O   0  0  0  0  0  0  0  0  0  0  0  0
  139.2120   71.0620  223.2800 C   0  0  0  0  0  0  0  0  0  0  0  0
  138.8870   69.6980  223.2140 C   0  0  0  0  0  0  0  0  0  0  0  0
  139.1910   68.8630  224.2900 C   0  0  0  0  0  0  0  0  0  0  0  0
  139.8160   69.3920  225.4250 C   0  0  0  0  0  0  0  0  0  0  0  0
  140.1180   68.5860  226.5320 C   0  0  0  0  0  0  0  0  0  0  0  0
  140.7460   69.1430  227.6520 C   0  0  0  0  0  0  0  0  0  0  0  0
  141.1180   68.1350  229.0390 Cl  0  0  0  0  0  0  0  0  0  0  0  0
  141.0810   70.5020  227.6660 C   0  0  0  0  0  0  0  0  0  0  0  0
  140.7860   71.3110  226.5650 C   0  0  0  0  0  0  0  0  0  0  0  0
  140.1500   70.7650  225.4450 C   0  0  0  0  0  0  0  0  0  0  0  0
  139.8480   71.5520  224.3770 N   0  0  0  0  0  0  0  0  0  0  0  0
  141.2380   75.1790  220.2620 N   0  0  0  0  0  0  0  0  0  0  0  0
  140.9450   76.5920  220.5630 C   0  0  0  0  0  0  0  0  0  0  0  0
  142.1830   77.4800  220.3690 C   0  0  0  0  0  0  0  0  0  0  0  0
  142.8990   77.2630  219.0220 C   0  0  0  0  0  0  0  0  0  0  0  0
  142.3410   76.0840  218.2160 C   0  0  0  0  0  0  0  0  0  0  0  0
  142.0950   74.8470  219.0990 C   0  0  1  0  0  0  0  0  0  0  0  0
  143.4130   74.2090  219.5110 C   0  0  0  0  0  0  0  0  0  0  0  0
  144.2330   73.6330  218.5240 C   0  0  0  0  0  0  0  0  0  0  0  0
  145.4480   73.0340  218.8690 C   0  0  0  0  0  0  0  0  0  0  0  0
  145.8620   73.0090  220.2020 C   0  0  0  0  0  0  0  0  0  0  0  0
  145.0600   73.5790  221.1940 C   0  0  0  0  0  0  0  0  0  0  0  0
  143.8430   74.1780  220.8540 C   0  0  0  0  0  0  0  0  0  0  0  0
  139.8520   73.5850  222.9000 H   0  0  0  0  0  0  0  0  0  0  0  0
  140.0641   73.0273  219.2010 H   0  0  0  0  0  0  0  0  0  0  0  0
  138.0760   73.8160  222.7380 H   0  0  0  0  0  0  0  0  0  0  0  0
  138.3953   69.2895  222.3188 H   0  0  0  0  0  0  0  0  0  0  0  0
  138.9403   67.7928  224.2462 H   0  0  0  0  0  0  0  0  0  0  0  0
  139.8615   67.5164  226.5202 H   0  0  0  0  0  0  0  0  0  0  0  0
  141.5782   70.9348  228.5466 H   0  0  0  0  0  0  0  0  0  0  0  0
  141.0541   72.3777  226.5792 H   0  0  0  0  0  0  0  0  0  0  0  0
  140.1463   76.9416  219.8923 H   0  0  0  0  0  0  0  0  0  0  0  0
  140.6330   76.6620  221.6155 H   0  0  0  0  0  0  0  0  0  0  0  0
  141.8679   78.5322  220.4287 H   0  0  0  0  0  0  0  0  0  0  0  0
  142.8985   77.2093  221.1594 H   0  0  0  0  0  0  0  0  0  0  0  0
  142.7931   78.1775  218.4200 H   0  0  0  0  0  0  0  0  0  0  0  0
  143.9505   77.0319  219.2479 H   0  0  0  0  0  0  0  0  0  0  0  0
  141.3888   76.3871  217.7561 H   0  0  0  0  0  0  0  0  0  0  0  0
  143.0838   75.8133  217.4512 H   0  0  0  0  0  0  0  0  0  0  0  0
  141.5449   74.1005  218.5073 H   0  0  0  0  0  0  0  0  0  0  0  0
  143.9153   73.6541  217.4711 H   0  0  0  0  0  0  0  0  0  0  0  0
  146.0786   72.5818  218.0893 H   0  0  0  0  0  0  0  0  0  0  0  0
  146.8200   72.5404  220.4714 H   0  0  0  0  0  0  0  0  0  0  0  0
  145.3865   73.5565  222.2442 H   0  0  0  0  0  0  0  0  0  0  0  0
  143.2171   74.6278  221.6388 H   0  0  0  0  0  0  0  0  0  0  0  0
  1  2  1  0
  2  3  2  0
  3  4  1  0
  4  5  2  0
  5  6  1  0
  5  7  1  0
  7  8  2  0
  8  9  1  0
  9 10  2  0
 10 11  1  0
 11 12  2  0
 12 13  1  0
 12 14  1  0
 14 15  2  0
 15 16  1  0
 16 17  2  0
  2 18  1  0
 18 19  1  0
 19 20  1  0
 20 21  1  0
 21 22  1  0
 22 23  1  0
 23 24  1  0
 24 25  2  0
 25 26  1  0
 26 27  2  0
 27 28  1  0
 28 29  2  0
 17  7  1  0
 23 18  1  0
 29 24  1  0
 16 10  1  0
  1 30  1  0
  3 31  1  0
  6 32  1  0
  8 33  1  0
  9 34  1  0
 11 35  1  0
 14 36  1  0
 15 37  1  0
 19 38  1  0
 19 39  1  0
 20 40  1  0
 20 41  1  0
 21 42  1  0
 21 43  1  0
 22 44  1  0
 22 45  1  0
 23 46  1  6
 25 47  1  0
 26 48  1  0
 27 49  1  0
 28 50  1  0
 29 51  1  0
M  END
>  <meeko>  (10) 
{"free_energy": -7.94, "intermolecular_energy": -10.32, "internal_energy": -2.58, "cluster_size": 9, "cluster_id": 2, "rank_in_cluster": 5}

$$$$

     RDKit          3D

 51 54  0  0  0  0  0  0  0  0999 V2000
  139.9300   73.7700  222.4130 O   0  0  0  0  0  0  0  0  0  0  0  0
  139.9130   73.7980  221.0140 C   0  0  0  0  0  0  0  0  0  0  0  0
  139.3370   72.7920  220.3340 C   0  0  0  0  0  0  0  0  0  0  0  0
  138.4840   71.8420  220.9860 N   0  0  0  0  0  0  0  0  0  0  0  0
  138.0330   71.9480  222.2060 C   0  0  0  0  0  0  0  0  0  0  0  0
  137.1040   72.9400  222.5030 O   0  0  0  0  0  0  0  0  0  0  0  0
  138.4630   71.0460  223.2930 C   0  0  0  0  0  0  0  0  0  0  0  0
  138.0370   69.7090  223.3320 C   0  0  0  0  0  0  0  0  0  0  0  0
  138.4560   68.8820  224.3740 C   0  0  0  0  0  0  0  0  0  0  0  0
  139.2980   69.3900  225.3710 C   0  0  0  0  0  0  0  0  0  0  0  0
  139.7220   68.5920  226.4430 C   0  0  0  0  0  0  0  0  0  0  0  0
  140.5660   69.1290  227.4220 C   0  0  0  0  0  0  0  0  0  0  0  0
  141.0920   68.1310  228.7660 Cl  0  0  0  0  0  0  0  0  0  0  0  0
  140.9920   70.4580  227.3300 C   0  0  0  0  0  0  0  0  0  0  0  0
  140.5750   71.2590  226.2630 C   0  0  0  0  0  0  0  0  0  0  0  0
  139.7250   70.7340  225.2840 C   0  0  0  0  0  0  0  0  0  0  0  0
  139.3050   71.5150  224.2520 N   0  0  0  0  0  0  0  0  0  0  0  0
  140.5360   74.9190  220.3310 N   0  0  0  0  0  0  0  0  0  0  0  0
  140.5170   74.9260  218.8570 C   0  0  0  0  0  0  0  0  0  0  0  0
  140.5530   76.3560  218.2990 C   0  0  0  0  0  0  0  0  0  0  0  0
  141.6580   77.2370  218.9140 C   0  0  0  0  0  0  0  0  0  0  0  0
  142.3890   76.5700  220.0860 C   0  0  0  0  0  0  0  0  0  0  0  0
  141.4150   75.8700  221.0520 C   0  0  1  0  0  0  0  0  0  0  0  0
  140.6270   76.8940  221.8560 C   0  0  0  0  0  0  0  0  0  0  0  0
  141.3150   77.9540  222.4740 C   0  0  0  0  0  0  0  0  0  0  0  0
  140.6230   78.9080  223.2250 C   0  0  0  0  0  0  0  0  0  0  0  0
  139.2360   78.8200  223.3620 C   0  0  0  0  0  0  0  0  0  0  0  0
  138.5390   77.7740  222.7530 C   0  0  0  0  0  0  0  0  0  0  0  0
  139.2270   76.8150  222.0020 C   0  0  0  0  0  0  0  0  0  0  0  0
  139.1930   73.3540  222.9690 H   0  0  0  0  0  0  0  0  0  0  0  0
  139.5240   72.6955  219.2543 H   0  0  0  0  0  0  0  0  0  0  0  0
  137.3350   73.7020  223.1300 H   0  0  0  0  0  0  0  0  0  0  0  0
  137.3765   69.3158  222.5452 H   0  0  0  0  0  0  0  0  0  0  0  0
  138.1259   67.8334  224.4126 H   0  0  0  0  0  0  0  0  0  0  0  0
  139.3918   67.5452  226.5146 H   0  0  0  0  0  0  0  0  0  0  0  0
  141.6578   70.8745  228.1003 H   0  0  0  0  0  0  0  0  0  0  0  0
  140.9154   72.3027  226.1932 H   0  0  0  0  0  0  0  0  0  0  0  0
  141.3941   74.3756  218.4859 H   0  0  0  0  0  0  0  0  0  0  0  0
  139.5840   74.4490  218.5223 H   0  0  0  0  0  0  0  0  0  0  0  0
  140.7184   76.3003  217.2129 H   0  0  0  0  0  0  0  0  0  0  0  0
  139.5910   76.8238  218.5553 H   0  0  0  0  0  0  0  0  0  0  0  0
  142.3946   77.4694  218.1308 H   0  0  0  0  0  0  0  0  0  0  0  0
  141.1702   78.1407  219.3083 H   0  0  0  0  0  0  0  0  0  0  0  0
  143.0914   75.8232  219.6873 H   0  0  0  0  0  0  0  0  0  0  0  0
  142.9176   77.3549  220.6469 H   0  0  0  0  0  0  0  0  0  0  0  0
  142.0006   75.2754  221.7686 H   0  0  0  0  0  0  0  0  0  0  0  0
  142.4068   78.0326  222.3652 H   0  0  0  0  0  0  0  0  0  0  0  0
  141.1716   79.7295  223.7090 H   0  0  0  0  0  0  0  0  0  0  0  0
  138.6924   79.5745  223.9496 H   0  0  0  0  0  0  0  0  0  0  0  0
  137.4469   77.7041  222.8641 H   0  0  0  0  0  0  0  0  0  0  0  0
  138.6725   75.9947  221.5227 H   0  0  0  0  0  0  0  0  0  0  0  0
  1  2  1  0
  2  3  2  0
  3  4  1  0
  4  5  2  0
  5  6  1  0
  5  7  1  0
  7  8  2  0
  8  9  1  0
  9 10  2  0
 10 11  1  0
 11 12  2  0
 12 13  1  0
 12 14  1  0
 14 15  2  0
 15 16  1  0
 16 17  2  0
  2 18  1  0
 18 19  1  0
 19 20  1  0
 20 21  1  0
 21 22  1  0
 22 23  1  0
 23 24  1  0
 24 25  2  0
 25 26  1  0
 26 27  2  0
 27 28  1  0
 28 29  2  0
 17  7  1  0
 23 18  1  0
 29 24  1  0
 16 10  1  0
  1 30  1  0
  3 31  1  0
  6 32  1  0
  8 33  1  0
  9 34  1  0
 11 35  1  0
 14 36  1  0
 15 37  1  0
 19 38  1  0
 19 39  1  0
 20 40  1  0
 20 41  1  0
 21 42  1  0
 21 43  1  0
 22 44  1  0
 22 45  1  0
 23 46  1  1
 25 47  1  0
 26 48  1  0
 27 49  1  0
 28 50  1  0
 29 51  1  0
M  END
>  <meeko>  (11) 
{"free_energy": -7.72, "intermolecular_energy": -10.1, "internal_energy": -2.3, "cluster_size": 7, "cluster_id": 1, "rank_in_cluster": 5}

$$$$

     RDKit          3D

 51 54  0  0  0  0  0  0  0  0999 V2000
  140.1140   74.1320  222.3330 O   0  0  0  0  0  0  0  0  0  0  0  0
  140.5430   73.8970  221.0210 C   0  0  0  0  0  0  0  0  0  0  0  0
  140.2700   72.7210  220.4310 C   0  0  0  0  0  0  0  0  0  0  0  0
  139.2690   71.8380  220.9540 N   0  0  0  0  0  0  0  0  0  0  0  0
  138.7160   71.9390  222.1310 C   0  0  0  0  0  0  0  0  0  0  0  0
  137.7570   72.9230  222.3490 O   0  0  0  0  0  0  0  0  0  0  0  0
  139.0610   71.0410  223.2510 C   0  0  0  0  0  0  0  0  0  0  0  0
  138.7320   69.6760  223.2090 C   0  0  0  0  0  0  0  0  0  0  0  0
  139.0680   68.8520  224.2830 C   0  0  0  0  0  0  0  0  0  0  0  0
  139.7290   69.3910  225.3930 C   0  0  0  0  0  0  0  0  0  0  0  0
  140.0630   68.5950  226.4980 C   0  0  0  0  0  0  0  0  0  0  0  0
  140.7270   69.1630  227.5920 C   0  0  0  0  0  0  0  0  0  0  0  0
  141.1400   68.1680  228.9770 Cl  0  0  0  0  0  0  0  0  0  0  0  0
  141.0640   70.5210  227.5820 C   0  0  0  0  0  0  0  0  0  0  0  0
  140.7370   71.3190  226.4820 C   0  0  0  0  0  0  0  0  0  0  0  0
  140.0660   70.7630  225.3890 C   0  0  0  0  0  0  0  0  0  0  0  0
  139.7310   71.5410  224.3230 N   0  0  0  0  0  0  0  0  0  0  0  0
  141.2890   74.9370  220.3340 N   0  0  0  0  0  0  0  0  0  0  0  0
  140.9590   76.3410  220.6390 C   0  0  0  0  0  0  0  0  0  0  0  0
  142.1670   77.2650  220.4300 C   0  0  0  0  0  0  0  0  0  0  0  0
  142.8720   77.0700  219.0730 C   0  0  0  0  0  0  0  0  0  0  0  0
  142.3380   75.8740  218.2740 C   0  0  0  0  0  0  0  0  0  0  0  0
  142.1400   74.6300  219.1590 C   0  0  1  0  0  0  0  0  0  0  0  0
  143.4820   74.0320  219.5550 C   0  0  0  0  0  0  0  0  0  0  0  0
  144.2050   73.2870  218.6060 C   0  0  0  0  0  0  0  0  0  0  0  0
  145.4380   72.7180  218.9370 C   0  0  0  0  0  0  0  0  0  0  0  0
  145.9670   72.8930  220.2170 C   0  0  0  0  0  0  0  0  0  0  0  0
  145.2620   73.6310  221.1700 C   0  0  0  0  0  0  0  0  0  0  0  0
  144.0270   74.2000  220.8440 C   0  0  0  0  0  0  0  0  0  0  0  0
  139.7990   73.3980  222.9540 H   0  0  0  0  0  0  0  0  0  0  0  0
  140.8262   72.4297  219.5278 H   0  0  0  0  0  0  0  0  0  0  0  0
  138.0050   73.8110  222.7690 H   0  0  0  0  0  0  0  0  0  0  0  0
  138.2121   69.2592  222.3338 H   0  0  0  0  0  0  0  0  0  0  0  0
  138.8144   67.7819  224.2579 H   0  0  0  0  0  0  0  0  0  0  0  0
  139.8038   67.5260  226.5053 H   0  0  0  0  0  0  0  0  0  0  0  0
  141.5880   70.9621  228.4427 H   0  0  0  0  0  0  0  0  0  0  0  0
  141.0078   72.3851  226.4764 H   0  0  0  0  0  0  0  0  0  0  0  0
  140.1420   76.6670  219.9785 H   0  0  0  0  0  0  0  0  0  0  0  0
  140.6589   76.4016  221.6955 H   0  0  0  0  0  0  0  0  0  0  0  0
  141.8217   78.3074  220.4948 H   0  0  0  0  0  0  0  0  0  0  0  0
  142.9004   77.0152  221.2109 H   0  0  0  0  0  0  0  0  0  0  0  0
  142.7308   77.9810  218.4729 H   0  0  0  0  0  0  0  0  0  0  0  0
  143.9330   76.8710  219.2844 H   0  0  0  0  0  0  0  0  0  0  0  0
  141.3713   76.1490  217.8269 H   0  0  0  0  0  0  0  0  0  0  0  0
  143.0787   75.6252  217.4998 H   0  0  0  0  0  0  0  0  0  0  0  0
  141.6049   73.8677  218.5736 H   0  0  0  0  0  0  0  0  0  0  0  0
  143.7962   73.1509  217.5939 H   0  0  0  0  0  0  0  0  0  0  0  0
  145.9918   72.1321  218.1886 H   0  0  0  0  0  0  0  0  0  0  0  0
  146.9399   72.4492  220.4750 H   0  0  0  0  0  0  0  0  0  0  0  0
  145.6789   73.7650  222.1791 H   0  0  0  0  0  0  0  0  0  0  0  0
  143.4774   74.7823  221.5982 H   0  0  0  0  0  0  0  0  0  0  0  0
  1  2  1  0
  2  3  2  0
  3  4  1  0
  4  5  2  0
  5  6  1  0
  5  7  1  0
  7  8  2  0
  8  9  1  0
  9 10  2  0
 10 11  1  0
 11 12  2  0
 12 13  1  0
 12 14  1  0
 14 15  2  0
 15 16  1  0
 16 17  2  0
  2 18  1  0
 18 19  1  0
 19 20  1  0
 20 21  1  0
 21 22  1  0
 22 23  1  0
 23 24  1  0
 24 25  2  0
 25 26  1  0
 26 27  2  0
 27 28  1  0
 28 29  2  0
 17  7  1  0
 23 18  1  0
 29 24  1  0
 16 10  1  0
  1 30  1  0
  3 31  1  0
  6 32  1  0
  8 33  1  0
  9 34  1  0
 11 35  1  0
 14 36  1  0
 15 37  1  0
 19 38  1  0
 19 39  1  0
 20 40  1  0
 20 41  1  0
 21 42  1  0
 21 43  1  0
 22 44  1  0
 22 45  1  0
 23 46  1  6
 25 47  1  0
 26 48  1  0
 27 49  1  0
 28 50  1  0
 29 51  1  0
M  END
>  <meeko>  (12) 
{"free_energy": -8.05, "intermolecular_energy": -10.44, "internal_energy": -2.65, "cluster_size": 9, "cluster_id": 2, "rank_in_cluster": 4}

$$$$

     RDKit          3D

 51 54  0  0  0  0  0  0  0  0999 V2000
  139.3410   75.6020  222.7400 O   0  0  0  0  0  0  0  0  0  0  0  0
  140.4130   75.7880  221.8600 C   0  0  0  0  0  0  0  0  0  0  0  0
  140.9310   74.7330  221.2070 C   0  0  0  0  0  0  0  0  0  0  0  0
  140.8300   73.4050  221.7360 N   0  0  0  0  0  0  0  0  0  0  0  0
  139.7820   72.9100  222.3350 C   0  0  0  0  0  0  0  0  0  0  0  0
  138.5180   73.3810  221.9930 O   0  0  0  0  0  0  0  0  0  0  0  0
  139.8780   71.8560  223.3640 C   0  0  0  0  0  0  0  0  0  0  0  0
  139.4820   70.5380  223.0870 C   0  0  0  0  0  0  0  0  0  0  0  0
  139.5810   69.5630  224.0800 C   0  0  0  0  0  0  0  0  0  0  0  0
  140.0740   69.9070  225.3440 C   0  0  0  0  0  0  0  0  0  0  0  0
  140.1680   68.9570  226.3720 C   0  0  0  0  0  0  0  0  0  0  0  0
  140.6680   69.3310  227.6250 C   0  0  0  0  0  0  0  0  0  0  0  0
  140.7800   68.1440  228.9110 Cl  0  0  0  0  0  0  0  0  0  0  0  0
  141.0810   70.6490  227.8520 C   0  0  0  0  0  0  0  0  0  0  0  0
  140.9930   71.6000  226.8320 C   0  0  0  0  0  0  0  0  0  0  0  0
  140.4860   71.2380  225.5790 C   0  0  0  0  0  0  0  0  0  0  0  0
  140.3840   72.1650  224.5880 N   0  0  0  0  0  0  0  0  0  0  0  0
  140.9490   77.1270  221.6850 N   0  0  0  0  0  0  0  0  0  0  0  0
  141.7280   77.4060  220.4660 C   0  0  0  0  0  0  0  0  0  0  0  0
  141.6420   78.8860  220.0670 C   0  0  0  0  0  0  0  0  0  0  0  0
  141.9260   79.8610  221.2260 C   0  0  0  0  0  0  0  0  0  0  0  0
  142.0650   79.1670  222.5870 C   0  0  0  0  0  0  0  0  0  0  0  0
  140.9770   78.0990  222.8040 C   0  0  1  0  0  0  0  0  0  0  0  0
  139.6230   78.7510  223.0420 C   0  0  0  0  0  0  0  0  0  0  0  0
  139.5460   79.8860  223.8700 C   0  0  0  0  0  0  0  0  0  0  0  0
  138.3180   80.5060  224.1140 C   0  0  0  0  0  0  0  0  0  0  0  0
  137.1530   80.0050  223.5300 C   0  0  0  0  0  0  0  0  0  0  0  0
  137.2130   78.8810  222.7040 C   0  0  0  0  0  0  0  0  0  0  0  0
  138.4400   78.2550  222.4580 C   0  0  0  0  0  0  0  0  0  0  0  0
  139.1730   74.7350  223.2350 H   0  0  0  0  0  0  0  0  0  0  0  0
  141.4430   74.8926  220.2466 H   0  0  0  0  0  0  0  0  0  0  0  0
  137.9630   73.9170  222.6500 H   0  0  0  0  0  0  0  0  0  0  0  0
  139.0953   70.2751  222.0913 H   0  0  0  0  0  0  0  0  0  0  0  0
  139.2728   68.5281  223.8704 H   0  0  0  0  0  0  0  0  0  0  0  0
  139.8492   67.9194  226.1937 H   0  0  0  0  0  0  0  0  0  0  0  0
  141.4764   70.9373  228.8372 H   0  0  0  0  0  0  0  0  0  0  0  0
  141.3224   72.6336  227.0141 H   0  0  0  0  0  0  0  0  0  0  0  0
  142.7812   77.1459  220.6480 H   0  0  0  0  0  0  0  0  0  0  0  0
  141.3108   76.8036  219.6456 H   0  0  0  0  0  0  0  0  0  0  0  0
  142.3756   79.0731  219.2690 H   0  0  0  0  0  0  0  0  0  0  0  0
  140.6078   79.0698  219.7404 H   0  0  0  0  0  0  0  0  0  0  0  0
  142.8628   80.3956  221.0101 H   0  0  0  0  0  0  0  0  0  0  0  0
  141.0648   80.5418  221.2955 H   0  0  0  0  0  0  0  0  0  0  0  0
  143.0520   78.6843  222.6403 H   0  0  0  0  0  0  0  0  0  0  0  0
  141.9525   79.9306  223.3707 H   0  0  0  0  0  0  0  0  0  0  0  0
  141.2250   77.5272  223.7104 H   0  0  0  0  0  0  0  0  0  0  0  0
  140.4608   80.2888  224.3293 H   0  0  0  0  0  0  0  0  0  0  0  0
  138.2690   81.3899  224.7670 H   0  0  0  0  0  0  0  0  0  0  0  0
  136.1874   80.4961  223.7208 H   0  0  0  0  0  0  0  0  0  0  0  0
  136.2940   78.4868  222.2457 H   0  0  0  0  0  0  0  0  0  0  0  0
  138.4816   77.3707  221.8051 H   0  0  0  0  0  0  0  0  0  0  0  0
  1  2  1  0
  2  3  2  0
  3  4  1  0
  4  5  2  0
  5  6  1  0
  5  7  1  0
  7  8  2  0
  8  9  1  0
  9 10  2  0
 10 11  1  0
 11 12  2  0
 12 13  1  0
 12 14  1  0
 14 15  2  0
 15 16  1  0
 16 17  2  0
  2 18  1  0
 18 19  1  0
 19 20  1  0
 20 21  1  0
 21 22  1  0
 22 23  1  0
 23 24  1  0
 24 25  2  0
 25 26  1  0
 26 27  2  0
 27 28  1  0
 28 29  2  0
 17  7  1  0
 23 18  1  0
 29 24  1  0
 16 10  1  0
  1 30  1  0
  3 31  1  0
  6 32  1  0
  8 33  1  0
  9 34  1  0
 11 35  1  0
 14 36  1  0
 15 37  1  0
 19 38  1  0
 19 39  1  0
 20 40  1  0
 20 41  1  0
 21 42  1  0
 21 43  1  0
 22 44  1  0
 22 45  1  0
 23 46  1  1
 25 47  1  0
 26 48  1  0
 27 49  1  0
 28 50  1  0
 29 51  1  0
M  END
>  <meeko>  (13) 
{"free_energy": -8.92, "intermolecular_energy": -11.3, "internal_energy": -2.08, "cluster_size": 7, "cluster_id": 1, "rank_in_cluster": 1}

$$$$

     RDKit          3D

 51 54  0  0  0  0  0  0  0  0999 V2000
  142.9510   77.6420  218.9530 O   0  0  0  0  0  0  0  0  0  0  0  0
  141.6390   77.5360  219.4280 C   0  0  0  0  0  0  0  0  0  0  0  0
  141.1320   76.3270  219.7230 C   0  0  0  0  0  0  0  0  0  0  0  0
  141.1920   75.7970  221.0540 N   0  0  0  0  0  0  0  0  0  0  0  0
  140.1620   75.5720  221.8210 C   0  0  0  0  0  0  0  0  0  0  0  0
  139.9540   74.2890  222.3190 O   0  0  0  0  0  0  0  0  0  0  0  0
  139.2020   76.6290  222.1970 C   0  0  0  0  0  0  0  0  0  0  0  0
  137.8300   76.4840  221.9370 C   0  0  0  0  0  0  0  0  0  0  0  0
  136.9470   77.5010  222.3000 C   0  0  0  0  0  0  0  0  0  0  0  0
  137.4360   78.6580  222.9190 C   0  0  0  0  0  0  0  0  0  0  0  0
  136.5790   79.7080  223.2780 C   0  0  0  0  0  0  0  0  0  0  0  0
  137.0980   80.8510  223.8990 C   0  0  0  0  0  0  0  0  0  0  0  0
  136.0260   82.1670  224.3430 Cl  0  0  0  0  0  0  0  0  0  0  0  0
  138.4680   80.9440  224.1670 C   0  0  0  0  0  0  0  0  0  0  0  0
  139.3270   79.9000  223.8140 C   0  0  0  0  0  0  0  0  0  0  0  0
  138.8200   78.7580  223.1860 C   0  0  0  0  0  0  0  0  0  0  0  0
  139.6550   77.7450  222.8270 N   0  0  0  0  0  0  0  0  0  0  0  0
  140.8510   78.7470  219.5780 N   0  0  0  0  0  0  0  0  0  0  0  0
  139.4440   78.7150  219.1410 C   0  0  0  0  0  0  0  0  0  0  0  0
  138.5840   79.7140  219.9270 C   0  0  0  0  0  0  0  0  0  0  0  0
  139.1840   81.1320  219.9970 C   0  0  0  0  0  0  0  0  0  0  0  0
  140.6020   81.2240  219.4190 C   0  0  0  0  0  0  0  0  0  0  0  0
  141.4890   80.0520  219.8760 C   0  0  1  0  0  0  0  0  0  0  0  0
  141.8550   80.1960  221.3460 C   0  0  0  0  0  0  0  0  0  0  0  0
  141.8240   81.4720  221.9370 C   0  0  0  0  0  0  0  0  0  0  0  0
  142.1600   81.6410  223.2830 C   0  0  0  0  0  0  0  0  0  0  0  0
  142.5240   80.5380  224.0570 C   0  0  0  0  0  0  0  0  0  0  0  0
  142.5590   79.2640  223.4850 C   0  0  0  0  0  0  0  0  0  0  0  0
  142.2250   79.0900  222.1380 C   0  0  0  0  0  0  0  0  0  0  0  0
  143.7650   77.5680  219.5510 H   0  0  0  0  0  0  0  0  0  0  0  0
  140.6612   75.7316  218.9269 H   0  0  0  0  0  0  0  0  0  0  0  0
  139.1600   74.0800  222.9130 H   0  0  0  0  0  0  0  0  0  0  0  0
  137.4532   75.5728  221.4494 H   0  0  0  0  0  0  0  0  0  0  0  0
  135.8705   77.3945  222.1007 H   0  0  0  0  0  0  0  0  0  0  0  0
  135.5009   79.6342  223.0723 H   0  0  0  0  0  0  0  0  0  0  0  0
  138.8705   81.8425  224.6576 H   0  0  0  0  0  0  0  0  0  0  0  0
  140.4028   79.9765  224.0302 H   0  0  0  0  0  0  0  0  0  0  0  0
  139.3968   78.9678  218.0715 H   0  0  0  0  0  0  0  0  0  0  0  0
  139.0504   77.7043  219.3242 H   0  0  0  0  0  0  0  0  0  0  0  0
  137.5980   79.7782  219.4435 H   0  0  0  0  0  0  0  0  0  0  0  0
  138.5232   79.3408  220.9600 H   0  0  0  0  0  0  0  0  0  0  0  0
  138.5323   81.8144  219.4316 H   0  0  0  0  0  0  0  0  0  0  0  0
  139.2492   81.4043  221.0608 H   0  0  0  0  0  0  0  0  0  0  0  0
  140.5390   81.2144  218.3209 H   0  0  0  0  0  0  0  0  0  0  0  0
  141.0573   82.1566  219.7837 H   0  0  0  0  0  0  0  0  0  0  0  0
  142.4272   80.0814  219.3026 H   0  0  0  0  0  0  0  0  0  0  0  0
  141.5327   82.3448  221.3343 H   0  0  0  0  0  0  0  0  0  0  0  0
  142.1376   82.6445  223.7330 H   0  0  0  0  0  0  0  0  0  0  0  0
  142.7833   80.6719  225.1176 H   0  0  0  0  0  0  0  0  0  0  0  0
  142.8498   78.3961  224.0951 H   0  0  0  0  0  0  0  0  0  0  0  0
  142.2512   78.0840  221.6939 H   0  0  0  0  0  0  0  0  0  0  0  0
  1  2  1  0
  2  3  2  0
  3  4  1  0
  4  5  2  0
  5  6  1  0
  5  7  1  0
  7  8  2  0
  8  9  1  0
  9 10  2  0
 10 11  1  0
 11 12  2  0
 12 13  1  0
 12 14  1  0
 14 15  2  0
 15 16  1  0
 16 17  2  0
  2 18  1  0
 18 19  1  0
 19 20  1  0
 20 21  1  0
 21 22  1  0
 22 23  1  0
 23 24  1  0
 24 25  2  0
 25 26  1  0
 26 27  2  0
 27 28  1  0
 28 29  2  0
 17  7  1  0
 23 18  1  0
 29 24  1  0
 16 10  1  0
  1 30  1  0
  3 31  1  0
  6 32  1  0
  8 33  1  0
  9 34  1  0
 11 35  1  0
 14 36  1  0
 15 37  1  0
 19 38  1  0
 19 39  1  0
 20 40  1  0
 20 41  1  0
 21 42  1  0
 21 43  1  0
 22 44  1  0
 22 45  1  0
 23 46  1  6
 25 47  1  0
 26 48  1  0
 27 49  1  0
 28 50  1  0
 29 51  1  0
M  END
>  <meeko>  (14) 
{"free_energy": -6.62, "intermolecular_energy": -9.01, "internal_energy": -3.07, "cluster_size": 3, "cluster_id": 3, "rank_in_cluster": 2}

$$$$

     RDKit          3D

 51 54  0  0  0  0  0  0  0  0999 V2000
  142.8750   77.6860  218.9490 O   0  0  0  0  0  0  0  0  0  0  0  0
  141.5630   77.6030  219.4290 C   0  0  0  0  0  0  0  0  0  0  0  0
  141.0300   76.4020  219.7110 C   0  0  0  0  0  0  0  0  0  0  0  0
  141.1360   75.8280  221.0200 N   0  0  0  0  0  0  0  0  0  0  0  0
  140.1350   75.5970  221.8250 C   0  0  0  0  0  0  0  0  0  0  0  0
  139.9570   74.3160  222.3370 O   0  0  0  0  0  0  0  0  0  0  0  0
  139.1800   76.6480  222.2260 C   0  0  0  0  0  0  0  0  0  0  0  0
  137.8010   76.4920  222.0090 C   0  0  0  0  0  0  0  0  0  0  0  0
  136.9220   77.5030  222.3950 C   0  0  0  0  0  0  0  0  0  0  0  0
  137.4200   78.6650  222.9970 C   0  0  0  0  0  0  0  0  0  0  0  0
  136.5670   79.7100  223.3790 C   0  0  0  0  0  0  0  0  0  0  0  0
  137.0940   80.8590  223.9810 C   0  0  0  0  0  0  0  0  0  0  0  0
  136.0270   82.1670  224.4540 Cl  0  0  0  0  0  0  0  0  0  0  0  0
  138.4720   80.9630  224.2070 C   0  0  0  0  0  0  0  0  0  0  0  0
  139.3280   79.9240  223.8310 C   0  0  0  0  0  0  0  0  0  0  0  0
  138.8110   78.7770  223.2220 C   0  0  0  0  0  0  0  0  0  0  0  0
  139.6430   77.7700  222.8400 N   0  0  0  0  0  0  0  0  0  0  0  0
  140.8040   78.8300  219.6000 N   0  0  0  0  0  0  0  0  0  0  0  0
  139.3960   78.8380  219.1640 C   0  0  0  0  0  0  0  0  0  0  0  0
  138.5610   79.8450  219.9680 C   0  0  0  0  0  0  0  0  0  0  0  0
  139.1940   81.2460  220.0610 C   0  0  0  0  0  0  0  0  0  0  0  0
  140.6140   81.3150  219.4830 C   0  0  0  0  0  0  0  0  0  0  0  0
  141.4730   80.1140  219.9200 C   0  0  1  0  0  0  0  0  0  0  0  0
  141.8440   80.2250  221.3910 C   0  0  0  0  0  0  0  0  0  0  0  0
  141.8140   81.4880  222.0110 C   0  0  0  0  0  0  0  0  0  0  0  0
  142.1530   81.6270  223.3590 C   0  0  0  0  0  0  0  0  0  0  0  0
  142.5210   80.5070  224.1070 C   0  0  0  0  0  0  0  0  0  0  0  0
  142.5540   79.2460  223.5070 C   0  0  0  0  0  0  0  0  0  0  0  0
  142.2160   79.1020  222.1580 C   0  0  0  0  0  0  0  0  0  0  0  0
  143.6790   77.8130  219.5510 H   0  0  0  0  0  0  0  0  0  0  0  0
  140.5016   75.8482  218.9210 H   0  0  0  0  0  0  0  0  0  0  0  0
  139.1520   74.0890  222.9100 H   0  0  0  0  0  0  0  0  0  0  0  0
  137.4163   75.5761  221.5366 H   0  0  0  0  0  0  0  0  0  0  0  0
  135.8409   77.3882  222.2272 H   0  0  0  0  0  0  0  0  0  0  0  0
  135.4839   79.6272  223.2058 H   0  0  0  0  0  0  0  0  0  0  0  0
  138.8825   81.8660  224.6824 H   0  0  0  0  0  0  0  0  0  0  0  0
  140.4093   80.0090  224.0145 H   0  0  0  0  0  0  0  0  0  0  0  0
  139.3537   79.1091  218.0988 H   0  0  0  0  0  0  0  0  0  0  0  0
  138.9785   77.8341  219.3308 H   0  0  0  0  0  0  0  0  0  0  0  0
  137.5764   79.9409  219.4870 H   0  0  0  0  0  0  0  0  0  0  0  0
  138.4930   79.4562  220.9947 H   0  0  0  0  0  0  0  0  0  0  0  0
  138.5581   81.9529  219.5079 H   0  0  0  0  0  0  0  0  0  0  0  0
  139.2665   81.4984  221.1292 H   0  0  0  0  0  0  0  0  0  0  0  0
  140.5504   81.3255  218.3849 H   0  0  0  0  0  0  0  0  0  0  0  0
  141.0914   82.2305  219.8624 H   0  0  0  0  0  0  0  0  0  0  0  0
  142.4116   80.1300  219.3466 H   0  0  0  0  0  0  0  0  0  0  0  0
  141.5209   82.3740  221.4287 H   0  0  0  0  0  0  0  0  0  0  0  0
  142.1300   82.6200  223.8317 H   0  0  0  0  0  0  0  0  0  0  0  0
  142.7850   80.6176  225.1691 H   0  0  0  0  0  0  0  0  0  0  0  0
  142.8464   78.3648  224.0969 H   0  0  0  0  0  0  0  0  0  0  0  0
  142.2405   78.1059  221.6920 H   0  0  0  0  0  0  0  0  0  0  0  0
  1  2  1  0
  2  3  2  0
  3  4  1  0
  4  5  2  0
  5  6  1  0
  5  7  1  0
  7  8  2  0
  8  9  1  0
  9 10  2  0
 10 11  1  0
 11 12  2  0
 12 13  1  0
 12 14  1  0
 14 15  2  0
 15 16  1  0
 16 17  2  0
  2 18  1  0
 18 19  1  0
 19 20  1  0
 20 21  1  0
 21 22  1  0
 22 23  1  0
 23 24  1  0
 24 25  2  0
 25 26  1  0
 26 27  2  0
 27 28  1  0
 28 29  2  0
 17  7  1  0
 23 18  1  0
 29 24  1  0
 16 10  1  0
  1 30  1  0
  3 31  1  0
  6 32  1  0
  8 33  1  0
  9 34  1  0
 11 35  1  0
 14 36  1  0
 15 37  1  0
 19 38  1  0
 19 39  1  0
 20 40  1  0
 20 41  1  0
 21 42  1  0
 21 43  1  0
 22 44  1  0
 22 45  1  0
 23 46  1  6
 25 47  1  0
 26 48  1  0
 27 49  1  0
 28 50  1  0
 29 51  1  0
M  END
>  <meeko>  (15) 
{"free_energy": -6.64, "intermolecular_energy": -9.03, "internal_energy": -3.04, "cluster_size": 3, "cluster_id": 3, "rank_in_cluster": 1}

$$$$

     RDKit          3D

 51 54  0  0  0  0  0  0  0  0999 V2000
  142.0590   74.7370  220.4910 O   0  0  0  0  0  0  0  0  0  0  0  0
  140.9280   75.5600  220.5530 C   0  0  0  0  0  0  0  0  0  0  0  0
  139.8370   75.1460  221.2180 C   0  0  0  0  0  0  0  0  0  0  0  0
  139.9170   74.1250  222.2220 N   0  0  0  0  0  0  0  0  0  0  0  0
  140.2080   72.8720  222.0010 C   0  0  0  0  0  0  0  0  0  0  0  0
  140.5950   72.4800  220.7230 O   0  0  0  0  0  0  0  0  0  0  0  0
  140.1510   71.8450  223.0590 C   0  0  0  0  0  0  0  0  0  0  0  0
  139.6070   70.5760  222.8040 C   0  0  0  0  0  0  0  0  0  0  0  0
  139.5630   69.6260  223.8240 C   0  0  0  0  0  0  0  0  0  0  0  0
  140.0620   69.9440  225.0930 C   0  0  0  0  0  0  0  0  0  0  0  0
  140.0160   69.0200  226.1460 C   0  0  0  0  0  0  0  0  0  0  0  0
  140.5250   69.3670  227.4030 C   0  0  0  0  0  0  0  0  0  0  0  0
  140.4620   68.2120  228.7220 Cl  0  0  0  0  0  0  0  0  0  0  0  0
  141.0870   70.6320  227.6080 C   0  0  0  0  0  0  0  0  0  0  0  0
  141.1400   71.5570  226.5620 C   0  0  0  0  0  0  0  0  0  0  0  0
  140.6250   71.2230  225.3050 C   0  0  0  0  0  0  0  0  0  0  0  0
  140.6600   72.1260  224.2880 N   0  0  0  0  0  0  0  0  0  0  0  0
  140.9640   76.8470  219.8800 N   0  0  0  0  0  0  0  0  0  0  0  0
  140.1600   77.0090  218.6550 C   0  0  0  0  0  0  0  0  0  0  0  0
  139.7370   78.4710  218.4460 C   0  0  0  0  0  0  0  0  0  0  0  0
  140.8970   79.4780  218.5690 C   0  0  0  0  0  0  0  0  0  0  0  0
  142.2090   78.8430  219.0490 C   0  0  0  0  0  0  0  0  0  0  0  0
  141.9840   77.8680  220.2200 C   0  0  1  0  0  0  0  0  0  0  0  0
  141.6440   78.6280  221.4940 C   0  0  0  0  0  0  0  0  0  0  0  0
  140.3610   78.4840  222.0540 C   0  0  0  0  0  0  0  0  0  0  0  0
  140.0130   79.1710  223.2200 C   0  0  0  0  0  0  0  0  0  0  0  0
  140.9430   80.0030  223.8450 C   0  0  0  0  0  0  0  0  0  0  0  0
  142.2210   80.1550  223.3030 C   0  0  0  0  0  0  0  0  0  0  0  0
  142.5740   79.4710  222.1350 C   0  0  0  0  0  0  0  0  0  0  0  0
  142.1670   73.9010  221.0510 H   0  0  0  0  0  0  0  0  0  0  0  0
  138.8617   75.5995  220.9878 H   0  0  0  0  0  0  0  0  0  0  0  0
  140.7000   73.1580  219.9770 H   0  0  0  0  0  0  0  0  0  0  0  0
  139.2174   70.3323  221.8046 H   0  0  0  0  0  0  0  0  0  0  0  0
  139.1376   68.6299  223.6322 H   0  0  0  0  0  0  0  0  0  0  0  0
  139.5803   68.0229  225.9847 H   0  0  0  0  0  0  0  0  0  0  0  0
  141.4887   70.8993  228.5965 H   0  0  0  0  0  0  0  0  0  0  0  0
  141.5870   72.5484  226.7271 H   0  0  0  0  0  0  0  0  0  0  0  0
  140.7568   76.6829  217.7905 H   0  0  0  0  0  0  0  0  0  0  0  0
  139.2505   76.3987  218.7569 H   0  0  0  0  0  0  0  0  0  0  0  0
  139.3009   78.5655  217.4406 H   0  0  0  0  0  0  0  0  0  0  0  0
  139.0171   78.7130  219.2417 H   0  0  0  0  0  0  0  0  0  0  0  0
  141.0703   79.9321  217.5822 H   0  0  0  0  0  0  0  0  0  0  0  0
  140.6018   80.2218  219.3238 H   0  0  0  0  0  0  0  0  0  0  0  0
  142.6646   78.2936  218.2120 H   0  0  0  0  0  0  0  0  0  0  0  0
  142.8681   79.6502  219.4010 H   0  0  0  0  0  0  0  0  0  0  0  0
  142.9217   77.3242  220.4068 H   0  0  0  0  0  0  0  0  0  0  0  0
  139.6256   77.8248  221.5696 H   0  0  0  0  0  0  0  0  0  0  0  0
  139.0052   79.0559  223.6456 H   0  0  0  0  0  0  0  0  0  0  0  0
  140.6691   80.5395  224.7654 H   0  0  0  0  0  0  0  0  0  0  0  0
  142.9514   80.8138  223.7954 H   0  0  0  0  0  0  0  0  0  0  0  0
  143.5832   79.5917  221.7144 H   0  0  0  0  0  0  0  0  0  0  0  0
  1  2  1  0
  2  3  2  0
  3  4  1  0
  4  5  2  0
  5  6  1  0
  5  7  1  0
  7  8  2  0
  8  9  1  0
  9 10  2  0
 10 11  1  0
 11 12  2  0
 12 13  1  0
 12 14  1  0
 14 15  2  0
 15 16  1  0
 16 17  2  0
  2 18  1  0
 18 19  1  0
 19 20  1  0
 20 21  1  0
 21 22  1  0
 22 23  1  0
 23 24  1  0
 24 25  2  0
 25 26  1  0
 26 27  2  0
 27 28  1  0
 28 29  2  0
 17  7  1  0
 23 18  1  0
 29 24  1  0
 16 10  1  0
  1 30  1  0
  3 31  1  0
  6 32  1  0
  8 33  1  0
  9 34  1  0
 11 35  1  0
 14 36  1  0
 15 37  1  0
 19 38  1  0
 19 39  1  0
 20 40  1  0
 20 41  1  0
 21 42  1  0
 21 43  1  0
 22 44  1  0
 22 45  1  0
 23 46  1  1
 25 47  1  0
 26 48  1  0
 27 49  1  0
 28 50  1  0
 29 51  1  0
M  END
>  <meeko>  (16) 
{"free_energy": -7.18, "intermolecular_energy": -9.57, "internal_energy": -2.45, "cluster_size": 7, "cluster_id": 1, "rank_in_cluster": 7}

$$$$

     RDKit          3D

 51 54  0  0  0  0  0  0  0  0999 V2000
  140.0760   73.4000  222.7020 O   0  0  0  0  0  0  0  0  0  0  0  0
  139.7600   73.8750  221.4240 C   0  0  0  0  0  0  0  0  0  0  0  0
  138.7640   73.3030  220.7270 C   0  0  0  0  0  0  0  0  0  0  0  0
  138.0030   72.2160  221.2700 N   0  0  0  0  0  0  0  0  0  0  0  0
  138.3860   70.9700  221.3020 C   0  0  0  0  0  0  0  0  0  0  0  0
  138.4520   70.2480  220.1140 O   0  0  0  0  0  0  0  0  0  0  0  0
  138.7650   70.2870  222.5550 C   0  0  0  0  0  0  0  0  0  0  0  0
  138.4440   68.9360  222.7660 C   0  0  0  0  0  0  0  0  0  0  0  0
  138.8120   68.3180  223.9620 C   0  0  0  0  0  0  0  0  0  0  0  0
  139.4970   69.0480  224.9400 C   0  0  0  0  0  0  0  0  0  0  0  0
  139.8640   68.4640  226.1610 C   0  0  0  0  0  0  0  0  0  0  0  0
  140.5500   69.2190  227.1190 C   0  0  0  0  0  0  0  0  0  0  0  0
  141.0040   68.4890  228.6480 Cl  0  0  0  0  0  0  0  0  0  0  0  0
  140.8780   70.5550  226.8570 C   0  0  0  0  0  0  0  0  0  0  0  0
  140.5180   71.1430  225.6410 C   0  0  0  0  0  0  0  0  0  0  0  0
  139.8240   70.3990  224.6820 C   0  0  0  0  0  0  0  0  0  0  0  0
  139.4580   70.9720  223.5030 N   0  0  0  0  0  0  0  0  0  0  0  0
  140.5340   74.9770  220.8780 N   0  0  0  0  0  0  0  0  0  0  0  0
  140.1750   76.3450  221.2930 C   0  0  0  0  0  0  0  0  0  0  0  0
  141.3850   77.2890  221.2370 C   0  0  0  0  0  0  0  0  0  0  0  0
  142.1650   77.2220  219.9090 C   0  0  0  0  0  0  0  0  0  0  0  0
  141.6870   76.1040  218.9750 C   0  0  0  0  0  0  0  0  0  0  0  0
  141.4510   74.7830  219.7290 C   0  0  1  0  0  0  0  0  0  0  0  0
  142.7740   74.1550  220.1420 C   0  0  0  0  0  0  0  0  0  0  0  0
  143.9410   74.9400  220.1170 C   0  0  0  0  0  0  0  0  0  0  0  0
  145.1730   74.3940  220.4850 C   0  0  0  0  0  0  0  0  0  0  0  0
  145.2550   73.0590  220.8870 C   0  0  0  0  0  0  0  0  0  0  0  0
  144.1050   72.2670  220.9180 C   0  0  0  0  0  0  0  0  0  0  0  0
  142.8700   72.8090  220.5500 C   0  0  0  0  0  0  0  0  0  0  0  0
  139.4050   72.9440  223.3060 H   0  0  0  0  0  0  0  0  0  0  0  0
  138.5277   73.6761  219.7196 H   0  0  0  0  0  0  0  0  0  0  0  0
  139.2700   69.6970  219.8820 H   0  0  0  0  0  0  0  0  0  0  0  0
  137.9056   68.3682  221.9929 H   0  0  0  0  0  0  0  0  0  0  0  0
  138.5644   67.2604  224.1354 H   0  0  0  0  0  0  0  0  0  0  0  0
  139.6127   67.4128  226.3656 H   0  0  0  0  0  0  0  0  0  0  0  0
  141.4210   71.1439  227.6109 H   0  0  0  0  0  0  0  0  0  0  0  0
  140.7809   72.1917  225.4385 H   0  0  0  0  0  0  0  0  0  0  0  0
  139.3923   76.7278  220.6216 H   0  0  0  0  0  0  0  0  0  0  0  0
  139.8169   76.3063  222.3323 H   0  0  0  0  0  0  0  0  0  0  0  0
  141.0276   78.3198  221.3777 H   0  0  0  0  0  0  0  0  0  0  0  0
  142.0765   76.9712  222.0313 H   0  0  0  0  0  0  0  0  0  0  0  0
  142.0493   78.1840  219.3883 H   0  0  0  0  0  0  0  0  0  0  0  0
  143.2142   77.0073  220.1603 H   0  0  0  0  0  0  0  0  0  0  0  0
  140.7443   76.4158  218.5015 H   0  0  0  0  0  0  0  0  0  0  0  0
  142.4717   75.9305  218.2239 H   0  0  0  0  0  0  0  0  0  0  0  0
  140.9553   74.0765  219.0469 H   0  0  0  0  0  0  0  0  0  0  0  0
  143.8829   75.9932  219.8049 H   0  0  0  0  0  0  0  0  0  0  0  0
  146.0797   75.0163  220.4581 H   0  0  0  0  0  0  0  0  0  0  0  0
  146.2254   72.6313  221.1792 H   0  0  0  0  0  0  0  0  0  0  0  0
  144.1711   71.2150  221.2325 H   0  0  0  0  0  0  0  0  0  0  0  0
  141.9673   72.1811  220.5790 H   0  0  0  0  0  0  0  0  0  0  0  0
  1  2  1  0
  2  3  2  0
  3  4  1  0
  4  5  2  0
  5  6  1  0
  5  7  1  0
  7  8  2  0
  8  9  1  0
  9 10  2  0
 10 11  1  0
 11 12  2  0
 12 13  1  0
 12 14  1  0
 14 15  2  0
 15 16  1  0
 16 17  2  0
  2 18  1  0
 18 19  1  0
 19 20  1  0
 20 21  1  0
 21 22  1  0
 22 23  1  0
 23 24  1  0
 24 25  2  0
 25 26  1  0
 26 27  2  0
 27 28  1  0
 28 29  2  0
 17  7  1  0
 23 18  1  0
 29 24  1  0
 16 10  1  0
  1 30  1  0
  3 31  1  0
  6 32  1  0
  8 33  1  0
  9 34  1  0
 11 35  1  0
 14 36  1  0
 15 37  1  0
 19 38  1  0
 19 39  1  0
 20 40  1  0
 20 41  1  0
 21 42  1  0
 21 43  1  0
 22 44  1  0
 22 45  1  0
 23 46  1  6
 25 47  1  0
 26 48  1  0
 27 49  1  0
 28 50  1  0
 29 51  1  0
M  END
>  <meeko>  (17) 
{"free_energy": -7.36, "intermolecular_energy": -9.75, "internal_energy": -1.9, "cluster_size": 9, "cluster_id": 2, "rank_in_cluster": 8}

$$$$

     RDKit          3D

 51 54  0  0  0  0  0  0  0  0999 V2000
  142.6650   77.7810  219.2350 O   0  0  0  0  0  0  0  0  0  0  0  0
  141.2910   77.8180  219.4970 C   0  0  0  0  0  0  0  0  0  0  0  0
  140.5960   76.6700  219.5740 C   0  0  0  0  0  0  0  0  0  0  0  0
  140.7950   75.7480  220.6530 N   0  0  0  0  0  0  0  0  0  0  0  0
  139.9860   75.5840  221.6630 C   0  0  0  0  0  0  0  0  0  0  0  0
  139.9820   74.3690  222.3400 O   0  0  0  0  0  0  0  0  0  0  0  0
  139.0700   76.6450  222.1280 C   0  0  0  0  0  0  0  0  0  0  0  0
  137.6800   76.5170  221.9750 C   0  0  0  0  0  0  0  0  0  0  0  0
  136.8400   77.5370  222.4210 C   0  0  0  0  0  0  0  0  0  0  0  0
  137.3880   78.6780  223.0190 C   0  0  0  0  0  0  0  0  0  0  0  0
  136.5730   79.7310  223.4600 C   0  0  0  0  0  0  0  0  0  0  0  0
  137.1510   80.8580  224.0560 C   0  0  0  0  0  0  0  0  0  0  0  0
  136.1320   82.1770  224.6040 Cl  0  0  0  0  0  0  0  0  0  0  0  0
  138.5390   80.9330  224.2180 C   0  0  0  0  0  0  0  0  0  0  0  0
  139.3570   79.8870  223.7830 C   0  0  0  0  0  0  0  0  0  0  0  0
  138.7900   78.7600  223.1780 C   0  0  0  0  0  0  0  0  0  0  0  0
  139.5830   77.7460  222.7390 N   0  0  0  0  0  0  0  0  0  0  0  0
  140.6480   79.1090  219.6700 N   0  0  0  0  0  0  0  0  0  0  0  0
  139.2430   79.2430  219.2440 C   0  0  0  0  0  0  0  0  0  0  0  0
  138.5080   80.3230  220.0510 C   0  0  0  0  0  0  0  0  0  0  0  0
  139.2670   81.6620  220.1350 C   0  0  0  0  0  0  0  0  0  0  0  0
  140.6820   81.6000  219.5470 C   0  0  0  0  0  0  0  0  0  0  0  0
  141.4330   80.3280  219.9810 C   0  0  1  0  0  0  0  0  0  0  0  0
  141.8230   80.4080  221.4500 C   0  0  0  0  0  0  0  0  0  0  0  0
  142.2080   79.2330  222.1210 C   0  0  0  0  0  0  0  0  0  0  0  0
  142.5670   79.2700  223.4710 C   0  0  0  0  0  0  0  0  0  0  0  0
  142.5520   80.4810  224.1650 C   0  0  0  0  0  0  0  0  0  0  0  0
  142.1740   81.6560  223.5130 C   0  0  0  0  0  0  0  0  0  0  0  0
  141.8120   81.6240  222.1630 C   0  0  0  0  0  0  0  0  0  0  0  0
  143.3620   77.5990  219.9460 H   0  0  0  0  0  0  0  0  0  0  0  0
  139.8590   76.4333  218.7924 H   0  0  0  0  0  0  0  0  0  0  0  0
  139.1780   74.0740  222.8830 H   0  0  0  0  0  0  0  0  0  0  0  0
  137.2559   75.6170  221.5059 H   0  0  0  0  0  0  0  0  0  0  0  0
  135.7502   77.4453  222.3033 H   0  0  0  0  0  0  0  0  0  0  0  0
  135.4815   79.6712  223.3377 H   0  0  0  0  0  0  0  0  0  0  0  0
  138.9881   81.8194  224.6899 H   0  0  0  0  0  0  0  0  0  0  0  0
  140.4471   79.9496  223.9163 H   0  0  0  0  0  0  0  0  0  0  0  0
  139.2175   79.5144  218.1783 H   0  0  0  0  0  0  0  0  0  0  0  0
  138.7380   78.2812  219.4167 H   0  0  0  0  0  0  0  0  0  0  0  0
  137.5326   80.5065  219.5767 H   0  0  0  0  0  0  0  0  0  0  0  0
  138.4119   79.9444  221.0793 H   0  0  0  0  0  0  0  0  0  0  0  0
  138.6939   82.4224  219.5842 H   0  0  0  0  0  0  0  0  0  0  0  0
  139.3701   81.9096  221.2018 H   0  0  0  0  0  0  0  0  0  0  0  0
  140.6111   81.6132  218.4494 H   0  0  0  0  0  0  0  0  0  0  0  0
  141.2430   82.4693  219.9206 H   0  0  0  0  0  0  0  0  0  0  0  0
  142.3650   80.2586  219.4010 H   0  0  0  0  0  0  0  0  0  0  0  0
  142.2266   78.2765  221.5781 H   0  0  0  0  0  0  0  0  0  0  0  0
  142.8616   78.3443  223.9870 H   0  0  0  0  0  0  0  0  0  0  0  0
  142.8383   80.5095  225.2267 H   0  0  0  0  0  0  0  0  0  0  0  0
  142.1609   82.6089  224.0624 H   0  0  0  0  0  0  0  0  0  0  0  0
  141.5168   82.5534  221.6541 H   0  0  0  0  0  0  0  0  0  0  0  0
  1  2  1  0
  2  3  2  0
  3  4  1  0
  4  5  2  0
  5  6  1  0
  5  7  1  0
  7  8  2  0
  8  9  1  0
  9 10  2  0
 10 11  1  0
 11 12  2  0
 12 13  1  0
 12 14  1  0
 14 15  2  0
 15 16  1  0
 16 17  2  0
  2 18  1  0
 18 19  1  0
 19 20  1  0
 20 21  1  0
 21 22  1  0
 22 23  1  0
 23 24  1  0
 24 25  2  0
 25 26  1  0
 26 27  2  0
 27 28  1  0
 28 29  2  0
 17  7  1  0
 23 18  1  0
 29 24  1  0
 16 10  1  0
  1 30  1  0
  3 31  1  0
  6 32  1  0
  8 33  1  0
  9 34  1  0
 11 35  1  0
 14 36  1  0
 15 37  1  0
 19 38  1  0
 19 39  1  0
 20 40  1  0
 20 41  1  0
 21 42  1  0
 21 43  1  0
 22 44  1  0
 22 45  1  0
 23 46  1  6
 25 47  1  0
 26 48  1  0
 27 49  1  0
 28 50  1  0
 29 51  1  0
M  END
>  <meeko>  (18) 
{"free_energy": -6.59, "intermolecular_energy": -8.97, "internal_energy": -3.03, "cluster_size": 3, "cluster_id": 3, "rank_in_cluster": 3}

$$$$

     RDKit          3D

 51 54  0  0  0  0  0  0  0  0999 V2000
  139.9860   74.1330  222.3260 O   0  0  0  0  0  0  0  0  0  0  0  0
  140.4310   73.8300  221.0340 C   0  0  0  0  0  0  0  0  0  0  0  0
  140.1210   72.6450  220.4830 C   0  0  0  0  0  0  0  0  0  0  0  0
  139.0240   71.8600  220.9680 N   0  0  0  0  0  0  0  0  0  0  0  0
  138.4910   71.9630  222.1540 C   0  0  0  0  0  0  0  0  0  0  0  0
  137.5410   72.9520  222.3890 O   0  0  0  0  0  0  0  0  0  0  0  0
  138.8480   71.0610  223.2670 C   0  0  0  0  0  0  0  0  0  0  0  0
  138.4220   69.7230  223.2770 C   0  0  0  0  0  0  0  0  0  0  0  0
  138.7720   68.8950  224.3440 C   0  0  0  0  0  0  0  0  0  0  0  0
  139.5440   69.4030  225.3950 C   0  0  0  0  0  0  0  0  0  0  0  0
  139.8960   68.6040  226.4920 C   0  0  0  0  0  0  0  0  0  0  0  0
  140.6720   69.1410  227.5260 C   0  0  0  0  0  0  0  0  0  0  0  0
  141.1080   68.1420  228.9010 Cl  0  0  0  0  0  0  0  0  0  0  0  0
  141.1020   70.4710  227.4640 C   0  0  0  0  0  0  0  0  0  0  0  0
  140.7570   71.2730  226.3720 C   0  0  0  0  0  0  0  0  0  0  0  0
  139.9750   70.7480  225.3380 C   0  0  0  0  0  0  0  0  0  0  0  0
  139.6230   71.5290  224.2810 N   0  0  0  0  0  0  0  0  0  0  0  0
  141.2330   74.8120  220.3250 N   0  0  0  0  0  0  0  0  0  0  0  0
  140.9070   76.2370  220.5130 C   0  0  0  0  0  0  0  0  0  0  0  0
  142.1400   77.1300  220.3150 C   0  0  0  0  0  0  0  0  0  0  0  0
  142.9210   76.8340  219.0200 C   0  0  0  0  0  0  0  0  0  0  0  0
  142.4180   75.5930  218.2730 C   0  0  0  0  0  0  0  0  0  0  0  0
  142.1470   74.4150  219.2270 C   0  0  1  0  0  0  0  0  0  0  0  0
  143.4540   73.8300  219.7440 C   0  0  0  0  0  0  0  0  0  0  0  0
  144.3550   74.6660  220.4280 C   0  0  0  0  0  0  0  0  0  0  0  0
  145.5660   74.1620  220.9100 C   0  0  0  0  0  0  0  0  0  0  0  0
  145.8890   72.8170  220.7220 C   0  0  0  0  0  0  0  0  0  0  0  0
  145.0040   71.9740  220.0460 C   0  0  0  0  0  0  0  0  0  0  0  0
  143.7920   72.4730  219.5600 C   0  0  0  0  0  0  0  0  0  0  0  0
  139.5900   73.4440  222.9530 H   0  0  0  0  0  0  0  0  0  0  0  0
  140.7217   72.2689  219.6417 H   0  0  0  0  0  0  0  0  0  0  0  0
  137.8120   73.8660  222.7340 H   0  0  0  0  0  0  0  0  0  0  0  0
  137.8155   69.3297  222.4479 H   0  0  0  0  0  0  0  0  0  0  0  0
  138.4421   67.8458  224.3591 H   0  0  0  0  0  0  0  0  0  0  0  0
  139.5629   67.5567  226.5401 H   0  0  0  0  0  0  0  0  0  0  0  0
  141.7140   70.8873  228.2777 H   0  0  0  0  0  0  0  0  0  0  0  0
  141.1006   72.3170  226.3260 H   0  0  0  0  0  0  0  0  0  0  0  0
  140.1361   76.5260  219.7835 H   0  0  0  0  0  0  0  0  0  0  0  0
  140.5448   76.3740  221.5426 H   0  0  0  0  0  0  0  0  0  0  0  0
  141.8081   78.1784  220.2879 H   0  0  0  0  0  0  0  0  0  0  0  0
  142.8215   76.9256  221.1539 H   0  0  0  0  0  0  0  0  0  0  0  0
  142.8300   77.7032  218.3521 H   0  0  0  0  0  0  0  0  0  0  0  0
  143.9641   76.6374  219.3088 H   0  0  0  0  0  0  0  0  0  0  0  0
  141.4847   75.8478  217.7495 H   0  0  0  0  0  0  0  0  0  0  0  0
  143.2002   75.2830  217.5645 H   0  0  0  0  0  0  0  0  0  0  0  0
  141.6352   73.6212  218.6632 H   0  0  0  0  0  0  0  0  0  0  0  0
  144.1042   75.7255  220.5848 H   0  0  0  0  0  0  0  0  0  0  0  0
  146.2658   74.8262  221.4384 H   0  0  0  0  0  0  0  0  0  0  0  0
  146.8406   72.4210  221.1063 H   0  0  0  0  0  0  0  0  0  0  0  0
  145.2613   70.9151  219.8957 H   0  0  0  0  0  0  0  0  0  0  0  0
  143.0978   71.8035  219.0310 H   0  0  0  0  0  0  0  0  0  0  0  0
  1  2  1  0
  2  3  2  0
  3  4  1  0
  4  5  2  0
  5  6  1  0
  5  7  1  0
  7  8  2  0
  8  9  1  0
  9 10  2  0
 10 11  1  0
 11 12  2  0
 12 13  1  0
 12 14  1  0
 14 15  2  0
 15 16  1  0
 16 17  2  0
  2 18  1  0
 18 19  1  0
 19 20  1  0
 20 21  1  0
 21 22  1  0
 22 23  1  0
 23 24  1  0
 24 25  2  0
 25 26  1  0
 26 27  2  0
 27 28  1  0
 28 29  2  0
 17  7  1  0
 23 18  1  0
 29 24  1  0
 16 10  1  0
  1 30  1  0
  3 31  1  0
  6 32  1  0
  8 33  1  0
  9 34  1  0
 11 35  1  0
 14 36  1  0
 15 37  1  0
 19 38  1  0
 19 39  1  0
 20 40  1  0
 20 41  1  0
 21 42  1  0
 21 43  1  0
 22 44  1  0
 22 45  1  0
 23 46  1  6
 25 47  1  0
 26 48  1  0
 27 49  1  0
 28 50  1  0
 29 51  1  0
M  END
>  <meeko>  (19) 
{"free_energy": -8.35, "intermolecular_energy": -10.74, "internal_energy": -2.46, "cluster_size": 9, "cluster_id": 2, "rank_in_cluster": 3}

$$$$

     RDKit          3D

 51 54  0  0  0  0  0  0  0  0999 V2000
  139.4090   74.4370  219.7050 O   0  0  0  0  0  0  0  0  0  0  0  0
  140.7160   74.6810  220.1430 C   0  0  0  0  0  0  0  0  0  0  0  0
  141.0510   74.4230  221.4190 C   0  0  0  0  0  0  0  0  0  0  0  0
  140.1560   73.7320  222.3000 N   0  0  0  0  0  0  0  0  0  0  0  0
  139.7710   72.4930  222.1640 C   0  0  0  0  0  0  0  0  0  0  0  0
  139.2510   72.0740  220.9430 O   0  0  0  0  0  0  0  0  0  0  0  0
  139.8710   71.5050  223.2560 C   0  0  0  0  0  0  0  0  0  0  0  0
  139.4580   70.1770  223.0680 C   0  0  0  0  0  0  0  0  0  0  0  0
  139.5610   69.2660  224.1190 C   0  0  0  0  0  0  0  0  0  0  0  0
  140.0750   69.6820  225.3520 C   0  0  0  0  0  0  0  0  0  0  0  0
  140.1740   68.7980  226.4360 C   0  0  0  0  0  0  0  0  0  0  0  0
  140.6950   69.2440  227.6560 C   0  0  0  0  0  0  0  0  0  0  0  0
  140.8140   68.1390  229.0130 Cl  0  0  0  0  0  0  0  0  0  0  0  0
  141.1240   70.5690  227.7940 C   0  0  0  0  0  0  0  0  0  0  0  0
  141.0310   71.4550  226.7180 C   0  0  0  0  0  0  0  0  0  0  0  0
  140.5040   71.0210  225.4970 C   0  0  0  0  0  0  0  0  0  0  0  0
  140.3970   71.8850  224.4510 N   0  0  0  0  0  0  0  0  0  0  0  0
  141.6790   75.2230  219.2000 N   0  0  0  0  0  0  0  0  0  0  0  0
  141.5760   76.6520  218.8510 C   0  0  0  0  0  0  0  0  0  0  0  0
  142.9380   77.2350  218.4500 C   0  0  0  0  0  0  0  0  0  0  0  0
  143.6940   76.3910  217.4060 C   0  0  0  0  0  0  0  0  0  0  0  0
  143.0200   75.0460  217.1040 C   0  0  0  0  0  0  0  0  0  0  0  0
  142.5450   74.3370  218.3860 C   0  0  1  0  0  0  0  0  0  0  0  0
  143.7310   73.8010  219.1740 C   0  0  0  0  0  0  0  0  0  0  0  0
  144.3560   74.6330  220.1210 C   0  0  0  0  0  0  0  0  0  0  0  0
  145.4510   74.1750  220.8580 C   0  0  0  0  0  0  0  0  0  0  0  0
  145.9310   72.8780  220.6650 C   0  0  0  0  0  0  0  0  0  0  0  0
  145.3200   72.0390  219.7300 C   0  0  0  0  0  0  0  0  0  0  0  0
  144.2250   72.4940  218.9890 C   0  0  0  0  0  0  0  0  0  0  0  0
  138.6900   74.0420  220.2980 H   0  0  0  0  0  0  0  0  0  0  0  0
  142.0321   74.7488  221.7948 H   0  0  0  0  0  0  0  0  0  0  0  0
  139.6860   72.3430  220.0690 H   0  0  0  0  0  0  0  0  0  0  0  0
  139.0549   69.8561  222.0961 H   0  0  0  0  0  0  0  0  0  0  0  0
  139.2391   68.2235  223.9790 H   0  0  0  0  0  0  0  0  0  0  0  0
  139.8424   67.7548  226.3276 H   0  0  0  0  0  0  0  0  0  0  0  0
  141.5361   70.9142  228.7537 H   0  0  0  0  0  0  0  0  0  0  0  0
  141.3724   72.4946  226.8309 H   0  0  0  0  0  0  0  0  0  0  0  0
  140.8776   76.7643  218.0086 H   0  0  0  0  0  0  0  0  0  0  0  0
  141.2153   77.1972  219.7357 H   0  0  0  0  0  0  0  0  0  0  0  0
  142.7755   78.2394  218.0319 H   0  0  0  0  0  0  0  0  0  0  0  0
  143.5587   77.2516  219.3580 H   0  0  0  0  0  0  0  0  0  0  0  0
  143.7563   76.9672  216.4711 H   0  0  0  0  0  0  0  0  0  0  0  0
  144.6864   76.1693  217.8255 H   0  0  0  0  0  0  0  0  0  0  0  0
  142.1509   75.2227  216.4533 H   0  0  0  0  0  0  0  0  0  0  0  0
  143.7606   74.3981  216.6124 H   0  0  0  0  0  0  0  0  0  0  0  0
  141.9281   73.4728  218.0987 H   0  0  0  0  0  0  0  0  0  0  0  0
  143.9790   75.6536  220.2826 H   0  0  0  0  0  0  0  0  0  0  0  0
  145.9355   74.8368  221.5910 H   0  0  0  0  0  0  0  0  0  0  0  0
  146.7903   72.5169  221.2492 H   0  0  0  0  0  0  0  0  0  0  0  0
  145.7010   71.0186  219.5764 H   0  0  0  0  0  0  0  0  0  0  0  0
  143.7459   71.8274  218.2568 H   0  0  0  0  0  0  0  0  0  0  0  0
  1  2  1  0
  2  3  2  0
  3  4  1  0
  4  5  2  0
  5  6  1  0
  5  7  1  0
  7  8  2  0
  8  9  1  0
  9 10  2  0
 10 11  1  0
 11 12  2  0
 12 13  1  0
 12 14  1  0
 14 15  2  0
 15 16  1  0
 16 17  2  0
  2 18  1  0
 18 19  1  0
 19 20  1  0
 20 21  1  0
 21 22  1  0
 22 23  1  0
 23 24  1  0
 24 25  2  0
 25 26  1  0
 26 27  2  0
 27 28  1  0
 28 29  2  0
 17  7  1  0
 23 18  1  0
 29 24  1  0
 16 10  1  0
  1 30  1  0
  3 31  1  0
  6 32  1  0
  8 33  1  0
  9 34  1  0
 11 35  1  0
 14 36  1  0
 15 37  1  0
 19 38  1  0
 19 39  1  0
 20 40  1  0
 20 41  1  0
 21 42  1  0
 21 43  1  0
 22 44  1  0
 22 45  1  0
 23 46  1  6
 25 47  1  0
 26 48  1  0
 27 49  1  0
 28 50  1  0
 29 51  1  0
M  END
>  <meeko>  (20) 
{"free_energy": -7.17, "intermolecular_energy": -9.55, "internal_energy": -2.65, "cluster_size": 9, "cluster_id": 2, "rank_in_cluster": 9}

$$$$
