
     RDKit          3D

 51 54  0  0  0  0  0  0  0  0999 V2000
  138.3850   73.4450  222.1440 O   0  0  0  0  0  0  0  0  0  0  0  0
  139.6410   72.8820  222.3960 C   0  0  0  0  0  0  0  0  0  0  0  0
  140.7030   73.2240  221.7260 N   0  0  0  0  0  0  0  0  0  0  0  0
  141.2660   74.5320  221.5810 C   0  0  0  0  0  0  0  0  0  0  0  0
  140.4770   75.6040  221.7180 C   0  0  0  0  0  0  0  0  0  0  0  0
  139.5490   75.6740  222.7560 O   0  0  0  0  0  0  0  0  0  0  0  0
  140.5700   76.6940  220.7890 N   0  0  0  0  0  0  0  0  0  0  0  0
  139.4690   76.8770  219.8360 C   0  0  0  0  0  0  0  0  0  0  0  0
  139.5130   78.2640  219.2060 C   0  0  0  0  0  0  0  0  0  0  0  0
  140.8570   78.5180  218.5170 C   0  0  0  0  0  0  0  0  0  0  0  0
  142.0880   78.0480  219.3250 C   0  0  0  0  0  0  0  0  0  0  0  0
  141.7980   77.5120  220.7520 C   0  0  1  0  0  0  0  0  0  0  0  0
  141.7690   78.5800  221.8430 C   0  0  0  0  0  0  0  0  0  0  0  0
  142.1160   79.9020  221.5030 C   0  0  0  0  0  0  0  0  0  0  0  0
  142.1660   80.9030  222.4770 C   0  0  0  0  0  0  0  0  0  0  0  0
  141.8570   80.6030  223.8060 C   0  0  0  0  0  0  0  0  0  0  0  0
  141.4920   79.3020  224.1580 C   0  0  0  0  0  0  0  0  0  0  0  0
  141.4510   78.2950  223.1890 C   0  0  0  0  0  0  0  0  0  0  0  0
  139.7740   71.8380  223.4280 C   0  0  0  0  0  0  0  0  0  0  0  0
  139.4060   70.5070  223.1710 C   0  0  0  0  0  0  0  0  0  0  0  0
  139.5770   69.5390  224.1640 C   0  0  0  0  0  0  0  0  0  0  0  0
  140.1160   69.9000  225.4060 C   0  0  0  0  0  0  0  0  0  0  0  0
  140.3070   68.9520  226.4230 C   0  0  0  0  0  0  0  0  0  0  0  0
  140.8610   69.3430  227.6470 C   0  0  0  0  0  0  0  0  0  0  0  0
  141.1010   68.1590  228.9190 Cl  0  0  0  0  0  0  0  0  0  0  0  0
  141.2180   70.6810  227.8620 C   0  0  0  0  0  0  0  0  0  0  0  0
  141.0230   71.6320  226.8560 C   0  0  0  0  0  0  0  0  0  0  0  0
  140.4750   71.2470  225.6280 C   0  0  0  0  0  0  0  0  0  0  0  0
  140.2940   72.1670  224.6440 N   0  0  0  0  0  0  0  0  0  0  0  0
  137.9590   74.1530  222.7220 H   0  0  0  0  0  0  0  0  0  0  0  0
  142.3364   74.6547  221.3592 H   0  0  0  0  0  0  0  0  0  0  0  0
  139.2060   74.8430  223.2260 H   0  0  0  0  0  0  0  0  0  0  0  0
  139.5509   76.1194  219.0427 H   0  0  0  0  0  0  0  0  0  0  0  0
  138.5173   76.7692  220.3770 H   0  0  0  0  0  0  0  0  0  0  0  0
  138.7073   78.3455  218.4615 H   0  0  0  0  0  0  0  0  0  0  0  0
  139.3833   79.0120  220.0020 H   0  0  0  0  0  0  0  0  0  0  0  0
  140.8552   77.9876  217.5533 H   0  0  0  0  0  0  0  0  0  0  0  0
  140.9518   79.6083  218.4065 H   0  0  0  0  0  0  0  0  0  0  0  0
  142.5776   77.2439  218.7560 H   0  0  0  0  0  0  0  0  0  0  0  0
  142.7118   78.9432  219.4645 H   0  0  0  0  0  0  0  0  0  0  0  0
  142.6624   76.8734  220.9864 H   0  0  0  0  0  0  0  0  0  0  0  0
  142.3507   80.1498  220.4573 H   0  0  0  0  0  0  0  0  0  0  0  0
  142.4490   81.9284  222.1968 H   0  0  0  0  0  0  0  0  0  0  0  0
  141.9011   81.3899  224.5734 H   0  0  0  0  0  0  0  0  0  0  0  0
  141.2357   79.0684  225.2019 H   0  0  0  0  0  0  0  0  0  0  0  0
  141.1686   77.2718  223.4776 H   0  0  0  0  0  0  0  0  0  0  0  0
  138.9856   70.2283  222.1935 H   0  0  0  0  0  0  0  0  0  0  0  0
  139.2889   68.4951  223.9710 H   0  0  0  0  0  0  0  0  0  0  0  0
  140.0215   67.9026  226.2581 H   0  0  0  0  0  0  0  0  0  0  0  0
  141.6532   70.9840  228.8257 H   0  0  0  0  0  0  0  0  0  0  0  0
  141.3003   72.6822  227.0300 H   0  0  0  0  0  0  0  0  0  0  0  0
  1  2  1  0
  2  3  2  0
  3  4  1  0
  4  5  2  0
  5  6  1  0
  5  7  1  0
  7  8  1  0
  8  9  1  0
  9 10  1  0
 10 11  1  0
 11 12  1  0
 12 13  1  0
 13 14  2  0
 14 15  1  0
 15 16  2  0
 16 17  1  0
 17 18  2  0
  2 19  1  0
 19 20  2  0
 20 21  1  0
 21 22  2  0
 22 23  1  0
 23 24  2  0
 24 25  1  0
 24 26  1  0
 26 27  2  0
 27 28  1  0
 28 29  2  0
 12  7  1  0
 18 13  1  0
 29 19  1  0
 28 22  1  0
  1 30  1  0
  4 31  1  0
  6 32  1  0
  8 33  1  0
  8 34  1  0
  9 35  1  0
  9 36  1  0
 10 37  1  0
 10 38  1  0
 11 39  1  0
 11 40  1  0
 12 41  1  1
 14 42  1  0
 15 43  1  0
 16 44  1  0
 17 45  1  0
 18 46  1  0
 20 47  1  0
 21 48  1  0
 23 49  1  0
 26 50  1  0
 27 51  1  0
M  END
>  <meeko>  (1) 
{"free_energy": -8.66, "intermolecular_energy": -11.05, "internal_energy": -2.23, "cluster_size": 9, "cluster_id": 1, "rank_in_cluster": 1}

$$$$

     RDKit          3D

 51 54  0  0  0  0  0  0  0  0999 V2000
  138.2280   73.1370  222.1880 O   0  0  0  0  0  0  0  0  0  0  0  0
  139.4740   72.5310  222.3770 C   0  0  0  0  0  0  0  0  0  0  0  0
  140.4960   72.7890  221.6140 N   0  0  0  0  0  0  0  0  0  0  0  0
  141.1060   74.0600  221.3620 C   0  0  0  0  0  0  0  0  0  0  0  0
  140.4020   75.1770  221.5750 C   0  0  0  0  0  0  0  0  0  0  0  0
  139.5380   75.2760  222.6650 O   0  0  0  0  0  0  0  0  0  0  0  0
  140.5200   76.2890  220.6750 N   0  0  0  0  0  0  0  0  0  0  0  0
  139.5480   76.3900  219.5800 C   0  0  0  0  0  0  0  0  0  0  0  0
  139.5490   77.7860  218.9710 C   0  0  0  0  0  0  0  0  0  0  0  0
  140.9450   78.1740  218.4750 C   0  0  0  0  0  0  0  0  0  0  0  0
  142.0930   77.8020  219.4430 C   0  0  0  0  0  0  0  0  0  0  0  0
  141.6610   77.2150  220.8120 C   0  0  1  0  0  0  0  0  0  0  0  0
  141.3850   78.2550  221.8960 C   0  0  0  0  0  0  0  0  0  0  0  0
  140.0980   78.3100  222.4670 C   0  0  0  0  0  0  0  0  0  0  0  0
  139.7770   79.2840  223.4170 C   0  0  0  0  0  0  0  0  0  0  0  0
  140.7400   80.2100  223.8220 C   0  0  0  0  0  0  0  0  0  0  0  0
  142.0260   80.1590  223.2820 C   0  0  0  0  0  0  0  0  0  0  0  0
  142.3490   79.1940  222.3230 C   0  0  0  0  0  0  0  0  0  0  0  0
  139.6410   71.5360  223.4520 C   0  0  0  0  0  0  0  0  0  0  0  0
  139.3210   70.1840  223.2510 C   0  0  0  0  0  0  0  0  0  0  0  0
  139.5230   69.2650  224.2840 C   0  0  0  0  0  0  0  0  0  0  0  0
  140.0450   69.6960  225.5110 C   0  0  0  0  0  0  0  0  0  0  0  0
  140.2660   68.7990  226.5670 C   0  0  0  0  0  0  0  0  0  0  0  0
  140.8010   69.2610  227.7750 C   0  0  0  0  0  0  0  0  0  0  0  0
  141.0790   68.1400  229.0960 Cl  0  0  0  0  0  0  0  0  0  0  0  0
  141.1100   70.6190  227.9340 C   0  0  0  0  0  0  0  0  0  0  0  0
  140.8840   71.5190  226.8880 C   0  0  0  0  0  0  0  0  0  0  0  0
  140.3550   71.0640  225.6770 C   0  0  0  0  0  0  0  0  0  0  0  0
  140.1450   71.9340  224.6550 N   0  0  0  0  0  0  0  0  0  0  0  0
  137.8740   73.8890  222.7590 H   0  0  0  0  0  0  0  0  0  0  0  0
  142.1422   74.1169  220.9973 H   0  0  0  0  0  0  0  0  0  0  0  0
  139.2910   74.4700  223.2290 H   0  0  0  0  0  0  0  0  0  0  0  0
  139.8077   75.6582  218.8008 H   0  0  0  0  0  0  0  0  0  0  0  0
  138.5453   76.1864  219.9839 H   0  0  0  0  0  0  0  0  0  0  0  0
  138.8483   77.8079  218.1233 H   0  0  0  0  0  0  0  0  0  0  0  0
  139.2433   78.5040  219.7463 H   0  0  0  0  0  0  0  0  0  0  0  0
  141.1239   77.6640  217.5169 H   0  0  0  0  0  0  0  0  0  0  0  0
  140.9529   79.2703  218.3850 H   0  0  0  0  0  0  0  0  0  0  0  0
  142.7282   77.0567  218.9420 H   0  0  0  0  0  0  0  0  0  0  0  0
  142.6066   78.7472  219.6730 H   0  0  0  0  0  0  0  0  0  0  0  0
  142.5405   76.6524  221.1582 H   0  0  0  0  0  0  0  0  0  0  0  0
  139.3364   77.5774  222.1614 H   0  0  0  0  0  0  0  0  0  0  0  0
  138.7647   79.3208  223.8458 H   0  0  0  0  0  0  0  0  0  0  0  0
  140.4855   80.9792  224.5661 H   0  0  0  0  0  0  0  0  0  0  0  0
  142.7880   80.8804  223.6119 H   0  0  0  0  0  0  0  0  0  0  0  0
  143.3630   79.1662  221.8975 H   0  0  0  0  0  0  0  0  0  0  0  0
  138.9134   69.8499  222.2855 H   0  0  0  0  0  0  0  0  0  0  0  0
  139.2725   68.2044  224.1342 H   0  0  0  0  0  0  0  0  0  0  0  0
  140.0191   67.7340  226.4457 H   0  0  0  0  0  0  0  0  0  0  0  0
  141.5316   70.9778  228.8846 H   0  0  0  0  0  0  0  0  0  0  0  0
  141.1225   72.5849  227.0182 H   0  0  0  0  0  0  0  0  0  0  0  0
  1  2  1  0
  2  3  2  0
  3  4  1  0
  4  5  2  0
  5  6  1  0
  5  7  1  0
  7  8  1  0
  8  9  1  0
  9 10  1  0
 10 11  1  0
 11 12  1  0
 12 13  1  0
 13 14  2  0
 14 15  1  0
 15 16  2  0
 16 17  1  0
 17 18  2  0
  2 19  1  0
 19 20  2  0
 20 21  1  0
 21 22  2  0
 22 23  1  0
 23 24  2  0
 24 25  1  0
 24 26  1  0
 26 27  2  0
 27 28  1  0
 28 29  2  0
 12  7  1  0
 18 13  1  0
 29 19  1  0
 28 22  1  0
  1 30  1  0
  4 31  1  0
  6 32  1  0
  8 33  1  0
  8 34  1  0
  9 35  1  0
  9 36  1  0
 10 37  1  0
 10 38  1  0
 11 39  1  0
 11 40  1  0
 12 41  1  1
 14 42  1  0
 15 43  1  0
 16 44  1  0
 17 45  1  0
 18 46  1  0
 20 47  1  0
 21 48  1  0
 23 49  1  0
 26 50  1  0
 27 51  1  0
M  END
>  <meeko>  (2) 
{"free_energy": -8.51, "intermolecular_energy": -10.9, "internal_energy": -2.28, "cluster_size": 9, "cluster_id": 1, "rank_in_cluster": 2}

$$$$

     RDKit          3D

 51 54  0  0  0  0  0  0  0  0999 V2000
  138.2360   73.2150  222.1110 O   0  0  0  0  0  0  0  0  0  0  0  0
  139.5050   72.6690  222.3340 C   0  0  0  0  0  0  0  0  0  0  0  0
  140.5430   73.0100  221.6280 N   0  0  0  0  0  0  0  0  0  0  0  0
  141.1760   74.2930  221.5600 C   0  0  0  0  0  0  0  0  0  0  0  0
  140.4330   75.3980  221.6880 C   0  0  0  0  0  0  0  0  0  0  0  0
  139.4970   75.5090  222.7170 O   0  0  0  0  0  0  0  0  0  0  0  0
  140.5820   76.4830  220.7610 N   0  0  0  0  0  0  0  0  0  0  0  0
  139.5990   76.5960  219.6770 C   0  0  0  0  0  0  0  0  0  0  0  0
  139.6470   77.9770  219.0340 C   0  0  0  0  0  0  0  0  0  0  0  0
  141.0510   78.2970  218.5110 C   0  0  0  0  0  0  0  0  0  0  0  0
  142.1960   77.9020  219.4720 C   0  0  0  0  0  0  0  0  0  0  0  0
  141.7600   77.3650  220.8610 C   0  0  1  0  0  0  0  0  0  0  0  0
  141.5410   78.4400  221.9230 C   0  0  0  0  0  0  0  0  0  0  0  0
  140.2620   78.5680  222.5010 C   0  0  0  0  0  0  0  0  0  0  0  0
  139.9940   79.5770  223.4310 C   0  0  0  0  0  0  0  0  0  0  0  0
  141.0020   80.4660  223.8100 C   0  0  0  0  0  0  0  0  0  0  0  0
  142.2800   80.3430  223.2620 C   0  0  0  0  0  0  0  0  0  0  0  0
  142.5510   79.3420  222.3240 C   0  0  0  0  0  0  0  0  0  0  0  0
  139.6790   71.6430  223.3780 C   0  0  0  0  0  0  0  0  0  0  0  0
  139.3730   70.2950  223.1340 C   0  0  0  0  0  0  0  0  0  0  0  0
  139.5830   69.3460  224.1380 C   0  0  0  0  0  0  0  0  0  0  0  0
  140.0980   69.7440  225.3790 C   0  0  0  0  0  0  0  0  0  0  0  0
  140.3270   68.8170  226.4070 C   0  0  0  0  0  0  0  0  0  0  0  0
  140.8560   69.2460  227.6300 C   0  0  0  0  0  0  0  0  0  0  0  0
  141.1420   68.0870  228.9160 Cl  0  0  0  0  0  0  0  0  0  0  0  0
  141.1510   70.6010  227.8320 C   0  0  0  0  0  0  0  0  0  0  0  0
  140.9180   71.5310  226.8140 C   0  0  0  0  0  0  0  0  0  0  0  0
  140.3950   71.1080  225.5880 C   0  0  0  0  0  0  0  0  0  0  0  0
  140.1780   72.0080  224.5930 N   0  0  0  0  0  0  0  0  0  0  0  0
  137.8760   74.0200  222.6000 H   0  0  0  0  0  0  0  0  0  0  0  0
  142.2622   74.3690  221.4041 H   0  0  0  0  0  0  0  0  0  0  0  0
  139.2050   74.7070  223.2650 H   0  0  0  0  0  0  0  0  0  0  0  0
  139.8183   75.8360  218.9126 H   0  0  0  0  0  0  0  0  0  0  0  0
  138.5948   76.4419  220.0987 H   0  0  0  0  0  0  0  0  0  0  0  0
  138.9363   78.0069  218.1950 H   0  0  0  0  0  0  0  0  0  0  0  0
  139.3805   78.7248  219.7954 H   0  0  0  0  0  0  0  0  0  0  0  0
  141.1961   77.7581  217.5631 H   0  0  0  0  0  0  0  0  0  0  0  0
  141.1013   79.3897  218.3951 H   0  0  0  0  0  0  0  0  0  0  0  0
  142.7937   77.1200  218.9808 H   0  0  0  0  0  0  0  0  0  0  0  0
  142.7502   78.8308  219.6725 H   0  0  0  0  0  0  0  0  0  0  0  0
  142.6212   76.7760  221.2094 H   0  0  0  0  0  0  0  0  0  0  0  0
  139.4647   77.8654  222.2169 H   0  0  0  0  0  0  0  0  0  0  0  0
  138.9875   79.6707  223.8648 H   0  0  0  0  0  0  0  0  0  0  0  0
  140.7894   81.2618  224.5391 H   0  0  0  0  0  0  0  0  0  0  0  0
  143.0769   81.0362  223.5692 H   0  0  0  0  0  0  0  0  0  0  0  0
  143.5601   79.2563  221.8945 H   0  0  0  0  0  0  0  0  0  0  0  0
  138.9701   69.9873  222.1578 H   0  0  0  0  0  0  0  0  0  0  0  0
  139.3444   68.2880  223.9544 H   0  0  0  0  0  0  0  0  0  0  0  0
  140.0910   67.7538  226.2520 H   0  0  0  0  0  0  0  0  0  0  0  0
  141.5671   70.9341  228.7943 H   0  0  0  0  0  0  0  0  0  0  0  0
  141.1460   72.5946  226.9775 H   0  0  0  0  0  0  0  0  0  0  0  0
  1  2  1  0
  2  3  2  0
  3  4  1  0
  4  5  2  0
  5  6  1  0
  5  7  1  0
  7  8  1  0
  8  9  1  0
  9 10  1  0
 10 11  1  0
 11 12  1  0
 12 13  1  0
 13 14  2  0
 14 15  1  0
 15 16  2  0
 16 17  1  0
 17 18  2  0
  2 19  1  0
 19 20  2  0
 20 21  1  0
 21 22  2  0
 22 23  1  0
 23 24  2  0
 24 25  1  0
 24 26  1  0
 26 27  2  0
 27 28  1  0
 28 29  2  0
 12  7  1  0
 18 13  1  0
 29 19  1  0
 28 22  1  0
  1 30  1  0
  4 31  1  0
  6 32  1  0
  8 33  1  0
  8 34  1  0
  9 35  1  0
  9 36  1  0
 10 37  1  0
 10 38  1  0
 11 39  1  0
 11 40  1  0
 12 41  1  1
 14 42  1  0
 15 43  1  0
 16 44  1  0
 17 45  1  0
 18 46  1  0
 20 47  1  0
 21 48  1  0
 23 49  1  0
 26 50  1  0
 27 51  1  0
M  END
>  <meeko>  (3) 
{"free_energy": -8.33, "intermolecular_energy": -10.71, "internal_energy": -2.34, "cluster_size": 9, "cluster_id": 1, "rank_in_cluster": 5}

$$$$

     RDKit          3D

 51 54  0  0  0  0  0  0  0  0999 V2000
  138.8430   72.8090  220.9330 O   0  0  0  0  0  0  0  0  0  0  0  0
  139.8260   72.9130  221.9230 C   0  0  0  0  0  0  0  0  0  0  0  0
  140.7200   73.8590  221.9180 N   0  0  0  0  0  0  0  0  0  0  0  0
  140.5020   75.2740  221.9480 C   0  0  0  0  0  0  0  0  0  0  0  0
  139.6010   75.8160  221.1210 C   0  0  0  0  0  0  0  0  0  0  0  0
  139.2890   75.2010  219.9090 O   0  0  0  0  0  0  0  0  0  0  0  0
  138.9470   77.0460  221.4690 N   0  0  0  0  0  0  0  0  0  0  0  0
  137.7250   76.9660  222.2780 C   0  0  0  0  0  0  0  0  0  0  0  0
  137.3820   78.3200  222.8870 C   0  0  0  0  0  0  0  0  0  0  0  0
  137.2290   79.3930  221.8040 C   0  0  0  0  0  0  0  0  0  0  0  0
  138.3130   79.3450  220.7020 C   0  0  0  0  0  0  0  0  0  0  0  0
  139.4540   78.3170  220.9170 C   0  0  1  0  0  0  0  0  0  0  0  0
  140.6330   78.8310  221.7410 C   0  0  0  0  0  0  0  0  0  0  0  0
  140.8010   78.3480  223.0540 C   0  0  0  0  0  0  0  0  0  0  0  0
  141.8260   78.8340  223.8700 C   0  0  0  0  0  0  0  0  0  0  0  0
  142.7100   79.8000  223.3840 C   0  0  0  0  0  0  0  0  0  0  0  0
  142.5710   80.2760  222.0790 C   0  0  0  0  0  0  0  0  0  0  0  0
  141.5400   79.8010  221.2620 C   0  0  0  0  0  0  0  0  0  0  0  0
  139.8850   71.9040  222.9950 C   0  0  0  0  0  0  0  0  0  0  0  0
  139.4940   70.5750  222.7690 C   0  0  0  0  0  0  0  0  0  0  0  0
  139.5950   69.6390  223.8020 C   0  0  0  0  0  0  0  0  0  0  0  0
  140.0880   70.0310  225.0530 C   0  0  0  0  0  0  0  0  0  0  0  0
  140.2090   69.1160  226.1100 C   0  0  0  0  0  0  0  0  0  0  0  0
  140.7180   69.5380  227.3440 C   0  0  0  0  0  0  0  0  0  0  0  0
  140.8700   68.3940  228.6660 Cl  0  0  0  0  0  0  0  0  0  0  0  0
  141.1020   70.8730  227.5280 C   0  0  0  0  0  0  0  0  0  0  0  0
  140.9760   71.7910  226.4810 C   0  0  0  0  0  0  0  0  0  0  0  0
  140.4730   71.3760  225.2440 C   0  0  0  0  0  0  0  0  0  0  0  0
  140.3600   72.2640  224.2210 N   0  0  0  0  0  0  0  0  0  0  0  0
  138.1810   73.5390  220.7170 H   0  0  0  0  0  0  0  0  0  0  0  0
  141.0697   75.9089  222.6441 H   0  0  0  0  0  0  0  0  0  0  0  0
  139.5750   74.2500  219.7010 H   0  0  0  0  0  0  0  0  0  0  0  0
  136.8918   76.6377  221.6392 H   0  0  0  0  0  0  0  0  0  0  0  0
  137.8921   76.2476  223.0941 H   0  0  0  0  0  0  0  0  0  0  0  0
  136.4367   78.2341  223.4428 H   0  0  0  0  0  0  0  0  0  0  0  0
  138.2014   78.6173  223.5580 H   0  0  0  0  0  0  0  0  0  0  0  0
  136.2466   79.2628  221.3266 H   0  0  0  0  0  0  0  0  0  0  0  0
  137.3347   80.3654  222.3073 H   0  0  0  0  0  0  0  0  0  0  0  0
  137.8161   79.1026  219.7511 H   0  0  0  0  0  0  0  0  0  0  0  0
  138.7964   80.3330  220.7174 H   0  0  0  0  0  0  0  0  0  0  0  0
  139.8543   78.1373  219.9083 H   0  0  0  0  0  0  0  0  0  0  0  0
  140.1168   77.5788  223.4415 H   0  0  0  0  0  0  0  0  0  0  0  0
  141.9368   78.4552  224.8967 H   0  0  0  0  0  0  0  0  0  0  0  0
  143.5142   80.1850  224.0283 H   0  0  0  0  0  0  0  0  0  0  0  0
  143.2749   81.0274  221.6919 H   0  0  0  0  0  0  0  0  0  0  0  0
  141.4349   80.1866  220.2372 H   0  0  0  0  0  0  0  0  0  0  0  0
  139.1100   70.2717  221.7838 H   0  0  0  0  0  0  0  0  0  0  0  0
  139.2879   68.5964  223.6328 H   0  0  0  0  0  0  0  0  0  0  0  0
  139.9043   68.0685  225.9692 H   0  0  0  0  0  0  0  0  0  0  0  0
  141.5036   71.1996  228.4986 H   0  0  0  0  0  0  0  0  0  0  0  0
  141.2725   72.8397  226.6303 H   0  0  0  0  0  0  0  0  0  0  0  0
  1  2  1  0
  2  3  2  0
  3  4  1  0
  4  5  2  0
  5  6  1  0
  5  7  1  0
  7  8  1  0
  8  9  1  0
  9 10  1  0
 10 11  1  0
 11 12  1  0
 12 13  1  0
 13 14  2  0
 14 15  1  0
 15 16  2  0
 16 17  1  0
 17 18  2  0
  2 19  1  0
 19 20  2  0
 20 21  1  0
 21 22  2  0
 22 23  1  0
 23 24  2  0
 24 25  1  0
 24 26  1  0
 26 27  2  0
 27 28  1  0
 28 29  2  0
 12  7  1  0
 18 13  1  0
 29 19  1  0
 28 22  1  0
  1 30  1  0
  4 31  1  0
  6 32  1  0
  8 33  1  0
  8 34  1  0
  9 35  1  0
  9 36  1  0
 10 37  1  0
 10 38  1  0
 11 39  1  0
 11 40  1  0
 12 41  1  6
 14 42  1  0
 15 43  1  0
 16 44  1  0
 17 45  1  0
 18 46  1  0
 20 47  1  0
 21 48  1  0
 23 49  1  0
 26 50  1  0
 27 51  1  0
M  END
>  <meeko>  (4) 
{"free_energy": -7.35, "intermolecular_energy": -9.74, "internal_energy": -2.62, "cluster_size": 9, "cluster_id": 1, "rank_in_cluster": 9}

$$$$

     RDKit          3D

 51 54  0  0  0  0  0  0  0  0999 V2000
  137.6520   72.8320  222.4770 O   0  0  0  0  0  0  0  0  0  0  0  0
  138.7200   71.9400  222.3330 C   0  0  0  0  0  0  0  0  0  0  0  0
  139.4130   71.8550  221.2340 N   0  0  0  0  0  0  0  0  0  0  0  0
  140.4950   72.6920  220.8120 C   0  0  0  0  0  0  0  0  0  0  0  0
  140.5240   73.9720  221.2010 C   0  0  0  0  0  0  0  0  0  0  0  0
  139.8280   74.3850  222.3370 O   0  0  0  0  0  0  0  0  0  0  0  0
  141.2670   74.9410  220.4470 N   0  0  0  0  0  0  0  0  0  0  0  0
  141.0950   76.3560  220.7940 C   0  0  0  0  0  0  0  0  0  0  0  0
  142.2110   77.2070  220.2010 C   0  0  0  0  0  0  0  0  0  0  0  0
  142.2870   77.0410  218.6800 C   0  0  0  0  0  0  0  0  0  0  0  0
  142.1460   75.5820  218.1900 C   0  0  0  0  0  0  0  0  0  0  0  0
  142.0790   74.4970  219.2970 C   0  0  1  0  0  0  0  0  0  0  0  0
  143.4350   73.9740  219.7630 C   0  0  0  0  0  0  0  0  0  0  0  0
  143.7150   72.6000  219.6180 C   0  0  0  0  0  0  0  0  0  0  0  0
  144.9170   72.0610  220.0860 C   0  0  0  0  0  0  0  0  0  0  0  0
  145.8650   72.8860  220.6940 C   0  0  0  0  0  0  0  0  0  0  0  0
  145.6140   74.2530  220.8280 C   0  0  0  0  0  0  0  0  0  0  0  0
  144.4090   74.7960  220.3720 C   0  0  0  0  0  0  0  0  0  0  0  0
  139.0610   71.0320  223.4430 C   0  0  0  0  0  0  0  0  0  0  0  0
  138.7970   69.6550  223.3660 C   0  0  0  0  0  0  0  0  0  0  0  0
  139.1640   68.8210  224.4260 C   0  0  0  0  0  0  0  0  0  0  0  0
  139.7950   69.3610  225.5540 C   0  0  0  0  0  0  0  0  0  0  0  0
  140.1820   68.5520  226.6330 C   0  0  0  0  0  0  0  0  0  0  0  0
  140.8230   69.1220  227.7390 C   0  0  0  0  0  0  0  0  0  0  0  0
  141.3080   68.1110  229.0880 Cl  0  0  0  0  0  0  0  0  0  0  0  0
  141.0720   70.5010  227.7740 C   0  0  0  0  0  0  0  0  0  0  0  0
  140.6810   71.3140  226.7060 C   0  0  0  0  0  0  0  0  0  0  0  0
  140.0450   70.7500  225.5950 C   0  0  0  0  0  0  0  0  0  0  0  0
  139.6730   71.5370  224.5510 N   0  0  0  0  0  0  0  0  0  0  0  0
  137.7570   73.7950  222.7580 H   0  0  0  0  0  0  0  0  0  0  0  0
  141.2946   72.2870  220.1743 H   0  0  0  0  0  0  0  0  0  0  0  0
  139.5300   73.7290  223.0510 H   0  0  0  0  0  0  0  0  0  0  0  0
  140.1290   76.7069  220.4021 H   0  0  0  0  0  0  0  0  0  0  0  0
  141.1268   76.4530  221.8893 H   0  0  0  0  0  0  0  0  0  0  0  0
  142.0200   78.2642  220.4373 H   0  0  0  0  0  0  0  0  0  0  0  0
  143.1669   76.8787  220.6350 H   0  0  0  0  0  0  0  0  0  0  0  0
  141.4793   77.6354  218.2281 H   0  0  0  0  0  0  0  0  0  0  0  0
  143.2889   77.3790  218.3766 H   0  0  0  0  0  0  0  0  0  0  0  0
  141.2228   75.5141  217.5957 H   0  0  0  0  0  0  0  0  0  0  0  0
  143.0635   75.3698  217.6215 H   0  0  0  0  0  0  0  0  0  0  0  0
  141.5828   73.6420  218.8146 H   0  0  0  0  0  0  0  0  0  0  0  0
  142.9787   71.9440  219.1307 H   0  0  0  0  0  0  0  0  0  0  0  0
  145.1162   70.9849  219.9750 H   0  0  0  0  0  0  0  0  0  0  0  0
  146.8081   72.4599  221.0669 H   0  0  0  0  0  0  0  0  0  0  0  0
  146.3672   74.9052  221.2941 H   0  0  0  0  0  0  0  0  0  0  0  0
  144.2177   75.8730  220.4885 H   0  0  0  0  0  0  0  0  0  0  0  0
  138.3042   69.2351  222.4767 H   0  0  0  0  0  0  0  0  0  0  0  0
  138.9575   67.7418  224.3744 H   0  0  0  0  0  0  0  0  0  0  0  0
  139.9818   67.4706  226.6097 H   0  0  0  0  0  0  0  0  0  0  0  0
  141.5768   70.9450  228.6447 H   0  0  0  0  0  0  0  0  0  0  0  0
  140.8733   72.3965  226.7393 H   0  0  0  0  0  0  0  0  0  0  0  0
  1  2  1  0
  2  3  2  0
  3  4  1  0
  4  5  2  0
  5  6  1  0
  5  7  1  0
  7  8  1  0
  8  9  1  0
  9 10  1  0
 10 11  1  0
 11 12  1  0
 12 13  1  0
 13 14  2  0
 14 15  1  0
 15 16  2  0
 16 17  1  0
 17 18  2  0
  2 19  1  0
 19 20  2  0
 20 21  1  0
 21 22  2  0
 22 23  1  0
 23 24  2  0
 24 25  1  0
 24 26  1  0
 26 27  2  0
 27 28  1  0
 28 29  2  0
 12  7  1  0
 18 13  1  0
 29 19  1  0
 28 22  1  0
  1 30  1  0
  4 31  1  0
  6 32  1  0
  8 33  1  0
  8 34  1  0
  9 35  1  0
  9 36  1  0
 10 37  1  0
 10 38  1  0
 11 39  1  0
 11 40  1  0
 12 41  1  6
 14 42  1  0
 15 43  1  0
 16 44  1  0
 17 45  1  0
 18 46  1  0
 20 47  1  0
 21 48  1  0
 23 49  1  0
 26 50  1  0
 27 51  1  0
M  END
>  <meeko>  (5) 
{"free_energy": -8.51, "intermolecular_energy": -10.89, "internal_energy": -2.46, "cluster_size": 9, "cluster_id": 2, "rank_in_cluster": 3}

$$$$

     RDKit          3D

 51 54  0  0  0  0  0  0  0  0999 V2000
  139.6050   72.1390  220.7060 O   0  0  0  0  0  0  0  0  0  0  0  0
  139.7260   72.5730  222.0310 C   0  0  0  0  0  0  0  0  0  0  0  0
  139.8020   73.8340  222.3450 N   0  0  0  0  0  0  0  0  0  0  0  0
  140.5100   74.8700  221.6570 C   0  0  0  0  0  0  0  0  0  0  0  0
  140.3690   74.9920  220.3320 C   0  0  0  0  0  0  0  0  0  0  0  0
  139.1880   74.5950  219.7050 O   0  0  0  0  0  0  0  0  0  0  0  0
  141.4370   75.5250  219.5360 N   0  0  0  0  0  0  0  0  0  0  0  0
  141.5530   76.9850  219.4350 C   0  0  0  0  0  0  0  0  0  0  0  0
  142.9230   77.3920  218.9080 C   0  0  0  0  0  0  0  0  0  0  0  0
  143.2090   76.7450  217.5500 C   0  0  0  0  0  0  0  0  0  0  0  0
  142.8080   75.2540  217.4560 C   0  0  0  0  0  0  0  0  0  0  0  0
  142.2990   74.6050  218.7700 C   0  0  1  0  0  0  0  0  0  0  0  0
  143.3940   74.0220  219.6610 C   0  0  0  0  0  0  0  0  0  0  0  0
  144.4490   74.8610  220.0710 C   0  0  0  0  0  0  0  0  0  0  0  0
  145.5070   74.3600  220.8350 C   0  0  0  0  0  0  0  0  0  0  0  0
  145.5220   73.0170  221.2140 C   0  0  0  0  0  0  0  0  0  0  0  0
  144.4750   72.1750  220.8340 C   0  0  0  0  0  0  0  0  0  0  0  0
  143.4190   72.6680  220.0610 C   0  0  0  0  0  0  0  0  0  0  0  0
  139.8090   71.5780  223.1150 C   0  0  0  0  0  0  0  0  0  0  0  0
  139.4100   70.2470  222.9160 C   0  0  0  0  0  0  0  0  0  0  0  0
  139.5330   69.3250  223.9590 C   0  0  0  0  0  0  0  0  0  0  0  0
  140.0560   69.7330  225.1940 C   0  0  0  0  0  0  0  0  0  0  0  0
  140.1990   68.8330  226.2600 C   0  0  0  0  0  0  0  0  0  0  0  0
  140.7370   69.2700  227.4760 C   0  0  0  0  0  0  0  0  0  0  0  0
  140.9170   68.1440  228.8100 Cl  0  0  0  0  0  0  0  0  0  0  0  0
  141.1270   70.6070  227.6330 C   0  0  0  0  0  0  0  0  0  0  0  0
  140.9790   71.5110  226.5760 C   0  0  0  0  0  0  0  0  0  0  0  0
  140.4470   71.0800  225.3570 C   0  0  0  0  0  0  0  0  0  0  0  0
  140.3120   71.9540  224.3250 N   0  0  0  0  0  0  0  0  0  0  0  0
  140.0040   72.6220  219.9160 H   0  0  0  0  0  0  0  0  0  0  0  0
  141.1636   75.5592  222.2119 H   0  0  0  0  0  0  0  0  0  0  0  0
  138.5520   73.9290  220.1310 H   0  0  0  0  0  0  0  0  0  0  0  0
  140.7787   77.3602  218.7497 H   0  0  0  0  0  0  0  0  0  0  0  0
  141.4231   77.4157  220.4388 H   0  0  0  0  0  0  0  0  0  0  0  0
  142.9545   78.4860  218.7979 H   0  0  0  0  0  0  0  0  0  0  0  0
  143.6863   77.0518  219.6233 H   0  0  0  0  0  0  0  0  0  0  0  0
  142.6527   77.3002  216.7803 H   0  0  0  0  0  0  0  0  0  0  0  0
  144.2986   76.7870  217.4053 H   0  0  0  0  0  0  0  0  0  0  0  0
  142.0087   75.1667  216.7053 H   0  0  0  0  0  0  0  0  0  0  0  0
  143.7299   74.7137  217.1949 H   0  0  0  0  0  0  0  0  0  0  0  0
  141.6991   73.7452  218.4371 H   0  0  0  0  0  0  0  0  0  0  0  0
  144.4400   75.9235  219.7864 H   0  0  0  0  0  0  0  0  0  0  0  0
  146.3289   75.0253  221.1379 H   0  0  0  0  0  0  0  0  0  0  0  0
  146.3573   72.6224  221.8111 H   0  0  0  0  0  0  0  0  0  0  0  0
  144.4808   71.1196  221.1439 H   0  0  0  0  0  0  0  0  0  0  0  0
  142.6013   71.9956  219.7622 H   0  0  0  0  0  0  0  0  0  0  0  0
  139.0026   69.9313  221.9442 H   0  0  0  0  0  0  0  0  0  0  0  0
  139.2200   68.2809  223.8111 H   0  0  0  0  0  0  0  0  0  0  0  0
  139.8886   67.7845  226.1406 H   0  0  0  0  0  0  0  0  0  0  0  0
  141.5505   70.9462  228.5898 H   0  0  0  0  0  0  0  0  0  0  0  0
  141.2811   72.5609  226.7038 H   0  0  0  0  0  0  0  0  0  0  0  0
  1  2  1  0
  2  3  2  0
  3  4  1  0
  4  5  2  0
  5  6  1  0
  5  7  1  0
  7  8  1  0
  8  9  1  0
  9 10  1  0
 10 11  1  0
 11 12  1  0
 12 13  1  0
 13 14  2  0
 14 15  1  0
 15 16  2  0
 16 17  1  0
 17 18  2  0
  2 19  1  0
 19 20  2  0
 20 21  1  0
 21 22  2  0
 22 23  1  0
 23 24  2  0
 24 25  1  0
 24 26  1  0
 26 27  2  0
 27 28  1  0
 28 29  2  0
 12  7  1  0
 18 13  1  0
 29 19  1  0
 28 22  1  0
  1 30  1  0
  4 31  1  0
  6 32  1  0
  8 33  1  0
  8 34  1  0
  9 35  1  0
  9 36  1  0
 10 37  1  0
 10 38  1  0
 11 39  1  0
 11 40  1  0
 12 41  1  6
 14 42  1  0
 15 43  1  0
 16 44  1  0
 17 45  1  0
 18 46  1  0
 20 47  1  0
 21 48  1  0
 23 49  1  0
 26 50  1  0
 27 51  1  0
M  END
>  <meeko>  (6) 
{"free_energy": -7.3, "intermolecular_energy": -9.69, "internal_energy": -2.77, "cluster_size": 9, "cluster_id": 2, "rank_in_cluster": 8}

$$$$

     RDKit          3D

 51 54  0  0  0  0  0  0  0  0999 V2000
  137.6590   72.7940  222.5410 O   0  0  0  0  0  0  0  0  0  0  0  0
  138.7690   71.9560  222.3920 C   0  0  0  0  0  0  0  0  0  0  0  0
  139.4830   71.9350  221.3040 N   0  0  0  0  0  0  0  0  0  0  0  0
  140.6690   72.6850  221.0170 C   0  0  0  0  0  0  0  0  0  0  0  0
  140.6830   74.0020  221.2470 C   0  0  0  0  0  0  0  0  0  0  0  0
  139.9310   74.5500  222.2870 O   0  0  0  0  0  0  0  0  0  0  0  0
  141.4660   74.8740  220.4180 N   0  0  0  0  0  0  0  0  0  0  0  0
  141.3990   76.3150  220.6860 C   0  0  0  0  0  0  0  0  0  0  0  0
  142.5520   77.0520  220.0150 C   0  0  0  0  0  0  0  0  0  0  0  0
  142.5690   76.7960  218.5050 C   0  0  0  0  0  0  0  0  0  0  0  0
  142.3160   75.3240  218.1040 C   0  0  0  0  0  0  0  0  0  0  0  0
  142.2100   74.3110  219.2750 C   0  0  1  0  0  0  0  0  0  0  0  0
  143.5420   73.7230  219.7350 C   0  0  0  0  0  0  0  0  0  0  0  0
  144.4370   74.5490  220.4430 C   0  0  0  0  0  0  0  0  0  0  0  0
  145.6940   74.0770  220.8310 C   0  0  0  0  0  0  0  0  0  0  0  0
  146.0730   72.7670  220.5310 C   0  0  0  0  0  0  0  0  0  0  0  0
  145.1920   71.9270  219.8470 C   0  0  0  0  0  0  0  0  0  0  0  0
  143.9370   72.3980  219.4470 C   0  0  0  0  0  0  0  0  0  0  0  0
  139.1340   71.0340  223.4820 C   0  0  0  0  0  0  0  0  0  0  0  0
  138.9470   69.6480  223.3590 C   0  0  0  0  0  0  0  0  0  0  0  0
  139.3350   68.8030  224.4010 C   0  0  0  0  0  0  0  0  0  0  0  0
  139.9090   69.3420  225.5600 C   0  0  0  0  0  0  0  0  0  0  0  0
  140.3160   68.5220  226.6240 C   0  0  0  0  0  0  0  0  0  0  0  0
  140.8990   69.0910  227.7620 C   0  0  0  0  0  0  0  0  0  0  0  0
  141.4090   68.0660  229.0920 Cl  0  0  0  0  0  0  0  0  0  0  0  0
  141.0720   70.4790  227.8440 C   0  0  0  0  0  0  0  0  0  0  0  0
  140.6610   71.3020  226.7910 C   0  0  0  0  0  0  0  0  0  0  0  0
  140.0830   70.7400  225.6490 C   0  0  0  0  0  0  0  0  0  0  0  0
  139.6930   71.5370  224.6190 N   0  0  0  0  0  0  0  0  0  0  0  0
  137.7170   73.7650  222.8050 H   0  0  0  0  0  0  0  0  0  0  0  0
  141.5595   72.1825  220.6114 H   0  0  0  0  0  0  0  0  0  0  0  0
  139.2580   73.9990  222.8090 H   0  0  0  0  0  0  0  0  0  0  0  0
  140.4474   76.7085  220.2992 H   0  0  0  0  0  0  0  0  0  0  0  0
  141.4691   76.4720  221.7725 H   0  0  0  0  0  0  0  0  0  0  0  0
  142.4408   78.1315  220.1947 H   0  0  0  0  0  0  0  0  0  0  0  0
  143.4965   76.6831  220.4415 H   0  0  0  0  0  0  0  0  0  0  0  0
  141.7887   77.4178  218.0418 H   0  0  0  0  0  0  0  0  0  0  0  0
  143.5812   77.0472  218.1553 H   0  0  0  0  0  0  0  0  0  0  0  0
  141.3729   75.2859  217.5391 H   0  0  0  0  0  0  0  0  0  0  0  0
  143.1991   75.0174  217.5243 H   0  0  0  0  0  0  0  0  0  0  0  0
  141.6424   73.4666  218.8569 H   0  0  0  0  0  0  0  0  0  0  0  0
  144.1427   75.5788  220.6937 H   0  0  0  0  0  0  0  0  0  0  0  0
  146.3857   74.7384  221.3734 H   0  0  0  0  0  0  0  0  0  0  0  0
  147.0640   72.3974  220.8331 H   0  0  0  0  0  0  0  0  0  0  0  0
  145.4859   70.8912  219.6219 H   0  0  0  0  0  0  0  0  0  0  0  0
  143.2519   71.7307  218.9035 H   0  0  0  0  0  0  0  0  0  0  0  0
  138.4971   69.2297  222.4465 H   0  0  0  0  0  0  0  0  0  0  0  0
  139.1903   67.7162  224.3120 H   0  0  0  0  0  0  0  0  0  0  0  0
  140.1768   67.4325  226.5634 H   0  0  0  0  0  0  0  0  0  0  0  0
  141.5324   70.9224  228.7392 H   0  0  0  0  0  0  0  0  0  0  0  0
  140.7925   72.3919  226.8613 H   0  0  0  0  0  0  0  0  0  0  0  0
  1  2  1  0
  2  3  2  0
  3  4  1  0
  4  5  2  0
  5  6  1  0
  5  7  1  0
  7  8  1  0
  8  9  1  0
  9 10  1  0
 10 11  1  0
 11 12  1  0
 12 13  1  0
 13 14  2  0
 14 15  1  0
 15 16  2  0
 16 17  1  0
 17 18  2  0
  2 19  1  0
 19 20  2  0
 20 21  1  0
 21 22  2  0
 22 23  1  0
 23 24  2  0
 24 25  1  0
 24 26  1  0
 26 27  2  0
 27 28  1  0
 28 29  2  0
 12  7  1  0
 18 13  1  0
 29 19  1  0
 28 22  1  0
  1 30  1  0
  4 31  1  0
  6 32  1  0
  8 33  1  0
  8 34  1  0
  9 35  1  0
  9 36  1  0
 10 37  1  0
 10 38  1  0
 11 39  1  0
 11 40  1  0
 12 41  1  6
 14 42  1  0
 15 43  1  0
 16 44  1  0
 17 45  1  0
 18 46  1  0
 20 47  1  0
 21 48  1  0
 23 49  1  0
 26 50  1  0
 27 51  1  0
M  END
>  <meeko>  (7) 
{"free_energy": -8.59, "intermolecular_energy": -10.97, "internal_energy": -2.18, "cluster_size": 9, "cluster_id": 2, "rank_in_cluster": 1}

$$$$

     RDKit          3D

 51 54  0  0  0  0  0  0  0  0999 V2000
  139.9190   74.1960  222.3350 O   0  0  0  0  0  0  0  0  0  0  0  0
  140.1830   75.5160  221.9560 C   0  0  0  0  0  0  0  0  0  0  0  0
  141.2820   75.8580  221.3490 N   0  0  0  0  0  0  0  0  0  0  0  0
  141.4830   76.0690  219.9470 C   0  0  0  0  0  0  0  0  0  0  0  0
  141.8790   77.2720  219.5150 C   0  0  0  0  0  0  0  0  0  0  0  0
  143.1650   77.4550  219.0070 O   0  0  0  0  0  0  0  0  0  0  0  0
  140.9860   78.3940  219.5790 N   0  0  0  0  0  0  0  0  0  0  0  0
  139.5590   78.1470  219.3460 C   0  0  0  0  0  0  0  0  0  0  0  0
  138.7130   79.3180  219.8280 C   0  0  0  0  0  0  0  0  0  0  0  0
  139.1400   80.6250  219.1520 C   0  0  0  0  0  0  0  0  0  0  0  0
  140.6700   80.8240  219.0580 C   0  0  0  0  0  0  0  0  0  0  0  0
  141.5390   79.7500  219.7630 C   0  0  1  0  0  0  0  0  0  0  0  0
  141.8200   80.0220  221.2390 C   0  0  0  0  0  0  0  0  0  0  0  0
  141.6520   81.3330  221.7280 C   0  0  0  0  0  0  0  0  0  0  0  0
  141.9570   81.6470  223.0560 C   0  0  0  0  0  0  0  0  0  0  0  0
  142.4200   80.6540  223.9210 C   0  0  0  0  0  0  0  0  0  0  0  0
  142.5740   79.3460  223.4600 C   0  0  0  0  0  0  0  0  0  0  0  0
  142.2810   79.0280  222.1300 C   0  0  0  0  0  0  0  0  0  0  0  0
  139.2070   76.5720  222.2790 C   0  0  0  0  0  0  0  0  0  0  0  0
  137.8360   76.4010  222.0300 C   0  0  0  0  0  0  0  0  0  0  0  0
  136.9380   77.4130  222.3800 C   0  0  0  0  0  0  0  0  0  0  0  0
  137.4100   78.5890  222.9770 C   0  0  0  0  0  0  0  0  0  0  0  0
  136.5350   79.6230  223.3470 C   0  0  0  0  0  0  0  0  0  0  0  0
  137.0380   80.7790  223.9540 C   0  0  0  0  0  0  0  0  0  0  0  0
  135.9450   82.0720  224.4170 Cl  0  0  0  0  0  0  0  0  0  0  0  0
  138.4130   80.9100  224.1880 C   0  0  0  0  0  0  0  0  0  0  0  0
  139.2910   79.8870  223.8150 C   0  0  0  0  0  0  0  0  0  0  0  0
  138.7950   78.7260  223.2130 C   0  0  0  0  0  0  0  0  0  0  0  0
  139.6440   77.7260  222.8590 N   0  0  0  0  0  0  0  0  0  0  0  0
  139.1290   73.9180  222.8980 H   0  0  0  0  0  0  0  0  0  0  0  0
  141.3136   75.2503  219.2322 H   0  0  0  0  0  0  0  0  0  0  0  0
  143.9830   77.4610  219.6060 H   0  0  0  0  0  0  0  0  0  0  0  0
  139.3909   78.0021  218.2686 H   0  0  0  0  0  0  0  0  0  0  0  0
  139.2640   77.2487  219.9081 H   0  0  0  0  0  0  0  0  0  0  0  0
  137.6573   79.1196  219.5909 H   0  0  0  0  0  0  0  0  0  0  0  0
  138.8530   79.4254  220.9138 H   0  0  0  0  0  0  0  0  0  0  0  0
  138.7282   80.6355  218.1320 H   0  0  0  0  0  0  0  0  0  0  0  0
  138.7545   81.4432  219.7780 H   0  0  0  0  0  0  0  0  0  0  0  0
  140.9436   80.8323  217.9926 H   0  0  0  0  0  0  0  0  0  0  0  0
  140.8796   81.7674  219.5835 H   0  0  0  0  0  0  0  0  0  0  0  0
  142.5150   79.8126  219.2595 H   0  0  0  0  0  0  0  0  0  0  0  0
  141.2762   82.1191  221.0566 H   0  0  0  0  0  0  0  0  0  0  0  0
  141.8320   82.6777  223.4195 H   0  0  0  0  0  0  0  0  0  0  0  0
  142.6631   80.9023  224.9647 H   0  0  0  0  0  0  0  0  0  0  0  0
  142.9274   78.5617  224.1456 H   0  0  0  0  0  0  0  0  0  0  0  0
  142.4107   77.9950  221.7749 H   0  0  0  0  0  0  0  0  0  0  0  0
  137.4704   75.4752  221.5618 H   0  0  0  0  0  0  0  0  0  0  0  0
  135.8625   77.2863  222.1870 H   0  0  0  0  0  0  0  0  0  0  0  0
  135.4555   79.5244  223.1599 H   0  0  0  0  0  0  0  0  0  0  0  0
  138.8034   81.8202  224.6666 H   0  0  0  0  0  0  0  0  0  0  0  0
  140.3707   79.9955  223.9950 H   0  0  0  0  0  0  0  0  0  0  0  0
  1  2  1  0
  2  3  2  0
  3  4  1  0
  4  5  2  0
  5  6  1  0
  5  7  1  0
  7  8  1  0
  8  9  1  0
  9 10  1  0
 10 11  1  0
 11 12  1  0
 12 13  1  0
 13 14  2  0
 14 15  1  0
 15 16  2  0
 16 17  1  0
 17 18  2  0
  2 19  1  0
 19 20  2  0
 20 21  1  0
 21 22  2  0
 22 23  1  0
 23 24  2  0
 24 25  1  0
 24 26  1  0
 26 27  2  0
 27 28  1  0
 28 29  2  0
 12  7  1  0
 18 13  1  0
 29 19  1  0
 28 22  1  0
  1 30  1  0
  4 31  1  0
  6 32  1  0
  8 33  1  0
  8 34  1  0
  9 35  1  0
  9 36  1  0
 10 37  1  0
 10 38  1  0
 11 39  1  0
 11 40  1  0
 12 41  1  6
 14 42  1  0
 15 43  1  0
 16 44  1  0
 17 45  1  0
 18 46  1  0
 20 47  1  0
 21 48  1  0
 23 49  1  0
 26 50  1  0
 27 51  1  0
M  END
>  <meeko>  (8) 
{"free_energy": -6.66, "intermolecular_energy": -9.05, "internal_energy": -2.97, "cluster_size": 1, "cluster_id": 3, "rank_in_cluster": 1}

$$$$

     RDKit          3D

 51 54  0  0  0  0  0  0  0  0999 V2000
  137.6750   72.8570  222.4220 O   0  0  0  0  0  0  0  0  0  0  0  0
  138.7900   72.0170  222.3330 C   0  0  0  0  0  0  0  0  0  0  0  0
  139.5570   71.9890  221.2820 N   0  0  0  0  0  0  0  0  0  0  0  0
  140.0220   73.0970  220.5040 C   0  0  0  0  0  0  0  0  0  0  0  0
  140.2770   74.2620  221.1100 C   0  0  0  0  0  0  0  0  0  0  0  0
  139.7160   74.5530  222.3540 O   0  0  0  0  0  0  0  0  0  0  0  0
  141.1260   75.2350  220.4820 N   0  0  0  0  0  0  0  0  0  0  0  0
  140.9650   76.6390  220.8760 C   0  0  0  0  0  0  0  0  0  0  0  0
  142.1640   77.4720  220.4410 C   0  0  0  0  0  0  0  0  0  0  0  0
  142.3910   77.3700  218.9300 C   0  0  0  0  0  0  0  0  0  0  0  0
  142.2540   75.9390  218.3590 C   0  0  0  0  0  0  0  0  0  0  0  0
  142.0370   74.8110  219.4020 C   0  0  1  0  0  0  0  0  0  0  0  0
  143.3200   74.2170  219.9790 C   0  0  0  0  0  0  0  0  0  0  0  0
  143.3520   72.8400  220.2760 C   0  0  0  0  0  0  0  0  0  0  0  0
  144.4800   72.2610  220.8640 C   0  0  0  0  0  0  0  0  0  0  0  0
  145.6000   73.0440  221.1510 C   0  0  0  0  0  0  0  0  0  0  0  0
  145.5940   74.4060  220.8450 C   0  0  0  0  0  0  0  0  0  0  0  0
  144.4640   74.9930  220.2670 C   0  0  0  0  0  0  0  0  0  0  0  0
  139.0980   71.1000  223.4450 C   0  0  0  0  0  0  0  0  0  0  0  0
  138.7620   69.7390  223.3830 C   0  0  0  0  0  0  0  0  0  0  0  0
  139.0990   68.8940  224.4440 C   0  0  0  0  0  0  0  0  0  0  0  0
  139.7720   69.4090  225.5600 C   0  0  0  0  0  0  0  0  0  0  0  0
  140.1320   68.5880  226.6400 C   0  0  0  0  0  0  0  0  0  0  0  0
  140.8150   69.1320  227.7330 C   0  0  0  0  0  0  0  0  0  0  0  0
  141.2660   68.1060  229.0840 Cl  0  0  0  0  0  0  0  0  0  0  0  0
  141.1360   70.4960  227.7550 C   0  0  0  0  0  0  0  0  0  0  0  0
  140.7730   71.3210  226.6850 C   0  0  0  0  0  0  0  0  0  0  0  0
  140.0950   70.7830  225.5870 C   0  0  0  0  0  0  0  0  0  0  0  0
  139.7500   71.5800  224.5420 N   0  0  0  0  0  0  0  0  0  0  0  0
  137.7080   73.8020  222.7710 H   0  0  0  0  0  0  0  0  0  0  0  0
  140.1682   72.9915  219.4189 H   0  0  0  0  0  0  0  0  0  0  0  0
  139.5040   73.8270  223.0300 H   0  0  0  0  0  0  0  0  0  0  0  0
  140.0570   77.0426  220.4042 H   0  0  0  0  0  0  0  0  0  0  0  0
  140.8854   76.6872  221.9721 H   0  0  0  0  0  0  0  0  0  0  0  0
  141.9850   78.5243  220.7066 H   0  0  0  0  0  0  0  0  0  0  0  0
  143.0585   77.0889  220.9540 H   0  0  0  0  0  0  0  0  0  0  0  0
  141.6539   78.0132  218.4271 H   0  0  0  0  0  0  0  0  0  0  0  0
  143.4293   77.6834  218.7464 H   0  0  0  0  0  0  0  0  0  0  0  0
  141.3958   75.9314  217.6709 H   0  0  0  0  0  0  0  0  0  0  0  0
  143.2176   75.7174  217.8770 H   0  0  0  0  0  0  0  0  0  0  0  0
  141.5652   73.9969  218.8322 H   0  0  0  0  0  0  0  0  0  0  0  0
  142.4788   72.2132  220.0423 H   0  0  0  0  0  0  0  0  0  0  0  0
  144.4855   71.1869  221.1011 H   0  0  0  0  0  0  0  0  0  0  0  0
  146.4858   72.5882  221.6176 H   0  0  0  0  0  0  0  0  0  0  0  0
  146.4814   75.0197  221.0593 H   0  0  0  0  0  0  0  0  0  0  0  0
  144.4664   76.0682  220.0348 H   0  0  0  0  0  0  0  0  0  0  0  0
  138.2359   69.3391  222.5036 H   0  0  0  0  0  0  0  0  0  0  0  0
  138.8364   67.8266  224.4031 H   0  0  0  0  0  0  0  0  0  0  0  0
  139.8774   67.5180  226.6270 H   0  0  0  0  0  0  0  0  0  0  0  0
  141.6747   70.9190  228.6157 H   0  0  0  0  0  0  0  0  0  0  0  0
  141.0209   72.3925  226.7076 H   0  0  0  0  0  0  0  0  0  0  0  0
  1  2  1  0
  2  3  2  0
  3  4  1  0
  4  5  2  0
  5  6  1  0
  5  7  1  0
  7  8  1  0
  8  9  1  0
  9 10  1  0
 10 11  1  0
 11 12  1  0
 12 13  1  0
 13 14  2  0
 14 15  1  0
 15 16  2  0
 16 17  1  0
 17 18  2  0
  2 19  1  0
 19 20  2  0
 20 21  1  0
 21 22  2  0
 22 23  1  0
 23 24  2  0
 24 25  1  0
 24 26  1  0
 26 27  2  0
 27 28  1  0
 28 29  2  0
 12  7  1  0
 18 13  1  0
 29 19  1  0
 28 22  1  0
  1 30  1  0
  4 31  1  0
  6 32  1  0
  8 33  1  0
  8 34  1  0
  9 35  1  0
  9 36  1  0
 10 37  1  0
 10 38  1  0
 11 39  1  0
 11 40  1  0
 12 41  1  6
 14 42  1  0
 15 43  1  0
 16 44  1  0
 17 45  1  0
 18 46  1  0
 20 47  1  0
 21 48  1  0
 23 49  1  0
 26 50  1  0
 27 51  1  0
M  END
>  <meeko>  (9) 
{"free_energy": -8.43, "intermolecular_energy": -10.81, "internal_energy": -2.51, "cluster_size": 9, "cluster_id": 2, "rank_in_cluster": 5}

$$$$

     RDKit          3D

 51 54  0  0  0  0  0  0  0  0999 V2000
  138.6680   73.1340  221.3490 O   0  0  0  0  0  0  0  0  0  0  0  0
  139.8190   72.9770  222.1280 C   0  0  0  0  0  0  0  0  0  0  0  0
  140.8800   73.7130  221.9580 N   0  0  0  0  0  0  0  0  0  0  0  0
  140.9570   75.0220  221.3850 C   0  0  0  0  0  0  0  0  0  0  0  0
  140.2760   76.0260  221.9480 C   0  0  0  0  0  0  0  0  0  0  0  0
  139.0980   75.7780  222.6520 O   0  0  0  0  0  0  0  0  0  0  0  0
  140.7460   77.3770  221.8290 N   0  0  0  0  0  0  0  0  0  0  0  0
  141.3850   77.7700  220.5670 C   0  0  0  0  0  0  0  0  0  0  0  0
  141.4650   79.2870  220.4410 C   0  0  0  0  0  0  0  0  0  0  0  0
  142.2140   79.9020  221.6270 C   0  0  0  0  0  0  0  0  0  0  0  0
  141.8330   79.3060  223.0020 C   0  0  0  0  0  0  0  0  0  0  0  0
  140.6730   78.2760  222.9970 C   0  0  1  0  0  0  0  0  0  0  0  0
  139.2780   78.8830  223.1250 C   0  0  0  0  0  0  0  0  0  0  0  0
  139.0880   79.9580  224.0160 C   0  0  0  0  0  0  0  0  0  0  0  0
  137.8180   80.5070  224.2160 C   0  0  0  0  0  0  0  0  0  0  0  0
  136.7190   80.0010  223.5180 C   0  0  0  0  0  0  0  0  0  0  0  0
  136.8910   78.9490  222.6170 C   0  0  0  0  0  0  0  0  0  0  0  0
  138.1580   78.3890  222.4210 C   0  0  0  0  0  0  0  0  0  0  0  0
  139.8600   71.9240  223.1580 C   0  0  0  0  0  0  0  0  0  0  0  0
  139.4320   70.6160  222.8810 C   0  0  0  0  0  0  0  0  0  0  0  0
  139.5160   69.6360  223.8730 C   0  0  0  0  0  0  0  0  0  0  0  0
  140.0290   69.9630  225.1360 C   0  0  0  0  0  0  0  0  0  0  0  0
  140.1340   69.0020  226.1530 C   0  0  0  0  0  0  0  0  0  0  0  0
  140.6640   69.3590  227.3990 C   0  0  0  0  0  0  0  0  0  0  0  0
  140.7950   68.1580  228.6720 Cl  0  0  0  0  0  0  0  0  0  0  0  0
  141.0830   70.6750  227.6340 C   0  0  0  0  0  0  0  0  0  0  0  0
  140.9740   71.6380  226.6260 C   0  0  0  0  0  0  0  0  0  0  0  0
  140.4510   71.2880  225.3780 C   0  0  0  0  0  0  0  0  0  0  0  0
  140.3540   72.2200  224.3930 N   0  0  0  0  0  0  0  0  0  0  0  0
  137.9990   72.3990  221.1780 H   0  0  0  0  0  0  0  0  0  0  0  0
  141.5706   75.2008  220.4897 H   0  0  0  0  0  0  0  0  0  0  0  0
  138.7140   74.8430  222.7420 H   0  0  0  0  0  0  0  0  0  0  0  0
  142.4023   77.3527  220.5343 H   0  0  0  0  0  0  0  0  0  0  0  0
  140.7807   77.3818  219.7339 H   0  0  0  0  0  0  0  0  0  0  0  0
  141.9939   79.5425  219.5110 H   0  0  0  0  0  0  0  0  0  0  0  0
  140.4416   79.6901  220.4281 H   0  0  0  0  0  0  0  0  0  0  0  0
  143.2917   79.7463  221.4713 H   0  0  0  0  0  0  0  0  0  0  0  0
  141.9342   80.9654  221.6575 H   0  0  0  0  0  0  0  0  0  0  0  0
  142.7240   78.8079  223.4118 H   0  0  0  0  0  0  0  0  0  0  0  0
  141.4752   80.1538  223.6047 H   0  0  0  0  0  0  0  0  0  0  0  0
  140.8246   77.6873  223.9137 H   0  0  0  0  0  0  0  0  0  0  0  0
  139.9499   80.3704  224.5611 H   0  0  0  0  0  0  0  0  0  0  0  0
  137.6840   81.3383  224.9238 H   0  0  0  0  0  0  0  0  0  0  0  0
  135.7193   80.4310  223.6782 H   0  0  0  0  0  0  0  0  0  0  0  0
  136.0271   78.5587  222.0589 H   0  0  0  0  0  0  0  0  0  0  0  0
  138.2828   77.5569  221.7125 H   0  0  0  0  0  0  0  0  0  0  0  0
  139.0324   70.3640  221.8876 H   0  0  0  0  0  0  0  0  0  0  0  0
  139.1802   68.6097  223.6635 H   0  0  0  0  0  0  0  0  0  0  0  0
  139.8004   67.9696  225.9717 H   0  0  0  0  0  0  0  0  0  0  0  0
  141.4988   70.9515  228.6141 H   0  0  0  0  0  0  0  0  0  0  0  0
  141.3000   72.6714  226.8153 H   0  0  0  0  0  0  0  0  0  0  0  0
  1  2  1  0
  2  3  2  0
  3  4  1  0
  4  5  2  0
  5  6  1  0
  5  7  1  0
  7  8  1  0
  8  9  1  0
  9 10  1  0
 10 11  1  0
 11 12  1  0
 12 13  1  0
 13 14  2  0
 14 15  1  0
 15 16  2  0
 16 17  1  0
 17 18  2  0
  2 19  1  0
 19 20  2  0
 20 21  1  0
 21 22  2  0
 22 23  1  0
 23 24  2  0
 24 25  1  0
 24 26  1  0
 26 27  2  0
 27 28  1  0
 28 29  2  0
 12  7  1  0
 18 13  1  0
 29 19  1  0
 28 22  1  0
  1 30  1  0
  4 31  1  0
  6 32  1  0
  8 33  1  0
  8 34  1  0
  9 35  1  0
  9 36  1  0
 10 37  1  0
 10 38  1  0
 11 39  1  0
 11 40  1  0
 12 41  1  1
 14 42  1  0
 15 43  1  0
 16 44  1  0
 17 45  1  0
 18 46  1  0
 20 47  1  0
 21 48  1  0
 23 49  1  0
 26 50  1  0
 27 51  1  0
M  END
>  <meeko>  (10) 
{"free_energy": -8.42, "intermolecular_energy": -10.8, "internal_energy": -1.75, "cluster_size": 9, "cluster_id": 1, "rank_in_cluster": 4}

$$$$

     RDKit          3D

 51 54  0  0  0  0  0  0  0  0999 V2000
  136.7800   74.3110  222.7180 O   0  0  0  0  0  0  0  0  0  0  0  0
  137.5850   74.9120  221.7450 C   0  0  0  0  0  0  0  0  0  0  0  0
  137.8490   74.3350  220.6080 N   0  0  0  0  0  0  0  0  0  0  0  0
  138.9870   73.5310  220.2750 C   0  0  0  0  0  0  0  0  0  0  0  0
  140.0720   73.5770  221.0540 C   0  0  0  0  0  0  0  0  0  0  0  0
  139.9480   73.6430  222.4420 O   0  0  0  0  0  0  0  0  0  0  0  0
  141.3840   73.5680  220.4710 N   0  0  0  0  0  0  0  0  0  0  0  0
  141.7650   72.4040  219.6630 C   0  0  0  0  0  0  0  0  0  0  0  0
  142.9890   72.7070  218.8070 C   0  0  0  0  0  0  0  0  0  0  0  0
  144.1700   73.1620  219.6690 C   0  0  0  0  0  0  0  0  0  0  0  0
  143.7970   74.1650  220.7850 C   0  0  0  0  0  0  0  0  0  0  0  0
  142.3260   74.6580  220.7900 C   0  0  1  0  0  0  0  0  0  0  0  0
  142.0570   75.8780  219.9120 C   0  0  0  0  0  0  0  0  0  0  0  0
  143.1550   76.5670  219.3580 C   0  0  0  0  0  0  0  0  0  0  0  0
  142.9650   77.7260  218.6000 C   0  0  0  0  0  0  0  0  0  0  0  0
  141.6750   78.2080  218.3700 C   0  0  0  0  0  0  0  0  0  0  0  0
  140.5740   77.5280  218.8930 C   0  0  0  0  0  0  0  0  0  0  0  0
  140.7590   76.3740  219.6620 C   0  0  0  0  0  0  0  0  0  0  0  0
  138.1900   76.2280  222.0150 C   0  0  0  0  0  0  0  0  0  0  0  0
  137.4430   77.4110  221.9050 C   0  0  0  0  0  0  0  0  0  0  0  0
  138.0430   78.6380  222.2010 C   0  0  0  0  0  0  0  0  0  0  0  0
  139.3840   78.6800  222.6070 C   0  0  0  0  0  0  0  0  0  0  0  0
  140.0160   79.8930  222.9180 C   0  0  0  0  0  0  0  0  0  0  0  0
  141.3520   79.8980  223.3340 C   0  0  0  0  0  0  0  0  0  0  0  0
  142.1440   81.4150  223.7240 Cl  0  0  0  0  0  0  0  0  0  0  0  0
  142.0620   78.6940  223.4350 C   0  0  0  0  0  0  0  0  0  0  0  0
  141.4400   77.4820  223.1190 C   0  0  0  0  0  0  0  0  0  0  0  0
  140.1040   77.4690  222.7080 C   0  0  0  0  0  0  0  0  0  0  0  0
  139.4930   76.2920  222.4100 N   0  0  0  0  0  0  0  0  0  0  0  0
  137.1310   73.7050  223.4440 H   0  0  0  0  0  0  0  0  0  0  0  0
  138.9680   72.8822  219.3869 H   0  0  0  0  0  0  0  0  0  0  0  0
  139.1870   74.1430  222.8890 H   0  0  0  0  0  0  0  0  0  0  0  0
  141.9943   71.5617  220.3322 H   0  0  0  0  0  0  0  0  0  0  0  0
  140.9267   72.1516  218.9969 H   0  0  0  0  0  0  0  0  0  0  0  0
  143.2756   71.7986  218.2568 H   0  0  0  0  0  0  0  0  0  0  0  0
  142.7338   73.5189  218.1101 H   0  0  0  0  0  0  0  0  0  0  0  0
  144.6148   72.2730  220.1400 H   0  0  0  0  0  0  0  0  0  0  0  0
  144.8663   73.6848  218.9968 H   0  0  0  0  0  0  0  0  0  0  0  0
  143.9932   73.6804  221.7528 H   0  0  0  0  0  0  0  0  0  0  0  0
  144.4097   75.0592  220.5981 H   0  0  0  0  0  0  0  0  0  0  0  0
  142.1523   74.9929  221.8233 H   0  0  0  0  0  0  0  0  0  0  0  0
  144.1741   76.1878  219.5243 H   0  0  0  0  0  0  0  0  0  0  0  0
  143.8328   78.2589  218.1842 H   0  0  0  0  0  0  0  0  0  0  0  0
  141.5265   79.1227  217.7772 H   0  0  0  0  0  0  0  0  0  0  0  0
  139.5573   77.9007  218.6999 H   0  0  0  0  0  0  0  0  0  0  0  0
  139.8855   75.8485  220.0755 H   0  0  0  0  0  0  0  0  0  0  0  0
  136.3905   77.3727  221.5874 H   0  0  0  0  0  0  0  0  0  0  0  0
  137.4639   79.5693  222.1155 H   0  0  0  0  0  0  0  0  0  0  0  0
  139.4618   80.8396  222.8349 H   0  0  0  0  0  0  0  0  0  0  0  0
  143.1117   78.7023  223.7638 H   0  0  0  0  0  0  0  0  0  0  0  0
  142.0018   76.5393  223.1938 H   0  0  0  0  0  0  0  0  0  0  0  0
  1  2  1  0
  2  3  2  0
  3  4  1  0
  4  5  2  0
  5  6  1  0
  5  7  1  0
  7  8  1  0
  8  9  1  0
  9 10  1  0
 10 11  1  0
 11 12  1  0
 12 13  1  0
 13 14  2  0
 14 15  1  0
 15 16  2  0
 16 17  1  0
 17 18  2  0
  2 19  1  0
 19 20  2  0
 20 21  1  0
 21 22  2  0
 22 23  1  0
 23 24  2  0
 24 25  1  0
 24 26  1  0
 26 27  2  0
 27 28  1  0
 28 29  2  0
 12  7  1  0
 18 13  1  0
 29 19  1  0
 28 22  1  0
  1 30  1  0
  4 31  1  0
  6 32  1  0
  8 33  1  0
  8 34  1  0
  9 35  1  0
  9 36  1  0
 10 37  1  0
 10 38  1  0
 11 39  1  0
 11 40  1  0
 12 41  1  1
 14 42  1  0
 15 43  1  0
 16 44  1  0
 17 45  1  0
 18 46  1  0
 20 47  1  0
 21 48  1  0
 23 49  1  0
 26 50  1  0
 27 51  1  0
M  END
>  <meeko>  (11) 
{"free_energy": -6.25, "intermolecular_energy": -8.64, "internal_energy": -3.46, "cluster_size": 1, "cluster_id": 4, "rank_in_cluster": 1}

$$$$

     RDKit          3D

 51 54  0  0  0  0  0  0  0  0999 V2000
  138.5170   72.0060  221.1830 O   0  0  0  0  0  0  0  0  0  0  0  0
  139.3140   72.3600  222.2770 C   0  0  0  0  0  0  0  0  0  0  0  0
  139.9140   73.5120  222.3560 N   0  0  0  0  0  0  0  0  0  0  0  0
  141.0180   73.9830  221.5740 C   0  0  0  0  0  0  0  0  0  0  0  0
  140.8480   74.2030  220.2660 C   0  0  0  0  0  0  0  0  0  0  0  0
  139.7570   73.6570  219.5900 O   0  0  0  0  0  0  0  0  0  0  0  0
  141.7930   75.0000  219.5370 N   0  0  0  0  0  0  0  0  0  0  0  0
  141.6920   76.4600  219.6550 C   0  0  0  0  0  0  0  0  0  0  0  0
  142.9650   77.1390  219.1670 C   0  0  0  0  0  0  0  0  0  0  0  0
  143.2850   76.7460  217.7210 C   0  0  0  0  0  0  0  0  0  0  0  0
  143.0990   75.2420  217.4130 C   0  0  0  0  0  0  0  0  0  0  0  0
  142.7460   74.3400  218.6250 C   0  0  1  0  0  0  0  0  0  0  0  0
  143.9500   73.8050  219.3960 C   0  0  0  0  0  0  0  0  0  0  0  0
  144.4600   74.5660  220.4670 C   0  0  0  0  0  0  0  0  0  0  0  0
  145.5980   74.1500  221.1640 C   0  0  0  0  0  0  0  0  0  0  0  0
  146.2370   72.9590  220.8130 C   0  0  0  0  0  0  0  0  0  0  0  0
  145.7350   72.1820  219.7680 C   0  0  0  0  0  0  0  0  0  0  0  0
  144.6040   72.5990  219.0600 C   0  0  0  0  0  0  0  0  0  0  0  0
  139.5180   71.3920  223.3690 C   0  0  0  0  0  0  0  0  0  0  0  0
  139.1970   70.0340  223.2110 C   0  0  0  0  0  0  0  0  0  0  0  0
  139.4340   69.1410  224.2580 C   0  0  0  0  0  0  0  0  0  0  0  0
  139.9930   69.6030  225.4570 C   0  0  0  0  0  0  0  0  0  0  0  0
  140.2520   68.7320  226.5270 C   0  0  0  0  0  0  0  0  0  0  0  0
  140.8230   69.2240  227.7060 C   0  0  0  0  0  0  0  0  0  0  0  0
  141.1470   68.1360  229.0440 Cl  0  0  0  0  0  0  0  0  0  0  0  0
  141.1330   70.5860  227.8220 C   0  0  0  0  0  0  0  0  0  0  0  0
  140.8710   71.4600  226.7630 C   0  0  0  0  0  0  0  0  0  0  0  0
  140.3040   70.9750  225.5800 C   0  0  0  0  0  0  0  0  0  0  0  0
  140.0590   71.8200  224.5450 N   0  0  0  0  0  0  0  0  0  0  0  0
  138.8800   71.8020  220.2640 H   0  0  0  0  0  0  0  0  0  0  0  0
  141.9959   74.1619  222.0448 H   0  0  0  0  0  0  0  0  0  0  0  0
  138.9150   73.3680  220.0760 H   0  0  0  0  0  0  0  0  0  0  0  0
  140.8430   76.8114  219.0503 H   0  0  0  0  0  0  0  0  0  0  0  0
  141.5440   76.7154  220.7146 H   0  0  0  0  0  0  0  0  0  0  0  0
  142.8330   78.2297  219.2213 H   0  0  0  0  0  0  0  0  0  0  0  0
  143.7988   76.8161  219.8077 H   0  0  0  0  0  0  0  0  0  0  0  0
  142.6233   77.3184  217.0542 H   0  0  0  0  0  0  0  0  0  0  0  0
  144.3502   76.9701  217.5626 H   0  0  0  0  0  0  0  0  0  0  0  0
  142.2889   75.1469  216.6750 H   0  0  0  0  0  0  0  0  0  0  0  0
  144.0770   74.8887  217.0543 H   0  0  0  0  0  0  0  0  0  0  0  0
  142.2643   73.4571  218.1796 H   0  0  0  0  0  0  0  0  0  0  0  0
  143.9560   75.4994  220.7582 H   0  0  0  0  0  0  0  0  0  0  0  0
  145.9906   74.7614  221.9898 H   0  0  0  0  0  0  0  0  0  0  0  0
  147.1346   72.6337  221.3593 H   0  0  0  0  0  0  0  0  0  0  0  0
  146.2313   71.2375  219.5003 H   0  0  0  0  0  0  0  0  0  0  0  0
  144.2200   71.9825  218.2339 H   0  0  0  0  0  0  0  0  0  0  0  0
  138.7609   69.6755  222.2669 H   0  0  0  0  0  0  0  0  0  0  0  0
  139.1823   68.0765  224.1417 H   0  0  0  0  0  0  0  0  0  0  0  0
  140.0063   67.6634  226.4387 H   0  0  0  0  0  0  0  0  0  0  0  0
  141.5840   70.9684  228.7496 H   0  0  0  0  0  0  0  0  0  0  0  0
  141.1108   72.5292  226.8600 H   0  0  0  0  0  0  0  0  0  0  0  0
  1  2  1  0
  2  3  2  0
  3  4  1  0
  4  5  2  0
  5  6  1  0
  5  7  1  0
  7  8  1  0
  8  9  1  0
  9 10  1  0
 10 11  1  0
 11 12  1  0
 12 13  1  0
 13 14  2  0
 14 15  1  0
 15 16  2  0
 16 17  1  0
 17 18  2  0
  2 19  1  0
 19 20  2  0
 20 21  1  0
 21 22  2  0
 22 23  1  0
 23 24  2  0
 24 25  1  0
 24 26  1  0
 26 27  2  0
 27 28  1  0
 28 29  2  0
 12  7  1  0
 18 13  1  0
 29 19  1  0
 28 22  1  0
  1 30  1  0
  4 31  1  0
  6 32  1  0
  8 33  1  0
  8 34  1  0
  9 35  1  0
  9 36  1  0
 10 37  1  0
 10 38  1  0
 11 39  1  0
 11 40  1  0
 12 41  1  6
 14 42  1  0
 15 43  1  0
 16 44  1  0
 17 45  1  0
 18 46  1  0
 20 47  1  0
 21 48  1  0
 23 49  1  0
 26 50  1  0
 27 51  1  0
M  END
>  <meeko>  (12) 
{"free_energy": -7.39, "intermolecular_energy": -9.77, "internal_energy": -2.61, "cluster_size": 9, "cluster_id": 2, "rank_in_cluster": 7}

$$$$

     RDKit          3D

 51 54  0  0  0  0  0  0  0  0999 V2000
  137.6570   72.8710  222.5100 O   0  0  0  0  0  0  0  0  0  0  0  0
  138.7110   71.9660  222.3500 C   0  0  0  0  0  0  0  0  0  0  0  0
  139.3860   71.8730  221.2410 N   0  0  0  0  0  0  0  0  0  0  0  0
  140.4830   72.6860  220.8100 C   0  0  0  0  0  0  0  0  0  0  0  0
  140.5420   73.9650  221.1960 C   0  0  0  0  0  0  0  0  0  0  0  0
  139.8660   74.3940  222.3380 O   0  0  0  0  0  0  0  0  0  0  0  0
  141.2960   74.9180  220.4330 N   0  0  0  0  0  0  0  0  0  0  0  0
  141.1370   76.3390  220.7620 C   0  0  0  0  0  0  0  0  0  0  0  0
  142.2630   77.1720  220.1630 C   0  0  0  0  0  0  0  0  0  0  0  0
  142.3410   76.9880  218.6440 C   0  0  0  0  0  0  0  0  0  0  0  0
  142.1870   75.5240  218.1700 C   0  0  0  0  0  0  0  0  0  0  0  0
  142.1070   74.4530  219.2910 C   0  0  1  0  0  0  0  0  0  0  0  0
  143.4570   73.9220  219.7670 C   0  0  0  0  0  0  0  0  0  0  0  0
  143.7490   72.5560  219.5810 C   0  0  0  0  0  0  0  0  0  0  0  0
  144.9440   72.0080  220.0560 C   0  0  0  0  0  0  0  0  0  0  0  0
  145.8740   72.8190  220.7100 C   0  0  0  0  0  0  0  0  0  0  0  0
  145.6110   74.1790  220.8860 C   0  0  0  0  0  0  0  0  0  0  0  0
  144.4120   74.7290  220.4230 C   0  0  0  0  0  0  0  0  0  0  0  0
  139.0590   71.0550  223.4550 C   0  0  0  0  0  0  0  0  0  0  0  0
  138.8050   69.6760  223.3710 C   0  0  0  0  0  0  0  0  0  0  0  0
  139.1770   68.8390  224.4260 C   0  0  0  0  0  0  0  0  0  0  0  0
  139.8040   69.3780  225.5570 C   0  0  0  0  0  0  0  0  0  0  0  0
  140.1980   68.5660  226.6320 C   0  0  0  0  0  0  0  0  0  0  0  0
  140.8340   69.1350  227.7410 C   0  0  0  0  0  0  0  0  0  0  0  0
  141.3270   68.1200  229.0850 Cl  0  0  0  0  0  0  0  0  0  0  0  0
  141.0730   70.5150  227.7840 C   0  0  0  0  0  0  0  0  0  0  0  0
  140.6760   71.3310  226.7200 C   0  0  0  0  0  0  0  0  0  0  0  0
  140.0450   70.7690  225.6060 C   0  0  0  0  0  0  0  0  0  0  0  0
  139.6670   71.5580  224.5660 N   0  0  0  0  0  0  0  0  0  0  0  0
  137.7810   73.8500  222.7150 H   0  0  0  0  0  0  0  0  0  0  0  0
  141.2694   72.2627  220.1678 H   0  0  0  0  0  0  0  0  0  0  0  0
  139.5540   73.7440  223.0520 H   0  0  0  0  0  0  0  0  0  0  0  0
  140.1758   76.6945  220.3623 H   0  0  0  0  0  0  0  0  0  0  0  0
  141.1663   76.4488  221.8561 H   0  0  0  0  0  0  0  0  0  0  0  0
  142.0821   78.2337  220.3869 H   0  0  0  0  0  0  0  0  0  0  0  0
  143.2145   76.8392  220.6034 H   0  0  0  0  0  0  0  0  0  0  0  0
  141.5401   77.5850  218.1834 H   0  0  0  0  0  0  0  0  0  0  0  0
  143.3468   77.3129  218.3392 H   0  0  0  0  0  0  0  0  0  0  0  0
  141.2646   75.4579  217.5743 H   0  0  0  0  0  0  0  0  0  0  0  0
  143.1032   75.2960  217.6055 H   0  0  0  0  0  0  0  0  0  0  0  0
  141.6039   73.5970  218.8175 H   0  0  0  0  0  0  0  0  0  0  0  0
  143.0276   71.9130  219.0555 H   0  0  0  0  0  0  0  0  0  0  0  0
  145.1520   70.9372  219.9145 H   0  0  0  0  0  0  0  0  0  0  0  0
  146.8130   72.3868  221.0862 H   0  0  0  0  0  0  0  0  0  0  0  0
  146.3494   74.8195  221.3904 H   0  0  0  0  0  0  0  0  0  0  0  0
  144.2108   75.8002  220.5711 H   0  0  0  0  0  0  0  0  0  0  0  0
  138.3157   69.2573  222.4792 H   0  0  0  0  0  0  0  0  0  0  0  0
  138.9780   67.7587  224.3687 H   0  0  0  0  0  0  0  0  0  0  0  0
  140.0069   67.4831  226.6027 H   0  0  0  0  0  0  0  0  0  0  0  0
  141.5744   70.9578  228.6573 H   0  0  0  0  0  0  0  0  0  0  0  0
  140.8601   72.4148  226.7595 H   0  0  0  0  0  0  0  0  0  0  0  0
  1  2  1  0
  2  3  2  0
  3  4  1  0
  4  5  2  0
  5  6  1  0
  5  7  1  0
  7  8  1  0
  8  9  1  0
  9 10  1  0
 10 11  1  0
 11 12  1  0
 12 13  1  0
 13 14  2  0
 14 15  1  0
 15 16  2  0
 16 17  1  0
 17 18  2  0
  2 19  1  0
 19 20  2  0
 20 21  1  0
 21 22  2  0
 22 23  1  0
 23 24  2  0
 24 25  1  0
 24 26  1  0
 26 27  2  0
 27 28  1  0
 28 29  2  0
 12  7  1  0
 18 13  1  0
 29 19  1  0
 28 22  1  0
  1 30  1  0
  4 31  1  0
  6 32  1  0
  8 33  1  0
  8 34  1  0
  9 35  1  0
  9 36  1  0
 10 37  1  0
 10 38  1  0
 11 39  1  0
 11 40  1  0
 12 41  1  6
 14 42  1  0
 15 43  1  0
 16 44  1  0
 17 45  1  0
 18 46  1  0
 20 47  1  0
 21 48  1  0
 23 49  1  0
 26 50  1  0
 27 51  1  0
M  END
>  <meeko>  (13) 
{"free_energy": -8.47, "intermolecular_energy": -10.86, "internal_energy": -2.48, "cluster_size": 9, "cluster_id": 2, "rank_in_cluster": 4}

$$$$

     RDKit          3D

 51 54  0  0  0  0  0  0  0  0999 V2000
  139.1360   72.1170  220.9020 O   0  0  0  0  0  0  0  0  0  0  0  0
  139.7120   72.4880  222.1210 C   0  0  0  0  0  0  0  0  0  0  0  0
  140.2220   73.6700  222.3180 N   0  0  0  0  0  0  0  0  0  0  0  0
  141.1580   74.3710  221.4930 C   0  0  0  0  0  0  0  0  0  0  0  0
  140.8380   74.6400  220.2220 C   0  0  0  0  0  0  0  0  0  0  0  0
  139.5610   74.3600  219.7370 O   0  0  0  0  0  0  0  0  0  0  0  0
  141.8100   75.2150  219.3360 N   0  0  0  0  0  0  0  0  0  0  0  0
  141.8660   76.6780  219.2370 C   0  0  0  0  0  0  0  0  0  0  0  0
  143.1670   77.1360  218.5910 C   0  0  0  0  0  0  0  0  0  0  0  0
  143.3510   76.5050  217.2070 C   0  0  0  0  0  0  0  0  0  0  0  0
  142.9940   75.0020  217.1380 C   0  0  0  0  0  0  0  0  0  0  0  0
  142.6300   74.3290  218.4880 C   0  0  1  0  0  0  0  0  0  0  0  0
  143.8210   73.7810  219.2710 C   0  0  0  0  0  0  0  0  0  0  0  0
  144.4150   74.5960  220.2550 C   0  0  0  0  0  0  0  0  0  0  0  0
  145.5460   74.1650  220.9550 C   0  0  0  0  0  0  0  0  0  0  0  0
  146.0920   72.9070  220.6950 C   0  0  0  0  0  0  0  0  0  0  0  0
  145.5050   72.0770  219.7380 C   0  0  0  0  0  0  0  0  0  0  0  0
  144.3810   72.5080  219.0270 C   0  0  0  0  0  0  0  0  0  0  0  0
  139.7850   71.5070  223.2180 C   0  0  0  0  0  0  0  0  0  0  0  0
  139.3820   70.1750  223.0330 C   0  0  0  0  0  0  0  0  0  0  0  0
  139.4950   69.2650  224.0880 C   0  0  0  0  0  0  0  0  0  0  0  0
  140.0110   69.6860  225.3210 C   0  0  0  0  0  0  0  0  0  0  0  0
  140.1450   68.7980  226.3990 C   0  0  0  0  0  0  0  0  0  0  0  0
  140.6780   69.2480  227.6130 C   0  0  0  0  0  0  0  0  0  0  0  0
  140.8450   68.1380  228.9620 Cl  0  0  0  0  0  0  0  0  0  0  0  0
  141.0720   70.5850  227.7550 C   0  0  0  0  0  0  0  0  0  0  0  0
  140.9340   71.4770  226.6870 C   0  0  0  0  0  0  0  0  0  0  0  0
  140.4070   71.0330  225.4700 C   0  0  0  0  0  0  0  0  0  0  0  0
  140.2820   71.8950  224.4260 N   0  0  0  0  0  0  0  0  0  0  0  0
  139.5830   72.2400  220.0070 H   0  0  0  0  0  0  0  0  0  0  0  0
  142.1305   74.6854  221.8996 H   0  0  0  0  0  0  0  0  0  0  0  0
  138.8560   73.9110  220.3120 H   0  0  0  0  0  0  0  0  0  0  0  0
  141.0198   77.0293  218.6282 H   0  0  0  0  0  0  0  0  0  0  0  0
  141.8138   77.0985  220.2521 H   0  0  0  0  0  0  0  0  0  0  0  0
  143.1497   78.2309  218.4866 H   0  0  0  0  0  0  0  0  0  0  0  0
  144.0037   76.8204  219.2315 H   0  0  0  0  0  0  0  0  0  0  0  0
  142.7090   77.0442  216.4949 H   0  0  0  0  0  0  0  0  0  0  0  0
  144.4211   76.5851  216.9651 H   0  0  0  0  0  0  0  0  0  0  0  0
  142.1326   74.8909  216.4630 H   0  0  0  0  0  0  0  0  0  0  0  0
  143.9059   74.4952  216.7892 H   0  0  0  0  0  0  0  0  0  0  0  0
  142.0328   73.4497  218.2048 H   0  0  0  0  0  0  0  0  0  0  0  0
  143.9836   75.5836  220.4752 H   0  0  0  0  0  0  0  0  0  0  0  0
  146.0060   74.8180  221.7114 H   0  0  0  0  0  0  0  0  0  0  0  0
  146.9839   72.5699  221.2436 H   0  0  0  0  0  0  0  0  0  0  0  0
  145.9283   71.0807  219.5428 H   0  0  0  0  0  0  0  0  0  0  0  0
  143.9289   71.8495  218.2707 H   0  0  0  0  0  0  0  0  0  0  0  0
  138.9793   69.8491  222.0626 H   0  0  0  0  0  0  0  0  0  0  0  0
  139.1794   68.2202  223.9506 H   0  0  0  0  0  0  0  0  0  0  0  0
  139.8316   67.7492  226.2905 H   0  0  0  0  0  0  0  0  0  0  0  0
  141.4914   70.9343  228.7101 H   0  0  0  0  0  0  0  0  0  0  0  0
  141.2397   72.5272  226.8040 H   0  0  0  0  0  0  0  0  0  0  0  0
  1  2  1  0
  2  3  2  0
  3  4  1  0
  4  5  2  0
  5  6  1  0
  5  7  1  0
  7  8  1  0
  8  9  1  0
  9 10  1  0
 10 11  1  0
 11 12  1  0
 12 13  1  0
 13 14  2  0
 14 15  1  0
 15 16  2  0
 16 17  1  0
 17 18  2  0
  2 19  1  0
 19 20  2  0
 20 21  1  0
 21 22  2  0
 22 23  1  0
 23 24  2  0
 24 25  1  0
 24 26  1  0
 26 27  2  0
 27 28  1  0
 28 29  2  0
 12  7  1  0
 18 13  1  0
 29 19  1  0
 28 22  1  0
  1 30  1  0
  4 31  1  0
  6 32  1  0
  8 33  1  0
  8 34  1  0
  9 35  1  0
  9 36  1  0
 10 37  1  0
 10 38  1  0
 11 39  1  0
 11 40  1  0
 12 41  1  6
 14 42  1  0
 15 43  1  0
 16 44  1  0
 17 45  1  0
 18 46  1  0
 20 47  1  0
 21 48  1  0
 23 49  1  0
 26 50  1  0
 27 51  1  0
M  END
>  <meeko>  (14) 
{"free_energy": -7.29, "intermolecular_energy": -9.68, "internal_energy": -2.7, "cluster_size": 9, "cluster_id": 2, "rank_in_cluster": 9}

$$$$

     RDKit          3D

 51 54  0  0  0  0  0  0  0  0999 V2000
  140.5450   72.6080  220.7560 O   0  0  0  0  0  0  0  0  0  0  0  0
  140.0940   72.9490  222.0350 C   0  0  0  0  0  0  0  0  0  0  0  0
  139.7340   74.1610  222.3460 N   0  0  0  0  0  0  0  0  0  0  0  0
  139.6710   75.3050  221.4880 C   0  0  0  0  0  0  0  0  0  0  0  0
  140.7730   75.7020  220.8430 C   0  0  0  0  0  0  0  0  0  0  0  0
  141.9340   74.9300  220.8790 O   0  0  0  0  0  0  0  0  0  0  0  0
  140.7790   76.9370  220.1110 N   0  0  0  0  0  0  0  0  0  0  0  0
  139.6680   77.1890  219.1860 C   0  0  0  0  0  0  0  0  0  0  0  0
  139.5990   78.6610  218.7980 C   0  0  0  0  0  0  0  0  0  0  0  0
  140.9190   79.1320  218.1800 C   0  0  0  0  0  0  0  0  0  0  0  0
  142.1840   78.6330  218.9160 C   0  0  0  0  0  0  0  0  0  0  0  0
  141.9360   77.8440  220.2290 C   0  0  1  0  0  0  0  0  0  0  0  0
  141.8200   78.7080  221.4830 C   0  0  0  0  0  0  0  0  0  0  0  0
  141.4070   78.1020  222.6850 C   0  0  0  0  0  0  0  0  0  0  0  0
  141.2250   78.8610  223.8450 C   0  0  0  0  0  0  0  0  0  0  0  0
  141.4670   80.2360  223.8260 C   0  0  0  0  0  0  0  0  0  0  0  0
  141.8960   80.8510  222.6490 C   0  0  0  0  0  0  0  0  0  0  0  0
  142.0690   80.0980  221.4830 C   0  0  0  0  0  0  0  0  0  0  0  0
  140.0520   71.9180  223.0880 C   0  0  0  0  0  0  0  0  0  0  0  0
  139.5430   70.6350  222.8330 C   0  0  0  0  0  0  0  0  0  0  0  0
  139.5490   69.6740  223.8480 C   0  0  0  0  0  0  0  0  0  0  0  0
  140.0640   69.9960  225.1110 C   0  0  0  0  0  0  0  0  0  0  0  0
  140.0920   69.0540  226.1510 C   0  0  0  0  0  0  0  0  0  0  0  0
  140.6260   69.4040  227.3960 C   0  0  0  0  0  0  0  0  0  0  0  0
  140.6610   68.2270  228.6970 Cl  0  0  0  0  0  0  0  0  0  0  0  0
  141.1270   70.6960  227.6090 C   0  0  0  0  0  0  0  0  0  0  0  0
  141.0950   71.6410  226.5790 C   0  0  0  0  0  0  0  0  0  0  0  0
  140.5680   71.2970  225.3310 C   0  0  0  0  0  0  0  0  0  0  0  0
  140.5460   72.2100  224.3250 N   0  0  0  0  0  0  0  0  0  0  0  0
  140.8520   73.2790  220.0690 H   0  0  0  0  0  0  0  0  0  0  0  0
  138.7253   75.8522  221.3605 H   0  0  0  0  0  0  0  0  0  0  0  0
  141.9920   74.0740  221.4200 H   0  0  0  0  0  0  0  0  0  0  0  0
  139.8124   76.5848  218.2782 H   0  0  0  0  0  0  0  0  0  0  0  0
  138.7278   76.9158  219.6873 H   0  0  0  0  0  0  0  0  0  0  0  0
  138.7896   78.8020  218.0666 H   0  0  0  0  0  0  0  0  0  0  0  0
  139.4080   79.2525  219.7056 H   0  0  0  0  0  0  0  0  0  0  0  0
  140.9606   78.7713  217.1416 H   0  0  0  0  0  0  0  0  0  0  0  0
  140.9258   80.2295  218.2539 H   0  0  0  0  0  0  0  0  0  0  0  0
  142.7378   77.9773  218.2280 H   0  0  0  0  0  0  0  0  0  0  0  0
  142.7336   79.5388  219.2118 H   0  0  0  0  0  0  0  0  0  0  0  0
  142.8489   77.2457  220.3659 H   0  0  0  0  0  0  0  0  0  0  0  0
  141.2252   77.0175  222.7117 H   0  0  0  0  0  0  0  0  0  0  0  0
  140.8909   78.3745  224.7733 H   0  0  0  0  0  0  0  0  0  0  0  0
  141.3197   80.8337  224.7376 H   0  0  0  0  0  0  0  0  0  0  0  0
  142.0989   81.9321  222.6382 H   0  0  0  0  0  0  0  0  0  0  0  0
  142.4017   80.5926  220.5585 H   0  0  0  0  0  0  0  0  0  0  0  0
  139.1414   70.3871  221.8394 H   0  0  0  0  0  0  0  0  0  0  0  0
  139.1503   68.6670  223.6558 H   0  0  0  0  0  0  0  0  0  0  0  0
  139.6945   68.0415  225.9875 H   0  0  0  0  0  0  0  0  0  0  0  0
  141.5464   70.9670  228.5891 H   0  0  0  0  0  0  0  0  0  0  0  0
  141.4846   72.6552  226.7509 H   0  0  0  0  0  0  0  0  0  0  0  0
  1  2  1  0
  2  3  2  0
  3  4  1  0
  4  5  2  0
  5  6  1  0
  5  7  1  0
  7  8  1  0
  8  9  1  0
  9 10  1  0
 10 11  1  0
 11 12  1  0
 12 13  1  0
 13 14  2  0
 14 15  1  0
 15 16  2  0
 16 17  1  0
 17 18  2  0
  2 19  1  0
 19 20  2  0
 20 21  1  0
 21 22  2  0
 22 23  1  0
 23 24  2  0
 24 25  1  0
 24 26  1  0
 26 27  2  0
 27 28  1  0
 28 29  2  0
 12  7  1  0
 18 13  1  0
 29 19  1  0
 28 22  1  0
  1 30  1  0
  4 31  1  0
  6 32  1  0
  8 33  1  0
  8 34  1  0
  9 35  1  0
  9 36  1  0
 10 37  1  0
 10 38  1  0
 11 39  1  0
 11 40  1  0
 12 41  1  1
 14 42  1  0
 15 43  1  0
 16 44  1  0
 17 45  1  0
 18 46  1  0
 20 47  1  0
 21 48  1  0
 23 49  1  0
 26 50  1  0
 27 51  1  0
M  END
>  <meeko>  (15) 
{"free_energy": -7.53, "intermolecular_energy": -9.91, "internal_energy": -2.52, "cluster_size": 9, "cluster_id": 1, "rank_in_cluster": 8}

$$$$

     RDKit          3D

 51 54  0  0  0  0  0  0  0  0999 V2000
  137.7190   72.8450  222.4590 O   0  0  0  0  0  0  0  0  0  0  0  0
  138.7890   71.9520  222.3310 C   0  0  0  0  0  0  0  0  0  0  0  0
  139.5050   71.8750  221.2470 N   0  0  0  0  0  0  0  0  0  0  0  0
  140.6390   72.6710  220.8850 C   0  0  0  0  0  0  0  0  0  0  0  0
  140.6640   73.9660  221.2190 C   0  0  0  0  0  0  0  0  0  0  0  0
  139.9640   74.4250  222.3340 O   0  0  0  0  0  0  0  0  0  0  0  0
  141.4070   74.9040  220.4270 N   0  0  0  0  0  0  0  0  0  0  0  0
  141.2630   76.3300  220.7410 C   0  0  0  0  0  0  0  0  0  0  0  0
  142.3800   77.1480  220.1050 C   0  0  0  0  0  0  0  0  0  0  0  0
  142.4240   76.9430  218.5880 C   0  0  0  0  0  0  0  0  0  0  0  0
  142.2520   75.4730  218.1380 C   0  0  0  0  0  0  0  0  0  0  0  0
  142.1900   74.4190  219.2740 C   0  0  1  0  0  0  0  0  0  0  0  0
  143.5470   73.8860  219.7280 C   0  0  0  0  0  0  0  0  0  0  0  0
  143.8820   72.5510  219.4290 C   0  0  0  0  0  0  0  0  0  0  0  0
  145.0850   71.9970  219.8760 C   0  0  0  0  0  0  0  0  0  0  0  0
  145.9800   72.7720  220.6180 C   0  0  0  0  0  0  0  0  0  0  0  0
  145.6730   74.1030  220.9070 C   0  0  0  0  0  0  0  0  0  0  0  0
  144.4660   74.6590  220.4700 C   0  0  0  0  0  0  0  0  0  0  0  0
  139.1050   71.0360  223.4410 C   0  0  0  0  0  0  0  0  0  0  0  0
  138.8180   69.6640  223.3590 C   0  0  0  0  0  0  0  0  0  0  0  0
  139.1630   68.8210  224.4190 C   0  0  0  0  0  0  0  0  0  0  0  0
  139.7940   69.3480  225.5540 C   0  0  0  0  0  0  0  0  0  0  0  0
  140.1590   68.5300  226.6340 C   0  0  0  0  0  0  0  0  0  0  0  0
  140.8010   69.0860  227.7460 C   0  0  0  0  0  0  0  0  0  0  0  0
  141.2580   68.0630  229.0960 Cl  0  0  0  0  0  0  0  0  0  0  0  0
  141.0730   70.4600  227.7870 C   0  0  0  0  0  0  0  0  0  0  0  0
  140.7040   71.2820  226.7180 C   0  0  0  0  0  0  0  0  0  0  0  0
  140.0680   70.7320  225.6010 C   0  0  0  0  0  0  0  0  0  0  0  0
  139.7180   71.5270  224.5550 N   0  0  0  0  0  0  0  0  0  0  0  0
  137.8180   73.8040  222.7530 H   0  0  0  0  0  0  0  0  0  0  0  0
  141.4810   72.2220  220.3378 H   0  0  0  0  0  0  0  0  0  0  0  0
  139.5660   73.7890  223.0170 H   0  0  0  0  0  0  0  0  0  0  0  0
  140.2949   76.6859  220.3588 H   0  0  0  0  0  0  0  0  0  0  0  0
  141.3174   76.4543  221.8326 H   0  0  0  0  0  0  0  0  0  0  0  0
  142.2098   78.2137  220.3180 H   0  0  0  0  0  0  0  0  0  0  0  0
  143.3391   76.8153  220.5287 H   0  0  0  0  0  0  0  0  0  0  0  0
  141.6164   77.5380  218.1366 H   0  0  0  0  0  0  0  0  0  0  0  0
  143.4245   77.2583  218.2569 H   0  0  0  0  0  0  0  0  0  0  0  0
  141.3168   75.4039  217.5629 H   0  0  0  0  0  0  0  0  0  0  0  0
  143.1549   75.2320  217.5577 H   0  0  0  0  0  0  0  0  0  0  0  0
  141.6714   73.5601  218.8230 H   0  0  0  0  0  0  0  0  0  0  0  0
  143.1883   71.9367  218.8363 H   0  0  0  0  0  0  0  0  0  0  0  0
  145.3274   70.9496  219.6433 H   0  0  0  0  0  0  0  0  0  0  0  0
  146.9245   72.3344  220.9737 H   0  0  0  0  0  0  0  0  0  0  0  0
  146.3830   74.7169  221.4806 H   0  0  0  0  0  0  0  0  0  0  0  0
  144.2311   75.7073  220.7066 H   0  0  0  0  0  0  0  0  0  0  0  0
  138.3243   69.2548  222.4652 H   0  0  0  0  0  0  0  0  0  0  0  0
  138.9396   67.7454  224.3625 H   0  0  0  0  0  0  0  0  0  0  0  0
  139.9406   67.4523  226.6065 H   0  0  0  0  0  0  0  0  0  0  0  0
  141.5783   70.8931  228.6628 H   0  0  0  0  0  0  0  0  0  0  0  0
  140.9140   72.3611  226.7557 H   0  0  0  0  0  0  0  0  0  0  0  0
  1  2  1  0
  2  3  2  0
  3  4  1  0
  4  5  2  0
  5  6  1  0
  5  7  1  0
  7  8  1  0
  8  9  1  0
  9 10  1  0
 10 11  1  0
 11 12  1  0
 12 13  1  0
 13 14  2  0
 14 15  1  0
 15 16  2  0
 16 17  1  0
 17 18  2  0
  2 19  1  0
 19 20  2  0
 20 21  1  0
 21 22  2  0
 22 23  1  0
 23 24  2  0
 24 25  1  0
 24 26  1  0
 26 27  2  0
 27 28  1  0
 28 29  2  0
 12  7  1  0
 18 13  1  0
 29 19  1  0
 28 22  1  0
  1 30  1  0
  4 31  1  0
  6 32  1  0
  8 33  1  0
  8 34  1  0
  9 35  1  0
  9 36  1  0
 10 37  1  0
 10 38  1  0
 11 39  1  0
 11 40  1  0
 12 41  1  6
 14 42  1  0
 15 43  1  0
 16 44  1  0
 17 45  1  0
 18 46  1  0
 20 47  1  0
 21 48  1  0
 23 49  1  0
 26 50  1  0
 27 51  1  0
M  END
>  <meeko>  (16) 
{"free_energy": -8.53, "intermolecular_energy": -10.92, "internal_energy": -2.4, "cluster_size": 9, "cluster_id": 2, "rank_in_cluster": 2}

$$$$

     RDKit          3D

 51 54  0  0  0  0  0  0  0  0999 V2000
  138.7630   73.0330  221.2910 O   0  0  0  0  0  0  0  0  0  0  0  0
  139.8820   72.9190  222.1230 C   0  0  0  0  0  0  0  0  0  0  0  0
  140.9260   73.6850  221.9940 N   0  0  0  0  0  0  0  0  0  0  0  0
  141.0000   74.9710  221.3670 C   0  0  0  0  0  0  0  0  0  0  0  0
  139.9890   75.8330  221.5190 C   0  0  0  0  0  0  0  0  0  0  0  0
  138.9330   75.5430  222.3830 O   0  0  0  0  0  0  0  0  0  0  0  0
  139.9730   77.0660  220.7850 N   0  0  0  0  0  0  0  0  0  0  0  0
  138.6980   77.4960  220.1970 C   0  0  0  0  0  0  0  0  0  0  0  0
  138.7420   78.9680  219.8080 C   0  0  0  0  0  0  0  0  0  0  0  0
  139.8940   79.2520  218.8390 C   0  0  0  0  0  0  0  0  0  0  0  0
  141.2250   78.5580  219.2090 C   0  0  0  0  0  0  0  0  0  0  0  0
  141.2380   77.7910  220.5580 C   0  0  1  0  0  0  0  0  0  0  0  0
  141.6000   78.6390  221.7740 C   0  0  0  0  0  0  0  0  0  0  0  0
  142.1700   79.9110  221.5640 C   0  0  0  0  0  0  0  0  0  0  0  0
  142.5770   80.7010  222.6440 C   0  0  0  0  0  0  0  0  0  0  0  0
  142.4090   80.2390  223.9510 C   0  0  0  0  0  0  0  0  0  0  0  0
  141.8280   78.9900  224.1790 C   0  0  0  0  0  0  0  0  0  0  0  0
  141.4290   78.1920  223.1020 C   0  0  0  0  0  0  0  0  0  0  0  0
  139.9090   71.8750  223.1640 C   0  0  0  0  0  0  0  0  0  0  0  0
  139.4820   70.5650  222.8940 C   0  0  0  0  0  0  0  0  0  0  0  0
  139.5520   69.5950  223.8980 C   0  0  0  0  0  0  0  0  0  0  0  0
  140.0500   69.9340  225.1630 C   0  0  0  0  0  0  0  0  0  0  0  0
  140.1410   68.9830  226.1910 C   0  0  0  0  0  0  0  0  0  0  0  0
  140.6560   69.3510  227.4390 C   0  0  0  0  0  0  0  0  0  0  0  0
  140.7700   68.1630  228.7260 Cl  0  0  0  0  0  0  0  0  0  0  0  0
  141.0750   70.6690  227.6660 C   0  0  0  0  0  0  0  0  0  0  0  0
  140.9800   71.6230  226.6480 C   0  0  0  0  0  0  0  0  0  0  0  0
  140.4710   71.2610  225.3970 C   0  0  0  0  0  0  0  0  0  0  0  0
  140.3880   72.1830  224.4020 N   0  0  0  0  0  0  0  0  0  0  0  0
  138.2330   73.8830  221.1730 H   0  0  0  0  0  0  0  0  0  0  0  0
  141.8796   75.2466  220.7666 H   0  0  0  0  0  0  0  0  0  0  0  0
  138.8090   74.6220  222.7890 H   0  0  0  0  0  0  0  0  0  0  0  0
  138.4949   76.8932  219.2996 H   0  0  0  0  0  0  0  0  0  0  0  0
  137.9036   77.3560  220.9449 H   0  0  0  0  0  0  0  0  0  0  0  0
  137.7919   79.2398  219.3249 H   0  0  0  0  0  0  0  0  0  0  0  0
  138.8990   79.5640  220.7191 H   0  0  0  0  0  0  0  0  0  0  0  0
  139.5939   78.9092  217.8378 H   0  0  0  0  0  0  0  0  0  0  0  0
  140.0816   80.3350  218.8829 H   0  0  0  0  0  0  0  0  0  0  0  0
  141.4638   77.8398  218.4108 H   0  0  0  0  0  0  0  0  0  0  0  0
  141.9616   79.3674  219.3199 H   0  0  0  0  0  0  0  0  0  0  0  0
  142.0563   77.0636  220.4520 H   0  0  0  0  0  0  0  0  0  0  0  0
  142.2963   80.2870  220.5380 H   0  0  0  0  0  0  0  0  0  0  0  0
  143.0298   81.6871  222.4637 H   0  0  0  0  0  0  0  0  0  0  0  0
  142.7340   80.8583  224.8000 H   0  0  0  0  0  0  0  0  0  0  0  0
  141.6836   78.6325  225.2092 H   0  0  0  0  0  0  0  0  0  0  0  0
  140.9777   77.2069  223.2915 H   0  0  0  0  0  0  0  0  0  0  0  0
  139.0946   70.3036  221.8982 H   0  0  0  0  0  0  0  0  0  0  0  0
  139.2167   68.5672  223.6953 H   0  0  0  0  0  0  0  0  0  0  0  0
  139.8079   67.9494  226.0159 H   0  0  0  0  0  0  0  0  0  0  0  0
  141.4799   70.9540  228.6482 H   0  0  0  0  0  0  0  0  0  0  0  0
  141.3055   72.6576  226.8313 H   0  0  0  0  0  0  0  0  0  0  0  0
  1  2  1  0
  2  3  2  0
  3  4  1  0
  4  5  2  0
  5  6  1  0
  5  7  1  0
  7  8  1  0
  8  9  1  0
  9 10  1  0
 10 11  1  0
 11 12  1  0
 12 13  1  0
 13 14  2  0
 14 15  1  0
 15 16  2  0
 16 17  1  0
 17 18  2  0
  2 19  1  0
 19 20  2  0
 20 21  1  0
 21 22  2  0
 22 23  1  0
 23 24  2  0
 24 25  1  0
 24 26  1  0
 26 27  2  0
 27 28  1  0
 28 29  2  0
 12  7  1  0
 18 13  1  0
 29 19  1  0
 28 22  1  0
  1 30  1  0
  4 31  1  0
  6 32  1  0
  8 33  1  0
  8 34  1  0
  9 35  1  0
  9 36  1  0
 10 37  1  0
 10 38  1  0
 11 39  1  0
 11 40  1  0
 12 41  1  6
 14 42  1  0
 15 43  1  0
 16 44  1  0
 17 45  1  0
 18 46  1  0
 20 47  1  0
 21 48  1  0
 23 49  1  0
 26 50  1  0
 27 51  1  0
M  END
>  <meeko>  (17) 
{"free_energy": -8.42, "intermolecular_energy": -10.81, "internal_energy": -2.43, "cluster_size": 9, "cluster_id": 1, "rank_in_cluster": 3}

$$$$

     RDKit          3D

 51 54  0  0  0  0  0  0  0  0999 V2000
  137.6370   72.8200  222.4870 O   0  0  0  0  0  0  0  0  0  0  0  0
  138.7710   72.0070  222.3770 C   0  0  0  0  0  0  0  0  0  0  0  0
  139.5280   72.0090  221.3180 N   0  0  0  0  0  0  0  0  0  0  0  0
  139.9210   73.1320  220.5210 C   0  0  0  0  0  0  0  0  0  0  0  0
  140.2060   74.2940  221.1200 C   0  0  0  0  0  0  0  0  0  0  0  0
  139.6360   74.6160  222.3520 O   0  0  0  0  0  0  0  0  0  0  0  0
  141.0980   75.2300  220.4980 N   0  0  0  0  0  0  0  0  0  0  0  0
  140.9740   76.6440  220.8710 C   0  0  0  0  0  0  0  0  0  0  0  0
  142.2080   77.4330  220.4500 C   0  0  0  0  0  0  0  0  0  0  0  0
  142.4620   77.3030  218.9440 C   0  0  0  0  0  0  0  0  0  0  0  0
  142.2900   75.8700  218.3890 C   0  0  0  0  0  0  0  0  0  0  0  0
  142.0160   74.7640  219.4410 C   0  0  1  0  0  0  0  0  0  0  0  0
  143.2670   74.1360  220.0510 C   0  0  0  0  0  0  0  0  0  0  0  0
  144.4100   74.9420  220.2250 C   0  0  0  0  0  0  0  0  0  0  0  0
  145.6000   74.4000  220.7210 C   0  0  0  0  0  0  0  0  0  0  0  0
  145.6630   73.0480  221.0640 C   0  0  0  0  0  0  0  0  0  0  0  0
  144.5350   72.2390  220.9170 C   0  0  0  0  0  0  0  0  0  0  0  0
  143.3460   72.7730  220.4120 C   0  0  0  0  0  0  0  0  0  0  0  0
  139.1130   71.0860  223.4750 C   0  0  0  0  0  0  0  0  0  0  0  0
  138.8650   69.7080  223.3760 C   0  0  0  0  0  0  0  0  0  0  0  0
  139.2320   68.8620  224.4250 C   0  0  0  0  0  0  0  0  0  0  0  0
  139.8470   69.3920  225.5670 C   0  0  0  0  0  0  0  0  0  0  0  0
  140.2350   68.5700  226.6370 C   0  0  0  0  0  0  0  0  0  0  0  0
  140.8590   69.1300  227.7570 C   0  0  0  0  0  0  0  0  0  0  0  0
  141.3450   68.1040  229.0950 Cl  0  0  0  0  0  0  0  0  0  0  0  0
  141.0920   70.5110  227.8160 C   0  0  0  0  0  0  0  0  0  0  0  0
  140.7010   71.3360  226.7570 C   0  0  0  0  0  0  0  0  0  0  0  0
  140.0820   70.7830  225.6320 C   0  0  0  0  0  0  0  0  0  0  0  0
  139.7100   71.5810  224.5970 N   0  0  0  0  0  0  0  0  0  0  0  0
  137.6600   73.7800  222.7920 H   0  0  0  0  0  0  0  0  0  0  0  0
  139.9879   73.0402  219.4269 H   0  0  0  0  0  0  0  0  0  0  0  0
  139.3670   73.9030  223.0220 H   0  0  0  0  0  0  0  0  0  0  0  0
  140.0890   77.0699  220.3756 H   0  0  0  0  0  0  0  0  0  0  0  0
  140.8740   76.7093  221.9645 H   0  0  0  0  0  0  0  0  0  0  0  0
  142.0574   78.4940  220.6982 H   0  0  0  0  0  0  0  0  0  0  0  0
  143.0793   77.0291  220.9863 H   0  0  0  0  0  0  0  0  0  0  0  0
  141.7565   77.9628  218.4178 H   0  0  0  0  0  0  0  0  0  0  0  0
  143.5134   77.5802  218.7777 H   0  0  0  0  0  0  0  0  0  0  0  0
  141.4458   75.8809  217.6839 H   0  0  0  0  0  0  0  0  0  0  0  0
  143.2554   75.6110  217.9297 H   0  0  0  0  0  0  0  0  0  0  0  0
  141.5289   73.9591  218.8709 H   0  0  0  0  0  0  0  0  0  0  0  0
  144.3656   76.0105  219.9675 H   0  0  0  0  0  0  0  0  0  0  0  0
  146.4871   75.0393  220.8410 H   0  0  0  0  0  0  0  0  0  0  0  0
  146.6005   72.6209  221.4496 H   0  0  0  0  0  0  0  0  0  0  0  0
  144.5820   71.1770  221.1997 H   0  0  0  0  0  0  0  0  0  0  0  0
  142.4642   72.1259  220.2948 H   0  0  0  0  0  0  0  0  0  0  0  0
  138.3839   69.2963  222.4765 H   0  0  0  0  0  0  0  0  0  0  0  0
  139.0385   67.7814  224.3547 H   0  0  0  0  0  0  0  0  0  0  0  0
  140.0486   67.4867  226.5948 H   0  0  0  0  0  0  0  0  0  0  0  0
  141.5839   70.9470  228.6980 H   0  0  0  0  0  0  0  0  0  0  0  0
  140.8804   72.4200  226.8090 H   0  0  0  0  0  0  0  0  0  0  0  0
  1  2  1  0
  2  3  2  0
  3  4  1  0
  4  5  2  0
  5  6  1  0
  5  7  1  0
  7  8  1  0
  8  9  1  0
  9 10  1  0
 10 11  1  0
 11 12  1  0
 12 13  1  0
 13 14  2  0
 14 15  1  0
 15 16  2  0
 16 17  1  0
 17 18  2  0
  2 19  1  0
 19 20  2  0
 20 21  1  0
 21 22  2  0
 22 23  1  0
 23 24  2  0
 24 25  1  0
 24 26  1  0
 26 27  2  0
 27 28  1  0
 28 29  2  0
 12  7  1  0
 18 13  1  0
 29 19  1  0
 28 22  1  0
  1 30  1  0
  4 31  1  0
  6 32  1  0
  8 33  1  0
  8 34  1  0
  9 35  1  0
  9 36  1  0
 10 37  1  0
 10 38  1  0
 11 39  1  0
 11 40  1  0
 12 41  1  6
 14 42  1  0
 15 43  1  0
 16 44  1  0
 17 45  1  0
 18 46  1  0
 20 47  1  0
 21 48  1  0
 23 49  1  0
 26 50  1  0
 27 51  1  0
M  END
>  <meeko>  (18) 
{"free_energy": -8.41, "intermolecular_energy": -10.79, "internal_energy": -2.48, "cluster_size": 9, "cluster_id": 2, "rank_in_cluster": 6}

$$$$

     RDKit          3D

 51 54  0  0  0  0  0  0  0  0999 V2000
  138.5320   73.2030  221.9790 O   0  0  0  0  0  0  0  0  0  0  0  0
  139.7860   72.8260  222.4700 C   0  0  0  0  0  0  0  0  0  0  0  0
  140.8930   73.3370  222.0150 N   0  0  0  0  0  0  0  0  0  0  0  0
  141.0490   74.4740  221.1580 C   0  0  0  0  0  0  0  0  0  0  0  0
  140.3500   75.5860  221.4110 C   0  0  0  0  0  0  0  0  0  0  0  0
  139.4960   75.6520  222.5120 O   0  0  0  0  0  0  0  0  0  0  0  0
  140.4630   76.7250  220.5450 N   0  0  0  0  0  0  0  0  0  0  0  0
  139.4210   76.9180  219.5300 C   0  0  0  0  0  0  0  0  0  0  0  0
  139.4540   78.3360  218.9730 C   0  0  0  0  0  0  0  0  0  0  0  0
  140.8290   78.6700  218.3890 C   0  0  0  0  0  0  0  0  0  0  0  0
  142.0220   78.2020  219.2550 C   0  0  0  0  0  0  0  0  0  0  0  0
  141.6590   77.5840  220.6310 C   0  0  1  0  0  0  0  0  0  0  0  0
  141.5190   78.5940  221.7680 C   0  0  0  0  0  0  0  0  0  0  0  0
  142.5360   79.5520  221.9500 C   0  0  0  0  0  0  0  0  0  0  0  0
  142.4850   80.4570  223.0140 C   0  0  0  0  0  0  0  0  0  0  0  0
  141.4110   80.4290  223.9060 C   0  0  0  0  0  0  0  0  0  0  0  0
  140.3840   79.5000  223.7300 C   0  0  0  0  0  0  0  0  0  0  0  0
  140.4350   78.5850  222.6740 C   0  0  0  0  0  0  0  0  0  0  0  0
  139.8750   71.7890  223.5130 C   0  0  0  0  0  0  0  0  0  0  0  0
  139.5000   70.4610  223.2560 C   0  0  0  0  0  0  0  0  0  0  0  0
  139.6290   69.4990  224.2610 C   0  0  0  0  0  0  0  0  0  0  0  0
  140.1320   69.8640  225.5160 C   0  0  0  0  0  0  0  0  0  0  0  0
  140.2800   68.9220  226.5460 C   0  0  0  0  0  0  0  0  0  0  0  0
  140.7990   69.3180  227.7850 C   0  0  0  0  0  0  0  0  0  0  0  0
  140.9850   68.1410  229.0730 Cl  0  0  0  0  0  0  0  0  0  0  0  0
  141.1650   70.6530  228.0000 C   0  0  0  0  0  0  0  0  0  0  0  0
  141.0120   71.5970  226.9800 C   0  0  0  0  0  0  0  0  0  0  0  0
  140.4990   71.2090  225.7390 C   0  0  0  0  0  0  0  0  0  0  0  0
  140.3600   72.1220  224.7430 N   0  0  0  0  0  0  0  0  0  0  0  0
  138.0400   74.0350  222.2680 H   0  0  0  0  0  0  0  0  0  0  0  0
  141.7367   74.4331  220.3004 H   0  0  0  0  0  0  0  0  0  0  0  0
  139.3370   74.8530  223.1170 H   0  0  0  0  0  0  0  0  0  0  0  0
  139.5836   76.2053  218.7081 H   0  0  0  0  0  0  0  0  0  0  0  0
  138.4405   76.7496  219.9993 H   0  0  0  0  0  0  0  0  0  0  0  0
  138.6960   78.4281  218.1812 H   0  0  0  0  0  0  0  0  0  0  0  0
  139.2448   79.0375  219.7941 H   0  0  0  0  0  0  0  0  0  0  0  0
  140.9100   78.1890  217.4031 H   0  0  0  0  0  0  0  0  0  0  0  0
  140.8900   79.7671  218.3374 H   0  0  0  0  0  0  0  0  0  0  0  0
  142.5782   77.4456  218.6819 H   0  0  0  0  0  0  0  0  0  0  0  0
  142.6010   79.1099  219.4798 H   0  0  0  0  0  0  0  0  0  0  0  0
  142.5287   76.9631  220.8921 H   0  0  0  0  0  0  0  0  0  0  0  0
  143.3805   79.5882  221.2461 H   0  0  0  0  0  0  0  0  0  0  0  0
  143.2920   81.1922  223.1489 H   0  0  0  0  0  0  0  0  0  0  0  0
  141.3743   81.1380  224.7462 H   0  0  0  0  0  0  0  0  0  0  0  0
  139.5313   79.4878  224.4248 H   0  0  0  0  0  0  0  0  0  0  0  0
  139.6245   77.8521  222.5476 H   0  0  0  0  0  0  0  0  0  0  0  0
  139.1065   70.1791  222.2682 H   0  0  0  0  0  0  0  0  0  0  0  0
  139.3360   68.4567  224.0668 H   0  0  0  0  0  0  0  0  0  0  0  0
  139.9888   67.8743  226.3803 H   0  0  0  0  0  0  0  0  0  0  0  0
  141.5739   70.9595  228.9741 H   0  0  0  0  0  0  0  0  0  0  0  0
  141.2955   72.6455  227.1542 H   0  0  0  0  0  0  0  0  0  0  0  0
  1  2  1  0
  2  3  2  0
  3  4  1  0
  4  5  2  0
  5  6  1  0
  5  7  1  0
  7  8  1  0
  8  9  1  0
  9 10  1  0
 10 11  1  0
 11 12  1  0
 12 13  1  0
 13 14  2  0
 14 15  1  0
 15 16  2  0
 16 17  1  0
 17 18  2  0
  2 19  1  0
 19 20  2  0
 20 21  1  0
 21 22  2  0
 22 23  1  0
 23 24  2  0
 24 25  1  0
 24 26  1  0
 26 27  2  0
 27 28  1  0
 28 29  2  0
 12  7  1  0
 18 13  1  0
 29 19  1  0
 28 22  1  0
  1 30  1  0
  4 31  1  0
  6 32  1  0
  8 33  1  0
  8 34  1  0
  9 35  1  0
  9 36  1  0
 10 37  1  0
 10 38  1  0
 11 39  1  0
 11 40  1  0
 12 41  1  1
 14 42  1  0
 15 43  1  0
 16 44  1  0
 17 45  1  0
 18 46  1  0
 20 47  1  0
 21 48  1  0
 23 49  1  0
 26 50  1  0
 27 51  1  0
M  END
>  <meeko>  (19) 
{"free_energy": -8.28, "intermolecular_energy": -10.66, "internal_energy": -2.43, "cluster_size": 9, "cluster_id": 1, "rank_in_cluster": 6}

$$$$

     RDKit          3D

 51 54  0  0  0  0  0  0  0  0999 V2000
  138.8020   73.1030  221.2350 O   0  0  0  0  0  0  0  0  0  0  0  0
  139.9080   72.9830  222.0820 C   0  0  0  0  0  0  0  0  0  0  0  0
  140.9630   73.7360  221.9590 N   0  0  0  0  0  0  0  0  0  0  0  0
  141.0160   75.1620  221.8400 C   0  0  0  0  0  0  0  0  0  0  0  0
  139.8770   75.8630  221.8650 C   0  0  0  0  0  0  0  0  0  0  0  0
  138.7870   75.4220  222.6150 O   0  0  0  0  0  0  0  0  0  0  0  0
  139.7590   77.0790  221.1110 N   0  0  0  0  0  0  0  0  0  0  0  0
  138.4140   77.5050  220.7080 C   0  0  0  0  0  0  0  0  0  0  0  0
  138.4070   78.9670  220.2790 C   0  0  0  0  0  0  0  0  0  0  0  0
  139.4040   79.2170  219.1430 C   0  0  0  0  0  0  0  0  0  0  0  0
  140.7720   78.5200  219.3290 C   0  0  0  0  0  0  0  0  0  0  0  0
  140.9800   77.7860  220.6800 C   0  0  1  0  0  0  0  0  0  0  0  0
  141.5240   78.6610  221.8070 C   0  0  0  0  0  0  0  0  0  0  0  0
  141.3690   78.2220  223.1370 C   0  0  0  0  0  0  0  0  0  0  0  0
  141.7940   79.0160  224.2070 C   0  0  0  0  0  0  0  0  0  0  0  0
  142.3930   80.2540  223.9650 C   0  0  0  0  0  0  0  0  0  0  0  0
  142.5730   80.6960  222.6530 C   0  0  0  0  0  0  0  0  0  0  0  0
  142.1400   79.9110  221.5800 C   0  0  0  0  0  0  0  0  0  0  0  0
  139.9100   71.9490  223.1330 C   0  0  0  0  0  0  0  0  0  0  0  0
  139.4320   70.6530  222.8820 C   0  0  0  0  0  0  0  0  0  0  0  0
  139.4790   69.6910  223.8940 C   0  0  0  0  0  0  0  0  0  0  0  0
  140.0040   70.0230  225.1490 C   0  0  0  0  0  0  0  0  0  0  0  0
  140.0720   69.0790  226.1860 C   0  0  0  0  0  0  0  0  0  0  0  0
  140.6150   69.4410  227.4250 C   0  0  0  0  0  0  0  0  0  0  0  0
  140.7010   68.2610  228.7210 Cl  0  0  0  0  0  0  0  0  0  0  0  0
  141.0850   70.7440  227.6330 C   0  0  0  0  0  0  0  0  0  0  0  0
  141.0120   71.6910  226.6070 C   0  0  0  0  0  0  0  0  0  0  0  0
  140.4760   71.3360  225.3660 C   0  0  0  0  0  0  0  0  0  0  0  0
  140.4140   72.2510  224.3630 N   0  0  0  0  0  0  0  0  0  0  0  0
  138.2620   73.9480  221.1300 H   0  0  0  0  0  0  0  0  0  0  0  0
  141.9826   75.6753  221.7292 H   0  0  0  0  0  0  0  0  0  0  0  0
  138.7170   74.4660  222.9480 H   0  0  0  0  0  0  0  0  0  0  0  0
  138.0770   76.8821  219.8663 H   0  0  0  0  0  0  0  0  0  0  0  0
  137.7387   77.3903  221.5687 H   0  0  0  0  0  0  0  0  0  0  0  0
  137.3971   79.2350  219.9352 H   0  0  0  0  0  0  0  0  0  0  0  0
  138.7003   79.5839  221.1412 H   0  0  0  0  0  0  0  0  0  0  0  0
  138.9568   78.8528  218.2063 H   0  0  0  0  0  0  0  0  0  0  0  0
  139.6019   80.2990  219.1313 H   0  0  0  0  0  0  0  0  0  0  0  0
  140.8860   77.7806  218.5226 H   0  0  0  0  0  0  0  0  0  0  0  0
  141.5215   79.3248  219.3088 H   0  0  0  0  0  0  0  0  0  0  0  0
  141.7685   77.0477  220.4723 H   0  0  0  0  0  0  0  0  0  0  0  0
  140.9083   77.2432  223.3360 H   0  0  0  0  0  0  0  0  0  0  0  0
  141.6563   78.6649  225.2403 H   0  0  0  0  0  0  0  0  0  0  0  0
  142.7227   80.8802  224.8071 H   0  0  0  0  0  0  0  0  0  0  0  0
  143.0572   81.6652  222.4627 H   0  0  0  0  0  0  0  0  0  0  0  0
  142.2805   80.2705  220.5499 H   0  0  0  0  0  0  0  0  0  0  0  0
  139.0227   70.3964  221.8938 H   0  0  0  0  0  0  0  0  0  0  0  0
  139.1041   68.6742  223.7052 H   0  0  0  0  0  0  0  0  0  0  0  0
  139.6993   68.0566  226.0255 H   0  0  0  0  0  0  0  0  0  0  0  0
  141.5131   71.0232  228.6070 H   0  0  0  0  0  0  0  0  0  0  0  0
  141.3762   72.7150  226.7764 H   0  0  0  0  0  0  0  0  0  0  0  0
  1  2  1  0
  2  3  2  0
  3  4  1  0
  4  5  2  0
  5  6  1  0
  5  7  1  0
  7  8  1  0
  8  9  1  0
  9 10  1  0
 10 11  1  0
 11 12  1  0
 12 13  1  0
 13 14  2  0
 14 15  1  0
 15 16  2  0
 16 17  1  0
 17 18  2  0
  2 19  1  0
 19 20  2  0
 20 21  1  0
 21 22  2  0
 22 23  1  0
 23 24  2  0
 24 25  1  0
 24 26  1  0
 26 27  2  0
 27 28  1  0
 28 29  2  0
 12  7  1  0
 18 13  1  0
 29 19  1  0
 28 22  1  0
  1 30  1  0
  4 31  1  0
  6 32  1  0
  8 33  1  0
  8 34  1  0
  9 35  1  0
  9 36  1  0
 10 37  1  0
 10 38  1  0
 11 39  1  0
 11 40  1  0
 12 41  1  6
 14 42  1  0
 15 43  1  0
 16 44  1  0
 17 45  1  0
 18 46  1  0
 20 47  1  0
 21 48  1  0
 23 49  1  0
 26 50  1  0
 27 51  1  0
M  END
>  <meeko>  (20) 
{"free_energy": -8.26, "intermolecular_energy": -10.65, "internal_energy": -2.3, "cluster_size": 9, "cluster_id": 1, "rank_in_cluster": 7}

$$$$
