
     RDKit          3D

 45 48  0  0  0  0  0  0  0  0999 V2000
  139.8370   71.7640  220.9160 O   0  0  0  0  0  0  0  0  0  0  0  0
  139.7620   72.2920  222.0600 C   0  0  0  0  0  0  0  0  0  0  0  0
  139.6970   73.7210  222.1800 N   0  0  0  0  0  0  0  0  0  0  0  0
  139.8200   74.5890  221.0100 C   0  0  0  0  0  0  0  0  0  0  0  0
  140.5180   75.8780  221.3730 C   0  0  0  0  0  0  0  0  0  0  0  0
  140.9020   76.0190  222.7120 O   0  0  0  0  0  0  0  0  0  0  0  0
  140.7840   76.8150  220.4850 N   0  0  0  0  0  0  0  0  0  0  0  0
  139.9670   77.0380  219.2950 C   0  0  0  0  0  0  0  0  0  0  0  0
  140.5950   78.2110  218.5550 C   0  0  0  0  0  0  0  0  0  0  0  0
  141.9910   78.3750  219.1400 C   0  0  0  0  0  0  0  0  0  0  0  0
  141.9450   77.7100  220.5170 C   0  0  1  0  0  0  0  0  0  0  0  0
  141.8100   78.7410  221.6120 C   0  0  0  0  0  0  0  0  0  0  0  0
  141.7330   80.1140  221.3780 C   0  0  0  0  0  0  0  0  0  0  0  0
  141.6350   80.8790  222.8700 S   0  0  0  0  0  0  0  0  0  0  0  0
  141.6960   79.4480  223.7470 C   0  0  0  0  0  0  0  0  0  0  0  0
  141.7950   78.3810  222.9250 N   0  0  0  0  0  0  0  0  0  0  0  0
  139.7620   71.4350  223.2660 C   0  0  0  0  0  0  0  0  0  0  0  0
  139.2020   70.1460  223.2410 C   0  0  0  0  0  0  0  0  0  0  0  0
  139.2410   69.3520  224.3890 C   0  0  0  0  0  0  0  0  0  0  0  0
  139.8370   69.8420  225.5560 C   0  0  0  0  0  0  0  0  0  0  0  0
  139.8960   69.0690  226.7250 C   0  0  0  0  0  0  0  0  0  0  0  0
  140.5010   69.5880  227.8750 C   0  0  0  0  0  0  0  0  0  0  0  0
  140.5610   68.8400  229.0050 F   0  0  0  0  0  0  0  0  0  0  0  0
  141.0450   70.8780  227.8630 C   0  0  0  0  0  0  0  0  0  0  0  0
  140.9880   71.6540  226.7020 C   0  0  0  0  0  0  0  0  0  0  0  0
  140.3850   71.1430  225.5480 C   0  0  0  0  0  0  0  0  0  0  0  0
  140.3310   71.8930  224.4150 N   0  0  0  0  0  0  0  0  0  0  0  0
  139.5710   74.1490  223.1250 H   0  0  0  0  0  0  0  0  0  0  0  0
  140.4017   74.0693  220.2344 H   0  0  0  0  0  0  0  0  0  0  0  0
  138.8124   74.8251  220.6372 H   0  0  0  0  0  0  0  0  0  0  0  0
  141.8260   76.3070  223.0030 H   0  0  0  0  0  0  0  0  0  0  0  0
  139.9699   76.1411  218.6582 H   0  0  0  0  0  0  0  0  0  0  0  0
  138.9215   77.2500  219.5635 H   0  0  0  0  0  0  0  0  0  0  0  0
  140.6545   77.9961  217.4778 H   0  0  0  0  0  0  0  0  0  0  0  0
  139.9983   79.1278  218.6714 H   0  0  0  0  0  0  0  0  0  0  0  0
  142.7356   77.8794  218.4997 H   0  0  0  0  0  0  0  0  0  0  0  0
  142.2791   79.4342  219.2107 H   0  0  0  0  0  0  0  0  0  0  0  0
  142.8719   77.1578  220.7313 H   0  0  0  0  0  0  0  0  0  0  0  0
  141.7359   80.6065  220.3944 H   0  0  0  0  0  0  0  0  0  0  0  0
  141.6601   79.3878  224.8448 H   0  0  0  0  0  0  0  0  0  0  0  0
  138.7350   69.7644  222.3210 H   0  0  0  0  0  0  0  0  0  0  0  0
  138.8037   68.3427  224.3758 H   0  0  0  0  0  0  0  0  0  0  0  0
  139.4672   68.0561  226.7377 H   0  0  0  0  0  0  0  0  0  0  0  0
  141.5186   71.2819  228.7699 H   0  0  0  0  0  0  0  0  0  0  0  0
  141.4174   72.6667  226.6958 H   0  0  0  0  0  0  0  0  0  0  0  0
  1  2  2  0
  2  3  1  0
  3  4  1  0
  4  5  1  0
  5  6  1  0
  5  7  2  0
  7  8  1  0
  8  9  1  0
  9 10  1  0
 10 11  1  0
 11 12  1  0
 12 13  2  0
 13 14  1  0
 14 15  1  0
 15 16  2  0
  2 17  1  0
 17 18  2  0
 18 19  1  0
 19 20  2  0
 20 21  1  0
 21 22  2  0
 22 23  1  0
 22 24  1  0
 24 25  2  0
 25 26  1  0
 26 27  2  0
 11  7  1  0
 16 12  1  0
 27 17  1  0
 26 20  1  0
  3 28  1  0
  4 29  1  0
  4 30  1  0
  6 31  1  0
  8 32  1  0
  8 33  1  0
  9 34  1  0
  9 35  1  0
 10 36  1  0
 10 37  1  0
 11 38  1  1
 13 39  1  0
 15 40  1  0
 18 41  1  0
 19 42  1  0
 21 43  1  0
 24 44  1  0
 25 45  1  0
M  CHG  1   7   1
M  END
>  <meeko>  (1) 
{"free_energy": -7.73, "intermolecular_energy": -9.52, "internal_energy": -1.97, "cluster_size": 16, "cluster_id": 1, "rank_in_cluster": 5}

$$$$

     RDKit          3D

 45 48  0  0  0  0  0  0  0  0999 V2000
  140.7210   71.7780  221.0910 O   0  0  0  0  0  0  0  0  0  0  0  0
  140.2630   72.2830  222.1530 C   0  0  0  0  0  0  0  0  0  0  0  0
  139.9600   73.6850  222.1990 N   0  0  0  0  0  0  0  0  0  0  0  0
  140.2650   74.5670  221.0730 C   0  0  0  0  0  0  0  0  0  0  0  0
  140.1000   76.0150  221.4690 C   0  0  0  0  0  0  0  0  0  0  0  0
  139.5650   76.2530  222.7400 O   0  0  0  0  0  0  0  0  0  0  0  0
  140.4630   77.0100  220.6850 N   0  0  0  0  0  0  0  0  0  0  0  0
  139.7140   77.3970  219.4920 C   0  0  0  0  0  0  0  0  0  0  0  0
  140.4460   78.5890  218.8910 C   0  0  0  0  0  0  0  0  0  0  0  0
  141.8230   78.6040  219.5410 C   0  0  0  0  0  0  0  0  0  0  0  0
  141.6760   77.8180  220.8450 C   0  0  1  0  0  0  0  0  0  0  0  0
  141.5590   78.7500  222.0280 C   0  0  0  0  0  0  0  0  0  0  0  0
  142.6110   79.5320  222.5050 C   0  0  0  0  0  0  0  0  0  0  0  0
  142.0510   80.3740  223.8460 S   0  0  0  0  0  0  0  0  0  0  0  0
  140.5080   79.7160  223.7690 C   0  0  0  0  0  0  0  0  0  0  0  0
  140.4010   78.8530  222.7370 N   0  0  0  0  0  0  0  0  0  0  0  0
  140.0650   71.4320  223.3460 C   0  0  0  0  0  0  0  0  0  0  0  0
  139.4190   70.1860  223.2490 C   0  0  0  0  0  0  0  0  0  0  0  0
  139.2700   69.3940  224.3890 C   0  0  0  0  0  0  0  0  0  0  0  0
  139.7610   69.8420  225.6200 C   0  0  0  0  0  0  0  0  0  0  0  0
  139.6310   69.0700  226.7840 C   0  0  0  0  0  0  0  0  0  0  0  0
  140.1350   69.5470  227.9980 C   0  0  0  0  0  0  0  0  0  0  0  0
  140.0110   68.7990  229.1230 F   0  0  0  0  0  0  0  0  0  0  0  0
  140.7680   70.7940  228.0560 C   0  0  0  0  0  0  0  0  0  0  0  0
  140.9010   71.5700  226.9010 C   0  0  0  0  0  0  0  0  0  0  0  0
  140.3990   71.1010  225.6820 C   0  0  0  0  0  0  0  0  0  0  0  0
  140.5290   71.8500  224.5550 N   0  0  0  0  0  0  0  0  0  0  0  0
  139.5230   74.0860  223.0590 H   0  0  0  0  0  0  0  0  0  0  0  0
  141.3031   74.3966  220.7518 H   0  0  0  0  0  0  0  0  0  0  0  0
  139.5694   74.3439  220.2506 H   0  0  0  0  0  0  0  0  0  0  0  0
  139.1500   77.1320  223.0190 H   0  0  0  0  0  0  0  0  0  0  0  0
  139.6879   76.5649  218.7730 H   0  0  0  0  0  0  0  0  0  0  0  0
  138.6735   77.6528  219.7407 H   0  0  0  0  0  0  0  0  0  0  0  0
  140.5385   78.4714  217.8012 H   0  0  0  0  0  0  0  0  0  0  0  0
  139.9038   79.5289  219.0716 H   0  0  0  0  0  0  0  0  0  0  0  0
  142.5620   78.1219  218.8842 H   0  0  0  0  0  0  0  0  0  0  0  0
  142.1735   79.6305  219.7239 H   0  0  0  0  0  0  0  0  0  0  0  0
  142.5559   77.1871  221.0392 H   0  0  0  0  0  0  0  0  0  0  0  0
  143.6240   79.5872  222.0798 H   0  0  0  0  0  0  0  0  0  0  0  0
  139.6926   79.9565  224.4671 H   0  0  0  0  0  0  0  0  0  0  0  0
  139.0332   69.8375  222.2796 H   0  0  0  0  0  0  0  0  0  0  0  0
  138.7668   68.4183  224.3194 H   0  0  0  0  0  0  0  0  0  0  0  0
  139.1329   68.0901  226.7418 H   0  0  0  0  0  0  0  0  0  0  0  0
  141.1622   71.1646  229.0138 H   0  0  0  0  0  0  0  0  0  0  0  0
  141.4001   72.5490  226.9504 H   0  0  0  0  0  0  0  0  0  0  0  0
  1  2  2  0
  2  3  1  0
  3  4  1  0
  4  5  1  0
  5  6  1  0
  5  7  2  0
  7  8  1  0
  8  9  1  0
  9 10  1  0
 10 11  1  0
 11 12  1  0
 12 13  2  0
 13 14  1  0
 14 15  1  0
 15 16  2  0
  2 17  1  0
 17 18  2  0
 18 19  1  0
 19 20  2  0
 20 21  1  0
 21 22  2  0
 22 23  1  0
 22 24  1  0
 24 25  2  0
 25 26  1  0
 26 27  2  0
 11  7  1  0
 16 12  1  0
 27 17  1  0
 26 20  1  0
  3 28  1  0
  4 29  1  0
  4 30  1  0
  6 31  1  0
  8 32  1  0
  8 33  1  0
  9 34  1  0
  9 35  1  0
 10 36  1  0
 10 37  1  0
 11 38  1  1
 13 39  1  0
 15 40  1  0
 18 41  1  0
 19 42  1  0
 21 43  1  0
 24 44  1  0
 25 45  1  0
M  CHG  1   7   1
M  END
>  <meeko>  (2) 
{"free_energy": -7.46, "intermolecular_energy": -9.25, "internal_energy": -2.2, "cluster_size": 16, "cluster_id": 1, "rank_in_cluster": 15}

$$$$

     RDKit          3D

 45 48  0  0  0  0  0  0  0  0999 V2000
  141.2990   72.4720  221.7430 O   0  0  0  0  0  0  0  0  0  0  0  0
  140.2800   72.4940  222.4870 C   0  0  0  0  0  0  0  0  0  0  0  0
  139.2530   73.4690  222.2540 N   0  0  0  0  0  0  0  0  0  0  0  0
  139.4050   74.5080  221.2370 C   0  0  0  0  0  0  0  0  0  0  0  0
  139.9510   75.7770  221.8480 C   0  0  0  0  0  0  0  0  0  0  0  0
  141.3010   75.7580  222.2150 O   0  0  0  0  0  0  0  0  0  0  0  0
  139.2160   76.8600  222.0050 N   0  0  0  0  0  0  0  0  0  0  0  0
  137.9410   76.8610  222.7170 C   0  0  0  0  0  0  0  0  0  0  0  0
  137.4340   78.2970  222.6920 C   0  0  0  0  0  0  0  0  0  0  0  0
  138.2480   79.0080  221.6190 C   0  0  0  0  0  0  0  0  0  0  0  0
  139.5240   78.1820  221.4490 C   0  0  1  0  0  0  0  0  0  0  0  0
  140.6840   78.8230  222.1740 C   0  0  0  0  0  0  0  0  0  0  0  0
  141.4080   79.9050  221.6720 C   0  0  0  0  0  0  0  0  0  0  0  0
  142.6210   80.2610  222.7770 S   0  0  0  0  0  0  0  0  0  0  0  0
  142.1840   79.0360  223.8400 C   0  0  0  0  0  0  0  0  0  0  0  0
  141.1230   78.3440  223.3700 N   0  0  0  0  0  0  0  0  0  0  0  0
  140.1630   71.5310  223.6030 C   0  0  0  0  0  0  0  0  0  0  0  0
  139.5930   70.2600  223.4080 C   0  0  0  0  0  0  0  0  0  0  0  0
  139.5200   69.3630  224.4750 C   0  0  0  0  0  0  0  0  0  0  0  0
  140.0140   69.7320  225.7320 C   0  0  0  0  0  0  0  0  0  0  0  0
  139.9600   68.8540  226.8240 C   0  0  0  0  0  0  0  0  0  0  0  0
  140.4640   69.2540  228.0670 C   0  0  0  0  0  0  0  0  0  0  0  0
  140.4140   68.4040  229.1230 F   0  0  0  0  0  0  0  0  0  0  0  0
  141.0210   70.5290  228.2240 C   0  0  0  0  0  0  0  0  0  0  0  0
  141.0770   71.4090  227.1390 C   0  0  0  0  0  0  0  0  0  0  0  0
  140.5750   71.0180  225.8930 C   0  0  0  0  0  0  0  0  0  0  0  0
  140.6310   71.8700  224.8360 N   0  0  0  0  0  0  0  0  0  0  0  0
  138.3820   73.4430  222.8320 H   0  0  0  0  0  0  0  0  0  0  0  0
  140.0983   74.1540  220.4598 H   0  0  0  0  0  0  0  0  0  0  0  0
  138.4186   74.7219  220.7996 H   0  0  0  0  0  0  0  0  0  0  0  0
  141.8610   76.5900  222.3380 H   0  0  0  0  0  0  0  0  0  0  0  0
  137.2239   76.1958  222.2136 H   0  0  0  0  0  0  0  0  0  0  0  0
  138.0608   76.4989  223.7488 H   0  0  0  0  0  0  0  0  0  0  0  0
  136.3638   78.3206  222.4389 H   0  0  0  0  0  0  0  0  0  0  0  0
  137.5468   78.7824  223.6726 H   0  0  0  0  0  0  0  0  0  0  0  0
  137.6866   79.0448  220.6737 H   0  0  0  0  0  0  0  0  0  0  0  0
  138.4727   80.0467  221.9028 H   0  0  0  0  0  0  0  0  0  0  0  0
  139.8248   78.1133  220.3932 H   0  0  0  0  0  0  0  0  0  0  0  0
  141.2184   80.4297  220.7240 H   0  0  0  0  0  0  0  0  0  0  0  0
  142.6936   78.8253  224.7918 H   0  0  0  0  0  0  0  0  0  0  0  0
  139.2063   69.9740  222.4187 H   0  0  0  0  0  0  0  0  0  0  0  0
  139.0750   68.3677  224.3285 H   0  0  0  0  0  0  0  0  0  0  0  0
  139.5221   67.8521  226.7039 H   0  0  0  0  0  0  0  0  0  0  0  0
  141.4153   70.8389  229.2030 H   0  0  0  0  0  0  0  0  0  0  0  0
  141.5161   72.4096  227.2651 H   0  0  0  0  0  0  0  0  0  0  0  0
  1  2  2  0
  2  3  1  0
  3  4  1  0
  4  5  1  0
  5  6  1  0
  5  7  2  0
  7  8  1  0
  8  9  1  0
  9 10  1  0
 10 11  1  0
 11 12  1  0
 12 13  2  0
 13 14  1  0
 14 15  1  0
 15 16  2  0
  2 17  1  0
 17 18  2  0
 18 19  1  0
 19 20  2  0
 20 21  1  0
 21 22  2  0
 22 23  1  0
 22 24  1  0
 24 25  2  0
 25 26  1  0
 26 27  2  0
 11  7  1  0
 16 12  1  0
 27 17  1  0
 26 20  1  0
  3 28  1  0
  4 29  1  0
  4 30  1  0
  6 31  1  0
  8 32  1  0
  8 33  1  0
  9 34  1  0
  9 35  1  0
 10 36  1  0
 10 37  1  0
 11 38  1  6
 13 39  1  0
 15 40  1  0
 18 41  1  0
 19 42  1  0
 21 43  1  0
 24 44  1  0
 25 45  1  0
M  CHG  1   7   1
M  END
>  <meeko>  (3) 
{"free_energy": -8.16, "intermolecular_energy": -9.95, "internal_energy": -1.54, "cluster_size": 16, "cluster_id": 1, "rank_in_cluster": 2}

$$$$

     RDKit          3D

 45 48  0  0  0  0  0  0  0  0999 V2000
  138.2870   72.2680  222.7040 O   0  0  0  0  0  0  0  0  0  0  0  0
  139.4190   71.7510  222.9160 C   0  0  0  0  0  0  0  0  0  0  0  0
  140.5240   72.0870  222.0650 N   0  0  0  0  0  0  0  0  0  0  0  0
  140.3490   72.9390  220.8900 C   0  0  0  0  0  0  0  0  0  0  0  0
  140.4140   74.3980  221.2740 C   0  0  0  0  0  0  0  0  0  0  0  0
  139.5970   74.7960  222.3380 O   0  0  0  0  0  0  0  0  0  0  0  0
  141.2120   75.2550  220.6690 N   0  0  0  0  0  0  0  0  0  0  0  0
  141.1890   76.6900  220.9370 C   0  0  0  0  0  0  0  0  0  0  0  0
  142.2680   77.3100  220.0590 C   0  0  0  0  0  0  0  0  0  0  0  0
  142.6140   76.2570  219.0170 C   0  0  0  0  0  0  0  0  0  0  0  0
  142.1750   74.9190  219.6150 C   0  0  1  0  0  0  0  0  0  0  0  0
  143.3570   74.1630  220.1750 C   0  0  0  0  0  0  0  0  0  0  0  0
  144.5970   74.7460  220.4340 C   0  0  0  0  0  0  0  0  0  0  0  0
  145.6170   73.5390  221.0030 S   0  0  0  0  0  0  0  0  0  0  0  0
  144.4520   72.3330  220.8980 C   0  0  0  0  0  0  0  0  0  0  0  0
  143.2870   72.8270  220.4280 N   0  0  0  0  0  0  0  0  0  0  0  0
  139.5900   70.7870  224.0250 C   0  0  0  0  0  0  0  0  0  0  0  0
  139.1380   69.4610  223.9100 C   0  0  0  0  0  0  0  0  0  0  0  0
  139.3370   68.5670  224.9650 C   0  0  0  0  0  0  0  0  0  0  0  0
  139.9850   68.9950  226.1290 C   0  0  0  0  0  0  0  0  0  0  0  0
  140.2050   68.1230  227.2050 C   0  0  0  0  0  0  0  0  0  0  0  0
  140.8570   68.5830  228.3540 C   0  0  0  0  0  0  0  0  0  0  0  0
  141.0720   67.7390  229.3940 F   0  0  0  0  0  0  0  0  0  0  0  0
  141.2900   69.9120  228.4340 C   0  0  0  0  0  0  0  0  0  0  0  0
  141.0730   70.7870  227.3660 C   0  0  0  0  0  0  0  0  0  0  0  0
  140.4210   70.3360  226.2130 C   0  0  0  0  0  0  0  0  0  0  0  0
  140.2120   71.1830  225.1700 N   0  0  0  0  0  0  0  0  0  0  0  0
  141.4730   71.7050  222.2840 H   0  0  0  0  0  0  0  0  0  0  0  0
  141.1460   72.7209  220.1639 H   0  0  0  0  0  0  0  0  0  0  0  0
  139.3630   72.7333  220.4478 H   0  0  0  0  0  0  0  0  0  0  0  0
  138.9360   74.1850  222.7980 H   0  0  0  0  0  0  0  0  0  0  0  0
  140.2043   77.1087  220.6820 H   0  0  0  0  0  0  0  0  0  0  0  0
  141.3724   76.8994  222.0012 H   0  0  0  0  0  0  0  0  0  0  0  0
  141.8885   78.2202  219.5717 H   0  0  0  0  0  0  0  0  0  0  0  0
  143.1504   77.6003  220.6481 H   0  0  0  0  0  0  0  0  0  0  0  0
  142.0731   76.4535  218.0796 H   0  0  0  0  0  0  0  0  0  0  0  0
  143.6878   76.2610  218.7783 H   0  0  0  0  0  0  0  0  0  0  0  0
  141.7259   74.2626  218.8551 H   0  0  0  0  0  0  0  0  0  0  0  0
  144.8596   75.8047  220.2915 H   0  0  0  0  0  0  0  0  0  0  0  0
  144.6166   71.2813  221.1752 H   0  0  0  0  0  0  0  0  0  0  0  0
  138.6296   69.1285  222.9930 H   0  0  0  0  0  0  0  0  0  0  0  0
  138.9849   67.5283  224.8807 H   0  0  0  0  0  0  0  0  0  0  0  0
  139.8653   67.0785  227.1456 H   0  0  0  0  0  0  0  0  0  0  0  0
  141.8023   70.2684  229.3398 H   0  0  0  0  0  0  0  0  0  0  0  0
  141.4148   71.8305  227.4318 H   0  0  0  0  0  0  0  0  0  0  0  0
  1  2  2  0
  2  3  1  0
  3  4  1  0
  4  5  1  0
  5  6  1  0
  5  7  2  0
  7  8  1  0
  8  9  1  0
  9 10  1  0
 10 11  1  0
 11 12  1  0
 12 13  2  0
 13 14  1  0
 14 15  1  0
 15 16  2  0
  2 17  1  0
 17 18  2  0
 18 19  1  0
 19 20  2  0
 20 21  1  0
 21 22  2  0
 22 23  1  0
 22 24  1  0
 24 25  2  0
 25 26  1  0
 26 27  2  0
 11  7  1  0
 16 12  1  0
 27 17  1  0
 26 20  1  0
  3 28  1  0
  4 29  1  0
  4 30  1  0
  6 31  1  0
  8 32  1  0
  8 33  1  0
  9 34  1  0
  9 35  1  0
 10 36  1  0
 10 37  1  0
 11 38  1  6
 13 39  1  0
 15 40  1  0
 18 41  1  0
 19 42  1  0
 21 43  1  0
 24 44  1  0
 25 45  1  0
M  CHG  1   7   1
M  END
>  <meeko>  (4) 
{"free_energy": -7.94, "intermolecular_energy": -9.73, "internal_energy": -1.83, "cluster_size": 4, "cluster_id": 2, "rank_in_cluster": 4}

$$$$

     RDKit          3D

 45 48  0  0  0  0  0  0  0  0999 V2000
  140.7360   71.8450  221.0900 O   0  0  0  0  0  0  0  0  0  0  0  0
  140.2880   72.3460  222.1580 C   0  0  0  0  0  0  0  0  0  0  0  0
  139.9910   73.7490  222.2140 N   0  0  0  0  0  0  0  0  0  0  0  0
  140.2940   74.6370  221.0920 C   0  0  0  0  0  0  0  0  0  0  0  0
  140.0720   76.0800  221.4770 C   0  0  0  0  0  0  0  0  0  0  0  0
  139.4680   76.3040  222.7190 O   0  0  0  0  0  0  0  0  0  0  0  0
  140.4480   77.0840  220.7100 N   0  0  0  0  0  0  0  0  0  0  0  0
  139.6290   77.6000  219.6170 C   0  0  0  0  0  0  0  0  0  0  0  0
  140.4060   78.7590  219.0060 C   0  0  0  0  0  0  0  0  0  0  0  0
  141.8330   78.6200  219.5180 C   0  0  0  0  0  0  0  0  0  0  0  0
  141.7380   77.7760  220.7910 C   0  0  1  0  0  0  0  0  0  0  0  0
  141.8170   78.6450  222.0230 C   0  0  0  0  0  0  0  0  0  0  0  0
  142.2790   79.9610  222.0150 C   0  0  0  0  0  0  0  0  0  0  0  0
  142.2330   80.5260  223.5960 S   0  0  0  0  0  0  0  0  0  0  0  0
  141.6340   79.0880  224.2240 C   0  0  0  0  0  0  0  0  0  0  0  0
  141.4680   78.1680  223.2500 N   0  0  0  0  0  0  0  0  0  0  0  0
  140.0920   71.4890  223.3470 C   0  0  0  0  0  0  0  0  0  0  0  0
  139.4270   70.2540  223.2490 C   0  0  0  0  0  0  0  0  0  0  0  0
  139.2800   69.4550  224.3850 C   0  0  0  0  0  0  0  0  0  0  0  0
  139.7950   69.8860  225.6130 C   0  0  0  0  0  0  0  0  0  0  0  0
  139.6680   69.1070  226.7720 C   0  0  0  0  0  0  0  0  0  0  0  0
  140.1960   69.5670  227.9840 C   0  0  0  0  0  0  0  0  0  0  0  0
  140.0750   68.8120  229.1050 F   0  0  0  0  0  0  0  0  0  0  0  0
  140.8480   70.8040  228.0430 C   0  0  0  0  0  0  0  0  0  0  0  0
  140.9770   71.5860  226.8920 C   0  0  0  0  0  0  0  0  0  0  0  0
  140.4520   71.1350  225.6760 C   0  0  0  0  0  0  0  0  0  0  0  0
  140.5790   71.8910  224.5530 N   0  0  0  0  0  0  0  0  0  0  0  0
  139.5610   74.1470  223.0790 H   0  0  0  0  0  0  0  0  0  0  0  0
  141.3447   74.4998  220.7967 H   0  0  0  0  0  0  0  0  0  0  0  0
  139.6260   74.3882  220.2542 H   0  0  0  0  0  0  0  0  0  0  0  0
  139.6980   77.0810  223.3230 H   0  0  0  0  0  0  0  0  0  0  0  0
  139.4616   76.8156  218.8642 H   0  0  0  0  0  0  0  0  0  0  0  0
  138.6432   77.9279  219.9784 H   0  0  0  0  0  0  0  0  0  0  0  0
  140.3856   78.6968  217.9079 H   0  0  0  0  0  0  0  0  0  0  0  0
  139.9695   79.7295  219.2845 H   0  0  0  0  0  0  0  0  0  0  0  0
  142.4612   78.1150  218.7694 H   0  0  0  0  0  0  0  0  0  0  0  0
  142.2900   79.6009  219.7154 H   0  0  0  0  0  0  0  0  0  0  0  0
  142.5717   77.0625  220.8684 H   0  0  0  0  0  0  0  0  0  0  0  0
  142.6131   80.5266  221.1327 H   0  0  0  0  0  0  0  0  0  0  0  0
  141.4072   78.9185  225.2869 H   0  0  0  0  0  0  0  0  0  0  0  0
  139.0243   69.9186  222.2818 H   0  0  0  0  0  0  0  0  0  0  0  0
  138.7601   68.4882  224.3147 H   0  0  0  0  0  0  0  0  0  0  0  0
  139.1540   68.1354  226.7288 H   0  0  0  0  0  0  0  0  0  0  0  0
  141.2601   71.1617  228.9981 H   0  0  0  0  0  0  0  0  0  0  0  0
  141.4917   72.5569  226.9420 H   0  0  0  0  0  0  0  0  0  0  0  0
  1  2  2  0
  2  3  1  0
  3  4  1  0
  4  5  1  0
  5  6  1  0
  5  7  2  0
  7  8  1  0
  8  9  1  0
  9 10  1  0
 10 11  1  0
 11 12  1  0
 12 13  2  0
 13 14  1  0
 14 15  1  0
 15 16  2  0
  2 17  1  0
 17 18  2  0
 18 19  1  0
 19 20  2  0
 20 21  1  0
 21 22  2  0
 22 23  1  0
 22 24  1  0
 24 25  2  0
 25 26  1  0
 26 27  2  0
 11  7  1  0
 16 12  1  0
 27 17  1  0
 26 20  1  0
  3 28  1  0
  4 29  1  0
  4 30  1  0
  6 31  1  0
  8 32  1  0
  8 33  1  0
  9 34  1  0
  9 35  1  0
 10 36  1  0
 10 37  1  0
 11 38  1  1
 13 39  1  0
 15 40  1  0
 18 41  1  0
 19 42  1  0
 21 43  1  0
 24 44  1  0
 25 45  1  0
M  CHG  1   7   1
M  END
>  <meeko>  (5) 
{"free_energy": -7.54, "intermolecular_energy": -9.33, "internal_energy": -2.2, "cluster_size": 16, "cluster_id": 1, "rank_in_cluster": 11}

$$$$

     RDKit          3D

 45 48  0  0  0  0  0  0  0  0999 V2000
  138.3780   72.2620  222.6030 O   0  0  0  0  0  0  0  0  0  0  0  0
  139.4930   71.7330  222.8630 C   0  0  0  0  0  0  0  0  0  0  0  0
  140.6340   72.0460  222.0490 N   0  0  0  0  0  0  0  0  0  0  0  0
  140.5120   72.8860  220.8590 C   0  0  0  0  0  0  0  0  0  0  0  0
  140.6310   74.3460  221.2210 C   0  0  0  0  0  0  0  0  0  0  0  0
  139.8710   74.7770  222.3140 O   0  0  0  0  0  0  0  0  0  0  0  0
  141.4240   75.1750  220.5720 N   0  0  0  0  0  0  0  0  0  0  0  0
  141.3970   76.6220  220.7700 C   0  0  0  0  0  0  0  0  0  0  0  0
  142.4710   77.2020  219.8600 C   0  0  0  0  0  0  0  0  0  0  0  0
  142.8160   76.1000  218.8680 C   0  0  0  0  0  0  0  0  0  0  0  0
  142.3840   74.7920  219.5320 C   0  0  1  0  0  0  0  0  0  0  0  0
  143.5700   74.0670  220.1230 C   0  0  0  0  0  0  0  0  0  0  0  0
  144.7780   74.6890  220.4410 C   0  0  0  0  0  0  0  0  0  0  0  0
  145.8180   73.5080  221.0260 S   0  0  0  0  0  0  0  0  0  0  0  0
  144.7040   72.2630  220.8520 C   0  0  0  0  0  0  0  0  0  0  0  0
  143.5400   72.7250  220.3470 N   0  0  0  0  0  0  0  0  0  0  0  0
  139.6120   70.7810  223.9880 C   0  0  0  0  0  0  0  0  0  0  0  0
  139.0980   69.4760  223.8910 C   0  0  0  0  0  0  0  0  0  0  0  0
  139.2490   68.5910  224.9620 C   0  0  0  0  0  0  0  0  0  0  0  0
  139.9080   69.0080  226.1240 C   0  0  0  0  0  0  0  0  0  0  0  0
  140.0790   68.1440  227.2150 C   0  0  0  0  0  0  0  0  0  0  0  0
  140.7450   68.5910  228.3620 C   0  0  0  0  0  0  0  0  0  0  0  0
  140.9130   67.7550  229.4170 F   0  0  0  0  0  0  0  0  0  0  0  0
  141.2390   69.9000  228.4230 C   0  0  0  0  0  0  0  0  0  0  0  0
  141.0710   70.7660  227.3390 C   0  0  0  0  0  0  0  0  0  0  0  0
  140.4060   70.3270  226.1890 C   0  0  0  0  0  0  0  0  0  0  0  0
  140.2440   71.1660  225.1310 N   0  0  0  0  0  0  0  0  0  0  0  0
  141.5680   71.6540  222.3060 H   0  0  0  0  0  0  0  0  0  0  0  0
  141.3102   72.6240  220.1489 H   0  0  0  0  0  0  0  0  0  0  0  0
  139.5250   72.7140  220.4049 H   0  0  0  0  0  0  0  0  0  0  0  0
  139.1920   74.1980  222.7890 H   0  0  0  0  0  0  0  0  0  0  0  0
  140.4101   77.0246  220.4980 H   0  0  0  0  0  0  0  0  0  0  0  0
  141.5829   76.8834  221.8222 H   0  0  0  0  0  0  0  0  0  0  0  0
  142.0874   78.0869  219.3310 H   0  0  0  0  0  0  0  0  0  0  0  0
  143.3546   77.5228  220.4312 H   0  0  0  0  0  0  0  0  0  0  0  0
  142.2703   76.2492  217.9246 H   0  0  0  0  0  0  0  0  0  0  0  0
  143.8887   76.0956  218.6245 H   0  0  0  0  0  0  0  0  0  0  0  0
  141.9342   74.0986  218.8062 H   0  0  0  0  0  0  0  0  0  0  0  0
  145.0072   75.7590  220.3287 H   0  0  0  0  0  0  0  0  0  0  0  0
  144.8968   71.2123  221.1143 H   0  0  0  0  0  0  0  0  0  0  0  0
  138.5794   69.1530  222.9763 H   0  0  0  0  0  0  0  0  0  0  0  0
  138.8504   67.5682  224.8917 H   0  0  0  0  0  0  0  0  0  0  0  0
  139.6902   67.1160  227.1695 H   0  0  0  0  0  0  0  0  0  0  0  0
  141.7608   70.2476  229.3268 H   0  0  0  0  0  0  0  0  0  0  0  0
  141.4617   71.7930  227.3900 H   0  0  0  0  0  0  0  0  0  0  0  0
  1  2  2  0
  2  3  1  0
  3  4  1  0
  4  5  1  0
  5  6  1  0
  5  7  2  0
  7  8  1  0
  8  9  1  0
  9 10  1  0
 10 11  1  0
 11 12  1  0
 12 13  2  0
 13 14  1  0
 14 15  1  0
 15 16  2  0
  2 17  1  0
 17 18  2  0
 18 19  1  0
 19 20  2  0
 20 21  1  0
 21 22  2  0
 22 23  1  0
 22 24  1  0
 24 25  2  0
 25 26  1  0
 26 27  2  0
 11  7  1  0
 16 12  1  0
 27 17  1  0
 26 20  1  0
  3 28  1  0
  4 29  1  0
  4 30  1  0
  6 31  1  0
  8 32  1  0
  8 33  1  0
  9 34  1  0
  9 35  1  0
 10 36  1  0
 10 37  1  0
 11 38  1  6
 13 39  1  0
 15 40  1  0
 18 41  1  0
 19 42  1  0
 21 43  1  0
 24 44  1  0
 25 45  1  0
M  CHG  1   7   1
M  END
>  <meeko>  (6) 
{"free_energy": -7.98, "intermolecular_energy": -9.77, "internal_energy": -1.8, "cluster_size": 4, "cluster_id": 2, "rank_in_cluster": 1}

$$$$

     RDKit          3D

 45 48  0  0  0  0  0  0  0  0999 V2000
  140.7080   72.5500  221.0560 O   0  0  0  0  0  0  0  0  0  0  0  0
  139.9620   72.7740  222.0490 C   0  0  0  0  0  0  0  0  0  0  0  0
  139.1470   73.9550  222.0730 N   0  0  0  0  0  0  0  0  0  0  0  0
  139.2370   74.9640  221.0180 C   0  0  0  0  0  0  0  0  0  0  0  0
  140.4090   75.8850  221.2580 C   0  0  0  0  0  0  0  0  0  0  0  0
  141.2700   75.5340  222.3040 O   0  0  0  0  0  0  0  0  0  0  0  0
  140.6370   76.9490  220.5150 N   0  0  0  0  0  0  0  0  0  0  0  0
  139.7440   77.3770  219.4410 C   0  0  0  0  0  0  0  0  0  0  0  0
  140.3520   78.6440  218.8540 C   0  0  0  0  0  0  0  0  0  0  0  0
  141.7900   78.6860  219.3510 C   0  0  0  0  0  0  0  0  0  0  0  0
  141.8240   77.8060  220.6020 C   0  0  1  0  0  0  0  0  0  0  0  0
  141.7990   78.6480  221.8560 C   0  0  0  0  0  0  0  0  0  0  0  0
  142.1820   79.9890  221.8970 C   0  0  0  0  0  0  0  0  0  0  0  0
  142.0370   80.5100  223.4860 S   0  0  0  0  0  0  0  0  0  0  0  0
  141.4990   79.0250  224.0560 C   0  0  0  0  0  0  0  0  0  0  0  0
  141.4280   78.1210  223.0550 N   0  0  0  0  0  0  0  0  0  0  0  0
  139.9500   71.8290  223.1870 C   0  0  0  0  0  0  0  0  0  0  0  0
  139.4410   70.5260  223.0430 C   0  0  0  0  0  0  0  0  0  0  0  0
  139.4670   69.6490  224.1290 C   0  0  0  0  0  0  0  0  0  0  0  0
  139.9980   70.0700  225.3540 C   0  0  0  0  0  0  0  0  0  0  0  0
  140.0420   69.2130  226.4630 C   0  0  0  0  0  0  0  0  0  0  0  0
  140.5810   69.6650  227.6730 C   0  0  0  0  0  0  0  0  0  0  0  0
  140.6260   68.8360  228.7460 F   0  0  0  0  0  0  0  0  0  0  0  0
  141.0740   70.9710  227.7800 C   0  0  0  0  0  0  0  0  0  0  0  0
  141.0320   71.8300  226.6780 C   0  0  0  0  0  0  0  0  0  0  0  0
  140.4950   71.3870  225.4650 C   0  0  0  0  0  0  0  0  0  0  0  0
  140.4550   72.2190  224.3900 N   0  0  0  0  0  0  0  0  0  0  0  0
  138.4850   74.1040  222.8680 H   0  0  0  0  0  0  0  0  0  0  0  0
  139.3655   74.4615  220.0480 H   0  0  0  0  0  0  0  0  0  0  0  0
  138.3127   75.5605  221.0198 H   0  0  0  0  0  0  0  0  0  0  0  0
  142.0430   76.1080  222.6120 H   0  0  0  0  0  0  0  0  0  0  0  0
  139.6751   76.5957  218.6698 H   0  0  0  0  0  0  0  0  0  0  0  0
  138.7271   77.5608  219.8180 H   0  0  0  0  0  0  0  0  0  0  0  0
  140.3281   78.6062  217.7549 H   0  0  0  0  0  0  0  0  0  0  0  0
  139.7925   79.5400  219.1608 H   0  0  0  0  0  0  0  0  0  0  0  0
  142.4720   78.2890  218.5847 H   0  0  0  0  0  0  0  0  0  0  0  0
  142.1129   79.7144  219.5703 H   0  0  0  0  0  0  0  0  0  0  0  0
  142.7468   77.2095  220.6531 H   0  0  0  0  0  0  0  0  0  0  0  0
  142.5181   80.5950  221.0427 H   0  0  0  0  0  0  0  0  0  0  0  0
  141.2392   78.8164  225.1043 H   0  0  0  0  0  0  0  0  0  0  0  0
  139.0242   70.1992  222.0789 H   0  0  0  0  0  0  0  0  0  0  0  0
  139.0707   68.6284  224.0222 H   0  0  0  0  0  0  0  0  0  0  0  0
  139.6535   68.1871  226.3821 H   0  0  0  0  0  0  0  0  0  0  0  0
  141.4954   71.3220  228.7335 H   0  0  0  0  0  0  0  0  0  0  0  0
  141.4216   72.8550  226.7649 H   0  0  0  0  0  0  0  0  0  0  0  0
  1  2  2  0
  2  3  1  0
  3  4  1  0
  4  5  1  0
  5  6  1  0
  5  7  2  0
  7  8  1  0
  8  9  1  0
  9 10  1  0
 10 11  1  0
 11 12  1  0
 12 13  2  0
 13 14  1  0
 14 15  1  0
 15 16  2  0
  2 17  1  0
 17 18  2  0
 18 19  1  0
 19 20  2  0
 20 21  1  0
 21 22  2  0
 22 23  1  0
 22 24  1  0
 24 25  2  0
 25 26  1  0
 26 27  2  0
 11  7  1  0
 16 12  1  0
 27 17  1  0
 26 20  1  0
  3 28  1  0
  4 29  1  0
  4 30  1  0
  6 31  1  0
  8 32  1  0
  8 33  1  0
  9 34  1  0
  9 35  1  0
 10 36  1  0
 10 37  1  0
 11 38  1  6
 13 39  1  0
 15 40  1  0
 18 41  1  0
 19 42  1  0
 21 43  1  0
 24 44  1  0
 25 45  1  0
M  CHG  1   7   1
M  END
>  <meeko>  (7) 
{"free_energy": -8.04, "intermolecular_energy": -9.83, "internal_energy": -1.57, "cluster_size": 16, "cluster_id": 1, "rank_in_cluster": 3}

$$$$

     RDKit          3D

 45 48  0  0  0  0  0  0  0  0999 V2000
  140.4060   70.7690  221.2330 O   0  0  0  0  0  0  0  0  0  0  0  0
  139.9970   71.3170  222.2940 C   0  0  0  0  0  0  0  0  0  0  0  0
  139.6530   72.7100  222.2860 N   0  0  0  0  0  0  0  0  0  0  0  0
  139.8630   73.5400  221.1010 C   0  0  0  0  0  0  0  0  0  0  0  0
  140.2140   74.9540  221.4940 C   0  0  0  0  0  0  0  0  0  0  0  0
  139.6600   75.4200  222.6910 O   0  0  0  0  0  0  0  0  0  0  0  0
  141.0190   75.7110  220.7750 N   0  0  0  0  0  0  0  0  0  0  0  0
  141.1460   77.1520  220.9740 C   0  0  0  0  0  0  0  0  0  0  0  0
  142.1830   77.6370  219.9690 C   0  0  0  0  0  0  0  0  0  0  0  0
  142.3310   76.5160  218.9500 C   0  0  0  0  0  0  0  0  0  0  0  0
  141.8400   75.2480  219.6510 C   0  0  1  0  0  0  0  0  0  0  0  0
  143.0010   74.4110  220.1310 C   0  0  0  0  0  0  0  0  0  0  0  0
  144.3090   74.8850  220.2300 C   0  0  0  0  0  0  0  0  0  0  0  0
  145.2710   73.6150  220.7610 S   0  0  0  0  0  0  0  0  0  0  0  0
  143.9990   72.5210  220.8410 C   0  0  0  0  0  0  0  0  0  0  0  0
  142.8390   73.1000  220.4640 N   0  0  0  0  0  0  0  0  0  0  0  0
  139.8970   70.5250  223.5390 C   0  0  0  0  0  0  0  0  0  0  0  0
  139.2300   69.2870  223.5600 C   0  0  0  0  0  0  0  0  0  0  0  0
  139.1740   68.5510  224.7450 C   0  0  0  0  0  0  0  0  0  0  0  0
  139.7810   69.0470  225.9050 C   0  0  0  0  0  0  0  0  0  0  0  0
  139.7470   68.3320  227.1100 C   0  0  0  0  0  0  0  0  0  0  0  0
  140.3650   68.8560  228.2510 C   0  0  0  0  0  0  0  0  0  0  0  0
  140.3340   68.1630  229.4170 F   0  0  0  0  0  0  0  0  0  0  0  0
  141.0170   70.0940  228.1930 C   0  0  0  0  0  0  0  0  0  0  0  0
  141.0530   70.8130  226.9940 C   0  0  0  0  0  0  0  0  0  0  0  0
  140.4380   70.2960  225.8490 C   0  0  0  0  0  0  0  0  0  0  0  0
  140.4750   70.9910  224.6810 N   0  0  0  0  0  0  0  0  0  0  0  0
  139.2560   73.1440  223.1500 H   0  0  0  0  0  0  0  0  0  0  0  0
  140.6848   73.1166  220.5049 H   0  0  0  0  0  0  0  0  0  0  0  0
  138.9336   73.5574  220.5128 H   0  0  0  0  0  0  0  0  0  0  0  0
  138.8990   74.9610  223.1740 H   0  0  0  0  0  0  0  0  0  0  0  0
  140.1806   77.6473  220.7931 H   0  0  0  0  0  0  0  0  0  0  0  0
  141.4506   77.3862  222.0047 H   0  0  0  0  0  0  0  0  0  0  0  0
  141.8377   78.5583  219.4771 H   0  0  0  0  0  0  0  0  0  0  0  0
  143.1412   77.8690  220.4569 H   0  0  0  0  0  0  0  0  0  0  0  0
  141.7182   76.7236  218.0604 H   0  0  0  0  0  0  0  0  0  0  0  0
  143.3719   76.4132  218.6096 H   0  0  0  0  0  0  0  0  0  0  0  0
  141.2627   74.6057  218.9696 H   0  0  0  0  0  0  0  0  0  0  0  0
  144.6490   75.9059  220.0016 H   0  0  0  0  0  0  0  0  0  0  0  0
  144.0979   71.4724  221.1583 H   0  0  0  0  0  0  0  0  0  0  0  0
  138.7544   68.9003  222.6466 H   0  0  0  0  0  0  0  0  0  0  0  0
  138.6534   67.5822  224.7672 H   0  0  0  0  0  0  0  0  0  0  0  0
  139.2349   67.3597  227.1588 H   0  0  0  0  0  0  0  0  0  0  0  0
  141.5018   70.5017  229.0923 H   0  0  0  0  0  0  0  0  0  0  0  0
  141.5652   71.7856  226.9514 H   0  0  0  0  0  0  0  0  0  0  0  0
  1  2  2  0
  2  3  1  0
  3  4  1  0
  4  5  1  0
  5  6  1  0
  5  7  2  0
  7  8  1  0
  8  9  1  0
  9 10  1  0
 10 11  1  0
 11 12  1  0
 12 13  2  0
 13 14  1  0
 14 15  1  0
 15 16  2  0
  2 17  1  0
 17 18  2  0
 18 19  1  0
 19 20  2  0
 20 21  1  0
 21 22  2  0
 22 23  1  0
 22 24  1  0
 24 25  2  0
 25 26  1  0
 26 27  2  0
 11  7  1  0
 16 12  1  0
 27 17  1  0
 26 20  1  0
  3 28  1  0
  4 29  1  0
  4 30  1  0
  6 31  1  0
  8 32  1  0
  8 33  1  0
  9 34  1  0
  9 35  1  0
 10 36  1  0
 10 37  1  0
 11 38  1  6
 13 39  1  0
 15 40  1  0
 18 41  1  0
 19 42  1  0
 21 43  1  0
 24 44  1  0
 25 45  1  0
M  CHG  1   7   1
M  END
>  <meeko>  (8) 
{"free_energy": -7.98, "intermolecular_energy": -9.77, "internal_energy": -1.59, "cluster_size": 4, "cluster_id": 2, "rank_in_cluster": 2}

$$$$

     RDKit          3D

 45 48  0  0  0  0  0  0  0  0999 V2000
  140.7120   71.8230  221.0660 O   0  0  0  0  0  0  0  0  0  0  0  0
  140.2590   72.3290  222.1300 C   0  0  0  0  0  0  0  0  0  0  0  0
  139.9670   73.7330  222.1800 N   0  0  0  0  0  0  0  0  0  0  0  0
  140.2800   74.6160  221.0580 C   0  0  0  0  0  0  0  0  0  0  0  0
  140.1080   76.0630  221.4520 C   0  0  0  0  0  0  0  0  0  0  0  0
  139.5500   76.2990  222.7140 O   0  0  0  0  0  0  0  0  0  0  0  0
  140.4840   77.0590  220.6760 N   0  0  0  0  0  0  0  0  0  0  0  0
  139.6760   77.5510  219.5630 C   0  0  0  0  0  0  0  0  0  0  0  0
  140.4510   78.7080  218.9460 C   0  0  0  0  0  0  0  0  0  0  0  0
  141.8710   78.5910  219.4800 C   0  0  0  0  0  0  0  0  0  0  0  0
  141.7670   77.7660  220.7640 C   0  0  1  0  0  0  0  0  0  0  0  0
  141.8190   78.6540  221.9840 C   0  0  0  0  0  0  0  0  0  0  0  0
  142.2650   79.9760  221.9620 C   0  0  0  0  0  0  0  0  0  0  0  0
  142.1920   80.5630  223.5330 S   0  0  0  0  0  0  0  0  0  0  0  0
  141.6030   79.1270  224.1750 C   0  0  0  0  0  0  0  0  0  0  0  0
  141.4610   78.1910  223.2130 N   0  0  0  0  0  0  0  0  0  0  0  0
  140.0530   71.4750  223.3200 C   0  0  0  0  0  0  0  0  0  0  0  0
  139.3960   70.2360  223.2190 C   0  0  0  0  0  0  0  0  0  0  0  0
  139.2400   69.4410  224.3570 C   0  0  0  0  0  0  0  0  0  0  0  0
  139.7360   69.8810  225.5890 C   0  0  0  0  0  0  0  0  0  0  0  0
  139.6000   69.1060  226.7500 C   0  0  0  0  0  0  0  0  0  0  0  0
  140.1090   69.5740  227.9660 C   0  0  0  0  0  0  0  0  0  0  0  0
  139.9790   68.8240  229.0880 F   0  0  0  0  0  0  0  0  0  0  0  0
  140.7530   70.8160  228.0280 C   0  0  0  0  0  0  0  0  0  0  0  0
  140.8920   71.5940  226.8750 C   0  0  0  0  0  0  0  0  0  0  0  0
  140.3860   71.1330  225.6550 C   0  0  0  0  0  0  0  0  0  0  0  0
  140.5220   71.8850  224.5310 N   0  0  0  0  0  0  0  0  0  0  0  0
  139.5330   74.1350  223.0420 H   0  0  0  0  0  0  0  0  0  0  0  0
  141.3215   74.4482  220.7464 H   0  0  0  0  0  0  0  0  0  0  0  0
  139.5922   74.3915  220.2294 H   0  0  0  0  0  0  0  0  0  0  0  0
  139.5550   77.2020  223.1700 H   0  0  0  0  0  0  0  0  0  0  0  0
  139.5270   76.7539  218.8198 H   0  0  0  0  0  0  0  0  0  0  0  0
  138.6820   77.8749  219.9050 H   0  0  0  0  0  0  0  0  0  0  0  0
  140.4472   78.6291  217.8488 H   0  0  0  0  0  0  0  0  0  0  0  0
  140.0014   79.6782  219.2039 H   0  0  0  0  0  0  0  0  0  0  0  0
  142.5146   78.0810  218.7481 H   0  0  0  0  0  0  0  0  0  0  0  0
  142.3152   79.5795  219.6688 H   0  0  0  0  0  0  0  0  0  0  0  0
  142.6072   77.0631  220.8634 H   0  0  0  0  0  0  0  0  0  0  0  0
  142.6032   80.5327  221.0756 H   0  0  0  0  0  0  0  0  0  0  0  0
  141.3648   78.9703  225.2374 H   0  0  0  0  0  0  0  0  0  0  0  0
  139.0067   69.8944  222.2486 H   0  0  0  0  0  0  0  0  0  0  0  0
  138.7278   68.4702  224.2846 H   0  0  0  0  0  0  0  0  0  0  0  0
  139.0934   68.1307  226.7044 H   0  0  0  0  0  0  0  0  0  0  0  0
  141.1506   71.1804  228.9867 H   0  0  0  0  0  0  0  0  0  0  0  0
  141.3992   72.5687  226.9270 H   0  0  0  0  0  0  0  0  0  0  0  0
  1  2  2  0
  2  3  1  0
  3  4  1  0
  4  5  1  0
  5  6  1  0
  5  7  2  0
  7  8  1  0
  8  9  1  0
  9 10  1  0
 10 11  1  0
 11 12  1  0
 12 13  2  0
 13 14  1  0
 14 15  1  0
 15 16  2  0
  2 17  1  0
 17 18  2  0
 18 19  1  0
 19 20  2  0
 20 21  1  0
 21 22  2  0
 22 23  1  0
 22 24  1  0
 24 25  2  0
 25 26  1  0
 26 27  2  0
 11  7  1  0
 16 12  1  0
 27 17  1  0
 26 20  1  0
  3 28  1  0
  4 29  1  0
  4 30  1  0
  6 31  1  0
  8 32  1  0
  8 33  1  0
  9 34  1  0
  9 35  1  0
 10 36  1  0
 10 37  1  0
 11 38  1  1
 13 39  1  0
 15 40  1  0
 18 41  1  0
 19 42  1  0
 21 43  1  0
 24 44  1  0
 25 45  1  0
M  CHG  1   7   1
M  END
>  <meeko>  (9) 
{"free_energy": -7.55, "intermolecular_energy": -9.34, "internal_energy": -2.17, "cluster_size": 16, "cluster_id": 1, "rank_in_cluster": 8}

$$$$

     RDKit          3D

 45 48  0  0  0  0  0  0  0  0999 V2000
  140.9340   71.8880  221.1440 O   0  0  0  0  0  0  0  0  0  0  0  0
  140.3340   72.3570  222.1500 C   0  0  0  0  0  0  0  0  0  0  0  0
  139.8900   73.7230  222.1390 N   0  0  0  0  0  0  0  0  0  0  0  0
  140.2080   74.6170  221.0260 C   0  0  0  0  0  0  0  0  0  0  0  0
  140.0780   76.0610  221.4480 C   0  0  0  0  0  0  0  0  0  0  0  0
  139.5540   76.2890  222.7260 O   0  0  0  0  0  0  0  0  0  0  0  0
  140.4600   77.0610  220.6790 N   0  0  0  0  0  0  0  0  0  0  0  0
  139.6540   77.5650  219.5710 C   0  0  0  0  0  0  0  0  0  0  0  0
  140.4350   78.7230  218.9620 C   0  0  0  0  0  0  0  0  0  0  0  0
  141.8550   78.5940  219.4950 C   0  0  0  0  0  0  0  0  0  0  0  0
  141.7460   77.7590  220.7720 C   0  0  1  0  0  0  0  0  0  0  0  0
  141.8040   78.6380  221.9990 C   0  0  0  0  0  0  0  0  0  0  0  0
  142.2170   79.9700  221.9790 C   0  0  0  0  0  0  0  0  0  0  0  0
  142.1650   80.5420  223.5580 S   0  0  0  0  0  0  0  0  0  0  0  0
  141.6240   79.0860  224.1980 C   0  0  0  0  0  0  0  0  0  0  0  0
  141.4830   78.1550  223.2310 N   0  0  0  0  0  0  0  0  0  0  0  0
  140.1120   71.5050  223.3390 C   0  0  0  0  0  0  0  0  0  0  0  0
  139.3760   70.3110  223.2480 C   0  0  0  0  0  0  0  0  0  0  0  0
  139.2060   69.5150  224.3830 C   0  0  0  0  0  0  0  0  0  0  0  0
  139.7680   69.9090  225.6020 C   0  0  0  0  0  0  0  0  0  0  0  0
  139.6190   69.1310  226.7600 C   0  0  0  0  0  0  0  0  0  0  0  0
  140.1950   69.5530  227.9630 C   0  0  0  0  0  0  0  0  0  0  0  0
  140.0540   68.8000  229.0820 F   0  0  0  0  0  0  0  0  0  0  0  0
  140.9180   70.7510  228.0160 C   0  0  0  0  0  0  0  0  0  0  0  0
  141.0690   71.5320  226.8660 C   0  0  0  0  0  0  0  0  0  0  0  0
  140.4960   71.1170  225.6590 C   0  0  0  0  0  0  0  0  0  0  0  0
  140.6440   71.8720  224.5370 N   0  0  0  0  0  0  0  0  0  0  0  0
  139.3390   74.0880  222.9480 H   0  0  0  0  0  0  0  0  0  0  0  0
  141.2401   74.4289  220.6952 H   0  0  0  0  0  0  0  0  0  0  0  0
  139.5028   74.4236  220.2042 H   0  0  0  0  0  0  0  0  0  0  0  0
  139.8230   77.0670  223.3120 H   0  0  0  0  0  0  0  0  0  0  0  0
  139.5004   76.7742  218.8219 H   0  0  0  0  0  0  0  0  0  0  0  0
  138.6618   77.8913  219.9161 H   0  0  0  0  0  0  0  0  0  0  0  0
  140.4304   78.6524  217.8643 H   0  0  0  0  0  0  0  0  0  0  0  0
  139.9906   79.6937  219.2270 H   0  0  0  0  0  0  0  0  0  0  0  0
  142.4959   78.0866  218.7590 H   0  0  0  0  0  0  0  0  0  0  0  0
  142.3048   79.5784  219.6918 H   0  0  0  0  0  0  0  0  0  0  0  0
  142.5814   77.0496  220.8656 H   0  0  0  0  0  0  0  0  0  0  0  0
  142.5216   80.5424  221.0904 H   0  0  0  0  0  0  0  0  0  0  0  0
  141.4127   78.9142  225.2638 H   0  0  0  0  0  0  0  0  0  0  0  0
  138.9360   70.0049  222.2874 H   0  0  0  0  0  0  0  0  0  0  0  0
  138.6309   68.5795  224.3185 H   0  0  0  0  0  0  0  0  0  0  0  0
  139.0500   68.1904  226.7220 H   0  0  0  0  0  0  0  0  0  0  0  0
  141.3683   71.0785  228.9647 H   0  0  0  0  0  0  0  0  0  0  0  0
  141.6381   72.4723  226.9103 H   0  0  0  0  0  0  0  0  0  0  0  0
  1  2  2  0
  2  3  1  0
  3  4  1  0
  4  5  1  0
  5  6  1  0
  5  7  2  0
  7  8  1  0
  8  9  1  0
  9 10  1  0
 10 11  1  0
 11 12  1  0
 12 13  2  0
 13 14  1  0
 14 15  1  0
 15 16  2  0
  2 17  1  0
 17 18  2  0
 18 19  1  0
 19 20  2  0
 20 21  1  0
 21 22  2  0
 22 23  1  0
 22 24  1  0
 24 25  2  0
 25 26  1  0
 26 27  2  0
 11  7  1  0
 16 12  1  0
 27 17  1  0
 26 20  1  0
  3 28  1  0
  4 29  1  0
  4 30  1  0
  6 31  1  0
  8 32  1  0
  8 33  1  0
  9 34  1  0
  9 35  1  0
 10 36  1  0
 10 37  1  0
 11 38  1  1
 13 39  1  0
 15 40  1  0
 18 41  1  0
 19 42  1  0
 21 43  1  0
 24 44  1  0
 25 45  1  0
M  CHG  1   7   1
M  END
>  <meeko>  (10) 
{"free_energy": -7.57, "intermolecular_energy": -9.36, "internal_energy": -2.13, "cluster_size": 16, "cluster_id": 1, "rank_in_cluster": 7}

$$$$

     RDKit          3D

 45 48  0  0  0  0  0  0  0  0999 V2000
  140.3950   72.1840  220.9640 O   0  0  0  0  0  0  0  0  0  0  0  0
  139.9050   72.5580  222.0650 C   0  0  0  0  0  0  0  0  0  0  0  0
  139.3380   73.8710  222.1800 N   0  0  0  0  0  0  0  0  0  0  0  0
  139.4070   74.8300  221.0780 C   0  0  0  0  0  0  0  0  0  0  0  0
  140.5210   75.8240  221.3050 C   0  0  0  0  0  0  0  0  0  0  0  0
  141.4170   75.5260  222.3370 O   0  0  0  0  0  0  0  0  0  0  0  0
  140.6710   76.9020  220.5610 N   0  0  0  0  0  0  0  0  0  0  0  0
  139.7170   77.2940  219.5270 C   0  0  0  0  0  0  0  0  0  0  0  0
  140.2420   78.5920  218.9260 C   0  0  0  0  0  0  0  0  0  0  0  0
  141.6950   78.6970  219.3660 C   0  0  0  0  0  0  0  0  0  0  0  0
  141.8190   77.8120  220.6080 C   0  0  1  0  0  0  0  0  0  0  0  0
  141.8060   78.6450  221.8680 C   0  0  0  0  0  0  0  0  0  0  0  0
  142.2050   79.9800  221.9190 C   0  0  0  0  0  0  0  0  0  0  0  0
  142.0680   80.4910  223.5130 S   0  0  0  0  0  0  0  0  0  0  0  0
  141.5120   79.0080  224.0710 C   0  0  0  0  0  0  0  0  0  0  0  0
  141.4300   78.1120  223.0640 N   0  0  0  0  0  0  0  0  0  0  0  0
  139.9370   71.6480  223.2310 C   0  0  0  0  0  0  0  0  0  0  0  0
  139.5020   70.3160  223.1240 C   0  0  0  0  0  0  0  0  0  0  0  0
  139.5690   69.4740  224.2360 C   0  0  0  0  0  0  0  0  0  0  0  0
  140.0680   69.9600  225.4500 C   0  0  0  0  0  0  0  0  0  0  0  0
  140.1520   69.1410  226.5850 C   0  0  0  0  0  0  0  0  0  0  0  0
  140.6580   69.6580  227.7830 C   0  0  0  0  0  0  0  0  0  0  0  0
  140.7420   68.8650  228.8800 F   0  0  0  0  0  0  0  0  0  0  0  0
  141.0790   70.9910  227.8520 C   0  0  0  0  0  0  0  0  0  0  0  0
  140.9960   71.8140  226.7250 C   0  0  0  0  0  0  0  0  0  0  0  0
  140.4910   71.3050  225.5230 C   0  0  0  0  0  0  0  0  0  0  0  0
  140.4130   72.1010  224.4240 N   0  0  0  0  0  0  0  0  0  0  0  0
  138.8770   74.1530  223.0750 H   0  0  0  0  0  0  0  0  0  0  0  0
  139.5922   74.2882  220.1388 H   0  0  0  0  0  0  0  0  0  0  0  0
  138.4528   75.3745  221.0225 H   0  0  0  0  0  0  0  0  0  0  0  0
  142.1630   76.1430  222.6280 H   0  0  0  0  0  0  0  0  0  0  0  0
  139.6535   76.5149  218.7531 H   0  0  0  0  0  0  0  0  0  0  0  0
  138.7085   77.4279  219.9454 H   0  0  0  0  0  0  0  0  0  0  0  0
  140.1759   78.5598  217.8285 H   0  0  0  0  0  0  0  0  0  0  0  0
  139.6545   79.4593  219.2615 H   0  0  0  0  0  0  0  0  0  0  0  0
  142.3633   78.3362  218.5702 H   0  0  0  0  0  0  0  0  0  0  0  0
  141.9791   79.7378  219.5803 H   0  0  0  0  0  0  0  0  0  0  0  0
  142.7692   77.2579  220.6185 H   0  0  0  0  0  0  0  0  0  0  0  0
  142.5475   80.5885  221.0690 H   0  0  0  0  0  0  0  0  0  0  0  0
  141.2495   78.7947  225.1177 H   0  0  0  0  0  0  0  0  0  0  0  0
  139.1103   69.9382  222.1681 H   0  0  0  0  0  0  0  0  0  0  0  0
  139.2301   68.4304  224.1580 H   0  0  0  0  0  0  0  0  0  0  0  0
  139.8206   68.0934  226.5338 H   0  0  0  0  0  0  0  0  0  0  0  0
  141.4764   71.3923  228.7959 H   0  0  0  0  0  0  0  0  0  0  0  0
  141.3275   72.8613  226.7829 H   0  0  0  0  0  0  0  0  0  0  0  0
  1  2  2  0
  2  3  1  0
  3  4  1  0
  4  5  1  0
  5  6  1  0
  5  7  2  0
  7  8  1  0
  8  9  1  0
  9 10  1  0
 10 11  1  0
 11 12  1  0
 12 13  2  0
 13 14  1  0
 14 15  1  0
 15 16  2  0
  2 17  1  0
 17 18  2  0
 18 19  1  0
 19 20  2  0
 20 21  1  0
 21 22  2  0
 22 23  1  0
 22 24  1  0
 24 25  2  0
 25 26  1  0
 26 27  2  0
 11  7  1  0
 16 12  1  0
 27 17  1  0
 26 20  1  0
  3 28  1  0
  4 29  1  0
  4 30  1  0
  6 31  1  0
  8 32  1  0
  8 33  1  0
  9 34  1  0
  9 35  1  0
 10 36  1  0
 10 37  1  0
 11 38  1  6
 13 39  1  0
 15 40  1  0
 18 41  1  0
 19 42  1  0
 21 43  1  0
 24 44  1  0
 25 45  1  0
M  CHG  1   7   1
M  END
>  <meeko>  (11) 
{"free_energy": -8.03, "intermolecular_energy": -9.82, "internal_energy": -1.61, "cluster_size": 16, "cluster_id": 1, "rank_in_cluster": 4}

$$$$

     RDKit          3D

 45 48  0  0  0  0  0  0  0  0999 V2000
  140.5650   71.8220  221.0440 O   0  0  0  0  0  0  0  0  0  0  0  0
  140.1770   72.3280  222.1330 C   0  0  0  0  0  0  0  0  0  0  0  0
  139.9260   73.7400  222.2100 N   0  0  0  0  0  0  0  0  0  0  0  0
  140.2090   74.6260  221.0810 C   0  0  0  0  0  0  0  0  0  0  0  0
  140.0530   76.0720  221.4860 C   0  0  0  0  0  0  0  0  0  0  0  0
  139.5060   76.3060  222.7530 O   0  0  0  0  0  0  0  0  0  0  0  0
  140.4340   77.0690  220.7130 N   0  0  0  0  0  0  0  0  0  0  0  0
  139.6260   77.5700  219.6040 C   0  0  0  0  0  0  0  0  0  0  0  0
  140.4050   78.7250  218.9890 C   0  0  0  0  0  0  0  0  0  0  0  0
  141.8270   78.5980  219.5200 C   0  0  0  0  0  0  0  0  0  0  0  0
  141.7200   77.7680  220.8010 C   0  0  1  0  0  0  0  0  0  0  0  0
  141.7800   78.6510  222.0240 C   0  0  0  0  0  0  0  0  0  0  0  0
  142.2070   79.9790  222.0020 C   0  0  0  0  0  0  0  0  0  0  0  0
  142.1510   80.5580  223.5770 S   0  0  0  0  0  0  0  0  0  0  0  0
  141.5930   79.1110  224.2210 C   0  0  0  0  0  0  0  0  0  0  0  0
  141.4480   78.1770  223.2570 N   0  0  0  0  0  0  0  0  0  0  0  0
  140.0050   71.4690  223.3240 C   0  0  0  0  0  0  0  0  0  0  0  0
  139.3740   70.2160  223.2290 C   0  0  0  0  0  0  0  0  0  0  0  0
  139.2490   69.4160  224.3670 C   0  0  0  0  0  0  0  0  0  0  0  0
  139.7520   69.8640  225.5930 C   0  0  0  0  0  0  0  0  0  0  0  0
  139.6470   69.0840  226.7540 C   0  0  0  0  0  0  0  0  0  0  0  0
  140.1620   69.5610  227.9650 C   0  0  0  0  0  0  0  0  0  0  0  0
  140.0630   68.8060  229.0870 F   0  0  0  0  0  0  0  0  0  0  0  0
  140.7810   70.8160  228.0210 C   0  0  0  0  0  0  0  0  0  0  0  0
  140.8870   71.5990  226.8680 C   0  0  0  0  0  0  0  0  0  0  0  0
  140.3750   71.1300  225.6530 C   0  0  0  0  0  0  0  0  0  0  0  0
  140.4810   71.8870  224.5290 N   0  0  0  0  0  0  0  0  0  0  0  0
  139.5450   74.1440  223.0950 H   0  0  0  0  0  0  0  0  0  0  0  0
  141.2403   74.4562  220.7383 H   0  0  0  0  0  0  0  0  0  0  0  0
  139.4971   74.4064  220.2717 H   0  0  0  0  0  0  0  0  0  0  0  0
  139.7640   77.0880  223.3400 H   0  0  0  0  0  0  0  0  0  0  0  0
  139.4707   76.7765  218.8582 H   0  0  0  0  0  0  0  0  0  0  0  0
  138.6349   77.8983  219.9503 H   0  0  0  0  0  0  0  0  0  0  0  0
  140.3981   78.6500  217.8916 H   0  0  0  0  0  0  0  0  0  0  0  0
  139.9610   79.6968  219.2508 H   0  0  0  0  0  0  0  0  0  0  0  0
  142.4664   78.0874  218.7848 H   0  0  0  0  0  0  0  0  0  0  0  0
  142.2775   79.5830  219.7118 H   0  0  0  0  0  0  0  0  0  0  0  0
  142.5559   77.0592  220.8958 H   0  0  0  0  0  0  0  0  0  0  0  0
  142.5233   80.5446  221.1132 H   0  0  0  0  0  0  0  0  0  0  0  0
  141.3747   78.9461  225.2864 H   0  0  0  0  0  0  0  0  0  0  0  0
  138.9806   69.8674  222.2627 H   0  0  0  0  0  0  0  0  0  0  0  0
  138.7557   68.4351  224.2993 H   0  0  0  0  0  0  0  0  0  0  0  0
  139.1604   68.0983  226.7129 H   0  0  0  0  0  0  0  0  0  0  0  0
  141.1848   71.1865  228.9748 H   0  0  0  0  0  0  0  0  0  0  0  0
  141.3732   72.5846  226.9157 H   0  0  0  0  0  0  0  0  0  0  0  0
  1  2  2  0
  2  3  1  0
  3  4  1  0
  4  5  1  0
  5  6  1  0
  5  7  2  0
  7  8  1  0
  8  9  1  0
  9 10  1  0
 10 11  1  0
 11 12  1  0
 12 13  2  0
 13 14  1  0
 14 15  1  0
 15 16  2  0
  2 17  1  0
 17 18  2  0
 18 19  1  0
 19 20  2  0
 20 21  1  0
 21 22  2  0
 22 23  1  0
 22 24  1  0
 24 25  2  0
 25 26  1  0
 26 27  2  0
 11  7  1  0
 16 12  1  0
 27 17  1  0
 26 20  1  0
  3 28  1  0
  4 29  1  0
  4 30  1  0
  6 31  1  0
  8 32  1  0
  8 33  1  0
  9 34  1  0
  9 35  1  0
 10 36  1  0
 10 37  1  0
 11 38  1  1
 13 39  1  0
 15 40  1  0
 18 41  1  0
 19 42  1  0
 21 43  1  0
 24 44  1  0
 25 45  1  0
M  CHG  1   7   1
M  END
>  <meeko>  (12) 
{"free_energy": -7.51, "intermolecular_energy": -9.3, "internal_energy": -2.21, "cluster_size": 16, "cluster_id": 1, "rank_in_cluster": 13}

$$$$

     RDKit          3D

 45 48  0  0  0  0  0  0  0  0999 V2000
  140.8280   71.8470  221.1180 O   0  0  0  0  0  0  0  0  0  0  0  0
  140.3350   72.3430  222.1680 C   0  0  0  0  0  0  0  0  0  0  0  0
  140.0150   73.7420  222.2100 N   0  0  0  0  0  0  0  0  0  0  0  0
  140.3430   74.6310  221.0960 C   0  0  0  0  0  0  0  0  0  0  0  0
  140.0940   76.0720  221.4730 C   0  0  0  0  0  0  0  0  0  0  0  0
  139.4840   76.2920  222.7130 O   0  0  0  0  0  0  0  0  0  0  0  0
  140.4520   77.0780  220.7000 N   0  0  0  0  0  0  0  0  0  0  0  0
  139.6250   77.5730  219.6030 C   0  0  0  0  0  0  0  0  0  0  0  0
  140.3810   78.7420  218.9860 C   0  0  0  0  0  0  0  0  0  0  0  0
  141.8100   78.6320  219.5000 C   0  0  0  0  0  0  0  0  0  0  0  0
  141.7290   77.7940  220.7780 C   0  0  1  0  0  0  0  0  0  0  0  0
  141.7910   78.6720  222.0050 C   0  0  0  0  0  0  0  0  0  0  0  0
  142.2390   79.9930  221.9910 C   0  0  0  0  0  0  0  0  0  0  0  0
  142.1770   80.5670  223.5680 S   0  0  0  0  0  0  0  0  0  0  0  0
  141.5900   79.1270  224.2010 C   0  0  0  0  0  0  0  0  0  0  0  0
  141.4400   78.1980  223.2320 N   0  0  0  0  0  0  0  0  0  0  0  0
  140.1110   71.4860  223.3520 C   0  0  0  0  0  0  0  0  0  0  0  0
  139.4230   70.2640  223.2440 C   0  0  0  0  0  0  0  0  0  0  0  0
  139.2500   69.4650  224.3750 C   0  0  0  0  0  0  0  0  0  0  0  0
  139.7610   69.8820  225.6100 C   0  0  0  0  0  0  0  0  0  0  0  0
  139.6080   69.1010  226.7640 C   0  0  0  0  0  0  0  0  0  0  0  0
  140.1330   69.5460  227.9830 C   0  0  0  0  0  0  0  0  0  0  0  0
  139.9880   68.7900  229.1000 F   0  0  0  0  0  0  0  0  0  0  0  0
  140.8090   70.7710  228.0520 C   0  0  0  0  0  0  0  0  0  0  0  0
  140.9640   71.5540  226.9050 C   0  0  0  0  0  0  0  0  0  0  0  0
  140.4420   71.1170  225.6830 C   0  0  0  0  0  0  0  0  0  0  0  0
  140.5940   71.8740  224.5650 N   0  0  0  0  0  0  0  0  0  0  0  0
  139.5480   74.1350  223.0590 H   0  0  0  0  0  0  0  0  0  0  0  0
  141.4036   74.5045  220.8330 H   0  0  0  0  0  0  0  0  0  0  0  0
  139.7043   74.3740  220.2381 H   0  0  0  0  0  0  0  0  0  0  0  0
  139.6790   77.0920  223.3000 H   0  0  0  0  0  0  0  0  0  0  0  0
  139.4727   76.7813  218.8546 H   0  0  0  0  0  0  0  0  0  0  0  0
  138.6331   77.8852  219.9617 H   0  0  0  0  0  0  0  0  0  0  0  0
  140.3627   78.6730  217.8883 H   0  0  0  0  0  0  0  0  0  0  0  0
  139.9266   79.7060  219.2584 H   0  0  0  0  0  0  0  0  0  0  0  0
  142.4480   78.1340  218.7550 H   0  0  0  0  0  0  0  0  0  0  0  0
  142.2490   79.6222  219.6918 H   0  0  0  0  0  0  0  0  0  0  0  0
  142.5753   77.0962  220.8605 H   0  0  0  0  0  0  0  0  0  0  0  0
  142.5725   80.5566  221.1071 H   0  0  0  0  0  0  0  0  0  0  0  0
  141.3584   78.9620  225.2636 H   0  0  0  0  0  0  0  0  0  0  0  0
  139.0230   69.9394  222.2721 H   0  0  0  0  0  0  0  0  0  0  0  0
  138.7126   68.5084  224.2963 H   0  0  0  0  0  0  0  0  0  0  0  0
  139.0760   68.1396  226.7117 H   0  0  0  0  0  0  0  0  0  0  0  0
  141.2191   71.1176  229.0120 H   0  0  0  0  0  0  0  0  0  0  0  0
  141.4968   72.5146  226.9631 H   0  0  0  0  0  0  0  0  0  0  0  0
  1  2  2  0
  2  3  1  0
  3  4  1  0
  4  5  1  0
  5  6  1  0
  5  7  2  0
  7  8  1  0
  8  9  1  0
  9 10  1  0
 10 11  1  0
 11 12  1  0
 12 13  2  0
 13 14  1  0
 14 15  1  0
 15 16  2  0
  2 17  1  0
 17 18  2  0
 18 19  1  0
 19 20  2  0
 20 21  1  0
 21 22  2  0
 22 23  1  0
 22 24  1  0
 24 25  2  0
 25 26  1  0
 26 27  2  0
 11  7  1  0
 16 12  1  0
 27 17  1  0
 26 20  1  0
  3 28  1  0
  4 29  1  0
  4 30  1  0
  6 31  1  0
  8 32  1  0
  8 33  1  0
  9 34  1  0
  9 35  1  0
 10 36  1  0
 10 37  1  0
 11 38  1  1
 13 39  1  0
 15 40  1  0
 18 41  1  0
 19 42  1  0
 21 43  1  0
 24 44  1  0
 25 45  1  0
M  CHG  1   7   1
M  END
>  <meeko>  (13) 
{"free_energy": -7.54, "intermolecular_energy": -9.33, "internal_energy": -2.19, "cluster_size": 16, "cluster_id": 1, "rank_in_cluster": 10}

$$$$

     RDKit          3D

 45 48  0  0  0  0  0  0  0  0999 V2000
  140.8500   71.8350  221.1340 O   0  0  0  0  0  0  0  0  0  0  0  0
  140.3540   72.3320  222.1820 C   0  0  0  0  0  0  0  0  0  0  0  0
  140.0320   73.7300  222.2220 N   0  0  0  0  0  0  0  0  0  0  0  0
  140.3620   74.6190  221.1080 C   0  0  0  0  0  0  0  0  0  0  0  0
  140.1030   76.0590  221.4800 C   0  0  0  0  0  0  0  0  0  0  0  0
  139.4840   76.2790  222.7150 O   0  0  0  0  0  0  0  0  0  0  0  0
  140.4620   77.0660  220.7080 N   0  0  0  0  0  0  0  0  0  0  0  0
  139.6310   77.5690  219.6180 C   0  0  0  0  0  0  0  0  0  0  0  0
  140.3900   78.7350  218.9990 C   0  0  0  0  0  0  0  0  0  0  0  0
  141.8210   78.6150  219.5040 C   0  0  0  0  0  0  0  0  0  0  0  0
  141.7440   77.7740  220.7790 C   0  0  1  0  0  0  0  0  0  0  0  0
  141.8190   78.6480  222.0080 C   0  0  0  0  0  0  0  0  0  0  0  0
  142.2830   79.9630  221.9970 C   0  0  0  0  0  0  0  0  0  0  0  0
  142.2310   80.5340  223.5760 S   0  0  0  0  0  0  0  0  0  0  0  0
  141.6290   79.0990  224.2060 C   0  0  0  0  0  0  0  0  0  0  0  0
  141.4650   78.1750  223.2350 N   0  0  0  0  0  0  0  0  0  0  0  0
  140.1280   71.4760  223.3670 C   0  0  0  0  0  0  0  0  0  0  0  0
  139.4390   70.2550  223.2590 C   0  0  0  0  0  0  0  0  0  0  0  0
  139.2640   69.4560  224.3910 C   0  0  0  0  0  0  0  0  0  0  0  0
  139.7760   69.8730  225.6250 C   0  0  0  0  0  0  0  0  0  0  0  0
  139.6210   69.0930  226.7800 C   0  0  0  0  0  0  0  0  0  0  0  0
  140.1460   69.5390  227.9990 C   0  0  0  0  0  0  0  0  0  0  0  0
  139.9990   68.7830  229.1160 F   0  0  0  0  0  0  0  0  0  0  0  0
  140.8230   70.7620  228.0680 C   0  0  0  0  0  0  0  0  0  0  0  0
  140.9800   71.5450  226.9200 C   0  0  0  0  0  0  0  0  0  0  0  0
  140.4580   71.1070  225.6980 C   0  0  0  0  0  0  0  0  0  0  0  0
  140.6120   71.8640  224.5790 N   0  0  0  0  0  0  0  0  0  0  0  0
  139.5640   74.1240  223.0690 H   0  0  0  0  0  0  0  0  0  0  0  0
  141.4249   74.4977  220.8518 H   0  0  0  0  0  0  0  0  0  0  0  0
  139.7297   74.3568  220.2469 H   0  0  0  0  0  0  0  0  0  0  0  0
  139.6220   77.1120  223.2730 H   0  0  0  0  0  0  0  0  0  0  0  0
  139.4688   76.7803  218.8686 H   0  0  0  0  0  0  0  0  0  0  0  0
  138.6435   77.8864  219.9842 H   0  0  0  0  0  0  0  0  0  0  0  0
  140.3646   78.6687  217.9013 H   0  0  0  0  0  0  0  0  0  0  0  0
  139.9431   79.7011  219.2763 H   0  0  0  0  0  0  0  0  0  0  0  0
  142.4514   78.1158  218.7534 H   0  0  0  0  0  0  0  0  0  0  0  0
  142.2664   79.6022  219.6965 H   0  0  0  0  0  0  0  0  0  0  0  0
  142.5868   77.0710  220.8532 H   0  0  0  0  0  0  0  0  0  0  0  0
  142.6218   80.5248  221.1140 H   0  0  0  0  0  0  0  0  0  0  0  0
  141.3987   78.9334  225.2688 H   0  0  0  0  0  0  0  0  0  0  0  0
  139.0394   69.9305  222.2869 H   0  0  0  0  0  0  0  0  0  0  0  0
  138.7247   68.5005  224.3129 H   0  0  0  0  0  0  0  0  0  0  0  0
  139.0878   68.1323  226.7284 H   0  0  0  0  0  0  0  0  0  0  0  0
  141.2329   71.1084  229.0282 H   0  0  0  0  0  0  0  0  0  0  0  0
  141.5138   72.5051  226.9777 H   0  0  0  0  0  0  0  0  0  0  0  0
  1  2  2  0
  2  3  1  0
  3  4  1  0
  4  5  1  0
  5  6  1  0
  5  7  2  0
  7  8  1  0
  8  9  1  0
  9 10  1  0
 10 11  1  0
 11 12  1  0
 12 13  2  0
 13 14  1  0
 14 15  1  0
 15 16  2  0
  2 17  1  0
 17 18  2  0
 18 19  1  0
 19 20  2  0
 20 21  1  0
 21 22  2  0
 22 23  1  0
 22 24  1  0
 24 25  2  0
 25 26  1  0
 26 27  2  0
 11  7  1  0
 16 12  1  0
 27 17  1  0
 26 20  1  0
  3 28  1  0
  4 29  1  0
  4 30  1  0
  6 31  1  0
  8 32  1  0
  8 33  1  0
  9 34  1  0
  9 35  1  0
 10 36  1  0
 10 37  1  0
 11 38  1  1
 13 39  1  0
 15 40  1  0
 18 41  1  0
 19 42  1  0
 21 43  1  0
 24 44  1  0
 25 45  1  0
M  CHG  1   7   1
M  END
>  <meeko>  (14) 
{"free_energy": -7.55, "intermolecular_energy": -9.34, "internal_energy": -2.18, "cluster_size": 16, "cluster_id": 1, "rank_in_cluster": 9}

$$$$

     RDKit          3D

 45 48  0  0  0  0  0  0  0  0999 V2000
  141.0780   71.9340  221.2170 O   0  0  0  0  0  0  0  0  0  0  0  0
  140.4110   72.3850  222.1880 C   0  0  0  0  0  0  0  0  0  0  0  0
  139.9180   73.7330  222.1440 N   0  0  0  0  0  0  0  0  0  0  0  0
  140.2600   74.6330  221.0440 C   0  0  0  0  0  0  0  0  0  0  0  0
  140.0730   76.0740  221.4550 C   0  0  0  0  0  0  0  0  0  0  0  0
  139.5160   76.2910  222.7200 O   0  0  0  0  0  0  0  0  0  0  0  0
  140.4370   77.0830  220.6880 N   0  0  0  0  0  0  0  0  0  0  0  0
  139.6160   77.5830  219.5880 C   0  0  0  0  0  0  0  0  0  0  0  0
  140.3770   78.7530  218.9790 C   0  0  0  0  0  0  0  0  0  0  0  0
  141.8030   78.6390  219.5000 C   0  0  0  0  0  0  0  0  0  0  0  0
  141.7150   77.7970  220.7740 C   0  0  1  0  0  0  0  0  0  0  0  0
  141.7710   78.6700  222.0050 C   0  0  0  0  0  0  0  0  0  0  0  0
  142.2110   79.9940  221.9970 C   0  0  0  0  0  0  0  0  0  0  0  0
  142.1450   80.5610  223.5760 S   0  0  0  0  0  0  0  0  0  0  0  0
  141.5680   79.1150  224.2030 C   0  0  0  0  0  0  0  0  0  0  0  0
  141.4230   78.1890  223.2310 N   0  0  0  0  0  0  0  0  0  0  0  0
  140.1590   71.5320  223.3690 C   0  0  0  0  0  0  0  0  0  0  0  0
  139.4200   70.3400  223.2590 C   0  0  0  0  0  0  0  0  0  0  0  0
  139.2220   69.5420  224.3880 C   0  0  0  0  0  0  0  0  0  0  0  0
  139.7590   69.9310  225.6200 C   0  0  0  0  0  0  0  0  0  0  0  0
  139.5810   69.1510  226.7720 C   0  0  0  0  0  0  0  0  0  0  0  0
  140.1330   69.5680  227.9890 C   0  0  0  0  0  0  0  0  0  0  0  0
  139.9630   68.8120  229.1030 F   0  0  0  0  0  0  0  0  0  0  0  0
  140.8590   70.7620  228.0600 C   0  0  0  0  0  0  0  0  0  0  0  0
  141.0380   71.5450  226.9160 C   0  0  0  0  0  0  0  0  0  0  0  0
  140.4910   71.1360  225.6960 C   0  0  0  0  0  0  0  0  0  0  0  0
  140.6670   71.8930  224.5800 N   0  0  0  0  0  0  0  0  0  0  0  0
  139.3130   74.0820  222.9220 H   0  0  0  0  0  0  0  0  0  0  0  0
  141.3102   74.4722  220.7592 H   0  0  0  0  0  0  0  0  0  0  0  0
  139.5966   74.4192  220.1930 H   0  0  0  0  0  0  0  0  0  0  0  0
  139.5150   77.1880  223.1870 H   0  0  0  0  0  0  0  0  0  0  0  0
  139.4664   76.7941  218.8361 H   0  0  0  0  0  0  0  0  0  0  0  0
  138.6227   77.8954  219.9425 H   0  0  0  0  0  0  0  0  0  0  0  0
  140.3643   78.6878  217.8810 H   0  0  0  0  0  0  0  0  0  0  0  0
  139.9227   79.7168  219.2525 H   0  0  0  0  0  0  0  0  0  0  0  0
  142.4440   78.1428  218.7564 H   0  0  0  0  0  0  0  0  0  0  0  0
  142.2421   79.6280  219.6978 H   0  0  0  0  0  0  0  0  0  0  0  0
  142.5607   77.0985  220.8572 H   0  0  0  0  0  0  0  0  0  0  0  0
  142.5414   80.5634  221.1157 H   0  0  0  0  0  0  0  0  0  0  0  0
  141.3383   78.9443  225.2651 H   0  0  0  0  0  0  0  0  0  0  0  0
  139.0000   70.0378  222.2883 H   0  0  0  0  0  0  0  0  0  0  0  0
  138.6447   68.6090  224.3087 H   0  0  0  0  0  0  0  0  0  0  0  0
  139.0086   68.2131  226.7193 H   0  0  0  0  0  0  0  0  0  0  0  0
  141.2901   71.0855  229.0189 H   0  0  0  0  0  0  0  0  0  0  0  0
  141.6093   72.4831  226.9756 H   0  0  0  0  0  0  0  0  0  0  0  0
  1  2  2  0
  2  3  1  0
  3  4  1  0
  4  5  1  0
  5  6  1  0
  5  7  2  0
  7  8  1  0
  8  9  1  0
  9 10  1  0
 10 11  1  0
 11 12  1  0
 12 13  2  0
 13 14  1  0
 14 15  1  0
 15 16  2  0
  2 17  1  0
 17 18  2  0
 18 19  1  0
 19 20  2  0
 20 21  1  0
 21 22  2  0
 22 23  1  0
 22 24  1  0
 24 25  2  0
 25 26  1  0
 26 27  2  0
 11  7  1  0
 16 12  1  0
 27 17  1  0
 26 20  1  0
  3 28  1  0
  4 29  1  0
  4 30  1  0
  6 31  1  0
  8 32  1  0
  8 33  1  0
  9 34  1  0
  9 35  1  0
 10 36  1  0
 10 37  1  0
 11 38  1  1
 13 39  1  0
 15 40  1  0
 18 41  1  0
 19 42  1  0
 21 43  1  0
 24 44  1  0
 25 45  1  0
M  CHG  1   7   1
M  END
>  <meeko>  (15) 
{"free_energy": -7.63, "intermolecular_energy": -9.41, "internal_energy": -2.09, "cluster_size": 16, "cluster_id": 1, "rank_in_cluster": 6}

$$$$

     RDKit          3D

 45 48  0  0  0  0  0  0  0  0999 V2000
  141.3720   72.5720  221.8670 O   0  0  0  0  0  0  0  0  0  0  0  0
  140.3070   72.5450  222.5430 C   0  0  0  0  0  0  0  0  0  0  0  0
  139.2520   73.4710  222.2430 N   0  0  0  0  0  0  0  0  0  0  0  0
  139.4220   74.5180  221.2370 C   0  0  0  0  0  0  0  0  0  0  0  0
  139.9620   75.7800  221.8650 C   0  0  0  0  0  0  0  0  0  0  0  0
  141.3030   75.7480  222.2640 O   0  0  0  0  0  0  0  0  0  0  0  0
  139.2330   76.8680  222.0100 N   0  0  0  0  0  0  0  0  0  0  0  0
  137.9530   76.8820  222.7120 C   0  0  0  0  0  0  0  0  0  0  0  0
  137.4550   78.3200  222.6740 C   0  0  0  0  0  0  0  0  0  0  0  0
  138.2800   79.0190  221.6020 C   0  0  0  0  0  0  0  0  0  0  0  0
  139.5530   78.1850  221.4470 C   0  0  1  0  0  0  0  0  0  0  0  0
  140.7110   78.8240  222.1750 C   0  0  0  0  0  0  0  0  0  0  0  0
  141.4400   79.9030  221.6750 C   0  0  0  0  0  0  0  0  0  0  0  0
  142.6490   80.2580  222.7850 S   0  0  0  0  0  0  0  0  0  0  0  0
  142.2040   79.0360  223.8480 C   0  0  0  0  0  0  0  0  0  0  0  0
  141.1430   78.3460  223.3750 N   0  0  0  0  0  0  0  0  0  0  0  0
  140.1630   71.5750  223.6500 C   0  0  0  0  0  0  0  0  0  0  0  0
  139.5550   70.3240  223.4440 C   0  0  0  0  0  0  0  0  0  0  0  0
  139.4570   69.4190  224.5030 C   0  0  0  0  0  0  0  0  0  0  0  0
  139.9630   69.7610  225.7630 C   0  0  0  0  0  0  0  0  0  0  0  0
  139.8840   68.8750  226.8470 C   0  0  0  0  0  0  0  0  0  0  0  0
  140.4020   69.2480  228.0920 C   0  0  0  0  0  0  0  0  0  0  0  0
  140.3280   68.3900  229.1400 F   0  0  0  0  0  0  0  0  0  0  0  0
  140.9960   70.5040  228.2600 C   0  0  0  0  0  0  0  0  0  0  0  0
  141.0770   71.3930  227.1840 C   0  0  0  0  0  0  0  0  0  0  0  0
  140.5620   71.0280  225.9350 C   0  0  0  0  0  0  0  0  0  0  0  0
  140.6420   71.8880  224.8850 N   0  0  0  0  0  0  0  0  0  0  0  0
  138.3480   73.4030  222.7630 H   0  0  0  0  0  0  0  0  0  0  0  0
  140.1257   74.1682  220.4673 H   0  0  0  0  0  0  0  0  0  0  0  0
  138.4425   74.7383  220.7874 H   0  0  0  0  0  0  0  0  0  0  0  0
  141.8740   76.5750  222.3800 H   0  0  0  0  0  0  0  0  0  0  0  0
  137.2356   76.2179  222.2076 H   0  0  0  0  0  0  0  0  0  0  0  0
  138.0631   76.5263  223.7471 H   0  0  0  0  0  0  0  0  0  0  0  0
  136.3866   78.3482  222.4137 H   0  0  0  0  0  0  0  0  0  0  0  0
  137.5642   78.8113  223.6521 H   0  0  0  0  0  0  0  0  0  0  0  0
  137.7255   79.0520  220.6525 H   0  0  0  0  0  0  0  0  0  0  0  0
  138.5080   80.0586  221.8799 H   0  0  0  0  0  0  0  0  0  0  0  0
  139.8613   78.1076  220.3939 H   0  0  0  0  0  0  0  0  0  0  0  0
  141.2562   80.4267  220.7253 H   0  0  0  0  0  0  0  0  0  0  0  0
  142.7091   78.8255  224.8022 H   0  0  0  0  0  0  0  0  0  0  0  0
  139.1582   70.0593  222.4528 H   0  0  0  0  0  0  0  0  0  0  0  0
  138.9829   68.4387  224.3475 H   0  0  0  0  0  0  0  0  0  0  0  0
  139.4154   67.8881  226.7187 H   0  0  0  0  0  0  0  0  0  0  0  0
  141.4003   70.7926  229.2414 H   0  0  0  0  0  0  0  0  0  0  0  0
  141.5454   72.3791  227.3191 H   0  0  0  0  0  0  0  0  0  0  0  0
  1  2  2  0
  2  3  1  0
  3  4  1  0
  4  5  1  0
  5  6  1  0
  5  7  2  0
  7  8  1  0
  8  9  1  0
  9 10  1  0
 10 11  1  0
 11 12  1  0
 12 13  2  0
 13 14  1  0
 14 15  1  0
 15 16  2  0
  2 17  1  0
 17 18  2  0
 18 19  1  0
 19 20  2  0
 20 21  1  0
 21 22  2  0
 22 23  1  0
 22 24  1  0
 24 25  2  0
 25 26  1  0
 26 27  2  0
 11  7  1  0
 16 12  1  0
 27 17  1  0
 26 20  1  0
  3 28  1  0
  4 29  1  0
  4 30  1  0
  6 31  1  0
  8 32  1  0
  8 33  1  0
  9 34  1  0
  9 35  1  0
 10 36  1  0
 10 37  1  0
 11 38  1  6
 13 39  1  0
 15 40  1  0
 18 41  1  0
 19 42  1  0
 21 43  1  0
 24 44  1  0
 25 45  1  0
M  CHG  1   7   1
M  END
>  <meeko>  (16) 
{"free_energy": -8.16, "intermolecular_energy": -9.95, "internal_energy": -1.54, "cluster_size": 16, "cluster_id": 1, "rank_in_cluster": 1}

$$$$

     RDKit          3D

 45 48  0  0  0  0  0  0  0  0999 V2000
  138.2470   72.2590  222.6400 O   0  0  0  0  0  0  0  0  0  0  0  0
  139.3870   71.7710  222.8730 C   0  0  0  0  0  0  0  0  0  0  0  0
  140.5010   72.1450  222.0470 N   0  0  0  0  0  0  0  0  0  0  0  0
  140.3260   73.0010  220.8750 C   0  0  0  0  0  0  0  0  0  0  0  0
  140.3980   74.4590  221.2620 C   0  0  0  0  0  0  0  0  0  0  0  0
  139.6020   74.8530  222.3430 O   0  0  0  0  0  0  0  0  0  0  0  0
  141.1850   75.3170  220.6440 N   0  0  0  0  0  0  0  0  0  0  0  0
  141.1560   76.7540  220.9070 C   0  0  0  0  0  0  0  0  0  0  0  0
  142.2220   77.3760  220.0140 C   0  0  0  0  0  0  0  0  0  0  0  0
  142.5620   76.3200  218.9720 C   0  0  0  0  0  0  0  0  0  0  0  0
  142.1380   74.9830  219.5810 C   0  0  1  0  0  0  0  0  0  0  0  0
  143.3300   74.2350  220.1300 C   0  0  0  0  0  0  0  0  0  0  0  0
  144.5770   74.8200  220.3480 C   0  0  0  0  0  0  0  0  0  0  0  0
  145.6060   73.6220  220.9200 S   0  0  0  0  0  0  0  0  0  0  0  0
  144.4370   72.4180  220.8680 C   0  0  0  0  0  0  0  0  0  0  0  0
  143.2620   72.9050  220.4140 N   0  0  0  0  0  0  0  0  0  0  0  0
  139.5630   70.8040  223.9780 C   0  0  0  0  0  0  0  0  0  0  0  0
  139.1090   69.4790  223.8610 C   0  0  0  0  0  0  0  0  0  0  0  0
  139.3130   68.5820  224.9120 C   0  0  0  0  0  0  0  0  0  0  0  0
  139.9660   69.0070  226.0750 C   0  0  0  0  0  0  0  0  0  0  0  0
  140.1890   68.1310  227.1470 C   0  0  0  0  0  0  0  0  0  0  0  0
  140.8470   68.5870  228.2950 C   0  0  0  0  0  0  0  0  0  0  0  0
  141.0660   67.7400  229.3320 F   0  0  0  0  0  0  0  0  0  0  0  0
  141.2810   69.9160  228.3770 C   0  0  0  0  0  0  0  0  0  0  0  0
  141.0600   70.7940  227.3120 C   0  0  0  0  0  0  0  0  0  0  0  0
  140.4030   70.3460  226.1610 C   0  0  0  0  0  0  0  0  0  0  0  0
  140.1900   71.1960  225.1210 N   0  0  0  0  0  0  0  0  0  0  0  0
  141.4540   71.7880  222.2830 H   0  0  0  0  0  0  0  0  0  0  0  0
  141.1199   72.7815  220.1460 H   0  0  0  0  0  0  0  0  0  0  0  0
  139.3377   72.8006  220.4357 H   0  0  0  0  0  0  0  0  0  0  0  0
  138.8710   74.2790  222.7410 H   0  0  0  0  0  0  0  0  0  0  0  0
  140.1661   77.1659  220.6612 H   0  0  0  0  0  0  0  0  0  0  0  0
  141.3494   76.9693  221.9683 H   0  0  0  0  0  0  0  0  0  0  0  0
  141.8322   78.2822  219.5273 H   0  0  0  0  0  0  0  0  0  0  0  0
  143.1095   77.6734  220.5919 H   0  0  0  0  0  0  0  0  0  0  0  0
  142.0089   76.5092  218.0402 H   0  0  0  0  0  0  0  0  0  0  0  0
  143.6328   76.3291  218.7204 H   0  0  0  0  0  0  0  0  0  0  0  0
  141.6841   74.3213  218.8286 H   0  0  0  0  0  0  0  0  0  0  0  0
  144.8391   75.8745  220.1765 H   0  0  0  0  0  0  0  0  0  0  0  0
  144.6056   71.3721  221.1642 H   0  0  0  0  0  0  0  0  0  0  0  0
  138.5953   69.1499  222.9457 H   0  0  0  0  0  0  0  0  0  0  0  0
  138.9611   67.5433  224.8260 H   0  0  0  0  0  0  0  0  0  0  0  0
  139.8473   67.0872  227.0858 H   0  0  0  0  0  0  0  0  0  0  0  0
  141.7971   70.2698  229.2817 H   0  0  0  0  0  0  0  0  0  0  0  0
  141.4027   71.8371  227.3789 H   0  0  0  0  0  0  0  0  0  0  0  0
  1  2  2  0
  2  3  1  0
  3  4  1  0
  4  5  1  0
  5  6  1  0
  5  7  2  0
  7  8  1  0
  8  9  1  0
  9 10  1  0
 10 11  1  0
 11 12  1  0
 12 13  2  0
 13 14  1  0
 14 15  1  0
 15 16  2  0
  2 17  1  0
 17 18  2  0
 18 19  1  0
 19 20  2  0
 20 21  1  0
 21 22  2  0
 22 23  1  0
 22 24  1  0
 24 25  2  0
 25 26  1  0
 26 27  2  0
 11  7  1  0
 16 12  1  0
 27 17  1  0
 26 20  1  0
  3 28  1  0
  4 29  1  0
  4 30  1  0
  6 31  1  0
  8 32  1  0
  8 33  1  0
  9 34  1  0
  9 35  1  0
 10 36  1  0
 10 37  1  0
 11 38  1  6
 13 39  1  0
 15 40  1  0
 18 41  1  0
 19 42  1  0
 21 43  1  0
 24 44  1  0
 25 45  1  0
M  CHG  1   7   1
M  END
>  <meeko>  (17) 
{"free_energy": -7.96, "intermolecular_energy": -9.74, "internal_energy": -1.82, "cluster_size": 4, "cluster_id": 2, "rank_in_cluster": 3}

$$$$

     RDKit          3D

 45 48  0  0  0  0  0  0  0  0999 V2000
  140.9900   71.8590  221.1990 O   0  0  0  0  0  0  0  0  0  0  0  0
  140.3820   72.3390  222.1950 C   0  0  0  0  0  0  0  0  0  0  0  0
  139.9520   73.7090  222.1710 N   0  0  0  0  0  0  0  0  0  0  0  0
  140.2940   74.5950  221.0590 C   0  0  0  0  0  0  0  0  0  0  0  0
  140.0880   76.0400  221.4450 C   0  0  0  0  0  0  0  0  0  0  0  0
  139.5110   76.2710  222.6980 O   0  0  0  0  0  0  0  0  0  0  0  0
  140.4550   77.0400  220.6680 N   0  0  0  0  0  0  0  0  0  0  0  0
  139.6990   77.4490  219.4870 C   0  0  0  0  0  0  0  0  0  0  0  0
  140.4390   78.6400  218.8930 C   0  0  0  0  0  0  0  0  0  0  0  0
  141.8220   78.6310  219.5290 C   0  0  0  0  0  0  0  0  0  0  0  0
  141.6790   77.8320  220.8250 C   0  0  1  0  0  0  0  0  0  0  0  0
  141.5850   78.7520  222.0200 C   0  0  0  0  0  0  0  0  0  0  0  0
  142.6470   79.5260  222.4870 C   0  0  0  0  0  0  0  0  0  0  0  0
  142.1130   80.3540  223.8460 S   0  0  0  0  0  0  0  0  0  0  0  0
  140.5670   79.7010  223.7900 C   0  0  0  0  0  0  0  0  0  0  0  0
  140.4400   78.8490  222.7500 N   0  0  0  0  0  0  0  0  0  0  0  0
  140.1360   71.4950  223.3840 C   0  0  0  0  0  0  0  0  0  0  0  0
  139.4160   70.2920  223.2830 C   0  0  0  0  0  0  0  0  0  0  0  0
  139.2230   69.5040  224.4200 C   0  0  0  0  0  0  0  0  0  0  0  0
  139.7450   69.9150  225.6510 C   0  0  0  0  0  0  0  0  0  0  0  0
  139.5720   69.1450  226.8110 C   0  0  0  0  0  0  0  0  0  0  0  0
  140.1080   69.5850  228.0260 C   0  0  0  0  0  0  0  0  0  0  0  0
  139.9430   68.8390  229.1480 F   0  0  0  0  0  0  0  0  0  0  0  0
  140.8160   70.7910  228.0890 C   0  0  0  0  0  0  0  0  0  0  0  0
  140.9910   71.5630  226.9370 C   0  0  0  0  0  0  0  0  0  0  0  0
  140.4580   71.1320  225.7170 C   0  0  0  0  0  0  0  0  0  0  0  0
  140.6290   71.8780  224.5940 N   0  0  0  0  0  0  0  0  0  0  0  0
  139.3940   74.0840  222.9710 H   0  0  0  0  0  0  0  0  0  0  0  0
  141.3484   74.4410  220.7858 H   0  0  0  0  0  0  0  0  0  0  0  0
  139.6404   74.3602  220.2059 H   0  0  0  0  0  0  0  0  0  0  0  0
  139.1740   77.1740  223.0040 H   0  0  0  0  0  0  0  0  0  0  0  0
  139.6567   76.6258  218.7586 H   0  0  0  0  0  0  0  0  0  0  0  0
  138.6637   77.7132  219.7484 H   0  0  0  0  0  0  0  0  0  0  0  0
  140.5193   78.5348  217.8010 H   0  0  0  0  0  0  0  0  0  0  0  0
  139.9097   79.5838  219.0905 H   0  0  0  0  0  0  0  0  0  0  0  0
  142.5486   78.1478  218.8592 H   0  0  0  0  0  0  0  0  0  0  0  0
  142.1865   79.6511  219.7202 H   0  0  0  0  0  0  0  0  0  0  0  0
  142.5533   77.1887  221.0032 H   0  0  0  0  0  0  0  0  0  0  0  0
  143.6526   79.5835  222.0448 H   0  0  0  0  0  0  0  0  0  0  0  0
  139.7648   79.9359  224.5050 H   0  0  0  0  0  0  0  0  0  0  0  0
  139.0065   69.9727  222.3133 H   0  0  0  0  0  0  0  0  0  0  0  0
  138.6611   68.5611  224.3475 H   0  0  0  0  0  0  0  0  0  0  0  0
  139.0159   68.1970  226.7652 H   0  0  0  0  0  0  0  0  0  0  0  0
  141.2355   71.1318  229.0471 H   0  0  0  0  0  0  0  0  0  0  0  0
  141.5481   72.5100  226.9894 H   0  0  0  0  0  0  0  0  0  0  0  0
  1  2  2  0
  2  3  1  0
  3  4  1  0
  4  5  1  0
  5  6  1  0
  5  7  2  0
  7  8  1  0
  8  9  1  0
  9 10  1  0
 10 11  1  0
 11 12  1  0
 12 13  2  0
 13 14  1  0
 14 15  1  0
 15 16  2  0
  2 17  1  0
 17 18  2  0
 18 19  1  0
 19 20  2  0
 20 21  1  0
 21 22  2  0
 22 23  1  0
 22 24  1  0
 24 25  2  0
 25 26  1  0
 26 27  2  0
 11  7  1  0
 16 12  1  0
 27 17  1  0
 26 20  1  0
  3 28  1  0
  4 29  1  0
  4 30  1  0
  6 31  1  0
  8 32  1  0
  8 33  1  0
  9 34  1  0
  9 35  1  0
 10 36  1  0
 10 37  1  0
 11 38  1  1
 13 39  1  0
 15 40  1  0
 18 41  1  0
 19 42  1  0
 21 43  1  0
 24 44  1  0
 25 45  1  0
M  CHG  1   7   1
M  END
>  <meeko>  (18) 
{"free_energy": -7.5, "intermolecular_energy": -9.28, "internal_energy": -2.16, "cluster_size": 16, "cluster_id": 1, "rank_in_cluster": 14}

$$$$

     RDKit          3D

 45 48  0  0  0  0  0  0  0  0999 V2000
  140.3650   71.7330  220.9540 O   0  0  0  0  0  0  0  0  0  0  0  0
  140.0220   72.2500  222.0520 C   0  0  0  0  0  0  0  0  0  0  0  0
  139.7290   73.6540  222.1150 N   0  0  0  0  0  0  0  0  0  0  0  0
  139.9170   74.5240  220.9540 C   0  0  0  0  0  0  0  0  0  0  0  0
  140.0650   75.9630  221.3840 C   0  0  0  0  0  0  0  0  0  0  0  0
  139.7510   76.2470  222.7180 O   0  0  0  0  0  0  0  0  0  0  0  0
  140.4930   76.9060  220.5690 N   0  0  0  0  0  0  0  0  0  0  0  0
  139.7510   77.3320  219.3850 C   0  0  0  0  0  0  0  0  0  0  0  0
  140.5690   78.4430  218.7400 C   0  0  0  0  0  0  0  0  0  0  0  0
  141.9580   78.3500  219.3560 C   0  0  0  0  0  0  0  0  0  0  0  0
  141.7760   77.6080  220.6820 C   0  0  1  0  0  0  0  0  0  0  0  0
  141.7710   78.5710  221.8450 C   0  0  0  0  0  0  0  0  0  0  0  0
  142.1300   79.9150  221.7400 C   0  0  0  0  0  0  0  0  0  0  0  0
  142.0210   80.5920  223.2730 S   0  0  0  0  0  0  0  0  0  0  0  0
  141.5270   79.1630  224.0040 C   0  0  0  0  0  0  0  0  0  0  0  0
  141.4450   78.1610  223.1020 N   0  0  0  0  0  0  0  0  0  0  0  0
  139.9470   71.4120  223.2680 C   0  0  0  0  0  0  0  0  0  0  0  0
  139.3540   70.1380  223.2350 C   0  0  0  0  0  0  0  0  0  0  0  0
  139.3210   69.3590  224.3940 C   0  0  0  0  0  0  0  0  0  0  0  0
  139.8770   69.8510  225.5810 C   0  0  0  0  0  0  0  0  0  0  0  0
  139.8640   69.0940  226.7620 C   0  0  0  0  0  0  0  0  0  0  0  0
  140.4300   69.6140  227.9310 C   0  0  0  0  0  0  0  0  0  0  0  0
  140.4200   68.8810  229.0720 F   0  0  0  0  0  0  0  0  0  0  0  0
  141.0080   70.8890  227.9260 C   0  0  0  0  0  0  0  0  0  0  0  0
  141.0230   71.6490  226.7530 C   0  0  0  0  0  0  0  0  0  0  0  0
  140.4590   71.1370  225.5800 C   0  0  0  0  0  0  0  0  0  0  0  0
  140.4760   71.8720  224.4360 N   0  0  0  0  0  0  0  0  0  0  0  0
  139.3850   74.0650  223.0120 H   0  0  0  0  0  0  0  0  0  0  0  0
  140.8233   74.2137  220.4133 H   0  0  0  0  0  0  0  0  0  0  0  0
  139.0354   74.4387  220.3018 H   0  0  0  0  0  0  0  0  0  0  0  0
  140.2230   76.9530  223.2680 H   0  0  0  0  0  0  0  0  0  0  0  0
  139.6348   76.4906  218.6860 H   0  0  0  0  0  0  0  0  0  0  0  0
  138.7431   77.6829  219.6515 H   0  0  0  0  0  0  0  0  0  0  0  0
  140.6227   78.2959  217.6512 H   0  0  0  0  0  0  0  0  0  0  0  0
  140.1159   79.4304  218.9127 H   0  0  0  0  0  0  0  0  0  0  0  0
  142.6344   77.7903  218.6933 H   0  0  0  0  0  0  0  0  0  0  0  0
  142.4023   79.3450  219.5060 H   0  0  0  0  0  0  0  0  0  0  0  0
  142.6023   76.9069  220.8707 H   0  0  0  0  0  0  0  0  0  0  0  0
  142.4302   80.4370  220.8194 H   0  0  0  0  0  0  0  0  0  0  0  0
  141.3003   79.0571  225.0752 H   0  0  0  0  0  0  0  0  0  0  0  0
  138.9177   69.7560  222.3003 H   0  0  0  0  0  0  0  0  0  0  0  0
  138.8590   68.3609  224.3741 H   0  0  0  0  0  0  0  0  0  0  0  0
  139.4092   68.0925  226.7689 H   0  0  0  0  0  0  0  0  0  0  0  0
  141.4515   71.2938  228.8476 H   0  0  0  0  0  0  0  0  0  0  0  0
  141.4786   72.6502  226.7524 H   0  0  0  0  0  0  0  0  0  0  0  0
  1  2  2  0
  2  3  1  0
  3  4  1  0
  4  5  1  0
  5  6  1  0
  5  7  2  0
  7  8  1  0
  8  9  1  0
  9 10  1  0
 10 11  1  0
 11 12  1  0
 12 13  2  0
 13 14  1  0
 14 15  1  0
 15 16  2  0
  2 17  1  0
 17 18  2  0
 18 19  1  0
 19 20  2  0
 20 21  1  0
 21 22  2  0
 22 23  1  0
 22 24  1  0
 24 25  2  0
 25 26  1  0
 26 27  2  0
 11  7  1  0
 16 12  1  0
 27 17  1  0
 26 20  1  0
  3 28  1  0
  4 29  1  0
  4 30  1  0
  6 31  1  0
  8 32  1  0
  8 33  1  0
  9 34  1  0
  9 35  1  0
 10 36  1  0
 10 37  1  0
 11 38  1  1
 13 39  1  0
 15 40  1  0
 18 41  1  0
 19 42  1  0
 21 43  1  0
 24 44  1  0
 25 45  1  0
M  CHG  1   7   1
M  END
>  <meeko>  (19) 
{"free_energy": -7.44, "intermolecular_energy": -9.23, "internal_energy": -2.14, "cluster_size": 16, "cluster_id": 1, "rank_in_cluster": 16}

$$$$

     RDKit          3D

 45 48  0  0  0  0  0  0  0  0999 V2000
  140.9230   71.8770  221.1820 O   0  0  0  0  0  0  0  0  0  0  0  0
  140.3930   72.3680  222.2170 C   0  0  0  0  0  0  0  0  0  0  0  0
  140.0540   73.7630  222.2470 N   0  0  0  0  0  0  0  0  0  0  0  0
  140.4020   74.6550  221.1430 C   0  0  0  0  0  0  0  0  0  0  0  0
  140.0880   76.0890  221.4950 C   0  0  0  0  0  0  0  0  0  0  0  0
  139.4230   76.2980  222.7090 O   0  0  0  0  0  0  0  0  0  0  0  0
  140.4410   77.1010  220.7270 N   0  0  0  0  0  0  0  0  0  0  0  0
  139.5950   77.6190  219.6550 C   0  0  0  0  0  0  0  0  0  0  0  0
  140.3510   78.7870  219.0360 C   0  0  0  0  0  0  0  0  0  0  0  0
  141.7900   78.6550  219.5170 C   0  0  0  0  0  0  0  0  0  0  0  0
  141.7270   77.8020  220.7850 C   0  0  1  0  0  0  0  0  0  0  0  0
  141.8260   78.6630  222.0220 C   0  0  0  0  0  0  0  0  0  0  0  0
  142.3240   79.9660  222.0210 C   0  0  0  0  0  0  0  0  0  0  0  0
  142.2890   80.5250  223.6040 S   0  0  0  0  0  0  0  0  0  0  0  0
  141.6480   79.1020  224.2230 C   0  0  0  0  0  0  0  0  0  0  0  0
  141.4600   78.1900  223.2450 N   0  0  0  0  0  0  0  0  0  0  0  0
  140.1470   71.5090  223.3960 C   0  0  0  0  0  0  0  0  0  0  0  0
  139.4310   70.3050  223.2790 C   0  0  0  0  0  0  0  0  0  0  0  0
  139.2370   69.5030  224.4050 C   0  0  0  0  0  0  0  0  0  0  0  0
  139.7550   69.9010  225.6430 C   0  0  0  0  0  0  0  0  0  0  0  0
  139.5810   69.1170  226.7930 C   0  0  0  0  0  0  0  0  0  0  0  0
  140.1130   69.5430  228.0150 C   0  0  0  0  0  0  0  0  0  0  0  0
  139.9480   68.7840  229.1270 F   0  0  0  0  0  0  0  0  0  0  0  0
  140.8170   70.7510  228.0930 C   0  0  0  0  0  0  0  0  0  0  0  0
  140.9920   71.5370  226.9510 C   0  0  0  0  0  0  0  0  0  0  0  0
  140.4640   71.1190  225.7250 C   0  0  0  0  0  0  0  0  0  0  0  0
  140.6360   71.8790  224.6110 N   0  0  0  0  0  0  0  0  0  0  0  0
  139.5590   74.1500  223.0820 H   0  0  0  0  0  0  0  0  0  0  0  0
  141.4772   74.5629  220.9297 H   0  0  0  0  0  0  0  0  0  0  0  0
  139.8114   74.3707  220.2596 H   0  0  0  0  0  0  0  0  0  0  0  0
  139.6390   77.0540  223.3440 H   0  0  0  0  0  0  0  0  0  0  0  0
  139.4167   76.8387  218.9005 H   0  0  0  0  0  0  0  0  0  0  0  0
  138.6149   77.9377  220.0395 H   0  0  0  0  0  0  0  0  0  0  0  0
  140.3080   78.7319  217.9382 H   0  0  0  0  0  0  0  0  0  0  0  0
  139.9138   79.7525  219.3305 H   0  0  0  0  0  0  0  0  0  0  0  0
  142.4060   78.1597  218.7520 H   0  0  0  0  0  0  0  0  0  0  0  0
  142.2444   79.6377  219.7114 H   0  0  0  0  0  0  0  0  0  0  0  0
  142.5671   77.0939  220.8391 H   0  0  0  0  0  0  0  0  0  0  0  0
  142.6760   80.5261  221.1421 H   0  0  0  0  0  0  0  0  0  0  0  0
  141.4124   78.9348  225.2844 H   0  0  0  0  0  0  0  0  0  0  0  0
  139.0253   69.9961  222.3043 H   0  0  0  0  0  0  0  0  0  0  0  0
  138.6778   68.5596  224.3195 H   0  0  0  0  0  0  0  0  0  0  0  0
  139.0270   68.1685  226.7343 H   0  0  0  0  0  0  0  0  0  0  0  0
  141.2334   71.0821  229.0558 H   0  0  0  0  0  0  0  0  0  0  0  0
  141.5455   72.4854  227.0162 H   0  0  0  0  0  0  0  0  0  0  0  0
  1  2  2  0
  2  3  1  0
  3  4  1  0
  4  5  1  0
  5  6  1  0
  5  7  2  0
  7  8  1  0
  8  9  1  0
  9 10  1  0
 10 11  1  0
 11 12  1  0
 12 13  2  0
 13 14  1  0
 14 15  1  0
 15 16  2  0
  2 17  1  0
 17 18  2  0
 18 19  1  0
 19 20  2  0
 20 21  1  0
 21 22  2  0
 22 23  1  0
 22 24  1  0
 24 25  2  0
 25 26  1  0
 26 27  2  0
 11  7  1  0
 16 12  1  0
 27 17  1  0
 26 20  1  0
  3 28  1  0
  4 29  1  0
  4 30  1  0
  6 31  1  0
  8 32  1  0
  8 33  1  0
  9 34  1  0
  9 35  1  0
 10 36  1  0
 10 37  1  0
 11 38  1  6
 13 39  1  0
 15 40  1  0
 18 41  1  0
 19 42  1  0
 21 43  1  0
 24 44  1  0
 25 45  1  0
M  CHG  1   7   1
M  END
>  <meeko>  (20) 
{"free_energy": -7.54, "intermolecular_energy": -9.32, "internal_energy": -2.19, "cluster_size": 16, "cluster_id": 1, "rank_in_cluster": 12}

$$$$
