
     RDKit          3D

 38 39  0  0  0  0  0  0  0  0999 V2000
  144.5530   74.5370  220.4310 C   0  0  0  0  0  0  0  0  0  0  0  0
  145.0960   73.1700  220.8690 C   0  0  0  0  0  0  0  0  0  0  0  0
  146.3840   73.3490  221.6820 C   0  0  0  0  0  0  0  0  0  0  0  0
  145.3530   72.2520  219.6620 C   0  0  0  0  0  0  0  0  0  0  0  0
  144.1600   71.4790  219.3370 N   0  0  0  0  0  0  0  0  0  0  0  0
  142.8460   71.9080  219.7060 C   0  0  0  0  0  0  0  0  0  0  0  0
  142.2520   72.9660  219.0150 O   0  0  0  0  0  0  0  0  0  0  0  0
  142.1700   71.2880  220.6840 C   0  0  0  0  0  0  0  0  0  0  0  0
  140.8250   71.6320  221.0480 N   0  0  0  0  0  0  0  0  0  0  0  0
  140.4020   72.2070  222.2930 C   0  0  0  0  0  0  0  0  0  0  0  0
  140.1960   73.4480  222.3440 O   0  0  0  0  0  0  0  0  0  0  0  0
  140.2230   71.4030  223.5230 C   0  0  0  0  0  0  0  0  0  0  0  0
  139.5930   70.1470  223.5020 C   0  0  0  0  0  0  0  0  0  0  0  0
  139.4370   69.4300  224.6900 C   0  0  0  0  0  0  0  0  0  0  0  0
  139.9250   69.9570  225.8910 C   0  0  0  0  0  0  0  0  0  0  0  0
  139.7800   69.2650  227.1030 C   0  0  0  0  0  0  0  0  0  0  0  0
  140.2820   69.8190  228.2850 C   0  0  0  0  0  0  0  0  0  0  0  0
  140.9300   71.0590  228.2630 C   0  0  0  0  0  0  0  0  0  0  0  0
  141.0790   71.7520  227.0580 C   0  0  0  0  0  0  0  0  0  0  0  0
  140.5800   71.2060  225.8700 C   0  0  0  0  0  0  0  0  0  0  0  0
  140.7140   71.8820  224.6990 N   0  0  0  0  0  0  0  0  0  0  0  0
  144.3140   75.1387  221.3203 H   0  0  0  0  0  0  0  0  0  0  0  0
  145.3126   75.0576  219.8294 H   0  0  0  0  0  0  0  0  0  0  0  0
  143.6432   74.3945  219.8294 H   0  0  0  0  0  0  0  0  0  0  0  0
  144.3331   72.6904  221.4998 H   0  0  0  0  0  0  0  0  0  0  0  0
  146.1474   73.3161  222.7558 H   0  0  0  0  0  0  0  0  0  0  0  0
  147.0879   72.5400  221.4367 H   0  0  0  0  0  0  0  0  0  0  0  0
  146.8406   74.3192  221.4367 H   0  0  0  0  0  0  0  0  0  0  0  0
  145.6319   72.8672  218.7938 H   0  0  0  0  0  0  0  0  0  0  0  0
  146.1665   71.5560  219.9148 H   0  0  0  0  0  0  0  0  0  0  0  0
  141.3310   73.3150  219.2530 H   0  0  0  0  0  0  0  0  0  0  0  0
  142.6702   70.4770  221.2336 H   0  0  0  0  0  0  0  0  0  0  0  0
  139.2241   69.7302  222.5532 H   0  0  0  0  0  0  0  0  0  0  0  0
  138.9316   68.4530  224.6818 H   0  0  0  0  0  0  0  0  0  0  0  0
  139.2727   68.2892  227.1234 H   0  0  0  0  0  0  0  0  0  0  0  0
  140.1670   69.2778  229.2357 H   0  0  0  0  0  0  0  0  0  0  0  0
  141.3230   71.4895  229.1959 H   0  0  0  0  0  0  0  0  0  0  0  0
  141.5886   72.7267  227.0437 H   0  0  0  0  0  0  0  0  0  0  0  0
  1  2  1  0
  2  3  1  0
  2  4  1  0
  4  5  1  0
  5  6  1  0
  6  7  1  0
  6  8  2  0
  8  9  1  0
  9 10  1  0
 10 11  2  0
 10 12  1  0
 12 13  2  0
 13 14  1  0
 14 15  2  0
 15 16  1  0
 16 17  2  0
 17 18  1  0
 18 19  2  0
 19 20  1  0
 20 21  2  0
 21 12  1  0
 20 15  1  0
  1 22  1  0
  1 23  1  0
  1 24  1  0
  2 25  1  0
  3 26  1  0
  3 27  1  0
  3 28  1  0
  4 29  1  0
  4 30  1  0
  7 31  1  0
  8 32  1  0
 13 33  1  0
 14 34  1  0
 16 35  1  0
 17 36  1  0
 18 37  1  0
 19 38  1  0
M  CHG  2   5  -1   9  -1
M  END
>  <meeko>  (1) 
{"free_energy": -5.55, "intermolecular_energy": -7.94, "internal_energy": -1.02, "cluster_size": 5, "cluster_id": 2, "rank_in_cluster": 1}

$$$$

     RDKit          3D

 38 39  0  0  0  0  0  0  0  0999 V2000
  141.8110   78.7240  221.0430 C   0  0  0  0  0  0  0  0  0  0  0  0
  140.9290   79.0300  222.2610 C   0  0  0  0  0  0  0  0  0  0  0  0
  141.7150   78.7900  223.5560 C   0  0  0  0  0  0  0  0  0  0  0  0
  139.6450   78.1840  222.2560 C   0  0  0  0  0  0  0  0  0  0  0  0
  139.7670   77.0650  221.3280 N   0  0  0  0  0  0  0  0  0  0  0  0
  140.1380   75.7520  221.7580 C   0  0  0  0  0  0  0  0  0  0  0  0
  141.4570   75.3240  221.5910 O   0  0  0  0  0  0  0  0  0  0  0  0
  139.2450   74.9430  222.3440 C   0  0  0  0  0  0  0  0  0  0  0  0
  139.2650   73.5150  222.1990 N   0  0  0  0  0  0  0  0  0  0  0  0
  140.3220   72.6340  222.6070 C   0  0  0  0  0  0  0  0  0  0  0  0
  141.4300   72.7080  222.0140 O   0  0  0  0  0  0  0  0  0  0  0  0
  140.1510   71.6250  223.6770 C   0  0  0  0  0  0  0  0  0  0  0  0
  139.5090   70.3980  223.4420 C   0  0  0  0  0  0  0  0  0  0  0  0
  139.3610   69.4830  224.4870 C   0  0  0  0  0  0  0  0  0  0  0  0
  139.8680   69.7850  225.7550 C   0  0  0  0  0  0  0  0  0  0  0  0
  139.7320   68.8910  226.8280 C   0  0  0  0  0  0  0  0  0  0  0  0
  140.2530   69.2230  228.0820 C   0  0  0  0  0  0  0  0  0  0  0  0
  140.9110   70.4430  228.2710 C   0  0  0  0  0  0  0  0  0  0  0  0
  141.0530   71.3370  227.2060 C   0  0  0  0  0  0  0  0  0  0  0  0
  140.5340   71.0140  225.9470 C   0  0  0  0  0  0  0  0  0  0  0  0
  140.6600   71.8860  224.9120 N   0  0  0  0  0  0  0  0  0  0  0  0
  142.7994   78.3811  221.3829 H   0  0  0  0  0  0  0  0  0  0  0  0
  141.3385   77.9373  220.4365 H   0  0  0  0  0  0  0  0  0  0  0  0
  141.9273   79.6343  220.4365 H   0  0  0  0  0  0  0  0  0  0  0  0
  140.6344   80.0884  222.2056 H   0  0  0  0  0  0  0  0  0  0  0  0
  141.0654   78.9883  224.4213 H   0  0  0  0  0  0  0  0  0  0  0  0
  142.0594   77.7458  223.5877 H   0  0  0  0  0  0  0  0  0  0  0  0
  142.5839   79.4638  223.5877 H   0  0  0  0  0  0  0  0  0  0  0  0
  139.4654   77.7948  223.2690 H   0  0  0  0  0  0  0  0  0  0  0  0
  138.8054   78.8184  221.9358 H   0  0  0  0  0  0  0  0  0  0  0  0
  141.7160   74.3460  221.6390 H   0  0  0  0  0  0  0  0  0  0  0  0
  138.4585   75.3950  222.9663 H   0  0  0  0  0  0  0  0  0  0  0  0
  139.1245   70.1587  222.4395 H   0  0  0  0  0  0  0  0  0  0  0  0
  138.8465   68.5264  224.3129 H   0  0  0  0  0  0  0  0  0  0  0  0
  139.2162   67.9304  226.6826 H   0  0  0  0  0  0  0  0  0  0  0  0
  140.1452   68.5224  228.9232 H   0  0  0  0  0  0  0  0  0  0  0  0
  141.3177   70.6994  229.2604 H   0  0  0  0  0  0  0  0  0  0  0  0
  141.5727   72.2946  227.3574 H   0  0  0  0  0  0  0  0  0  0  0  0
  1  2  1  0
  2  3  1  0
  2  4  1  0
  4  5  1  0
  5  6  1  0
  6  7  1  0
  6  8  2  0
  8  9  1  0
  9 10  1  0
 10 11  2  0
 10 12  1  0
 12 13  2  0
 13 14  1  0
 14 15  2  0
 15 16  1  0
 16 17  2  0
 17 18  1  0
 18 19  2  0
 19 20  1  0
 20 21  2  0
 21 12  1  0
 20 15  1  0
  1 22  1  0
  1 23  1  0
  1 24  1  0
  2 25  1  0
  3 26  1  0
  3 27  1  0
  3 28  1  0
  4 29  1  0
  4 30  1  0
  7 31  1  0
  8 32  1  0
 13 33  1  0
 14 34  1  0
 16 35  1  0
 17 36  1  0
 18 37  1  0
 19 38  1  0
M  CHG  2   5  -1   9  -1
M  END
>  <meeko>  (2) 
{"free_energy": -4.77, "intermolecular_energy": -7.16, "internal_energy": -1.47, "cluster_size": 14, "cluster_id": 1, "rank_in_cluster": 14}

$$$$

     RDKit          3D

 38 39  0  0  0  0  0  0  0  0999 V2000
  144.0600   74.8240  220.0510 C   0  0  0  0  0  0  0  0  0  0  0  0
  144.3050   73.5280  220.8350 C   0  0  0  0  0  0  0  0  0  0  0  0
  145.5280   72.7920  220.2720 C   0  0  0  0  0  0  0  0  0  0  0  0
  143.0730   72.6080  220.8050 C   0  0  0  0  0  0  0  0  0  0  0  0
  141.8730   73.3390  221.1980 N   0  0  0  0  0  0  0  0  0  0  0  0
  140.7220   72.6850  221.7430 C   0  0  0  0  0  0  0  0  0  0  0  0
  140.2940   73.0130  223.0310 O   0  0  0  0  0  0  0  0  0  0  0  0
  140.0360   71.7880  221.0200 C   0  0  0  0  0  0  0  0  0  0  0  0
  138.9630   71.0030  221.5600 N   0  0  0  0  0  0  0  0  0  0  0  0
  139.0910   69.7750  222.2930 C   0  0  0  0  0  0  0  0  0  0  0  0
  138.9160   68.6890  221.6820 O   0  0  0  0  0  0  0  0  0  0  0  0
  139.3950   69.7390  223.7410 C   0  0  0  0  0  0  0  0  0  0  0  0
  139.0010   68.6630  224.5540 C   0  0  0  0  0  0  0  0  0  0  0  0
  139.3010   68.6790  225.9180 C   0  0  0  0  0  0  0  0  0  0  0  0
  140.0060   69.7580  226.4640 C   0  0  0  0  0  0  0  0  0  0  0  0
  140.3190   69.8080  227.8300 C   0  0  0  0  0  0  0  0  0  0  0  0
  141.0280   70.8990  228.3430 C   0  0  0  0  0  0  0  0  0  0  0  0
  141.4290   71.9400  227.4970 C   0  0  0  0  0  0  0  0  0  0  0  0
  141.1230   71.8940  226.1340 C   0  0  0  0  0  0  0  0  0  0  0  0
  140.4130   70.8070  225.6120 C   0  0  0  0  0  0  0  0  0  0  0  0
  140.1040   70.7640  224.2890 N   0  0  0  0  0  0  0  0  0  0  0  0
  143.9030   75.6544  220.7551 H   0  0  0  0  0  0  0  0  0  0  0  0
  144.9332   75.0402  219.4179 H   0  0  0  0  0  0  0  0  0  0  0  0
  143.1682   74.7065  219.4179 H   0  0  0  0  0  0  0  0  0  0  0  0
  144.4963   73.8005  221.8834 H   0  0  0  0  0  0  0  0  0  0  0  0
  146.1463   72.4199  221.1022 H   0  0  0  0  0  0  0  0  0  0  0  0
  145.1941   71.9447  219.6551 H   0  0  0  0  0  0  0  0  0  0  0  0
  146.1203   73.4838  219.6551 H   0  0  0  0  0  0  0  0  0  0  0  0
  142.9396   72.2165  219.7857 H   0  0  0  0  0  0  0  0  0  0  0  0
  143.2315   71.7819  221.5138 H   0  0  0  0  0  0  0  0  0  0  0  0
  139.4400   72.6380  223.4250 H   0  0  0  0  0  0  0  0  0  0  0  0
  140.3085   71.6473  219.9636 H   0  0  0  0  0  0  0  0  0  0  0  0
  138.4584   67.8113  224.1180 H   0  0  0  0  0  0  0  0  0  0  0  0
  138.9839   67.8454  226.5619 H   0  0  0  0  0  0  0  0  0  0  0  0
  140.0075   68.9906  228.4969 H   0  0  0  0  0  0  0  0  0  0  0  0
  141.2714   70.9393  229.4150 H   0  0  0  0  0  0  0  0  0  0  0  0
  141.9860   72.7959  227.9059 H   0  0  0  0  0  0  0  0  0  0  0  0
  141.4404   72.7126  225.4714 H   0  0  0  0  0  0  0  0  0  0  0  0
  1  2  1  0
  2  3  1  0
  2  4  1  0
  4  5  1  0
  5  6  1  0
  6  7  1  0
  6  8  2  0
  8  9  1  0
  9 10  1  0
 10 11  2  0
 10 12  1  0
 12 13  2  0
 13 14  1  0
 14 15  2  0
 15 16  1  0
 16 17  2  0
 17 18  1  0
 18 19  2  0
 19 20  1  0
 20 21  2  0
 21 12  1  0
 20 15  1  0
  1 22  1  0
  1 23  1  0
  1 24  1  0
  2 25  1  0
  3 26  1  0
  3 27  1  0
  3 28  1  0
  4 29  1  0
  4 30  1  0
  7 31  1  0
  8 32  1  0
 13 33  1  0
 14 34  1  0
 16 35  1  0
 17 36  1  0
 18 37  1  0
 19 38  1  0
M  CHG  2   5  -1   9  -1
M  END
>  <meeko>  (3) 
{"free_energy": -5.29, "intermolecular_energy": -7.68, "internal_energy": -1.55, "cluster_size": 5, "cluster_id": 2, "rank_in_cluster": 3}

$$$$

     RDKit          3D

 38 39  0  0  0  0  0  0  0  0999 V2000
  138.9630   76.6560  222.3300 C   0  0  0  0  0  0  0  0  0  0  0  0
  140.4960   76.6170  222.2710 C   0  0  0  0  0  0  0  0  0  0  0  0
  141.0690   78.0260  222.4670 C   0  0  0  0  0  0  0  0  0  0  0  0
  140.9950   76.0210  220.9440 C   0  0  0  0  0  0  0  0  0  0  0  0
  141.5610   74.6940  221.1540 N   0  0  0  0  0  0  0  0  0  0  0  0
  140.7740   73.5890  221.6100 C   0  0  0  0  0  0  0  0  0  0  0  0
  139.9190   73.7620  222.7000 O   0  0  0  0  0  0  0  0  0  0  0  0
  140.8260   72.4040  220.9850 C   0  0  0  0  0  0  0  0  0  0  0  0
  139.9030   71.3370  221.2500 N   0  0  0  0  0  0  0  0  0  0  0  0
  138.9660   71.2730  222.3350 C   0  0  0  0  0  0  0  0  0  0  0  0
  137.8050   71.7240  222.1540 O   0  0  0  0  0  0  0  0  0  0  0  0
  139.3190   70.7210  223.6620 C   0  0  0  0  0  0  0  0  0  0  0  0
  138.9930   69.4030  224.0260 C   0  0  0  0  0  0  0  0  0  0  0  0
  139.3370   68.9300  225.2950 C   0  0  0  0  0  0  0  0  0  0  0  0
  140.0180   69.7640  226.1880 C   0  0  0  0  0  0  0  0  0  0  0  0
  140.3740   69.3230  227.4720 C   0  0  0  0  0  0  0  0  0  0  0  0
  141.0570   70.1810  228.3390 C   0  0  0  0  0  0  0  0  0  0  0  0
  141.3900   71.4770  227.9300 C   0  0  0  0  0  0  0  0  0  0  0  0
  141.0410   71.9220  226.6520 C   0  0  0  0  0  0  0  0  0  0  0  0
  140.3560   71.0710  225.7780 C   0  0  0  0  0  0  0  0  0  0  0  0
  140.0060   71.5040  224.5380 N   0  0  0  0  0  0  0  0  0  0  0  0
  138.6366   76.6643  223.3804 H   0  0  0  0  0  0  0  0  0  0  0  0
  138.5996   77.5637  221.8259 H   0  0  0  0  0  0  0  0  0  0  0  0
  138.5539   75.7680  221.8259 H   0  0  0  0  0  0  0  0  0  0  0  0
  140.8477   75.9664  223.0853 H   0  0  0  0  0  0  0  0  0  0  0  0
  141.1561   78.2401  223.5424 H   0  0  0  0  0  0  0  0  0  0  0  0
  142.0629   78.0859  221.9996 H   0  0  0  0  0  0  0  0  0  0  0  0
  140.3990   78.7626  221.9996 H   0  0  0  0  0  0  0  0  0  0  0  0
  140.1514   75.9465  220.2421 H   0  0  0  0  0  0  0  0  0  0  0  0
  141.7767   76.6774  220.5340 H   0  0  0  0  0  0  0  0  0  0  0  0
  139.3550   73.0050  223.0670 H   0  0  0  0  0  0  0  0  0  0  0  0
  141.6130   72.2418  220.2338 H   0  0  0  0  0  0  0  0  0  0  0  0
  138.4694   68.7469  223.3151 H   0  0  0  0  0  0  0  0  0  0  0  0
  139.0729   67.9041  225.5911 H   0  0  0  0  0  0  0  0  0  0  0  0
  140.1160   68.3038  227.7956 H   0  0  0  0  0  0  0  0  0  0  0  0
  141.3336   69.8361  229.3462 H   0  0  0  0  0  0  0  0  0  0  0  0
  141.9280   72.1475  228.6163 H   0  0  0  0  0  0  0  0  0  0  0  0
  141.3049   72.9412  226.3333 H   0  0  0  0  0  0  0  0  0  0  0  0
  1  2  1  0
  2  3  1  0
  2  4  1  0
  4  5  1  0
  5  6  1  0
  6  7  1  0
  6  8  2  0
  8  9  1  0
  9 10  1  0
 10 11  2  0
 10 12  1  0
 12 13  2  0
 13 14  1  0
 14 15  2  0
 15 16  1  0
 16 17  2  0
 17 18  1  0
 18 19  2  0
 19 20  1  0
 20 21  2  0
 21 12  1  0
 20 15  1  0
  1 22  1  0
  1 23  1  0
  1 24  1  0
  2 25  1  0
  3 26  1  0
  3 27  1  0
  3 28  1  0
  4 29  1  0
  4 30  1  0
  7 31  1  0
  8 32  1  0
 13 33  1  0
 14 34  1  0
 16 35  1  0
 17 36  1  0
 18 37  1  0
 19 38  1  0
M  CHG  2   5  -1   9  -1
M  END
>  <meeko>  (4) 
{"free_energy": -5.33, "intermolecular_energy": -7.71, "internal_energy": -1.71, "cluster_size": 14, "cluster_id": 1, "rank_in_cluster": 9}

$$$$

     RDKit          3D

 38 39  0  0  0  0  0  0  0  0999 V2000
  144.0750   74.9840  220.0160 C   0  0  0  0  0  0  0  0  0  0  0  0
  144.3300   73.7040  220.8240 C   0  0  0  0  0  0  0  0  0  0  0  0
  145.5480   72.9590  220.2630 C   0  0  0  0  0  0  0  0  0  0  0  0
  143.0990   72.7830  220.8270 C   0  0  0  0  0  0  0  0  0  0  0  0
  141.8770   73.5530  221.0240 N   0  0  0  0  0  0  0  0  0  0  0  0
  140.6850   72.9740  221.5630 C   0  0  0  0  0  0  0  0  0  0  0  0
  139.8790   73.7320  222.4140 O   0  0  0  0  0  0  0  0  0  0  0  0
  140.3180   71.7270  221.2340 C   0  0  0  0  0  0  0  0  0  0  0  0
  139.0600   71.1530  221.6170 N   0  0  0  0  0  0  0  0  0  0  0  0
  138.4660   71.1990  222.9230 C   0  0  0  0  0  0  0  0  0  0  0  0
  137.5180   72.0010  223.1260 O   0  0  0  0  0  0  0  0  0  0  0  0
  138.9430   70.3590  224.0460 C   0  0  0  0  0  0  0  0  0  0  0  0
  138.7810   68.9630  224.0470 C   0  0  0  0  0  0  0  0  0  0  0  0
  139.2370   68.2140  225.1340 C   0  0  0  0  0  0  0  0  0  0  0  0
  139.8660   68.8550  226.2070 C   0  0  0  0  0  0  0  0  0  0  0  0
  140.3310   68.1340  227.3170 C   0  0  0  0  0  0  0  0  0  0  0  0
  140.9590   68.8040  228.3710 C   0  0  0  0  0  0  0  0  0  0  0  0
  141.1280   70.1930  228.3220 C   0  0  0  0  0  0  0  0  0  0  0  0
  140.6690   70.9170  227.2180 C   0  0  0  0  0  0  0  0  0  0  0  0
  140.0390   70.2550  226.1580 C   0  0  0  0  0  0  0  0  0  0  0  0
  139.5830   70.9570  225.0880 N   0  0  0  0  0  0  0  0  0  0  0  0
  143.9074   75.8251  220.7048 H   0  0  0  0  0  0  0  0  0  0  0  0
  144.9482   75.1975  219.3821 H   0  0  0  0  0  0  0  0  0  0  0  0
  143.1866   74.8466  219.3821 H   0  0  0  0  0  0  0  0  0  0  0  0
  144.5321   73.9973  221.8647 H   0  0  0  0  0  0  0  0  0  0  0  0
  146.1627   72.5830  221.0942 H   0  0  0  0  0  0  0  0  0  0  0  0
  145.2087   72.1137  219.6463 H   0  0  0  0  0  0  0  0  0  0  0  0
  146.1460   73.6461  219.6463 H   0  0  0  0  0  0  0  0  0  0  0  0
  143.0412   72.2550  219.8637 H   0  0  0  0  0  0  0  0  0  0  0  0
  143.1992   72.0632  221.6527 H   0  0  0  0  0  0  0  0  0  0  0  0
  138.9930   73.3890  222.7630 H   0  0  0  0  0  0  0  0  0  0  0  0
  141.0145   71.1149  220.6423 H   0  0  0  0  0  0  0  0  0  0  0  0
  138.2972   68.4624  223.1953 H   0  0  0  0  0  0  0  0  0  0  0  0
  139.1019   67.1224  225.1466 H   0  0  0  0  0  0  0  0  0  0  0  0
  140.2015   67.0424  227.3579 H   0  0  0  0  0  0  0  0  0  0  0  0
  141.3216   68.2380  229.2418 H   0  0  0  0  0  0  0  0  0  0  0  0
  141.6229   70.7155  229.1539 H   0  0  0  0  0  0  0  0  0  0  0  0
  140.8031   72.0082  227.1823 H   0  0  0  0  0  0  0  0  0  0  0  0
  1  2  1  0
  2  3  1  0
  2  4  1  0
  4  5  1  0
  5  6  1  0
  6  7  1  0
  6  8  2  0
  8  9  1  0
  9 10  1  0
 10 11  2  0
 10 12  1  0
 12 13  2  0
 13 14  1  0
 14 15  2  0
 15 16  1  0
 16 17  2  0
 17 18  1  0
 18 19  2  0
 19 20  1  0
 20 21  2  0
 21 12  1  0
 20 15  1  0
  1 22  1  0
  1 23  1  0
  1 24  1  0
  2 25  1  0
  3 26  1  0
  3 27  1  0
  3 28  1  0
  4 29  1  0
  4 30  1  0
  7 31  1  0
  8 32  1  0
 13 33  1  0
 14 34  1  0
 16 35  1  0
 17 36  1  0
 18 37  1  0
 19 38  1  0
M  CHG  2   5  -1   9  -1
M  END
>  <meeko>  (5) 
{"free_energy": -5.58, "intermolecular_energy": -7.97, "internal_energy": -1.58, "cluster_size": 14, "cluster_id": 1, "rank_in_cluster": 7}

$$$$

     RDKit          3D

 38 39  0  0  0  0  0  0  0  0999 V2000
  139.7130   79.0880  223.2290 C   0  0  0  0  0  0  0  0  0  0  0  0
  141.0660   78.4350  222.9150 C   0  0  0  0  0  0  0  0  0  0  0  0
  142.2040   79.4360  223.1560 C   0  0  0  0  0  0  0  0  0  0  0  0
  141.1180   77.9100  221.4710 C   0  0  0  0  0  0  0  0  0  0  0  0
  140.0480   76.9480  221.2320 N   0  0  0  0  0  0  0  0  0  0  0  0
  140.0560   75.6360  221.8030 C   0  0  0  0  0  0  0  0  0  0  0  0
  139.0600   75.2800  222.7140 O   0  0  0  0  0  0  0  0  0  0  0  0
  140.9870   74.7390  221.4490 C   0  0  0  0  0  0  0  0  0  0  0  0
  141.0460   73.4130  221.9950 N   0  0  0  0  0  0  0  0  0  0  0  0
  139.9250   72.5750  222.3150 C   0  0  0  0  0  0  0  0  0  0  0  0
  138.9150   72.6080  221.5650 O   0  0  0  0  0  0  0  0  0  0  0  0
  139.9020   71.6950  223.5050 C   0  0  0  0  0  0  0  0  0  0  0  0
  139.3390   70.4080  223.4640 C   0  0  0  0  0  0  0  0  0  0  0  0
  139.3300   69.6190  224.6160 C   0  0  0  0  0  0  0  0  0  0  0  0
  139.8960   70.1070  225.7990 C   0  0  0  0  0  0  0  0  0  0  0  0
  139.9000   69.3420  226.9760 C   0  0  0  0  0  0  0  0  0  0  0  0
  140.4770   69.8570  228.1400 C   0  0  0  0  0  0  0  0  0  0  0  0
  141.0540   71.1330  228.1360 C   0  0  0  0  0  0  0  0  0  0  0  0
  141.0570   71.8980  226.9660 C   0  0  0  0  0  0  0  0  0  0  0  0
  140.4810   71.3910  225.7960 C   0  0  0  0  0  0  0  0  0  0  0  0
  140.4720   72.1370  224.6600 N   0  0  0  0  0  0  0  0  0  0  0  0
  139.5809   79.1518  224.3192 H   0  0  0  0  0  0  0  0  0  0  0  0
  139.6846   80.0990  222.7964 H   0  0  0  0  0  0  0  0  0  0  0  0
  138.9038   78.4812  222.7964 H   0  0  0  0  0  0  0  0  0  0  0  0
  141.1900   77.5751  223.5897 H   0  0  0  0  0  0  0  0  0  0  0  0
  142.3536   79.5676  224.2378 H   0  0  0  0  0  0  0  0  0  0  0  0
  143.1302   79.0546  222.7015 H   0  0  0  0  0  0  0  0  0  0  0  0
  141.9438   80.4033  222.7015 H   0  0  0  0  0  0  0  0  0  0  0  0
  141.0056   78.7549  220.7756 H   0  0  0  0  0  0  0  0  0  0  0  0
  142.0846   77.4098  221.3118 H   0  0  0  0  0  0  0  0  0  0  0  0
  138.8380   74.3130  222.9180 H   0  0  0  0  0  0  0  0  0  0  0  0
  141.7416   75.0331  220.7047 H   0  0  0  0  0  0  0  0  0  0  0  0
  138.9072   70.0237  222.5281 H   0  0  0  0  0  0  0  0  0  0  0  0
  138.8789   68.6160  224.5936 H   0  0  0  0  0  0  0  0  0  0  0  0
  139.4495   68.3385  226.9821 H   0  0  0  0  0  0  0  0  0  0  0  0
  140.4780   69.2580  229.0626 H   0  0  0  0  0  0  0  0  0  0  0  0
  141.5057   71.5341  229.0553 H   0  0  0  0  0  0  0  0  0  0  0  0
  141.5125   72.8993  226.9652 H   0  0  0  0  0  0  0  0  0  0  0  0
  1  2  1  0
  2  3  1  0
  2  4  1  0
  4  5  1  0
  5  6  1  0
  6  7  1  0
  6  8  2  0
  8  9  1  0
  9 10  1  0
 10 11  2  0
 10 12  1  0
 12 13  2  0
 13 14  1  0
 14 15  2  0
 15 16  1  0
 16 17  2  0
 17 18  1  0
 18 19  2  0
 19 20  1  0
 20 21  2  0
 21 12  1  0
 20 15  1  0
  1 22  1  0
  1 23  1  0
  1 24  1  0
  2 25  1  0
  3 26  1  0
  3 27  1  0
  3 28  1  0
  4 29  1  0
  4 30  1  0
  7 31  1  0
  8 32  1  0
 13 33  1  0
 14 34  1  0
 16 35  1  0
 17 36  1  0
 18 37  1  0
 19 38  1  0
M  CHG  2   5  -1   9  -1
M  END
>  <meeko>  (6) 
{"free_energy": -5.87, "intermolecular_energy": -8.26, "internal_energy": -1.39, "cluster_size": 14, "cluster_id": 1, "rank_in_cluster": 6}

$$$$

     RDKit          3D

 38 39  0  0  0  0  0  0  0  0999 V2000
  139.6640   79.0990  223.1480 C   0  0  0  0  0  0  0  0  0  0  0  0
  141.0240   78.3910  223.0930 C   0  0  0  0  0  0  0  0  0  0  0  0
  142.1560   79.4000  223.3200 C   0  0  0  0  0  0  0  0  0  0  0  0
  141.2270   77.6590  221.7550 C   0  0  0  0  0  0  0  0  0  0  0  0
  140.0320   76.9050  221.3930 N   0  0  0  0  0  0  0  0  0  0  0  0
  139.7870   75.5800  221.8760 C   0  0  0  0  0  0  0  0  0  0  0  0
  138.6460   75.3300  222.6400 O   0  0  0  0  0  0  0  0  0  0  0  0
  140.6220   74.5750  221.5760 C   0  0  0  0  0  0  0  0  0  0  0  0
  140.7240   73.3790  222.3630 N   0  0  0  0  0  0  0  0  0  0  0  0
  139.6550   72.4730  222.6750 C   0  0  0  0  0  0  0  0  0  0  0  0
  138.6010   72.5270  221.9900 O   0  0  0  0  0  0  0  0  0  0  0  0
  139.7360   71.4970  223.7850 C   0  0  0  0  0  0  0  0  0  0  0  0
  139.2690   70.1790  223.6480 C   0  0  0  0  0  0  0  0  0  0  0  0
  139.3560   69.2970  224.7280 C   0  0  0  0  0  0  0  0  0  0  0  0
  139.9230   69.7260  225.9330 C   0  0  0  0  0  0  0  0  0  0  0  0
  140.0210   68.8670  227.0390 C   0  0  0  0  0  0  0  0  0  0  0  0
  140.5970   69.3260  228.2280 C   0  0  0  0  0  0  0  0  0  0  0  0
  141.0780   70.6370  228.3180 C   0  0  0  0  0  0  0  0  0  0  0  0
  140.9850   71.4960  227.2200 C   0  0  0  0  0  0  0  0  0  0  0  0
  140.4100   71.0460  226.0260 C   0  0  0  0  0  0  0  0  0  0  0  0
  140.3090   71.8820  224.9590 N   0  0  0  0  0  0  0  0  0  0  0  0
  139.3720   79.2510  224.1976 H   0  0  0  0  0  0  0  0  0  0  0  0
  139.7372   80.0734  222.6429 H   0  0  0  0  0  0  0  0  0  0  0  0
  138.9078   78.4801  222.6429 H   0  0  0  0  0  0  0  0  0  0  0  0
  141.0430   77.6382  223.8949 H   0  0  0  0  0  0  0  0  0  0  0  0
  142.3121   79.5391  224.4000 H   0  0  0  0  0  0  0  0  0  0  0  0
  143.0816   79.0219  222.8615 H   0  0  0  0  0  0  0  0  0  0  0  0
  141.8864   80.3628  222.8615 H   0  0  0  0  0  0  0  0  0  0  0  0
  141.4401   78.3975  220.9681 H   0  0  0  0  0  0  0  0  0  0  0  0
  142.0688   76.9586  221.8594 H   0  0  0  0  0  0  0  0  0  0  0  0
  138.4570   74.4200  223.0430 H   0  0  0  0  0  0  0  0  0  0  0  0
  141.2591   74.6715  220.6845 H   0  0  0  0  0  0  0  0  0  0  0  0
  138.8365   69.8428  222.6941 H   0  0  0  0  0  0  0  0  0  0  0  0
  138.9797   68.2679  224.6312 H   0  0  0  0  0  0  0  0  0  0  0  0
  139.6456   67.8353  226.9707 H   0  0  0  0  0  0  0  0  0  0  0  0
  140.6722   68.6540  229.0956 H   0  0  0  0  0  0  0  0  0  0  0  0
  141.5305   70.9922  229.2556 H   0  0  0  0  0  0  0  0  0  0  0  0
  141.3637   72.5261  227.2940 H   0  0  0  0  0  0  0  0  0  0  0  0
  1  2  1  0
  2  3  1  0
  2  4  1  0
  4  5  1  0
  5  6  1  0
  6  7  1  0
  6  8  2  0
  8  9  1  0
  9 10  1  0
 10 11  2  0
 10 12  1  0
 12 13  2  0
 13 14  1  0
 14 15  2  0
 15 16  1  0
 16 17  2  0
 17 18  1  0
 18 19  2  0
 19 20  1  0
 20 21  2  0
 21 12  1  0
 20 15  1  0
  1 22  1  0
  1 23  1  0
  1 24  1  0
  2 25  1  0
  3 26  1  0
  3 27  1  0
  3 28  1  0
  4 29  1  0
  4 30  1  0
  7 31  1  0
  8 32  1  0
 13 33  1  0
 14 34  1  0
 16 35  1  0
 17 36  1  0
 18 37  1  0
 19 38  1  0
M  CHG  2   5  -1   9  -1
M  END
>  <meeko>  (7) 
{"free_energy": -5.95, "intermolecular_energy": -8.34, "internal_energy": -1.4, "cluster_size": 14, "cluster_id": 1, "rank_in_cluster": 5}

$$$$

     RDKit          3D

 38 39  0  0  0  0  0  0  0  0999 V2000
  141.7800   79.0190  223.8910 C   0  0  0  0  0  0  0  0  0  0  0  0
  141.7180   78.6480  222.4030 C   0  0  0  0  0  0  0  0  0  0  0  0
  141.7810   79.9140  221.5400 C   0  0  0  0  0  0  0  0  0  0  0  0
  140.4500   77.8430  222.0730 C   0  0  0  0  0  0  0  0  0  0  0  0
  140.7910   76.5860  221.4180 N   0  0  0  0  0  0  0  0  0  0  0  0
  140.3100   75.3230  221.8880 C   0  0  0  0  0  0  0  0  0  0  0  0
  139.1800   75.2820  222.7060 O   0  0  0  0  0  0  0  0  0  0  0  0
  140.9120   74.1810  221.5250 C   0  0  0  0  0  0  0  0  0  0  0  0
  140.9020   72.9980  222.3380 N   0  0  0  0  0  0  0  0  0  0  0  0
  139.7440   72.2490  222.7360 C   0  0  0  0  0  0  0  0  0  0  0  0
  138.6530   72.4720  222.1500 O   0  0  0  0  0  0  0  0  0  0  0  0
  139.7790   71.2460  223.8240 C   0  0  0  0  0  0  0  0  0  0  0  0
  139.2560   69.9530  223.6560 C   0  0  0  0  0  0  0  0  0  0  0  0
  139.3000   69.0440  224.7150 C   0  0  0  0  0  0  0  0  0  0  0  0
  139.8800   69.4210  225.9320 C   0  0  0  0  0  0  0  0  0  0  0  0
  139.9370   68.5340  227.0180 C   0  0  0  0  0  0  0  0  0  0  0  0
  140.5270   68.9410  228.2190 C   0  0  0  0  0  0  0  0  0  0  0  0
  141.0630   70.2280  228.3400 C   0  0  0  0  0  0  0  0  0  0  0  0
  141.0120   71.1150  227.2610 C   0  0  0  0  0  0  0  0  0  0  0  0
  140.4230   70.7170  226.0560 C   0  0  0  0  0  0  0  0  0  0  0  0
  140.3630   71.5800  225.0080 N   0  0  0  0  0  0  0  0  0  0  0  0
  141.6291   78.1159  224.5006 H   0  0  0  0  0  0  0  0  0  0  0  0
  142.7635   79.4554  224.1194 H   0  0  0  0  0  0  0  0  0  0  0  0
  140.9918   79.7515  224.1194 H   0  0  0  0  0  0  0  0  0  0  0  0
  142.5870   78.0121  222.1783 H   0  0  0  0  0  0  0  0  0  0  0  0
  141.8251   80.7996  222.1909 H   0  0  0  0  0  0  0  0  0  0  0  0
  142.6786   79.8806  220.9050 H   0  0  0  0  0  0  0  0  0  0  0  0
  140.8845   79.9699  220.9050 H   0  0  0  0  0  0  0  0  0  0  0  0
  139.9064   77.6283  223.0049 H   0  0  0  0  0  0  0  0  0  0  0  0
  139.8225   78.4367  221.3920 H   0  0  0  0  0  0  0  0  0  0  0  0
  138.7990   74.4110  223.0540 H   0  0  0  0  0  0  0  0  0  0  0  0
  141.4379   74.1493  220.5594 H   0  0  0  0  0  0  0  0  0  0  0  0
  138.8133   69.6576  222.6933 H   0  0  0  0  0  0  0  0  0  0  0  0
  138.8801   68.0346  224.5933 H   0  0  0  0  0  0  0  0  0  0  0  0
  139.5186   67.5209  226.9249 H   0  0  0  0  0  0  0  0  0  0  0  0
  140.5698   68.2471  229.0714 H   0  0  0  0  0  0  0  0  0  0  0  0
  141.5258   70.5425  229.2870 H   0  0  0  0  0  0  0  0  0  0  0  0
  141.4348   72.1257  227.3592 H   0  0  0  0  0  0  0  0  0  0  0  0
  1  2  1  0
  2  3  1  0
  2  4  1  0
  4  5  1  0
  5  6  1  0
  6  7  1  0
  6  8  2  0
  8  9  1  0
  9 10  1  0
 10 11  2  0
 10 12  1  0
 12 13  2  0
 13 14  1  0
 14 15  2  0
 15 16  1  0
 16 17  2  0
 17 18  1  0
 18 19  2  0
 19 20  1  0
 20 21  2  0
 21 12  1  0
 20 15  1  0
  1 22  1  0
  1 23  1  0
  1 24  1  0
  2 25  1  0
  3 26  1  0
  3 27  1  0
  3 28  1  0
  4 29  1  0
  4 30  1  0
  7 31  1  0
  8 32  1  0
 13 33  1  0
 14 34  1  0
 16 35  1  0
 17 36  1  0
 18 37  1  0
 19 38  1  0
M  CHG  2   5  -1   9  -1
M  END
>  <meeko>  (8) 
{"free_energy": -6.1, "intermolecular_energy": -8.48, "internal_energy": -1.34, "cluster_size": 14, "cluster_id": 1, "rank_in_cluster": 1}

$$$$

     RDKit          3D

 38 39  0  0  0  0  0  0  0  0999 V2000
  145.1010   73.7630  220.8210 C   0  0  0  0  0  0  0  0  0  0  0  0
  144.0760   72.6310  220.6730 C   0  0  0  0  0  0  0  0  0  0  0  0
  144.6150   71.5520  219.7260 C   0  0  0  0  0  0  0  0  0  0  0  0
  142.7230   73.1560  220.1650 C   0  0  0  0  0  0  0  0  0  0  0  0
  141.8760   73.5650  221.2790 N   0  0  0  0  0  0  0  0  0  0  0  0
  140.7730   72.7750  221.7330 C   0  0  0  0  0  0  0  0  0  0  0  0
  139.9590   73.2600  222.7580 O   0  0  0  0  0  0  0  0  0  0  0  0
  140.4950   71.5930  221.1640 C   0  0  0  0  0  0  0  0  0  0  0  0
  139.3000   70.8500  221.4440 N   0  0  0  0  0  0  0  0  0  0  0  0
  139.1990   69.6820  222.2720 C   0  0  0  0  0  0  0  0  0  0  0  0
  138.8760   68.5900  221.7360 O   0  0  0  0  0  0  0  0  0  0  0  0
  139.4340   69.7170  223.7330 C   0  0  0  0  0  0  0  0  0  0  0  0
  138.9760   68.6960  224.5820 C   0  0  0  0  0  0  0  0  0  0  0  0
  139.2120   68.7790  225.9560 C   0  0  0  0  0  0  0  0  0  0  0  0
  139.9180   69.8680  226.4770 C   0  0  0  0  0  0  0  0  0  0  0  0
  140.1680   69.9850  227.8530 C   0  0  0  0  0  0  0  0  0  0  0  0
  140.8800   71.0860  228.3410 C   0  0  0  0  0  0  0  0  0  0  0  0
  141.3460   72.0700  227.4610 C   0  0  0  0  0  0  0  0  0  0  0  0
  141.1020   71.9580  226.0890 C   0  0  0  0  0  0  0  0  0  0  0  0
  140.3900   70.8600  225.5920 C   0  0  0  0  0  0  0  0  0  0  0  0
  140.1430   70.7540  224.2600 N   0  0  0  0  0  0  0  0  0  0  0  0
  145.2788   73.9594  221.8886 H   0  0  0  0  0  0  0  0  0  0  0  0
  146.0453   73.4678  220.3402 H   0  0  0  0  0  0  0  0  0  0  0  0
  144.7138   74.6734  220.3402 H   0  0  0  0  0  0  0  0  0  0  0  0
  143.9128   72.1919  221.6683 H   0  0  0  0  0  0  0  0  0  0  0  0
  145.0301   70.7211  220.3153 H   0  0  0  0  0  0  0  0  0  0  0  0
  143.7973   71.1791  219.0917 H   0  0  0  0  0  0  0  0  0  0  0  0
  145.4043   71.9818  219.0917 H   0  0  0  0  0  0  0  0  0  0  0  0
  142.8955   74.0202  219.5067 H   0  0  0  0  0  0  0  0  0  0  0  0
  142.2163   72.3503  219.6136 H   0  0  0  0  0  0  0  0  0  0  0  0
  139.4480   72.6420  223.3770 H   0  0  0  0  0  0  0  0  0  0  0  0
  141.2174   71.1731  220.4486 H   0  0  0  0  0  0  0  0  0  0  0  0
  138.4334   67.8342  224.1662 H   0  0  0  0  0  0  0  0  0  0  0  0
  138.8433   67.9893  226.6271 H   0  0  0  0  0  0  0  0  0  0  0  0
  139.8048   69.2124  228.5466 H   0  0  0  0  0  0  0  0  0  0  0  0
  141.0743   71.1788  229.4197 H   0  0  0  0  0  0  0  0  0  0  0  0
  141.9055   72.9335  227.8500 H   0  0  0  0  0  0  0  0  0  0  0  0
  141.4695   72.7327  225.4000 H   0  0  0  0  0  0  0  0  0  0  0  0
  1  2  1  0
  2  3  1  0
  2  4  1  0
  4  5  1  0
  5  6  1  0
  6  7  1  0
  6  8  2  0
  8  9  1  0
  9 10  1  0
 10 11  2  0
 10 12  1  0
 12 13  2  0
 13 14  1  0
 14 15  2  0
 15 16  1  0
 16 17  2  0
 17 18  1  0
 18 19  2  0
 19 20  1  0
 20 21  2  0
 21 12  1  0
 20 15  1  0
  1 22  1  0
  1 23  1  0
  1 24  1  0
  2 25  1  0
  3 26  1  0
  3 27  1  0
  3 28  1  0
  4 29  1  0
  4 30  1  0
  7 31  1  0
  8 32  1  0
 13 33  1  0
 14 34  1  0
 16 35  1  0
 17 36  1  0
 18 37  1  0
 19 38  1  0
M  CHG  2   5  -1   9  -1
M  END
>  <meeko>  (9) 
{"free_energy": -5.22, "intermolecular_energy": -7.6, "internal_energy": -1.58, "cluster_size": 5, "cluster_id": 2, "rank_in_cluster": 4}

$$$$

     RDKit          3D

 38 39  0  0  0  0  0  0  0  0999 V2000
  138.9510   76.8480  222.2040 C   0  0  0  0  0  0  0  0  0  0  0  0
  140.4760   76.7280  222.3310 C   0  0  0  0  0  0  0  0  0  0  0  0
  141.0880   78.0960  222.6570 C   0  0  0  0  0  0  0  0  0  0  0  0
  141.1070   76.1560  221.0510 C   0  0  0  0  0  0  0  0  0  0  0  0
  140.3780   74.9770  220.5980 N   0  0  0  0  0  0  0  0  0  0  0  0
  140.3510   73.7590  221.3490 C   0  0  0  0  0  0  0  0  0  0  0  0
  139.8920   73.7780  222.6680 O   0  0  0  0  0  0  0  0  0  0  0  0
  140.7290   72.6000  220.7920 C   0  0  0  0  0  0  0  0  0  0  0  0
  140.2300   71.3240  221.2210 N   0  0  0  0  0  0  0  0  0  0  0  0
  139.2190   71.0960  222.2140 C   0  0  0  0  0  0  0  0  0  0  0  0
  138.0200   71.3410  221.9200 O   0  0  0  0  0  0  0  0  0  0  0  0
  139.5350   70.6100  223.5760 C   0  0  0  0  0  0  0  0  0  0  0  0
  139.2570   69.2920  223.9750 C   0  0  0  0  0  0  0  0  0  0  0  0
  139.5630   68.8820  225.2750 C   0  0  0  0  0  0  0  0  0  0  0  0
  140.1590   69.7800  226.1660 C   0  0  0  0  0  0  0  0  0  0  0  0
  140.4740   69.4030  227.4810 C   0  0  0  0  0  0  0  0  0  0  0  0
  141.0720   70.3240  228.3460 C   0  0  0  0  0  0  0  0  0  0  0  0
  141.3600   71.6210  227.9050 C   0  0  0  0  0  0  0  0  0  0  0  0
  141.0510   72.0020  226.5960 C   0  0  0  0  0  0  0  0  0  0  0  0
  140.4510   71.0870  225.7230 C   0  0  0  0  0  0  0  0  0  0  0  0
  140.1400   71.4580  224.4530 N   0  0  0  0  0  0  0  0  0  0  0  0
  138.5012   76.8834  223.2072 H   0  0  0  0  0  0  0  0  0  0  0  0
  138.6999   77.7687  221.6569 H   0  0  0  0  0  0  0  0  0  0  0  0
  138.5590   75.9779  221.6569 H   0  0  0  0  0  0  0  0  0  0  0  0
  140.6912   76.0288  223.1525 H   0  0  0  0  0  0  0  0  0  0  0  0
  141.1443   78.2218  223.7483 H   0  0  0  0  0  0  0  0  0  0  0  0
  142.0992   78.1569  222.2282 H   0  0  0  0  0  0  0  0  0  0  0  0
  140.4595   78.8904  222.2282 H   0  0  0  0  0  0  0  0  0  0  0  0
  141.0802   76.9220  220.2620 H   0  0  0  0  0  0  0  0  0  0  0  0
  142.1459   75.8670  221.2681 H   0  0  0  0  0  0  0  0  0  0  0  0
  139.3860   73.0000  223.0720 H   0  0  0  0  0  0  0  0  0  0  0  0
  141.4561   72.6278  219.9670 H   0  0  0  0  0  0  0  0  0  0  0  0
  138.8001   68.5855  223.2665 H   0  0  0  0  0  0  0  0  0  0  0  0
  139.3356   67.8551  225.5970 H   0  0  0  0  0  0  0  0  0  0  0  0
  140.2505   68.3842  227.8303 H   0  0  0  0  0  0  0  0  0  0  0  0
  141.3171   70.0285  229.3768 H   0  0  0  0  0  0  0  0  0  0  0  0
  141.8304   72.3418  228.5899 H   0  0  0  0  0  0  0  0  0  0  0  0
  141.2795   73.0215  226.2518 H   0  0  0  0  0  0  0  0  0  0  0  0
  1  2  1  0
  2  3  1  0
  2  4  1  0
  4  5  1  0
  5  6  1  0
  6  7  1  0
  6  8  2  0
  8  9  1  0
  9 10  1  0
 10 11  2  0
 10 12  1  0
 12 13  2  0
 13 14  1  0
 14 15  2  0
 15 16  1  0
 16 17  2  0
 17 18  1  0
 18 19  2  0
 19 20  1  0
 20 21  2  0
 21 12  1  0
 20 15  1  0
  1 22  1  0
  1 23  1  0
  1 24  1  0
  2 25  1  0
  3 26  1  0
  3 27  1  0
  3 28  1  0
  4 29  1  0
  4 30  1  0
  7 31  1  0
  8 32  1  0
 13 33  1  0
 14 34  1  0
 16 35  1  0
 17 36  1  0
 18 37  1  0
 19 38  1  0
M  CHG  2   5  -1   9  -1
M  END
>  <meeko>  (10) 
{"free_energy": -5.23, "intermolecular_energy": -7.62, "internal_energy": -1.64, "cluster_size": 14, "cluster_id": 1, "rank_in_cluster": 12}

$$$$

     RDKit          3D

 38 39  0  0  0  0  0  0  0  0999 V2000
  139.6760   78.7620  223.0230 C   0  0  0  0  0  0  0  0  0  0  0  0
  141.0420   78.1430  222.7010 C   0  0  0  0  0  0  0  0  0  0  0  0
  142.1660   79.1120  223.0860 C   0  0  0  0  0  0  0  0  0  0  0  0
  141.1550   77.7630  221.2150 C   0  0  0  0  0  0  0  0  0  0  0  0
  140.2440   76.6710  220.8900 N   0  0  0  0  0  0  0  0  0  0  0  0
  140.1680   75.4780  221.6770 C   0  0  0  0  0  0  0  0  0  0  0  0
  139.2320   75.3980  222.7100 O   0  0  0  0  0  0  0  0  0  0  0  0
  140.9610   74.4300  221.4140 C   0  0  0  0  0  0  0  0  0  0  0  0
  140.9820   73.2410  222.2170 N   0  0  0  0  0  0  0  0  0  0  0  0
  139.8440   72.4600  222.6110 C   0  0  0  0  0  0  0  0  0  0  0  0
  138.7590   72.6250  221.9950 O   0  0  0  0  0  0  0  0  0  0  0  0
  139.8910   71.4890  223.7270 C   0  0  0  0  0  0  0  0  0  0  0  0
  139.4340   70.1680  223.5800 C   0  0  0  0  0  0  0  0  0  0  0  0
  139.4880   69.2910  224.6650 C   0  0  0  0  0  0  0  0  0  0  0  0
  140.0110   69.7270  225.8870 C   0  0  0  0  0  0  0  0  0  0  0  0
  140.0750   68.8730  226.9990 C   0  0  0  0  0  0  0  0  0  0  0  0
  140.6080   69.3390  228.2050 C   0  0  0  0  0  0  0  0  0  0  0  0
  141.0800   70.6530  228.3070 C   0  0  0  0  0  0  0  0  0  0  0  0
  141.0220   71.5070  227.2020 C   0  0  0  0  0  0  0  0  0  0  0  0
  140.4900   71.0500  225.9910 C   0  0  0  0  0  0  0  0  0  0  0  0
  140.4220   71.8810  224.9180 N   0  0  0  0  0  0  0  0  0  0  0  0
  139.5478   78.8201  224.1139 H   0  0  0  0  0  0  0  0  0  0  0  0
  139.6210   79.7730  222.5930 H   0  0  0  0  0  0  0  0  0  0  0  0
  138.8796   78.1368  222.5930 H   0  0  0  0  0  0  0  0  0  0  0  0
  141.1402   77.2205  223.2920 H   0  0  0  0  0  0  0  0  0  0  0  0
  142.2376   79.1737  224.1819 H   0  0  0  0  0  0  0  0  0  0  0  0
  143.1199   78.7485  222.6761 H   0  0  0  0  0  0  0  0  0  0  0  0
  141.9470   80.1090  222.6761 H   0  0  0  0  0  0  0  0  0  0  0  0
  140.9033   78.6385  220.5985 H   0  0  0  0  0  0  0  0  0  0  0  0
  142.1853   77.4357  221.0116 H   0  0  0  0  0  0  0  0  0  0  0  0
  138.8490   74.5130  223.0210 H   0  0  0  0  0  0  0  0  0  0  0  0
  141.6277   74.4839  220.5407 H   0  0  0  0  0  0  0  0  0  0  0  0
  139.0352   69.8263  222.6135 H   0  0  0  0  0  0  0  0  0  0  0  0
  139.1202   68.2597  224.5592 H   0  0  0  0  0  0  0  0  0  0  0  0
  139.7067   67.8394  226.9220 H   0  0  0  0  0  0  0  0  0  0  0  0
  140.6566   68.6703  229.0771 H   0  0  0  0  0  0  0  0  0  0  0  0
  141.4973   71.0141  229.2586 H   0  0  0  0  0  0  0  0  0  0  0  0
  141.3947   72.5387  227.2843 H   0  0  0  0  0  0  0  0  0  0  0  0
  1  2  1  0
  2  3  1  0
  2  4  1  0
  4  5  1  0
  5  6  1  0
  6  7  1  0
  6  8  2  0
  8  9  1  0
  9 10  1  0
 10 11  2  0
 10 12  1  0
 12 13  2  0
 13 14  1  0
 14 15  2  0
 15 16  1  0
 16 17  2  0
 17 18  1  0
 18 19  2  0
 19 20  1  0
 20 21  2  0
 21 12  1  0
 20 15  1  0
  1 22  1  0
  1 23  1  0
  1 24  1  0
  2 25  1  0
  3 26  1  0
  3 27  1  0
  3 28  1  0
  4 29  1  0
  4 30  1  0
  7 31  1  0
  8 32  1  0
 13 33  1  0
 14 34  1  0
 16 35  1  0
 17 36  1  0
 18 37  1  0
 19 38  1  0
M  CHG  2   5  -1   9  -1
M  END
>  <meeko>  (11) 
{"free_energy": -5.96, "intermolecular_energy": -8.34, "internal_energy": -1.4, "cluster_size": 14, "cluster_id": 1, "rank_in_cluster": 4}

$$$$

     RDKit          3D

 38 39  0  0  0  0  0  0  0  0999 V2000
  145.5770   73.7320  220.8410 C   0  0  0  0  0  0  0  0  0  0  0  0
  144.2530   73.7840  220.0670 C   0  0  0  0  0  0  0  0  0  0  0  0
  143.8450   75.2400  219.8170 C   0  0  0  0  0  0  0  0  0  0  0  0
  143.1330   73.0390  220.8120 C   0  0  0  0  0  0  0  0  0  0  0  0
  142.0160   73.9320  221.0930 N   0  0  0  0  0  0  0  0  0  0  0  0
  140.7090   73.4460  221.4150 C   0  0  0  0  0  0  0  0  0  0  0  0
  139.9310   74.1390  222.3450 O   0  0  0  0  0  0  0  0  0  0  0  0
  140.2140   72.3550  220.8130 C   0  0  0  0  0  0  0  0  0  0  0  0
  139.1340   71.5820  221.3570 N   0  0  0  0  0  0  0  0  0  0  0  0
  138.6130   71.6680  222.6910 C   0  0  0  0  0  0  0  0  0  0  0  0
  137.5190   72.2620  222.8730 O   0  0  0  0  0  0  0  0  0  0  0  0
  139.3250   71.1090  223.8630 C   0  0  0  0  0  0  0  0  0  0  0  0
  140.3340   71.8270  224.5280 C   0  0  0  0  0  0  0  0  0  0  0  0
  140.9850   71.2530  225.6230 C   0  0  0  0  0  0  0  0  0  0  0  0
  140.6180   69.9760  226.0600 C   0  0  0  0  0  0  0  0  0  0  0  0
  141.2550   69.3680  227.1530 C   0  0  0  0  0  0  0  0  0  0  0  0
  140.8620   68.0920  227.5670 C   0  0  0  0  0  0  0  0  0  0  0  0
  139.8330   67.4190  226.8980 C   0  0  0  0  0  0  0  0  0  0  0  0
  139.1920   68.0200  225.8110 C   0  0  0  0  0  0  0  0  0  0  0  0
  139.5800   69.2970  225.3880 C   0  0  0  0  0  0  0  0  0  0  0  0
  138.9660   69.8800  224.3250 N   0  0  0  0  0  0  0  0  0  0  0  0
  145.3707   73.7401  221.9214 H   0  0  0  0  0  0  0  0  0  0  0  0
  146.1195   72.8119  220.5782 H   0  0  0  0  0  0  0  0  0  0  0  0
  146.1900   74.6068  220.5782 H   0  0  0  0  0  0  0  0  0  0  0  0
  144.4070   73.2795  219.1018 H   0  0  0  0  0  0  0  0  0  0  0  0
  143.7017   75.7512  220.7804 H   0  0  0  0  0  0  0  0  0  0  0  0
  144.6350   75.7492  219.2456 H   0  0  0  0  0  0  0  0  0  0  0  0
  142.9054   75.2645  219.2456 H   0  0  0  0  0  0  0  0  0  0  0  0
  142.7793   72.2038  220.1896 H   0  0  0  0  0  0  0  0  0  0  0  0
  143.5328   72.6633  221.7654 H   0  0  0  0  0  0  0  0  0  0  0  0
  139.0780   73.7500  222.7280 H   0  0  0  0  0  0  0  0  0  0  0  0
  140.6564   72.0375  219.8573 H   0  0  0  0  0  0  0  0  0  0  0  0
  140.6098   72.8361  224.1879 H   0  0  0  0  0  0  0  0  0  0  0  0
  141.7843   71.8041  226.1402 H   0  0  0  0  0  0  0  0  0  0  0  0
  142.0622   69.8948  227.6830 H   0  0  0  0  0  0  0  0  0  0  0  0
  141.3634   67.6149  228.4220 H   0  0  0  0  0  0  0  0  0  0  0  0
  139.5282   66.4150  227.2284 H   0  0  0  0  0  0  0  0  0  0  0  0
  138.3827   67.4896  225.2879 H   0  0  0  0  0  0  0  0  0  0  0  0
  1  2  1  0
  2  3  1  0
  2  4  1  0
  4  5  1  0
  5  6  1  0
  6  7  1  0
  6  8  2  0
  8  9  1  0
  9 10  1  0
 10 11  2  0
 10 12  1  0
 12 13  2  0
 13 14  1  0
 14 15  2  0
 15 16  1  0
 16 17  2  0
 17 18  1  0
 18 19  2  0
 19 20  1  0
 20 21  2  0
 21 12  1  0
 20 15  1  0
  1 22  1  0
  1 23  1  0
  1 24  1  0
  2 25  1  0
  3 26  1  0
  3 27  1  0
  3 28  1  0
  4 29  1  0
  4 30  1  0
  7 31  1  0
  8 32  1  0
 13 33  1  0
 14 34  1  0
 16 35  1  0
 17 36  1  0
 18 37  1  0
 19 38  1  0
M  CHG  2   5  -1   9  -1
M  END
>  <meeko>  (12) 
{"free_energy": -5.46, "intermolecular_energy": -7.85, "internal_energy": -1.53, "cluster_size": 5, "cluster_id": 2, "rank_in_cluster": 2}

$$$$

     RDKit          3D

 38 39  0  0  0  0  0  0  0  0999 V2000
  135.9020   70.0820  224.5960 C   0  0  0  0  0  0  0  0  0  0  0  0
  135.8340   71.3830  223.7850 C   0  0  0  0  0  0  0  0  0  0  0  0
  135.1170   72.4720  224.5920 C   0  0  0  0  0  0  0  0  0  0  0  0
  135.1300   71.1720  222.4350 C   0  0  0  0  0  0  0  0  0  0  0  0
  135.6580   72.0850  221.4270 N   0  0  0  0  0  0  0  0  0  0  0  0
  137.0010   72.5760  221.4690 C   0  0  0  0  0  0  0  0  0  0  0  0
  137.3210   73.6200  222.3390 O   0  0  0  0  0  0  0  0  0  0  0  0
  137.9580   72.0260  220.7090 C   0  0  0  0  0  0  0  0  0  0  0  0
  139.2830   71.7540  221.1890 N   0  0  0  0  0  0  0  0  0  0  0  0
  139.8470   72.2050  222.4300 C   0  0  0  0  0  0  0  0  0  0  0  0
  140.3570   73.3550  222.4760 O   0  0  0  0  0  0  0  0  0  0  0  0
  139.8740   71.3630  223.6460 C   0  0  0  0  0  0  0  0  0  0  0  0
  139.3790   70.0480  223.6480 C   0  0  0  0  0  0  0  0  0  0  0  0
  139.4160   69.2950  224.8240 C   0  0  0  0  0  0  0  0  0  0  0  0
  139.9610   69.8480  225.9880 C   0  0  0  0  0  0  0  0  0  0  0  0
  140.0090   69.1210  227.1870 C   0  0  0  0  0  0  0  0  0  0  0  0
  140.5640   69.7010  228.3320 C   0  0  0  0  0  0  0  0  0  0  0  0
  141.0730   71.0040  228.2850 C   0  0  0  0  0  0  0  0  0  0  0  0
  141.0310   71.7320  227.0930 C   0  0  0  0  0  0  0  0  0  0  0  0
  140.4770   71.1600  225.9420 C   0  0  0  0  0  0  0  0  0  0  0  0
  140.4250   71.8690  224.7840 N   0  0  0  0  0  0  0  0  0  0  0  0
  135.8896   70.3185  225.6702 H   0  0  0  0  0  0  0  0  0  0  0  0
  135.0356   69.4506  224.3496 H   0  0  0  0  0  0  0  0  0  0  0  0
  136.8295   69.5444  224.3496 H   0  0  0  0  0  0  0  0  0  0  0  0
  136.8654   71.7047  223.5785 H   0  0  0  0  0  0  0  0  0  0  0  0
  135.2457   72.2765  225.6668 H   0  0  0  0  0  0  0  0  0  0  0  0
  135.5456   73.4542  224.3440 H   0  0  0  0  0  0  0  0  0  0  0  0
  134.0453   72.4664  224.3440 H   0  0  0  0  0  0  0  0  0  0  0  0
  135.2907   70.1358  222.1026 H   0  0  0  0  0  0  0  0  0  0  0  0
  134.0557   71.3709  222.5627 H   0  0  0  0  0  0  0  0  0  0  0  0
  138.2470   73.7240  222.7370 H   0  0  0  0  0  0  0  0  0  0  0  0
  137.7163   71.7706  219.6667 H   0  0  0  0  0  0  0  0  0  0  0  0
  138.9639   69.6130  222.7269 H   0  0  0  0  0  0  0  0  0  0  0  0
  139.0176   68.2697  224.8349 H   0  0  0  0  0  0  0  0  0  0  0  0
  139.6107   68.0964  227.2263 H   0  0  0  0  0  0  0  0  0  0  0  0
  140.6007   69.1315  229.2724 H   0  0  0  0  0  0  0  0  0  0  0  0
  141.5073   71.4562  229.1889 H   0  0  0  0  0  0  0  0  0  0  0  0
  141.4336   72.7551  227.0593 H   0  0  0  0  0  0  0  0  0  0  0  0
  1  2  1  0
  2  3  1  0
  2  4  1  0
  4  5  1  0
  5  6  1  0
  6  7  1  0
  6  8  2  0
  8  9  1  0
  9 10  1  0
 10 11  2  0
 10 12  1  0
 12 13  2  0
 13 14  1  0
 14 15  2  0
 15 16  1  0
 16 17  2  0
 17 18  1  0
 18 19  2  0
 19 20  1  0
 20 21  2  0
 21 12  1  0
 20 15  1  0
  1 22  1  0
  1 23  1  0
  1 24  1  0
  2 25  1  0
  3 26  1  0
  3 27  1  0
  3 28  1  0
  4 29  1  0
  4 30  1  0
  7 31  1  0
  8 32  1  0
 13 33  1  0
 14 34  1  0
 16 35  1  0
 17 36  1  0
 18 37  1  0
 19 38  1  0
M  CHG  2   5  -1   9  -1
M  END
>  <meeko>  (13) 
{"free_energy": -4.52, "intermolecular_energy": -6.9, "internal_energy": -1.99, "cluster_size": 1, "cluster_id": 3, "rank_in_cluster": 1}

$$$$

     RDKit          3D

 38 39  0  0  0  0  0  0  0  0999 V2000
  139.6940   78.9570  223.0870 C   0  0  0  0  0  0  0  0  0  0  0  0
  141.0850   78.3150  223.0080 C   0  0  0  0  0  0  0  0  0  0  0  0
  142.1580   79.3260  223.4300 C   0  0  0  0  0  0  0  0  0  0  0  0
  141.3830   77.7820  221.5970 C   0  0  0  0  0  0  0  0  0  0  0  0
  140.3440   76.8560  221.1640 N   0  0  0  0  0  0  0  0  0  0  0  0
  140.1250   75.5960  221.8060 C   0  0  0  0  0  0  0  0  0  0  0  0
  139.0750   75.4650  222.7170 O   0  0  0  0  0  0  0  0  0  0  0  0
  140.8950   74.5360  221.5190 C   0  0  0  0  0  0  0  0  0  0  0  0
  140.9460   73.3590  222.3390 N   0  0  0  0  0  0  0  0  0  0  0  0
  139.8350   72.5250  222.6990 C   0  0  0  0  0  0  0  0  0  0  0  0
  138.7500   72.6660  222.0770 O   0  0  0  0  0  0  0  0  0  0  0  0
  139.9080   71.5260  223.7890 C   0  0  0  0  0  0  0  0  0  0  0  0
  139.4820   70.1990  223.6070 C   0  0  0  0  0  0  0  0  0  0  0  0
  139.5610   69.2950  224.6690 C   0  0  0  0  0  0  0  0  0  0  0  0
  140.0780   69.7100  225.9010 C   0  0  0  0  0  0  0  0  0  0  0  0
  140.1650   68.8290  226.9900 C   0  0  0  0  0  0  0  0  0  0  0  0
  140.6910   69.2750  228.2070 C   0  0  0  0  0  0  0  0  0  0  0  0
  141.1310   70.5970  228.3420 C   0  0  0  0  0  0  0  0  0  0  0  0
  141.0490   71.4790  227.2600 C   0  0  0  0  0  0  0  0  0  0  0  0
  140.5240   71.0420  226.0390 C   0  0  0  0  0  0  0  0  0  0  0  0
  140.4330   71.8990  224.9890 N   0  0  0  0  0  0  0  0  0  0  0  0
  139.4100   79.0881  224.1416 H   0  0  0  0  0  0  0  0  0  0  0  0
  139.7136   79.9371  222.5880 H   0  0  0  0  0  0  0  0  0  0  0  0
  138.9609   78.3062  222.5880 H   0  0  0  0  0  0  0  0  0  0  0  0
  141.1005   77.4597  223.6995 H   0  0  0  0  0  0  0  0  0  0  0  0
  142.2068   79.3720  224.5279 H   0  0  0  0  0  0  0  0  0  0  0  0
  143.1343   79.0119  223.0324 H   0  0  0  0  0  0  0  0  0  0  0  0
  141.9025   80.3193  223.0324 H   0  0  0  0  0  0  0  0  0  0  0  0
  141.4287   78.6271  220.8943 H   0  0  0  0  0  0  0  0  0  0  0  0
  142.3449   77.2487  221.6171 H   0  0  0  0  0  0  0  0  0  0  0  0
  138.7970   74.5660  223.0910 H   0  0  0  0  0  0  0  0  0  0  0  0
  141.5169   74.5703  220.6123 H   0  0  0  0  0  0  0  0  0  0  0  0
  139.0882   69.8738  222.6327 H   0  0  0  0  0  0  0  0  0  0  0  0
  139.2173   68.2585  224.5368 H   0  0  0  0  0  0  0  0  0  0  0  0
  139.8201   67.7896  226.8867 H   0  0  0  0  0  0  0  0  0  0  0  0
  140.7591   68.5847  229.0607 H   0  0  0  0  0  0  0  0  0  0  0  0
  141.5423   70.9429  229.3017 H   0  0  0  0  0  0  0  0  0  0  0  0
  141.3974   72.5167  227.3689 H   0  0  0  0  0  0  0  0  0  0  0  0
  1  2  1  0
  2  3  1  0
  2  4  1  0
  4  5  1  0
  5  6  1  0
  6  7  1  0
  6  8  2  0
  8  9  1  0
  9 10  1  0
 10 11  2  0
 10 12  1  0
 12 13  2  0
 13 14  1  0
 14 15  2  0
 15 16  1  0
 16 17  2  0
 17 18  1  0
 18 19  2  0
 19 20  1  0
 20 21  2  0
 21 12  1  0
 20 15  1  0
  1 22  1  0
  1 23  1  0
  1 24  1  0
  2 25  1  0
  3 26  1  0
  3 27  1  0
  3 28  1  0
  4 29  1  0
  4 30  1  0
  7 31  1  0
  8 32  1  0
 13 33  1  0
 14 34  1  0
 16 35  1  0
 17 36  1  0
 18 37  1  0
 19 38  1  0
M  CHG  2   5  -1   9  -1
M  END
>  <meeko>  (14) 
{"free_energy": -5.96, "intermolecular_energy": -8.35, "internal_energy": -1.42, "cluster_size": 14, "cluster_id": 1, "rank_in_cluster": 3}

$$$$

     RDKit          3D

 38 39  0  0  0  0  0  0  0  0999 V2000
  143.3700   71.8170  220.7760 C   0  0  0  0  0  0  0  0  0  0  0  0
  143.5110   73.2500  220.2450 C   0  0  0  0  0  0  0  0  0  0  0  0
  144.9180   73.7860  220.5390 C   0  0  0  0  0  0  0  0  0  0  0  0
  142.4500   74.1840  220.8520 C   0  0  0  0  0  0  0  0  0  0  0  0
  141.1090   73.7620  220.4660 N   0  0  0  0  0  0  0  0  0  0  0  0
  140.2740   72.9820  221.3280 C   0  0  0  0  0  0  0  0  0  0  0  0
  140.1100   73.3730  222.6590 O   0  0  0  0  0  0  0  0  0  0  0  0
  139.6250   71.9040  220.8660 C   0  0  0  0  0  0  0  0  0  0  0  0
  138.7250   71.1260  221.6690 N   0  0  0  0  0  0  0  0  0  0  0  0
  139.0420   69.9150  222.3700 C   0  0  0  0  0  0  0  0  0  0  0  0
  139.0110   68.8270  221.7370 O   0  0  0  0  0  0  0  0  0  0  0  0
  139.3780   69.8920  223.8110 C   0  0  0  0  0  0  0  0  0  0  0  0
  139.0330   68.8080  224.6360 C   0  0  0  0  0  0  0  0  0  0  0  0
  139.3620   68.8380  225.9930 C   0  0  0  0  0  0  0  0  0  0  0  0
  140.0470   69.9380  226.5200 C   0  0  0  0  0  0  0  0  0  0  0  0
  140.3870   70.0020  227.8800 C   0  0  0  0  0  0  0  0  0  0  0  0
  141.0750   71.1150  228.3740 C   0  0  0  0  0  0  0  0  0  0  0  0
  141.4270   72.1630  227.5170 C   0  0  0  0  0  0  0  0  0  0  0  0
  141.0930   72.1040  226.1610 C   0  0  0  0  0  0  0  0  0  0  0  0
  140.4040   70.9950  225.6570 C   0  0  0  0  0  0  0  0  0  0  0  0
  140.0690   70.9390  224.3410 N   0  0  0  0  0  0  0  0  0  0  0  0
  143.3714   71.8317  221.8759 H   0  0  0  0  0  0  0  0  0  0  0  0
  142.4249   71.3840  220.4163 H   0  0  0  0  0  0  0  0  0  0  0  0
  144.2126   71.2081  220.4163 H   0  0  0  0  0  0  0  0  0  0  0  0
  143.3527   73.2234  219.1568 H   0  0  0  0  0  0  0  0  0  0  0  0
  145.0686   73.8434  221.6271 H   0  0  0  0  0  0  0  0  0  0  0  0
  145.6669   73.1102  220.1003 H   0  0  0  0  0  0  0  0  0  0  0  0
  145.0274   74.7888  220.1003 H   0  0  0  0  0  0  0  0  0  0  0  0
  142.5339   74.1611  221.9486 H   0  0  0  0  0  0  0  0  0  0  0  0
  142.6210   75.2038  220.4768 H   0  0  0  0  0  0  0  0  0  0  0  0
  139.5750   72.8210  223.3190 H   0  0  0  0  0  0  0  0  0  0  0  0
  139.7900   71.6011  219.8215 H   0  0  0  0  0  0  0  0  0  0  0  0
  138.5059   67.9393  224.2147 H   0  0  0  0  0  0  0  0  0  0  0  0
  139.0830   67.9981  226.6463 H   0  0  0  0  0  0  0  0  0  0  0  0
  140.1130   69.1786  228.5560 H   0  0  0  0  0  0  0  0  0  0  0  0
  141.3403   71.1664  229.4403 H   0  0  0  0  0  0  0  0  0  0  0  0
  141.9681   73.0358  227.9112 H   0  0  0  0  0  0  0  0  0  0  0  0
  141.3718   72.9296  225.4897 H   0  0  0  0  0  0  0  0  0  0  0  0
  1  2  1  0
  2  3  1  0
  2  4  1  0
  4  5  1  0
  5  6  1  0
  6  7  1  0
  6  8  2  0
  8  9  1  0
  9 10  1  0
 10 11  2  0
 10 12  1  0
 12 13  2  0
 13 14  1  0
 14 15  2  0
 15 16  1  0
 16 17  2  0
 17 18  1  0
 18 19  2  0
 19 20  1  0
 20 21  2  0
 21 12  1  0
 20 15  1  0
  1 22  1  0
  1 23  1  0
  1 24  1  0
  2 25  1  0
  3 26  1  0
  3 27  1  0
  3 28  1  0
  4 29  1  0
  4 30  1  0
  7 31  1  0
  8 32  1  0
 13 33  1  0
 14 34  1  0
 16 35  1  0
 17 36  1  0
 18 37  1  0
 19 38  1  0
M  CHG  2   5  -1   9  -1
M  END
>  <meeko>  (15) 
{"free_energy": -4.98, "intermolecular_energy": -7.37, "internal_energy": -1.74, "cluster_size": 5, "cluster_id": 2, "rank_in_cluster": 5}

$$$$

     RDKit          3D

 38 39  0  0  0  0  0  0  0  0999 V2000
  139.0600   77.4710  222.3650 C   0  0  0  0  0  0  0  0  0  0  0  0
  140.5500   77.1400  222.5300 C   0  0  0  0  0  0  0  0  0  0  0  0
  141.3630   78.4310  222.6890 C   0  0  0  0  0  0  0  0  0  0  0  0
  141.0820   76.3200  221.3430 C   0  0  0  0  0  0  0  0  0  0  0  0
  141.4540   74.9760  221.7700 N   0  0  0  0  0  0  0  0  0  0  0  0
  140.5060   73.9070  221.8490 C   0  0  0  0  0  0  0  0  0  0  0  0
  139.2330   74.1590  222.3640 O   0  0  0  0  0  0  0  0  0  0  0  0
  140.8150   72.6800  221.4070 C   0  0  0  0  0  0  0  0  0  0  0  0
  139.8760   71.5950  221.3840 N   0  0  0  0  0  0  0  0  0  0  0  0
  138.8920   71.3000  222.3870 C   0  0  0  0  0  0  0  0  0  0  0  0
  137.6840   71.5450  222.1350 O   0  0  0  0  0  0  0  0  0  0  0  0
  139.2470   70.7440  223.7120 C   0  0  0  0  0  0  0  0  0  0  0  0
  138.8780   69.4430  224.0920 C   0  0  0  0  0  0  0  0  0  0  0  0
  139.2250   68.9660  225.3580 C   0  0  0  0  0  0  0  0  0  0  0  0
  139.9520   69.7790  226.2330 C   0  0  0  0  0  0  0  0  0  0  0  0
  140.3130   69.3330  227.5140 C   0  0  0  0  0  0  0  0  0  0  0  0
  141.0430   70.1700  228.3630 C   0  0  0  0  0  0  0  0  0  0  0  0
  141.4180   71.4510  227.9390 C   0  0  0  0  0  0  0  0  0  0  0  0
  141.0650   71.9000  226.6640 C   0  0  0  0  0  0  0  0  0  0  0  0
  140.3330   71.0690  225.8070 C   0  0  0  0  0  0  0  0  0  0  0  0
  139.9780   71.5070  224.5700 N   0  0  0  0  0  0  0  0  0  0  0  0
  138.5953   77.5742  223.3567 H   0  0  0  0  0  0  0  0  0  0  0  0
  138.9533   78.4147  221.8101 H   0  0  0  0  0  0  0  0  0  0  0  0
  138.5638   76.6612  221.8101 H   0  0  0  0  0  0  0  0  0  0  0  0
  140.6605   76.5274  223.4369 H   0  0  0  0  0  0  0  0  0  0  0  0
  141.5001   78.6486  223.7585 H   0  0  0  0  0  0  0  0  0  0  0  0
  142.3460   78.3065  222.2112 H   0  0  0  0  0  0  0  0  0  0  0  0
  140.8260   79.2637  222.2112 H   0  0  0  0  0  0  0  0  0  0  0  0
  140.2998   76.2505  220.5727 H   0  0  0  0  0  0  0  0  0  0  0  0
  141.9733   76.8216  220.9380 H   0  0  0  0  0  0  0  0  0  0  0  0
  138.6440   73.4190  222.7270 H   0  0  0  0  0  0  0  0  0  0  0  0
  141.8371   72.4959  221.0446 H   0  0  0  0  0  0  0  0  0  0  0  0
  138.3179   68.8023  223.3951 H   0  0  0  0  0  0  0  0  0  0  0  0
  138.9270   67.9529  225.6661 H   0  0  0  0  0  0  0  0  0  0  0  0
  140.0220   68.3266  227.8493 H   0  0  0  0  0  0  0  0  0  0  0  0
  141.3239   69.8212  229.3677 H   0  0  0  0  0  0  0  0  0  0  0  0
  141.9920   72.1053  228.6116 H   0  0  0  0  0  0  0  0  0  0  0  0
  141.3621   72.9062  226.3334 H   0  0  0  0  0  0  0  0  0  0  0  0
  1  2  1  0
  2  3  1  0
  2  4  1  0
  4  5  1  0
  5  6  1  0
  6  7  1  0
  6  8  2  0
  8  9  1  0
  9 10  1  0
 10 11  2  0
 10 12  1  0
 12 13  2  0
 13 14  1  0
 14 15  2  0
 15 16  1  0
 16 17  2  0
 17 18  1  0
 18 19  2  0
 19 20  1  0
 20 21  2  0
 21 12  1  0
 20 15  1  0
  1 22  1  0
  1 23  1  0
  1 24  1  0
  2 25  1  0
  3 26  1  0
  3 27  1  0
  3 28  1  0
  4 29  1  0
  4 30  1  0
  7 31  1  0
  8 32  1  0
 13 33  1  0
 14 34  1  0
 16 35  1  0
 17 36  1  0
 18 37  1  0
 19 38  1  0
M  CHG  2   5  -1   9  -1
M  END
>  <meeko>  (16) 
{"free_energy": -5.36, "intermolecular_energy": -7.75, "internal_energy": -1.52, "cluster_size": 14, "cluster_id": 1, "rank_in_cluster": 8}

$$$$

     RDKit          3D

 38 39  0  0  0  0  0  0  0  0999 V2000
  141.8300   79.0080  223.9040 C   0  0  0  0  0  0  0  0  0  0  0  0
  141.6300   78.6440  222.4270 C   0  0  0  0  0  0  0  0  0  0  0  0
  141.8030   79.8890  221.5480 C   0  0  0  0  0  0  0  0  0  0  0  0
  140.2510   78.0090  222.1830 C   0  0  0  0  0  0  0  0  0  0  0  0
  140.3700   76.8180  221.3500 N   0  0  0  0  0  0  0  0  0  0  0  0
  140.1810   75.4990  221.8710 C   0  0  0  0  0  0  0  0  0  0  0  0
  139.1050   75.2470  222.7240 O   0  0  0  0  0  0  0  0  0  0  0  0
  141.0030   74.4990  221.5230 C   0  0  0  0  0  0  0  0  0  0  0  0
  141.0550   73.2470  222.2230 N   0  0  0  0  0  0  0  0  0  0  0  0
  139.9380   72.4070  222.5480 C   0  0  0  0  0  0  0  0  0  0  0  0
  138.8890   72.5070  221.8590 O   0  0  0  0  0  0  0  0  0  0  0  0
  139.9620   71.4480  223.6760 C   0  0  0  0  0  0  0  0  0  0  0  0
  139.5100   70.1260  223.5330 C   0  0  0  0  0  0  0  0  0  0  0  0
  139.5430   69.2610  224.6300 C   0  0  0  0  0  0  0  0  0  0  0  0
  140.0390   69.7100  225.8580 C   0  0  0  0  0  0  0  0  0  0  0  0
  140.0810   68.8690  226.9800 C   0  0  0  0  0  0  0  0  0  0  0  0
  140.5870   69.3490  228.1920 C   0  0  0  0  0  0  0  0  0  0  0  0
  141.0540   70.6650  228.2890 C   0  0  0  0  0  0  0  0  0  0  0  0
  141.0190   71.5070  227.1740 C   0  0  0  0  0  0  0  0  0  0  0  0
  140.5130   71.0360  225.9570 C   0  0  0  0  0  0  0  0  0  0  0  0
  140.4670   71.8550  224.8730 N   0  0  0  0  0  0  0  0  0  0  0  0
  141.3970   78.2200  224.5377 H   0  0  0  0  0  0  0  0  0  0  0  0
  142.9053   79.1000  224.1166 H   0  0  0  0  0  0  0  0  0  0  0  0
  141.3310   79.9650  224.1166 H   0  0  0  0  0  0  0  0  0  0  0  0
  142.3943   77.9004  222.1570 H   0  0  0  0  0  0  0  0  0  0  0  0
  141.9261   80.7753  222.1878 H   0  0  0  0  0  0  0  0  0  0  0  0
  142.6930   79.7687  220.9129 H   0  0  0  0  0  0  0  0  0  0  0  0
  140.9139   80.0159  220.9129 H   0  0  0  0  0  0  0  0  0  0  0  0
  139.8061   77.7302  223.1496 H   0  0  0  0  0  0  0  0  0  0  0  0
  139.6128   78.7398  221.6646 H   0  0  0  0  0  0  0  0  0  0  0  0
  138.8680   74.3110  223.0300 H   0  0  0  0  0  0  0  0  0  0  0  0
  141.6693   74.6448  220.6600 H   0  0  0  0  0  0  0  0  0  0  0  0
  139.1318   69.7732  222.5622 H   0  0  0  0  0  0  0  0  0  0  0  0
  139.1792   68.2280  224.5277 H   0  0  0  0  0  0  0  0  0  0  0  0
  139.7165   67.8338  226.9065 H   0  0  0  0  0  0  0  0  0  0  0  0
  140.6182   68.6901  229.0723 H   0  0  0  0  0  0  0  0  0  0  0  0
  141.4496   71.0375  229.2454 H   0  0  0  0  0  0  0  0  0  0  0  0
  141.3891   72.5399  227.2529 H   0  0  0  0  0  0  0  0  0  0  0  0
  1  2  1  0
  2  3  1  0
  2  4  1  0
  4  5  1  0
  5  6  1  0
  6  7  1  0
  6  8  2  0
  8  9  1  0
  9 10  1  0
 10 11  2  0
 10 12  1  0
 12 13  2  0
 13 14  1  0
 14 15  2  0
 15 16  1  0
 16 17  2  0
 17 18  1  0
 18 19  2  0
 19 20  1  0
 20 21  2  0
 21 12  1  0
 20 15  1  0
  1 22  1  0
  1 23  1  0
  1 24  1  0
  2 25  1  0
  3 26  1  0
  3 27  1  0
  3 28  1  0
  4 29  1  0
  4 30  1  0
  7 31  1  0
  8 32  1  0
 13 33  1  0
 14 34  1  0
 16 35  1  0
 17 36  1  0
 18 37  1  0
 19 38  1  0
M  CHG  2   5  -1   9  -1
M  END
>  <meeko>  (17) 
{"free_energy": -6.03, "intermolecular_energy": -8.42, "internal_energy": -1.39, "cluster_size": 14, "cluster_id": 1, "rank_in_cluster": 2}

$$$$

     RDKit          3D

 38 39  0  0  0  0  0  0  0  0999 V2000
  145.0920   73.7910  220.5180 C   0  0  0  0  0  0  0  0  0  0  0  0
  143.7130   73.1940  220.8270 C   0  0  0  0  0  0  0  0  0  0  0  0
  143.6990   71.6970  220.4960 C   0  0  0  0  0  0  0  0  0  0  0  0
  142.5970   73.9180  220.0540 C   0  0  0  0  0  0  0  0  0  0  0  0
  141.5490   74.3700  220.9620 N   0  0  0  0  0  0  0  0  0  0  0  0
  140.5330   73.4920  221.4550 C   0  0  0  0  0  0  0  0  0  0  0  0
  139.9540   73.7460  222.7000 O   0  0  0  0  0  0  0  0  0  0  0  0
  140.1100   72.4510  220.7240 C   0  0  0  0  0  0  0  0  0  0  0  0
  139.4550   71.3080  221.2920 N   0  0  0  0  0  0  0  0  0  0  0  0
  138.6520   71.2920  222.4820 C   0  0  0  0  0  0  0  0  0  0  0  0
  137.5120   71.8240  222.4450 O   0  0  0  0  0  0  0  0  0  0  0  0
  139.1220   70.6980  223.7540 C   0  0  0  0  0  0  0  0  0  0  0  0
  138.9920   69.3250  224.0220 C   0  0  0  0  0  0  0  0  0  0  0  0
  139.4410   68.8120  225.2420 C   0  0  0  0  0  0  0  0  0  0  0  0
  140.0300   69.6650  226.1810 C   0  0  0  0  0  0  0  0  0  0  0  0
  140.4860   69.1840  227.4180 C   0  0  0  0  0  0  0  0  0  0  0  0
  141.0740   70.0630  228.3340 C   0  0  0  0  0  0  0  0  0  0  0  0
  141.2110   71.4200  228.0200 C   0  0  0  0  0  0  0  0  0  0  0  0
  140.7620   71.9050  226.7880 C   0  0  0  0  0  0  0  0  0  0  0  0
  140.1710   71.0330  225.8660 C   0  0  0  0  0  0  0  0  0  0  0  0
  139.7240   71.5030  224.6720 N   0  0  0  0  0  0  0  0  0  0  0  0
  145.6133   74.0167  221.4600 H   0  0  0  0  0  0  0  0  0  0  0  0
  145.6826   73.0680  219.9362 H   0  0  0  0  0  0  0  0  0  0  0  0
  144.9689   74.7164  219.9362 H   0  0  0  0  0  0  0  0  0  0  0  0
  143.5209   73.3303  221.9015 H   0  0  0  0  0  0  0  0  0  0  0  0
  143.6936   71.1151  221.4295 H   0  0  0  0  0  0  0  0  0  0  0  0
  142.7986   71.4593  219.9105 H   0  0  0  0  0  0  0  0  0  0  0  0
  144.5948   71.4425  219.9105 H   0  0  0  0  0  0  0  0  0  0  0  0
  143.0241   74.7882  219.5342 H   0  0  0  0  0  0  0  0  0  0  0  0
  142.1578   73.2172  219.3288 H   0  0  0  0  0  0  0  0  0  0  0  0
  139.2950   73.1070  223.1270 H   0  0  0  0  0  0  0  0  0  0  0  0
  140.2729   72.4743  219.6364 H   0  0  0  0  0  0  0  0  0  0  0  0
  138.5389   68.6568  223.2749 H   0  0  0  0  0  0  0  0  0  0  0  0
  139.3314   67.7401  225.4632 H   0  0  0  0  0  0  0  0  0  0  0  0
  140.3813   68.1177  227.6670 H   0  0  0  0  0  0  0  0  0  0  0  0
  141.4299   69.6863  229.3043 H   0  0  0  0  0  0  0  0  0  0  0  0
  141.6731   72.1067  228.7444 H   0  0  0  0  0  0  0  0  0  0  0  0
  140.8731   72.9716  226.5432 H   0  0  0  0  0  0  0  0  0  0  0  0
  1  2  1  0
  2  3  1  0
  2  4  1  0
  4  5  1  0
  5  6  1  0
  6  7  1  0
  6  8  2  0
  8  9  1  0
  9 10  1  0
 10 11  2  0
 10 12  1  0
 12 13  2  0
 13 14  1  0
 14 15  2  0
 15 16  1  0
 16 17  2  0
 17 18  1  0
 18 19  2  0
 19 20  1  0
 20 21  2  0
 21 12  1  0
 20 15  1  0
  1 22  1  0
  1 23  1  0
  1 24  1  0
  2 25  1  0
  3 26  1  0
  3 27  1  0
  3 28  1  0
  4 29  1  0
  4 30  1  0
  7 31  1  0
  8 32  1  0
 13 33  1  0
 14 34  1  0
 16 35  1  0
 17 36  1  0
 18 37  1  0
 19 38  1  0
M  CHG  2   5  -1   9  -1
M  END
>  <meeko>  (18) 
{"free_energy": -5.26, "intermolecular_energy": -7.65, "internal_energy": -1.81, "cluster_size": 14, "cluster_id": 1, "rank_in_cluster": 11}

$$$$

     RDKit          3D

 38 39  0  0  0  0  0  0  0  0999 V2000
  138.9340   76.7980  222.1580 C   0  0  0  0  0  0  0  0  0  0  0  0
  140.4480   76.6290  222.3470 C   0  0  0  0  0  0  0  0  0  0  0  0
  141.0960   77.9830  222.6590 C   0  0  0  0  0  0  0  0  0  0  0  0
  141.1050   75.9980  221.1080 C   0  0  0  0  0  0  0  0  0  0  0  0
  140.2900   74.9050  220.5910 N   0  0  0  0  0  0  0  0  0  0  0  0
  140.0860   73.6910  221.3210 C   0  0  0  0  0  0  0  0  0  0  0  0
  139.9460   73.7420  222.7090 O   0  0  0  0  0  0  0  0  0  0  0  0
  139.9970   72.5140  220.6850 C   0  0  0  0  0  0  0  0  0  0  0  0
  139.4700   71.3290  221.3000 N   0  0  0  0  0  0  0  0  0  0  0  0
  138.6620   71.2720  222.4850 C   0  0  0  0  0  0  0  0  0  0  0  0
  137.5060   71.7690  222.4500 O   0  0  0  0  0  0  0  0  0  0  0  0
  139.1450   70.6770  223.7510 C   0  0  0  0  0  0  0  0  0  0  0  0
  139.0450   69.2990  224.0070 C   0  0  0  0  0  0  0  0  0  0  0  0
  139.5040   68.7840  225.2210 C   0  0  0  0  0  0  0  0  0  0  0  0
  140.0760   69.6400  226.1690 C   0  0  0  0  0  0  0  0  0  0  0  0
  140.5420   69.1570  227.4010 C   0  0  0  0  0  0  0  0  0  0  0  0
  141.1120   70.0390  228.3240 C   0  0  0  0  0  0  0  0  0  0  0  0
  141.2210   71.4010  228.0230 C   0  0  0  0  0  0  0  0  0  0  0  0
  140.7610   71.8880  226.7960 C   0  0  0  0  0  0  0  0  0  0  0  0
  140.1880   71.0130  225.8660 C   0  0  0  0  0  0  0  0  0  0  0  0
  139.7300   71.4850  224.6770 N   0  0  0  0  0  0  0  0  0  0  0  0
  138.4455   76.8525  223.1421 H   0  0  0  0  0  0  0  0  0  0  0  0
  138.7355   77.7239  221.5983 H   0  0  0  0  0  0  0  0  0  0  0  0
  138.5362   75.9387  221.5983 H   0  0  0  0  0  0  0  0  0  0  0  0
  140.6075   75.9472  223.1953 H   0  0  0  0  0  0  0  0  0  0  0  0
  141.1599   78.1164  223.7490 H   0  0  0  0  0  0  0  0  0  0  0  0
  142.1067   78.0143  222.2259 H   0  0  0  0  0  0  0  0  0  0  0  0
  140.4864   78.7897  222.2259 H   0  0  0  0  0  0  0  0  0  0  0  0
  141.2158   76.7657  220.3280 H   0  0  0  0  0  0  0  0  0  0  0  0
  142.0893   75.5993  221.3948 H   0  0  0  0  0  0  0  0  0  0  0  0
  139.3460   73.1000  223.2130 H   0  0  0  0  0  0  0  0  0  0  0  0
  140.3442   72.4537  219.6430 H   0  0  0  0  0  0  0  0  0  0  0  0
  138.6066   68.6282  223.2535 H   0  0  0  0  0  0  0  0  0  0  0  0
  139.4162   67.7080  225.4318 H   0  0  0  0  0  0  0  0  0  0  0  0
  140.4591   68.0865  227.6403 H   0  0  0  0  0  0  0  0  0  0  0  0
  141.4762   69.6607  229.2906 H   0  0  0  0  0  0  0  0  0  0  0  0
  141.6697   72.0902  228.7535 H   0  0  0  0  0  0  0  0  0  0  0  0
  140.8494   72.9591  226.5614 H   0  0  0  0  0  0  0  0  0  0  0  0
  1  2  1  0
  2  3  1  0
  2  4  1  0
  4  5  1  0
  5  6  1  0
  6  7  1  0
  6  8  2  0
  8  9  1  0
  9 10  1  0
 10 11  2  0
 10 12  1  0
 12 13  2  0
 13 14  1  0
 14 15  2  0
 15 16  1  0
 16 17  2  0
 17 18  1  0
 18 19  2  0
 19 20  1  0
 20 21  2  0
 21 12  1  0
 20 15  1  0
  1 22  1  0
  1 23  1  0
  1 24  1  0
  2 25  1  0
  3 26  1  0
  3 27  1  0
  3 28  1  0
  4 29  1  0
  4 30  1  0
  7 31  1  0
  8 32  1  0
 13 33  1  0
 14 34  1  0
 16 35  1  0
 17 36  1  0
 18 37  1  0
 19 38  1  0
M  CHG  2   5  -1   9  -1
M  END
>  <meeko>  (19) 
{"free_energy": -5.19, "intermolecular_energy": -7.58, "internal_energy": -1.68, "cluster_size": 14, "cluster_id": 1, "rank_in_cluster": 13}

$$$$

     RDKit          3D

 38 39  0  0  0  0  0  0  0  0999 V2000
  138.9610   76.7700  222.3140 C   0  0  0  0  0  0  0  0  0  0  0  0
  140.4930   76.6900  222.3460 C   0  0  0  0  0  0  0  0  0  0  0  0
  141.0940   78.0990  222.4350 C   0  0  0  0  0  0  0  0  0  0  0  0
  141.0460   75.9540  221.1140 C   0  0  0  0  0  0  0  0  0  0  0  0
  141.5320   74.6280  221.4800 N   0  0  0  0  0  0  0  0  0  0  0  0
  140.6470   73.5450  221.7820 C   0  0  0  0  0  0  0  0  0  0  0  0
  139.6120   73.7430  222.6980 O   0  0  0  0  0  0  0  0  0  0  0  0
  140.7810   72.3580  221.1740 C   0  0  0  0  0  0  0  0  0  0  0  0
  139.7980   71.3160  221.2630 N   0  0  0  0  0  0  0  0  0  0  0  0
  138.8720   71.1100  222.3400 C   0  0  0  0  0  0  0  0  0  0  0  0
  137.6650   71.4230  222.1630 O   0  0  0  0  0  0  0  0  0  0  0  0
  139.2840   70.5700  223.6550 C   0  0  0  0  0  0  0  0  0  0  0  0
  139.1360   69.2100  223.9760 C   0  0  0  0  0  0  0  0  0  0  0  0
  139.5290   68.7490  225.2340 C   0  0  0  0  0  0  0  0  0  0  0  0
  140.0830   69.6390  226.1610 C   0  0  0  0  0  0  0  0  0  0  0  0
  140.4830   69.2100  227.4350 C   0  0  0  0  0  0  0  0  0  0  0  0
  141.0360   70.1250  228.3370 C   0  0  0  0  0  0  0  0  0  0  0  0
  141.1940   71.4670  227.9710 C   0  0  0  0  0  0  0  0  0  0  0  0
  140.8000   71.9000  226.7020 C   0  0  0  0  0  0  0  0  0  0  0  0
  140.2450   70.9920  225.7940 C   0  0  0  0  0  0  0  0  0  0  0  0
  139.8500   71.4120  224.5620 N   0  0  0  0  0  0  0  0  0  0  0  0
  138.5733   76.7902  223.3432 H   0  0  0  0  0  0  0  0  0  0  0  0
  138.6525   77.6855  221.7879 H   0  0  0  0  0  0  0  0  0  0  0  0
  138.5589   75.8916  221.7879 H   0  0  0  0  0  0  0  0  0  0  0  0
  140.7818   76.1154  223.2384 H   0  0  0  0  0  0  0  0  0  0  0  0
  141.2140   78.3804  223.4916 H   0  0  0  0  0  0  0  0  0  0  0  0
  142.0755   78.1110  221.9386 H   0  0  0  0  0  0  0  0  0  0  0  0
  140.4233   78.8157  221.9386 H   0  0  0  0  0  0  0  0  0  0  0  0
  140.2464   75.8515  220.3656 H   0  0  0  0  0  0  0  0  0  0  0  0
  141.8833   76.5358  220.7011 H   0  0  0  0  0  0  0  0  0  0  0  0
  139.1070   72.9690  223.1140 H   0  0  0  0  0  0  0  0  0  0  0  0
  141.6874   72.1737  220.5786 H   0  0  0  0  0  0  0  0  0  0  0  0
  138.7123   68.5115  223.2393 H   0  0  0  0  0  0  0  0  0  0  0  0
  139.4034   67.6881  225.4960 H   0  0  0  0  0  0  0  0  0  0  0  0
  140.3620   68.1557  227.7244 H   0  0  0  0  0  0  0  0  0  0  0  0
  141.3477   69.7891  229.3370 H   0  0  0  0  0  0  0  0  0  0  0  0
  141.6294   72.1825  228.6841 H   0  0  0  0  0  0  0  0  0  0  0  0
  140.9263   72.9549  226.4171 H   0  0  0  0  0  0  0  0  0  0  0  0
  1  2  1  0
  2  3  1  0
  2  4  1  0
  4  5  1  0
  5  6  1  0
  6  7  1  0
  6  8  2  0
  8  9  1  0
  9 10  1  0
 10 11  2  0
 10 12  1  0
 12 13  2  0
 13 14  1  0
 14 15  2  0
 15 16  1  0
 16 17  2  0
 17 18  1  0
 18 19  2  0
 19 20  1  0
 20 21  2  0
 21 12  1  0
 20 15  1  0
  1 22  1  0
  1 23  1  0
  1 24  1  0
  2 25  1  0
  3 26  1  0
  3 27  1  0
  3 28  1  0
  4 29  1  0
  4 30  1  0
  7 31  1  0
  8 32  1  0
 13 33  1  0
 14 34  1  0
 16 35  1  0
 17 36  1  0
 18 37  1  0
 19 38  1  0
M  CHG  2   5  -1   9  -1
M  END
>  <meeko>  (20) 
{"free_energy": -5.29, "intermolecular_energy": -7.67, "internal_energy": -1.75, "cluster_size": 14, "cluster_id": 1, "rank_in_cluster": 10}

$$$$
