
     RDKit          3D

 39 40  0  0  0  0  0  0  0  0999 V2000
  141.0420   71.8450  227.0870 C   0  0  0  0  0  0  0  0  0  0  0  0
  141.1430   70.8920  225.8880 C   0  0  0  0  0  0  0  0  0  0  0  0
  141.0080   69.4370  226.3540 C   0  0  0  0  0  0  0  0  0  0  0  0
  140.0800   71.2130  224.8270 C   0  0  0  0  0  0  0  0  0  0  0  0
  140.5820   72.1990  223.8770 N   0  0  0  0  0  0  0  0  0  0  0  0
  140.3420   72.1040  222.4700 C   0  0  0  0  0  0  0  0  0  0  0  0
  139.2610   71.6180  222.0380 O   0  0  0  0  0  0  0  0  0  0  0  0
  141.3930   72.5500  221.5100 C   0  0  0  0  0  0  0  0  0  0  0  0
  141.0140   73.8420  220.9440 N   0  0  0  0  0  0  0  0  0  0  0  0
  140.4720   74.8340  221.5930 C   0  0  0  0  0  0  0  0  0  0  0  0
  139.3470   74.5960  222.3770 O   0  0  0  0  0  0  0  0  0  0  0  0
  141.0110   76.2030  221.5520 C   0  0  0  0  0  0  0  0  0  0  0  0
  141.3640   76.8020  220.3350 C   0  0  0  0  0  0  0  0  0  0  0  0
  141.7960   78.1280  220.3170 C   0  0  0  0  0  0  0  0  0  0  0  0
  141.8370   78.8610  221.5070 C   0  0  0  0  0  0  0  0  0  0  0  0
  142.2300   80.2070  221.5180 C   0  0  0  0  0  0  0  0  0  0  0  0
  142.2370   80.9230  222.7200 C   0  0  0  0  0  0  0  0  0  0  0  0
  141.8670   80.2960  223.9120 C   0  0  0  0  0  0  0  0  0  0  0  0
  141.4690   78.9550  223.9100 C   0  0  0  0  0  0  0  0  0  0  0  0
  141.4470   78.2350  222.7110 C   0  0  0  0  0  0  0  0  0  0  0  0
  141.0450   76.9360  222.7000 N   0  0  0  0  0  0  0  0  0  0  0  0
  141.1033   71.2670  228.0209 H   0  0  0  0  0  0  0  0  0  0  0  0
  141.8683   72.5701  227.0497 H   0  0  0  0  0  0  0  0  0  0  0  0
  140.0820   72.3808  227.0497 H   0  0  0  0  0  0  0  0  0  0  0  0
  142.1321   71.0309  225.4272 H   0  0  0  0  0  0  0  0  0  0  0  0
  141.0048   69.4029  227.4535 H   0  0  0  0  0  0  0  0  0  0  0  0
  140.0669   69.0153  225.9714 H   0  0  0  0  0  0  0  0  0  0  0  0
  141.8555   68.8493  225.9714 H   0  0  0  0  0  0  0  0  0  0  0  0
  139.8190   70.2911  224.2867 H   0  0  0  0  0  0  0  0  0  0  0  0
  139.1922   71.6252  225.3289 H   0  0  0  0  0  0  0  0  0  0  0  0
  142.3539   72.6473  222.0365 H   0  0  0  0  0  0  0  0  0  0  0  0
  141.4925   71.8094  220.7028 H   0  0  0  0  0  0  0  0  0  0  0  0
  139.2450   73.7310  222.8960 H   0  0  0  0  0  0  0  0  0  0  0  0
  141.3006   76.2289  219.3983 H   0  0  0  0  0  0  0  0  0  0  0  0
  142.1034   78.5955  219.3699 H   0  0  0  0  0  0  0  0  0  0  0  0
  142.5326   80.6996  220.5822 H   0  0  0  0  0  0  0  0  0  0  0  0
  142.5345   81.9820  222.7263 H   0  0  0  0  0  0  0  0  0  0  0  0
  141.8887   80.8593  224.8566 H   0  0  0  0  0  0  0  0  0  0  0  0
  141.1735   78.4671  224.8506 H   0  0  0  0  0  0  0  0  0  0  0  0
  1  2  1  0
  2  3  1  0
  2  4  1  0
  4  5  1  0
  5  6  1  0
  6  7  2  0
  6  8  1  0
  8  9  1  0
  9 10  2  0
 10 11  1  0
 10 12  1  0
 12 13  2  0
 13 14  1  0
 14 15  2  0
 15 16  1  0
 16 17  2  0
 17 18  1  0
 18 19  2  0
 19 20  1  0
 20 21  2  0
 21 12  1  0
 20 15  1  0
  1 22  1  0
  1 23  1  0
  1 24  1  0
  2 25  1  0
  3 26  1  0
  3 27  1  0
  3 28  1  0
  4 29  1  0
  4 30  1  0
  8 31  1  0
  8 32  1  0
 11 33  1  0
 13 34  1  0
 14 35  1  0
 16 36  1  0
 17 37  1  0
 18 38  1  0
 19 39  1  0
M  CHG  1   5  -1
M  END
>  <meeko>  (1) 
{"free_energy": -5.93, "intermolecular_energy": -8.32, "internal_energy": -1.4, "cluster_size": 9, "cluster_id": 2, "rank_in_cluster": 6}

$$$$

     RDKit          3D

 39 40  0  0  0  0  0  0  0  0999 V2000
  140.7010   69.4380  225.8020 C   0  0  0  0  0  0  0  0  0  0  0  0
  140.2040   70.8730  226.0220 C   0  0  0  0  0  0  0  0  0  0  0  0
  140.6440   71.3820  227.4000 C   0  0  0  0  0  0  0  0  0  0  0  0
  140.7070   71.8160  224.9190 C   0  0  0  0  0  0  0  0  0  0  0  0
  140.2400   71.3730  223.6100 N   0  0  0  0  0  0  0  0  0  0  0  0
  139.5540   72.2420  222.7040 C   0  0  0  0  0  0  0  0  0  0  0  0
  138.2930   72.2900  222.6970 O   0  0  0  0  0  0  0  0  0  0  0  0
  140.3360   73.0690  221.7390 C   0  0  0  0  0  0  0  0  0  0  0  0
  140.3820   74.4490  222.2120 N   0  0  0  0  0  0  0  0  0  0  0  0
  139.3800   75.2810  222.2510 C   0  0  0  0  0  0  0  0  0  0  0  0
  138.0870   74.7900  222.1010 O   0  0  0  0  0  0  0  0  0  0  0  0
  139.5510   76.7270  222.4700 C   0  0  0  0  0  0  0  0  0  0  0  0
  138.4420   77.5640  222.6510 C   0  0  0  0  0  0  0  0  0  0  0  0
  138.6350   78.9150  222.9360 C   0  0  0  0  0  0  0  0  0  0  0  0
  139.9320   79.4170  223.0780 C   0  0  0  0  0  0  0  0  0  0  0  0
  140.1600   80.7610  223.4030 C   0  0  0  0  0  0  0  0  0  0  0  0
  141.4690   81.2290  223.5640 C   0  0  0  0  0  0  0  0  0  0  0  0
  142.5500   80.3620  223.3880 C   0  0  0  0  0  0  0  0  0  0  0  0
  142.3320   79.0180  223.0680 C   0  0  0  0  0  0  0  0  0  0  0  0
  141.0260   78.5390  222.9180 C   0  0  0  0  0  0  0  0  0  0  0  0
  140.8080   77.2290  222.6240 N   0  0  0  0  0  0  0  0  0  0  0  0
  140.8684   68.9546  226.7758 H   0  0  0  0  0  0  0  0  0  0  0  0
  139.9468   68.8714  225.2362 H   0  0  0  0  0  0  0  0  0  0  0  0
  141.6441   69.4593  225.2362 H   0  0  0  0  0  0  0  0  0  0  0  0
  139.1049   70.8604  225.9786 H   0  0  0  0  0  0  0  0  0  0  0  0
  140.1397   70.7987  228.1845 H   0  0  0  0  0  0  0  0  0  0  0  0
  141.7334   71.2689  227.5020 H   0  0  0  0  0  0  0  0  0  0  0  0
  140.3745   72.4436  227.5020 H   0  0  0  0  0  0  0  0  0  0  0  0
  140.3303   72.8313  225.1123 H   0  0  0  0  0  0  0  0  0  0  0  0
  141.8070   71.8101  224.9229 H   0  0  0  0  0  0  0  0  0  0  0  0
  141.3593   72.6731  221.6610 H   0  0  0  0  0  0  0  0  0  0  0  0
  139.8550   73.0345  220.7503 H   0  0  0  0  0  0  0  0  0  0  0  0
  137.7170   74.0880  222.7330 H   0  0  0  0  0  0  0  0  0  0  0  0
  137.4234   77.1569  222.5686 H   0  0  0  0  0  0  0  0  0  0  0  0
  137.7692   79.5841  223.0488 H   0  0  0  0  0  0  0  0  0  0  0  0
  139.3104   81.4478  223.5315 H   0  0  0  0  0  0  0  0  0  0  0  0
  141.6470   82.2815  223.8296 H   0  0  0  0  0  0  0  0  0  0  0  0
  143.5775   80.7380  223.5016 H   0  0  0  0  0  0  0  0  0  0  0  0
  143.1865   78.3383  222.9344 H   0  0  0  0  0  0  0  0  0  0  0  0
  1  2  1  0
  2  3  1  0
  2  4  1  0
  4  5  1  0
  5  6  1  0
  6  7  2  0
  6  8  1  0
  8  9  1  0
  9 10  2  0
 10 11  1  0
 10 12  1  0
 12 13  2  0
 13 14  1  0
 14 15  2  0
 15 16  1  0
 16 17  2  0
 17 18  1  0
 18 19  2  0
 19 20  1  0
 20 21  2  0
 21 12  1  0
 20 15  1  0
  1 22  1  0
  1 23  1  0
  1 24  1  0
  2 25  1  0
  3 26  1  0
  3 27  1  0
  3 28  1  0
  4 29  1  0
  4 30  1  0
  8 31  1  0
  8 32  1  0
 11 33  1  0
 13 34  1  0
 14 35  1  0
 16 36  1  0
 17 37  1  0
 18 38  1  0
 19 39  1  0
M  CHG  1   5  -1
M  END
>  <meeko>  (2) 
{"free_energy": -5.68, "intermolecular_energy": -8.07, "internal_energy": -1.15, "cluster_size": 9, "cluster_id": 2, "rank_in_cluster": 8}

$$$$

     RDKit          3D

 39 40  0  0  0  0  0  0  0  0999 V2000
  140.6190   69.8640  227.4790 C   0  0  0  0  0  0  0  0  0  0  0  0
  140.4860   71.1110  226.5950 C   0  0  0  0  0  0  0  0  0  0  0  0
  141.4360   72.2110  227.0820 C   0  0  0  0  0  0  0  0  0  0  0  0
  140.7600   70.7820  225.1190 C   0  0  0  0  0  0  0  0  0  0  0  0
  140.6840   71.9870  224.3010 N   0  0  0  0  0  0  0  0  0  0  0  0
  139.9450   72.0390  223.0770 C   0  0  0  0  0  0  0  0  0  0  0  0
  138.7040   71.8110  223.0690 O   0  0  0  0  0  0  0  0  0  0  0  0
  140.6550   72.3310  221.7980 C   0  0  0  0  0  0  0  0  0  0  0  0
  141.1460   73.7060  221.8200 N   0  0  0  0  0  0  0  0  0  0  0  0
  140.4190   74.7780  221.9710 C   0  0  0  0  0  0  0  0  0  0  0  0
  139.0800   74.6430  222.3240 O   0  0  0  0  0  0  0  0  0  0  0  0
  140.9570   76.1380  221.8030 C   0  0  0  0  0  0  0  0  0  0  0  0
  141.2670   76.6370  220.5310 C   0  0  0  0  0  0  0  0  0  0  0  0
  141.7000   77.9550  220.3920 C   0  0  0  0  0  0  0  0  0  0  0  0
  141.7840   78.7810  221.5180 C   0  0  0  0  0  0  0  0  0  0  0  0
  142.1780   80.1210  221.4090 C   0  0  0  0  0  0  0  0  0  0  0  0
  142.2290   80.9300  222.5490 C   0  0  0  0  0  0  0  0  0  0  0  0
  141.9010   80.4000  223.8000 C   0  0  0  0  0  0  0  0  0  0  0  0
  141.5020   79.0650  223.9170 C   0  0  0  0  0  0  0  0  0  0  0  0
  141.4370   78.2520  222.7810 C   0  0  0  0  0  0  0  0  0  0  0  0
  141.0330   76.9580  222.8870 N   0  0  0  0  0  0  0  0  0  0  0  0
  140.5874   70.1601  228.5379 H   0  0  0  0  0  0  0  0  0  0  0  0
  139.7894   69.1737  227.2664 H   0  0  0  0  0  0  0  0  0  0  0  0
  141.5756   69.3642  227.2664 H   0  0  0  0  0  0  0  0  0  0  0  0
  139.4502   71.4730  226.6729 H   0  0  0  0  0  0  0  0  0  0  0  0
  141.4479   72.2248  228.1819 H   0  0  0  0  0  0  0  0  0  0  0  0
  142.4507   72.0118  226.7068 H   0  0  0  0  0  0  0  0  0  0  0  0
  141.0912   73.1859  226.7068 H   0  0  0  0  0  0  0  0  0  0  0  0
  141.7654   70.3454  225.0267 H   0  0  0  0  0  0  0  0  0  0  0  0
  140.0007   70.0674  224.7685 H   0  0  0  0  0  0  0  0  0  0  0  0
  141.5031   71.6401  221.6828 H   0  0  0  0  0  0  0  0  0  0  0  0
  139.9612   72.2016  220.9543 H   0  0  0  0  0  0  0  0  0  0  0  0
  138.7900   73.9740  223.0300 H   0  0  0  0  0  0  0  0  0  0  0  0
  141.1692   75.9916  219.6457 H   0  0  0  0  0  0  0  0  0  0  0  0
  141.9746   78.3440  219.4004 H   0  0  0  0  0  0  0  0  0  0  0  0
  142.4472   80.5370  220.4269 H   0  0  0  0  0  0  0  0  0  0  0  0
  142.5277   81.9850  222.4608 H   0  0  0  0  0  0  0  0  0  0  0  0
  141.9570   81.0356  224.6960 H   0  0  0  0  0  0  0  0  0  0  0  0
  141.2391   78.6541  224.9029 H   0  0  0  0  0  0  0  0  0  0  0  0
  1  2  1  0
  2  3  1  0
  2  4  1  0
  4  5  1  0
  5  6  1  0
  6  7  2  0
  6  8  1  0
  8  9  1  0
  9 10  2  0
 10 11  1  0
 10 12  1  0
 12 13  2  0
 13 14  1  0
 14 15  2  0
 15 16  1  0
 16 17  2  0
 17 18  1  0
 18 19  2  0
 19 20  1  0
 20 21  2  0
 21 12  1  0
 20 15  1  0
  1 22  1  0
  1 23  1  0
  1 24  1  0
  2 25  1  0
  3 26  1  0
  3 27  1  0
  3 28  1  0
  4 29  1  0
  4 30  1  0
  8 31  1  0
  8 32  1  0
 11 33  1  0
 13 34  1  0
 14 35  1  0
 16 36  1  0
 17 37  1  0
 18 38  1  0
 19 39  1  0
M  CHG  1   5  -1
M  END
>  <meeko>  (3) 
{"free_energy": -6.14, "intermolecular_energy": -8.52, "internal_energy": -1.16, "cluster_size": 9, "cluster_id": 2, "rank_in_cluster": 4}

$$$$

     RDKit          3D

 39 40  0  0  0  0  0  0  0  0999 V2000
  145.5030   71.9990  219.6480 C   0  0  0  0  0  0  0  0  0  0  0  0
  145.1030   72.8780  220.8410 C   0  0  0  0  0  0  0  0  0  0  0  0
  146.2990   73.7140  221.3100 C   0  0  0  0  0  0  0  0  0  0  0  0
  143.9180   73.7900  220.4910 C   0  0  0  0  0  0  0  0  0  0  0  0
  142.6680   73.0390  220.5030 N   0  0  0  0  0  0  0  0  0  0  0  0
  141.3880   73.6750  220.4410 C   0  0  0  0  0  0  0  0  0  0  0  0
  140.7370   73.6960  219.3600 O   0  0  0  0  0  0  0  0  0  0  0  0
  140.8380   74.3460  221.6540 C   0  0  0  0  0  0  0  0  0  0  0  0
  139.9040   73.4450  222.3240 N   0  0  0  0  0  0  0  0  0  0  0  0
  139.9980   72.1460  222.3790 C   0  0  0  0  0  0  0  0  0  0  0  0
  140.2180   71.4330  221.2050 O   0  0  0  0  0  0  0  0  0  0  0  0
  139.9020   71.3920  223.6400 C   0  0  0  0  0  0  0  0  0  0  0  0
  139.3820   70.0910  223.6630 C   0  0  0  0  0  0  0  0  0  0  0  0
  139.3760   69.3700  224.8560 C   0  0  0  0  0  0  0  0  0  0  0  0
  139.9260   69.9350  226.0120 C   0  0  0  0  0  0  0  0  0  0  0  0
  139.9720   69.2220  227.2180 C   0  0  0  0  0  0  0  0  0  0  0  0
  140.5510   69.8030  228.3510 C   0  0  0  0  0  0  0  0  0  0  0  0
  141.0720   71.0980  228.2870 C   0  0  0  0  0  0  0  0  0  0  0  0
  141.0340   71.8140  227.0860 C   0  0  0  0  0  0  0  0  0  0  0  0
  140.4680   71.2370  225.9450 C   0  0  0  0  0  0  0  0  0  0  0  0
  140.4450   71.9220  224.7710 N   0  0  0  0  0  0  0  0  0  0  0  0
  145.9324   71.0553  220.0155 H   0  0  0  0  0  0  0  0  0  0  0  0
  144.6141   71.7838  219.0367 H   0  0  0  0  0  0  0  0  0  0  0  0
  146.2491   72.5279  219.0367 H   0  0  0  0  0  0  0  0  0  0  0  0
  144.7876   72.2145  221.6597 H   0  0  0  0  0  0  0  0  0  0  0  0
  146.3250   73.7322  222.4095 H   0  0  0  0  0  0  0  0  0  0  0  0
  147.2297   73.2688  220.9285 H   0  0  0  0  0  0  0  0  0  0  0  0
  146.2006   74.7410  220.9285 H   0  0  0  0  0  0  0  0  0  0  0  0
  143.8578   74.6031  221.2294 H   0  0  0  0  0  0  0  0  0  0  0  0
  144.0739   74.2008  219.4826 H   0  0  0  0  0  0  0  0  0  0  0  0
  141.6608   74.5978  222.3392 H   0  0  0  0  0  0  0  0  0  0  0  0
  140.3135   75.2668  221.3591 H   0  0  0  0  0  0  0  0  0  0  0  0
  140.8690   71.7680  220.5030 H   0  0  0  0  0  0  0  0  0  0  0  0
  138.9802   69.6405  222.7434 H   0  0  0  0  0  0  0  0  0  0  0  0
  138.9404   68.3604  224.8886 H   0  0  0  0  0  0  0  0  0  0  0  0
  139.5531   68.2064  227.2733 H   0  0  0  0  0  0  0  0  0  0  0  0
  140.5963   69.2392  229.2945 H   0  0  0  0  0  0  0  0  0  0  0  0
  141.5136   71.5560  229.1843 H   0  0  0  0  0  0  0  0  0  0  0  0
  141.4495   72.8314  227.0391 H   0  0  0  0  0  0  0  0  0  0  0  0
  1  2  1  0
  2  3  1  0
  2  4  1  0
  4  5  1  0
  5  6  1  0
  6  7  2  0
  6  8  1  0
  8  9  1  0
  9 10  2  0
 10 11  1  0
 10 12  1  0
 12 13  2  0
 13 14  1  0
 14 15  2  0
 15 16  1  0
 16 17  2  0
 17 18  1  0
 18 19  2  0
 19 20  1  0
 20 21  2  0
 21 12  1  0
 20 15  1  0
  1 22  1  0
  1 23  1  0
  1 24  1  0
  2 25  1  0
  3 26  1  0
  3 27  1  0
  3 28  1  0
  4 29  1  0
  4 30  1  0
  8 31  1  0
  8 32  1  0
 11 33  1  0
 13 34  1  0
 14 35  1  0
 16 36  1  0
 17 37  1  0
 18 38  1  0
 19 39  1  0
M  CHG  1   5  -1
M  END
>  <meeko>  (4) 
{"free_energy": -5.45, "intermolecular_energy": -7.84, "internal_energy": -1.46, "cluster_size": 7, "cluster_id": 1, "rank_in_cluster": 7}

$$$$

     RDKit          3D

 39 40  0  0  0  0  0  0  0  0999 V2000
  145.5400   73.3820  220.8770 C   0  0  0  0  0  0  0  0  0  0  0  0
  144.0470   73.7340  220.8300 C   0  0  0  0  0  0  0  0  0  0  0  0
  143.8320   75.0310  220.0420 C   0  0  0  0  0  0  0  0  0  0  0  0
  143.2230   72.5930  220.2160 C   0  0  0  0  0  0  0  0  0  0  0  0
  142.3480   71.9930  221.2170 N   0  0  0  0  0  0  0  0  0  0  0  0
  141.0700   72.5430  221.5500 C   0  0  0  0  0  0  0  0  0  0  0  0
  140.7130   72.6460  222.7560 O   0  0  0  0  0  0  0  0  0  0  0  0
  140.1410   72.9630  220.4610 C   0  0  0  0  0  0  0  0  0  0  0  0
  140.0880   74.4210  220.4070 N   0  0  0  0  0  0  0  0  0  0  0  0
  140.0010   75.2240  221.4300 C   0  0  0  0  0  0  0  0  0  0  0  0
  139.2120   74.8550  222.5150 O   0  0  0  0  0  0  0  0  0  0  0  0
  140.7220   76.5060  221.5020 C   0  0  0  0  0  0  0  0  0  0  0  0
  141.1460   77.1600  220.3370 C   0  0  0  0  0  0  0  0  0  0  0  0
  141.7550   78.4100  220.4300 C   0  0  0  0  0  0  0  0  0  0  0  0
  141.9040   79.0200  221.6800 C   0  0  0  0  0  0  0  0  0  0  0  0
  142.4760   80.2930  221.8040 C   0  0  0  0  0  0  0  0  0  0  0  0
  142.5890   80.8890  223.0640 C   0  0  0  0  0  0  0  0  0  0  0  0
  142.1440   80.2120  224.2030 C   0  0  0  0  0  0  0  0  0  0  0  0
  141.5670   78.9430  224.0870 C   0  0  0  0  0  0  0  0  0  0  0  0
  141.4390   78.3450  222.8300 C   0  0  0  0  0  0  0  0  0  0  0  0
  140.8630   77.1190  222.7100 N   0  0  0  0  0  0  0  0  0  0  0  0
  145.8658   73.3052  221.9248 H   0  0  0  0  0  0  0  0  0  0  0  0
  145.7061   72.4201  220.3699 H   0  0  0  0  0  0  0  0  0  0  0  0
  146.1183   74.1684  220.3699 H   0  0  0  0  0  0  0  0  0  0  0  0
  143.7007   73.8817  221.8636 H   0  0  0  0  0  0  0  0  0  0  0  0
  143.6934   75.8673  220.7430 H   0  0  0  0  0  0  0  0  0  0  0  0
  144.7102   75.2251  219.4087 H   0  0  0  0  0  0  0  0  0  0  0  0
  142.9381   74.9314  219.4087 H   0  0  0  0  0  0  0  0  0  0  0  0
  142.6109   72.9916  219.3935 H   0  0  0  0  0  0  0  0  0  0  0  0
  143.9115   71.8219  219.8400 H   0  0  0  0  0  0  0  0  0  0  0  0
  140.5030   72.5726  219.4984 H   0  0  0  0  0  0  0  0  0  0  0  0
  139.1352   72.5650  220.6610 H   0  0  0  0  0  0  0  0  0  0  0  0
  139.4440   74.0450  223.0790 H   0  0  0  0  0  0  0  0  0  0  0  0
  140.9987   76.6888  219.3540 H   0  0  0  0  0  0  0  0  0  0  0  0
  142.1176   78.9156  219.5229 H   0  0  0  0  0  0  0  0  0  0  0  0
  142.8362   80.8236  220.9103 H   0  0  0  0  0  0  0  0  0  0  0  0
  143.0290   81.8927  223.1589 H   0  0  0  0  0  0  0  0  0  0  0  0
  142.2478   80.6786  225.1937 H   0  0  0  0  0  0  0  0  0  0  0  0
  141.2138   78.4154  224.9853 H   0  0  0  0  0  0  0  0  0  0  0  0
  1  2  1  0
  2  3  1  0
  2  4  1  0
  4  5  1  0
  5  6  1  0
  6  7  2  0
  6  8  1  0
  8  9  1  0
  9 10  2  0
 10 11  1  0
 10 12  1  0
 12 13  2  0
 13 14  1  0
 14 15  2  0
 15 16  1  0
 16 17  2  0
 17 18  1  0
 18 19  2  0
 19 20  1  0
 20 21  2  0
 21 12  1  0
 20 15  1  0
  1 22  1  0
  1 23  1  0
  1 24  1  0
  2 25  1  0
  3 26  1  0
  3 27  1  0
  3 28  1  0
  4 29  1  0
  4 30  1  0
  8 31  1  0
  8 32  1  0
 11 33  1  0
 13 34  1  0
 14 35  1  0
 16 36  1  0
 17 37  1  0
 18 38  1  0
 19 39  1  0
M  CHG  1   5  -1
M  END
>  <meeko>  (5) 
{"free_energy": -5.23, "intermolecular_energy": -7.62, "internal_energy": -1.73, "cluster_size": 9, "cluster_id": 2, "rank_in_cluster": 9}

$$$$

     RDKit          3D

 39 40  0  0  0  0  0  0  0  0999 V2000
  146.4840   73.3920  221.9100 C   0  0  0  0  0  0  0  0  0  0  0  0
  145.7370   73.4960  220.5740 C   0  0  0  0  0  0  0  0  0  0  0  0
  145.9380   72.2170  219.7520 C   0  0  0  0  0  0  0  0  0  0  0  0
  144.2400   73.7620  220.7890 C   0  0  0  0  0  0  0  0  0  0  0  0
  143.4580   72.5620  220.5130 N   0  0  0  0  0  0  0  0  0  0  0  0
  142.0280   72.5670  220.4780 C   0  0  0  0  0  0  0  0  0  0  0  0
  141.4000   71.6440  219.8920 O   0  0  0  0  0  0  0  0  0  0  0  0
  141.2780   73.6910  221.1110 C   0  0  0  0  0  0  0  0  0  0  0  0
  140.6670   73.2260  222.3530 N   0  0  0  0  0  0  0  0  0  0  0  0
  139.9240   72.1640  222.4920 C   0  0  0  0  0  0  0  0  0  0  0  0
  139.1070   71.7680  221.4370 O   0  0  0  0  0  0  0  0  0  0  0  0
  139.9220   71.3450  223.7150 C   0  0  0  0  0  0  0  0  0  0  0  0
  139.5280   70.0010  223.6810 C   0  0  0  0  0  0  0  0  0  0  0  0
  139.6120   69.2260  224.8370 C   0  0  0  0  0  0  0  0  0  0  0  0
  140.1260   69.7850  226.0120 C   0  0  0  0  0  0  0  0  0  0  0  0
  140.2600   69.0240  227.1800 C   0  0  0  0  0  0  0  0  0  0  0  0
  140.8010   69.6020  228.3340 C   0  0  0  0  0  0  0  0  0  0  0  0
  141.1950   70.9430  228.3270 C   0  0  0  0  0  0  0  0  0  0  0  0
  141.0690   71.7090  227.1630 C   0  0  0  0  0  0  0  0  0  0  0  0
  140.5400   71.1350  226.0030 C   0  0  0  0  0  0  0  0  0  0  0  0
  140.4320   71.8700  224.8640 N   0  0  0  0  0  0  0  0  0  0  0  0
  145.7680   73.4917  222.7391 H   0  0  0  0  0  0  0  0  0  0  0  0
  146.9859   72.4153  221.9744 H   0  0  0  0  0  0  0  0  0  0  0  0
  147.2336   74.1944  221.9744 H   0  0  0  0  0  0  0  0  0  0  0  0
  146.1547   74.3485  220.0184 H   0  0  0  0  0  0  0  0  0  0  0  0
  146.0724   71.3621  220.4310 H   0  0  0  0  0  0  0  0  0  0  0  0
  145.0557   72.0463  219.1177 H   0  0  0  0  0  0  0  0  0  0  0  0
  146.8302   72.3252  219.1177 H   0  0  0  0  0  0  0  0  0  0  0  0
  144.0740   74.0691  221.8321 H   0  0  0  0  0  0  0  0  0  0  0  0
  143.9201   74.5585  220.1010 H   0  0  0  0  0  0  0  0  0  0  0  0
  141.9703   74.5175  221.3292 H   0  0  0  0  0  0  0  0  0  0  0  0
  140.4939   74.0430  220.4244 H   0  0  0  0  0  0  0  0  0  0  0  0
  139.5020   71.5060  220.5400 H   0  0  0  0  0  0  0  0  0  0  0  0
  139.1538   69.5588  222.7459 H   0  0  0  0  0  0  0  0  0  0  0  0
  139.2753   68.1788  224.8252 H   0  0  0  0  0  0  0  0  0  0  0  0
  139.9399   67.9717  227.1903 H   0  0  0  0  0  0  0  0  0  0  0  0
  140.9163   69.0003  229.2476 H   0  0  0  0  0  0  0  0  0  0  0  0
  141.6058   71.3980  229.2403 H   0  0  0  0  0  0  0  0  0  0  0  0
  141.3860   72.7623  227.1605 H   0  0  0  0  0  0  0  0  0  0  0  0
  1  2  1  0
  2  3  1  0
  2  4  1  0
  4  5  1  0
  5  6  1  0
  6  7  2  0
  6  8  1  0
  8  9  1  0
  9 10  2  0
 10 11  1  0
 10 12  1  0
 12 13  2  0
 13 14  1  0
 14 15  2  0
 15 16  1  0
 16 17  2  0
 17 18  1  0
 18 19  2  0
 19 20  1  0
 20 21  2  0
 21 12  1  0
 20 15  1  0
  1 22  1  0
  1 23  1  0
  1 24  1  0
  2 25  1  0
  3 26  1  0
  3 27  1  0
  3 28  1  0
  4 29  1  0
  4 30  1  0
  8 31  1  0
  8 32  1  0
 11 33  1  0
 13 34  1  0
 14 35  1  0
 16 36  1  0
 17 37  1  0
 18 38  1  0
 19 39  1  0
M  CHG  1   5  -1
M  END
>  <meeko>  (6) 
{"free_energy": -5.6, "intermolecular_energy": -7.98, "internal_energy": -1.27, "cluster_size": 7, "cluster_id": 1, "rank_in_cluster": 4}

$$$$

     RDKit          3D

 39 40  0  0  0  0  0  0  0  0999 V2000
  144.8620   71.9190  219.7160 C   0  0  0  0  0  0  0  0  0  0  0  0
  144.7220   72.9710  220.8240 C   0  0  0  0  0  0  0  0  0  0  0  0
  146.1040   73.4740  221.2560 C   0  0  0  0  0  0  0  0  0  0  0  0
  143.8430   74.1470  220.3720 C   0  0  0  0  0  0  0  0  0  0  0  0
  142.4300   73.8170  220.5120 N   0  0  0  0  0  0  0  0  0  0  0  0
  141.4460   74.7900  220.8750 C   0  0  0  0  0  0  0  0  0  0  0  0
  141.7620   76.0060  220.9930 O   0  0  0  0  0  0  0  0  0  0  0  0
  140.0450   74.3560  221.1500 C   0  0  0  0  0  0  0  0  0  0  0  0
  140.0210   73.5340  222.3560 N   0  0  0  0  0  0  0  0  0  0  0  0
  140.4190   72.2960  222.4490 C   0  0  0  0  0  0  0  0  0  0  0  0
  141.1080   71.7250  221.3830 O   0  0  0  0  0  0  0  0  0  0  0  0
  140.1900   71.4720  223.6470 C   0  0  0  0  0  0  0  0  0  0  0  0
  139.5920   70.2090  223.5490 C   0  0  0  0  0  0  0  0  0  0  0  0
  139.4600   69.4160  224.6880 C   0  0  0  0  0  0  0  0  0  0  0  0
  139.9610   69.8700  225.9130 C   0  0  0  0  0  0  0  0  0  0  0  0
  139.8790   69.0820  227.0690 C   0  0  0  0  0  0  0  0  0  0  0  0
  140.4110   69.5520  228.2740 C   0  0  0  0  0  0  0  0  0  0  0  0
  141.0120   70.8120  228.3320 C   0  0  0  0  0  0  0  0  0  0  0  0
  141.1010   71.6030  227.1820 C   0  0  0  0  0  0  0  0  0  0  0  0
  140.5830   71.1360  225.9700 C   0  0  0  0  0  0  0  0  0  0  0  0
  140.6840   71.8940  224.8450 N   0  0  0  0  0  0  0  0  0  0  0  0
  144.9943   70.9252  220.1686 H   0  0  0  0  0  0  0  0  0  0  0  0
  143.9558   71.9203  219.0925 H   0  0  0  0  0  0  0  0  0  0  0  0
  145.7364   72.1573  219.0925 H   0  0  0  0  0  0  0  0  0  0  0  0
  144.2296   72.4934  221.6839 H   0  0  0  0  0  0  0  0  0  0  0  0
  146.1599   73.4944  222.3544 H   0  0  0  0  0  0  0  0  0  0  0  0
  146.8791   72.8003  220.8618 H   0  0  0  0  0  0  0  0  0  0  0  0
  146.2647   74.4883  220.8618 H   0  0  0  0  0  0  0  0  0  0  0  0
  144.0714   75.0273  220.9907 H   0  0  0  0  0  0  0  0  0  0  0  0
  144.0535   74.3598  219.3135 H   0  0  0  0  0  0  0  0  0  0  0  0
  139.4084   75.2411  221.2962 H   0  0  0  0  0  0  0  0  0  0  0  0
  139.6673   73.7710  220.2985 H   0  0  0  0  0  0  0  0  0  0  0  0
  141.7510   72.2730  220.8220 H   0  0  0  0  0  0  0  0  0  0  0  0
  139.2280   69.8444  222.5771 H   0  0  0  0  0  0  0  0  0  0  0  0
  138.9636   68.4365  224.6239 H   0  0  0  0  0  0  0  0  0  0  0  0
  139.3964   68.0943  227.0286 H   0  0  0  0  0  0  0  0  0  0  0  0
  140.3561   68.9282  229.1783 H   0  0  0  0  0  0  0  0  0  0  0  0
  141.4165   71.1831  229.2853 H   0  0  0  0  0  0  0  0  0  0  0  0
  141.5786   72.5927  227.2310 H   0  0  0  0  0  0  0  0  0  0  0  0
  1  2  1  0
  2  3  1  0
  2  4  1  0
  4  5  1  0
  5  6  1  0
  6  7  2  0
  6  8  1  0
  8  9  1  0
  9 10  2  0
 10 11  1  0
 10 12  1  0
 12 13  2  0
 13 14  1  0
 14 15  2  0
 15 16  1  0
 16 17  2  0
 17 18  1  0
 18 19  2  0
 19 20  1  0
 20 21  2  0
 21 12  1  0
 20 15  1  0
  1 22  1  0
  1 23  1  0
  1 24  1  0
  2 25  1  0
  3 26  1  0
  3 27  1  0
  3 28  1  0
  4 29  1  0
  4 30  1  0
  8 31  1  0
  8 32  1  0
 11 33  1  0
 13 34  1  0
 14 35  1  0
 16 36  1  0
 17 37  1  0
 18 38  1  0
 19 39  1  0
M  CHG  1   5  -1
M  END
>  <meeko>  (7) 
{"free_energy": -5.6, "intermolecular_energy": -7.98, "internal_energy": -1.46, "cluster_size": 7, "cluster_id": 1, "rank_in_cluster": 3}

$$$$

     RDKit          3D

 39 40  0  0  0  0  0  0  0  0999 V2000
  146.3170   73.7530  220.7420 C   0  0  0  0  0  0  0  0  0  0  0  0
  144.7860   73.7150  220.8460 C   0  0  0  0  0  0  0  0  0  0  0  0
  144.1730   74.9010  220.0900 C   0  0  0  0  0  0  0  0  0  0  0  0
  144.2210   72.3910  220.3090 C   0  0  0  0  0  0  0  0  0  0  0  0
  142.9620   72.0650  220.9670 N   0  0  0  0  0  0  0  0  0  0  0  0
  141.7040   72.5770  220.5180 C   0  0  0  0  0  0  0  0  0  0  0  0
  141.1230   72.0630  219.5230 O   0  0  0  0  0  0  0  0  0  0  0  0
  141.0940   73.7480  221.2120 C   0  0  0  0  0  0  0  0  0  0  0  0
  140.3060   73.2800  222.3490 N   0  0  0  0  0  0  0  0  0  0  0  0
  139.7360   72.1140  222.4590 C   0  0  0  0  0  0  0  0  0  0  0  0
  139.0860   71.5710  221.3540 O   0  0  0  0  0  0  0  0  0  0  0  0
  139.7640   71.3250  223.7020 C   0  0  0  0  0  0  0  0  0  0  0  0
  139.3310   69.9930  223.7200 C   0  0  0  0  0  0  0  0  0  0  0  0
  139.4440   69.2450  224.8910 C   0  0  0  0  0  0  0  0  0  0  0  0
  140.0240   69.8170  226.0280 C   0  0  0  0  0  0  0  0  0  0  0  0
  140.1870   69.0810  227.2090 C   0  0  0  0  0  0  0  0  0  0  0  0
  140.7940   69.6720  228.3220 C   0  0  0  0  0  0  0  0  0  0  0  0
  141.2250   71.0000  228.2640 C   0  0  0  0  0  0  0  0  0  0  0  0
  141.0690   71.7400  227.0880 C   0  0  0  0  0  0  0  0  0  0  0  0
  140.4750   71.1540  225.9660 C   0  0  0  0  0  0  0  0  0  0  0  0
  140.3380   71.8630  224.8140 N   0  0  0  0  0  0  0  0  0  0  0  0
  146.7529   73.7638  221.7519 H   0  0  0  0  0  0  0  0  0  0  0  0
  146.6699   72.8633  220.1998 H   0  0  0  0  0  0  0  0  0  0  0  0
  146.6253   74.6591  220.1998 H   0  0  0  0  0  0  0  0  0  0  0  0
  144.5170   73.7898  221.9100 H   0  0  0  0  0  0  0  0  0  0  0  0
  143.7919   75.6384  220.8118 H   0  0  0  0  0  0  0  0  0  0  0  0
  144.9417   75.3698  219.4581 H   0  0  0  0  0  0  0  0  0  0  0  0
  143.3460   74.5451  219.4581 H   0  0  0  0  0  0  0  0  0  0  0  0
  144.0494   72.4840  219.2265 H   0  0  0  0  0  0  0  0  0  0  0  0
  144.9452   71.5884  220.5125 H   0  0  0  0  0  0  0  0  0  0  0  0
  141.8895   74.4192  221.5679 H   0  0  0  0  0  0  0  0  0  0  0  0
  140.4429   74.2923  220.5122 H   0  0  0  0  0  0  0  0  0  0  0  0
  139.5700   71.4440  220.4720 H   0  0  0  0  0  0  0  0  0  0  0  0
  138.9035   69.5390  222.8138 H   0  0  0  0  0  0  0  0  0  0  0  0
  139.0781   68.2081  224.9207 H   0  0  0  0  0  0  0  0  0  0  0  0
  139.8379   68.0392  227.2609 H   0  0  0  0  0  0  0  0  0  0  0  0
  140.9324   69.0900  229.2451 H   0  0  0  0  0  0  0  0  0  0  0  0
  141.6886   71.4648  229.1466 H   0  0  0  0  0  0  0  0  0  0  0  0
  141.4137   72.7837  227.0454 H   0  0  0  0  0  0  0  0  0  0  0  0
  1  2  1  0
  2  3  1  0
  2  4  1  0
  4  5  1  0
  5  6  1  0
  6  7  2  0
  6  8  1  0
  8  9  1  0
  9 10  2  0
 10 11  1  0
 10 12  1  0
 12 13  2  0
 13 14  1  0
 14 15  2  0
 15 16  1  0
 16 17  2  0
 17 18  1  0
 18 19  2  0
 19 20  1  0
 20 21  2  0
 21 12  1  0
 20 15  1  0
  1 22  1  0
  1 23  1  0
  1 24  1  0
  2 25  1  0
  3 26  1  0
  3 27  1  0
  3 28  1  0
  4 29  1  0
  4 30  1  0
  8 31  1  0
  8 32  1  0
 11 33  1  0
 13 34  1  0
 14 35  1  0
 16 36  1  0
 17 37  1  0
 18 38  1  0
 19 39  1  0
M  CHG  1   5  -1
M  END
>  <meeko>  (8) 
{"free_energy": -5.47, "intermolecular_energy": -7.86, "internal_energy": -1.35, "cluster_size": 7, "cluster_id": 1, "rank_in_cluster": 6}

$$$$

     RDKit          3D

 39 40  0  0  0  0  0  0  0  0999 V2000
  141.1040   78.2890  222.6950 C   0  0  0  0  0  0  0  0  0  0  0  0
  140.1640   77.0760  222.6540 C   0  0  0  0  0  0  0  0  0  0  0  0
  138.7020   77.5380  222.6510 C   0  0  0  0  0  0  0  0  0  0  0  0
  140.4470   76.1900  221.4320 C   0  0  0  0  0  0  0  0  0  0  0  0
  140.5940   74.7950  221.8310 N   0  0  0  0  0  0  0  0  0  0  0  0
  141.4510   73.8830  221.1370 C   0  0  0  0  0  0  0  0  0  0  0  0
  142.6960   74.0820  221.0960 O   0  0  0  0  0  0  0  0  0  0  0  0
  140.8620   72.7090  220.4300 C   0  0  0  0  0  0  0  0  0  0  0  0
  140.4090   71.7290  221.4140 N   0  0  0  0  0  0  0  0  0  0  0  0
  139.6490   71.9720  222.4440 C   0  0  0  0  0  0  0  0  0  0  0  0
  138.6830   72.9690  222.3530 O   0  0  0  0  0  0  0  0  0  0  0  0
  139.7490   71.2190  223.7050 C   0  0  0  0  0  0  0  0  0  0  0  0
  139.4060   69.8610  223.7630 C   0  0  0  0  0  0  0  0  0  0  0  0
  139.5860   69.1530  224.9500 C   0  0  0  0  0  0  0  0  0  0  0  0
  140.1450   69.7910  226.0620 C   0  0  0  0  0  0  0  0  0  0  0  0
  140.3750   69.0970  227.2580 C   0  0  0  0  0  0  0  0  0  0  0  0
  140.9590   69.7550  228.3460 C   0  0  0  0  0  0  0  0  0  0  0  0
  141.3000   71.1060  228.2480 C   0  0  0  0  0  0  0  0  0  0  0  0
  141.0780   71.8050  227.0560 C   0  0  0  0  0  0  0  0  0  0  0  0
  140.5060   71.1520  225.9600 C   0  0  0  0  0  0  0  0  0  0  0  0
  140.3040   71.8220  224.7940 N   0  0  0  0  0  0  0  0  0  0  0  0
  141.3116   78.5568  223.7415 H   0  0  0  0  0  0  0  0  0  0  0  0
  142.0469   78.0395  222.1864 H   0  0  0  0  0  0  0  0  0  0  0  0
  140.6271   79.1398  222.1864 H   0  0  0  0  0  0  0  0  0  0  0  0
  140.3476   76.4739  223.5561 H   0  0  0  0  0  0  0  0  0  0  0  0
  138.3504   77.6491  223.6874 H   0  0  0  0  0  0  0  0  0  0  0  0
  138.6240   78.5046  222.1317 H   0  0  0  0  0  0  0  0  0  0  0  0
  138.0827   76.7918  222.1317 H   0  0  0  0  0  0  0  0  0  0  0  0
  139.6115   76.2765  220.7217 H   0  0  0  0  0  0  0  0  0  0  0  0
  141.3834   76.5243  220.9615 H   0  0  0  0  0  0  0  0  0  0  0  0
  140.0081   73.0383  219.8197 H   0  0  0  0  0  0  0  0  0  0  0  0
  141.6218   72.2524  219.7787 H   0  0  0  0  0  0  0  0  0  0  0  0
  138.8500   73.8950  222.7330 H   0  0  0  0  0  0  0  0  0  0  0  0
  138.9966   69.3563  222.8755 H   0  0  0  0  0  0  0  0  0  0  0  0
  139.2893   68.0956  225.0120 H   0  0  0  0  0  0  0  0  0  0  0  0
  140.0966   68.0361  227.3411 H   0  0  0  0  0  0  0  0  0  0  0  0
  141.1500   69.2072  229.2806 H   0  0  0  0  0  0  0  0  0  0  0  0
  141.7449   71.6227  229.1112 H   0  0  0  0  0  0  0  0  0  0  0  0
  141.3533   72.8674  226.9815 H   0  0  0  0  0  0  0  0  0  0  0  0
  1  2  1  0
  2  3  1  0
  2  4  1  0
  4  5  1  0
  5  6  1  0
  6  7  2  0
  6  8  1  0
  8  9  1  0
  9 10  2  0
 10 11  1  0
 10 12  1  0
 12 13  2  0
 13 14  1  0
 14 15  2  0
 15 16  1  0
 16 17  2  0
 17 18  1  0
 18 19  2  0
 19 20  1  0
 20 21  2  0
 21 12  1  0
 20 15  1  0
  1 22  1  0
  1 23  1  0
  1 24  1  0
  2 25  1  0
  3 26  1  0
  3 27  1  0
  3 28  1  0
  4 29  1  0
  4 30  1  0
  8 31  1  0
  8 32  1  0
 11 33  1  0
 13 34  1  0
 14 35  1  0
 16 36  1  0
 17 37  1  0
 18 38  1  0
 19 39  1  0
M  CHG  1   5  -1
M  END
>  <meeko>  (9) 
{"free_energy": -5.49, "intermolecular_energy": -7.88, "internal_energy": -1.3, "cluster_size": 3, "cluster_id": 3, "rank_in_cluster": 2}

$$$$

     RDKit          3D

 39 40  0  0  0  0  0  0  0  0999 V2000
  138.2580   76.0680  222.5980 C   0  0  0  0  0  0  0  0  0  0  0  0
  139.4690   76.7550  221.9540 C   0  0  0  0  0  0  0  0  0  0  0  0
  139.7750   78.0750  222.6720 C   0  0  0  0  0  0  0  0  0  0  0  0
  140.7030   75.8410  221.9680 C   0  0  0  0  0  0  0  0  0  0  0  0
  140.3050   74.4380  222.0030 N   0  0  0  0  0  0  0  0  0  0  0  0
  141.0020   73.4230  221.2740 C   0  0  0  0  0  0  0  0  0  0  0  0
  142.2620   73.4290  221.2160 O   0  0  0  0  0  0  0  0  0  0  0  0
  140.2290   72.3730  220.5500 C   0  0  0  0  0  0  0  0  0  0  0  0
  139.7630   71.3710  221.5040 N   0  0  0  0  0  0  0  0  0  0  0  0
  139.1370   71.6100  222.6220 C   0  0  0  0  0  0  0  0  0  0  0  0
  138.1980   72.6360  222.6660 O   0  0  0  0  0  0  0  0  0  0  0  0
  139.3630   70.8240  223.8470 C   0  0  0  0  0  0  0  0  0  0  0  0
  139.1690   69.4360  223.8580 C   0  0  0  0  0  0  0  0  0  0  0  0
  139.4670   68.7060  225.0070 C   0  0  0  0  0  0  0  0  0  0  0  0
  139.9930   69.3570  226.1270 C   0  0  0  0  0  0  0  0  0  0  0  0
  140.3390   68.6470  227.2850 C   0  0  0  0  0  0  0  0  0  0  0  0
  140.8870   69.3220  228.3810 C   0  0  0  0  0  0  0  0  0  0  0  0
  141.0770   70.7050  228.3300 C   0  0  0  0  0  0  0  0  0  0  0  0
  140.7390   71.4210  227.1760 C   0  0  0  0  0  0  0  0  0  0  0  0
  140.2020   70.7530  226.0710 C   0  0  0  0  0  0  0  0  0  0  0  0
  139.8880   71.4410  224.9420 N   0  0  0  0  0  0  0  0  0  0  0  0
  138.3472   76.1186  223.6932 H   0  0  0  0  0  0  0  0  0  0  0  0
  137.3360   76.5776  222.2813 H   0  0  0  0  0  0  0  0  0  0  0  0
  138.2224   75.0152  222.2813 H   0  0  0  0  0  0  0  0  0  0  0  0
  139.2190   76.9682  220.9042 H   0  0  0  0  0  0  0  0  0  0  0  0
  139.7385   77.9176  223.7601 H   0  0  0  0  0  0  0  0  0  0  0  0
  140.7779   78.4243  222.3855 H   0  0  0  0  0  0  0  0  0  0  0  0
  139.0280   78.8300  222.3855 H   0  0  0  0  0  0  0  0  0  0  0  0
  141.2988   76.0248  221.0618 H   0  0  0  0  0  0  0  0  0  0  0  0
  141.2971   76.0626  222.8668 H   0  0  0  0  0  0  0  0  0  0  0  0
  139.3645   72.8332  220.0492 H   0  0  0  0  0  0  0  0  0  0  0  0
  140.8739   71.8938  219.7987 H   0  0  0  0  0  0  0  0  0  0  0  0
  138.4830   73.6000  222.7990 H   0  0  0  0  0  0  0  0  0  0  0  0
  138.7832   68.9251  222.9635 H   0  0  0  0  0  0  0  0  0  0  0  0
  139.2889   67.6208  225.0328 H   0  0  0  0  0  0  0  0  0  0  0  0
  140.1797   67.5596  227.3320 H   0  0  0  0  0  0  0  0  0  0  0  0
  141.1689   68.7624  229.2851 H   0  0  0  0  0  0  0  0  0  0  0  0
  141.4938   71.2333  229.2002 H   0  0  0  0  0  0  0  0  0  0  0  0
  140.8957   72.5091  227.1381 H   0  0  0  0  0  0  0  0  0  0  0  0
  1  2  1  0
  2  3  1  0
  2  4  1  0
  4  5  1  0
  5  6  1  0
  6  7  2  0
  6  8  1  0
  8  9  1  0
  9 10  2  0
 10 11  1  0
 10 12  1  0
 12 13  2  0
 13 14  1  0
 14 15  2  0
 15 16  1  0
 16 17  2  0
 17 18  1  0
 18 19  2  0
 19 20  1  0
 20 21  2  0
 21 12  1  0
 20 15  1  0
  1 22  1  0
  1 23  1  0
  1 24  1  0
  2 25  1  0
  3 26  1  0
  3 27  1  0
  3 28  1  0
  4 29  1  0
  4 30  1  0
  8 31  1  0
  8 32  1  0
 11 33  1  0
 13 34  1  0
 14 35  1  0
 16 36  1  0
 17 37  1  0
 18 38  1  0
 19 39  1  0
M  CHG  1   5  -1
M  END
>  <meeko>  (10) 
{"free_energy": -5.47, "intermolecular_energy": -7.86, "internal_energy": -1.45, "cluster_size": 3, "cluster_id": 3, "rank_in_cluster": 3}

$$$$

     RDKit          3D

 39 40  0  0  0  0  0  0  0  0999 V2000
  141.4170   77.4630  220.7690 C   0  0  0  0  0  0  0  0  0  0  0  0
  141.0560   77.0890  222.2130 C   0  0  0  0  0  0  0  0  0  0  0  0
  140.9760   78.3490  223.0830 C   0  0  0  0  0  0  0  0  0  0  0  0
  139.7330   76.3120  222.2760 C   0  0  0  0  0  0  0  0  0  0  0  0
  139.9810   74.8750  222.2870 N   0  0  0  0  0  0  0  0  0  0  0  0
  140.4890   74.1730  221.1480 C   0  0  0  0  0  0  0  0  0  0  0  0
  140.2560   74.5950  219.9820 O   0  0  0  0  0  0  0  0  0  0  0  0
  141.2690   72.9170  221.3430 C   0  0  0  0  0  0  0  0  0  0  0  0
  140.3550   71.8240  221.6610 N   0  0  0  0  0  0  0  0  0  0  0  0
  139.4490   71.8300  222.5990 C   0  0  0  0  0  0  0  0  0  0  0  0
  138.3260   72.6380  222.4490 O   0  0  0  0  0  0  0  0  0  0  0  0
  139.5490   71.0000  223.8110 C   0  0  0  0  0  0  0  0  0  0  0  0
  139.2160   69.6390  223.7800 C   0  0  0  0  0  0  0  0  0  0  0  0
  139.3960   68.8580  224.9210 C   0  0  0  0  0  0  0  0  0  0  0  0
  139.9430   69.4290  226.0750 C   0  0  0  0  0  0  0  0  0  0  0  0
  140.1730   68.6630  227.2260 C   0  0  0  0  0  0  0  0  0  0  0  0
  140.7450   69.2550  228.3560 C   0  0  0  0  0  0  0  0  0  0  0  0
  141.0760   70.6130  228.3460 C   0  0  0  0  0  0  0  0  0  0  0  0
  140.8540   71.3830  227.2000 C   0  0  0  0  0  0  0  0  0  0  0  0
  140.2940   70.7970  226.0610 C   0  0  0  0  0  0  0  0  0  0  0  0
  140.0920   71.5370  224.9380 N   0  0  0  0  0  0  0  0  0  0  0  0
  142.1809   78.2544  220.7753 H   0  0  0  0  0  0  0  0  0  0  0  0
  141.8106   76.5776  220.2484 H   0  0  0  0  0  0  0  0  0  0  0  0
  140.5182   77.8251  220.2484 H   0  0  0  0  0  0  0  0  0  0  0  0
  141.8499   76.4344  222.6020 H   0  0  0  0  0  0  0  0  0  0  0  0
  140.9942   78.0630  224.1450 H   0  0  0  0  0  0  0  0  0  0  0  0
  141.8346   79.0009  222.8641 H   0  0  0  0  0  0  0  0  0  0  0  0
  140.0419   78.8870  222.8641 H   0  0  0  0  0  0  0  0  0  0  0  0
  139.1925   76.5925  223.1921 H   0  0  0  0  0  0  0  0  0  0  0  0
  139.1331   76.5613  221.3883 H   0  0  0  0  0  0  0  0  0  0  0  0
  141.8187   72.6792  220.4204 H   0  0  0  0  0  0  0  0  0  0  0  0
  141.9827   73.0518  222.1691 H   0  0  0  0  0  0  0  0  0  0  0  0
  138.3290   73.6020  222.7650 H   0  0  0  0  0  0  0  0  0  0  0  0
  138.8146   69.1891  222.8600 H   0  0  0  0  0  0  0  0  0  0  0  0
  139.1088   67.7962  224.9137 H   0  0  0  0  0  0  0  0  0  0  0  0
  139.9036   67.5966  227.2402 H   0  0  0  0  0  0  0  0  0  0  0  0
  140.9350   68.6506  229.2552 H   0  0  0  0  0  0  0  0  0  0  0  0
  141.5125   71.0775  229.2425 H   0  0  0  0  0  0  0  0  0  0  0  0
  141.1201   72.4503  227.1948 H   0  0  0  0  0  0  0  0  0  0  0  0
  1  2  1  0
  2  3  1  0
  2  4  1  0
  4  5  1  0
  5  6  1  0
  6  7  2  0
  6  8  1  0
  8  9  1  0
  9 10  2  0
 10 11  1  0
 10 12  1  0
 12 13  2  0
 13 14  1  0
 14 15  2  0
 15 16  1  0
 16 17  2  0
 17 18  1  0
 18 19  2  0
 19 20  1  0
 20 21  2  0
 21 12  1  0
 20 15  1  0
  1 22  1  0
  1 23  1  0
  1 24  1  0
  2 25  1  0
  3 26  1  0
  3 27  1  0
  3 28  1  0
  4 29  1  0
  4 30  1  0
  8 31  1  0
  8 32  1  0
 11 33  1  0
 13 34  1  0
 14 35  1  0
 16 36  1  0
 17 37  1  0
 18 38  1  0
 19 39  1  0
M  CHG  1   5  -1
M  END
>  <meeko>  (11) 
{"free_energy": -5.65, "intermolecular_energy": -8.04, "internal_energy": -1.34, "cluster_size": 3, "cluster_id": 3, "rank_in_cluster": 1}

$$$$

     RDKit          3D

 39 40  0  0  0  0  0  0  0  0999 V2000
  146.0710   73.3760  221.5940 C   0  0  0  0  0  0  0  0  0  0  0  0
  145.0410   73.5750  220.4750 C   0  0  0  0  0  0  0  0  0  0  0  0
  145.5770   73.0110  219.1540 C   0  0  0  0  0  0  0  0  0  0  0  0
  143.6970   72.9210  220.8280 C   0  0  0  0  0  0  0  0  0  0  0  0
  142.6300   73.9140  220.8490 N   0  0  0  0  0  0  0  0  0  0  0  0
  141.2710   73.5780  221.1460 C   0  0  0  0  0  0  0  0  0  0  0  0
  140.6260   74.2310  222.0120 O   0  0  0  0  0  0  0  0  0  0  0  0
  140.6270   72.4260  220.4520 C   0  0  0  0  0  0  0  0  0  0  0  0
  140.1970   71.4430  221.4420 N   0  0  0  0  0  0  0  0  0  0  0  0
  139.4490   71.6800  222.4830 C   0  0  0  0  0  0  0  0  0  0  0  0
  138.4930   72.6880  222.4140 O   0  0  0  0  0  0  0  0  0  0  0  0
  139.5540   70.9090  223.7330 C   0  0  0  0  0  0  0  0  0  0  0  0
  139.2560   69.5410  223.7630 C   0  0  0  0  0  0  0  0  0  0  0  0
  139.4410   68.8190  224.9410 C   0  0  0  0  0  0  0  0  0  0  0  0
  139.9590   69.4560  226.0730 C   0  0  0  0  0  0  0  0  0  0  0  0
  140.1940   68.7510  227.2610 C   0  0  0  0  0  0  0  0  0  0  0  0
  140.7370   69.4090  228.3690 C   0  0  0  0  0  0  0  0  0  0  0  0
  141.0340   70.7730  228.2990 C   0  0  0  0  0  0  0  0  0  0  0  0
  140.8070   71.4830  227.1160 C   0  0  0  0  0  0  0  0  0  0  0  0
  140.2760   70.8300  225.9990 C   0  0  0  0  0  0  0  0  0  0  0  0
  140.0700   71.5120  224.8410 N   0  0  0  0  0  0  0  0  0  0  0  0
  145.5744   73.4720  222.5708 H   0  0  0  0  0  0  0  0  0  0  0  0
  146.5183   72.3748  221.5068 H   0  0  0  0  0  0  0  0  0  0  0  0
  146.8590   74.1385  221.5068 H   0  0  0  0  0  0  0  0  0  0  0  0
  144.8701   74.6556  220.3606 H   0  0  0  0  0  0  0  0  0  0  0  0
  146.3208   72.2284  219.3644 H   0  0  0  0  0  0  0  0  0  0  0  0
  144.7464   72.5813  218.5749 H   0  0  0  0  0  0  0  0  0  0  0  0
  146.0484   73.8187  218.5749 H   0  0  0  0  0  0  0  0  0  0  0  0
  143.4608   72.1531  220.0766 H   0  0  0  0  0  0  0  0  0  0  0  0
  143.7766   72.4665  221.8266 H   0  0  0  0  0  0  0  0  0  0  0  0
  139.7544   72.7808  219.8840 H   0  0  0  0  0  0  0  0  0  0  0  0
  141.3480   71.9624  219.7626 H   0  0  0  0  0  0  0  0  0  0  0  0
  138.6910   73.6220  222.7580 H   0  0  0  0  0  0  0  0  0  0  0  0
  138.8775   69.0383  222.8608 H   0  0  0  0  0  0  0  0  0  0  0  0
  139.1802   67.7511  224.9800 H   0  0  0  0  0  0  0  0  0  0  0  0
  139.9513   67.6798  227.3220 H   0  0  0  0  0  0  0  0  0  0  0  0
  140.9308   68.8520  229.2976 H   0  0  0  0  0  0  0  0  0  0  0  0
  141.4477   71.2897  229.1776 H   0  0  0  0  0  0  0  0  0  0  0  0
  141.0461   72.5554  227.0638 H   0  0  0  0  0  0  0  0  0  0  0  0
  1  2  1  0
  2  3  1  0
  2  4  1  0
  4  5  1  0
  5  6  1  0
  6  7  2  0
  6  8  1  0
  8  9  1  0
  9 10  2  0
 10 11  1  0
 10 12  1  0
 12 13  2  0
 13 14  1  0
 14 15  2  0
 15 16  1  0
 16 17  2  0
 17 18  1  0
 18 19  2  0
 19 20  1  0
 20 21  2  0
 21 12  1  0
 20 15  1  0
  1 22  1  0
  1 23  1  0
  1 24  1  0
  2 25  1  0
  3 26  1  0
  3 27  1  0
  3 28  1  0
  4 29  1  0
  4 30  1  0
  8 31  1  0
  8 32  1  0
 11 33  1  0
 13 34  1  0
 14 35  1  0
 16 36  1  0
 17 37  1  0
 18 38  1  0
 19 39  1  0
M  CHG  1   5  -1
M  END
>  <meeko>  (12) 
{"free_energy": -6.06, "intermolecular_energy": -8.45, "internal_energy": -1.18, "cluster_size": 7, "cluster_id": 1, "rank_in_cluster": 2}

$$$$

     RDKit          3D

 39 40  0  0  0  0  0  0  0  0999 V2000
  141.0700   71.9370  227.6140 C   0  0  0  0  0  0  0  0  0  0  0  0
  141.1570   71.0470  226.3670 C   0  0  0  0  0  0  0  0  0  0  0  0
  141.0190   69.5710  226.7580 C   0  0  0  0  0  0  0  0  0  0  0  0
  140.0880   71.4270  225.3330 C   0  0  0  0  0  0  0  0  0  0  0  0
  140.6580   71.4630  223.9910 N   0  0  0  0  0  0  0  0  0  0  0  0
  139.9280   71.9400  222.8570 C   0  0  0  0  0  0  0  0  0  0  0  0
  138.6670   71.9270  222.8580 O   0  0  0  0  0  0  0  0  0  0  0  0
  140.6660   72.4240  221.6540 C   0  0  0  0  0  0  0  0  0  0  0  0
  141.1430   73.7830  221.8940 N   0  0  0  0  0  0  0  0  0  0  0  0
  140.4040   74.8540  221.9670 C   0  0  0  0  0  0  0  0  0  0  0  0
  139.0430   74.7200  222.2240 O   0  0  0  0  0  0  0  0  0  0  0  0
  140.9490   76.2130  221.8100 C   0  0  0  0  0  0  0  0  0  0  0  0
  141.2540   76.7240  220.5420 C   0  0  0  0  0  0  0  0  0  0  0  0
  141.6940   78.0410  220.4150 C   0  0  0  0  0  0  0  0  0  0  0  0
  141.7900   78.8540  221.5500 C   0  0  0  0  0  0  0  0  0  0  0  0
  142.1910   80.1930  221.4520 C   0  0  0  0  0  0  0  0  0  0  0  0
  142.2530   80.9890  222.6010 C   0  0  0  0  0  0  0  0  0  0  0  0
  141.9300   80.4480  223.8480 C   0  0  0  0  0  0  0  0  0  0  0  0
  141.5250   79.1130  223.9530 C   0  0  0  0  0  0  0  0  0  0  0  0
  141.4470   78.3140  222.8090 C   0  0  0  0  0  0  0  0  0  0  0  0
  141.0370   77.0210  222.9030 N   0  0  0  0  0  0  0  0  0  0  0  0
  141.1312   71.3109  228.5163 H   0  0  0  0  0  0  0  0  0  0  0  0
  141.9021   72.6564  227.6098 H   0  0  0  0  0  0  0  0  0  0  0  0
  140.1143   72.4817  227.6098 H   0  0  0  0  0  0  0  0  0  0  0  0
  142.1432   71.2051  225.9061 H   0  0  0  0  0  0  0  0  0  0  0  0
  141.0106   69.4813  227.8543 H   0  0  0  0  0  0  0  0  0  0  0  0
  140.0794   69.1699  226.3501 H   0  0  0  0  0  0  0  0  0  0  0  0
  141.8679   69.0027  226.3501 H   0  0  0  0  0  0  0  0  0  0  0  0
  139.2779   70.6834  225.3613 H   0  0  0  0  0  0  0  0  0  0  0  0
  139.6982   72.4259  225.5784 H   0  0  0  0  0  0  0  0  0  0  0  0
  141.5232   71.7630  221.4584 H   0  0  0  0  0  0  0  0  0  0  0  0
  139.9943   72.4180  220.7829 H   0  0  0  0  0  0  0  0  0  0  0  0
  138.7050   74.0770  222.9310 H   0  0  0  0  0  0  0  0  0  0  0  0
  141.1469   76.0890  219.6502 H   0  0  0  0  0  0  0  0  0  0  0  0
  141.9647   78.4395  219.4261 H   0  0  0  0  0  0  0  0  0  0  0  0
  142.4568   80.6179  220.4728 H   0  0  0  0  0  0  0  0  0  0  0  0
  142.5568   82.0433  222.5223 H   0  0  0  0  0  0  0  0  0  0  0  0
  141.9943   81.0739  224.7503 H   0  0  0  0  0  0  0  0  0  0  0  0
  141.2679   78.6921  224.9362 H   0  0  0  0  0  0  0  0  0  0  0  0
  1  2  1  0
  2  3  1  0
  2  4  1  0
  4  5  1  0
  5  6  1  0
  6  7  2  0
  6  8  1  0
  8  9  1  0
  9 10  2  0
 10 11  1  0
 10 12  1  0
 12 13  2  0
 13 14  1  0
 14 15  2  0
 15 16  1  0
 16 17  2  0
 17 18  1  0
 18 19  2  0
 19 20  1  0
 20 21  2  0
 21 12  1  0
 20 15  1  0
  1 22  1  0
  1 23  1  0
  1 24  1  0
  2 25  1  0
  3 26  1  0
  3 27  1  0
  3 28  1  0
  4 29  1  0
  4 30  1  0
  8 31  1  0
  8 32  1  0
 11 33  1  0
 13 34  1  0
 14 35  1  0
 16 36  1  0
 17 37  1  0
 18 38  1  0
 19 39  1  0
M  CHG  1   5  -1
M  END
>  <meeko>  (13) 
{"free_energy": -6.17, "intermolecular_energy": -8.55, "internal_energy": -1.15, "cluster_size": 9, "cluster_id": 2, "rank_in_cluster": 3}

$$$$

     RDKit          3D

 39 40  0  0  0  0  0  0  0  0999 V2000
  145.9200   73.6420  221.2380 C   0  0  0  0  0  0  0  0  0  0  0  0
  144.8920   73.4140  220.1220 C   0  0  0  0  0  0  0  0  0  0  0  0
  144.8080   71.9230  219.7740 C   0  0  0  0  0  0  0  0  0  0  0  0
  143.5070   73.9480  220.5190 C   0  0  0  0  0  0  0  0  0  0  0  0
  142.5540   72.8530  220.6600 N   0  0  0  0  0  0  0  0  0  0  0  0
  141.2280   73.0480  221.1600 C   0  0  0  0  0  0  0  0  0  0  0  0
  140.9880   72.9400  222.3940 O   0  0  0  0  0  0  0  0  0  0  0  0
  140.1170   73.3470  220.2100 C   0  0  0  0  0  0  0  0  0  0  0  0
  139.7070   74.7390  220.3680 N   0  0  0  0  0  0  0  0  0  0  0  0
  139.8060   75.4490  221.4560 C   0  0  0  0  0  0  0  0  0  0  0  0
  139.2230   74.9760  222.6280 O   0  0  0  0  0  0  0  0  0  0  0  0
  140.5290   76.7300  221.5100 C   0  0  0  0  0  0  0  0  0  0  0  0
  140.8090   77.4500  220.3410 C   0  0  0  0  0  0  0  0  0  0  0  0
  141.4240   78.6980  220.4280 C   0  0  0  0  0  0  0  0  0  0  0  0
  141.7230   79.2400  221.6820 C   0  0  0  0  0  0  0  0  0  0  0  0
  142.3050   80.5080  221.8050 C   0  0  0  0  0  0  0  0  0  0  0  0
  142.5700   81.0360  223.0740 C   0  0  0  0  0  0  0  0  0  0  0  0
  142.2660   80.2940  224.2190 C   0  0  0  0  0  0  0  0  0  0  0  0
  141.6800   79.0290  224.1050 C   0  0  0  0  0  0  0  0  0  0  0  0
  141.4010   78.5000  222.8410 C   0  0  0  0  0  0  0  0  0  0  0  0
  140.8160   77.2780  222.7250 N   0  0  0  0  0  0  0  0  0  0  0  0
  145.4292   73.5332  222.2164 H   0  0  0  0  0  0  0  0  0  0  0  0
  146.7283   72.9013  221.1488 H   0  0  0  0  0  0  0  0  0  0  0  0
  146.3394   74.6550  221.1488 H   0  0  0  0  0  0  0  0  0  0  0  0
  145.2267   73.9710  219.2345 H   0  0  0  0  0  0  0  0  0  0  0  0
  144.7747   71.3315  220.7008 H   0  0  0  0  0  0  0  0  0  0  0  0
  143.8978   71.7345  219.1858 H   0  0  0  0  0  0  0  0  0  0  0  0
  145.6913   71.6334  219.1858 H   0  0  0  0  0  0  0  0  0  0  0  0
  143.5870   74.4828  221.4769 H   0  0  0  0  0  0  0  0  0  0  0  0
  143.1507   74.6280  219.7312 H   0  0  0  0  0  0  0  0  0  0  0  0
  140.4610   73.1803  219.1785 H   0  0  0  0  0  0  0  0  0  0  0  0
  139.2638   72.6858  220.4218 H   0  0  0  0  0  0  0  0  0  0  0  0
  139.1370   73.9810  222.8050 H   0  0  0  0  0  0  0  0  0  0  0  0
  140.5446   77.0321  219.3585 H   0  0  0  0  0  0  0  0  0  0  0  0
  141.6734   79.2549  219.5128 H   0  0  0  0  0  0  0  0  0  0  0  0
  142.5538   81.0888  220.9046 H   0  0  0  0  0  0  0  0  0  0  0  0
  143.0180   82.0360  223.1703 H   0  0  0  0  0  0  0  0  0  0  0  0
  142.4886   80.7067  225.2140 H   0  0  0  0  0  0  0  0  0  0  0  0
  141.4388   78.4507  225.0091 H   0  0  0  0  0  0  0  0  0  0  0  0
  1  2  1  0
  2  3  1  0
  2  4  1  0
  4  5  1  0
  5  6  1  0
  6  7  2  0
  6  8  1  0
  8  9  1  0
  9 10  2  0
 10 11  1  0
 10 12  1  0
 12 13  2  0
 13 14  1  0
 14 15  2  0
 15 16  1  0
 16 17  2  0
 17 18  1  0
 18 19  2  0
 19 20  1  0
 20 21  2  0
 21 12  1  0
 20 15  1  0
  1 22  1  0
  1 23  1  0
  1 24  1  0
  2 25  1  0
  3 26  1  0
  3 27  1  0
  3 28  1  0
  4 29  1  0
  4 30  1  0
  8 31  1  0
  8 32  1  0
 11 33  1  0
 13 34  1  0
 14 35  1  0
 16 36  1  0
 17 37  1  0
 18 38  1  0
 19 39  1  0
M  CHG  1   5  -1
M  END
>  <meeko>  (14) 
{"free_energy": -5.29, "intermolecular_energy": -7.68, "internal_energy": -1.39, "cluster_size": 1, "cluster_id": 4, "rank_in_cluster": 1}

$$$$

     RDKit          3D

 39 40  0  0  0  0  0  0  0  0999 V2000
  144.9530   73.8590  220.1870 C   0  0  0  0  0  0  0  0  0  0  0  0
  143.5980   74.5740  220.2790 C   0  0  0  0  0  0  0  0  0  0  0  0
  143.7030   75.9880  219.6970 C   0  0  0  0  0  0  0  0  0  0  0  0
  142.4970   73.7810  219.5580 C   0  0  0  0  0  0  0  0  0  0  0  0
  141.1860   74.1010  220.1100 N   0  0  0  0  0  0  0  0  0  0  0  0
  140.7180   73.5530  221.3460 C   0  0  0  0  0  0  0  0  0  0  0  0
  139.9530   74.2230  222.0930 O   0  0  0  0  0  0  0  0  0  0  0  0
  141.1670   72.1940  221.7690 C   0  0  0  0  0  0  0  0  0  0  0  0
  139.9990   71.3400  221.9680 N   0  0  0  0  0  0  0  0  0  0  0  0
  139.2140   71.3460  223.0080 C   0  0  0  0  0  0  0  0  0  0  0  0
  138.1460   72.2360  223.0450 O   0  0  0  0  0  0  0  0  0  0  0  0
  139.3920   70.4310  224.1480 C   0  0  0  0  0  0  0  0  0  0  0  0
  138.9870   69.0920  224.0670 C   0  0  0  0  0  0  0  0  0  0  0  0
  139.2400   68.2270  225.1310 C   0  0  0  0  0  0  0  0  0  0  0  0
  139.9310   68.6920  226.2540 C   0  0  0  0  0  0  0  0  0  0  0  0
  140.2360   67.8390  227.3240 C   0  0  0  0  0  0  0  0  0  0  0  0
  140.9510   68.3260  228.4240 C   0  0  0  0  0  0  0  0  0  0  0  0
  141.3500   69.6640  228.4640 C   0  0  0  0  0  0  0  0  0  0  0  0
  141.0540   70.5210  227.3990 C   0  0  0  0  0  0  0  0  0  0  0  0
  140.3500   70.0400  226.2900 C   0  0  0  0  0  0  0  0  0  0  0  0
  140.0750   70.8640  225.2440 N   0  0  0  0  0  0  0  0  0  0  0  0
  145.3317   73.6592  221.2002 H   0  0  0  0  0  0  0  0  0  0  0  0
  144.8301   72.9084  219.6474 H   0  0  0  0  0  0  0  0  0  0  0  0
  145.6684   74.4970  219.6474 H   0  0  0  0  0  0  0  0  0  0  0  0
  143.3234   74.6434  221.3419 H   0  0  0  0  0  0  0  0  0  0  0  0
  143.7573   76.7190  220.5172 H   0  0  0  0  0  0  0  0  0  0  0  0
  144.6092   76.0634  219.0781 H   0  0  0  0  0  0  0  0  0  0  0  0
  142.8179   76.1964  219.0781 H   0  0  0  0  0  0  0  0  0  0  0  0
  142.5103   74.0358  218.4880 H   0  0  0  0  0  0  0  0  0  0  0  0
  142.6865   72.7064  219.6968 H   0  0  0  0  0  0  0  0  0  0  0  0
  141.8107   71.7605  220.9894 H   0  0  0  0  0  0  0  0  0  0  0  0
  141.7332   72.2690  222.7091 H   0  0  0  0  0  0  0  0  0  0  0  0
  138.3010   73.2390  223.0660 H   0  0  0  0  0  0  0  0  0  0  0  0
  138.4714   68.7246  223.1674 H   0  0  0  0  0  0  0  0  0  0  0  0
  138.8972   67.1827  225.0870 H   0  0  0  0  0  0  0  0  0  0  0  0
  139.9135   66.7876  227.2989 H   0  0  0  0  0  0  0  0  0  0  0  0
  141.1993   67.6539  229.2586 H   0  0  0  0  0  0  0  0  0  0  0  0
  141.8996   70.0455  229.3372 H   0  0  0  0  0  0  0  0  0  0  0  0
  141.3746   71.5727  227.4335 H   0  0  0  0  0  0  0  0  0  0  0  0
  1  2  1  0
  2  3  1  0
  2  4  1  0
  4  5  1  0
  5  6  1  0
  6  7  2  0
  6  8  1  0
  8  9  1  0
  9 10  2  0
 10 11  1  0
 10 12  1  0
 12 13  2  0
 13 14  1  0
 14 15  2  0
 15 16  1  0
 16 17  2  0
 17 18  1  0
 18 19  2  0
 19 20  1  0
 20 21  2  0
 21 12  1  0
 20 15  1  0
  1 22  1  0
  1 23  1  0
  1 24  1  0
  2 25  1  0
  3 26  1  0
  3 27  1  0
  3 28  1  0
  4 29  1  0
  4 30  1  0
  8 31  1  0
  8 32  1  0
 11 33  1  0
 13 34  1  0
 14 35  1  0
 16 36  1  0
 17 37  1  0
 18 38  1  0
 19 39  1  0
M  CHG  1   5  -1
M  END
>  <meeko>  (15) 
{"free_energy": -5.52, "intermolecular_energy": -7.91, "internal_energy": -1.26, "cluster_size": 7, "cluster_id": 1, "rank_in_cluster": 5}

$$$$

     RDKit          3D

 39 40  0  0  0  0  0  0  0  0999 V2000
  141.0640   71.9090  226.7880 C   0  0  0  0  0  0  0  0  0  0  0  0
  141.0950   70.6140  225.9650 C   0  0  0  0  0  0  0  0  0  0  0  0
  140.6170   69.4320  226.8170 C   0  0  0  0  0  0  0  0  0  0  0  0
  140.2400   70.7370  224.6960 C   0  0  0  0  0  0  0  0  0  0  0  0
  140.6660   71.8790  223.8960 N   0  0  0  0  0  0  0  0  0  0  0  0
  139.9140   72.3590  222.7770 C   0  0  0  0  0  0  0  0  0  0  0  0
  138.6680   72.1730  222.7190 O   0  0  0  0  0  0  0  0  0  0  0  0
  140.6160   73.0520  221.6580 C   0  0  0  0  0  0  0  0  0  0  0  0
  140.6730   74.4840  221.9370 N   0  0  0  0  0  0  0  0  0  0  0  0
  139.6510   75.2740  222.1080 C   0  0  0  0  0  0  0  0  0  0  0  0
  138.3670   74.7410  222.0510 O   0  0  0  0  0  0  0  0  0  0  0  0
  139.7910   76.7140  222.3810 C   0  0  0  0  0  0  0  0  0  0  0  0
  138.6650   77.5170  222.6090 C   0  0  0  0  0  0  0  0  0  0  0  0
  138.8300   78.8600  222.9440 C   0  0  0  0  0  0  0  0  0  0  0  0
  140.1180   79.3870  223.0880 C   0  0  0  0  0  0  0  0  0  0  0  0
  140.3190   80.7220  223.4620 C   0  0  0  0  0  0  0  0  0  0  0  0
  141.6180   81.2150  223.6230 C   0  0  0  0  0  0  0  0  0  0  0  0
  142.7170   80.3820  223.3990 C   0  0  0  0  0  0  0  0  0  0  0  0
  142.5250   79.0460  223.0300 C   0  0  0  0  0  0  0  0  0  0  0  0
  141.2300   78.5420  222.8780 C   0  0  0  0  0  0  0  0  0  0  0  0
  141.0380   77.2400  222.5370 N   0  0  0  0  0  0  0  0  0  0  0  0
  141.0699   71.6624  227.8600 H   0  0  0  0  0  0  0  0  0  0  0  0
  141.9478   72.5179  226.5469 H   0  0  0  0  0  0  0  0  0  0  0  0
  140.1520   72.4749  226.5469 H   0  0  0  0  0  0  0  0  0  0  0  0
  142.1350   70.4348  225.6547 H   0  0  0  0  0  0  0  0  0  0  0  0
  140.7187   69.6836  227.8830 H   0  0  0  0  0  0  0  0  0  0  0  0
  139.5621   69.2190  226.5896 H   0  0  0  0  0  0  0  0  0  0  0  0
  141.2273   68.5456  226.5896 H   0  0  0  0  0  0  0  0  0  0  0  0
  140.3452   69.8189  224.0994 H   0  0  0  0  0  0  0  0  0  0  0  0
  139.1901   70.8831  224.9899 H   0  0  0  0  0  0  0  0  0  0  0  0
  141.6376   72.6552  221.5634 H   0  0  0  0  0  0  0  0  0  0  0  0
  140.0699   72.8812  220.7186 H   0  0  0  0  0  0  0  0  0  0  0  0
  138.0560   74.0510  222.7270 H   0  0  0  0  0  0  0  0  0  0  0  0
  137.6552   77.0891  222.5239 H   0  0  0  0  0  0  0  0  0  0  0  0
  137.9505   79.5033  223.0946 H   0  0  0  0  0  0  0  0  0  0  0  0
  139.4554   81.3825  223.6290 H   0  0  0  0  0  0  0  0  0  0  0  0
  141.7746   82.2606  223.9266 H   0  0  0  0  0  0  0  0  0  0  0  0
  143.7369   80.7779  223.5131 H   0  0  0  0  0  0  0  0  0  0  0  0
  143.3931   78.3923  222.8595 H   0  0  0  0  0  0  0  0  0  0  0  0
  1  2  1  0
  2  3  1  0
  2  4  1  0
  4  5  1  0
  5  6  1  0
  6  7  2  0
  6  8  1  0
  8  9  1  0
  9 10  2  0
 10 11  1  0
 10 12  1  0
 12 13  2  0
 13 14  1  0
 14 15  2  0
 15 16  1  0
 16 17  2  0
 17 18  1  0
 18 19  2  0
 19 20  1  0
 20 21  2  0
 21 12  1  0
 20 15  1  0
  1 22  1  0
  1 23  1  0
  1 24  1  0
  2 25  1  0
  3 26  1  0
  3 27  1  0
  3 28  1  0
  4 29  1  0
  4 30  1  0
  8 31  1  0
  8 32  1  0
 11 33  1  0
 13 34  1  0
 14 35  1  0
 16 36  1  0
 17 37  1  0
 18 38  1  0
 19 39  1  0
M  CHG  1   5  -1
M  END
>  <meeko>  (16) 
{"free_energy": -6.13, "intermolecular_energy": -8.52, "internal_energy": -1.14, "cluster_size": 9, "cluster_id": 2, "rank_in_cluster": 5}

$$$$

     RDKit          3D

 39 40  0  0  0  0  0  0  0  0999 V2000
  141.1810   72.1940  227.2840 C   0  0  0  0  0  0  0  0  0  0  0  0
  141.0630   70.8840  226.4920 C   0  0  0  0  0  0  0  0  0  0  0  0
  140.6780   69.7320  227.4280 C   0  0  0  0  0  0  0  0  0  0  0  0
  140.0420   71.0100  225.3520 C   0  0  0  0  0  0  0  0  0  0  0  0
  140.6370   71.6750  224.1990 N   0  0  0  0  0  0  0  0  0  0  0  0
  139.8840   72.0020  223.0270 C   0  0  0  0  0  0  0  0  0  0  0  0
  138.6250   71.9340  223.0370 O   0  0  0  0  0  0  0  0  0  0  0  0
  140.5980   72.3940  221.7770 C   0  0  0  0  0  0  0  0  0  0  0  0
  141.0900   73.7620  221.9090 N   0  0  0  0  0  0  0  0  0  0  0  0
  140.3580   74.8390  221.9650 C   0  0  0  0  0  0  0  0  0  0  0  0
  138.9920   74.7170  222.2010 O   0  0  0  0  0  0  0  0  0  0  0  0
  140.9150   76.1920  221.8090 C   0  0  0  0  0  0  0  0  0  0  0  0
  141.2140   76.7070  220.5410 C   0  0  0  0  0  0  0  0  0  0  0  0
  141.6660   78.0200  220.4160 C   0  0  0  0  0  0  0  0  0  0  0  0
  141.7800   78.8260  221.5530 C   0  0  0  0  0  0  0  0  0  0  0  0
  142.1940   80.1620  221.4590 C   0  0  0  0  0  0  0  0  0  0  0  0
  142.2750   80.9520  222.6100 C   0  0  0  0  0  0  0  0  0  0  0  0
  141.9570   80.4080  223.8580 C   0  0  0  0  0  0  0  0  0  0  0  0
  141.5390   79.0770  223.9600 C   0  0  0  0  0  0  0  0  0  0  0  0
  141.4430   78.2840  222.8130 C   0  0  0  0  0  0  0  0  0  0  0  0
  141.0210   76.9950  222.9050 N   0  0  0  0  0  0  0  0  0  0  0  0
  141.1612   71.9740  228.3616 H   0  0  0  0  0  0  0  0  0  0  0  0
  142.1277   72.6927  227.0289 H   0  0  0  0  0  0  0  0  0  0  0  0
  140.3387   72.8538  227.0289 H   0  0  0  0  0  0  0  0  0  0  0  0
  142.0440   70.6689  226.0433 H   0  0  0  0  0  0  0  0  0  0  0  0
  140.7866   70.0569  228.4733 H   0  0  0  0  0  0  0  0  0  0  0  0
  139.6338   69.4410  227.2411 H   0  0  0  0  0  0  0  0  0  0  0  0
  141.3374   68.8717  227.2411 H   0  0  0  0  0  0  0  0  0  0  0  0
  139.7056   70.0055  225.0557 H   0  0  0  0  0  0  0  0  0  0  0  0
  139.1896   71.6090  225.7050 H   0  0  0  0  0  0  0  0  0  0  0  0
  141.4459   71.7135  221.6097 H   0  0  0  0  0  0  0  0  0  0  0  0
  139.9063   72.3327  220.9238 H   0  0  0  0  0  0  0  0  0  0  0  0
  138.6380   74.0810  222.9070 H   0  0  0  0  0  0  0  0  0  0  0  0
  141.0926   76.0776  219.6470 H   0  0  0  0  0  0  0  0  0  0  0  0
  141.9320   78.4204  219.4266 H   0  0  0  0  0  0  0  0  0  0  0  0
  142.4552   80.5891  220.4795 H   0  0  0  0  0  0  0  0  0  0  0  0
  142.5895   82.0033  222.5333 H   0  0  0  0  0  0  0  0  0  0  0  0
  142.0358   81.0287  224.7627 H   0  0  0  0  0  0  0  0  0  0  0  0
  141.2857   78.6542  224.9434 H   0  0  0  0  0  0  0  0  0  0  0  0
  1  2  1  0
  2  3  1  0
  2  4  1  0
  4  5  1  0
  5  6  1  0
  6  7  2  0
  6  8  1  0
  8  9  1  0
  9 10  2  0
 10 11  1  0
 10 12  1  0
 12 13  2  0
 13 14  1  0
 14 15  2  0
 15 16  1  0
 16 17  2  0
 17 18  1  0
 18 19  2  0
 19 20  1  0
 20 21  2  0
 21 12  1  0
 20 15  1  0
  1 22  1  0
  1 23  1  0
  1 24  1  0
  2 25  1  0
  3 26  1  0
  3 27  1  0
  3 28  1  0
  4 29  1  0
  4 30  1  0
  8 31  1  0
  8 32  1  0
 11 33  1  0
 13 34  1  0
 14 35  1  0
 16 36  1  0
 17 37  1  0
 18 38  1  0
 19 39  1  0
M  CHG  1   5  -1
M  END
>  <meeko>  (17) 
{"free_energy": -6.24, "intermolecular_energy": -8.63, "internal_energy": -1.15, "cluster_size": 9, "cluster_id": 2, "rank_in_cluster": 2}

$$$$

     RDKit          3D

 39 40  0  0  0  0  0  0  0  0999 V2000
  144.3790   74.4440  220.4140 C   0  0  0  0  0  0  0  0  0  0  0  0
  145.5470   73.4570  220.2920 C   0  0  0  0  0  0  0  0  0  0  0  0
  146.3350   73.4020  221.6060 C   0  0  0  0  0  0  0  0  0  0  0  0
  145.0560   72.0540  219.9050 C   0  0  0  0  0  0  0  0  0  0  0  0
  143.6150   72.0560  219.6810 N   0  0  0  0  0  0  0  0  0  0  0  0
  142.7840   70.9420  220.0170 C   0  0  0  0  0  0  0  0  0  0  0  0
  143.1960   69.7620  219.8450 O   0  0  0  0  0  0  0  0  0  0  0  0
  141.4070   71.1790  220.5400 C   0  0  0  0  0  0  0  0  0  0  0  0
  141.4440   72.2520  221.5290 N   0  0  0  0  0  0  0  0  0  0  0  0
  140.5400   72.4890  222.4380 C   0  0  0  0  0  0  0  0  0  0  0  0
  139.7780   73.6500  222.3470 O   0  0  0  0  0  0  0  0  0  0  0  0
  140.2700   71.5690  223.5550 C   0  0  0  0  0  0  0  0  0  0  0  0
  139.6810   70.3180  223.3300 C   0  0  0  0  0  0  0  0  0  0  0  0
  139.5090   69.4330  224.3940 C   0  0  0  0  0  0  0  0  0  0  0  0
  139.9620   69.7850  225.6700 C   0  0  0  0  0  0  0  0  0  0  0  0
  139.8410   68.9040  226.7530 C   0  0  0  0  0  0  0  0  0  0  0  0
  140.3270   69.2720  228.0120 C   0  0  0  0  0  0  0  0  0  0  0  0
  140.9200   70.5240  228.1960 C   0  0  0  0  0  0  0  0  0  0  0  0
  141.0500   71.4070  227.1190 C   0  0  0  0  0  0  0  0  0  0  0  0
  140.5780   71.0420  225.8540 C   0  0  0  0  0  0  0  0  0  0  0  0
  140.7170   71.8910  224.8010 N   0  0  0  0  0  0  0  0  0  0  0  0
  144.1628   74.6267  221.4770 H   0  0  0  0  0  0  0  0  0  0  0  0
  144.6480   75.3925  219.9263 H   0  0  0  0  0  0  0  0  0  0  0  0
  143.4886   74.0205  219.9263 H   0  0  0  0  0  0  0  0  0  0  0  0
  146.2105   73.8149  219.4910 H   0  0  0  0  0  0  0  0  0  0  0  0
  145.6368   73.4507  222.4546 H   0  0  0  0  0  0  0  0  0  0  0  0
  146.9043   72.4619  221.6531 H   0  0  0  0  0  0  0  0  0  0  0  0
  147.0293   74.2539  221.6531 H   0  0  0  0  0  0  0  0  0  0  0  0
  145.5643   71.7350  218.9831 H   0  0  0  0  0  0  0  0  0  0  0  0
  145.2853   71.3598  220.7269 H   0  0  0  0  0  0  0  0  0  0  0  0
  140.7436   71.4663  219.7109 H   0  0  0  0  0  0  0  0  0  0  0  0
  141.0277   70.2590  221.0088 H   0  0  0  0  0  0  0  0  0  0  0  0
  139.0890   73.8800  223.0560 H   0  0  0  0  0  0  0  0  0  0  0  0
  139.3555   70.0349  222.3181 H   0  0  0  0  0  0  0  0  0  0  0  0
  139.0190   68.4618  224.2306 H   0  0  0  0  0  0  0  0  0  0  0  0
  139.3638   67.9229  226.6131 H   0  0  0  0  0  0  0  0  0  0  0  0
  140.2423   68.5748  228.8586 H   0  0  0  0  0  0  0  0  0  0  0  0
  141.2858   70.8161  229.1914 H   0  0  0  0  0  0  0  0  0  0  0  0
  141.5236   72.3887  227.2670 H   0  0  0  0  0  0  0  0  0  0  0  0
  1  2  1  0
  2  3  1  0
  2  4  1  0
  4  5  1  0
  5  6  1  0
  6  7  2  0
  6  8  1  0
  8  9  1  0
  9 10  2  0
 10 11  1  0
 10 12  1  0
 12 13  2  0
 13 14  1  0
 14 15  2  0
 15 16  1  0
 16 17  2  0
 17 18  1  0
 18 19  2  0
 19 20  1  0
 20 21  2  0
 21 12  1  0
 20 15  1  0
  1 22  1  0
  1 23  1  0
  1 24  1  0
  2 25  1  0
  3 26  1  0
  3 27  1  0
  3 28  1  0
  4 29  1  0
  4 30  1  0
  8 31  1  0
  8 32  1  0
 11 33  1  0
 13 34  1  0
 14 35  1  0
 16 36  1  0
 17 37  1  0
 18 38  1  0
 19 39  1  0
M  CHG  1   5  -1
M  END
>  <meeko>  (18) 
{"free_energy": -6.28, "intermolecular_energy": -8.66, "internal_energy": -0.66, "cluster_size": 7, "cluster_id": 1, "rank_in_cluster": 1}

$$$$

     RDKit          3D

 39 40  0  0  0  0  0  0  0  0999 V2000
  141.0850   72.1710  227.4820 C   0  0  0  0  0  0  0  0  0  0  0  0
  141.0330   70.9300  226.5800 C   0  0  0  0  0  0  0  0  0  0  0  0
  140.7150   69.6820  227.4120 C   0  0  0  0  0  0  0  0  0  0  0  0
  140.0000   71.0990  225.4560 C   0  0  0  0  0  0  0  0  0  0  0  0
  140.6210   71.6760  224.2690 N   0  0  0  0  0  0  0  0  0  0  0  0
  139.8760   71.9990  223.0910 C   0  0  0  0  0  0  0  0  0  0  0  0
  138.6160   71.9380  223.0960 O   0  0  0  0  0  0  0  0  0  0  0  0
  140.5980   72.3780  221.8420 C   0  0  0  0  0  0  0  0  0  0  0  0
  141.0730   73.7540  221.9560 N   0  0  0  0  0  0  0  0  0  0  0  0
  140.3300   74.8240  221.9690 C   0  0  0  0  0  0  0  0  0  0  0  0
  138.9580   74.6930  222.1610 O   0  0  0  0  0  0  0  0  0  0  0  0
  140.8800   76.1800  221.8090 C   0  0  0  0  0  0  0  0  0  0  0  0
  141.1720   76.6940  220.5380 C   0  0  0  0  0  0  0  0  0  0  0  0
  141.6160   78.0090  220.4090 C   0  0  0  0  0  0  0  0  0  0  0  0
  141.7310   78.8180  221.5430 C   0  0  0  0  0  0  0  0  0  0  0  0
  142.1370   80.1550  221.4440 C   0  0  0  0  0  0  0  0  0  0  0  0
  142.2180   80.9480  222.5940 C   0  0  0  0  0  0  0  0  0  0  0  0
  141.9070   80.4060  223.8440 C   0  0  0  0  0  0  0  0  0  0  0  0
  141.4960   79.0730  223.9510 C   0  0  0  0  0  0  0  0  0  0  0  0
  141.4010   78.2770  222.8050 C   0  0  0  0  0  0  0  0  0  0  0  0
  140.9850   76.9860  222.9020 N   0  0  0  0  0  0  0  0  0  0  0  0
  141.0719   71.8586  228.5366 H   0  0  0  0  0  0  0  0  0  0  0  0
  142.0075   72.7343  227.2779 H   0  0  0  0  0  0  0  0  0  0  0  0
  140.2128   72.8095  227.2779 H   0  0  0  0  0  0  0  0  0  0  0  0
  142.0220   70.8078  226.1143 H   0  0  0  0  0  0  0  0  0  0  0  0
  140.7779   69.9289  228.4821 H   0  0  0  0  0  0  0  0  0  0  0  0
  139.6991   69.3327  227.1754 H   0  0  0  0  0  0  0  0  0  0  0  0
  141.4398   68.8891  227.1754 H   0  0  0  0  0  0  0  0  0  0  0  0
  139.5789   70.1152  225.2014 H   0  0  0  0  0  0  0  0  0  0  0  0
  139.2053   71.7752  225.8041 H   0  0  0  0  0  0  0  0  0  0  0  0
  141.4553   71.7047  221.6947 H   0  0  0  0  0  0  0  0  0  0  0  0
  139.9159   72.2943  220.9831 H   0  0  0  0  0  0  0  0  0  0  0  0
  138.5870   74.0810  222.8810 H   0  0  0  0  0  0  0  0  0  0  0  0
  141.0512   76.0620  219.6458 H   0  0  0  0  0  0  0  0  0  0  0  0
  141.8751   78.4089  219.4176 H   0  0  0  0  0  0  0  0  0  0  0  0
  142.3920   80.5813  220.4626 H   0  0  0  0  0  0  0  0  0  0  0  0
  142.5272   82.0006  222.5139 H   0  0  0  0  0  0  0  0  0  0  0  0
  141.9856   81.0295  224.7468 H   0  0  0  0  0  0  0  0  0  0  0  0
  141.2477   78.6512  224.9361 H   0  0  0  0  0  0  0  0  0  0  0  0
  1  2  1  0
  2  3  1  0
  2  4  1  0
  4  5  1  0
  5  6  1  0
  6  7  2  0
  6  8  1  0
  8  9  1  0
  9 10  2  0
 10 11  1  0
 10 12  1  0
 12 13  2  0
 13 14  1  0
 14 15  2  0
 15 16  1  0
 16 17  2  0
 17 18  1  0
 18 19  2  0
 19 20  1  0
 20 21  2  0
 21 12  1  0
 20 15  1  0
  1 22  1  0
  1 23  1  0
  1 24  1  0
  2 25  1  0
  3 26  1  0
  3 27  1  0
  3 28  1  0
  4 29  1  0
  4 30  1  0
  8 31  1  0
  8 32  1  0
 11 33  1  0
 13 34  1  0
 14 35  1  0
 16 36  1  0
 17 37  1  0
 18 38  1  0
 19 39  1  0
M  CHG  1   5  -1
M  END
>  <meeko>  (19) 
{"free_energy": -6.24, "intermolecular_energy": -8.63, "internal_energy": -1.14, "cluster_size": 9, "cluster_id": 2, "rank_in_cluster": 1}

$$$$

     RDKit          3D

 39 40  0  0  0  0  0  0  0  0999 V2000
  140.8030   69.5580  227.2350 C   0  0  0  0  0  0  0  0  0  0  0  0
  140.3200   70.8220  226.5120 C   0  0  0  0  0  0  0  0  0  0  0  0
  141.4220   71.8880  226.5130 C   0  0  0  0  0  0  0  0  0  0  0  0
  139.8790   70.5110  225.0740 C   0  0  0  0  0  0  0  0  0  0  0  0
  140.5900   71.3570  224.1230 N   0  0  0  0  0  0  0  0  0  0  0  0
  139.9400   71.9750  223.0080 C   0  0  0  0  0  0  0  0  0  0  0  0
  138.7000   72.2010  223.0370 O   0  0  0  0  0  0  0  0  0  0  0  0
  140.7310   72.3210  221.7910 C   0  0  0  0  0  0  0  0  0  0  0  0
  141.2010   73.7000  221.8960 N   0  0  0  0  0  0  0  0  0  0  0  0
  140.4500   74.7640  221.9460 C   0  0  0  0  0  0  0  0  0  0  0  0
  139.0850   74.6190  222.1760 O   0  0  0  0  0  0  0  0  0  0  0  0
  140.9850   76.1260  221.7900 C   0  0  0  0  0  0  0  0  0  0  0  0
  141.3180   76.6290  220.5250 C   0  0  0  0  0  0  0  0  0  0  0  0
  141.7470   77.9490  220.3970 C   0  0  0  0  0  0  0  0  0  0  0  0
  141.8050   78.7740  221.5250 C   0  0  0  0  0  0  0  0  0  0  0  0
  142.1950   80.1160  221.4250 C   0  0  0  0  0  0  0  0  0  0  0  0
  142.2190   80.9240  222.5670 C   0  0  0  0  0  0  0  0  0  0  0  0
  141.8690   80.3910  223.8100 C   0  0  0  0  0  0  0  0  0  0  0  0
  141.4750   79.0540  223.9180 C   0  0  0  0  0  0  0  0  0  0  0  0
  141.4350   78.2420  222.7800 C   0  0  0  0  0  0  0  0  0  0  0  0
  141.0360   76.9460  222.8770 N   0  0  0  0  0  0  0  0  0  0  0  0
  140.7440   69.7125  228.3225 H   0  0  0  0  0  0  0  0  0  0  0  0
  140.1667   68.7070  226.9504 H   0  0  0  0  0  0  0  0  0  0  0  0
  141.8446   69.3482  226.9504 H   0  0  0  0  0  0  0  0  0  0  0  0
  139.4459   71.2097  227.0557 H   0  0  0  0  0  0  0  0  0  0  0  0
  141.6850   72.1425  227.5503 H   0  0  0  0  0  0  0  0  0  0  0  0
  142.3102   71.4976  225.9947 H   0  0  0  0  0  0  0  0  0  0  0  0
  141.0613   72.7887  225.9947 H   0  0  0  0  0  0  0  0  0  0  0  0
  140.0947   69.4558  224.8503 H   0  0  0  0  0  0  0  0  0  0  0  0
  138.8003   70.7071  224.9845 H   0  0  0  0  0  0  0  0  0  0  0  0
  141.5941   71.6440  221.7091 H   0  0  0  0  0  0  0  0  0  0  0  0
  140.0979   72.2147  220.8978 H   0  0  0  0  0  0  0  0  0  0  0  0
  138.7380   73.9760  222.8800 H   0  0  0  0  0  0  0  0  0  0  0  0
  141.2411   75.9847  219.6367 H   0  0  0  0  0  0  0  0  0  0  0  0
  142.0392   78.3408  219.4116 H   0  0  0  0  0  0  0  0  0  0  0  0
  142.4823   80.5342  220.4490 H   0  0  0  0  0  0  0  0  0  0  0  0
  142.5139   81.9806  222.4860 H   0  0  0  0  0  0  0  0  0  0  0  0
  141.9036   81.0260  224.7075 H   0  0  0  0  0  0  0  0  0  0  0  0
  141.1963   78.6405  224.8985 H   0  0  0  0  0  0  0  0  0  0  0  0
  1  2  1  0
  2  3  1  0
  2  4  1  0
  4  5  1  0
  5  6  1  0
  6  7  2  0
  6  8  1  0
  8  9  1  0
  9 10  2  0
 10 11  1  0
 10 12  1  0
 12 13  2  0
 13 14  1  0
 14 15  2  0
 15 16  1  0
 16 17  2  0
 17 18  1  0
 18 19  2  0
 19 20  1  0
 20 21  2  0
 21 12  1  0
 20 15  1  0
  1 22  1  0
  1 23  1  0
  1 24  1  0
  2 25  1  0
  3 26  1  0
  3 27  1  0
  3 28  1  0
  4 29  1  0
  4 30  1  0
  8 31  1  0
  8 32  1  0
 11 33  1  0
 13 34  1  0
 14 35  1  0
 16 36  1  0
 17 37  1  0
 18 38  1  0
 19 39  1  0
M  CHG  1   5  -1
M  END
>  <meeko>  (20) 
{"free_energy": -5.92, "intermolecular_energy": -8.3, "internal_energy": -1.18, "cluster_size": 9, "cluster_id": 2, "rank_in_cluster": 7}

$$$$
