
     RDKit          3D

 41 43  0  0  0  0  0  0  0  0999 V2000
  139.1800   67.4080  225.6240 N   0  0  0  0  0  0  0  0  0  0  0  0
  139.6180   68.4120  226.0020 C   0  0  0  0  0  0  0  0  0  0  0  0
  140.1660   69.6580  226.4810 C   0  0  0  0  0  0  0  0  0  0  0  0
  140.3820   69.8110  227.8580 C   0  0  0  0  0  0  0  0  0  0  0  0
  140.9340   70.9930  228.3580 C   0  0  0  0  0  0  0  0  0  0  0  0
  141.2750   72.0280  227.4890 C   0  0  0  0  0  0  0  0  0  0  0  0
  141.0640   71.8870  226.1150 C   0  0  0  0  0  0  0  0  0  0  0  0
  140.4990   70.7090  225.5950 C   0  0  0  0  0  0  0  0  0  0  0  0
  140.2920   70.5840  224.1050 C   0  0  0  0  0  0  0  0  0  0  0  0
  140.7180   71.8120  223.4480 N   0  0  0  0  0  0  0  0  0  0  0  0
  140.0090   72.4650  222.3890 C   0  0  0  0  0  0  0  0  0  0  0  0
  139.9690   73.7230  222.3760 O   0  0  0  0  0  0  0  0  0  0  0  0
  139.2400   71.6970  221.3450 C   0  0  0  0  0  0  0  0  0  0  0  0
  137.8320   71.5620  221.7290 N   0  0  0  0  0  0  0  0  0  0  0  0
  137.1640   72.3510  222.5230 C   0  0  0  0  0  0  0  0  0  0  0  0
  137.2560   73.7290  222.3440 O   0  0  0  0  0  0  0  0  0  0  0  0
  136.2850   71.8490  223.5940 C   0  0  0  0  0  0  0  0  0  0  0  0
  136.3500   70.5120  224.0150 C   0  0  0  0  0  0  0  0  0  0  0  0
  135.5340   70.0780  225.0620 C   0  0  0  0  0  0  0  0  0  0  0  0
  134.6810   70.9840  225.7020 C   0  0  0  0  0  0  0  0  0  0  0  0
  133.8560   70.5830  226.7620 C   0  0  0  0  0  0  0  0  0  0  0  0
  133.0240   71.5180  227.3890 C   0  0  0  0  0  0  0  0  0  0  0  0
  133.0120   72.8500  226.9620 C   0  0  0  0  0  0  0  0  0  0  0  0
  133.8330   73.2570  225.9050 C   0  0  0  0  0  0  0  0  0  0  0  0
  134.6680   72.3300  225.2710 C   0  0  0  0  0  0  0  0  0  0  0  0
  135.4670   72.7220  224.2420 N   0  0  0  0  0  0  0  0  0  0  0  0
  140.1156   68.9966  228.5478 H   0  0  0  0  0  0  0  0  0  0  0  0
  141.0998   71.1070  229.4394 H   0  0  0  0  0  0  0  0  0  0  0  0
  141.7108   72.9570  227.8854 H   0  0  0  0  0  0  0  0  0  0  0  0
  141.3423   72.7048  225.4340 H   0  0  0  0  0  0  0  0  0  0  0  0
  140.8844   69.7397  223.7226 H   0  0  0  0  0  0  0  0  0  0  0  0
  139.2259   70.4095  223.8976 H   0  0  0  0  0  0  0  0  0  0  0  0
  139.3023   72.2314  220.3856 H   0  0  0  0  0  0  0  0  0  0  0  0
  139.6780   70.6921  221.2532 H   0  0  0  0  0  0  0  0  0  0  0  0
  137.9580   74.2750  222.8280 H   0  0  0  0  0  0  0  0  0  0  0  0
  137.0395   69.8100  223.5233 H   0  0  0  0  0  0  0  0  0  0  0  0
  135.5618   69.0262  225.3829 H   0  0  0  0  0  0  0  0  0  0  0  0
  133.8624   69.5363  227.1002 H   0  0  0  0  0  0  0  0  0  0  0  0
  132.3768   71.2039  228.2212 H   0  0  0  0  0  0  0  0  0  0  0  0
  132.3552   73.5794  227.4587 H   0  0  0  0  0  0  0  0  0  0  0  0
  133.8222   74.3054  225.5723 H   0  0  0  0  0  0  0  0  0  0  0  0
  1  2  3  0
  2  3  1  0
  3  4  2  0
  4  5  1  0
  5  6  2  0
  6  7  1  0
  7  8  2  0
  8  9  1  0
  9 10  1  0
 10 11  1  0
 11 12  2  0
 11 13  1  0
 13 14  1  0
 14 15  2  0
 15 16  1  0
 15 17  1  0
 17 18  2  0
 18 19  1  0
 19 20  2  0
 20 21  1  0
 21 22  2  0
 22 23  1  0
 23 24  2  0
 24 25  1  0
 25 26  2  0
  8  3  1  0
 26 17  1  0
 25 20  1  0
  4 27  1  0
  5 28  1  0
  6 29  1  0
  7 30  1  0
  9 31  1  0
  9 32  1  0
 13 33  1  0
 13 34  1  0
 16 35  1  0
 18 36  1  0
 19 37  1  0
 21 38  1  0
 22 39  1  0
 23 40  1  0
 24 41  1  0
M  CHG  1  10  -1
M  END
>  <meeko>  (1) 
{"free_energy": -7.13, "intermolecular_energy": -9.82, "internal_energy": -1.95, "cluster_size": 2, "cluster_id": 2, "rank_in_cluster": 2}

$$$$

     RDKit          3D

 41 43  0  0  0  0  0  0  0  0999 V2000
  139.1940   67.3700  225.9950 N   0  0  0  0  0  0  0  0  0  0  0  0
  139.6380   68.4100  226.2430 C   0  0  0  0  0  0  0  0  0  0  0  0
  140.1860   69.7080  226.5590 C   0  0  0  0  0  0  0  0  0  0  0  0
  140.6040   69.9580  227.8730 C   0  0  0  0  0  0  0  0  0  0  0  0
  141.1620   71.1930  228.2130 C   0  0  0  0  0  0  0  0  0  0  0  0
  141.3090   72.1850  227.2430 C   0  0  0  0  0  0  0  0  0  0  0  0
  140.8960   71.9460  225.9300 C   0  0  0  0  0  0  0  0  0  0  0  0
  140.3210   70.7130  225.5730 C   0  0  0  0  0  0  0  0  0  0  0  0
  139.8940   70.4830  224.1440 C   0  0  0  0  0  0  0  0  0  0  0  0
  140.1750   71.6730  223.3530 N   0  0  0  0  0  0  0  0  0  0  0  0
  139.9530   71.7940  221.9430 C   0  0  0  0  0  0  0  0  0  0  0  0
  138.9030   71.2990  221.4540 O   0  0  0  0  0  0  0  0  0  0  0  0
  140.9720   72.4100  221.0200 C   0  0  0  0  0  0  0  0  0  0  0  0
  141.4160   73.7110  221.5250 N   0  0  0  0  0  0  0  0  0  0  0  0
  140.6570   74.7250  221.8350 C   0  0  0  0  0  0  0  0  0  0  0  0
  139.3850   74.4860  222.3500 O   0  0  0  0  0  0  0  0  0  0  0  0
  141.0950   76.1250  221.6920 C   0  0  0  0  0  0  0  0  0  0  0  0
  141.4180   76.6550  220.4340 C   0  0  0  0  0  0  0  0  0  0  0  0
  141.7880   77.9970  220.3250 C   0  0  0  0  0  0  0  0  0  0  0  0
  141.8050   78.8090  221.4660 C   0  0  0  0  0  0  0  0  0  0  0  0
  142.1630   80.1630  221.3910 C   0  0  0  0  0  0  0  0  0  0  0  0
  142.1580   80.9510  222.5480 C   0  0  0  0  0  0  0  0  0  0  0  0
  141.7960   80.3920  223.7780 C   0  0  0  0  0  0  0  0  0  0  0  0
  141.4380   79.0420  223.8610 C   0  0  0  0  0  0  0  0  0  0  0  0
  141.4420   78.2460  222.7090 C   0  0  0  0  0  0  0  0  0  0  0  0
  141.0950   76.9330  222.7860 N   0  0  0  0  0  0  0  0  0  0  0  0
  140.4923   69.1780  228.6406 H   0  0  0  0  0  0  0  0  0  0  0  0
  141.4858   71.3834  229.2469 H   0  0  0  0  0  0  0  0  0  0  0  0
  141.7504   73.1559  227.5122 H   0  0  0  0  0  0  0  0  0  0  0  0
  141.0217   72.7295  225.1682 H   0  0  0  0  0  0  0  0  0  0  0  0
  140.4484   69.6283  223.7292 H   0  0  0  0  0  0  0  0  0  0  0  0
  138.8150   70.2710  224.1146 H   0  0  0  0  0  0  0  0  0  0  0  0
  141.8399   71.7386  220.9423 H   0  0  0  0  0  0  0  0  0  0  0  0
  140.5092   72.5557  220.0328 H   0  0  0  0  0  0  0  0  0  0  0  0
  139.1660   73.6190  222.8260 H   0  0  0  0  0  0  0  0  0  0  0  0
  141.3800   76.0171  219.5386 H   0  0  0  0  0  0  0  0  0  0  0  0
  142.0652   78.4151  219.3461 H   0  0  0  0  0  0  0  0  0  0  0  0
  142.4472   80.6050  220.4246 H   0  0  0  0  0  0  0  0  0  0  0  0
  142.4396   82.0128  222.4897 H   0  0  0  0  0  0  0  0  0  0  0  0
  141.7928   81.0163  224.6837 H   0  0  0  0  0  0  0  0  0  0  0  0
  141.1537   78.6064  224.8302 H   0  0  0  0  0  0  0  0  0  0  0  0
  1  2  3  0
  2  3  1  0
  3  4  2  0
  4  5  1  0
  5  6  2  0
  6  7  1  0
  7  8  2  0
  8  9  1  0
  9 10  1  0
 10 11  1  0
 11 12  2  0
 11 13  1  0
 13 14  1  0
 14 15  2  0
 15 16  1  0
 15 17  1  0
 17 18  2  0
 18 19  1  0
 19 20  2  0
 20 21  1  0
 21 22  2  0
 22 23  1  0
 23 24  2  0
 24 25  1  0
 25 26  2  0
  8  3  1  0
 26 17  1  0
 25 20  1  0
  4 27  1  0
  5 28  1  0
  6 29  1  0
  7 30  1  0
  9 31  1  0
  9 32  1  0
 13 33  1  0
 13 34  1  0
 16 35  1  0
 18 36  1  0
 19 37  1  0
 21 38  1  0
 22 39  1  0
 23 40  1  0
 24 41  1  0
M  CHG  1  10  -1
M  END
>  <meeko>  (2) 
{"free_energy": -8.56, "intermolecular_energy": -11.24, "internal_energy": -1.32, "cluster_size": 16, "cluster_id": 1, "rank_in_cluster": 7}

$$$$

     RDKit          3D

 41 43  0  0  0  0  0  0  0  0999 V2000
  141.6050   75.3470  220.9840 N   0  0  0  0  0  0  0  0  0  0  0  0
  141.1460   76.2300  221.5760 C   0  0  0  0  0  0  0  0  0  0  0  0
  140.5710   77.3350  222.3060 C   0  0  0  0  0  0  0  0  0  0  0  0
  141.4310   78.2390  222.9430 C   0  0  0  0  0  0  0  0  0  0  0  0
  140.9140   79.3340  223.6400 C   0  0  0  0  0  0  0  0  0  0  0  0
  139.5350   79.5350  223.7020 C   0  0  0  0  0  0  0  0  0  0  0  0
  138.6670   78.6400  223.0710 C   0  0  0  0  0  0  0  0  0  0  0  0
  139.1710   77.5250  222.3760 C   0  0  0  0  0  0  0  0  0  0  0  0
  138.2080   76.5820  221.6970 C   0  0  0  0  0  0  0  0  0  0  0  0
  138.4650   75.2190  222.1410 N   0  0  0  0  0  0  0  0  0  0  0  0
  137.5680   74.1160  221.9690 C   0  0  0  0  0  0  0  0  0  0  0  0
  136.5540   74.0420  222.7140 O   0  0  0  0  0  0  0  0  0  0  0  0
  137.8430   73.0020  220.9930 C   0  0  0  0  0  0  0  0  0  0  0  0
  138.8070   72.0490  221.5470 N   0  0  0  0  0  0  0  0  0  0  0  0
  139.6290   72.2610  222.5370 C   0  0  0  0  0  0  0  0  0  0  0  0
  140.4880   73.3550  222.4810 O   0  0  0  0  0  0  0  0  0  0  0  0
  139.6740   71.4060  223.7360 C   0  0  0  0  0  0  0  0  0  0  0  0
  139.1820   70.0920  223.7060 C   0  0  0  0  0  0  0  0  0  0  0  0
  139.2780   69.2930  224.8470 C   0  0  0  0  0  0  0  0  0  0  0  0
  139.8900   69.7970  226.0010 C   0  0  0  0  0  0  0  0  0  0  0  0
  140.0100   69.0180  227.1610 C   0  0  0  0  0  0  0  0  0  0  0  0
  140.6400   69.5470  228.2930 C   0  0  0  0  0  0  0  0  0  0  0  0
  141.1470   70.8510  228.2720 C   0  0  0  0  0  0  0  0  0  0  0  0
  141.0310   71.6330  227.1190 C   0  0  0  0  0  0  0  0  0  0  0  0
  140.4020   71.1130  225.9820 C   0  0  0  0  0  0  0  0  0  0  0  0
  140.2850   71.8720  224.8590 N   0  0  0  0  0  0  0  0  0  0  0  0
  142.5192   78.0859  222.8941 H   0  0  0  0  0  0  0  0  0  0  0  0
  141.5950   80.0382  224.1403 H   0  0  0  0  0  0  0  0  0  0  0  0
  139.1302   80.3995  224.2485 H   0  0  0  0  0  0  0  0  0  0  0  0
  137.5810   78.8084  223.1179 H   0  0  0  0  0  0  0  0  0  0  0  0
  137.1765   76.8631  221.9557 H   0  0  0  0  0  0  0  0  0  0  0  0
  138.3436   76.6432  220.6071 H   0  0  0  0  0  0  0  0  0  0  0  0
  136.9025   72.4760  220.7723 H   0  0  0  0  0  0  0  0  0  0  0  0
  138.2651   73.4354  220.0743 H   0  0  0  0  0  0  0  0  0  0  0  0
  140.1560   74.2690  222.1960 H   0  0  0  0  0  0  0  0  0  0  0  0
  138.7234   69.6938  222.7889 H   0  0  0  0  0  0  0  0  0  0  0  0
  138.8738   68.2700  224.8393 H   0  0  0  0  0  0  0  0  0  0  0  0
  139.6098   67.9936  227.1809 H   0  0  0  0  0  0  0  0  0  0  0  0
  140.7370   68.9357  229.2023 H   0  0  0  0  0  0  0  0  0  0  0  0
  141.6386   71.2623  229.1660 H   0  0  0  0  0  0  0  0  0  0  0  0
  141.4339   72.6565  227.1054 H   0  0  0  0  0  0  0  0  0  0  0  0
  1  2  3  0
  2  3  1  0
  3  4  2  0
  4  5  1  0
  5  6  2  0
  6  7  1  0
  7  8  2  0
  8  9  1  0
  9 10  1  0
 10 11  1  0
 11 12  2  0
 11 13  1  0
 13 14  1  0
 14 15  2  0
 15 16  1  0
 15 17  1  0
 17 18  2  0
 18 19  1  0
 19 20  2  0
 20 21  1  0
 21 22  2  0
 22 23  1  0
 23 24  2  0
 24 25  1  0
 25 26  2  0
  8  3  1  0
 26 17  1  0
 25 20  1  0
  4 27  1  0
  5 28  1  0
  6 29  1  0
  7 30  1  0
  9 31  1  0
  9 32  1  0
 13 33  1  0
 13 34  1  0
 16 35  1  0
 18 36  1  0
 19 37  1  0
 21 38  1  0
 22 39  1  0
 23 40  1  0
 24 41  1  0
M  CHG  1  10  -1
M  END
>  <meeko>  (3) 
{"free_energy": -6.25, "intermolecular_energy": -8.94, "internal_energy": -2.23, "cluster_size": 16, "cluster_id": 1, "rank_in_cluster": 16}

$$$$

     RDKit          3D

 41 43  0  0  0  0  0  0  0  0999 V2000
  139.1940   67.3990  225.8700 N   0  0  0  0  0  0  0  0  0  0  0  0
  139.6370   68.4170  226.2030 C   0  0  0  0  0  0  0  0  0  0  0  0
  140.1930   69.6850  226.6090 C   0  0  0  0  0  0  0  0  0  0  0  0
  140.5490   69.8630  227.9520 C   0  0  0  0  0  0  0  0  0  0  0  0
  141.1130   71.0680  228.3800 C   0  0  0  0  0  0  0  0  0  0  0  0
  141.3270   72.1010  227.4680 C   0  0  0  0  0  0  0  0  0  0  0  0
  140.9760   71.9360  226.1260 C   0  0  0  0  0  0  0  0  0  0  0  0
  140.3970   70.7340  225.6810 C   0  0  0  0  0  0  0  0  0  0  0  0
  140.0380   70.5830  224.2230 C   0  0  0  0  0  0  0  0  0  0  0  0
  140.0780   71.8850  223.5730 N   0  0  0  0  0  0  0  0  0  0  0  0
  139.2770   72.2670  222.4480 C   0  0  0  0  0  0  0  0  0  0  0  0
  138.0260   72.1530  222.5330 O   0  0  0  0  0  0  0  0  0  0  0  0
  139.8860   72.7120  221.1440 C   0  0  0  0  0  0  0  0  0  0  0  0
  139.8230   74.1690  221.0090 N   0  0  0  0  0  0  0  0  0  0  0  0
  140.7370   75.0240  221.3730 C   0  0  0  0  0  0  0  0  0  0  0  0
  142.0800   74.6820  221.2290 O   0  0  0  0  0  0  0  0  0  0  0  0
  140.4160   76.3580  221.9100 C   0  0  0  0  0  0  0  0  0  0  0  0
  139.1040   76.6920  222.2780 C   0  0  0  0  0  0  0  0  0  0  0  0
  138.8390   77.9500  222.8240 C   0  0  0  0  0  0  0  0  0  0  0  0
  139.8870   78.8560  223.0260 C   0  0  0  0  0  0  0  0  0  0  0  0
  139.6570   80.1240  223.5800 C   0  0  0  0  0  0  0  0  0  0  0  0
  140.7290   81.0010  223.7810 C   0  0  0  0  0  0  0  0  0  0  0  0
  142.0290   80.6170  223.4310 C   0  0  0  0  0  0  0  0  0  0  0  0
  142.2650   79.3550  222.8780 C   0  0  0  0  0  0  0  0  0  0  0  0
  141.1990   78.4710  222.6720 C   0  0  0  0  0  0  0  0  0  0  0  0
  141.4260   77.2420  222.1340 N   0  0  0  0  0  0  0  0  0  0  0  0
  140.3837   69.0497  228.6739 H   0  0  0  0  0  0  0  0  0  0  0  0
  141.3882   71.2016  229.4366 H   0  0  0  0  0  0  0  0  0  0  0  0
  141.7732   73.0479  227.8061 H   0  0  0  0  0  0  0  0  0  0  0  0
  141.1539   72.7530  225.4113 H   0  0  0  0  0  0  0  0  0  0  0  0
  140.7582   69.9087  223.7366 H   0  0  0  0  0  0  0  0  0  0  0  0
  139.0249   70.1631  224.1378 H   0  0  0  0  0  0  0  0  0  0  0  0
  140.9379   72.3921  221.1099 H   0  0  0  0  0  0  0  0  0  0  0  0
  139.3196   72.2573  220.3179 H   0  0  0  0  0  0  0  0  0  0  0  0
  142.8160   75.3190  221.5090 H   0  0  0  0  0  0  0  0  0  0  0  0
  138.2886   75.9672  222.1373 H   0  0  0  0  0  0  0  0  0  0  0  0
  137.8097   78.2281  223.0946 H   0  0  0  0  0  0  0  0  0  0  0  0
  138.6365   80.4283  223.8558 H   0  0  0  0  0  0  0  0  0  0  0  0
  140.5495   81.9955  224.2155 H   0  0  0  0  0  0  0  0  0  0  0  0
  142.8675   81.3106  223.5917 H   0  0  0  0  0  0  0  0  0  0  0  0
  143.2879   79.0566  222.6048 H   0  0  0  0  0  0  0  0  0  0  0  0
  1  2  3  0
  2  3  1  0
  3  4  2  0
  4  5  1  0
  5  6  2  0
  6  7  1  0
  7  8  2  0
  8  9  1  0
  9 10  1  0
 10 11  1  0
 11 12  2  0
 11 13  1  0
 13 14  1  0
 14 15  2  0
 15 16  1  0
 15 17  1  0
 17 18  2  0
 18 19  1  0
 19 20  2  0
 20 21  1  0
 21 22  2  0
 22 23  1  0
 23 24  2  0
 24 25  1  0
 25 26  2  0
  8  3  1  0
 26 17  1  0
 25 20  1  0
  4 27  1  0
  5 28  1  0
  6 29  1  0
  7 30  1  0
  9 31  1  0
  9 32  1  0
 13 33  1  0
 13 34  1  0
 16 35  1  0
 18 36  1  0
 19 37  1  0
 21 38  1  0
 22 39  1  0
 23 40  1  0
 24 41  1  0
M  CHG  1  10  -1
M  END
>  <meeko>  (4) 
{"free_energy": -7.83, "intermolecular_energy": -10.52, "internal_energy": -0.99, "cluster_size": 16, "cluster_id": 1, "rank_in_cluster": 11}

$$$$

     RDKit          3D

 41 43  0  0  0  0  0  0  0  0999 V2000
  141.1230   72.3940  226.9070 N   0  0  0  0  0  0  0  0  0  0  0  0
  140.7940   71.3370  226.5660 C   0  0  0  0  0  0  0  0  0  0  0  0
  140.3850   70.0170  226.1500 C   0  0  0  0  0  0  0  0  0  0  0  0
  140.9800   68.9060  226.7640 C   0  0  0  0  0  0  0  0  0  0  0  0
  140.5940   67.6120  226.4060 C   0  0  0  0  0  0  0  0  0  0  0  0
  139.6110   67.4180  225.4350 C   0  0  0  0  0  0  0  0  0  0  0  0
  139.0110   68.5180  224.8170 C   0  0  0  0  0  0  0  0  0  0  0  0
  139.3960   69.8280  225.1560 C   0  0  0  0  0  0  0  0  0  0  0  0
  138.7230   70.9950  224.4770 C   0  0  0  0  0  0  0  0  0  0  0  0
  139.1840   71.0900  223.0990 N   0  0  0  0  0  0  0  0  0  0  0  0
  140.3320   71.8290  222.6660 C   0  0  0  0  0  0  0  0  0  0  0  0
  141.0710   72.3590  223.5380 O   0  0  0  0  0  0  0  0  0  0  0  0
  140.6320   72.0650  221.2090 C   0  0  0  0  0  0  0  0  0  0  0  0
  140.8620   73.4880  220.9480 N   0  0  0  0  0  0  0  0  0  0  0  0
  140.3240   74.4930  221.5820 C   0  0  0  0  0  0  0  0  0  0  0  0
  139.2150   74.2650  222.3920 O   0  0  0  0  0  0  0  0  0  0  0  0
  140.8540   75.8650  221.5030 C   0  0  0  0  0  0  0  0  0  0  0  0
  141.1800   76.4440  220.2670 C   0  0  0  0  0  0  0  0  0  0  0  0
  141.6400   77.7620  220.2220 C   0  0  0  0  0  0  0  0  0  0  0  0
  141.7440   78.5030  221.4050 C   0  0  0  0  0  0  0  0  0  0  0  0
  142.1940   79.8320  221.3950 C   0  0  0  0  0  0  0  0  0  0  0  0
  142.2740   80.5500  222.5930 C   0  0  0  0  0  0  0  0  0  0  0  0
  141.9080   79.9470  223.8020 C   0  0  0  0  0  0  0  0  0  0  0  0
  141.4580   78.6220  223.8200 C   0  0  0  0  0  0  0  0  0  0  0  0
  141.3760   77.8960  222.6260 C   0  0  0  0  0  0  0  0  0  0  0  0
  140.9400   76.6070  222.6400 N   0  0  0  0  0  0  0  0  0  0  0  0
  141.7543   69.0538  227.5312 H   0  0  0  0  0  0  0  0  0  0  0  0
  141.0659   66.7445  226.8905 H   0  0  0  0  0  0  0  0  0  0  0  0
  139.3081   66.3980  225.1558 H   0  0  0  0  0  0  0  0  0  0  0  0
  138.2305   68.3584  224.0585 H   0  0  0  0  0  0  0  0  0  0  0  0
  137.6331   70.8469  224.4891 H   0  0  0  0  0  0  0  0  0  0  0  0
  138.9742   71.9232  225.0112 H   0  0  0  0  0  0  0  0  0  0  0  0
  141.5319   71.4973  220.9297 H   0  0  0  0  0  0  0  0  0  0  0  0
  139.7689   71.7328  220.6135 H   0  0  0  0  0  0  0  0  0  0  0  0
  139.1950   73.4950  223.0510 H   0  0  0  0  0  0  0  0  0  0  0  0
  141.0738   75.8632  219.3389 H   0  0  0  0  0  0  0  0  0  0  0  0
  141.9197   78.2163  219.2600 H   0  0  0  0  0  0  0  0  0  0  0  0
  142.4834   80.3085  220.4468 H   0  0  0  0  0  0  0  0  0  0  0  0
  142.6258   81.5922  222.5848 H   0  0  0  0  0  0  0  0  0  0  0  0
  141.9743   80.5164  224.7409 H   0  0  0  0  0  0  0  0  0  0  0  0
  141.1690   78.1515  224.7714 H   0  0  0  0  0  0  0  0  0  0  0  0
  1  2  3  0
  2  3  1  0
  3  4  2  0
  4  5  1  0
  5  6  2  0
  6  7  1  0
  7  8  2  0
  8  9  1  0
  9 10  1  0
 10 11  1  0
 11 12  2  0
 11 13  1  0
 13 14  1  0
 14 15  2  0
 15 16  1  0
 15 17  1  0
 17 18  2  0
 18 19  1  0
 19 20  2  0
 20 21  1  0
 21 22  2  0
 22 23  1  0
 23 24  2  0
 24 25  1  0
 25 26  2  0
  8  3  1  0
 26 17  1  0
 25 20  1  0
  4 27  1  0
  5 28  1  0
  6 29  1  0
  7 30  1  0
  9 31  1  0
  9 32  1  0
 13 33  1  0
 13 34  1  0
 16 35  1  0
 18 36  1  0
 19 37  1  0
 21 38  1  0
 22 39  1  0
 23 40  1  0
 24 41  1  0
M  CHG  1  10  -1
M  END
>  <meeko>  (5) 
{"free_energy": -7.24, "intermolecular_energy": -9.93, "internal_energy": -1.56, "cluster_size": 16, "cluster_id": 1, "rank_in_cluster": 15}

$$$$

     RDKit          3D

 41 43  0  0  0  0  0  0  0  0999 V2000
  139.2070   67.3190  225.9930 N   0  0  0  0  0  0  0  0  0  0  0  0
  139.6340   68.3540  226.2920 C   0  0  0  0  0  0  0  0  0  0  0  0
  140.1620   69.6470  226.6560 C   0  0  0  0  0  0  0  0  0  0  0  0
  140.6590   69.8270  227.9540 C   0  0  0  0  0  0  0  0  0  0  0  0
  141.2000   71.0570  228.3390 C   0  0  0  0  0  0  0  0  0  0  0  0
  141.2510   72.1130  227.4290 C   0  0  0  0  0  0  0  0  0  0  0  0
  140.7590   71.9450  226.1320 C   0  0  0  0  0  0  0  0  0  0  0  0
  140.2000   70.7180  225.7320 C   0  0  0  0  0  0  0  0  0  0  0  0
  139.6860   70.5650  224.3220 C   0  0  0  0  0  0  0  0  0  0  0  0
  140.3930   71.4850  223.4420 N   0  0  0  0  0  0  0  0  0  0  0  0
  140.3630   71.4390  222.0110 C   0  0  0  0  0  0  0  0  0  0  0  0
  139.9140   70.4040  221.4500 O   0  0  0  0  0  0  0  0  0  0  0  0
  140.9300   72.5460  221.1600 C   0  0  0  0  0  0  0  0  0  0  0  0
  141.1310   73.7620  221.9510 N   0  0  0  0  0  0  0  0  0  0  0  0
  140.3610   74.8140  221.9690 C   0  0  0  0  0  0  0  0  0  0  0  0
  138.9950   74.6500  222.1850 O   0  0  0  0  0  0  0  0  0  0  0  0
  140.8760   76.1840  221.7970 C   0  0  0  0  0  0  0  0  0  0  0  0
  141.1160   76.7110  220.5190 C   0  0  0  0  0  0  0  0  0  0  0  0
  141.5630   78.0280  220.3880 C   0  0  0  0  0  0  0  0  0  0  0  0
  141.7390   78.8200  221.5290 C   0  0  0  0  0  0  0  0  0  0  0  0
  142.1780   80.1480  221.4320 C   0  0  0  0  0  0  0  0  0  0  0  0
  142.3320   80.9170  222.5920 C   0  0  0  0  0  0  0  0  0  0  0  0
  142.0500   80.3650  223.8460 C   0  0  0  0  0  0  0  0  0  0  0  0
  141.6110   79.0410  223.9500 C   0  0  0  0  0  0  0  0  0  0  0  0
  141.4560   78.2630  222.7960 C   0  0  0  0  0  0  0  0  0  0  0  0
  141.0310   76.9750  222.8930 N   0  0  0  0  0  0  0  0  0  0  0  0
  140.6231   68.9958  228.6736 H   0  0  0  0  0  0  0  0  0  0  0  0
  141.5858   71.1923  229.3602 H   0  0  0  0  0  0  0  0  0  0  0  0
  141.6792   73.0796  227.7329 H   0  0  0  0  0  0  0  0  0  0  0  0
  140.8093   72.7798  225.4175 H   0  0  0  0  0  0  0  0  0  0  0  0
  139.8523   69.5322  223.9818 H   0  0  0  0  0  0  0  0  0  0  0  0
  138.6098   70.7915  224.2988 H   0  0  0  0  0  0  0  0  0  0  0  0
  141.8959   72.2225  220.7449 H   0  0  0  0  0  0  0  0  0  0  0  0
  140.2187   72.7667  220.3505 H   0  0  0  0  0  0  0  0  0  0  0  0
  138.6490   74.1270  222.9790 H   0  0  0  0  0  0  0  0  0  0  0  0
  140.9531   76.0907  219.6253 H   0  0  0  0  0  0  0  0  0  0  0  0
  141.7761   78.4416  219.3912 H   0  0  0  0  0  0  0  0  0  0  0  0
  142.4008   80.5846  220.4473 H   0  0  0  0  0  0  0  0  0  0  0  0
  142.6760   81.9591  222.5169 H   0  0  0  0  0  0  0  0  0  0  0  0
  142.1739   80.9742  224.7534 H   0  0  0  0  0  0  0  0  0  0  0  0
  141.3876   78.6112  224.9376 H   0  0  0  0  0  0  0  0  0  0  0  0
  1  2  3  0
  2  3  1  0
  3  4  2  0
  4  5  1  0
  5  6  2  0
  6  7  1  0
  7  8  2  0
  8  9  1  0
  9 10  1  0
 10 11  1  0
 11 12  2  0
 11 13  1  0
 13 14  1  0
 14 15  2  0
 15 16  1  0
 15 17  1  0
 17 18  2  0
 18 19  1  0
 19 20  2  0
 20 21  1  0
 21 22  2  0
 22 23  1  0
 23 24  2  0
 24 25  1  0
 25 26  2  0
  8  3  1  0
 26 17  1  0
 25 20  1  0
  4 27  1  0
  5 28  1  0
  6 29  1  0
  7 30  1  0
  9 31  1  0
  9 32  1  0
 13 33  1  0
 13 34  1  0
 16 35  1  0
 18 36  1  0
 19 37  1  0
 21 38  1  0
 22 39  1  0
 23 40  1  0
 24 41  1  0
M  CHG  1  10  -1
M  END
>  <meeko>  (6) 
{"free_energy": -8.69, "intermolecular_energy": -11.37, "internal_energy": -0.68, "cluster_size": 16, "cluster_id": 1, "rank_in_cluster": 3}

$$$$

     RDKit          3D

 41 43  0  0  0  0  0  0  0  0999 V2000
  139.2100   67.5900  225.1240 N   0  0  0  0  0  0  0  0  0  0  0  0
  139.6020   68.5500  225.6390 C   0  0  0  0  0  0  0  0  0  0  0  0
  140.0980   69.7440  226.2820 C   0  0  0  0  0  0  0  0  0  0  0  0
  140.1030   69.8000  227.6820 C   0  0  0  0  0  0  0  0  0  0  0  0
  140.5980   70.9280  228.3410 C   0  0  0  0  0  0  0  0  0  0  0  0
  141.0930   72.0060  227.6070 C   0  0  0  0  0  0  0  0  0  0  0  0
  141.0940   71.9610  226.2110 C   0  0  0  0  0  0  0  0  0  0  0  0
  140.5880   70.8390  225.5300 C   0  0  0  0  0  0  0  0  0  0  0  0
  140.6110   70.8170  224.0220 C   0  0  0  0  0  0  0  0  0  0  0  0
  139.8190   71.9250  223.5060 N   0  0  0  0  0  0  0  0  0  0  0  0
  139.6300   72.2230  222.1180 C   0  0  0  0  0  0  0  0  0  0  0  0
  138.4830   72.0720  221.6190 O   0  0  0  0  0  0  0  0  0  0  0  0
  140.7720   72.6210  221.2190 C   0  0  0  0  0  0  0  0  0  0  0  0
  141.2520   73.9650  221.5490 N   0  0  0  0  0  0  0  0  0  0  0  0
  140.5180   75.0040  221.8390 C   0  0  0  0  0  0  0  0  0  0  0  0
  139.2340   74.8060  222.3410 O   0  0  0  0  0  0  0  0  0  0  0  0
  140.9970   76.3890  221.6840 C   0  0  0  0  0  0  0  0  0  0  0  0
  141.3270   76.9030  220.4220 C   0  0  0  0  0  0  0  0  0  0  0  0
  141.7360   78.2330  220.3040 C   0  0  0  0  0  0  0  0  0  0  0  0
  141.7850   79.0500  221.4400 C   0  0  0  0  0  0  0  0  0  0  0  0
  142.1840   80.3920  221.3550 C   0  0  0  0  0  0  0  0  0  0  0  0
  142.2100   81.1850  222.5080 C   0  0  0  0  0  0  0  0  0  0  0  0
  141.8400   80.6430  223.7440 C   0  0  0  0  0  0  0  0  0  0  0  0
  141.4420   79.3060  223.8360 C   0  0  0  0  0  0  0  0  0  0  0  0
  141.4140   78.5040  222.6890 C   0  0  0  0  0  0  0  0  0  0  0  0
  141.0290   77.2020  222.7740 N   0  0  0  0  0  0  0  0  0  0  0  0
  139.7153   68.9517  228.2651 H   0  0  0  0  0  0  0  0  0  0  0  0
  140.5974   70.9662  229.4403 H   0  0  0  0  0  0  0  0  0  0  0  0
  141.4831   72.8926  228.1283 H   0  0  0  0  0  0  0  0  0  0  0  0
  141.4942   72.8109  225.6388 H   0  0  0  0  0  0  0  0  0  0  0  0
  141.6487   70.9134  223.6701 H   0  0  0  0  0  0  0  0  0  0  0  0
  140.1879   69.8670  223.6636 H   0  0  0  0  0  0  0  0  0  0  0  0
  141.5961   71.9033  221.3442 H   0  0  0  0  0  0  0  0  0  0  0  0
  140.4170   72.6200  220.1779 H   0  0  0  0  0  0  0  0  0  0  0  0
  138.9800   73.9440  222.8060 H   0  0  0  0  0  0  0  0  0  0  0  0
  141.2641   76.2624  219.5300 H   0  0  0  0  0  0  0  0  0  0  0  0
  142.0189   78.6378  219.3211 H   0  0  0  0  0  0  0  0  0  0  0  0
  142.4757   80.8201  220.3846 H   0  0  0  0  0  0  0  0  0  0  0  0
  142.5223   82.2377  222.4424 H   0  0  0  0  0  0  0  0  0  0  0  0
  141.8624   81.2713  224.6466 H   0  0  0  0  0  0  0  0  0  0  0  0
  141.1509   78.8843  224.8094 H   0  0  0  0  0  0  0  0  0  0  0  0
  1  2  3  0
  2  3  1  0
  3  4  2  0
  4  5  1  0
  5  6  2  0
  6  7  1  0
  7  8  2  0
  8  9  1  0
  9 10  1  0
 10 11  1  0
 11 12  2  0
 11 13  1  0
 13 14  1  0
 14 15  2  0
 15 16  1  0
 15 17  1  0
 17 18  2  0
 18 19  1  0
 19 20  2  0
 20 21  1  0
 21 22  2  0
 22 23  1  0
 23 24  2  0
 24 25  1  0
 25 26  2  0
  8  3  1  0
 26 17  1  0
 25 20  1  0
  4 27  1  0
  5 28  1  0
  6 29  1  0
  7 30  1  0
  9 31  1  0
  9 32  1  0
 13 33  1  0
 13 34  1  0
 16 35  1  0
 18 36  1  0
 19 37  1  0
 21 38  1  0
 22 39  1  0
 23 40  1  0
 24 41  1  0
M  CHG  1  10  -1
M  END
>  <meeko>  (7) 
{"free_energy": -8.5, "intermolecular_energy": -11.19, "internal_energy": -1.3, "cluster_size": 16, "cluster_id": 1, "rank_in_cluster": 9}

$$$$

     RDKit          3D

 41 43  0  0  0  0  0  0  0  0999 V2000
  139.1870   67.4530  225.4410 N   0  0  0  0  0  0  0  0  0  0  0  0
  139.6160   68.4420  225.8640 C   0  0  0  0  0  0  0  0  0  0  0  0
  140.1540   69.6710  226.3990 C   0  0  0  0  0  0  0  0  0  0  0  0
  140.3430   69.7740  227.7840 C   0  0  0  0  0  0  0  0  0  0  0  0
  140.8840   70.9370  228.3370 C   0  0  0  0  0  0  0  0  0  0  0  0
  141.2420   72.0030  227.5120 C   0  0  0  0  0  0  0  0  0  0  0  0
  141.0590   71.9110  226.1300 C   0  0  0  0  0  0  0  0  0  0  0  0
  140.5050   70.7520  225.5570 C   0  0  0  0  0  0  0  0  0  0  0  0
  140.3290   70.6800  224.0600 C   0  0  0  0  0  0  0  0  0  0  0  0
  139.0380   71.2470  223.6930 N   0  0  0  0  0  0  0  0  0  0  0  0
  138.1820   70.7400  222.6630 C   0  0  0  0  0  0  0  0  0  0  0  0
  137.9220   69.5080  222.6470 O   0  0  0  0  0  0  0  0  0  0  0  0
  137.6600   71.6130  221.5510 C   0  0  0  0  0  0  0  0  0  0  0  0
  138.7550   72.3250  220.8880 N   0  0  0  0  0  0  0  0  0  0  0  0
  139.8270   72.8040  221.4540 C   0  0  0  0  0  0  0  0  0  0  0  0
  139.6910   73.6920  222.5190 O   0  0  0  0  0  0  0  0  0  0  0  0
  141.1880   72.4270  221.0360 C   0  0  0  0  0  0  0  0  0  0  0  0
  141.4480   71.1710  220.4680 C   0  0  0  0  0  0  0  0  0  0  0  0
  142.7410   70.8600  220.0420 C   0  0  0  0  0  0  0  0  0  0  0  0
  143.7600   71.8120  220.1580 C   0  0  0  0  0  0  0  0  0  0  0  0
  145.0670   71.5360  219.7330 C   0  0  0  0  0  0  0  0  0  0  0  0
  146.0610   72.5150  219.8510 C   0  0  0  0  0  0  0  0  0  0  0  0
  145.7540   73.7680  220.3930 C   0  0  0  0  0  0  0  0  0  0  0  0
  144.4520   74.0510  220.8190 C   0  0  0  0  0  0  0  0  0  0  0  0
  143.4520   73.0770  220.7060 C   0  0  0  0  0  0  0  0  0  0  0  0
  142.1860   73.3490  221.1210 N   0  0  0  0  0  0  0  0  0  0  0  0
  140.0640   68.9351  228.4385 H   0  0  0  0  0  0  0  0  0  0  0  0
  141.0279   71.0122  229.4250 H   0  0  0  0  0  0  0  0  0  0  0  0
  141.6690   72.9173  227.9499 H   0  0  0  0  0  0  0  0  0  0  0  0
  141.3507   72.7524  225.4843 H   0  0  0  0  0  0  0  0  0  0  0  0
  141.1320   71.2493  223.5690 H   0  0  0  0  0  0  0  0  0  0  0  0
  140.3724   69.6295  223.7367 H   0  0  0  0  0  0  0  0  0  0  0  0
  137.1403   70.9842  220.8131 H   0  0  0  0  0  0  0  0  0  0  0  0
  136.9684   72.3529  221.9801 H   0  0  0  0  0  0  0  0  0  0  0  0
  139.2730   73.4010  223.3940 H   0  0  0  0  0  0  0  0  0  0  0  0
  140.6378   70.4351  220.3588 H   0  0  0  0  0  0  0  0  0  0  0  0
  142.9579   69.8692  219.6163 H   0  0  0  0  0  0  0  0  0  0  0  0
  145.3114   70.5516  219.3074 H   0  0  0  0  0  0  0  0  0  0  0  0
  147.0863   72.2985  219.5166 H   0  0  0  0  0  0  0  0  0  0  0  0
  146.5391   74.5330  220.4844 H   0  0  0  0  0  0  0  0  0  0  0  0
  144.2137   75.0379  221.2425 H   0  0  0  0  0  0  0  0  0  0  0  0
  1  2  3  0
  2  3  1  0
  3  4  2  0
  4  5  1  0
  5  6  2  0
  6  7  1  0
  7  8  2  0
  8  9  1  0
  9 10  1  0
 10 11  1  0
 11 12  2  0
 11 13  1  0
 13 14  1  0
 14 15  2  0
 15 16  1  0
 15 17  1  0
 17 18  2  0
 18 19  1  0
 19 20  2  0
 20 21  1  0
 21 22  2  0
 22 23  1  0
 23 24  2  0
 24 25  1  0
 25 26  2  0
  8  3  1  0
 26 17  1  0
 25 20  1  0
  4 27  1  0
  5 28  1  0
  6 29  1  0
  7 30  1  0
  9 31  1  0
  9 32  1  0
 13 33  1  0
 13 34  1  0
 16 35  1  0
 18 36  1  0
 19 37  1  0
 21 38  1  0
 22 39  1  0
 23 40  1  0
 24 41  1  0
M  CHG  1  10  -1
M  END
>  <meeko>  (8) 
{"free_energy": -7.12, "intermolecular_energy": -9.8, "internal_energy": -1.75, "cluster_size": 1, "cluster_id": 3, "rank_in_cluster": 1}

$$$$

     RDKit          3D

 41 43  0  0  0  0  0  0  0  0999 V2000
  139.2050   67.3610  226.0180 N   0  0  0  0  0  0  0  0  0  0  0  0
  139.6600   68.3870  226.3050 C   0  0  0  0  0  0  0  0  0  0  0  0
  140.2240   69.6700  226.6540 C   0  0  0  0  0  0  0  0  0  0  0  0
  140.5360   69.9220  227.9960 C   0  0  0  0  0  0  0  0  0  0  0  0
  141.1050   71.1420  228.3710 C   0  0  0  0  0  0  0  0  0  0  0  0
  141.3690   72.1160  227.4070 C   0  0  0  0  0  0  0  0  0  0  0  0
  141.0620   71.8750  226.0660 C   0  0  0  0  0  0  0  0  0  0  0  0
  140.4770   70.6570  225.6730 C   0  0  0  0  0  0  0  0  0  0  0  0
  140.1660   70.4240  224.2150 C   0  0  0  0  0  0  0  0  0  0  0  0
  139.7090   71.6660  223.6080 N   0  0  0  0  0  0  0  0  0  0  0  0
  140.1820   72.1950  222.3640 C   0  0  0  0  0  0  0  0  0  0  0  0
  141.3640   71.9400  222.0110 O   0  0  0  0  0  0  0  0  0  0  0  0
  139.3460   73.1160  221.5130 C   0  0  0  0  0  0  0  0  0  0  0  0
  139.3930   74.4870  222.0270 N   0  0  0  0  0  0  0  0  0  0  0  0
  140.4020   75.3100  221.9560 C   0  0  0  0  0  0  0  0  0  0  0  0
  141.6220   74.8450  221.4710 O   0  0  0  0  0  0  0  0  0  0  0  0
  140.3050   76.7290  222.3420 C   0  0  0  0  0  0  0  0  0  0  0  0
  139.0650   77.3150  222.6360 C   0  0  0  0  0  0  0  0  0  0  0  0
  139.0110   78.6500  223.0410 C   0  0  0  0  0  0  0  0  0  0  0  0
  140.1950   79.3840  223.1800 C   0  0  0  0  0  0  0  0  0  0  0  0
  140.1770   80.7240  223.5920 C   0  0  0  0  0  0  0  0  0  0  0  0
  141.3800   81.4260  223.7340 C   0  0  0  0  0  0  0  0  0  0  0  0
  142.5990   80.7950  223.4640 C   0  0  0  0  0  0  0  0  0  0  0  0
  142.6250   79.4590  223.0510 C   0  0  0  0  0  0  0  0  0  0  0  0
  141.4270   78.7490  222.9060 C   0  0  0  0  0  0  0  0  0  0  0  0
  141.4470   77.4500  222.5040 N   0  0  0  0  0  0  0  0  0  0  0  0
  140.3321   69.1558  228.7585 H   0  0  0  0  0  0  0  0  0  0  0  0
  141.3450   71.3348  229.4270 H   0  0  0  0  0  0  0  0  0  0  0  0
  141.8194   73.0747  227.7037 H   0  0  0  0  0  0  0  0  0  0  0  0
  141.2794   72.6442  225.3103 H   0  0  0  0  0  0  0  0  0  0  0  0
  141.0727   70.0761  223.6984 H   0  0  0  0  0  0  0  0  0  0  0  0
  139.3769   69.6627  224.1272 H   0  0  0  0  0  0  0  0  0  0  0  0
  139.7316   73.1039  220.4829 H   0  0  0  0  0  0  0  0  0  0  0  0
  138.3031   72.7669  221.5363 H   0  0  0  0  0  0  0  0  0  0  0  0
  142.4730   75.3780  221.5960 H   0  0  0  0  0  0  0  0  0  0  0  0
  138.1402   76.7260  222.5480 H   0  0  0  0  0  0  0  0  0  0  0  0
  138.0406   79.1239  223.2503 H   0  0  0  0  0  0  0  0  0  0  0  0
  139.2196   81.2228  223.8033 H   0  0  0  0  0  0  0  0  0  0  0  0
  141.3666   82.4769  224.0588 H   0  0  0  0  0  0  0  0  0  0  0  0
  143.5409   81.3518  223.5770 H   0  0  0  0  0  0  0  0  0  0  0  0
  143.5858   78.9665  222.8403 H   0  0  0  0  0  0  0  0  0  0  0  0
  1  2  3  0
  2  3  1  0
  3  4  2  0
  4  5  1  0
  5  6  2  0
  6  7  1  0
  7  8  2  0
  8  9  1  0
  9 10  1  0
 10 11  1  0
 11 12  2  0
 11 13  1  0
 13 14  1  0
 14 15  2  0
 15 16  1  0
 15 17  1  0
 17 18  2  0
 18 19  1  0
 19 20  2  0
 20 21  1  0
 21 22  2  0
 22 23  1  0
 23 24  2  0
 24 25  1  0
 25 26  2  0
  8  3  1  0
 26 17  1  0
 25 20  1  0
  4 27  1  0
  5 28  1  0
  6 29  1  0
  7 30  1  0
  9 31  1  0
  9 32  1  0
 13 33  1  0
 13 34  1  0
 16 35  1  0
 18 36  1  0
 19 37  1  0
 21 38  1  0
 22 39  1  0
 23 40  1  0
 24 41  1  0
M  CHG  1  10  -1
M  END
>  <meeko>  (9) 
{"free_energy": -8.69, "intermolecular_energy": -11.37, "internal_energy": -0.9, "cluster_size": 16, "cluster_id": 1, "rank_in_cluster": 2}

$$$$

     RDKit          3D

 41 43  0  0  0  0  0  0  0  0999 V2000
  139.1630   67.3670  226.0870 N   0  0  0  0  0  0  0  0  0  0  0  0
  139.6170   68.4050  226.3290 C   0  0  0  0  0  0  0  0  0  0  0  0
  140.1870   69.6940  226.6380 C   0  0  0  0  0  0  0  0  0  0  0  0
  140.5800   69.9550  227.9580 C   0  0  0  0  0  0  0  0  0  0  0  0
  141.1580   71.1830  228.2920 C   0  0  0  0  0  0  0  0  0  0  0  0
  141.3490   72.1560  227.3120 C   0  0  0  0  0  0  0  0  0  0  0  0
  140.9610   71.9070  225.9930 C   0  0  0  0  0  0  0  0  0  0  0  0
  140.3670   70.6810  225.6410 C   0  0  0  0  0  0  0  0  0  0  0  0
  139.9680   70.4400  224.2060 C   0  0  0  0  0  0  0  0  0  0  0  0
  140.2160   71.6410  223.4210 N   0  0  0  0  0  0  0  0  0  0  0  0
  140.6390   71.6550  222.0520 C   0  0  0  0  0  0  0  0  0  0  0  0
  140.1320   70.8200  221.2560 O   0  0  0  0  0  0  0  0  0  0  0  0
  141.7290   72.5710  221.5580 C   0  0  0  0  0  0  0  0  0  0  0  0
  141.1630   73.7980  220.9920 N   0  0  0  0  0  0  0  0  0  0  0  0
  140.5920   74.7670  221.6510 C   0  0  0  0  0  0  0  0  0  0  0  0
  139.5100   74.4780  222.4790 O   0  0  0  0  0  0  0  0  0  0  0  0
  141.0600   76.1630  221.5830 C   0  0  0  0  0  0  0  0  0  0  0  0
  141.3960   76.7540  220.3560 C   0  0  0  0  0  0  0  0  0  0  0  0
  141.7940   78.0920  220.3200 C   0  0  0  0  0  0  0  0  0  0  0  0
  141.8250   78.8410  221.5030 C   0  0  0  0  0  0  0  0  0  0  0  0
  142.2120   80.1890  221.5010 C   0  0  0  0  0  0  0  0  0  0  0  0
  142.2200   80.9130  222.6990 C   0  0  0  0  0  0  0  0  0  0  0  0
  141.8450   80.2960  223.8970 C   0  0  0  0  0  0  0  0  0  0  0  0
  141.4580   78.9520  223.9070 C   0  0  0  0  0  0  0  0  0  0  0  0
  141.4480   78.2190  222.7140 C   0  0  0  0  0  0  0  0  0  0  0  0
  141.0740   76.9110  222.7190 N   0  0  0  0  0  0  0  0  0  0  0  0
  140.4328   69.1899  228.7345 H   0  0  0  0  0  0  0  0  0  0  0  0
  141.4628   71.3821  229.3300 H   0  0  0  0  0  0  0  0  0  0  0  0
  141.8057   73.1209  227.5775 H   0  0  0  0  0  0  0  0  0  0  0  0
  141.1213   72.6761  225.2231 H   0  0  0  0  0  0  0  0  0  0  0  0
  140.5586   69.6070  223.7969 H   0  0  0  0  0  0  0  0  0  0  0  0
  138.8978   70.1897  224.1619 H   0  0  0  0  0  0  0  0  0  0  0  0
  142.3883   72.8327  222.3988 H   0  0  0  0  0  0  0  0  0  0  0  0
  142.2968   72.0506  220.7727 H   0  0  0  0  0  0  0  0  0  0  0  0
  139.5140   73.6640  223.0810 H   0  0  0  0  0  0  0  0  0  0  0  0
  141.3462   76.1667  219.4273 H   0  0  0  0  0  0  0  0  0  0  0  0
  142.0823   78.5563  219.3654 H   0  0  0  0  0  0  0  0  0  0  0  0
  142.5085   80.6761  220.5604 H   0  0  0  0  0  0  0  0  0  0  0  0
  142.5222   81.9707  222.6983 H   0  0  0  0  0  0  0  0  0  0  0  0
  141.8545   80.8702  224.8352 H   0  0  0  0  0  0  0  0  0  0  0  0
  141.1618   78.4713  224.8510 H   0  0  0  0  0  0  0  0  0  0  0  0
  1  2  3  0
  2  3  1  0
  3  4  2  0
  4  5  1  0
  5  6  2  0
  6  7  1  0
  7  8  2  0
  8  9  1  0
  9 10  1  0
 10 11  1  0
 11 12  2  0
 11 13  1  0
 13 14  1  0
 14 15  2  0
 15 16  1  0
 15 17  1  0
 17 18  2  0
 18 19  1  0
 19 20  2  0
 20 21  1  0
 21 22  2  0
 22 23  1  0
 23 24  2  0
 24 25  1  0
 25 26  2  0
  8  3  1  0
 26 17  1  0
 25 20  1  0
  4 27  1  0
  5 28  1  0
  6 29  1  0
  7 30  1  0
  9 31  1  0
  9 32  1  0
 13 33  1  0
 13 34  1  0
 16 35  1  0
 18 36  1  0
 19 37  1  0
 21 38  1  0
 22 39  1  0
 23 40  1  0
 24 41  1  0
M  CHG  1  10  -1
M  END
>  <meeko>  (10) 
{"free_energy": -8.57, "intermolecular_energy": -11.26, "internal_energy": -1.41, "cluster_size": 16, "cluster_id": 1, "rank_in_cluster": 6}

$$$$

     RDKit          3D

 41 43  0  0  0  0  0  0  0  0999 V2000
  139.1560   67.3960  226.0930 N   0  0  0  0  0  0  0  0  0  0  0  0
  139.5930   68.4400  226.3400 C   0  0  0  0  0  0  0  0  0  0  0  0
  140.1420   69.7410  226.6390 C   0  0  0  0  0  0  0  0  0  0  0  0
  140.4030   70.0680  227.9760 C   0  0  0  0  0  0  0  0  0  0  0  0
  140.9560   71.3080  228.3040 C   0  0  0  0  0  0  0  0  0  0  0  0
  141.2560   72.2280  227.2990 C   0  0  0  0  0  0  0  0  0  0  0  0
  141.0020   71.9120  225.9620 C   0  0  0  0  0  0  0  0  0  0  0  0
  140.4330   70.6730  225.6150 C   0  0  0  0  0  0  0  0  0  0  0  0
  140.1790   70.3590  224.1620 C   0  0  0  0  0  0  0  0  0  0  0  0
  139.5280   71.4950  223.5230 N   0  0  0  0  0  0  0  0  0  0  0  0
  138.2980   71.4320  222.7910 C   0  0  0  0  0  0  0  0  0  0  0  0
  137.8650   72.4840  222.2500 O   0  0  0  0  0  0  0  0  0  0  0  0
  137.4670   70.1780  222.7250 C   0  0  0  0  0  0  0  0  0  0  0  0
  137.0190   69.7770  224.0610 N   0  0  0  0  0  0  0  0  0  0  0  0
  135.7940   69.7910  224.5080 C   0  0  0  0  0  0  0  0  0  0  0  0
  135.0820   68.5960  224.5680 O   0  0  0  0  0  0  0  0  0  0  0  0
  135.1310   71.0190  224.9820 C   0  0  0  0  0  0  0  0  0  0  0  0
  135.5090   72.2790  224.4960 C   0  0  0  0  0  0  0  0  0  0  0  0
  134.8320   73.4190  224.9330 C   0  0  0  0  0  0  0  0  0  0  0  0
  133.7640   73.2940  225.8290 C   0  0  0  0  0  0  0  0  0  0  0  0
  133.0580   74.4180  226.2820 C   0  0  0  0  0  0  0  0  0  0  0  0
  131.9860   74.2570  227.1680 C   0  0  0  0  0  0  0  0  0  0  0  0
  131.6190   72.9790  227.6040 C   0  0  0  0  0  0  0  0  0  0  0  0
  132.3190   71.8540  227.1570 C   0  0  0  0  0  0  0  0  0  0  0  0
  133.3930   72.0050  226.2720 C   0  0  0  0  0  0  0  0  0  0  0  0
  134.0770   70.9130  225.8360 N   0  0  0  0  0  0  0  0  0  0  0  0
  140.1713   69.3445  228.7715 H   0  0  0  0  0  0  0  0  0  0  0  0
  141.1552   71.5595  229.3562 H   0  0  0  0  0  0  0  0  0  0  0  0
  141.6930   73.2033  227.5596 H   0  0  0  0  0  0  0  0  0  0  0  0
  141.2491   72.6383  225.1737 H   0  0  0  0  0  0  0  0  0  0  0  0
  141.1357   70.1548  223.6589 H   0  0  0  0  0  0  0  0  0  0  0  0
  139.5279   69.4755  224.0876 H   0  0  0  0  0  0  0  0  0  0  0  0
  136.5876   70.3617  222.0903 H   0  0  0  0  0  0  0  0  0  0  0  0
  138.0829   69.3699  222.3035 H   0  0  0  0  0  0  0  0  0  0  0  0
  134.1920   68.5400  225.0480 H   0  0  0  0  0  0  0  0  0  0  0  0
  136.3344   72.3686  223.7744 H   0  0  0  0  0  0  0  0  0  0  0  0
  135.1371   74.4130  224.5741 H   0  0  0  0  0  0  0  0  0  0  0  0
  133.3459   75.4237  225.9420 H   0  0  0  0  0  0  0  0  0  0  0  0
  131.4305   75.1378  227.5225 H   0  0  0  0  0  0  0  0  0  0  0  0
  130.7766   72.8588  228.3011 H   0  0  0  0  0  0  0  0  0  0  0  0
  132.0259   70.8510  227.5006 H   0  0  0  0  0  0  0  0  0  0  0  0
  1  2  3  0
  2  3  1  0
  3  4  2  0
  4  5  1  0
  5  6  2  0
  6  7  1  0
  7  8  2  0
  8  9  1  0
  9 10  1  0
 10 11  1  0
 11 12  2  0
 11 13  1  0
 13 14  1  0
 14 15  2  0
 15 16  1  0
 15 17  1  0
 17 18  2  0
 18 19  1  0
 19 20  2  0
 20 21  1  0
 21 22  2  0
 22 23  1  0
 23 24  2  0
 24 25  1  0
 25 26  2  0
  8  3  1  0
 26 17  1  0
 25 20  1  0
  4 27  1  0
  5 28  1  0
  6 29  1  0
  7 30  1  0
  9 31  1  0
  9 32  1  0
 13 33  1  0
 13 34  1  0
 16 35  1  0
 18 36  1  0
 19 37  1  0
 21 38  1  0
 22 39  1  0
 23 40  1  0
 24 41  1  0
M  CHG  1  10  -1
M  END
>  <meeko>  (11) 
{"free_energy": -6.57, "intermolecular_energy": -9.25, "internal_energy": -1.47, "cluster_size": 1, "cluster_id": 4, "rank_in_cluster": 1}

$$$$

     RDKit          3D

 41 43  0  0  0  0  0  0  0  0999 V2000
  139.1990   67.7710  224.7010 N   0  0  0  0  0  0  0  0  0  0  0  0
  139.5840   68.6540  225.3450 C   0  0  0  0  0  0  0  0  0  0  0  0
  140.0670   69.7570  226.1410 C   0  0  0  0  0  0  0  0  0  0  0  0
  140.0410   69.6400  227.5370 C   0  0  0  0  0  0  0  0  0  0  0  0
  140.5220   70.6760  228.3420 C   0  0  0  0  0  0  0  0  0  0  0  0
  141.0350   71.8340  227.7570 C   0  0  0  0  0  0  0  0  0  0  0  0
  141.0660   71.9620  226.3670 C   0  0  0  0  0  0  0  0  0  0  0  0
  140.5750   70.9340  225.5420 C   0  0  0  0  0  0  0  0  0  0  0  0
  140.6310   71.0990  224.0430 C   0  0  0  0  0  0  0  0  0  0  0  0
  139.2970   70.9320  223.4830 N   0  0  0  0  0  0  0  0  0  0  0  0
  138.5720   71.9440  222.7750 C   0  0  0  0  0  0  0  0  0  0  0  0
  137.3910   72.2000  223.1320 O   0  0  0  0  0  0  0  0  0  0  0  0
  139.1400   72.6440  221.5680 C   0  0  0  0  0  0  0  0  0  0  0  0
  139.0990   74.0980  221.7400 N   0  0  0  0  0  0  0  0  0  0  0  0
  140.1160   74.8840  221.9590 C   0  0  0  0  0  0  0  0  0  0  0  0
  141.4060   74.3730  221.8340 O   0  0  0  0  0  0  0  0  0  0  0  0
  139.9650   76.3080  222.3080 C   0  0  0  0  0  0  0  0  0  0  0  0
  138.6960   76.8770  222.4870 C   0  0  0  0  0  0  0  0  0  0  0  0
  138.5870   78.2190  222.8600 C   0  0  0  0  0  0  0  0  0  0  0  0
  139.7440   78.9750  223.0820 C   0  0  0  0  0  0  0  0  0  0  0  0
  139.6710   80.3220  223.4660 C   0  0  0  0  0  0  0  0  0  0  0  0
  140.8460   81.0470  223.6920 C   0  0  0  0  0  0  0  0  0  0  0  0
  142.0940   80.4330  223.5360 C   0  0  0  0  0  0  0  0  0  0  0  0
  142.1750   79.0900  223.1530 C   0  0  0  0  0  0  0  0  0  0  0  0
  141.0040   78.3570  222.9230 C   0  0  0  0  0  0  0  0  0  0  0  0
  141.0790   77.0510  222.5500 N   0  0  0  0  0  0  0  0  0  0  0  0
  139.6397   68.7274  228.0019 H   0  0  0  0  0  0  0  0  0  0  0  0
  140.4961   70.5784  229.4374 H   0  0  0  0  0  0  0  0  0  0  0  0
  141.4157   72.6476  228.3919 H   0  0  0  0  0  0  0  0  0  0  0  0
  141.4782   72.8752  225.9129 H   0  0  0  0  0  0  0  0  0  0  0  0
  141.0073   72.1034  223.7991 H   0  0  0  0  0  0  0  0  0  0  0  0
  141.3037   70.3402  223.6168 H   0  0  0  0  0  0  0  0  0  0  0  0
  140.1838   72.3274  221.4260 H   0  0  0  0  0  0  0  0  0  0  0  0
  138.5347   72.3767  220.6893 H   0  0  0  0  0  0  0  0  0  0  0  0
  142.2180   74.9690  221.9380 H   0  0  0  0  0  0  0  0  0  0  0  0
  137.7913   76.2701  222.3346 H   0  0  0  0  0  0  0  0  0  0  0  0
  137.5953   78.6800  222.9788 H   0  0  0  0  0  0  0  0  0  0  0  0
  138.6917   80.8075  223.5893 H   0  0  0  0  0  0  0  0  0  0  0  0
  140.7888   82.1034  223.9934 H   0  0  0  0  0  0  0  0  0  0  0  0
  143.0142   81.0084  223.7151 H   0  0  0  0  0  0  0  0  0  0  0  0
  143.1575   78.6101  223.0326 H   0  0  0  0  0  0  0  0  0  0  0  0
  1  2  3  0
  2  3  1  0
  3  4  2  0
  4  5  1  0
  5  6  2  0
  6  7  1  0
  7  8  2  0
  8  9  1  0
  9 10  1  0
 10 11  1  0
 11 12  2  0
 11 13  1  0
 13 14  1  0
 14 15  2  0
 15 16  1  0
 15 17  1  0
 17 18  2  0
 18 19  1  0
 19 20  2  0
 20 21  1  0
 21 22  2  0
 22 23  1  0
 23 24  2  0
 24 25  1  0
 25 26  2  0
  8  3  1  0
 26 17  1  0
 25 20  1  0
  4 27  1  0
  5 28  1  0
  6 29  1  0
  7 30  1  0
  9 31  1  0
  9 32  1  0
 13 33  1  0
 13 34  1  0
 16 35  1  0
 18 36  1  0
 19 37  1  0
 21 38  1  0
 22 39  1  0
 23 40  1  0
 24 41  1  0
M  CHG  1  10  -1
M  END
>  <meeko>  (12) 
{"free_energy": -7.63, "intermolecular_energy": -10.31, "internal_energy": -1.01, "cluster_size": 16, "cluster_id": 1, "rank_in_cluster": 12}

$$$$

     RDKit          3D

 41 43  0  0  0  0  0  0  0  0999 V2000
  141.6940   72.8820  227.5630 N   0  0  0  0  0  0  0  0  0  0  0  0
  141.1970   71.8900  227.2280 C   0  0  0  0  0  0  0  0  0  0  0  0
  140.5700   70.6600  226.8080 C   0  0  0  0  0  0  0  0  0  0  0  0
  140.0120   69.8240  227.7850 C   0  0  0  0  0  0  0  0  0  0  0  0
  139.3750   68.6360  227.4160 C   0  0  0  0  0  0  0  0  0  0  0  0
  139.2890   68.2770  226.0710 C   0  0  0  0  0  0  0  0  0  0  0  0
  139.8410   69.1030  225.0890 C   0  0  0  0  0  0  0  0  0  0  0  0
  140.4960   70.2960  225.4430 C   0  0  0  0  0  0  0  0  0  0  0  0
  141.0740   71.1710  224.3580 C   0  0  0  0  0  0  0  0  0  0  0  0
  140.0190   71.9910  223.7780 N   0  0  0  0  0  0  0  0  0  0  0  0
  139.9520   72.3950  222.4060 C   0  0  0  0  0  0  0  0  0  0  0  0
  138.9540   72.0430  221.7220 O   0  0  0  0  0  0  0  0  0  0  0  0
  141.0740   73.1440  221.7340 C   0  0  0  0  0  0  0  0  0  0  0  0
  140.6820   74.5260  221.4490 N   0  0  0  0  0  0  0  0  0  0  0  0
  139.7170   75.1940  222.0190 C   0  0  0  0  0  0  0  0  0  0  0  0
  138.5300   74.5360  222.3300 O   0  0  0  0  0  0  0  0  0  0  0  0
  139.8350   76.6180  222.3780 C   0  0  0  0  0  0  0  0  0  0  0  0
  138.7030   77.3740  222.7180 C   0  0  0  0  0  0  0  0  0  0  0  0
  138.8520   78.7100  223.0950 C   0  0  0  0  0  0  0  0  0  0  0  0
  140.1310   79.2750  223.1600 C   0  0  0  0  0  0  0  0  0  0  0  0
  140.3180   80.6120  223.5440 C   0  0  0  0  0  0  0  0  0  0  0  0
  141.6110   81.1430  223.6110 C   0  0  0  0  0  0  0  0  0  0  0  0
  142.7170   80.3460  223.2960 C   0  0  0  0  0  0  0  0  0  0  0  0
  142.5390   79.0130  222.9130 C   0  0  0  0  0  0  0  0  0  0  0  0
  141.2490   78.4730  222.8420 C   0  0  0  0  0  0  0  0  0  0  0  0
  141.0720   77.1770  222.4680 N   0  0  0  0  0  0  0  0  0  0  0  0
  140.0757   70.1042  228.8468 H   0  0  0  0  0  0  0  0  0  0  0  0
  138.9408   67.9831  228.1875 H   0  0  0  0  0  0  0  0  0  0  0  0
  138.7858   67.3422  225.7831 H   0  0  0  0  0  0  0  0  0  0  0  0
  139.7626   68.8178  224.0295 H   0  0  0  0  0  0  0  0  0  0  0  0
  141.8497   71.8222  224.7872 H   0  0  0  0  0  0  0  0  0  0  0  0
  141.5168   70.5378  223.5751 H   0  0  0  0  0  0  0  0  0  0  0  0
  141.9521   73.1479  222.3965 H   0  0  0  0  0  0  0  0  0  0  0  0
  141.3120   72.6429  220.7841 H   0  0  0  0  0  0  0  0  0  0  0  0
  138.5160   73.7570  222.9770 H   0  0  0  0  0  0  0  0  0  0  0  0
  137.7032   76.9164  222.6877 H   0  0  0  0  0  0  0  0  0  0  0  0
  137.9675   79.3164  223.3400 H   0  0  0  0  0  0  0  0  0  0  0  0
  139.4502   81.2410  223.7917 H   0  0  0  0  0  0  0  0  0  0  0  0
  141.7584   82.1906  223.9123 H   0  0  0  0  0  0  0  0  0  0  0  0
  143.7307   80.7698  223.3499 H   0  0  0  0  0  0  0  0  0  0  0  0
  143.4113   78.3893  222.6678 H   0  0  0  0  0  0  0  0  0  0  0  0
  1  2  3  0
  2  3  1  0
  3  4  2  0
  4  5  1  0
  5  6  2  0
  6  7  1  0
  7  8  2  0
  8  9  1  0
  9 10  1  0
 10 11  1  0
 11 12  2  0
 11 13  1  0
 13 14  1  0
 14 15  2  0
 15 16  1  0
 15 17  1  0
 17 18  2  0
 18 19  1  0
 19 20  2  0
 20 21  1  0
 21 22  2  0
 22 23  1  0
 23 24  2  0
 24 25  1  0
 25 26  2  0
  8  3  1  0
 26 17  1  0
 25 20  1  0
  4 27  1  0
  5 28  1  0
  6 29  1  0
  7 30  1  0
  9 31  1  0
  9 32  1  0
 13 33  1  0
 13 34  1  0
 16 35  1  0
 18 36  1  0
 19 37  1  0
 21 38  1  0
 22 39  1  0
 23 40  1  0
 24 41  1  0
M  CHG  1  10  -1
M  END
>  <meeko>  (13) 
{"free_energy": -7.51, "intermolecular_energy": -10.19, "internal_energy": -1.21, "cluster_size": 16, "cluster_id": 1, "rank_in_cluster": 13}

$$$$

     RDKit          3D

 41 43  0  0  0  0  0  0  0  0999 V2000
  139.1850   67.3710  225.5850 N   0  0  0  0  0  0  0  0  0  0  0  0
  139.6270   68.3670  225.9790 C   0  0  0  0  0  0  0  0  0  0  0  0
  140.1720   69.6070  226.4770 C   0  0  0  0  0  0  0  0  0  0  0  0
  140.5470   69.6820  227.8250 C   0  0  0  0  0  0  0  0  0  0  0  0
  141.1010   70.8570  228.3400 C   0  0  0  0  0  0  0  0  0  0  0  0
  141.2860   71.9640  227.5110 C   0  0  0  0  0  0  0  0  0  0  0  0
  140.9150   71.9010  226.1650 C   0  0  0  0  0  0  0  0  0  0  0  0
  140.3460   70.7300  225.6340 C   0  0  0  0  0  0  0  0  0  0  0  0
  139.9650   70.6910  224.1740 C   0  0  0  0  0  0  0  0  0  0  0  0
  140.6130   71.7890  223.4710 N   0  0  0  0  0  0  0  0  0  0  0  0
  140.0800   72.4540  222.3190 C   0  0  0  0  0  0  0  0  0  0  0  0
  140.2320   73.7010  222.2190 O   0  0  0  0  0  0  0  0  0  0  0  0
  139.2720   71.7290  221.2750 C   0  0  0  0  0  0  0  0  0  0  0  0
  137.8810   71.5720  221.7080 N   0  0  0  0  0  0  0  0  0  0  0  0
  137.2190   72.3680  222.5000 C   0  0  0  0  0  0  0  0  0  0  0  0
  137.3680   73.7450  222.3560 O   0  0  0  0  0  0  0  0  0  0  0  0
  136.2890   71.8760  223.5320 C   0  0  0  0  0  0  0  0  0  0  0  0
  136.2910   70.5290  223.9240 C   0  0  0  0  0  0  0  0  0  0  0  0
  135.4280   70.1030  224.9360 C   0  0  0  0  0  0  0  0  0  0  0  0
  134.5900   71.0270  225.5700 C   0  0  0  0  0  0  0  0  0  0  0  0
  133.7170   70.6350  226.5960 C   0  0  0  0  0  0  0  0  0  0  0  0
  132.9010   71.5860  227.2190 C   0  0  0  0  0  0  0  0  0  0  0  0
  132.9530   72.9270  226.8220 C   0  0  0  0  0  0  0  0  0  0  0  0
  133.8210   73.3260  225.8000 C   0  0  0  0  0  0  0  0  0  0  0  0
  134.6400   72.3810  225.1700 C   0  0  0  0  0  0  0  0  0  0  0  0
  135.4840   72.7650  224.1750 N   0  0  0  0  0  0  0  0  0  0  0  0
  140.4045   68.8110  228.4816 H   0  0  0  0  0  0  0  0  0  0  0  0
  141.3914   70.9093  229.3997 H   0  0  0  0  0  0  0  0  0  0  0  0
  141.7244   72.8874  227.9173 H   0  0  0  0  0  0  0  0  0  0  0  0
  141.0695   72.7751  225.5154 H   0  0  0  0  0  0  0  0  0  0  0  0
  140.2881   69.7348  223.7367 H   0  0  0  0  0  0  0  0  0  0  0  0
  138.8736   70.7893  224.0784 H   0  0  0  0  0  0  0  0  0  0  0  0
  139.2949   72.3044  220.3378 H   0  0  0  0  0  0  0  0  0  0  0  0
  139.7081   70.7307  221.1230 H   0  0  0  0  0  0  0  0  0  0  0  0
  138.1780   74.2260  222.7280 H   0  0  0  0  0  0  0  0  0  0  0  0
  136.9686   69.8123  223.4369 H   0  0  0  0  0  0  0  0  0  0  0  0
  135.4071   69.0443  225.2338 H   0  0  0  0  0  0  0  0  0  0  0  0
  133.6740   69.5817  226.9102 H   0  0  0  0  0  0  0  0  0  0  0  0
  132.2165   71.2785  228.0233 H   0  0  0  0  0  0  0  0  0  0  0  0
  132.3091   73.6700  227.3153 H   0  0  0  0  0  0  0  0  0  0  0  0
  133.8601   74.3812  225.4916 H   0  0  0  0  0  0  0  0  0  0  0  0
  1  2  3  0
  2  3  1  0
  3  4  2  0
  4  5  1  0
  5  6  2  0
  6  7  1  0
  7  8  2  0
  8  9  1  0
  9 10  1  0
 10 11  1  0
 11 12  2  0
 11 13  1  0
 13 14  1  0
 14 15  2  0
 15 16  1  0
 15 17  1  0
 17 18  2  0
 18 19  1  0
 19 20  2  0
 20 21  1  0
 21 22  2  0
 22 23  1  0
 23 24  2  0
 24 25  1  0
 25 26  2  0
  8  3  1  0
 26 17  1  0
 25 20  1  0
  4 27  1  0
  5 28  1  0
  6 29  1  0
  7 30  1  0
  9 31  1  0
  9 32  1  0
 13 33  1  0
 13 34  1  0
 16 35  1  0
 18 36  1  0
 19 37  1  0
 21 38  1  0
 22 39  1  0
 23 40  1  0
 24 41  1  0
M  CHG  1  10  -1
M  END
>  <meeko>  (14) 
{"free_energy": -7.16, "intermolecular_energy": -9.85, "internal_energy": -1.92, "cluster_size": 2, "cluster_id": 2, "rank_in_cluster": 1}

$$$$

     RDKit          3D

 41 43  0  0  0  0  0  0  0  0999 V2000
  139.2090   67.3860  225.2490 N   0  0  0  0  0  0  0  0  0  0  0  0
  139.6160   68.3480  225.7510 C   0  0  0  0  0  0  0  0  0  0  0  0
  140.1320   69.5420  226.3760 C   0  0  0  0  0  0  0  0  0  0  0  0
  140.5900   69.4630  227.6980 C   0  0  0  0  0  0  0  0  0  0  0  0
  141.1180   70.5920  228.3300 C   0  0  0  0  0  0  0  0  0  0  0  0
  141.1970   71.8040  227.6460 C   0  0  0  0  0  0  0  0  0  0  0  0
  140.7440   71.8950  226.3270 C   0  0  0  0  0  0  0  0  0  0  0  0
  140.1980   70.7720  225.6790 C   0  0  0  0  0  0  0  0  0  0  0  0
  139.7260   70.9000  224.2520 C   0  0  0  0  0  0  0  0  0  0  0  0
  140.6660   71.7180  223.4980 N   0  0  0  0  0  0  0  0  0  0  0  0
  140.8680   71.6430  222.0820 C   0  0  0  0  0  0  0  0  0  0  0  0
  140.3120   70.7120  221.4420 O   0  0  0  0  0  0  0  0  0  0  0  0
  141.7920   72.5840  221.3530 C   0  0  0  0  0  0  0  0  0  0  0  0
  141.0580   73.7450  220.8420 N   0  0  0  0  0  0  0  0  0  0  0  0
  140.4040   74.6240  221.5490 C   0  0  0  0  0  0  0  0  0  0  0  0
  139.3700   74.1920  222.3770 O   0  0  0  0  0  0  0  0  0  0  0  0
  140.7270   76.0610  221.5350 C   0  0  0  0  0  0  0  0  0  0  0  0
  140.7400   76.8110  222.7210 C   0  0  0  0  0  0  0  0  0  0  0  0
  141.0920   78.1610  222.6800 C   0  0  0  0  0  0  0  0  0  0  0  0
  141.4590   78.7480  221.4630 C   0  0  0  0  0  0  0  0  0  0  0  0
  141.8260   80.1000  221.3880 C   0  0  0  0  0  0  0  0  0  0  0  0
  142.2000   80.6530  220.1580 C   0  0  0  0  0  0  0  0  0  0  0  0
  142.2060   79.8630  219.0030 C   0  0  0  0  0  0  0  0  0  0  0  0
  141.8410   78.5150  219.0700 C   0  0  0  0  0  0  0  0  0  0  0  0
  141.4650   77.9530  220.2960 C   0  0  0  0  0  0  0  0  0  0  0  0
  141.1070   76.6420  220.3650 N   0  0  0  0  0  0  0  0  0  0  0  0
  140.5336   68.5079  228.2408 H   0  0  0  0  0  0  0  0  0  0  0  0
  141.4720   70.5241  229.3693 H   0  0  0  0  0  0  0  0  0  0  0  0
  141.6165   72.6900  228.1450 H   0  0  0  0  0  0  0  0  0  0  0  0
  140.8150   72.8529  225.7909 H   0  0  0  0  0  0  0  0  0  0  0  0
  139.6628   69.9008  223.7963 H   0  0  0  0  0  0  0  0  0  0  0  0
  138.7341   71.3752  224.2366 H   0  0  0  0  0  0  0  0  0  0  0  0
  142.5746   72.9285  222.0449 H   0  0  0  0  0  0  0  0  0  0  0  0
  142.2399   72.0488  220.5027 H   0  0  0  0  0  0  0  0  0  0  0  0
  139.5250   73.4830  223.0830 H   0  0  0  0  0  0  0  0  0  0  0  0
  140.4743   76.3376  223.6777 H   0  0  0  0  0  0  0  0  0  0  0  0
  141.0811   78.7621  223.6012 H   0  0  0  0  0  0  0  0  0  0  0  0
  141.8198   80.7240  222.2939 H   0  0  0  0  0  0  0  0  0  0  0  0
  142.4903   81.7124  220.0989 H   0  0  0  0  0  0  0  0  0  0  0  0
  142.4989   80.3041  218.0389 H   0  0  0  0  0  0  0  0  0  0  0  0
  141.8492   77.8966  218.1604 H   0  0  0  0  0  0  0  0  0  0  0  0
  1  2  3  0
  2  3  1  0
  3  4  2  0
  4  5  1  0
  5  6  2  0
  6  7  1  0
  7  8  2  0
  8  9  1  0
  9 10  1  0
 10 11  1  0
 11 12  2  0
 11 13  1  0
 13 14  1  0
 14 15  2  0
 15 16  1  0
 15 17  1  0
 17 18  2  0
 18 19  1  0
 19 20  2  0
 20 21  1  0
 21 22  2  0
 22 23  1  0
 23 24  2  0
 24 25  1  0
 25 26  2  0
  8  3  1  0
 26 17  1  0
 25 20  1  0
  4 27  1  0
  5 28  1  0
  6 29  1  0
  7 30  1  0
  9 31  1  0
  9 32  1  0
 13 33  1  0
 13 34  1  0
 16 35  1  0
 18 36  1  0
 19 37  1  0
 21 38  1  0
 22 39  1  0
 23 40  1  0
 24 41  1  0
M  CHG  1  10  -1
M  END
>  <meeko>  (15) 
{"free_energy": -7.43, "intermolecular_energy": -10.11, "internal_energy": -1.44, "cluster_size": 16, "cluster_id": 1, "rank_in_cluster": 14}

$$$$

     RDKit          3D

 41 43  0  0  0  0  0  0  0  0999 V2000
  139.2330   67.3770  226.0750 N   0  0  0  0  0  0  0  0  0  0  0  0
  139.6740   68.4170  226.3300 C   0  0  0  0  0  0  0  0  0  0  0  0
  140.2160   69.7170  226.6510 C   0  0  0  0  0  0  0  0  0  0  0  0
  140.5750   69.9850  227.9790 C   0  0  0  0  0  0  0  0  0  0  0  0
  141.1240   71.2220  228.3250 C   0  0  0  0  0  0  0  0  0  0  0  0
  141.3220   72.1970  227.3480 C   0  0  0  0  0  0  0  0  0  0  0  0
  140.9680   71.9410  226.0210 C   0  0  0  0  0  0  0  0  0  0  0  0
  140.4020   70.7060  225.6570 C   0  0  0  0  0  0  0  0  0  0  0  0
  140.0390   70.4560  224.2140 C   0  0  0  0  0  0  0  0  0  0  0  0
  140.1600   71.6960  223.4590 N   0  0  0  0  0  0  0  0  0  0  0  0
  140.4080   71.7790  222.0510 C   0  0  0  0  0  0  0  0  0  0  0  0
  139.6930   71.0950  221.2710 O   0  0  0  0  0  0  0  0  0  0  0  0
  141.5480   72.5830  221.4820 C   0  0  0  0  0  0  0  0  0  0  0  0
  141.0690   73.8550  220.9360 N   0  0  0  0  0  0  0  0  0  0  0  0
  140.5200   74.8310  221.6050 C   0  0  0  0  0  0  0  0  0  0  0  0
  139.4440   74.5540  222.4450 O   0  0  0  0  0  0  0  0  0  0  0  0
  141.0050   76.2200  221.5350 C   0  0  0  0  0  0  0  0  0  0  0  0
  141.3230   76.8140  220.3050 C   0  0  0  0  0  0  0  0  0  0  0  0
  141.7390   78.1470  220.2680 C   0  0  0  0  0  0  0  0  0  0  0  0
  141.8080   78.8870  221.4540 C   0  0  0  0  0  0  0  0  0  0  0  0
  142.2140   80.2300  221.4520 C   0  0  0  0  0  0  0  0  0  0  0  0
  142.2590   80.9460  222.6540 C   0  0  0  0  0  0  0  0  0  0  0  0
  141.9020   80.3270  223.8570 C   0  0  0  0  0  0  0  0  0  0  0  0
  141.4960   78.9880  223.8660 C   0  0  0  0  0  0  0  0  0  0  0  0
  141.4490   78.2630  222.6700 C   0  0  0  0  0  0  0  0  0  0  0  0
  141.0560   76.9610  222.6750 N   0  0  0  0  0  0  0  0  0  0  0  0
  140.4237   69.2176  228.7525 H   0  0  0  0  0  0  0  0  0  0  0  0
  141.4005   71.4272  229.3697 H   0  0  0  0  0  0  0  0  0  0  0  0
  141.7576   73.1691  227.6225 H   0  0  0  0  0  0  0  0  0  0  0  0
  141.1334   72.7121  225.2541 H   0  0  0  0  0  0  0  0  0  0  0  0
  140.7185   69.7016  223.7907 H   0  0  0  0  0  0  0  0  0  0  0  0
  139.0028   70.0916  224.1553 H   0  0  0  0  0  0  0  0  0  0  0  0
  142.2789   72.7855  222.2788 H   0  0  0  0  0  0  0  0  0  0  0  0
  142.0147   72.0056  220.6703 H   0  0  0  0  0  0  0  0  0  0  0  0
  139.4000   73.6920  222.9740 H   0  0  0  0  0  0  0  0  0  0  0  0
  141.2452   76.2332  219.3741 H   0  0  0  0  0  0  0  0  0  0  0  0
  142.0115   78.6136  219.3099 H   0  0  0  0  0  0  0  0  0  0  0  0
  142.4963   80.7192  220.5081 H   0  0  0  0  0  0  0  0  0  0  0  0
  142.5762   81.9993  222.6528 H   0  0  0  0  0  0  0  0  0  0  0  0
  141.9406   80.8947  224.7984 H   0  0  0  0  0  0  0  0  0  0  0  0
  141.2138   78.5052  224.8132 H   0  0  0  0  0  0  0  0  0  0  0  0
  1  2  3  0
  2  3  1  0
  3  4  2  0
  4  5  1  0
  5  6  2  0
  6  7  1  0
  7  8  2  0
  8  9  1  0
  9 10  1  0
 10 11  1  0
 11 12  2  0
 11 13  1  0
 13 14  1  0
 14 15  2  0
 15 16  1  0
 15 17  1  0
 17 18  2  0
 18 19  1  0
 19 20  2  0
 20 21  1  0
 21 22  2  0
 22 23  1  0
 23 24  2  0
 24 25  1  0
 25 26  2  0
  8  3  1  0
 26 17  1  0
 25 20  1  0
  4 27  1  0
  5 28  1  0
  6 29  1  0
  7 30  1  0
  9 31  1  0
  9 32  1  0
 13 33  1  0
 13 34  1  0
 16 35  1  0
 18 36  1  0
 19 37  1  0
 21 38  1  0
 22 39  1  0
 23 40  1  0
 24 41  1  0
M  CHG  1  10  -1
M  END
>  <meeko>  (16) 
{"free_energy": -8.64, "intermolecular_energy": -11.32, "internal_energy": -1.37, "cluster_size": 16, "cluster_id": 1, "rank_in_cluster": 4}

$$$$

     RDKit          3D

 41 43  0  0  0  0  0  0  0  0999 V2000
  139.2130   67.3550  225.4710 N   0  0  0  0  0  0  0  0  0  0  0  0
  139.6430   68.3320  225.9200 C   0  0  0  0  0  0  0  0  0  0  0  0
  140.1780   69.5540  226.4720 C   0  0  0  0  0  0  0  0  0  0  0  0
  140.7130   69.5280  227.7660 C   0  0  0  0  0  0  0  0  0  0  0  0
  141.2620   70.6850  228.3260 C   0  0  0  0  0  0  0  0  0  0  0  0
  141.2820   71.8730  227.5960 C   0  0  0  0  0  0  0  0  0  0  0  0
  140.7510   71.9110  226.3050 C   0  0  0  0  0  0  0  0  0  0  0  0
  140.1840   70.7590  225.7300 C   0  0  0  0  0  0  0  0  0  0  0  0
  139.6280   70.8300  224.3290 C   0  0  0  0  0  0  0  0  0  0  0  0
  140.3570   71.8310  223.5640 N   0  0  0  0  0  0  0  0  0  0  0  0
  140.6400   71.7480  222.1620 C   0  0  0  0  0  0  0  0  0  0  0  0
  140.0430   70.8760  221.4770 O   0  0  0  0  0  0  0  0  0  0  0  0
  141.6910   72.6050  221.5040 C   0  0  0  0  0  0  0  0  0  0  0  0
  141.0950   73.8170  220.9360 N   0  0  0  0  0  0  0  0  0  0  0  0
  140.5270   74.7870  221.5960 C   0  0  0  0  0  0  0  0  0  0  0  0
  139.4380   74.5020  222.4160 O   0  0  0  0  0  0  0  0  0  0  0  0
  141.0060   76.1800  221.5380 C   0  0  0  0  0  0  0  0  0  0  0  0
  141.3420   76.7780  220.3150 C   0  0  0  0  0  0  0  0  0  0  0  0
  141.7500   78.1130  220.2880 C   0  0  0  0  0  0  0  0  0  0  0  0
  141.7930   78.8520  221.4760 C   0  0  0  0  0  0  0  0  0  0  0  0
  142.1900   80.1970  221.4840 C   0  0  0  0  0  0  0  0  0  0  0  0
  142.2100   80.9110  222.6880 C   0  0  0  0  0  0  0  0  0  0  0  0
  141.8350   80.2870  223.8830 C   0  0  0  0  0  0  0  0  0  0  0  0
  141.4370   78.9460  223.8830 C   0  0  0  0  0  0  0  0  0  0  0  0
  141.4160   78.2230  222.6840 C   0  0  0  0  0  0  0  0  0  0  0  0
  141.0310   76.9180  222.6800 N   0  0  0  0  0  0  0  0  0  0  0  0
  140.7011   68.5925  228.3445 H   0  0  0  0  0  0  0  0  0  0  0  0
  141.6787   70.6584  229.3437 H   0  0  0  0  0  0  0  0  0  0  0  0
  141.7168   72.7817  228.0378 H   0  0  0  0  0  0  0  0  0  0  0  0
  140.7763   72.8500  225.7326 H   0  0  0  0  0  0  0  0  0  0  0  0
  139.7342   69.8490  223.8429 H   0  0  0  0  0  0  0  0  0  0  0  0
  138.5642   71.1067  224.3720 H   0  0  0  0  0  0  0  0  0  0  0  0
  142.4440   72.8907  222.2532 H   0  0  0  0  0  0  0  0  0  0  0  0
  142.1577   72.0283  220.6918 H   0  0  0  0  0  0  0  0  0  0  0  0
  139.4570   73.7210  223.0600 H   0  0  0  0  0  0  0  0  0  0  0  0
  141.2844   76.1984  219.3818 H   0  0  0  0  0  0  0  0  0  0  0  0
  142.0369   78.5828  219.3356 H   0  0  0  0  0  0  0  0  0  0  0  0
  142.4851   80.6900  220.5460 H   0  0  0  0  0  0  0  0  0  0  0  0
  142.5215   81.9660  222.6947 H   0  0  0  0  0  0  0  0  0  0  0  0
  141.8533   80.8531  224.8259 H   0  0  0  0  0  0  0  0  0  0  0  0
  141.1407   78.4598  224.8242 H   0  0  0  0  0  0  0  0  0  0  0  0
  1  2  3  0
  2  3  1  0
  3  4  2  0
  4  5  1  0
  5  6  2  0
  6  7  1  0
  7  8  2  0
  8  9  1  0
  9 10  1  0
 10 11  1  0
 11 12  2  0
 11 13  1  0
 13 14  1  0
 14 15  2  0
 15 16  1  0
 15 17  1  0
 17 18  2  0
 18 19  1  0
 19 20  2  0
 20 21  1  0
 21 22  2  0
 22 23  1  0
 23 24  2  0
 24 25  1  0
 25 26  2  0
  8  3  1  0
 26 17  1  0
 25 20  1  0
  4 27  1  0
  5 28  1  0
  6 29  1  0
  7 30  1  0
  9 31  1  0
  9 32  1  0
 13 33  1  0
 13 34  1  0
 16 35  1  0
 18 36  1  0
 19 37  1  0
 21 38  1  0
 22 39  1  0
 23 40  1  0
 24 41  1  0
M  CHG  1  10  -1
M  END
>  <meeko>  (17) 
{"free_energy": -8.52, "intermolecular_energy": -11.2, "internal_energy": -1.42, "cluster_size": 16, "cluster_id": 1, "rank_in_cluster": 8}

$$$$

     RDKit          3D

 41 43  0  0  0  0  0  0  0  0999 V2000
  139.2080   67.3860  225.5960 N   0  0  0  0  0  0  0  0  0  0  0  0
  139.6380   68.3850  225.9940 C   0  0  0  0  0  0  0  0  0  0  0  0
  140.1820   69.6270  226.4900 C   0  0  0  0  0  0  0  0  0  0  0  0
  140.5640   69.7010  227.8370 C   0  0  0  0  0  0  0  0  0  0  0  0
  141.1180   70.8770  228.3490 C   0  0  0  0  0  0  0  0  0  0  0  0
  141.2960   71.9850  227.5210 C   0  0  0  0  0  0  0  0  0  0  0  0
  140.9190   71.9230  226.1770 C   0  0  0  0  0  0  0  0  0  0  0  0
  140.3490   70.7510  225.6470 C   0  0  0  0  0  0  0  0  0  0  0  0
  139.9610   70.7120  224.1900 C   0  0  0  0  0  0  0  0  0  0  0  0
  140.0570   72.0500  223.6230 N   0  0  0  0  0  0  0  0  0  0  0  0
  139.7590   72.3900  222.2640 C   0  0  0  0  0  0  0  0  0  0  0  0
  138.7120   71.9220  221.7420 O   0  0  0  0  0  0  0  0  0  0  0  0
  140.6970   73.2090  221.4160 C   0  0  0  0  0  0  0  0  0  0  0  0
  140.7510   74.5950  221.8890 N   0  0  0  0  0  0  0  0  0  0  0  0
  139.7350   75.3500  222.2030 C   0  0  0  0  0  0  0  0  0  0  0  0
  138.4700   74.7770  222.2980 O   0  0  0  0  0  0  0  0  0  0  0  0
  139.8680   76.7890  222.4910 C   0  0  0  0  0  0  0  0  0  0  0  0
  138.7370   77.5930  222.6940 C   0  0  0  0  0  0  0  0  0  0  0  0
  138.8970   78.9440  223.0090 C   0  0  0  0  0  0  0  0  0  0  0  0
  140.1830   79.4780  223.1490 C   0  0  0  0  0  0  0  0  0  0  0  0
  140.3800   80.8280  223.4720 C   0  0  0  0  0  0  0  0  0  0  0  0
  141.6800   81.3280  223.6170 C   0  0  0  0  0  0  0  0  0  0  0  0
  142.7820   80.4850  223.4400 C   0  0  0  0  0  0  0  0  0  0  0  0
  142.5940   79.1370  223.1170 C   0  0  0  0  0  0  0  0  0  0  0  0
  141.2980   78.6290  222.9690 C   0  0  0  0  0  0  0  0  0  0  0  0
  141.1110   77.3190  222.6530 N   0  0  0  0  0  0  0  0  0  0  0  0
  140.4269   68.8292  228.4937 H   0  0  0  0  0  0  0  0  0  0  0  0
  141.4143   70.9290  229.4071 H   0  0  0  0  0  0  0  0  0  0  0  0
  141.7338   72.9090  227.9266 H   0  0  0  0  0  0  0  0  0  0  0  0
  141.0692   72.7981  225.5277 H   0  0  0  0  0  0  0  0  0  0  0  0
  140.6387   70.0355  223.6487 H   0  0  0  0  0  0  0  0  0  0  0  0
  138.9268   70.3491  224.0969 H   0  0  0  0  0  0  0  0  0  0  0  0
  141.7048   72.7710  221.4672 H   0  0  0  0  0  0  0  0  0  0  0  0
  140.3295   73.2046  220.3792 H   0  0  0  0  0  0  0  0  0  0  0  0
  138.3360   73.8700  222.7280 H   0  0  0  0  0  0  0  0  0  0  0  0
  137.7290   77.1616  222.6055 H   0  0  0  0  0  0  0  0  0  0  0  0
  138.0149   79.5866  223.1467 H   0  0  0  0  0  0  0  0  0  0  0  0
  139.5150   81.4932  223.6113 H   0  0  0  0  0  0  0  0  0  0  0  0
  141.8350   82.3870  223.8709 H   0  0  0  0  0  0  0  0  0  0  0  0
  143.8007   80.8837  223.5553 H   0  0  0  0  0  0  0  0  0  0  0  0
  143.4633   78.4771  222.9795 H   0  0  0  0  0  0  0  0  0  0  0  0
  1  2  3  0
  2  3  1  0
  3  4  2  0
  4  5  1  0
  5  6  2  0
  6  7  1  0
  7  8  2  0
  8  9  1  0
  9 10  1  0
 10 11  1  0
 11 12  2  0
 11 13  1  0
 13 14  1  0
 14 15  2  0
 15 16  1  0
 15 17  1  0
 17 18  2  0
 18 19  1  0
 19 20  2  0
 20 21  1  0
 21 22  2  0
 22 23  1  0
 23 24  2  0
 24 25  1  0
 25 26  2  0
  8  3  1  0
 26 17  1  0
 25 20  1  0
  4 27  1  0
  5 28  1  0
  6 29  1  0
  7 30  1  0
  9 31  1  0
  9 32  1  0
 13 33  1  0
 13 34  1  0
 16 35  1  0
 18 36  1  0
 19 37  1  0
 21 38  1  0
 22 39  1  0
 23 40  1  0
 24 41  1  0
M  CHG  1  10  -1
M  END
>  <meeko>  (18) 
{"free_energy": -8.77, "intermolecular_energy": -11.46, "internal_energy": -1.21, "cluster_size": 16, "cluster_id": 1, "rank_in_cluster": 1}

$$$$

     RDKit          3D

 41 43  0  0  0  0  0  0  0  0999 V2000
  139.2380   67.3410  225.5410 N   0  0  0  0  0  0  0  0  0  0  0  0
  139.6600   68.3330  225.9620 C   0  0  0  0  0  0  0  0  0  0  0  0
  140.1940   69.5700  226.4820 C   0  0  0  0  0  0  0  0  0  0  0  0
  140.6370   69.6040  227.8110 C   0  0  0  0  0  0  0  0  0  0  0  0
  141.1820   70.7750  228.3440 C   0  0  0  0  0  0  0  0  0  0  0  0
  141.2910   71.9180  227.5520 C   0  0  0  0  0  0  0  0  0  0  0  0
  140.8530   71.8960  226.2260 C   0  0  0  0  0  0  0  0  0  0  0  0
  140.2910   70.7300  225.6770 C   0  0  0  0  0  0  0  0  0  0  0  0
  139.8360   70.7350  224.2390 C   0  0  0  0  0  0  0  0  0  0  0  0
  140.6900   71.6200  223.4590 N   0  0  0  0  0  0  0  0  0  0  0  0
  140.3680   72.1440  222.1660 C   0  0  0  0  0  0  0  0  0  0  0  0
  139.2020   71.9730  221.7190 O   0  0  0  0  0  0  0  0  0  0  0  0
  141.3970   72.8110  221.2900 C   0  0  0  0  0  0  0  0  0  0  0  0
  140.9010   74.0930  220.7850 N   0  0  0  0  0  0  0  0  0  0  0  0
  140.3790   75.0580  221.4900 C   0  0  0  0  0  0  0  0  0  0  0  0
  139.3100   74.7760  222.3360 O   0  0  0  0  0  0  0  0  0  0  0  0
  140.8910   76.4390  221.4570 C   0  0  0  0  0  0  0  0  0  0  0  0
  141.2140   77.0610  220.2410 C   0  0  0  0  0  0  0  0  0  0  0  0
  141.6550   78.3860  220.2390 C   0  0  0  0  0  0  0  0  0  0  0  0
  141.7420   79.0920  221.4450 C   0  0  0  0  0  0  0  0  0  0  0  0
  142.1730   80.4260  221.4780 C   0  0  0  0  0  0  0  0  0  0  0  0
  142.2370   81.1080  222.6980 C   0  0  0  0  0  0  0  0  0  0  0  0
  141.8730   80.4630  223.8850 C   0  0  0  0  0  0  0  0  0  0  0  0
  141.4420   79.1330  223.8600 C   0  0  0  0  0  0  0  0  0  0  0  0
  141.3770   78.4420  222.6440 C   0  0  0  0  0  0  0  0  0  0  0  0
  140.9600   77.1480  222.6160 N   0  0  0  0  0  0  0  0  0  0  0  0
  140.5552   68.7039  228.4381 H   0  0  0  0  0  0  0  0  0  0  0  0
  141.5253   70.7955  229.3888 H   0  0  0  0  0  0  0  0  0  0  0  0
  141.7226   72.8383  227.9725 H   0  0  0  0  0  0  0  0  0  0  0  0
  140.9486   72.7992  225.6055 H   0  0  0  0  0  0  0  0  0  0  0  0
  139.8974   69.7149  223.8321 H   0  0  0  0  0  0  0  0  0  0  0  0
  138.7965   71.0908  224.1862 H   0  0  0  0  0  0  0  0  0  0  0  0
  142.3114   72.9843  221.8764 H   0  0  0  0  0  0  0  0  0  0  0  0
  141.6087   72.1539  220.4336 H   0  0  0  0  0  0  0  0  0  0  0  0
  139.1870   73.8540  222.7370 H   0  0  0  0  0  0  0  0  0  0  0  0
  141.1203   76.5079  219.2948 H   0  0  0  0  0  0  0  0  0  0  0  0
  141.9331   78.8735  219.2930 H   0  0  0  0  0  0  0  0  0  0  0  0
  142.4603   80.9354  220.5463 H   0  0  0  0  0  0  0  0  0  0  0  0
  142.5746   82.1546  222.7240 H   0  0  0  0  0  0  0  0  0  0  0  0
  141.9261   81.0040  224.8413 H   0  0  0  0  0  0  0  0  0  0  0  0
  141.1542   78.6300  224.7950 H   0  0  0  0  0  0  0  0  0  0  0  0
  1  2  3  0
  2  3  1  0
  3  4  2  0
  4  5  1  0
  5  6  2  0
  6  7  1  0
  7  8  2  0
  8  9  1  0
  9 10  1  0
 10 11  1  0
 11 12  2  0
 11 13  1  0
 13 14  1  0
 14 15  2  0
 15 16  1  0
 15 17  1  0
 17 18  2  0
 18 19  1  0
 19 20  2  0
 20 21  1  0
 21 22  2  0
 22 23  1  0
 23 24  2  0
 24 25  1  0
 25 26  2  0
  8  3  1  0
 26 17  1  0
 25 20  1  0
  4 27  1  0
  5 28  1  0
  6 29  1  0
  7 30  1  0
  9 31  1  0
  9 32  1  0
 13 33  1  0
 13 34  1  0
 16 35  1  0
 18 36  1  0
 19 37  1  0
 21 38  1  0
 22 39  1  0
 23 40  1  0
 24 41  1  0
M  CHG  1  10  -1
M  END
>  <meeko>  (19) 
{"free_energy": -8.59, "intermolecular_energy": -11.27, "internal_energy": -1.3, "cluster_size": 16, "cluster_id": 1, "rank_in_cluster": 5}

$$$$

     RDKit          3D

 41 43  0  0  0  0  0  0  0  0999 V2000
  139.2070   67.3890  225.9580 N   0  0  0  0  0  0  0  0  0  0  0  0
  139.6620   68.4120  226.2550 C   0  0  0  0  0  0  0  0  0  0  0  0
  140.2280   69.6850  226.6340 C   0  0  0  0  0  0  0  0  0  0  0  0
  140.4720   69.9330  227.9920 C   0  0  0  0  0  0  0  0  0  0  0  0
  141.0410   71.1430  228.3970 C   0  0  0  0  0  0  0  0  0  0  0  0
  141.3740   72.1110  227.4490 C   0  0  0  0  0  0  0  0  0  0  0  0
  141.1360   71.8740  226.0930 C   0  0  0  0  0  0  0  0  0  0  0  0
  140.5530   70.6670  225.6690 C   0  0  0  0  0  0  0  0  0  0  0  0
  140.3170   70.4380  224.1960 C   0  0  0  0  0  0  0  0  0  0  0  0
  139.2600   71.3230  223.7270 N   0  0  0  0  0  0  0  0  0  0  0  0
  139.3460   72.1630  222.5700 C   0  0  0  0  0  0  0  0  0  0  0  0
  138.3120   72.3310  221.8700 O   0  0  0  0  0  0  0  0  0  0  0  0
  140.6460   72.7740  222.1160 C   0  0  0  0  0  0  0  0  0  0  0  0
  140.4070   73.9990  221.3490 N   0  0  0  0  0  0  0  0  0  0  0  0
  139.8770   75.1050  221.7940 C   0  0  0  0  0  0  0  0  0  0  0  0
  138.5930   75.0710  222.3320 O   0  0  0  0  0  0  0  0  0  0  0  0
  140.5900   76.3940  221.7800 C   0  0  0  0  0  0  0  0  0  0  0  0
  141.4360   76.7420  220.7170 C   0  0  0  0  0  0  0  0  0  0  0  0
  142.0630   77.9890  220.7120 C   0  0  0  0  0  0  0  0  0  0  0  0
  141.8200   78.8940  221.7520 C   0  0  0  0  0  0  0  0  0  0  0  0
  142.4260   80.1580  221.7740 C   0  0  0  0  0  0  0  0  0  0  0  0
  142.1520   81.0450  222.8220 C   0  0  0  0  0  0  0  0  0  0  0  0
  141.2750   80.6730  223.8480 C   0  0  0  0  0  0  0  0  0  0  0  0
  140.6670   79.4140  223.8330 C   0  0  0  0  0  0  0  0  0  0  0  0
  140.9360   78.5200  222.7890 C   0  0  0  0  0  0  0  0  0  0  0  0
  140.3470   77.2940  222.7720 N   0  0  0  0  0  0  0  0  0  0  0  0
  140.2142   69.1712  228.7424 H   0  0  0  0  0  0  0  0  0  0  0  0
  141.2267   71.3327  229.4645 H   0  0  0  0  0  0  0  0  0  0  0  0
  141.8245   73.0619  227.7697 H   0  0  0  0  0  0  0  0  0  0  0  0
  141.4072   72.6387  225.3503 H   0  0  0  0  0  0  0  0  0  0  0  0
  141.2429   70.6470  223.6401 H   0  0  0  0  0  0  0  0  0  0  0  0
  140.0172   69.3924  224.0324 H   0  0  0  0  0  0  0  0  0  0  0  0
  141.2584   73.0145  222.9975 H   0  0  0  0  0  0  0  0  0  0  0  0
  141.1683   72.0516  221.4715 H   0  0  0  0  0  0  0  0  0  0  0  0
  138.2520   74.2550  222.8240 H   0  0  0  0  0  0  0  0  0  0  0  0
  141.6047   76.0354  219.8910 H   0  0  0  0  0  0  0  0  0  0  0  0
  142.7460   78.2598  219.8934 H   0  0  0  0  0  0  0  0  0  0  0  0
  143.1156   80.4524  220.9692 H   0  0  0  0  0  0  0  0  0  0  0  0
  142.6271   82.0370  222.8393 H   0  0  0  0  0  0  0  0  0  0  0  0
  141.0635   81.3739  224.6690 H   0  0  0  0  0  0  0  0  0  0  0  0
  139.9779   79.1259  224.6405 H   0  0  0  0  0  0  0  0  0  0  0  0
  1  2  3  0
  2  3  1  0
  3  4  2  0
  4  5  1  0
  5  6  2  0
  6  7  1  0
  7  8  2  0
  8  9  1  0
  9 10  1  0
 10 11  1  0
 11 12  2  0
 11 13  1  0
 13 14  1  0
 14 15  2  0
 15 16  1  0
 15 17  1  0
 17 18  2  0
 18 19  1  0
 19 20  2  0
 20 21  1  0
 21 22  2  0
 22 23  1  0
 23 24  2  0
 24 25  1  0
 25 26  2  0
  8  3  1  0
 26 17  1  0
 25 20  1  0
  4 27  1  0
  5 28  1  0
  6 29  1  0
  7 30  1  0
  9 31  1  0
  9 32  1  0
 13 33  1  0
 13 34  1  0
 16 35  1  0
 18 36  1  0
 19 37  1  0
 21 38  1  0
 22 39  1  0
 23 40  1  0
 24 41  1  0
M  CHG  1  10  -1
M  END
>  <meeko>  (20) 
{"free_energy": -8.23, "intermolecular_energy": -10.91, "internal_energy": -1.32, "cluster_size": 16, "cluster_id": 1, "rank_in_cluster": 10}

$$$$
