
     RDKit          3D

 49 52  0  0  0  0  0  0  0  0999 V2000
  138.7740   72.2530  220.9910 O   0  0  0  0  0  0  0  0  0  0  0  0
  139.5410   72.5270  221.9490 C   0  0  0  0  0  0  0  0  0  0  0  0
  140.2060   73.7970  221.9650 N   0  0  0  0  0  0  0  0  0  0  0  0
  140.1630   74.7560  220.8680 C   0  0  0  0  0  0  0  0  0  0  0  0
  140.7560   76.0560  221.3190 C   0  0  0  0  0  0  0  0  0  0  0  0
  141.0370   76.2020  222.5390 O   0  0  0  0  0  0  0  0  0  0  0  0
  140.9340   77.1630  220.4140 N   0  0  0  0  0  0  0  0  0  0  0  0
  140.5310   77.0630  219.0190 C   0  0  0  0  0  0  0  0  0  0  0  0
  141.1150   78.2950  218.3280 C   0  0  2  0  0  0  0  0  0  0  0  0
  141.6670   77.9720  217.0790 O   0  0  0  0  0  0  0  0  0  0  0  0
  142.1950   78.8060  219.2780 C   0  0  0  0  0  0  0  0  0  0  0  0
  141.7530   78.3470  220.6700 C   0  0  1  0  0  0  0  0  0  0  0  0
  140.9190   79.4490  221.3610 C   0  0  0  0  0  0  0  0  0  0  0  0
  141.6710   80.1110  222.4240 N   0  0  0  0  0  0  0  0  0  0  0  0
  141.2520   81.1610  223.1580 C   0  0  0  0  0  0  0  0  0  0  0  0
  142.2400   81.5270  224.0500 C   0  0  0  0  0  0  0  0  0  0  0  0
  143.2960   80.6590  223.8480 C   0  0  0  0  0  0  0  0  0  0  0  0
  142.9120   79.7970  222.8410 C   0  0  0  0  0  0  0  0  0  0  0  0
  139.7150   71.5420  223.0300 C   0  0  0  0  0  0  0  0  0  0  0  0
  139.3240   70.2060  222.8570 C   0  0  0  0  0  0  0  0  0  0  0  0
  139.4950   69.2950  223.9000 C   0  0  0  0  0  0  0  0  0  0  0  0
  140.0330   69.7250  225.1180 C   0  0  0  0  0  0  0  0  0  0  0  0
  140.2190   68.8370  226.1880 C   0  0  0  0  0  0  0  0  0  0  0  0
  140.7490   69.2990  227.3980 C   0  0  0  0  0  0  0  0  0  0  0  0
  140.9820   68.1870  228.7350 Cl  0  0  0  0  0  0  0  0  0  0  0  0
  141.0960   70.6470  227.5420 C   0  0  0  0  0  0  0  0  0  0  0  0
  140.9140   71.5400  226.4800 C   0  0  0  0  0  0  0  0  0  0  0  0
  140.3850   71.0850  225.2680 C   0  0  0  0  0  0  0  0  0  0  0  0
  140.2130   71.9480  224.2300 N   0  0  0  0  0  0  0  0  0  0  0  0
  140.7396   74.3655  220.0165 H   0  0  0  0  0  0  0  0  0  0  0  0
  139.1189   74.9157  220.5607 H   0  0  0  0  0  0  0  0  0  0  0  0
  140.9342   76.1440  218.5687 H   0  0  0  0  0  0  0  0  0  0  0  0
  139.4367   77.0212  218.9155 H   0  0  0  0  0  0  0  0  0  0  0  0
  140.3406   79.0506  218.1294 H   0  0  0  0  0  0  0  0  0  0  0  0
  142.4610   78.5560  216.9660 H   0  0  0  0  0  0  0  0  0  0  0  0
  143.1724   78.3718  219.0207 H   0  0  0  0  0  0  0  0  0  0  0  0
  142.3094   79.8986  219.2218 H   0  0  0  0  0  0  0  0  0  0  0  0
  142.6017   78.1343  221.3366 H   0  0  0  0  0  0  0  0  0  0  0  0
  140.6279   80.1987  220.6105 H   0  0  0  0  0  0  0  0  0  0  0  0
  140.0336   78.9765  221.8113 H   0  0  0  0  0  0  0  0  0  0  0  0
  140.2722   81.6515  223.0610 H   0  0  0  0  0  0  0  0  0  0  0  0
  142.1953   82.3493  224.7793 H   0  0  0  0  0  0  0  0  0  0  0  0
  144.2559   80.6557  224.3853 H   0  0  0  0  0  0  0  0  0  0  0  0
  143.5266   78.9776  222.4399 H   0  0  0  0  0  0  0  0  0  0  0  0
  138.8846   69.8780  221.9034 H   0  0  0  0  0  0  0  0  0  0  0  0
  139.2077   68.2418  223.7651 H   0  0  0  0  0  0  0  0  0  0  0  0
  139.9480   67.7768  226.0758 H   0  0  0  0  0  0  0  0  0  0  0  0
  141.5136   71.0063  228.4941 H   0  0  0  0  0  0  0  0  0  0  0  0
  141.1868   72.5990  226.5984 H   0  0  0  0  0  0  0  0  0  0  0  0
  1  2  2  0
  2  3  1  0
  3  4  1  0
  4  5  1  0
  5  6  2  0
  5  7  1  0
  7  8  1  0
  8  9  1  0
  9 10  1  0
  9 11  1  0
 11 12  1  0
 12 13  1  0
 13 14  1  0
 14 15  1  0
 15 16  2  0
 16 17  1  0
 17 18  2  0
  2 19  1  0
 19 20  2  0
 20 21  1  0
 21 22  2  0
 22 23  1  0
 23 24  2  0
 24 25  1  0
 24 26  1  0
 26 27  2  0
 27 28  1  0
 28 29  2  0
 12  7  1  0
 18 14  1  0
 29 19  1  0
 28 22  1  0
  4 30  1  0
  4 31  1  0
  8 32  1  0
  8 33  1  0
  9 34  1  6
 10 35  1  0
 11 36  1  0
 11 37  1  0
 12 38  1  1
 13 39  1  0
 13 40  1  0
 15 41  1  0
 16 42  1  0
 17 43  1  0
 18 44  1  0
 20 45  1  0
 21 46  1  0
 23 47  1  0
 26 48  1  0
 27 49  1  0
M  CHG  1   3  -1
M  END
>  <meeko>  (1) 
{"free_energy": -7.59, "intermolecular_energy": -9.97, "internal_energy": -0.94, "cluster_size": 3, "cluster_id": 4, "rank_in_cluster": 1}

$$$$

     RDKit          3D

 49 52  0  0  0  0  0  0  0  0999 V2000
  138.9270   72.6530  221.0010 O   0  0  0  0  0  0  0  0  0  0  0  0
  139.7090   72.8460  221.9670 C   0  0  0  0  0  0  0  0  0  0  0  0
  140.4910   74.0470  221.9990 N   0  0  0  0  0  0  0  0  0  0  0  0
  140.1750   75.2480  221.2370 C   0  0  0  0  0  0  0  0  0  0  0  0
  140.1460   76.4300  222.1580 C   0  0  0  0  0  0  0  0  0  0  0  0
  141.2080   76.7610  222.7500 O   0  0  0  0  0  0  0  0  0  0  0  0
  138.9250   77.1400  222.4430 N   0  0  0  0  0  0  0  0  0  0  0  0
  137.6900   76.4240  222.7250 C   0  0  0  0  0  0  0  0  0  0  0  0
  136.5830   77.4770  222.7030 C   0  0  2  0  0  0  0  0  0  0  0  0
  135.4430   77.0140  222.0300 O   0  0  0  0  0  0  0  0  0  0  0  0
  137.1900   78.6720  221.9720 C   0  0  0  0  0  0  0  0  0  0  0  0
  138.6980   78.5670  222.2160 C   0  0  1  0  0  0  0  0  0  0  0  0
  139.1020   79.3890  223.4600 C   0  0  0  0  0  0  0  0  0  0  0  0
  140.4530   79.9310  223.3360 N   0  0  0  0  0  0  0  0  0  0  0  0
  140.8000   81.0550  222.6790 C   0  0  0  0  0  0  0  0  0  0  0  0
  142.1660   81.2360  222.7590 C   0  0  0  0  0  0  0  0  0  0  0  0
  142.6620   80.1790  223.5000 C   0  0  0  0  0  0  0  0  0  0  0  0
  141.5790   79.3940  223.8420 C   0  0  0  0  0  0  0  0  0  0  0  0
  139.7810   71.8400  223.0400 C   0  0  0  0  0  0  0  0  0  0  0  0
  139.2490   70.5550  222.8600 C   0  0  0  0  0  0  0  0  0  0  0  0
  139.3250   69.6220  223.8950 C   0  0  0  0  0  0  0  0  0  0  0  0
  139.9120   69.9830  225.1140 C   0  0  0  0  0  0  0  0  0  0  0  0
  140.0050   69.0720  226.1760 C   0  0  0  0  0  0  0  0  0  0  0  0
  140.5880   69.4660  227.3870 C   0  0  0  0  0  0  0  0  0  0  0  0
  140.7050   68.3260  228.7150 Cl  0  0  0  0  0  0  0  0  0  0  0  0
  141.0780   70.7680  227.5390 C   0  0  0  0  0  0  0  0  0  0  0  0
  140.9880   71.6830  226.4840 C   0  0  0  0  0  0  0  0  0  0  0  0
  140.4080   71.2960  225.2710 C   0  0  0  0  0  0  0  0  0  0  0  0
  140.3250   72.1810  224.2400 N   0  0  0  0  0  0  0  0  0  0  0  0
  140.9417   75.4042  220.4639 H   0  0  0  0  0  0  0  0  0  0  0  0
  139.1912   75.1310  220.7590 H   0  0  0  0  0  0  0  0  0  0  0  0
  137.5065   75.6594  221.9558 H   0  0  0  0  0  0  0  0  0  0  0  0
  137.7355   75.9051  223.6938 H   0  0  0  0  0  0  0  0  0  0  0  0
  136.2500   77.7317  223.7200 H   0  0  0  0  0  0  0  0  0  0  0  0
  135.6780   76.9870  221.0670 H   0  0  0  0  0  0  0  0  0  0  0  0
  136.9686   78.6191  220.8958 H   0  0  0  0  0  0  0  0  0  0  0  0
  136.7802   79.6268  222.3332 H   0  0  0  0  0  0  0  0  0  0  0  0
  139.2925   78.9593  221.3777 H   0  0  0  0  0  0  0  0  0  0  0  0
  138.3939   80.2219  223.5820 H   0  0  0  0  0  0  0  0  0  0  0  0
  139.0802   78.7208  224.3336 H   0  0  0  0  0  0  0  0  0  0  0  0
  140.1012   81.7261  222.1582 H   0  0  0  0  0  0  0  0  0  0  0  0
  142.7468   82.0602  222.3192 H   0  0  0  0  0  0  0  0  0  0  0  0
  143.7142   79.9988  223.7652 H   0  0  0  0  0  0  0  0  0  0  0  0
  141.6286   78.4703  224.4373 H   0  0  0  0  0  0  0  0  0  0  0  0
  138.7733   70.2834  221.9061 H   0  0  0  0  0  0  0  0  0  0  0  0
  138.9253   68.6069  223.7538 H   0  0  0  0  0  0  0  0  0  0  0  0
  139.6202   68.0483  226.0580 H   0  0  0  0  0  0  0  0  0  0  0  0
  141.5357   71.0734  228.4915 H   0  0  0  0  0  0  0  0  0  0  0  0
  141.3730   72.7059  226.6083 H   0  0  0  0  0  0  0  0  0  0  0  0
  1  2  2  0
  2  3  1  0
  3  4  1  0
  4  5  1  0
  5  6  2  0
  5  7  1  0
  7  8  1  0
  8  9  1  0
  9 10  1  0
  9 11  1  0
 11 12  1  0
 12 13  1  0
 13 14  1  0
 14 15  1  0
 15 16  2  0
 16 17  1  0
 17 18  2  0
  2 19  1  0
 19 20  2  0
 20 21  1  0
 21 22  2  0
 22 23  1  0
 23 24  2  0
 24 25  1  0
 24 26  1  0
 26 27  2  0
 27 28  1  0
 28 29  2  0
 12  7  1  0
 18 14  1  0
 29 19  1  0
 28 22  1  0
  4 30  1  0
  4 31  1  0
  8 32  1  0
  8 33  1  0
  9 34  1  1
 10 35  1  0
 11 36  1  0
 11 37  1  0
 12 38  1  6
 13 39  1  0
 13 40  1  0
 15 41  1  0
 16 42  1  0
 17 43  1  0
 18 44  1  0
 20 45  1  0
 21 46  1  0
 23 47  1  0
 26 48  1  0
 27 49  1  0
M  CHG  1   3  -1
M  END
>  <meeko>  (2) 
{"free_energy": -7.63, "intermolecular_energy": -10.02, "internal_energy": -1.18, "cluster_size": 4, "cluster_id": 3, "rank_in_cluster": 1}

$$$$

     RDKit          3D

 49 52  0  0  0  0  0  0  0  0999 V2000
  139.7260   73.8920  222.3330 O   0  0  0  0  0  0  0  0  0  0  0  0
  139.8870   72.6830  222.0260 C   0  0  0  0  0  0  0  0  0  0  0  0
  140.0290   72.3300  220.6440 N   0  0  0  0  0  0  0  0  0  0  0  0
  140.9060   71.2730  220.1560 C   0  0  0  0  0  0  0  0  0  0  0  0
  141.7530   71.8020  219.0400 C   0  0  0  0  0  0  0  0  0  0  0  0
  141.4650   71.4770  217.8560 O   0  0  0  0  0  0  0  0  0  0  0  0
  142.9270   72.5990  219.2900 N   0  0  0  0  0  0  0  0  0  0  0  0
  144.2500   72.1220  218.9150 C   0  0  0  0  0  0  0  0  0  0  0  0
  145.2400   73.0830  219.5710 C   0  0  2  0  0  0  0  0  0  0  0  0
  146.3260   72.3990  220.1370 O   0  0  0  0  0  0  0  0  0  0  0  0
  144.4360   73.8030  220.6510 C   0  0  0  0  0  0  0  0  0  0  0  0
  142.9870   73.7760  220.1550 C   0  0  1  0  0  0  0  0  0  0  0  0
  142.6670   75.0590  219.3570 C   0  0  0  0  0  0  0  0  0  0  0  0
  142.1030   76.1010  220.2110 N   0  0  0  0  0  0  0  0  0  0  0  0
  141.3670   75.9050  221.3220 C   0  0  0  0  0  0  0  0  0  0  0  0
  140.9920   77.1230  221.8510 C   0  0  0  0  0  0  0  0  0  0  0  0
  141.5280   78.0940  221.0260 C   0  0  0  0  0  0  0  0  0  0  0  0
  142.2090   77.4310  220.0250 C   0  0  0  0  0  0  0  0  0  0  0  0
  139.9410   71.6750  223.0980 C   0  0  0  0  0  0  0  0  0  0  0  0
  139.4590   70.3740  222.8900 C   0  0  0  0  0  0  0  0  0  0  0  0
  139.5180   69.4400  223.9250 C   0  0  0  0  0  0  0  0  0  0  0  0
  140.0380   69.8140  225.1700 C   0  0  0  0  0  0  0  0  0  0  0  0
  140.1120   68.9020  226.2330 C   0  0  0  0  0  0  0  0  0  0  0  0
  140.6280   69.3080  227.4690 C   0  0  0  0  0  0  0  0  0  0  0  0
  140.7210   68.1670  228.7980 Cl  0  0  0  0  0  0  0  0  0  0  0  0
  141.0690   70.6250  227.6470 C   0  0  0  0  0  0  0  0  0  0  0  0
  140.9980   71.5400  226.5920 C   0  0  0  0  0  0  0  0  0  0  0  0
  140.4850   71.1420  225.3530 C   0  0  0  0  0  0  0  0  0  0  0  0
  140.4200   72.0280  224.3220 N   0  0  0  0  0  0  0  0  0  0  0  0
  141.5534   70.9265  220.9750 H   0  0  0  0  0  0  0  0  0  0  0  0
  140.2982   70.4331  219.7884 H   0  0  0  0  0  0  0  0  0  0  0  0
  144.4073   71.0982  219.2852 H   0  0  0  0  0  0  0  0  0  0  0  0
  144.3759   72.0942  217.8226 H   0  0  0  0  0  0  0  0  0  0  0  0
  145.6717   73.7785  218.8363 H   0  0  0  0  0  0  0  0  0  0  0  0
  145.9560   71.8490  220.8750 H   0  0  0  0  0  0  0  0  0  0  0  0
  144.5246   73.2774  221.6132 H   0  0  0  0  0  0  0  0  0  0  0  0
  144.7956   74.8292  220.8170 H   0  0  0  0  0  0  0  0  0  0  0  0
  142.2566   73.7307  220.9763 H   0  0  0  0  0  0  0  0  0  0  0  0
  143.5945   75.4355  218.9008 H   0  0  0  0  0  0  0  0  0  0  0  0
  141.9226   74.8069  218.5874 H   0  0  0  0  0  0  0  0  0  0  0  0
  141.1048   74.9233  221.7434 H   0  0  0  0  0  0  0  0  0  0  0  0
  140.3850   77.2889  222.7532 H   0  0  0  0  0  0  0  0  0  0  0  0
  141.4307   79.1833  221.1442 H   0  0  0  0  0  0  0  0  0  0  0  0
  142.7547   77.9147  219.2014 H   0  0  0  0  0  0  0  0  0  0  0  0
  139.0362   70.0913  221.9147 H   0  0  0  0  0  0  0  0  0  0  0  0
  139.1573   68.4135  223.7633 H   0  0  0  0  0  0  0  0  0  0  0  0
  139.7644   67.8675  226.0952 H   0  0  0  0  0  0  0  0  0  0  0  0
  141.4727   70.9409  228.6202 H   0  0  0  0  0  0  0  0  0  0  0  0
  141.3458   72.5735  226.7365 H   0  0  0  0  0  0  0  0  0  0  0  0
  1  2  2  0
  2  3  1  0
  3  4  1  0
  4  5  1  0
  5  6  2  0
  5  7  1  0
  7  8  1  0
  8  9  1  0
  9 10  1  0
  9 11  1  0
 11 12  1  0
 12 13  1  0
 13 14  1  0
 14 15  1  0
 15 16  2  0
 16 17  1  0
 17 18  2  0
  2 19  1  0
 19 20  2  0
 20 21  1  0
 21 22  2  0
 22 23  1  0
 23 24  2  0
 24 25  1  0
 24 26  1  0
 26 27  2  0
 27 28  1  0
 28 29  2  0
 12  7  1  0
 18 14  1  0
 29 19  1  0
 28 22  1  0
  4 30  1  0
  4 31  1  0
  8 32  1  0
  8 33  1  0
  9 34  1  6
 10 35  1  0
 11 36  1  0
 11 37  1  0
 12 38  1  1
 13 39  1  0
 13 40  1  0
 15 41  1  0
 16 42  1  0
 17 43  1  0
 18 44  1  0
 20 45  1  0
 21 46  1  0
 23 47  1  0
 26 48  1  0
 27 49  1  0
M  CHG  1   3  -1
M  END
>  <meeko>  (3) 
{"free_energy": -7.46, "intermolecular_energy": -9.85, "internal_energy": -1.44, "cluster_size": 8, "cluster_id": 1, "rank_in_cluster": 4}

$$$$

     RDKit          3D

 49 52  0  0  0  0  0  0  0  0999 V2000
  139.9680   74.0860  222.0430 O   0  0  0  0  0  0  0  0  0  0  0  0
  140.3110   72.8950  221.8250 C   0  0  0  0  0  0  0  0  0  0  0  0
  140.7890   72.5380  220.5220 N   0  0  0  0  0  0  0  0  0  0  0  0
  140.7130   73.4100  219.3560 C   0  0  0  0  0  0  0  0  0  0  0  0
  141.9420   73.2300  218.5170 C   0  0  0  0  0  0  0  0  0  0  0  0
  141.8210   72.7150  217.3730 O   0  0  0  0  0  0  0  0  0  0  0  0
  143.2550   73.5510  219.0150 N   0  0  0  0  0  0  0  0  0  0  0  0
  144.4240   72.8000  218.5840 C   0  0  0  0  0  0  0  0  0  0  0  0
  145.5610   73.2330  219.5090 C   0  0  2  0  0  0  0  0  0  0  0  0
  146.3360   72.1390  219.9210 O   0  0  0  0  0  0  0  0  0  0  0  0
  144.8710   73.8850  220.7040 C   0  0  0  0  0  0  0  0  0  0  0  0
  143.5420   74.4150  220.1590 C   0  0  1  0  0  0  0  0  0  0  0  0
  143.6920   75.8860  219.7110 C   0  0  0  0  0  0  0  0  0  0  0  0
  142.5060   76.6750  220.0370 N   0  0  0  0  0  0  0  0  0  0  0  0
  142.1990   77.8880  219.5390 C   0  0  0  0  0  0  0  0  0  0  0  0
  141.0150   78.3310  220.0940 C   0  0  0  0  0  0  0  0  0  0  0  0
  140.5890   77.3410  220.9590 C   0  0  0  0  0  0  0  0  0  0  0  0
  141.5300   76.3320  220.8990 C   0  0  0  0  0  0  0  0  0  0  0  0
  140.2270   71.9140  222.9210 C   0  0  0  0  0  0  0  0  0  0  0  0
  139.6240   70.6630  222.7240 C   0  0  0  0  0  0  0  0  0  0  0  0
  139.5530   69.7550  223.7810 C   0  0  0  0  0  0  0  0  0  0  0  0
  140.0640   70.1080  225.0360 C   0  0  0  0  0  0  0  0  0  0  0  0
  140.0100   69.2210  226.1210 C   0  0  0  0  0  0  0  0  0  0  0  0
  140.5190   69.6060  227.3660 C   0  0  0  0  0  0  0  0  0  0  0  0
  140.4520   68.4960  228.7230 Cl  0  0  0  0  0  0  0  0  0  0  0  0
  141.0840   70.8760  227.5310 C   0  0  0  0  0  0  0  0  0  0  0  0
  141.1410   71.7670  226.4540 C   0  0  0  0  0  0  0  0  0  0  0  0
  140.6350   71.3890  225.2060 C   0  0  0  0  0  0  0  0  0  0  0  0
  140.6950   72.2500  224.1540 N   0  0  0  0  0  0  0  0  0  0  0  0
  139.8231   73.1525  218.7629 H   0  0  0  0  0  0  0  0  0  0  0  0
  140.6436   74.4573  219.6851 H   0  0  0  0  0  0  0  0  0  0  0  0
  144.2421   71.7194  218.6804 H   0  0  0  0  0  0  0  0  0  0  0  0
  144.6641   72.9951  217.5284 H   0  0  0  0  0  0  0  0  0  0  0  0
  146.2548   73.9188  219.0007 H   0  0  0  0  0  0  0  0  0  0  0  0
  146.0210   71.9010  220.8310 H   0  0  0  0  0  0  0  0  0  0  0  0
  144.6946   73.1451  221.4987 H   0  0  0  0  0  0  0  0  0  0  0  0
  145.4828   74.6851  221.1462 H   0  0  0  0  0  0  0  0  0  0  0  0
  142.7374   74.3993  220.9089 H   0  0  0  0  0  0  0  0  0  0  0  0
  144.5631   76.3259  220.2185 H   0  0  0  0  0  0  0  0  0  0  0  0
  143.8228   75.8997  218.6189 H   0  0  0  0  0  0  0  0  0  0  0  0
  142.7999   78.4414  218.8024 H   0  0  0  0  0  0  0  0  0  0  0  0
  140.5093   79.2859  219.8878 H   0  0  0  0  0  0  0  0  0  0  0  0
  139.6779   77.3541  221.5752 H   0  0  0  0  0  0  0  0  0  0  0  0
  141.4886   75.3917  221.4684 H   0  0  0  0  0  0  0  0  0  0  0  0
  139.2088   70.3989  221.7402 H   0  0  0  0  0  0  0  0  0  0  0  0
  139.0973   68.7655  223.6290 H   0  0  0  0  0  0  0  0  0  0  0  0
  139.5673   68.2222  225.9931 H   0  0  0  0  0  0  0  0  0  0  0  0
  141.4846   71.1745  228.5110 H   0  0  0  0  0  0  0  0  0  0  0  0
  141.5838   72.7649  226.5886 H   0  0  0  0  0  0  0  0  0  0  0  0
  1  2  2  0
  2  3  1  0
  3  4  1  0
  4  5  1  0
  5  6  2  0
  5  7  1  0
  7  8  1  0
  8  9  1  0
  9 10  1  0
  9 11  1  0
 11 12  1  0
 12 13  1  0
 13 14  1  0
 14 15  1  0
 15 16  2  0
 16 17  1  0
 17 18  2  0
  2 19  1  0
 19 20  2  0
 20 21  1  0
 21 22  2  0
 22 23  1  0
 23 24  2  0
 24 25  1  0
 24 26  1  0
 26 27  2  0
 27 28  1  0
 28 29  2  0
 12  7  1  0
 18 14  1  0
 29 19  1  0
 28 22  1  0
  4 30  1  0
  4 31  1  0
  8 32  1  0
  8 33  1  0
  9 34  1  6
 10 35  1  0
 11 36  1  0
 11 37  1  0
 12 38  1  1
 13 39  1  0
 13 40  1  0
 15 41  1  0
 16 42  1  0
 17 43  1  0
 18 44  1  0
 20 45  1  0
 21 46  1  0
 23 47  1  0
 26 48  1  0
 27 49  1  0
M  CHG  1   3  -1
M  END
>  <meeko>  (4) 
{"free_energy": -7.42, "intermolecular_energy": -9.81, "internal_energy": -1.51, "cluster_size": 8, "cluster_id": 1, "rank_in_cluster": 5}

$$$$

     RDKit          3D

 49 52  0  0  0  0  0  0  0  0999 V2000
  138.9590   72.6660  221.2090 O   0  0  0  0  0  0  0  0  0  0  0  0
  139.8840   72.7220  222.0610 C   0  0  0  0  0  0  0  0  0  0  0  0
  140.8430   73.7830  221.9750 N   0  0  0  0  0  0  0  0  0  0  0  0
  141.3160   74.3590  220.7220 C   0  0  0  0  0  0  0  0  0  0  0  0
  140.5480   75.6120  220.4270 C   0  0  0  0  0  0  0  0  0  0  0  0
  140.6320   76.1140  219.2740 O   0  0  0  0  0  0  0  0  0  0  0  0
  139.7900   76.2950  221.4440 N   0  0  0  0  0  0  0  0  0  0  0  0
  138.5250   75.7580  221.9230 C   0  0  0  0  0  0  0  0  0  0  0  0
  137.8970   76.8650  222.7680 C   0  0  2  0  0  0  0  0  0  0  0  0
  136.5230   76.9900  222.5160 O   0  0  0  0  0  0  0  0  0  0  0  0
  138.6360   78.1380  222.3650 C   0  0  0  0  0  0  0  0  0  0  0  0
  140.0150   77.6680  221.8940 C   0  0  1  0  0  0  0  0  0  0  0  0
  141.0250   77.7030  223.0620 C   0  0  0  0  0  0  0  0  0  0  0  0
  141.5850   79.0380  223.2540 N   0  0  0  0  0  0  0  0  0  0  0  0
  142.8220   79.4380  222.9020 C   0  0  0  0  0  0  0  0  0  0  0  0
  143.0020   80.7590  223.2600 C   0  0  0  0  0  0  0  0  0  0  0  0
  141.8230   81.1730  223.8490 C   0  0  0  0  0  0  0  0  0  0  0  0
  140.9680   80.0890  223.8280 C   0  0  0  0  0  0  0  0  0  0  0  0
  139.9360   71.7070  223.1260 C   0  0  0  0  0  0  0  0  0  0  0  0
  139.4360   70.4130  222.9150 C   0  0  0  0  0  0  0  0  0  0  0  0
  139.4940   69.4730  223.9430 C   0  0  0  0  0  0  0  0  0  0  0  0
  140.0280   69.8330  225.1860 C   0  0  0  0  0  0  0  0  0  0  0  0
  140.1010   68.9130  226.2430 C   0  0  0  0  0  0  0  0  0  0  0  0
  140.6320   69.3060  227.4770 C   0  0  0  0  0  0  0  0  0  0  0  0
  140.7230   68.1550  228.7980 Cl  0  0  0  0  0  0  0  0  0  0  0  0
  141.0890   70.6160  227.6590 C   0  0  0  0  0  0  0  0  0  0  0  0
  141.0200   71.5390  226.6100 C   0  0  0  0  0  0  0  0  0  0  0  0
  140.4920   71.1540  225.3730 C   0  0  0  0  0  0  0  0  0  0  0  0
  140.4290   72.0470  224.3480 N   0  0  0  0  0  0  0  0  0  0  0  0
  142.3865   74.5968  220.8087 H   0  0  0  0  0  0  0  0  0  0  0  0
  141.1660   73.6363  219.9064 H   0  0  0  0  0  0  0  0  0  0  0  0
  137.8708   75.5049  221.0757 H   0  0  0  0  0  0  0  0  0  0  0  0
  138.6708   74.8366  222.5059 H   0  0  0  0  0  0  0  0  0  0  0  0
  137.9880   76.6508  223.8431 H   0  0  0  0  0  0  0  0  0  0  0  0
  136.4370   77.2850  221.5730 H   0  0  0  0  0  0  0  0  0  0  0  0
  138.1043   78.6515  221.5504 H   0  0  0  0  0  0  0  0  0  0  0  0
  138.7071   78.8537  223.1973 H   0  0  0  0  0  0  0  0  0  0  0  0
  140.4345   78.3061  221.1022 H   0  0  0  0  0  0  0  0  0  0  0  0
  140.5124   77.3956  223.9854 H   0  0  0  0  0  0  0  0  0  0  0  0
  141.8505   77.0170  222.8213 H   0  0  0  0  0  0  0  0  0  0  0  0
  143.5743   78.8080  222.4049 H   0  0  0  0  0  0  0  0  0  0  0  0
  143.9077   81.3640  223.1062 H   0  0  0  0  0  0  0  0  0  0  0  0
  141.6073   82.1720  224.2557 H   0  0  0  0  0  0  0  0  0  0  0  0
  139.9402   80.0843  224.2200 H   0  0  0  0  0  0  0  0  0  0  0  0
  139.0000   70.1413  221.9423 H   0  0  0  0  0  0  0  0  0  0  0  0
  139.1212   68.4514  223.7778 H   0  0  0  0  0  0  0  0  0  0  0  0
  139.7410   67.8832  226.1019 H   0  0  0  0  0  0  0  0  0  0  0  0
  141.5042   70.9213  228.6308 H   0  0  0  0  0  0  0  0  0  0  0  0
  141.3809   72.5675  226.7578 H   0  0  0  0  0  0  0  0  0  0  0  0
  1  2  2  0
  2  3  1  0
  3  4  1  0
  4  5  1  0
  5  6  2  0
  5  7  1  0
  7  8  1  0
  8  9  1  0
  9 10  1  0
  9 11  1  0
 11 12  1  0
 12 13  1  0
 13 14  1  0
 14 15  1  0
 15 16  2  0
 16 17  1  0
 17 18  2  0
  2 19  1  0
 19 20  2  0
 20 21  1  0
 21 22  2  0
 22 23  1  0
 23 24  2  0
 24 25  1  0
 24 26  1  0
 26 27  2  0
 27 28  1  0
 28 29  2  0
 12  7  1  0
 18 14  1  0
 29 19  1  0
 28 22  1  0
  4 30  1  0
  4 31  1  0
  8 32  1  0
  8 33  1  0
  9 34  1  1
 10 35  1  0
 11 36  1  0
 11 37  1  0
 12 38  1  6
 13 39  1  0
 13 40  1  0
 15 41  1  0
 16 42  1  0
 17 43  1  0
 18 44  1  0
 20 45  1  0
 21 46  1  0
 23 47  1  0
 26 48  1  0
 27 49  1  0
M  CHG  1   3  -1
M  END
>  <meeko>  (5) 
{"free_energy": -7.42, "intermolecular_energy": -9.81, "internal_energy": -1.26, "cluster_size": 4, "cluster_id": 3, "rank_in_cluster": 3}

$$$$

     RDKit          3D

 49 52  0  0  0  0  0  0  0  0999 V2000
  141.2200   73.0290  220.9780 O   0  0  0  0  0  0  0  0  0  0  0  0
  140.1380   72.8730  221.6010 C   0  0  0  0  0  0  0  0  0  0  0  0
  138.9890   73.6270  221.1960 N   0  0  0  0  0  0  0  0  0  0  0  0
  138.4170   74.7240  221.9680 C   0  0  0  0  0  0  0  0  0  0  0  0
  138.9720   76.0250  221.4740 C   0  0  0  0  0  0  0  0  0  0  0  0
  138.3700   77.0920  221.7750 O   0  0  0  0  0  0  0  0  0  0  0  0
  140.1190   76.0800  220.6040 N   0  0  0  0  0  0  0  0  0  0  0  0
  140.1170   75.3970  219.3190 C   0  0  0  0  0  0  0  0  0  0  0  0
  141.5610   75.4470  218.8200 C   0  0  2  0  0  0  0  0  0  0  0  0
  141.9570   74.2210  218.2630 O   0  0  0  0  0  0  0  0  0  0  0  0
  142.3950   75.7710  220.0560 C   0  0  0  0  0  0  0  0  0  0  0  0
  141.4530   76.5420  220.9840 C   0  0  1  0  0  0  0  0  0  0  0  0
  141.5920   78.0630  220.7500 C   0  0  0  0  0  0  0  0  0  0  0  0
  141.7900   78.7880  222.0030 N   0  0  0  0  0  0  0  0  0  0  0  0
  142.3330   80.0140  222.1320 C   0  0  0  0  0  0  0  0  0  0  0  0
  142.3780   80.3630  223.4670 C   0  0  0  0  0  0  0  0  0  0  0  0
  141.8350   79.3040  224.1700 C   0  0  0  0  0  0  0  0  0  0  0  0
  141.4810   78.3500  223.2380 C   0  0  0  0  0  0  0  0  0  0  0  0
  140.0850   71.9080  222.7130 C   0  0  0  0  0  0  0  0  0  0  0  0
  139.4790   70.6540  222.5500 C   0  0  0  0  0  0  0  0  0  0  0  0
  139.4390   69.7600  223.6210 C   0  0  0  0  0  0  0  0  0  0  0  0
  139.9830   70.1310  224.8560 C   0  0  0  0  0  0  0  0  0  0  0  0
  139.9600   69.2590  225.9550 C   0  0  0  0  0  0  0  0  0  0  0  0
  140.5030   69.6620  227.1800 C   0  0  0  0  0  0  0  0  0  0  0  0
  140.4750   68.5700  228.5530 Cl  0  0  0  0  0  0  0  0  0  0  0  0
  141.0700   70.9350  227.3120 C   0  0  0  0  0  0  0  0  0  0  0  0
  141.0970   71.8110  226.2210 C   0  0  0  0  0  0  0  0  0  0  0  0
  140.5570   71.4150  224.9930 C   0  0  0  0  0  0  0  0  0  0  0  0
  140.5870   72.2610  223.9280 N   0  0  0  0  0  0  0  0  0  0  0  0
  137.3233   74.7237  221.8506 H   0  0  0  0  0  0  0  0  0  0  0  0
  138.6718   74.5965  223.0305 H   0  0  0  0  0  0  0  0  0  0  0  0
  139.7892   74.3540  219.4399 H   0  0  0  0  0  0  0  0  0  0  0  0
  139.4257   75.8730  218.6080 H   0  0  0  0  0  0  0  0  0  0  0  0
  141.6860   76.1947  218.0229 H   0  0  0  0  0  0  0  0  0  0  0  0
  141.7170   73.5230  218.9260 H   0  0  0  0  0  0  0  0  0  0  0  0
  142.7424   74.8465  220.5403 H   0  0  0  0  0  0  0  0  0  0  0  0
  143.2934   76.3540  219.8049 H   0  0  0  0  0  0  0  0  0  0  0  0
  141.6697   76.3697  222.0486 H   0  0  0  0  0  0  0  0  0  0  0  0
  142.4552   78.2449  220.0929 H   0  0  0  0  0  0  0  0  0  0  0  0
  140.6613   78.4248  220.2886 H   0  0  0  0  0  0  0  0  0  0  0  0
  142.6866   80.6414  221.3005 H   0  0  0  0  0  0  0  0  0  0  0  0
  142.7695   81.3005  223.8887 H   0  0  0  0  0  0  0  0  0  0  0  0
  141.7095   79.2351  225.2606 H   0  0  0  0  0  0  0  0  0  0  0  0
  141.0171   77.3797  223.4689 H   0  0  0  0  0  0  0  0  0  0  0  0
  139.0369   70.3760  221.5819 H   0  0  0  0  0  0  0  0  0  0  0  0
  138.9816   68.7676  223.4949 H   0  0  0  0  0  0  0  0  0  0  0  0
  139.5149   68.2582  225.8535 H   0  0  0  0  0  0  0  0  0  0  0  0
  141.4959   71.2479  228.2767 H   0  0  0  0  0  0  0  0  0  0  0  0
  141.5428   72.8108  226.3291 H   0  0  0  0  0  0  0  0  0  0  0  0
  1  2  2  0
  2  3  1  0
  3  4  1  0
  4  5  1  0
  5  6  2  0
  5  7  1  0
  7  8  1  0
  8  9  1  0
  9 10  1  0
  9 11  1  0
 11 12  1  0
 12 13  1  0
 13 14  1  0
 14 15  1  0
 15 16  2  0
 16 17  1  0
 17 18  2  0
  2 19  1  0
 19 20  2  0
 20 21  1  0
 21 22  2  0
 22 23  1  0
 23 24  2  0
 24 25  1  0
 24 26  1  0
 26 27  2  0
 27 28  1  0
 28 29  2  0
 12  7  1  0
 18 14  1  0
 29 19  1  0
 28 22  1  0
  4 30  1  0
  4 31  1  0
  8 32  1  0
  8 33  1  0
  9 34  1  6
 10 35  1  0
 11 36  1  0
 11 37  1  0
 12 38  1  1
 13 39  1  0
 13 40  1  0
 15 41  1  0
 16 42  1  0
 17 43  1  0
 18 44  1  0
 20 45  1  0
 21 46  1  0
 23 47  1  0
 26 48  1  0
 27 49  1  0
M  CHG  1   3  -1
M  END
>  <meeko>  (6) 
{"free_energy": -6.47, "intermolecular_energy": -8.86, "internal_energy": -2.19, "cluster_size": 3, "cluster_id": 4, "rank_in_cluster": 2}

$$$$

     RDKit          3D

 49 52  0  0  0  0  0  0  0  0999 V2000
  139.8030   74.0080  222.3450 O   0  0  0  0  0  0  0  0  0  0  0  0
  139.6720   72.7930  222.0410 C   0  0  0  0  0  0  0  0  0  0  0  0
  139.4310   72.4420  220.6730 N   0  0  0  0  0  0  0  0  0  0  0  0
  140.4020   72.6200  219.6000 C   0  0  0  0  0  0  0  0  0  0  0  0
  141.7030   71.9900  219.9940 C   0  0  0  0  0  0  0  0  0  0  0  0
  141.6840   70.8470  220.5260 O   0  0  0  0  0  0  0  0  0  0  0  0
  142.9560   72.6870  219.8560 N   0  0  0  0  0  0  0  0  0  0  0  0
  144.1320   72.0160  219.3220 C   0  0  0  0  0  0  0  0  0  0  0  0
  145.3040   72.9610  219.5810 C   0  0  2  0  0  0  0  0  0  0  0  0
  146.4350   72.2670  220.0380 O   0  0  0  0  0  0  0  0  0  0  0  0
  144.8010   73.9310  220.6470 C   0  0  0  0  0  0  0  0  0  0  0  0
  143.2820   73.9770  220.4610 C   0  0  1  0  0  0  0  0  0  0  0  0
  142.8900   75.1380  219.5190 C   0  0  0  0  0  0  0  0  0  0  0  0
  142.1990   76.2070  220.2360 N   0  0  0  0  0  0  0  0  0  0  0  0
  142.2300   77.5180  219.9270 C   0  0  0  0  0  0  0  0  0  0  0  0
  141.4760   78.2270  220.8400 C   0  0  0  0  0  0  0  0  0  0  0  0
  140.9670   77.3040  221.7340 C   0  0  0  0  0  0  0  0  0  0  0  0
  141.4290   76.0680  221.3320 C   0  0  0  0  0  0  0  0  0  0  0  0
  139.7910   71.7750  223.0990 C   0  0  0  0  0  0  0  0  0  0  0  0
  139.3400   70.4640  222.8910 C   0  0  0  0  0  0  0  0  0  0  0  0
  139.4590   69.5200  223.9110 C   0  0  0  0  0  0  0  0  0  0  0  0
  140.0080   69.8950  225.1430 C   0  0  0  0  0  0  0  0  0  0  0  0
  140.1430   68.9730  226.1920 C   0  0  0  0  0  0  0  0  0  0  0  0
  140.6860   69.3800  227.4160 C   0  0  0  0  0  0  0  0  0  0  0  0
  140.8560   68.2260  228.7270 Cl  0  0  0  0  0  0  0  0  0  0  0  0
  141.0950   70.7070  227.5960 C   0  0  0  0  0  0  0  0  0  0  0  0
  140.9630   71.6320  226.5550 C   0  0  0  0  0  0  0  0  0  0  0  0
  140.4230   71.2330  225.3280 C   0  0  0  0  0  0  0  0  0  0  0  0
  140.2990   72.1280  224.3110 N   0  0  0  0  0  0  0  0  0  0  0  0
  140.0265   72.1428  218.6828 H   0  0  0  0  0  0  0  0  0  0  0  0
  140.5549   73.6941  219.4184 H   0  0  0  0  0  0  0  0  0  0  0  0
  144.2924   71.0570  219.8363 H   0  0  0  0  0  0  0  0  0  0  0  0
  144.0199   71.7942  218.2504 H   0  0  0  0  0  0  0  0  0  0  0  0
  145.6173   73.4755  218.6606 H   0  0  0  0  0  0  0  0  0  0  0  0
  146.1890   71.8810  220.9180 H   0  0  0  0  0  0  0  0  0  0  0  0
  145.0558   73.5654  221.6527 H   0  0  0  0  0  0  0  0  0  0  0  0
  145.2584   74.9263  220.5468 H   0  0  0  0  0  0  0  0  0  0  0  0
  142.7426   74.1459  221.4047 H   0  0  0  0  0  0  0  0  0  0  0  0
  143.8019   75.5481  219.0604 H   0  0  0  0  0  0  0  0  0  0  0  0
  142.2068   74.7420  218.7532 H   0  0  0  0  0  0  0  0  0  0  0  0
  142.7733   77.9563  219.0769 H   0  0  0  0  0  0  0  0  0  0  0  0
  141.3121   79.3146  220.8535 H   0  0  0  0  0  0  0  0  0  0  0  0
  140.3194   77.5142  222.5980 H   0  0  0  0  0  0  0  0  0  0  0  0
  141.2029   75.1140  221.8308 H   0  0  0  0  0  0  0  0  0  0  0  0
  138.8936   70.1806  221.9264 H   0  0  0  0  0  0  0  0  0  0  0  0
  139.1229   68.4854  223.7480 H   0  0  0  0  0  0  0  0  0  0  0  0
  139.8220   67.9302  226.0523 H   0  0  0  0  0  0  0  0  0  0  0  0
  141.5216   71.0232  228.5593 H   0  0  0  0  0  0  0  0  0  0  0  0
  141.2841   72.6739  226.7014 H   0  0  0  0  0  0  0  0  0  0  0  0
  1  2  2  0
  2  3  1  0
  3  4  1  0
  4  5  1  0
  5  6  2  0
  5  7  1  0
  7  8  1  0
  8  9  1  0
  9 10  1  0
  9 11  1  0
 11 12  1  0
 12 13  1  0
 13 14  1  0
 14 15  1  0
 15 16  2  0
 16 17  1  0
 17 18  2  0
  2 19  1  0
 19 20  2  0
 20 21  1  0
 21 22  2  0
 22 23  1  0
 23 24  2  0
 24 25  1  0
 24 26  1  0
 26 27  2  0
 27 28  1  0
 28 29  2  0
 12  7  1  0
 18 14  1  0
 29 19  1  0
 28 22  1  0
  4 30  1  0
  4 31  1  0
  8 32  1  0
  8 33  1  0
  9 34  1  6
 10 35  1  0
 11 36  1  0
 11 37  1  0
 12 38  1  1
 13 39  1  0
 13 40  1  0
 15 41  1  0
 16 42  1  0
 17 43  1  0
 18 44  1  0
 20 45  1  0
 21 46  1  0
 23 47  1  0
 26 48  1  0
 27 49  1  0
M  CHG  1   3  -1
M  END
>  <meeko>  (7) 
{"free_energy": -7.7, "intermolecular_energy": -10.09, "internal_energy": -1.59, "cluster_size": 8, "cluster_id": 1, "rank_in_cluster": 2}

$$$$

     RDKit          3D

 49 52  0  0  0  0  0  0  0  0999 V2000
  139.4330   72.5070  220.7770 O   0  0  0  0  0  0  0  0  0  0  0  0
  139.9290   72.8330  221.8860 C   0  0  0  0  0  0  0  0  0  0  0  0
  140.4330   74.1640  222.0570 N   0  0  0  0  0  0  0  0  0  0  0  0
  139.6230   75.3680  221.9260 C   0  0  0  0  0  0  0  0  0  0  0  0
  140.3930   76.4100  221.1730 C   0  0  0  0  0  0  0  0  0  0  0  0
  140.9160   76.0940  220.0700 O   0  0  0  0  0  0  0  0  0  0  0  0
  140.6170   77.7270  221.7120 N   0  0  0  0  0  0  0  0  0  0  0  0
  141.8030   78.4910  221.3540 C   0  0  0  0  0  0  0  0  0  0  0  0
  141.8330   79.6830  222.3090 C   0  0  2  0  0  0  0  0  0  0  0  0
  143.1280   79.9280  222.7890 O   0  0  0  0  0  0  0  0  0  0  0  0
  140.9000   79.2970  223.4530 C   0  0  0  0  0  0  0  0  0  0  0  0
  139.8960   78.3180  222.8380 C   0  0  1  0  0  0  0  0  0  0  0  0
  138.6400   79.0720  222.3470 C   0  0  0  0  0  0  0  0  0  0  0  0
  137.4100   78.3760  222.7190 N   0  0  0  0  0  0  0  0  0  0  0  0
  137.2240   77.0420  222.7210 C   0  0  0  0  0  0  0  0  0  0  0  0
  135.9300   76.7550  223.1080 C   0  0  0  0  0  0  0  0  0  0  0  0
  135.3130   77.9670  223.3530 C   0  0  0  0  0  0  0  0  0  0  0  0
  136.2540   78.9470  223.1060 C   0  0  0  0  0  0  0  0  0  0  0  0
  139.9570   71.8430  222.9760 C   0  0  0  0  0  0  0  0  0  0  0  0
  139.4410   70.5520  222.7900 C   0  0  0  0  0  0  0  0  0  0  0  0
  139.4760   69.6350  223.8410 C   0  0  0  0  0  0  0  0  0  0  0  0
  140.0050   70.0160  225.0790 C   0  0  0  0  0  0  0  0  0  0  0  0
  140.0550   69.1200  226.1570 C   0  0  0  0  0  0  0  0  0  0  0  0
  140.5810   69.5340  227.3870 C   0  0  0  0  0  0  0  0  0  0  0  0
  140.6440   68.4140  228.7350 Cl  0  0  0  0  0  0  0  0  0  0  0  0
  141.0560   70.8420  227.5430 C   0  0  0  0  0  0  0  0  0  0  0  0
  141.0090   71.7410  226.4720 C   0  0  0  0  0  0  0  0  0  0  0  0
  140.4870   71.3340  225.2400 C   0  0  0  0  0  0  0  0  0  0  0  0
  140.4450   72.2040  224.1940 N   0  0  0  0  0  0  0  0  0  0  0  0
  138.6982   75.1299  221.3801 H   0  0  0  0  0  0  0  0  0  0  0  0
  139.3710   75.7504  222.9261 H   0  0  0  0  0  0  0  0  0  0  0  0
  142.7068   77.8767  221.4793 H   0  0  0  0  0  0  0  0  0  0  0  0
  141.7747   78.8144  220.3030 H   0  0  0  0  0  0  0  0  0  0  0  0
  141.5179   80.6089  221.8056 H   0  0  0  0  0  0  0  0  0  0  0  0
  143.7290   79.3090  222.2980 H   0  0  0  0  0  0  0  0  0  0  0  0
  141.4637   78.8129  224.2641 H   0  0  0  0  0  0  0  0  0  0  0  0
  140.4029   80.1743  223.8925 H   0  0  0  0  0  0  0  0  0  0  0  0
  139.5447   77.5620  223.5557 H   0  0  0  0  0  0  0  0  0  0  0  0
  138.6300   80.0768  222.7946 H   0  0  0  0  0  0  0  0  0  0  0  0
  138.6824   79.1290  221.2493 H   0  0  0  0  0  0  0  0  0  0  0  0
  137.9865   76.2952  222.4549 H   0  0  0  0  0  0  0  0  0  0  0  0
  135.4784   75.7565  223.2028 H   0  0  0  0  0  0  0  0  0  0  0  0
  134.2744   78.1211  223.6809 H   0  0  0  0  0  0  0  0  0  0  0  0
  136.0848   80.0290  223.2097 H   0  0  0  0  0  0  0  0  0  0  0  0
  139.0106   70.2638  221.8196 H   0  0  0  0  0  0  0  0  0  0  0  0
  139.0888   68.6155  223.6967 H   0  0  0  0  0  0  0  0  0  0  0  0
  139.6812   68.0925  226.0363 H   0  0  0  0  0  0  0  0  0  0  0  0
  141.4675   71.1638  228.5110 H   0  0  0  0  0  0  0  0  0  0  0  0
  141.3826   72.7678  226.5989 H   0  0  0  0  0  0  0  0  0  0  0  0
  1  2  2  0
  2  3  1  0
  3  4  1  0
  4  5  1  0
  5  6  2  0
  5  7  1  0
  7  8  1  0
  8  9  1  0
  9 10  1  0
  9 11  1  0
 11 12  1  0
 12 13  1  0
 13 14  1  0
 14 15  1  0
 15 16  2  0
 16 17  1  0
 17 18  2  0
  2 19  1  0
 19 20  2  0
 20 21  1  0
 21 22  2  0
 22 23  1  0
 23 24  2  0
 24 25  1  0
 24 26  1  0
 26 27  2  0
 27 28  1  0
 28 29  2  0
 12  7  1  0
 18 14  1  0
 29 19  1  0
 28 22  1  0
  4 30  1  0
  4 31  1  0
  8 32  1  0
  8 33  1  0
  9 34  1  6
 10 35  1  0
 11 36  1  0
 11 37  1  0
 12 38  1  1
 13 39  1  0
 13 40  1  0
 15 41  1  0
 16 42  1  0
 17 43  1  0
 18 44  1  0
 20 45  1  0
 21 46  1  0
 23 47  1  0
 26 48  1  0
 27 49  1  0
M  CHG  1   3  -1
M  END
>  <meeko>  (8) 
{"free_energy": -7.49, "intermolecular_energy": -9.88, "internal_energy": -1.03, "cluster_size": 1, "cluster_id": 5, "rank_in_cluster": 1}

$$$$

     RDKit          3D

 49 52  0  0  0  0  0  0  0  0999 V2000
  139.9870   74.0750  222.0070 O   0  0  0  0  0  0  0  0  0  0  0  0
  140.4470   72.9140  221.8460 C   0  0  0  0  0  0  0  0  0  0  0  0
  141.1010   72.5920  220.6130 N   0  0  0  0  0  0  0  0  0  0  0  0
  140.6900   73.1030  219.3110 C   0  0  0  0  0  0  0  0  0  0  0  0
  141.8970   73.2860  218.4420 C   0  0  0  0  0  0  0  0  0  0  0  0
  141.7840   73.0880  217.2020 O   0  0  0  0  0  0  0  0  0  0  0  0
  143.1890   73.6000  218.9950 N   0  0  0  0  0  0  0  0  0  0  0  0
  144.3800   72.8770  218.5740 C   0  0  0  0  0  0  0  0  0  0  0  0
  145.4820   73.2840  219.5510 C   0  0  2  0  0  0  0  0  0  0  0  0
  146.2540   72.1810  219.9460 O   0  0  0  0  0  0  0  0  0  0  0  0
  144.7470   73.8820  220.7480 C   0  0  0  0  0  0  0  0  0  0  0  0
  143.4300   74.4210  220.1810 C   0  0  1  0  0  0  0  0  0  0  0  0
  143.5790   75.9090  219.7950 C   0  0  0  0  0  0  0  0  0  0  0  0
  143.0060   76.1880  218.4800 N   0  0  0  0  0  0  0  0  0  0  0  0
  143.6500   76.1020  217.3000 C   0  0  0  0  0  0  0  0  0  0  0  0
  142.7940   76.4610  216.2780 C   0  0  0  0  0  0  0  0  0  0  0  0
  141.5830   76.7720  216.8680 C   0  0  0  0  0  0  0  0  0  0  0  0
  141.7470   76.5920  218.2260 C   0  0  0  0  0  0  0  0  0  0  0  0
  140.3130   71.9350  222.9380 C   0  0  0  0  0  0  0  0  0  0  0  0
  139.6970   70.6930  222.7210 C   0  0  0  0  0  0  0  0  0  0  0  0
  139.5780   69.7860  223.7740 C   0  0  0  0  0  0  0  0  0  0  0  0
  140.0540   70.1300  225.0440 C   0  0  0  0  0  0  0  0  0  0  0  0
  139.9510   69.2420  226.1260 C   0  0  0  0  0  0  0  0  0  0  0  0
  140.4270   69.6190  227.3880 C   0  0  0  0  0  0  0  0  0  0  0  0
  140.2990   68.5090  228.7400 Cl  0  0  0  0  0  0  0  0  0  0  0  0
  141.0050   70.8800  227.5720 C   0  0  0  0  0  0  0  0  0  0  0  0
  141.1110   71.7710  226.4980 C   0  0  0  0  0  0  0  0  0  0  0  0
  140.6400   71.4010  225.2340 C   0  0  0  0  0  0  0  0  0  0  0  0
  140.7470   72.2620  224.1850 N   0  0  0  0  0  0  0  0  0  0  0  0
  140.0020   72.3875  218.8369 H   0  0  0  0  0  0  0  0  0  0  0  0
  140.1817   74.0699  219.4406 H   0  0  0  0  0  0  0  0  0  0  0  0
  144.2065   71.7919  218.6229 H   0  0  0  0  0  0  0  0  0  0  0  0
  144.6520   73.1155  217.5352 H   0  0  0  0  0  0  0  0  0  0  0  0
  146.1844   73.9954  219.0922 H   0  0  0  0  0  0  0  0  0  0  0  0
  145.9310   71.9220  220.8480 H   0  0  0  0  0  0  0  0  0  0  0  0
  144.5531   73.1097  221.5069 H   0  0  0  0  0  0  0  0  0  0  0  0
  145.3358   74.6696  221.2409 H   0  0  0  0  0  0  0  0  0  0  0  0
  142.6022   74.3685  220.9035 H   0  0  0  0  0  0  0  0  0  0  0  0
  143.0633   76.5252  220.5462 H   0  0  0  0  0  0  0  0  0  0  0  0
  144.6523   76.1470  219.7580 H   0  0  0  0  0  0  0  0  0  0  0  0
  144.6977   75.7930  217.1705 H   0  0  0  0  0  0  0  0  0  0  0  0
  143.0295   76.4933  215.2040 H   0  0  0  0  0  0  0  0  0  0  0  0
  140.6669   77.0993  216.3546 H   0  0  0  0  0  0  0  0  0  0  0  0
  140.9679   76.7539  218.9855 H   0  0  0  0  0  0  0  0  0  0  0  0
  139.3094   70.4356  221.7242 H   0  0  0  0  0  0  0  0  0  0  0  0
  139.1117   68.8039  223.6066 H   0  0  0  0  0  0  0  0  0  0  0  0
  139.4967   68.2505  225.9829 H   0  0  0  0  0  0  0  0  0  0  0  0
  141.3776   71.1721  228.5649 H   0  0  0  0  0  0  0  0  0  0  0  0
  141.5645   72.7619  226.6478 H   0  0  0  0  0  0  0  0  0  0  0  0
  1  2  2  0
  2  3  1  0
  3  4  1  0
  4  5  1  0
  5  6  2  0
  5  7  1  0
  7  8  1  0
  8  9  1  0
  9 10  1  0
  9 11  1  0
 11 12  1  0
 12 13  1  0
 13 14  1  0
 14 15  1  0
 15 16  2  0
 16 17  1  0
 17 18  2  0
  2 19  1  0
 19 20  2  0
 20 21  1  0
 21 22  2  0
 22 23  1  0
 23 24  2  0
 24 25  1  0
 24 26  1  0
 26 27  2  0
 27 28  1  0
 28 29  2  0
 12  7  1  0
 18 14  1  0
 29 19  1  0
 28 22  1  0
  4 30  1  0
  4 31  1  0
  8 32  1  0
  8 33  1  0
  9 34  1  6
 10 35  1  0
 11 36  1  0
 11 37  1  0
 12 38  1  1
 13 39  1  0
 13 40  1  0
 15 41  1  0
 16 42  1  0
 17 43  1  0
 18 44  1  0
 20 45  1  0
 21 46  1  0
 23 47  1  0
 26 48  1  0
 27 49  1  0
M  CHG  1   3  -1
M  END
>  <meeko>  (9) 
{"free_energy": -6.87, "intermolecular_energy": -9.26, "internal_energy": -1.63, "cluster_size": 8, "cluster_id": 1, "rank_in_cluster": 8}

$$$$

     RDKit          3D

 49 52  0  0  0  0  0  0  0  0999 V2000
  141.1260   73.0020  221.0430 O   0  0  0  0  0  0  0  0  0  0  0  0
  140.0540   72.8570  221.6870 C   0  0  0  0  0  0  0  0  0  0  0  0
  138.9060   73.6240  221.3050 N   0  0  0  0  0  0  0  0  0  0  0  0
  138.4740   74.8410  221.9810 C   0  0  0  0  0  0  0  0  0  0  0  0
  138.9200   76.0350  221.1930 C   0  0  0  0  0  0  0  0  0  0  0  0
  138.1590   77.0390  221.1340 O   0  0  0  0  0  0  0  0  0  0  0  0
  140.1480   76.0320  220.4390 N   0  0  0  0  0  0  0  0  0  0  0  0
  140.2550   75.3030  219.1840 C   0  0  0  0  0  0  0  0  0  0  0  0
  141.7420   75.3010  218.8300 C   0  0  2  0  0  0  0  0  0  0  0  0
  142.1580   74.0480  218.3580 O   0  0  0  0  0  0  0  0  0  0  0  0
  142.4580   75.6510  220.1320 C   0  0  0  0  0  0  0  0  0  0  0  0
  141.4500   76.4780  220.9340 C   0  0  1  0  0  0  0  0  0  0  0  0
  141.6510   77.9850  220.6640 C   0  0  0  0  0  0  0  0  0  0  0  0
  141.8080   78.7420  221.9030 N   0  0  0  0  0  0  0  0  0  0  0  0
  141.4550   78.3280  223.1360 C   0  0  0  0  0  0  0  0  0  0  0  0
  141.7350   79.3180  224.0550 C   0  0  0  0  0  0  0  0  0  0  0  0
  142.2820   80.3710  223.3480 C   0  0  0  0  0  0  0  0  0  0  0  0
  142.3160   79.9830  222.0230 C   0  0  0  0  0  0  0  0  0  0  0  0
  140.0140   71.8900  222.7970 C   0  0  0  0  0  0  0  0  0  0  0  0
  139.3890   70.6440  222.6450 C   0  0  0  0  0  0  0  0  0  0  0  0
  139.3600   69.7490  223.7150 C   0  0  0  0  0  0  0  0  0  0  0  0
  139.9340   70.1110  224.9390 C   0  0  0  0  0  0  0  0  0  0  0  0
  139.9240   69.2370  226.0370 C   0  0  0  0  0  0  0  0  0  0  0  0
  140.4970   69.6310  227.2510 C   0  0  0  0  0  0  0  0  0  0  0  0
  140.4840   68.5370  228.6230 Cl  0  0  0  0  0  0  0  0  0  0  0  0
  141.0820   70.8970  227.3730 C   0  0  0  0  0  0  0  0  0  0  0  0
  141.0960   71.7740  226.2830 C   0  0  0  0  0  0  0  0  0  0  0  0
  140.5270   71.3870  225.0660 C   0  0  0  0  0  0  0  0  0  0  0  0
  140.5440   72.2350  224.0020 N   0  0  0  0  0  0  0  0  0  0  0  0
  137.3771   74.8450  222.0636 H   0  0  0  0  0  0  0  0  0  0  0  0
  138.9174   74.8789  222.9869 H   0  0  0  0  0  0  0  0  0  0  0  0
  139.8889   74.2730  219.3068 H   0  0  0  0  0  0  0  0  0  0  0  0
  139.6505   75.7690  218.3919 H   0  0  0  0  0  0  0  0  0  0  0  0
  141.9652   76.0156  218.0241 H   0  0  0  0  0  0  0  0  0  0  0  0
  141.8820   73.3860  219.0430 H   0  0  0  0  0  0  0  0  0  0  0  0
  142.7303   74.7371  220.6803 H   0  0  0  0  0  0  0  0  0  0  0  0
  143.3923   76.2030  219.9521 H   0  0  0  0  0  0  0  0  0  0  0  0
  141.5563   76.3411  222.0203 H   0  0  0  0  0  0  0  0  0  0  0  0
  142.5525   78.1192  220.0481 H   0  0  0  0  0  0  0  0  0  0  0  0
  140.7575   78.3613  220.1444 H   0  0  0  0  0  0  0  0  0  0  0  0
  141.0113   77.3499  223.3734 H   0  0  0  0  0  0  0  0  0  0  0  0
  141.5572   79.2768  225.1398 H   0  0  0  0  0  0  0  0  0  0  0  0
  142.6240   81.3318  223.7602 H   0  0  0  0  0  0  0  0  0  0  0  0
  142.6994   80.5943  221.1928 H   0  0  0  0  0  0  0  0  0  0  0  0
  138.9234   70.3732  221.6859 H   0  0  0  0  0  0  0  0  0  0  0  0
  138.8877   68.7626  223.5970 H   0  0  0  0  0  0  0  0  0  0  0  0
  139.4654   68.2416  225.9431 H   0  0  0  0  0  0  0  0  0  0  0  0
  141.5321   71.2032  228.3289 H   0  0  0  0  0  0  0  0  0  0  0  0
  141.5550   72.7686  226.3836 H   0  0  0  0  0  0  0  0  0  0  0  0
  1  2  2  0
  2  3  1  0
  3  4  1  0
  4  5  1  0
  5  6  2  0
  5  7  1  0
  7  8  1  0
  8  9  1  0
  9 10  1  0
  9 11  1  0
 11 12  1  0
 12 13  1  0
 13 14  1  0
 14 15  1  0
 15 16  2  0
 16 17  1  0
 17 18  2  0
  2 19  1  0
 19 20  2  0
 20 21  1  0
 21 22  2  0
 22 23  1  0
 23 24  2  0
 24 25  1  0
 24 26  1  0
 26 27  2  0
 27 28  1  0
 28 29  2  0
 12  7  1  0
 18 14  1  0
 29 19  1  0
 28 22  1  0
  4 30  1  0
  4 31  1  0
  8 32  1  0
  8 33  1  0
  9 34  1  6
 10 35  1  0
 11 36  1  0
 11 37  1  0
 12 38  1  1
 13 39  1  0
 13 40  1  0
 15 41  1  0
 16 42  1  0
 17 43  1  0
 18 44  1  0
 20 45  1  0
 21 46  1  0
 23 47  1  0
 26 48  1  0
 27 49  1  0
M  CHG  1   3  -1
M  END
>  <meeko>  (10) 
{"free_energy": -6.39, "intermolecular_energy": -8.78, "internal_energy": -2.22, "cluster_size": 3, "cluster_id": 4, "rank_in_cluster": 3}

$$$$

     RDKit          3D

 49 52  0  0  0  0  0  0  0  0999 V2000
  139.1480   72.5960  221.0140 O   0  0  0  0  0  0  0  0  0  0  0  0
  139.7630   72.8520  222.0820 C   0  0  0  0  0  0  0  0  0  0  0  0
  140.3500   74.1490  222.2500 N   0  0  0  0  0  0  0  0  0  0  0  0
  140.6970   75.0390  221.1490 C   0  0  0  0  0  0  0  0  0  0  0  0
  140.4780   76.4610  221.5680 C   0  0  0  0  0  0  0  0  0  0  0  0
  141.4440   77.2680  221.4920 O   0  0  0  0  0  0  0  0  0  0  0  0
  139.2270   76.9040  222.1270 N   0  0  0  0  0  0  0  0  0  0  0  0
  138.1720   75.9540  222.4490 C   0  0  0  0  0  0  0  0  0  0  0  0
  136.9320   76.7950  222.7480 C   0  0  2  0  0  0  0  0  0  0  0  0
  135.7810   76.2420  222.1670 O   0  0  0  0  0  0  0  0  0  0  0  0
  137.2310   78.1670  222.1500 C   0  0  0  0  0  0  0  0  0  0  0  0
  138.7570   78.2880  222.1700 C   0  0  1  0  0  0  0  0  0  0  0  0
  139.2260   78.9840  223.4670 C   0  0  0  0  0  0  0  0  0  0  0  0
  140.5570   79.5670  223.3180 N   0  0  0  0  0  0  0  0  0  0  0  0
  140.8700   80.6540  222.5850 C   0  0  0  0  0  0  0  0  0  0  0  0
  142.2270   80.8930  222.6660 C   0  0  0  0  0  0  0  0  0  0  0  0
  142.7520   79.9130  223.4860 C   0  0  0  0  0  0  0  0  0  0  0  0
  141.6970   79.1120  223.8730 C   0  0  0  0  0  0  0  0  0  0  0  0
  139.8420   71.8180  223.1270 C   0  0  0  0  0  0  0  0  0  0  0  0
  139.3530   70.5230  222.8990 C   0  0  0  0  0  0  0  0  0  0  0  0
  139.4360   69.5640  223.9090 C   0  0  0  0  0  0  0  0  0  0  0  0
  139.9840   69.9070  225.1500 C   0  0  0  0  0  0  0  0  0  0  0  0
  140.0820   68.9690  226.1880 C   0  0  0  0  0  0  0  0  0  0  0  0
  140.6260   69.3450  227.4220 C   0  0  0  0  0  0  0  0  0  0  0  0
  140.7500   68.1710  228.7200 Cl  0  0  0  0  0  0  0  0  0  0  0  0
  141.0720   70.6570  227.6220 C   0  0  0  0  0  0  0  0  0  0  0  0
  140.9770   71.5980  226.5920 C   0  0  0  0  0  0  0  0  0  0  0  0
  140.4360   71.2300  225.3550 C   0  0  0  0  0  0  0  0  0  0  0  0
  140.3480   72.1410  224.3490 N   0  0  0  0  0  0  0  0  0  0  0  0
  141.7538   74.8947  220.8800 H   0  0  0  0  0  0  0  0  0  0  0  0
  140.0628   74.8112  220.2796 H   0  0  0  0  0  0  0  0  0  0  0  0
  137.9849   75.2855  221.5957 H   0  0  0  0  0  0  0  0  0  0  0  0
  138.4463   75.3187  223.3041 H   0  0  0  0  0  0  0  0  0  0  0  0
  136.7303   76.8443  223.8282 H   0  0  0  0  0  0  0  0  0  0  0  0
  136.0820   75.4530  221.6470 H   0  0  0  0  0  0  0  0  0  0  0  0
  136.8523   78.2296  221.1191 H   0  0  0  0  0  0  0  0  0  0  0  0
  136.7463   78.9769  222.7150 H   0  0  0  0  0  0  0  0  0  0  0  0
  139.1462   78.8899  221.3356 H   0  0  0  0  0  0  0  0  0  0  0  0
  138.5135   79.7829  223.7202 H   0  0  0  0  0  0  0  0  0  0  0  0
  139.2710   78.2276  224.2644 H   0  0  0  0  0  0  0  0  0  0  0  0
  140.1532   81.2585  222.0099 H   0  0  0  0  0  0  0  0  0  0  0  0
  142.7820   81.7052  222.1738 H   0  0  0  0  0  0  0  0  0  0  0  0
  143.8068   79.7942  223.7746 H   0  0  0  0  0  0  0  0  0  0  0  0
  141.7750   78.2360  224.5337 H   0  0  0  0  0  0  0  0  0  0  0  0
  138.9059   70.2647  221.9277 H   0  0  0  0  0  0  0  0  0  0  0  0
  139.0718   68.5415  223.7303 H   0  0  0  0  0  0  0  0  0  0  0  0
  139.7315   67.9380  226.0326 H   0  0  0  0  0  0  0  0  0  0  0  0
  141.4987   70.9487  228.5930 H   0  0  0  0  0  0  0  0  0  0  0  0
  141.3277   72.6279  226.7542 H   0  0  0  0  0  0  0  0  0  0  0  0
  1  2  2  0
  2  3  1  0
  3  4  1  0
  4  5  1  0
  5  6  2  0
  5  7  1  0
  7  8  1  0
  8  9  1  0
  9 10  1  0
  9 11  1  0
 11 12  1  0
 12 13  1  0
 13 14  1  0
 14 15  1  0
 15 16  2  0
 16 17  1  0
 17 18  2  0
  2 19  1  0
 19 20  2  0
 20 21  1  0
 21 22  2  0
 22 23  1  0
 23 24  2  0
 24 25  1  0
 24 26  1  0
 26 27  2  0
 27 28  1  0
 28 29  2  0
 12  7  1  0
 18 14  1  0
 29 19  1  0
 28 22  1  0
  4 30  1  0
  4 31  1  0
  8 32  1  0
  8 33  1  0
  9 34  1  1
 10 35  1  0
 11 36  1  0
 11 37  1  0
 12 38  1  6
 13 39  1  0
 13 40  1  0
 15 41  1  0
 16 42  1  0
 17 43  1  0
 18 44  1  0
 20 45  1  0
 21 46  1  0
 23 47  1  0
 26 48  1  0
 27 49  1  0
M  CHG  1   3  -1
M  END
>  <meeko>  (11) 
{"free_energy": -7.55, "intermolecular_energy": -9.93, "internal_energy": -1.28, "cluster_size": 4, "cluster_id": 3, "rank_in_cluster": 2}

$$$$

     RDKit          3D

 49 52  0  0  0  0  0  0  0  0999 V2000
  139.7160   72.5180  220.6560 O   0  0  0  0  0  0  0  0  0  0  0  0
  140.1540   72.8560  221.7860 C   0  0  0  0  0  0  0  0  0  0  0  0
  140.6540   74.1870  221.9670 N   0  0  0  0  0  0  0  0  0  0  0  0
  139.9980   75.3840  221.4550 C   0  0  0  0  0  0  0  0  0  0  0  0
  140.9400   76.5450  221.5390 C   0  0  0  0  0  0  0  0  0  0  0  0
  141.0900   77.1220  222.6500 O   0  0  0  0  0  0  0  0  0  0  0  0
  141.6100   77.0660  220.3740 N   0  0  0  0  0  0  0  0  0  0  0  0
  141.4380   78.4520  219.9680 C   0  0  0  0  0  0  0  0  0  0  0  0
  142.0580   78.5580  218.5750 C   0  0  2  0  0  0  0  0  0  0  0  0
  141.2620   79.3250  217.7120 O   0  0  0  0  0  0  0  0  0  0  0  0
  142.1600   77.1190  218.0780 C   0  0  0  0  0  0  0  0  0  0  0  0
  142.2690   76.2640  219.3440 C   0  0  1  0  0  0  0  0  0  0  0  0
  143.7510   76.0220  219.7040 C   0  0  0  0  0  0  0  0  0  0  0  0
  143.9950   74.6350  220.0930 N   0  0  0  0  0  0  0  0  0  0  0  0
  143.0810   73.6450  220.1160 C   0  0  0  0  0  0  0  0  0  0  0  0
  143.6720   72.4790  220.5570 C   0  0  0  0  0  0  0  0  0  0  0  0
  144.9980   72.7780  220.8070 C   0  0  0  0  0  0  0  0  0  0  0  0
  145.1650   74.1150  220.5090 C   0  0  0  0  0  0  0  0  0  0  0  0
  140.1210   71.8790  222.8880 C   0  0  0  0  0  0  0  0  0  0  0  0
  139.5580   70.6070  222.7060 C   0  0  0  0  0  0  0  0  0  0  0  0
  139.5350   69.7020  223.7680 C   0  0  0  0  0  0  0  0  0  0  0  0
  140.0530   70.0780  225.0120 C   0  0  0  0  0  0  0  0  0  0  0  0
  140.0460   69.1950  226.1020 C   0  0  0  0  0  0  0  0  0  0  0  0
  140.5620   69.6030  227.3380 C   0  0  0  0  0  0  0  0  0  0  0  0
  140.5540   68.4970  228.7000 Cl  0  0  0  0  0  0  0  0  0  0  0  0
  141.0860   70.8920  227.4880 C   0  0  0  0  0  0  0  0  0  0  0  0
  141.0960   71.7790  226.4060 C   0  0  0  0  0  0  0  0  0  0  0  0
  140.5840   71.3780  225.1680 C   0  0  0  0  0  0  0  0  0  0  0  0
  140.5980   72.2360  224.1120 N   0  0  0  0  0  0  0  0  0  0  0  0
  139.7076   75.2227  220.4063 H   0  0  0  0  0  0  0  0  0  0  0  0
  139.1012   75.5957  222.0558 H   0  0  0  0  0  0  0  0  0  0  0  0
  140.3695   78.7109  219.9324 H   0  0  0  0  0  0  0  0  0  0  0  0
  141.9156   79.1439  220.6774 H   0  0  0  0  0  0  0  0  0  0  0  0
  143.0361   79.0603  218.6070 H   0  0  0  0  0  0  0  0  0  0  0  0
  140.3210   79.1550  217.9760 H   0  0  0  0  0  0  0  0  0  0  0  0
  141.2630   76.8448  217.5034 H   0  0  0  0  0  0  0  0  0  0  0  0
  143.0213   76.9750  217.4091 H   0  0  0  0  0  0  0  0  0  0  0  0
  141.8111   75.2706  219.2280 H   0  0  0  0  0  0  0  0  0  0  0  0
  144.3736   76.2613  218.8293 H   0  0  0  0  0  0  0  0  0  0  0  0
  144.0052   76.6667  220.5583 H   0  0  0  0  0  0  0  0  0  0  0  0
  142.0248   73.7505  219.8272 H   0  0  0  0  0  0  0  0  0  0  0  0
  143.1832   71.5019  220.6848 H   0  0  0  0  0  0  0  0  0  0  0  0
  145.7701   72.0850  221.1725 H   0  0  0  0  0  0  0  0  0  0  0  0
  146.1099   74.6710  220.5978 H   0  0  0  0  0  0  0  0  0  0  0  0
  139.1364   70.3242  221.7302 H   0  0  0  0  0  0  0  0  0  0  0  0
  139.1112   68.6967  223.6275 H   0  0  0  0  0  0  0  0  0  0  0  0
  139.6349   68.1814  225.9856 H   0  0  0  0  0  0  0  0  0  0  0  0
  141.4915   71.2090  228.4602 H   0  0  0  0  0  0  0  0  0  0  0  0
  141.5067   72.7920  226.5292 H   0  0  0  0  0  0  0  0  0  0  0  0
  1  2  2  0
  2  3  1  0
  3  4  1  0
  4  5  1  0
  5  6  2  0
  5  7  1  0
  7  8  1  0
  8  9  1  0
  9 10  1  0
  9 11  1  0
 11 12  1  0
 12 13  1  0
 13 14  1  0
 14 15  1  0
 15 16  2  0
 16 17  1  0
 17 18  2  0
  2 19  1  0
 19 20  2  0
 20 21  1  0
 21 22  2  0
 22 23  1  0
 23 24  2  0
 24 25  1  0
 24 26  1  0
 26 27  2  0
 27 28  1  0
 28 29  2  0
 12  7  1  0
 18 14  1  0
 29 19  1  0
 28 22  1  0
  4 30  1  0
  4 31  1  0
  8 32  1  0
  8 33  1  0
  9 34  1  1
 10 35  1  0
 11 36  1  0
 11 37  1  0
 12 38  1  6
 13 39  1  0
 13 40  1  0
 15 41  1  0
 16 42  1  0
 17 43  1  0
 18 44  1  0
 20 45  1  0
 21 46  1  0
 23 47  1  0
 26 48  1  0
 27 49  1  0
M  CHG  1   3  -1
M  END
>  <meeko>  (12) 
{"free_energy": -7.23, "intermolecular_energy": -9.61, "internal_energy": -1.5, "cluster_size": 3, "cluster_id": 2, "rank_in_cluster": 3}

$$$$

     RDKit          3D

 49 52  0  0  0  0  0  0  0  0999 V2000
  138.4360   73.4910  221.4600 O   0  0  0  0  0  0  0  0  0  0  0  0
  139.5410   72.9160  221.6390 C   0  0  0  0  0  0  0  0  0  0  0  0
  140.6520   73.2730  220.8080 N   0  0  0  0  0  0  0  0  0  0  0  0
  141.7340   74.1570  221.2250 C   0  0  0  0  0  0  0  0  0  0  0  0
  141.3980   75.5680  220.8480 C   0  0  0  0  0  0  0  0  0  0  0  0
  142.2340   76.2280  220.1730 O   0  0  0  0  0  0  0  0  0  0  0  0
  140.1920   76.2100  221.3040 N   0  0  0  0  0  0  0  0  0  0  0  0
  139.5840   75.8460  222.5750 C   0  0  0  0  0  0  0  0  0  0  0  0
  138.2110   76.5160  222.5870 C   0  0  2  0  0  0  0  0  0  0  0  0
  137.2220   75.6570  223.0880 O   0  0  0  0  0  0  0  0  0  0  0  0
  137.9300   76.8670  221.1290 C   0  0  0  0  0  0  0  0  0  0  0  0
  139.3090   77.0400  220.4860 C   0  0  1  0  0  0  0  0  0  0  0  0
  139.7460   78.5210  220.5390 C   0  0  0  0  0  0  0  0  0  0  0  0
  140.5100   78.8170  221.7480 N   0  0  0  0  0  0  0  0  0  0  0  0
  139.9970   79.1610  222.9460 C   0  0  0  0  0  0  0  0  0  0  0  0
  141.0230   79.3850  223.8420 C   0  0  0  0  0  0  0  0  0  0  0  0
  142.2020   79.1620  223.1570 C   0  0  0  0  0  0  0  0  0  0  0  0
  141.8510   78.8120  221.8690 C   0  0  0  0  0  0  0  0  0  0  0  0
  139.6580   71.9110  222.7090 C   0  0  0  0  0  0  0  0  0  0  0  0
  139.1330   70.6200  222.5460 C   0  0  0  0  0  0  0  0  0  0  0  0
  139.2530   69.6890  223.5780 C   0  0  0  0  0  0  0  0  0  0  0  0
  139.8760   70.0550  224.7760 C   0  0  0  0  0  0  0  0  0  0  0  0
  140.0140   69.1450  225.8350 C   0  0  0  0  0  0  0  0  0  0  0  0
  140.6320   69.5450  227.0250 C   0  0  0  0  0  0  0  0  0  0  0  0
  140.8050   68.4060  228.3480 Cl  0  0  0  0  0  0  0  0  0  0  0  0
  141.1130   70.8520  227.1620 C   0  0  0  0  0  0  0  0  0  0  0  0
  140.9800   71.7650  226.1110 C   0  0  0  0  0  0  0  0  0  0  0  0
  140.3640   71.3740  224.9170 C   0  0  0  0  0  0  0  0  0  0  0  0
  140.2370   72.2580  223.8900 N   0  0  0  0  0  0  0  0  0  0  0  0
  141.8634   74.0894  222.3153 H   0  0  0  0  0  0  0  0  0  0  0  0
  142.6670   73.8559  220.7263 H   0  0  0  0  0  0  0  0  0  0  0  0
  139.4778   74.7537  222.6499 H   0  0  0  0  0  0  0  0  0  0  0  0
  140.2003   76.1708  223.4262 H   0  0  0  0  0  0  0  0  0  0  0  0
  138.2009   77.4008  223.2404 H   0  0  0  0  0  0  0  0  0  0  0  0
  137.5970   74.7400  223.0390 H   0  0  0  0  0  0  0  0  0  0  0  0
  137.3738   76.0555  220.6370 H   0  0  0  0  0  0  0  0  0  0  0  0
  137.3153   77.7744  221.0352 H   0  0  0  0  0  0  0  0  0  0  0  0
  139.3234   76.7492  219.4252 H   0  0  0  0  0  0  0  0  0  0  0  0
  140.3706   78.7398  219.6604 H   0  0  0  0  0  0  0  0  0  0  0  0
  138.8403   79.1452  220.5449 H   0  0  0  0  0  0  0  0  0  0  0  0
  138.9247   79.2497  223.1748 H   0  0  0  0  0  0  0  0  0  0  0  0
  140.9216   79.6830  224.8960 H   0  0  0  0  0  0  0  0  0  0  0  0
  143.2220   79.2469  223.5599 H   0  0  0  0  0  0  0  0  0  0  0  0
  142.5590   78.5663  221.0638 H   0  0  0  0  0  0  0  0  0  0  0  0
  138.6289   70.3432  221.6083 H   0  0  0  0  0  0  0  0  0  0  0  0
  138.8589   68.6700  223.4502 H   0  0  0  0  0  0  0  0  0  0  0  0
  139.6364   68.1172  225.7298 H   0  0  0  0  0  0  0  0  0  0  0  0
  141.5974   71.1623  228.0996 H   0  0  0  0  0  0  0  0  0  0  0  0
  141.3599   72.7912  226.2230 H   0  0  0  0  0  0  0  0  0  0  0  0
  1  2  2  0
  2  3  1  0
  3  4  1  0
  4  5  1  0
  5  6  2  0
  5  7  1  0
  7  8  1  0
  8  9  1  0
  9 10  1  0
  9 11  1  0
 11 12  1  0
 12 13  1  0
 13 14  1  0
 14 15  1  0
 15 16  2  0
 16 17  1  0
 17 18  2  0
  2 19  1  0
 19 20  2  0
 20 21  1  0
 21 22  2  0
 22 23  1  0
 23 24  2  0
 24 25  1  0
 24 26  1  0
 26 27  2  0
 27 28  1  0
 28 29  2  0
 12  7  1  0
 18 14  1  0
 29 19  1  0
 28 22  1  0
  4 30  1  0
  4 31  1  0
  8 32  1  0
  8 33  1  0
  9 34  1  1
 10 35  1  0
 11 36  1  0
 11 37  1  0
 12 38  1  6
 13 39  1  0
 13 40  1  0
 15 41  1  0
 16 42  1  0
 17 43  1  0
 18 44  1  0
 20 45  1  0
 21 46  1  0
 23 47  1  0
 26 48  1  0
 27 49  1  0
M  CHG  1   3  -1
M  END
>  <meeko>  (13) 
{"free_energy": -6.44, "intermolecular_energy": -8.83, "internal_energy": -2.44, "cluster_size": 4, "cluster_id": 3, "rank_in_cluster": 4}

$$$$

     RDKit          3D

 49 52  0  0  0  0  0  0  0  0999 V2000
  139.9980   73.8150  222.3080 O   0  0  0  0  0  0  0  0  0  0  0  0
  139.7160   72.6150  222.0550 C   0  0  0  0  0  0  0  0  0  0  0  0
  139.3130   72.2620  220.7260 N   0  0  0  0  0  0  0  0  0  0  0  0
  140.2180   72.2030  219.5850 C   0  0  0  0  0  0  0  0  0  0  0  0
  141.6240   72.0230  220.0720 C   0  0  0  0  0  0  0  0  0  0  0  0
  141.8790   71.0530  220.8360 O   0  0  0  0  0  0  0  0  0  0  0  0
  142.6630   72.9690  219.7570 N   0  0  0  0  0  0  0  0  0  0  0  0
  143.8010   72.5870  218.9340 C   0  0  0  0  0  0  0  0  0  0  0  0
  144.8020   73.7360  219.0470 C   0  0  2  0  0  0  0  0  0  0  0  0
  146.1150   73.2640  219.1970 O   0  0  0  0  0  0  0  0  0  0  0  0
  144.3670   74.5180  220.2840 C   0  0  0  0  0  0  0  0  0  0  0  0
  142.8630   74.2620  220.4110 C   0  0  1  0  0  0  0  0  0  0  0  0
  142.0650   75.3700  219.6880 C   0  0  0  0  0  0  0  0  0  0  0  0
  141.7620   76.4880  220.5780 N   0  0  0  0  0  0  0  0  0  0  0  0
  142.1480   77.7670  220.4050 C   0  0  0  0  0  0  0  0  0  0  0  0
  141.6950   78.5340  221.4580 C   0  0  0  0  0  0  0  0  0  0  0  0
  141.0030   77.6830  222.2990 C   0  0  0  0  0  0  0  0  0  0  0  0
  141.0610   76.4280  221.7260 C   0  0  0  0  0  0  0  0  0  0  0  0
  139.8290   71.6140  223.1290 C   0  0  0  0  0  0  0  0  0  0  0  0
  139.3800   70.2990  222.9380 C   0  0  0  0  0  0  0  0  0  0  0  0
  139.4930   69.3710  223.9740 C   0  0  0  0  0  0  0  0  0  0  0  0
  140.0330   69.7650  225.2030 C   0  0  0  0  0  0  0  0  0  0  0  0
  140.1620   68.8590  226.2670 C   0  0  0  0  0  0  0  0  0  0  0  0
  140.6970   69.2860  227.4890 C   0  0  0  0  0  0  0  0  0  0  0  0
  140.8580   68.1530  228.8180 Cl  0  0  0  0  0  0  0  0  0  0  0  0
  141.1030   70.6160  227.6510 C   0  0  0  0  0  0  0  0  0  0  0  0
  140.9770   71.5250  226.5950 C   0  0  0  0  0  0  0  0  0  0  0  0
  140.4460   71.1060  225.3710 C   0  0  0  0  0  0  0  0  0  0  0  0
  140.3280   71.9860  224.3390 N   0  0  0  0  0  0  0  0  0  0  0  0
  139.9415   71.3551  218.9410 H   0  0  0  0  0  0  0  0  0  0  0  0
  140.1456   73.1383  219.0105 H   0  0  0  0  0  0  0  0  0  0  0  0
  144.2466   71.6529  219.3067 H   0  0  0  0  0  0  0  0  0  0  0  0
  143.5039   72.4106  217.8897 H   0  0  0  0  0  0  0  0  0  0  0  0
  144.8067   74.3565  218.1387 H   0  0  0  0  0  0  0  0  0  0  0  0
  146.7090   74.0510  219.0840 H   0  0  0  0  0  0  0  0  0  0  0  0
  144.8971   74.1544  221.1766 H   0  0  0  0  0  0  0  0  0  0  0  0
  144.5959   75.5902  220.1946 H   0  0  0  0  0  0  0  0  0  0  0  0
  142.5184   74.2616  221.4556 H   0  0  0  0  0  0  0  0  0  0  0  0
  142.6589   75.7409  218.8397 H   0  0  0  0  0  0  0  0  0  0  0  0
  141.1133   74.9380  219.3450 H   0  0  0  0  0  0  0  0  0  0  0  0
  142.7349   78.1424  219.5538 H   0  0  0  0  0  0  0  0  0  0  0  0
  141.8536   79.6131  221.6007 H   0  0  0  0  0  0  0  0  0  0  0  0
  140.5034   77.9529  223.2411 H   0  0  0  0  0  0  0  0  0  0  0  0
  140.6044   75.5185  222.1435 H   0  0  0  0  0  0  0  0  0  0  0  0
  138.9404   70.0003  221.9749 H   0  0  0  0  0  0  0  0  0  0  0  0
  139.1588   68.3337  223.8249 H   0  0  0  0  0  0  0  0  0  0  0  0
  139.8430   67.8138  226.1413 H   0  0  0  0  0  0  0  0  0  0  0  0
  141.5226   70.9476  228.6122 H   0  0  0  0  0  0  0  0  0  0  0  0
  141.2957   72.5695  226.7275 H   0  0  0  0  0  0  0  0  0  0  0  0
  1  2  2  0
  2  3  1  0
  3  4  1  0
  4  5  1  0
  5  6  2  0
  5  7  1  0
  7  8  1  0
  8  9  1  0
  9 10  1  0
  9 11  1  0
 11 12  1  0
 12 13  1  0
 13 14  1  0
 14 15  1  0
 15 16  2  0
 16 17  1  0
 17 18  2  0
  2 19  1  0
 19 20  2  0
 20 21  1  0
 21 22  2  0
 22 23  1  0
 23 24  2  0
 24 25  1  0
 24 26  1  0
 26 27  2  0
 27 28  1  0
 28 29  2  0
 12  7  1  0
 18 14  1  0
 29 19  1  0
 28 22  1  0
  4 30  1  0
  4 31  1  0
  8 32  1  0
  8 33  1  0
  9 34  1  6
 10 35  1  0
 11 36  1  0
 11 37  1  0
 12 38  1  1
 13 39  1  0
 13 40  1  0
 15 41  1  0
 16 42  1  0
 17 43  1  0
 18 44  1  0
 20 45  1  0
 21 46  1  0
 23 47  1  0
 26 48  1  0
 27 49  1  0
M  CHG  1   3  -1
M  END
>  <meeko>  (14) 
{"free_energy": -7.76, "intermolecular_energy": -10.15, "internal_energy": -1.55, "cluster_size": 8, "cluster_id": 1, "rank_in_cluster": 1}

$$$$

     RDKit          3D

 49 52  0  0  0  0  0  0  0  0999 V2000
  139.8390   72.4670  220.5990 O   0  0  0  0  0  0  0  0  0  0  0  0
  140.0920   72.8630  221.7660 C   0  0  0  0  0  0  0  0  0  0  0  0
  140.3590   74.2540  221.9850 N   0  0  0  0  0  0  0  0  0  0  0  0
  140.0340   75.3080  221.0320 C   0  0  0  0  0  0  0  0  0  0  0  0
  140.9630   76.4670  221.2330 C   0  0  0  0  0  0  0  0  0  0  0  0
  140.8740   77.1350  222.2980 O   0  0  0  0  0  0  0  0  0  0  0  0
  141.8900   76.8820  220.2120 N   0  0  0  0  0  0  0  0  0  0  0  0
  141.8850   78.2460  219.7050 C   0  0  0  0  0  0  0  0  0  0  0  0
  142.7900   78.2360  218.4730 C   0  0  2  0  0  0  0  0  0  0  0  0
  142.2360   78.9800  217.4200 O   0  0  0  0  0  0  0  0  0  0  0  0
  142.9130   76.7650  218.0860 C   0  0  0  0  0  0  0  0  0  0  0  0
  142.7060   75.9890  219.3900 C   0  0  1  0  0  0  0  0  0  0  0  0
  144.0630   75.7070  220.0710 C   0  0  0  0  0  0  0  0  0  0  0  0
  144.2810   74.2770  220.2740 N   0  0  0  0  0  0  0  0  0  0  0  0
  145.4710   73.6450  220.2620 C   0  0  0  0  0  0  0  0  0  0  0  0
  145.2810   72.2940  220.4670 C   0  0  0  0  0  0  0  0  0  0  0  0
  143.9200   72.1040  220.6130 C   0  0  0  0  0  0  0  0  0  0  0  0
  143.3320   73.3460  220.4900 C   0  0  0  0  0  0  0  0  0  0  0  0
  140.0880   71.8870  222.8680 C   0  0  0  0  0  0  0  0  0  0  0  0
  139.5640   70.5980  222.6880 C   0  0  0  0  0  0  0  0  0  0  0  0
  139.5680   69.6940  223.7510 C   0  0  0  0  0  0  0  0  0  0  0  0
  140.0720   70.0880  224.9960 C   0  0  0  0  0  0  0  0  0  0  0  0
  140.0900   69.2060  226.0870 C   0  0  0  0  0  0  0  0  0  0  0  0
  140.5910   69.6320  227.3230 C   0  0  0  0  0  0  0  0  0  0  0  0
  140.6150   68.5290  228.6860 Cl  0  0  0  0  0  0  0  0  0  0  0  0
  141.0740   70.9370  227.4720 C   0  0  0  0  0  0  0  0  0  0  0  0
  141.0590   71.8230  226.3890 C   0  0  0  0  0  0  0  0  0  0  0  0
  140.5610   71.4040  225.1500 C   0  0  0  0  0  0  0  0  0  0  0  0
  140.5500   72.2600  224.0930 N   0  0  0  0  0  0  0  0  0  0  0  0
  140.1445   74.9229  220.0075 H   0  0  0  0  0  0  0  0  0  0  0  0
  138.9966   75.6379  221.1898 H   0  0  0  0  0  0  0  0  0  0  0  0
  140.8642   78.5479  219.4279 H   0  0  0  0  0  0  0  0  0  0  0  0
  142.2400   78.9606  220.4622 H   0  0  0  0  0  0  0  0  0  0  0  0
  143.7661   78.6962  218.6864 H   0  0  0  0  0  0  0  0  0  0  0  0
  143.0010   79.3670  216.9200 H   0  0  0  0  0  0  0  0  0  0  0  0
  142.1424   76.4941  217.3492 H   0  0  0  0  0  0  0  0  0  0  0  0
  143.8858   76.5410  217.6239 H   0  0  0  0  0  0  0  0  0  0  0  0
  142.2287   75.0107  219.2314 H   0  0  0  0  0  0  0  0  0  0  0  0
  144.8692   76.1035  219.4363 H   0  0  0  0  0  0  0  0  0  0  0  0
  144.0592   76.1957  221.0565 H   0  0  0  0  0  0  0  0  0  0  0  0
  146.4457   74.1322  220.1116 H   0  0  0  0  0  0  0  0  0  0  0  0
  146.0608   71.5192  220.5065 H   0  0  0  0  0  0  0  0  0  0  0  0
  143.4055   71.1484  220.7924 H   0  0  0  0  0  0  0  0  0  0  0  0
  142.2524   73.5455  220.5580 H   0  0  0  0  0  0  0  0  0  0  0  0
  139.1515   70.3011  221.7125 H   0  0  0  0  0  0  0  0  0  0  0  0
  139.1765   68.6756  223.6111 H   0  0  0  0  0  0  0  0  0  0  0  0
  139.7105   68.1800  225.9713 H   0  0  0  0  0  0  0  0  0  0  0  0
  141.4671   71.2677  228.4447 H   0  0  0  0  0  0  0  0  0  0  0  0
  141.4384   72.8482  226.5114 H   0  0  0  0  0  0  0  0  0  0  0  0
  1  2  2  0
  2  3  1  0
  3  4  1  0
  4  5  1  0
  5  6  2  0
  5  7  1  0
  7  8  1  0
  8  9  1  0
  9 10  1  0
  9 11  1  0
 11 12  1  0
 12 13  1  0
 13 14  1  0
 14 15  1  0
 15 16  2  0
 16 17  1  0
 17 18  2  0
  2 19  1  0
 19 20  2  0
 20 21  1  0
 21 22  2  0
 22 23  1  0
 23 24  2  0
 24 25  1  0
 24 26  1  0
 26 27  2  0
 27 28  1  0
 28 29  2  0
 12  7  1  0
 18 14  1  0
 29 19  1  0
 28 22  1  0
  4 30  1  0
  4 31  1  0
  8 32  1  0
  8 33  1  0
  9 34  1  1
 10 35  1  0
 11 36  1  0
 11 37  1  0
 12 38  1  6
 13 39  1  0
 13 40  1  0
 15 41  1  0
 16 42  1  0
 17 43  1  0
 18 44  1  0
 20 45  1  0
 21 46  1  0
 23 47  1  0
 26 48  1  0
 27 49  1  0
M  CHG  1   3  -1
M  END
>  <meeko>  (15) 
{"free_energy": -7.72, "intermolecular_energy": -10.1, "internal_energy": -1.41, "cluster_size": 3, "cluster_id": 2, "rank_in_cluster": 2}

$$$$

     RDKit          3D

 49 52  0  0  0  0  0  0  0  0999 V2000
  140.0350   74.0800  221.9820 O   0  0  0  0  0  0  0  0  0  0  0  0
  140.4470   72.9050  221.8010 C   0  0  0  0  0  0  0  0  0  0  0  0
  141.0570   72.5690  220.5480 N   0  0  0  0  0  0  0  0  0  0  0  0
  140.5450   72.9920  219.2500 C   0  0  0  0  0  0  0  0  0  0  0  0
  141.6820   73.4510  218.3890 C   0  0  0  0  0  0  0  0  0  0  0  0
  141.4790   73.6130  217.1560 O   0  0  0  0  0  0  0  0  0  0  0  0
  143.0090   73.6320  218.9190 N   0  0  0  0  0  0  0  0  0  0  0  0
  144.1180   72.8110  218.4560 C   0  0  0  0  0  0  0  0  0  0  0  0
  145.2730   73.0920  219.4170 C   0  0  2  0  0  0  0  0  0  0  0  0
  145.9480   71.9150  219.7720 O   0  0  0  0  0  0  0  0  0  0  0  0
  144.6220   73.7300  220.6410 C   0  0  0  0  0  0  0  0  0  0  0  0
  143.3510   74.4010  220.1150 C   0  0  1  0  0  0  0  0  0  0  0  0
  143.6290   75.8770  219.7550 C   0  0  0  0  0  0  0  0  0  0  0  0
  142.4400   76.7090  219.9210 N   0  0  0  0  0  0  0  0  0  0  0  0
  142.1410   77.8160  219.2140 C   0  0  0  0  0  0  0  0  0  0  0  0
  140.9490   78.3470  219.6650 C   0  0  0  0  0  0  0  0  0  0  0  0
  140.5110   77.5230  220.6840 C   0  0  0  0  0  0  0  0  0  0  0  0
  141.4510   76.5210  220.8160 C   0  0  0  0  0  0  0  0  0  0  0  0
  140.3060   71.9220  222.8880 C   0  0  0  0  0  0  0  0  0  0  0  0
  139.7050   70.6760  222.6600 C   0  0  0  0  0  0  0  0  0  0  0  0
  139.5790   69.7650  223.7090 C   0  0  0  0  0  0  0  0  0  0  0  0
  140.0340   70.1110  224.9870 C   0  0  0  0  0  0  0  0  0  0  0  0
  139.9240   69.2210  226.0660 C   0  0  0  0  0  0  0  0  0  0  0  0
  140.3780   69.5990  227.3350 C   0  0  0  0  0  0  0  0  0  0  0  0
  140.2410   68.4840  228.6830 Cl  0  0  0  0  0  0  0  0  0  0  0  0
  140.9430   70.8640  227.5290 C   0  0  0  0  0  0  0  0  0  0  0  0
  141.0560   71.7580  226.4590 C   0  0  0  0  0  0  0  0  0  0  0  0
  140.6060   71.3870  225.1880 C   0  0  0  0  0  0  0  0  0  0  0  0
  140.7200   72.2510  224.1420 N   0  0  0  0  0  0  0  0  0  0  0  0
  140.0352   72.1470  218.7641 H   0  0  0  0  0  0  0  0  0  0  0  0
  139.8335   73.8194  219.3889 H   0  0  0  0  0  0  0  0  0  0  0  0
  143.8449   71.7459  218.4862 H   0  0  0  0  0  0  0  0  0  0  0  0
  144.3897   73.0462  217.4163 H   0  0  0  0  0  0  0  0  0  0  0  0
  146.0293   73.7449  218.9568 H   0  0  0  0  0  0  0  0  0  0  0  0
  145.8280   71.8090  220.7510 H   0  0  0  0  0  0  0  0  0  0  0  0
  144.3722   72.9631  221.3889 H   0  0  0  0  0  0  0  0  0  0  0  0
  145.2920   74.4487  221.1356 H   0  0  0  0  0  0  0  0  0  0  0  0
  142.5377   74.4100  220.8556 H   0  0  0  0  0  0  0  0  0  0  0  0
  144.4255   76.2594  220.4103 H   0  0  0  0  0  0  0  0  0  0  0  0
  143.9317   75.9201  218.6983 H   0  0  0  0  0  0  0  0  0  0  0  0
  142.7534   78.2334  218.4011 H   0  0  0  0  0  0  0  0  0  0  0  0
  140.4463   79.2495  219.2870 H   0  0  0  0  0  0  0  0  0  0  0  0
  139.5913   77.6424  221.2755 H   0  0  0  0  0  0  0  0  0  0  0  0
  141.4003   75.6953  221.5410 H   0  0  0  0  0  0  0  0  0  0  0  0
  139.3340   70.4176  221.6572 H   0  0  0  0  0  0  0  0  0  0  0  0
  139.1241   68.7791  223.5328 H   0  0  0  0  0  0  0  0  0  0  0  0
  139.4808   68.2257  225.9147 H   0  0  0  0  0  0  0  0  0  0  0  0
  141.3000   71.1570  228.5274 H   0  0  0  0  0  0  0  0  0  0  0  0
  141.4987   72.7525  226.6173 H   0  0  0  0  0  0  0  0  0  0  0  0
  1  2  2  0
  2  3  1  0
  3  4  1  0
  4  5  1  0
  5  6  2  0
  5  7  1  0
  7  8  1  0
  8  9  1  0
  9 10  1  0
  9 11  1  0
 11 12  1  0
 12 13  1  0
 13 14  1  0
 14 15  1  0
 15 16  2  0
 16 17  1  0
 17 18  2  0
  2 19  1  0
 19 20  2  0
 20 21  1  0
 21 22  2  0
 22 23  1  0
 23 24  2  0
 24 25  1  0
 24 26  1  0
 26 27  2  0
 27 28  1  0
 28 29  2  0
 12  7  1  0
 18 14  1  0
 29 19  1  0
 28 22  1  0
  4 30  1  0
  4 31  1  0
  8 32  1  0
  8 33  1  0
  9 34  1  6
 10 35  1  0
 11 36  1  0
 11 37  1  0
 12 38  1  1
 13 39  1  0
 13 40  1  0
 15 41  1  0
 16 42  1  0
 17 43  1  0
 18 44  1  0
 20 45  1  0
 21 46  1  0
 23 47  1  0
 26 48  1  0
 27 49  1  0
M  CHG  1   3  -1
M  END
>  <meeko>  (16) 
{"free_energy": -7.06, "intermolecular_energy": -9.44, "internal_energy": -1.6, "cluster_size": 8, "cluster_id": 1, "rank_in_cluster": 7}

$$$$

     RDKit          3D

 49 52  0  0  0  0  0  0  0  0999 V2000
  139.7130   73.7440  222.3590 O   0  0  0  0  0  0  0  0  0  0  0  0
  139.9060   72.5320  222.0800 C   0  0  0  0  0  0  0  0  0  0  0  0
  140.0920   72.1550  220.7100 N   0  0  0  0  0  0  0  0  0  0  0  0
  140.9320   71.0460  220.2740 C   0  0  0  0  0  0  0  0  0  0  0  0
  141.8480   71.5120  219.1840 C   0  0  0  0  0  0  0  0  0  0  0  0
  141.7650   70.9660  218.0500 O   0  0  0  0  0  0  0  0  0  0  0  0
  142.8680   72.5020  219.4200 N   0  0  0  0  0  0  0  0  0  0  0  0
  143.9240   72.7370  218.4470 C   0  0  0  0  0  0  0  0  0  0  0  0
  144.9450   73.6310  219.1490 C   0  0  2  0  0  0  0  0  0  0  0  0
  146.2600   73.2200  218.8840 O   0  0  0  0  0  0  0  0  0  0  0  0
  144.6300   73.4980  220.6370 C   0  0  0  0  0  0  0  0  0  0  0  0
  143.1390   73.1540  220.7000 C   0  0  1  0  0  0  0  0  0  0  0  0
  142.2950   74.4390  220.8500 C   0  0  0  0  0  0  0  0  0  0  0  0
  142.4760   75.3410  219.7160 N   0  0  0  0  0  0  0  0  0  0  0  0
  143.3140   76.3950  219.6660 C   0  0  0  0  0  0  0  0  0  0  0  0
  143.1950   77.0230  218.4430 C   0  0  0  0  0  0  0  0  0  0  0  0
  142.2500   76.3160  217.7250 C   0  0  0  0  0  0  0  0  0  0  0  0
  141.8270   75.2830  218.5370 C   0  0  0  0  0  0  0  0  0  0  0  0
  139.9530   71.5460  223.1740 C   0  0  0  0  0  0  0  0  0  0  0  0
  139.4610   70.2460  222.9940 C   0  0  0  0  0  0  0  0  0  0  0  0
  139.5130   69.3330  224.0480 C   0  0  0  0  0  0  0  0  0  0  0  0
  140.0350   69.7290  225.2850 C   0  0  0  0  0  0  0  0  0  0  0  0
  140.1020   68.8390  226.3670 C   0  0  0  0  0  0  0  0  0  0  0  0
  140.6210   69.2680  227.5940 C   0  0  0  0  0  0  0  0  0  0  0  0
  140.7050   68.1540  228.9470 Cl  0  0  0  0  0  0  0  0  0  0  0  0
  141.0720   70.5840  227.7440 C   0  0  0  0  0  0  0  0  0  0  0  0
  141.0080   71.4780  226.6700 C   0  0  0  0  0  0  0  0  0  0  0  0
  140.4930   71.0570  225.4400 C   0  0  0  0  0  0  0  0  0  0  0  0
  140.4350   71.9220  224.3900 N   0  0  0  0  0  0  0  0  0  0  0  0
  141.5284   70.6817  221.1235 H   0  0  0  0  0  0  0  0  0  0  0  0
  140.2968   70.2314  219.8959 H   0  0  0  0  0  0  0  0  0  0  0  0
  144.3888   71.7857  218.1488 H   0  0  0  0  0  0  0  0  0  0  0  0
  143.5345   73.2079  217.5324 H   0  0  0  0  0  0  0  0  0  0  0  0
  144.8774   74.6711  218.7974 H   0  0  0  0  0  0  0  0  0  0  0  0
  146.7820   74.0460  218.7150 H   0  0  0  0  0  0  0  0  0  0  0  0
  145.2310   72.6950  221.0887 H   0  0  0  0  0  0  0  0  0  0  0  0
  144.8644   74.4185  221.1918 H   0  0  0  0  0  0  0  0  0  0  0  0
  142.8858   72.5146  221.5585 H   0  0  0  0  0  0  0  0  0  0  0  0
  141.2328   74.1616  220.9185 H   0  0  0  0  0  0  0  0  0  0  0  0
  142.6260   74.9618  221.7595 H   0  0  0  0  0  0  0  0  0  0  0  0
  143.9896   76.7071  220.4761 H   0  0  0  0  0  0  0  0  0  0  0  0
  143.7456   77.9135  218.1054 H   0  0  0  0  0  0  0  0  0  0  0  0
  141.9022   76.5339  216.7045 H   0  0  0  0  0  0  0  0  0  0  0  0
  141.0752   74.5281  218.2633 H   0  0  0  0  0  0  0  0  0  0  0  0
  139.0352   69.9464  222.0250 H   0  0  0  0  0  0  0  0  0  0  0  0
  139.1452   68.3059  223.9073 H   0  0  0  0  0  0  0  0  0  0  0  0
  139.7468   67.8044  226.2513 H   0  0  0  0  0  0  0  0  0  0  0  0
  141.4785   70.9169  228.7104 H   0  0  0  0  0  0  0  0  0  0  0  0
  141.3627   72.5119  226.7930 H   0  0  0  0  0  0  0  0  0  0  0  0
  1  2  2  0
  2  3  1  0
  3  4  1  0
  4  5  1  0
  5  6  2  0
  5  7  1  0
  7  8  1  0
  8  9  1  0
  9 10  1  0
  9 11  1  0
 11 12  1  0
 12 13  1  0
 13 14  1  0
 14 15  1  0
 15 16  2  0
 16 17  1  0
 17 18  2  0
  2 19  1  0
 19 20  2  0
 20 21  1  0
 21 22  2  0
 22 23  1  0
 23 24  2  0
 24 25  1  0
 24 26  1  0
 26 27  2  0
 27 28  1  0
 28 29  2  0
 12  7  1  0
 18 14  1  0
 29 19  1  0
 28 22  1  0
  4 30  1  0
  4 31  1  0
  8 32  1  0
  8 33  1  0
  9 34  1  6
 10 35  1  0
 11 36  1  0
 11 37  1  0
 12 38  1  1
 13 39  1  0
 13 40  1  0
 15 41  1  0
 16 42  1  0
 17 43  1  0
 18 44  1  0
 20 45  1  0
 21 46  1  0
 23 47  1  0
 26 48  1  0
 27 49  1  0
M  CHG  1   3  -1
M  END
>  <meeko>  (17) 
{"free_energy": -7.3, "intermolecular_energy": -9.69, "internal_energy": -1.61, "cluster_size": 8, "cluster_id": 1, "rank_in_cluster": 6}

$$$$

     RDKit          3D

 49 52  0  0  0  0  0  0  0  0999 V2000
  140.0400   72.4500  220.5750 O   0  0  0  0  0  0  0  0  0  0  0  0
  140.1690   72.8600  221.7580 C   0  0  0  0  0  0  0  0  0  0  0  0
  140.3380   74.2630  221.9930 N   0  0  0  0  0  0  0  0  0  0  0  0
  140.0100   75.3000  221.0220 C   0  0  0  0  0  0  0  0  0  0  0  0
  140.9540   76.4530  221.1840 C   0  0  0  0  0  0  0  0  0  0  0  0
  140.8770   77.1530  222.2300 O   0  0  0  0  0  0  0  0  0  0  0  0
  141.8810   76.8260  220.1470 N   0  0  0  0  0  0  0  0  0  0  0  0
  141.8740   78.1680  219.5830 C   0  0  0  0  0  0  0  0  0  0  0  0
  142.7800   78.1070  218.3540 C   0  0  2  0  0  0  0  0  0  0  0  0
  142.2270   78.8050  217.2700 O   0  0  0  0  0  0  0  0  0  0  0  0
  142.9070   76.6210  218.0290 C   0  0  0  0  0  0  0  0  0  0  0  0
  142.6990   75.9010  219.3640 C   0  0  1  0  0  0  0  0  0  0  0  0
  144.0570   75.6500  220.0580 C   0  0  0  0  0  0  0  0  0  0  0  0
  144.3250   74.2230  220.2220 N   0  0  0  0  0  0  0  0  0  0  0  0
  143.4020   73.2550  220.3790 C   0  0  0  0  0  0  0  0  0  0  0  0
  144.0300   72.0350  220.5250 C   0  0  0  0  0  0  0  0  0  0  0  0
  145.3890   72.2780  220.4500 C   0  0  0  0  0  0  0  0  0  0  0  0
  145.5370   73.6370  220.2610 C   0  0  0  0  0  0  0  0  0  0  0  0
  140.1220   71.8840  222.8610 C   0  0  0  0  0  0  0  0  0  0  0  0
  139.5540   70.6150  222.6770 C   0  0  0  0  0  0  0  0  0  0  0  0
  139.5180   69.7120  223.7400 C   0  0  0  0  0  0  0  0  0  0  0  0
  140.0290   70.0880  224.9890 C   0  0  0  0  0  0  0  0  0  0  0  0
  140.0090   69.2060  226.0800 C   0  0  0  0  0  0  0  0  0  0  0  0
  140.5170   69.6140  227.3180 C   0  0  0  0  0  0  0  0  0  0  0  0
  140.4930   68.5110  228.6820 Cl  0  0  0  0  0  0  0  0  0  0  0  0
  141.0460   70.9010  227.4700 C   0  0  0  0  0  0  0  0  0  0  0  0
  141.0690   71.7860  226.3870 C   0  0  0  0  0  0  0  0  0  0  0  0
  140.5640   71.3860  225.1460 C   0  0  0  0  0  0  0  0  0  0  0  0
  140.5910   72.2410  224.0880 N   0  0  0  0  0  0  0  0  0  0  0  0
  140.1011   74.8917  220.0047 H   0  0  0  0  0  0  0  0  0  0  0  0
  138.9786   75.6445  221.1879 H   0  0  0  0  0  0  0  0  0  0  0  0
  140.8530   78.4562  219.2924 H   0  0  0  0  0  0  0  0  0  0  0  0
  142.2266   78.9147  220.3097 H   0  0  0  0  0  0  0  0  0  0  0  0
  143.7550   78.5773  218.5496 H   0  0  0  0  0  0  0  0  0  0  0  0
  142.9780   79.2840  216.8340 H   0  0  0  0  0  0  0  0  0  0  0  0
  142.1385   76.3176  217.3029 H   0  0  0  0  0  0  0  0  0  0  0  0
  143.8809   76.3797  217.5782 H   0  0  0  0  0  0  0  0  0  0  0  0
  142.2227   74.9165  219.2462 H   0  0  0  0  0  0  0  0  0  0  0  0
  144.8567   76.0950  219.4478 H   0  0  0  0  0  0  0  0  0  0  0  0
  144.0214   76.1090  221.0570 H   0  0  0  0  0  0  0  0  0  0  0  0
  142.3134   73.4128  220.3893 H   0  0  0  0  0  0  0  0  0  0  0  0
  143.5441   71.0592  220.6723 H   0  0  0  0  0  0  0  0  0  0  0  0
  146.1950   71.5334  220.5261 H   0  0  0  0  0  0  0  0  0  0  0  0
  146.4983   74.1616  220.1579 H   0  0  0  0  0  0  0  0  0  0  0  0
  139.1385   70.3327  221.6984 H   0  0  0  0  0  0  0  0  0  0  0  0
  139.0900   68.7087  223.5979 H   0  0  0  0  0  0  0  0  0  0  0  0
  139.5941   68.1941  225.9620 H   0  0  0  0  0  0  0  0  0  0  0  0
  141.4452   71.2177  228.4449 H   0  0  0  0  0  0  0  0  0  0  0  0
  141.4845   72.7969  226.5117 H   0  0  0  0  0  0  0  0  0  0  0  0
  1  2  2  0
  2  3  1  0
  3  4  1  0
  4  5  1  0
  5  6  2  0
  5  7  1  0
  7  8  1  0
  8  9  1  0
  9 10  1  0
  9 11  1  0
 11 12  1  0
 12 13  1  0
 13 14  1  0
 14 15  1  0
 15 16  2  0
 16 17  1  0
 17 18  2  0
  2 19  1  0
 19 20  2  0
 20 21  1  0
 21 22  2  0
 22 23  1  0
 23 24  2  0
 24 25  1  0
 24 26  1  0
 26 27  2  0
 27 28  1  0
 28 29  2  0
 12  7  1  0
 18 14  1  0
 29 19  1  0
 28 22  1  0
  4 30  1  0
  4 31  1  0
  8 32  1  0
  8 33  1  0
  9 34  1  1
 10 35  1  0
 11 36  1  0
 11 37  1  0
 12 38  1  6
 13 39  1  0
 13 40  1  0
 15 41  1  0
 16 42  1  0
 17 43  1  0
 18 44  1  0
 20 45  1  0
 21 46  1  0
 23 47  1  0
 26 48  1  0
 27 49  1  0
M  CHG  1   3  -1
M  END
>  <meeko>  (18) 
{"free_energy": -7.74, "intermolecular_energy": -10.12, "internal_energy": -1.41, "cluster_size": 3, "cluster_id": 2, "rank_in_cluster": 1}

$$$$

     RDKit          3D

 49 52  0  0  0  0  0  0  0  0999 V2000
  139.8860   72.3730  220.5570 O   0  0  0  0  0  0  0  0  0  0  0  0
  140.0680   72.7940  221.7290 C   0  0  0  0  0  0  0  0  0  0  0  0
  140.2500   74.1990  221.9420 N   0  0  0  0  0  0  0  0  0  0  0  0
  141.4650   74.9280  221.5960 C   0  0  0  0  0  0  0  0  0  0  0  0
  141.9750   74.4480  220.2710 C   0  0  0  0  0  0  0  0  0  0  0  0
  141.3550   74.7870  219.2270 O   0  0  0  0  0  0  0  0  0  0  0  0
  143.0970   73.5500  220.1690 N   0  0  0  0  0  0  0  0  0  0  0  0
  144.4430   73.9920  220.5030 C   0  0  0  0  0  0  0  0  0  0  0  0
  145.3770   72.8840  220.0190 C   0  0  2  0  0  0  0  0  0  0  0  0
  146.5140   73.4080  219.3870 O   0  0  0  0  0  0  0  0  0  0  0  0
  144.5430   72.0660  219.0360 C   0  0  0  0  0  0  0  0  0  0  0  0
  143.0920   72.2580  219.4860 C   0  0  1  0  0  0  0  0  0  0  0  0
  142.6750   71.1290  220.4550 C   0  0  0  0  0  0  0  0  0  0  0  0
  142.8900   69.8070  219.8710 N   0  0  0  0  0  0  0  0  0  0  0  0
  144.0380   69.1020  219.9040 C   0  0  0  0  0  0  0  0  0  0  0  0
  143.8690   67.9100  219.2300 C   0  0  0  0  0  0  0  0  0  0  0  0
  142.5640   67.8940  218.7760 C   0  0  0  0  0  0  0  0  0  0  0  0
  141.9870   69.0770  219.1890 C   0  0  0  0  0  0  0  0  0  0  0  0
  140.0680   71.8300  222.8420 C   0  0  0  0  0  0  0  0  0  0  0  0
  139.5450   70.5390  222.6780 C   0  0  0  0  0  0  0  0  0  0  0  0
  139.5530   69.6470  223.7510 C   0  0  0  0  0  0  0  0  0  0  0  0
  140.0610   70.0540  224.9890 C   0  0  0  0  0  0  0  0  0  0  0  0
  140.0850   69.1850  226.0900 C   0  0  0  0  0  0  0  0  0  0  0  0
  140.5900   69.6240  227.3190 C   0  0  0  0  0  0  0  0  0  0  0  0
  140.6190   68.5360  228.6940 Cl  0  0  0  0  0  0  0  0  0  0  0  0
  141.0720   70.9320  227.4520 C   0  0  0  0  0  0  0  0  0  0  0  0
  141.0520   71.8050  226.3590 C   0  0  0  0  0  0  0  0  0  0  0  0
  140.5500   71.3730  225.1270 C   0  0  0  0  0  0  0  0  0  0  0  0
  140.5350   72.2170  224.0610 N   0  0  0  0  0  0  0  0  0  0  0  0
  141.2427   76.0036  221.5356 H   0  0  0  0  0  0  0  0  0  0  0  0
  142.2292   74.7545  222.3679 H   0  0  0  0  0  0  0  0  0  0  0  0
  144.6735   74.9381  219.9913 H   0  0  0  0  0  0  0  0  0  0  0  0
  144.5538   74.1722  221.5825 H   0  0  0  0  0  0  0  0  0  0  0  0
  145.7507   72.2773  220.8570 H   0  0  0  0  0  0  0  0  0  0  0  0
  146.3910   74.3920  219.3600 H   0  0  0  0  0  0  0  0  0  0  0  0
  144.6813   72.4376  218.0099 H   0  0  0  0  0  0  0  0  0  0  0  0
  144.8355   71.0056  219.0307 H   0  0  0  0  0  0  0  0  0  0  0  0
  142.3795   72.2287  218.6485 H   0  0  0  0  0  0  0  0  0  0  0  0
  143.2701   71.2125  221.3764 H   0  0  0  0  0  0  0  0  0  0  0  0
  141.6013   71.2391  220.6671 H   0  0  0  0  0  0  0  0  0  0  0  0
  144.9678   69.4272  220.3936 H   0  0  0  0  0  0  0  0  0  0  0  0
  144.6257   67.1253  219.0827 H   0  0  0  0  0  0  0  0  0  0  0  0
  142.0794   67.0935  218.1977 H   0  0  0  0  0  0  0  0  0  0  0  0
  140.9477   69.3781  218.9913 H   0  0  0  0  0  0  0  0  0  0  0  0
  139.1300   70.2308  221.7070 H   0  0  0  0  0  0  0  0  0  0  0  0
  139.1611   68.6271  223.6237 H   0  0  0  0  0  0  0  0  0  0  0  0
  139.7064   68.1573  225.9871 H   0  0  0  0  0  0  0  0  0  0  0  0
  141.4679   71.2743  228.4195 H   0  0  0  0  0  0  0  0  0  0  0  0
  141.4313   72.8317  226.4685 H   0  0  0  0  0  0  0  0  0  0  0  0
  1  2  2  0
  2  3  1  0
  3  4  1  0
  4  5  1  0
  5  6  2  0
  5  7  1  0
  7  8  1  0
  8  9  1  0
  9 10  1  0
  9 11  1  0
 11 12  1  0
 12 13  1  0
 13 14  1  0
 14 15  1  0
 15 16  2  0
 16 17  1  0
 17 18  2  0
  2 19  1  0
 19 20  2  0
 20 21  1  0
 21 22  2  0
 22 23  1  0
 23 24  2  0
 24 25  1  0
 24 26  1  0
 26 27  2  0
 27 28  1  0
 28 29  2  0
 12  7  1  0
 18 14  1  0
 29 19  1  0
 28 22  1  0
  4 30  1  0
  4 31  1  0
  8 32  1  0
  8 33  1  0
  9 34  1  1
 10 35  1  0
 11 36  1  0
 11 37  1  0
 12 38  1  6
 13 39  1  0
 13 40  1  0
 15 41  1  0
 16 42  1  0
 17 43  1  0
 18 44  1  0
 20 45  1  0
 21 46  1  0
 23 47  1  0
 26 48  1  0
 27 49  1  0
M  CHG  1   3  -1
M  END
>  <meeko>  (19) 
{"free_energy": -7.32, "intermolecular_energy": -9.71, "internal_energy": -1.65, "cluster_size": 1, "cluster_id": 6, "rank_in_cluster": 1}

$$$$

     RDKit          3D

 49 52  0  0  0  0  0  0  0  0999 V2000
  139.9130   73.8880  222.3470 O   0  0  0  0  0  0  0  0  0  0  0  0
  139.7060   72.6790  222.0640 C   0  0  0  0  0  0  0  0  0  0  0  0
  139.3960   72.3270  220.7100 N   0  0  0  0  0  0  0  0  0  0  0  0
  140.3020   72.5270  219.5850 C   0  0  0  0  0  0  0  0  0  0  0  0
  141.6220   71.8860  219.8860 C   0  0  0  0  0  0  0  0  0  0  0  0
  141.6340   70.6990  220.3100 O   0  0  0  0  0  0  0  0  0  0  0  0
  142.8610   72.6140  219.7810 N   0  0  0  0  0  0  0  0  0  0  0  0
  144.0690   71.9690  219.2890 C   0  0  0  0  0  0  0  0  0  0  0  0
  145.2090   72.9460  219.5770 C   0  0  2  0  0  0  0  0  0  0  0  0
  146.3420   72.2850  220.0730 O   0  0  0  0  0  0  0  0  0  0  0  0
  144.6490   73.9100  220.6190 C   0  0  0  0  0  0  0  0  0  0  0  0
  143.1350   73.9160  220.3860 C   0  0  1  0  0  0  0  0  0  0  0  0
  142.7430   75.0600  219.4240 C   0  0  0  0  0  0  0  0  0  0  0  0
  142.1340   76.1810  220.1360 N   0  0  0  0  0  0  0  0  0  0  0  0
  142.2370   77.4820  219.8030 C   0  0  0  0  0  0  0  0  0  0  0  0
  141.5480   78.2510  220.7190 C   0  0  0  0  0  0  0  0  0  0  0  0
  141.0020   77.3760  221.6390 C   0  0  0  0  0  0  0  0  0  0  0  0
  141.3800   76.1070  221.2500 C   0  0  0  0  0  0  0  0  0  0  0  0
  139.8080   71.6680  223.1290 C   0  0  0  0  0  0  0  0  0  0  0  0
  139.3400   70.3610  222.9300 C   0  0  0  0  0  0  0  0  0  0  0  0
  139.4440   69.4240  223.9590 C   0  0  0  0  0  0  0  0  0  0  0  0
  139.9950   69.8000  225.1890 C   0  0  0  0  0  0  0  0  0  0  0  0
  140.1150   68.8850  226.2450 C   0  0  0  0  0  0  0  0  0  0  0  0
  140.6610   69.2950  227.4680 C   0  0  0  0  0  0  0  0  0  0  0  0
  140.8120   68.1490  228.7880 Cl  0  0  0  0  0  0  0  0  0  0  0  0
  141.0870   70.6170  227.6380 C   0  0  0  0  0  0  0  0  0  0  0  0
  140.9700   71.5360  226.5900 C   0  0  0  0  0  0  0  0  0  0  0  0
  140.4270   71.1340  225.3650 C   0  0  0  0  0  0  0  0  0  0  0  0
  140.3180   72.0230  224.3400 N   0  0  0  0  0  0  0  0  0  0  0  0
  139.8707   72.0712  218.6815 H   0  0  0  0  0  0  0  0  0  0  0  0
  140.4474   73.6046  219.4188 H   0  0  0  0  0  0  0  0  0  0  0  0
  144.2372   71.0180  219.8156 H   0  0  0  0  0  0  0  0  0  0  0  0
  143.9960   71.7366  218.2163 H   0  0  0  0  0  0  0  0  0  0  0  0
  145.5375   73.4620  218.6628 H   0  0  0  0  0  0  0  0  0  0  0  0
  146.0610   71.8430  220.9160 H   0  0  0  0  0  0  0  0  0  0  0  0
  144.8818   73.5581  221.6349 H   0  0  0  0  0  0  0  0  0  0  0  0
  145.0840   74.9160  220.5250 H   0  0  0  0  0  0  0  0  0  0  0  0
  142.5625   74.0775  221.3113 H   0  0  0  0  0  0  0  0  0  0  0  0
  143.6461   75.4152  218.9060 H   0  0  0  0  0  0  0  0  0  0  0  0
  142.0058   74.6679  218.7079 H   0  0  0  0  0  0  0  0  0  0  0  0
  142.7864   77.8722  218.9336 H   0  0  0  0  0  0  0  0  0  0  0  0
  141.4521   79.3468  220.7171 H   0  0  0  0  0  0  0  0  0  0  0  0
  140.3861   77.6397  222.5114 H   0  0  0  0  0  0  0  0  0  0  0  0
  141.1073   75.1769  221.7702 H   0  0  0  0  0  0  0  0  0  0  0  0
  138.8926   70.0755  221.9665 H   0  0  0  0  0  0  0  0  0  0  0  0
  139.0938   68.3929  223.8036 H   0  0  0  0  0  0  0  0  0  0  0  0
  139.7804   67.8455  226.1128 H   0  0  0  0  0  0  0  0  0  0  0  0
  141.5157   70.9349  228.5999 H   0  0  0  0  0  0  0  0  0  0  0  0
  141.3049   72.5745  226.7290 H   0  0  0  0  0  0  0  0  0  0  0  0
  1  2  2  0
  2  3  1  0
  3  4  1  0
  4  5  1  0
  5  6  2  0
  5  7  1  0
  7  8  1  0
  8  9  1  0
  9 10  1  0
  9 11  1  0
 11 12  1  0
 12 13  1  0
 13 14  1  0
 14 15  1  0
 15 16  2  0
 16 17  1  0
 17 18  2  0
  2 19  1  0
 19 20  2  0
 20 21  1  0
 21 22  2  0
 22 23  1  0
 23 24  2  0
 24 25  1  0
 24 26  1  0
 26 27  2  0
 27 28  1  0
 28 29  2  0
 12  7  1  0
 18 14  1  0
 29 19  1  0
 28 22  1  0
  4 30  1  0
  4 31  1  0
  8 32  1  0
  8 33  1  0
  9 34  1  6
 10 35  1  0
 11 36  1  0
 11 37  1  0
 12 38  1  1
 13 39  1  0
 13 40  1  0
 15 41  1  0
 16 42  1  0
 17 43  1  0
 18 44  1  0
 20 45  1  0
 21 46  1  0
 23 47  1  0
 26 48  1  0
 27 49  1  0
M  CHG  1   3  -1
M  END
>  <meeko>  (20) 
{"free_energy": -7.7, "intermolecular_energy": -10.08, "internal_energy": -1.59, "cluster_size": 8, "cluster_id": 1, "rank_in_cluster": 3}

$$$$
