
     RDKit          3D

 53 56  0  0  0  0  0  0  0  0999 V2000
  138.7070   72.6090  221.5780 O   0  0  0  0  0  0  0  0  0  0  0  0
  139.6810   72.5880  222.3770 C   0  0  0  0  0  0  0  0  0  0  0  0
  140.7640   73.5070  222.1670 N   0  0  0  0  0  0  0  0  0  0  0  0
  140.6620   74.8090  221.5730 C   0  0  0  0  0  0  0  0  0  0  0  0
  139.8160   75.7450  222.0260 C   0  0  0  0  0  0  0  0  0  0  0  0
  138.6160   75.3740  222.6300 O   0  0  0  0  0  0  0  0  0  0  0  0
  140.1390   77.1420  221.9100 N   0  0  0  0  0  0  0  0  0  0  0  0
  139.1590   78.1260  222.3910 C   0  0  0  0  0  0  0  0  0  0  0  0
  139.7940   79.0650  223.4300 C   0  0  0  0  0  0  0  0  0  0  0  0
  141.2900   79.3410  223.1770 C   0  0  0  0  0  0  0  0  0  0  0  0
  141.6870   79.0810  221.7210 C   0  0  0  0  0  0  0  0  0  0  0  0
  141.4340   77.6010  221.3540 C   0  0  2  0  0  0  0  0  0  0  0  0
  141.5420   77.4010  219.8120 C   0  0  0  0  0  0  0  0  0  0  0  0
  142.7130   76.5340  219.3490 C   0  0  0  0  0  0  0  0  0  0  0  0
  142.9370   76.9330  217.9040 C   0  0  0  0  0  0  0  0  0  0  0  0
  142.5700   78.4090  217.8230 C   0  0  0  0  0  0  0  0  0  0  0  0
  141.6470   78.7020  219.0070 C   0  0  0  0  0  0  0  0  0  0  0  0
  139.7110   71.5890  223.4690 C   0  0  0  0  0  0  0  0  0  0  0  0
  139.1150   70.3270  223.3100 C   0  0  0  0  0  0  0  0  0  0  0  0
  139.1460   69.4080  224.3630 C   0  0  0  0  0  0  0  0  0  0  0  0
  139.7770   69.7480  225.5650 C   0  0  0  0  0  0  0  0  0  0  0  0
  139.8270   68.8510  226.6440 C   0  0  0  0  0  0  0  0  0  0  0  0
  140.4680   69.2210  227.8310 C   0  0  0  0  0  0  0  0  0  0  0  0
  140.5160   68.3540  228.8740 F   0  0  0  0  0  0  0  0  0  0  0  0
  141.0620   70.4820  227.9460 C   0  0  0  0  0  0  0  0  0  0  0  0
  141.0200   71.3800  226.8750 C   0  0  0  0  0  0  0  0  0  0  0  0
  140.3780   71.0200  225.6850 C   0  0  0  0  0  0  0  0  0  0  0  0
  140.3290   71.8930  224.6450 N   0  0  0  0  0  0  0  0  0  0  0  0
  141.3032   75.0486  220.7120 H   0  0  0  0  0  0  0  0  0  0  0  0
  138.3720   74.3990  222.7580 H   0  0  0  0  0  0  0  0  0  0  0  0
  138.7980   78.7215  221.5395 H   0  0  0  0  0  0  0  0  0  0  0  0
  138.3234   77.5895  222.8643 H   0  0  0  0  0  0  0  0  0  0  0  0
  139.2547   80.0235  223.4086 H   0  0  0  0  0  0  0  0  0  0  0  0
  139.7180   78.5651  224.4069 H   0  0  0  0  0  0  0  0  0  0  0  0
  141.5024   80.3926  223.4199 H   0  0  0  0  0  0  0  0  0  0  0  0
  141.8721   78.6582  223.8133 H   0  0  0  0  0  0  0  0  0  0  0  0
  141.0890   79.7263  221.0607 H   0  0  0  0  0  0  0  0  0  0  0  0
  142.7569   79.3036  221.5958 H   0  0  0  0  0  0  0  0  0  0  0  0
  142.2112   76.9708  221.8110 H   0  0  0  0  0  0  0  0  0  0  0  0
  140.5886   76.8906  219.6107 H   0  0  0  0  0  0  0  0  0  0  0  0
  143.6100   76.7389  219.9519 H   0  0  0  0  0  0  0  0  0  0  0  0
  142.5045   75.4594  219.4573 H   0  0  0  0  0  0  0  0  0  0  0  0
  143.9901   76.7836  217.6236 H   0  0  0  0  0  0  0  0  0  0  0  0
  142.3308   76.3253  217.2161 H   0  0  0  0  0  0  0  0  0  0  0  0
  143.4767   79.0285  217.8876 H   0  0  0  0  0  0  0  0  0  0  0  0
  142.0729   78.6397  216.8692 H   0  0  0  0  0  0  0  0  0  0  0  0
  142.0725   79.5015  219.6313 H   0  0  0  0  0  0  0  0  0  0  0  0
  140.6571   79.0383  218.6650 H   0  0  0  0  0  0  0  0  0  0  0  0
  138.6259   70.0629  222.3608 H   0  0  0  0  0  0  0  0  0  0  0  0
  138.6757   68.4204  224.2471 H   0  0  0  0  0  0  0  0  0  0  0  0
  139.3624   67.8578  226.5560 H   0  0  0  0  0  0  0  0  0  0  0  0
  141.5638   70.7683  228.8821 H   0  0  0  0  0  0  0  0  0  0  0  0
  141.4916   72.3694  226.9680 H   0  0  0  0  0  0  0  0  0  0  0  0
  1  2  2  0
  2  3  1  0
  3  4  1  0
  4  5  2  0
  5  6  1  0
  5  7  1  0
  7  8  1  0
  8  9  1  0
  9 10  1  0
 10 11  1  0
 11 12  1  0
 12 13  1  0
 13 14  1  0
 14 15  1  0
 15 16  1  0
 16 17  1  0
  2 18  1  0
 18 19  2  0
 19 20  1  0
 20 21  2  0
 21 22  1  0
 22 23  2  0
 23 24  1  0
 23 25  1  0
 25 26  2  0
 26 27  1  0
 27 28  2  0
 12  7  1  0
 17 13  1  0
 28 18  1  0
 27 21  1  0
  4 29  1  0
  6 30  1  0
  8 31  1  0
  8 32  1  0
  9 33  1  0
  9 34  1  0
 10 35  1  0
 10 36  1  0
 11 37  1  0
 11 38  1  0
 12 39  1  1
 13 40  1  0
 14 41  1  0
 14 42  1  0
 15 43  1  0
 15 44  1  0
 16 45  1  0
 16 46  1  0
 17 47  1  0
 17 48  1  0
 19 49  1  0
 20 50  1  0
 22 51  1  0
 25 52  1  0
 26 53  1  0
M  CHG  1   3  -1
M  END
>  <meeko>  (1) 
{"free_energy": -8.09, "intermolecular_energy": -10.18, "internal_energy": -2.05, "cluster_size": 16, "cluster_id": 1, "rank_in_cluster": 9}

$$$$

     RDKit          3D

 53 56  0  0  0  0  0  0  0  0999 V2000
  138.7320   72.6830  222.3410 O   0  0  0  0  0  0  0  0  0  0  0  0
  139.8350   72.2630  222.7810 C   0  0  0  0  0  0  0  0  0  0  0  0
  141.0450   72.7470  222.1790 N   0  0  0  0  0  0  0  0  0  0  0  0
  141.1420   73.8030  221.2120 C   0  0  0  0  0  0  0  0  0  0  0  0
  140.7410   75.0560  221.4690 C   0  0  0  0  0  0  0  0  0  0  0  0
  139.6970   75.2890  222.3620 O   0  0  0  0  0  0  0  0  0  0  0  0
  141.3890   76.1760  220.8400 N   0  0  0  0  0  0  0  0  0  0  0  0
  142.6200   75.9300  220.0770 C   0  0  0  0  0  0  0  0  0  0  0  0
  142.4830   76.4480  218.6360 C   0  0  0  0  0  0  0  0  0  0  0  0
  141.5890   77.6990  218.5140 C   0  0  0  0  0  0  0  0  0  0  0  0
  141.4690   78.4540  219.8410 C   0  0  0  0  0  0  0  0  0  0  0  0
  140.8290   77.5470  220.9170 C   0  0  2  0  0  0  0  0  0  0  0  0
  140.9830   78.1910  222.3280 C   0  0  0  0  0  0  0  0  0  0  0  0
  139.7990   79.0410  222.7870 C   0  0  0  0  0  0  0  0  0  0  0  0
  140.3760   79.9630  223.8430 C   0  0  0  0  0  0  0  0  0  0  0  0
  141.8140   80.2290  223.4170 C   0  0  0  0  0  0  0  0  0  0  0  0
  142.2200   79.0820  222.4890 C   0  0  0  0  0  0  0  0  0  0  0  0
  139.8560   71.2500  223.8600 C   0  0  0  0  0  0  0  0  0  0  0  0
  139.2870   69.9800  223.6700 C   0  0  0  0  0  0  0  0  0  0  0  0
  139.3090   69.0470  224.7100 C   0  0  0  0  0  0  0  0  0  0  0  0
  139.9040   69.3810  225.9330 C   0  0  0  0  0  0  0  0  0  0  0  0
  139.9430   68.4710  227.0000 C   0  0  0  0  0  0  0  0  0  0  0  0
  140.5470   68.8360  228.2080 C   0  0  0  0  0  0  0  0  0  0  0  0
  140.5850   67.9550  229.2400 F   0  0  0  0  0  0  0  0  0  0  0  0
  141.1160   70.1060  228.3540 C   0  0  0  0  0  0  0  0  0  0  0  0
  141.0840   71.0170  227.2940 C   0  0  0  0  0  0  0  0  0  0  0  0
  140.4780   70.6620  226.0840 C   0  0  0  0  0  0  0  0  0  0  0  0
  140.4390   71.5480  225.0550 N   0  0  0  0  0  0  0  0  0  0  0  0
  141.5619   73.5753  220.2211 H   0  0  0  0  0  0  0  0  0  0  0  0
  139.2570   74.5290  222.8660 H   0  0  0  0  0  0  0  0  0  0  0  0
  143.4577   76.4471  220.5678 H   0  0  0  0  0  0  0  0  0  0  0  0
  142.8041   74.8460  220.0455 H   0  0  0  0  0  0  0  0  0  0  0  0
  143.4857   76.6986  218.2593 H   0  0  0  0  0  0  0  0  0  0  0  0
  142.0043   75.6499  218.0495 H   0  0  0  0  0  0  0  0  0  0  0  0
  142.0231   78.3729  217.7607 H   0  0  0  0  0  0  0  0  0  0  0  0
  140.5818   77.3678  218.2208 H   0  0  0  0  0  0  0  0  0  0  0  0
  142.4706   78.7625  220.1751 H   0  0  0  0  0  0  0  0  0  0  0  0
  140.8324   79.3389  219.6935 H   0  0  0  0  0  0  0  0  0  0  0  0
  139.7495   77.4556  220.7263 H   0  0  0  0  0  0  0  0  0  0  0  0
  141.0661   77.2883  222.9510 H   0  0  0  0  0  0  0  0  0  0  0  0
  139.3889   79.6212  221.9472 H   0  0  0  0  0  0  0  0  0  0  0  0
  138.9718   78.4286  223.1752 H   0  0  0  0  0  0  0  0  0  0  0  0
  139.8075   80.9039  223.8827 H   0  0  0  0  0  0  0  0  0  0  0  0
  140.3263   79.5132  224.8456 H   0  0  0  0  0  0  0  0  0  0  0  0
  141.8795   81.1888  222.8837 H   0  0  0  0  0  0  0  0  0  0  0  0
  142.4804   80.2846  224.2904 H   0  0  0  0  0  0  0  0  0  0  0  0
  142.5330   79.4773  221.5114 H   0  0  0  0  0  0  0  0  0  0  0  0
  143.0660   78.5153  222.9050 H   0  0  0  0  0  0  0  0  0  0  0  0
  138.8256   69.7207  222.7057 H   0  0  0  0  0  0  0  0  0  0  0  0
  138.8601   68.0528  224.5685 H   0  0  0  0  0  0  0  0  0  0  0  0
  139.4989   67.4710  226.8869 H   0  0  0  0  0  0  0  0  0  0  0  0
  141.5899   70.3884  229.3057 H   0  0  0  0  0  0  0  0  0  0  0  0
  141.5354   72.0132  227.4114 H   0  0  0  0  0  0  0  0  0  0  0  0
  1  2  2  0
  2  3  1  0
  3  4  1  0
  4  5  2  0
  5  6  1  0
  5  7  1  0
  7  8  1  0
  8  9  1  0
  9 10  1  0
 10 11  1  0
 11 12  1  0
 12 13  1  0
 13 14  1  0
 14 15  1  0
 15 16  1  0
 16 17  1  0
  2 18  1  0
 18 19  2  0
 19 20  1  0
 20 21  2  0
 21 22  1  0
 22 23  2  0
 23 24  1  0
 23 25  1  0
 25 26  2  0
 26 27  1  0
 27 28  2  0
 12  7  1  0
 17 13  1  0
 28 18  1  0
 27 21  1  0
  4 29  1  0
  6 30  1  0
  8 31  1  0
  8 32  1  0
  9 33  1  0
  9 34  1  0
 10 35  1  0
 10 36  1  0
 11 37  1  0
 11 38  1  0
 12 39  1  6
 13 40  1  0
 14 41  1  0
 14 42  1  0
 15 43  1  0
 15 44  1  0
 16 45  1  0
 16 46  1  0
 17 47  1  0
 17 48  1  0
 19 49  1  0
 20 50  1  0
 22 51  1  0
 25 52  1  0
 26 53  1  0
M  CHG  1   3  -1
M  END
>  <meeko>  (2) 
{"free_energy": -8.39, "intermolecular_energy": -10.48, "internal_energy": -2.06, "cluster_size": 16, "cluster_id": 1, "rank_in_cluster": 3}

$$$$

     RDKit          3D

 53 56  0  0  0  0  0  0  0  0999 V2000
  139.1630   72.3570  221.2650 O   0  0  0  0  0  0  0  0  0  0  0  0
  139.8490   72.5640  222.3020 C   0  0  0  0  0  0  0  0  0  0  0  0
  140.7050   73.7150  222.3430 N   0  0  0  0  0  0  0  0  0  0  0  0
  140.3390   75.0510  221.9700 C   0  0  0  0  0  0  0  0  0  0  0  0
  140.4250   75.4990  220.7090 C   0  0  0  0  0  0  0  0  0  0  0  0
  139.6590   74.9130  219.7030 O   0  0  0  0  0  0  0  0  0  0  0  0
  141.2940   76.5970  220.3790 N   0  0  0  0  0  0  0  0  0  0  0  0
  142.5880   76.2970  219.7520 C   0  0  0  0  0  0  0  0  0  0  0  0
  142.7380   77.0500  218.4200 C   0  0  0  0  0  0  0  0  0  0  0  0
  142.0330   78.4220  218.4060 C   0  0  0  0  0  0  0  0  0  0  0  0
  141.8030   78.9680  219.8190 C   0  0  0  0  0  0  0  0  0  0  0  0
  140.9000   78.0050  220.6240 C   0  0  2  0  0  0  0  0  0  0  0  0
  140.9130   78.3890  222.1350 C   0  0  0  0  0  0  0  0  0  0  0  0
  139.7980   79.3370  222.5740 C   0  0  0  0  0  0  0  0  0  0  0  0
  140.3200   79.9790  223.8450 C   0  0  0  0  0  0  0  0  0  0  0  0
  141.8300   80.0720  223.6690 C   0  0  0  0  0  0  0  0  0  0  0  0
  142.2190   79.0330  222.6160 C   0  0  0  0  0  0  0  0  0  0  0  0
  139.7980   71.5930  223.4190 C   0  0  0  0  0  0  0  0  0  0  0  0
  139.1350   70.3640  223.2770 C   0  0  0  0  0  0  0  0  0  0  0  0
  139.0910   69.4720  224.3530 C   0  0  0  0  0  0  0  0  0  0  0  0
  139.7140   69.8060  225.5610 C   0  0  0  0  0  0  0  0  0  0  0  0
  139.6890   68.9370  226.6620 C   0  0  0  0  0  0  0  0  0  0  0  0
  140.3240   69.3010  227.8550 C   0  0  0  0  0  0  0  0  0  0  0  0
  140.2990   68.4600  228.9190 F   0  0  0  0  0  0  0  0  0  0  0  0
  140.9860   70.5300  227.9520 C   0  0  0  0  0  0  0  0  0  0  0  0
  141.0180   71.4000  226.8580 C   0  0  0  0  0  0  0  0  0  0  0  0
  140.3830   71.0460  225.6630 C   0  0  0  0  0  0  0  0  0  0  0  0
  140.4060   71.8920  224.6000 N   0  0  0  0  0  0  0  0  0  0  0  0
  139.9732   75.7354  222.7496 H   0  0  0  0  0  0  0  0  0  0  0  0
  139.2940   73.9730  219.8010 H   0  0  0  0  0  0  0  0  0  0  0  0
  143.3973   76.6022  220.4317 H   0  0  0  0  0  0  0  0  0  0  0  0
  142.6411   75.2163  219.5535 H   0  0  0  0  0  0  0  0  0  0  0  0
  143.8096   77.2072  218.2277 H   0  0  0  0  0  0  0  0  0  0  0  0
  142.2610   76.4332  217.6441 H   0  0  0  0  0  0  0  0  0  0  0  0
  142.6569   79.1354  217.8476 H   0  0  0  0  0  0  0  0  0  0  0  0
  141.0501   78.2921  217.9296 H   0  0  0  0  0  0  0  0  0  0  0  0
  142.7713   79.0710  220.3307 H   0  0  0  0  0  0  0  0  0  0  0  0
  141.3089   79.9483  219.7486 H   0  0  0  0  0  0  0  0  0  0  0  0
  139.8596   78.1028  220.2805 H   0  0  0  0  0  0  0  0  0  0  0  0
  140.7715   77.3993  222.5939 H   0  0  0  0  0  0  0  0  0  0  0  0
  139.6100   80.0988  221.8031 H   0  0  0  0  0  0  0  0  0  0  0  0
  138.8437   78.8134  222.7326 H   0  0  0  0  0  0  0  0  0  0  0  0
  139.8864   80.9816  223.9744 H   0  0  0  0  0  0  0  0  0  0  0  0
  140.0502   79.3934  224.7363 H   0  0  0  0  0  0  0  0  0  0  0  0
  142.1098   81.0796  223.3277 H   0  0  0  0  0  0  0  0  0  0  0  0
  142.3498   79.8829  224.6198 H   0  0  0  0  0  0  0  0  0  0  0  0
  142.7349   79.5193  221.7750 H   0  0  0  0  0  0  0  0  0  0  0  0
  142.9028   78.2799  223.0345 H   0  0  0  0  0  0  0  0  0  0  0  0
  138.6522   70.1037  222.3235 H   0  0  0  0  0  0  0  0  0  0  0  0
  138.5679   68.5098  224.2502 H   0  0  0  0  0  0  0  0  0  0  0  0
  139.1704   67.9697  226.5877 H   0  0  0  0  0  0  0  0  0  0  0  0
  141.4827   70.8125  228.8919 H   0  0  0  0  0  0  0  0  0  0  0  0
  141.5429   72.3635  226.9371 H   0  0  0  0  0  0  0  0  0  0  0  0
  1  2  2  0
  2  3  1  0
  3  4  1  0
  4  5  2  0
  5  6  1  0
  5  7  1  0
  7  8  1  0
  8  9  1  0
  9 10  1  0
 10 11  1  0
 11 12  1  0
 12 13  1  0
 13 14  1  0
 14 15  1  0
 15 16  1  0
 16 17  1  0
  2 18  1  0
 18 19  2  0
 19 20  1  0
 20 21  2  0
 21 22  1  0
 22 23  2  0
 23 24  1  0
 23 25  1  0
 25 26  2  0
 26 27  1  0
 27 28  2  0
 12  7  1  0
 17 13  1  0
 28 18  1  0
 27 21  1  0
  4 29  1  0
  6 30  1  0
  8 31  1  0
  8 32  1  0
  9 33  1  0
  9 34  1  0
 10 35  1  0
 10 36  1  0
 11 37  1  0
 11 38  1  0
 12 39  1  6
 13 40  1  0
 14 41  1  0
 14 42  1  0
 15 43  1  0
 15 44  1  0
 16 45  1  0
 16 46  1  0
 17 47  1  0
 17 48  1  0
 19 49  1  0
 20 50  1  0
 22 51  1  0
 25 52  1  0
 26 53  1  0
M  CHG  1   3  -1
M  END
>  <meeko>  (3) 
{"free_energy": -7.49, "intermolecular_energy": -9.57, "internal_energy": -1.93, "cluster_size": 16, "cluster_id": 1, "rank_in_cluster": 15}

$$$$

     RDKit          3D

 53 56  0  0  0  0  0  0  0  0999 V2000
  139.0870   74.1160  220.8620 O   0  0  0  0  0  0  0  0  0  0  0  0
  140.1080   74.4150  221.5370 C   0  0  0  0  0  0  0  0  0  0  0  0
  140.7150   73.4030  222.3530 N   0  0  0  0  0  0  0  0  0  0  0  0
  140.2390   72.0590  222.5230 C   0  0  0  0  0  0  0  0  0  0  0  0
  138.9860   71.7800  222.9080 C   0  0  0  0  0  0  0  0  0  0  0  0
  137.9690   72.7140  222.7190 O   0  0  0  0  0  0  0  0  0  0  0  0
  138.6690   70.5100  223.5060 N   0  0  0  0  0  0  0  0  0  0  0  0
  137.3910   69.8750  223.1570 C   0  0  0  0  0  0  0  0  0  0  0  0
  137.6190   68.4580  222.6050 C   0  0  0  0  0  0  0  0  0  0  0  0
  138.8330   67.7420  223.2310 C   0  0  0  0  0  0  0  0  0  0  0  0
  139.2190   68.3370  224.5880 C   0  0  0  0  0  0  0  0  0  0  0  0
  139.6070   69.8250  224.4280 C   0  0  2  0  0  0  0  0  0  0  0  0
  139.7010   70.5120  225.8250 C   0  0  0  0  0  0  0  0  0  0  0  0
  140.8550   71.5010  225.9860 C   0  0  0  0  0  0  0  0  0  0  0  0
  141.0750   71.5900  227.4840 C   0  0  0  0  0  0  0  0  0  0  0  0
  140.7290   70.2130  228.0340 C   0  0  0  0  0  0  0  0  0  0  0  0
  139.8190   69.5400  227.0050 C   0  0  0  0  0  0  0  0  0  0  0  0
  140.6200   75.8040  221.5130 C   0  0  0  0  0  0  0  0  0  0  0  0
  141.5150   76.2270  220.5180 C   0  0  0  0  0  0  0  0  0  0  0  0
  141.9930   77.5410  220.5280 C   0  0  0  0  0  0  0  0  0  0  0  0
  141.5690   78.4280  221.5240 C   0  0  0  0  0  0  0  0  0  0  0  0
  142.0290   79.7540  221.5660 C   0  0  0  0  0  0  0  0  0  0  0  0
  141.5830   80.6160  222.5740 C   0  0  0  0  0  0  0  0  0  0  0  0
  142.0270   81.8980  222.6140 F   0  0  0  0  0  0  0  0  0  0  0  0
  140.6790   80.1610  223.5400 C   0  0  0  0  0  0  0  0  0  0  0  0
  140.2140   78.8430  223.5020 C   0  0  0  0  0  0  0  0  0  0  0  0
  140.6570   77.9720  222.5000 C   0  0  0  0  0  0  0  0  0  0  0  0
  140.2130   76.6890  222.4660 N   0  0  0  0  0  0  0  0  0  0  0  0
  140.9302   71.2254  222.3296 H   0  0  0  0  0  0  0  0  0  0  0  0
  138.1560   73.7090  222.7540 H   0  0  0  0  0  0  0  0  0  0  0  0
  136.7606   69.8147  224.0564 H   0  0  0  0  0  0  0  0  0  0  0  0
  136.8961   70.4799  222.3829 H   0  0  0  0  0  0  0  0  0  0  0  0
  136.7194   67.8575  222.8050 H   0  0  0  0  0  0  0  0  0  0  0  0
  137.8224   68.5589  221.5287 H   0  0  0  0  0  0  0  0  0  0  0  0
  138.5855   66.6790  223.3678 H   0  0  0  0  0  0  0  0  0  0  0  0
  139.6880   67.8697  222.5508 H   0  0  0  0  0  0  0  0  0  0  0  0
  138.3648   68.2563  225.2763 H   0  0  0  0  0  0  0  0  0  0  0  0
  140.0797   67.7831  224.9909 H   0  0  0  0  0  0  0  0  0  0  0  0
  140.6047   69.8978  223.9705 H   0  0  0  0  0  0  0  0  0  0  0  0
  138.7389   71.0447  225.8510 H   0  0  0  0  0  0  0  0  0  0  0  0
  141.7590   71.1286  225.4820 H   0  0  0  0  0  0  0  0  0  0  0  0
  140.6312   72.4803  225.5379 H   0  0  0  0  0  0  0  0  0  0  0  0
  142.1239   71.8381  227.7035 H   0  0  0  0  0  0  0  0  0  0  0  0
  140.4551   72.3764  227.9393 H   0  0  0  0  0  0  0  0  0  0  0  0
  141.6451   69.6203  228.1740 H   0  0  0  0  0  0  0  0  0  0  0  0
  140.2283   70.2931  229.0101 H   0  0  0  0  0  0  0  0  0  0  0  0
  140.2607   68.5894  226.6714 H   0  0  0  0  0  0  0  0  0  0  0  0
  138.8317   69.3148  227.4346 H   0  0  0  0  0  0  0  0  0  0  0  0
  141.8392   75.5275  219.7334 H   0  0  0  0  0  0  0  0  0  0  0  0
  142.7003   77.8766  219.7552 H   0  0  0  0  0  0  0  0  0  0  0  0
  142.7392   80.1147  220.8074 H   0  0  0  0  0  0  0  0  0  0  0  0
  140.3331   80.8421  224.3315 H   0  0  0  0  0  0  0  0  0  0  0  0
  139.4994   78.4903  224.2603 H   0  0  0  0  0  0  0  0  0  0  0  0
  1  2  2  0
  2  3  1  0
  3  4  1  0
  4  5  2  0
  5  6  1  0
  5  7  1  0
  7  8  1  0
  8  9  1  0
  9 10  1  0
 10 11  1  0
 11 12  1  0
 12 13  1  0
 13 14  1  0
 14 15  1  0
 15 16  1  0
 16 17  1  0
  2 18  1  0
 18 19  2  0
 19 20  1  0
 20 21  2  0
 21 22  1  0
 22 23  2  0
 23 24  1  0
 23 25  1  0
 25 26  2  0
 26 27  1  0
 27 28  2  0
 12  7  1  0
 17 13  1  0
 28 18  1  0
 27 21  1  0
  4 29  1  0
  6 30  1  0
  8 31  1  0
  8 32  1  0
  9 33  1  0
  9 34  1  0
 10 35  1  0
 10 36  1  0
 11 37  1  0
 11 38  1  0
 12 39  1  6
 13 40  1  0
 14 41  1  0
 14 42  1  0
 15 43  1  0
 15 44  1  0
 16 45  1  0
 16 46  1  0
 17 47  1  0
 17 48  1  0
 19 49  1  0
 20 50  1  0
 22 51  1  0
 25 52  1  0
 26 53  1  0
M  CHG  1   3  -1
M  END
>  <meeko>  (4) 
{"free_energy": -7.73, "intermolecular_energy": -9.82, "internal_energy": -2.02, "cluster_size": 3, "cluster_id": 2, "rank_in_cluster": 1}

$$$$

     RDKit          3D

 53 56  0  0  0  0  0  0  0  0999 V2000
  138.7250   72.6140  222.2520 O   0  0  0  0  0  0  0  0  0  0  0  0
  139.8210   72.2430  222.7520 C   0  0  0  0  0  0  0  0  0  0  0  0
  141.0400   72.7650  222.2030 N   0  0  0  0  0  0  0  0  0  0  0  0
  141.1450   73.8110  221.2260 C   0  0  0  0  0  0  0  0  0  0  0  0
  140.7650   75.0720  221.4750 C   0  0  0  0  0  0  0  0  0  0  0  0
  139.7230   75.3280  222.3640 O   0  0  0  0  0  0  0  0  0  0  0  0
  141.4350   76.1780  220.8440 N   0  0  0  0  0  0  0  0  0  0  0  0
  142.6630   75.9060  220.0840 C   0  0  0  0  0  0  0  0  0  0  0  0
  142.5370   76.4210  218.6410 C   0  0  0  0  0  0  0  0  0  0  0  0
  141.6670   77.6880  218.5130 C   0  0  0  0  0  0  0  0  0  0  0  0
  141.5590   78.4510  219.8370 C   0  0  0  0  0  0  0  0  0  0  0  0
  140.9000   77.5590  220.9150 C   0  0  2  0  0  0  0  0  0  0  0  0
  141.0640   78.2050  222.3240 C   0  0  0  0  0  0  0  0  0  0  0  0
  139.8740   79.0370  222.8000 C   0  0  0  0  0  0  0  0  0  0  0  0
  140.4520   79.9670  223.8480 C   0  0  0  0  0  0  0  0  0  0  0  0
  141.8800   80.2550  223.4020 C   0  0  0  0  0  0  0  0  0  0  0  0
  142.2900   79.1150  222.4680 C   0  0  0  0  0  0  0  0  0  0  0  0
  139.8250   71.2470  223.8470 C   0  0  0  0  0  0  0  0  0  0  0  0
  139.2260   69.9880  223.6800 C   0  0  0  0  0  0  0  0  0  0  0  0
  139.2340   69.0720  224.7360 C   0  0  0  0  0  0  0  0  0  0  0  0
  139.8440   69.4110  225.9490 C   0  0  0  0  0  0  0  0  0  0  0  0
  139.8690   68.5170  227.0310 C   0  0  0  0  0  0  0  0  0  0  0  0
  140.4900   68.8870  228.2290 C   0  0  0  0  0  0  0  0  0  0  0  0
  140.5140   68.0230  229.2740 F   0  0  0  0  0  0  0  0  0  0  0  0
  141.0880   70.1460  228.3510 C   0  0  0  0  0  0  0  0  0  0  0  0
  141.0700   71.0410  227.2770 C   0  0  0  0  0  0  0  0  0  0  0  0
  140.4480   70.6810  226.0760 C   0  0  0  0  0  0  0  0  0  0  0  0
  140.4220   71.5510  225.0330 N   0  0  0  0  0  0  0  0  0  0  0  0
  141.5534   73.5683  220.2339 H   0  0  0  0  0  0  0  0  0  0  0  0
  139.2520   74.5760  222.8520 H   0  0  0  0  0  0  0  0  0  0  0  0
  143.5094   76.4094  220.5740 H   0  0  0  0  0  0  0  0  0  0  0  0
  142.8277   74.8187  220.0573 H   0  0  0  0  0  0  0  0  0  0  0  0
  143.5446   76.6511  218.2644 H   0  0  0  0  0  0  0  0  0  0  0  0
  142.0437   75.6298  218.0573 H   0  0  0  0  0  0  0  0  0  0  0  0
  142.1148   78.3505  217.7577 H   0  0  0  0  0  0  0  0  0  0  0  0
  140.6542   77.3744  218.2200 H   0  0  0  0  0  0  0  0  0  0  0  0
  142.5656   78.7421  220.1718 H   0  0  0  0  0  0  0  0  0  0  0  0
  140.9399   79.3475  219.6853 H   0  0  0  0  0  0  0  0  0  0  0  0
  139.8194   77.4866  220.7223 H   0  0  0  0  0  0  0  0  0  0  0  0
  141.1694   77.3034  222.9453 H   0  0  0  0  0  0  0  0  0  0  0  0
  139.4435   79.6112  221.9664 H   0  0  0  0  0  0  0  0  0  0  0  0
  139.0615   78.4122  223.1994 H   0  0  0  0  0  0  0  0  0  0  0  0
  139.8700   80.8992  223.8963 H   0  0  0  0  0  0  0  0  0  0  0  0
  140.4233   79.5160  224.8509 H   0  0  0  0  0  0  0  0  0  0  0  0
  141.9235   81.2159  222.8684 H   0  0  0  0  0  0  0  0  0  0  0  0
  142.5577   80.3203  224.2660 H   0  0  0  0  0  0  0  0  0  0  0  0
  142.5831   79.5153  221.4862 H   0  0  0  0  0  0  0  0  0  0  0  0
  143.1503   78.5610  222.8717 H   0  0  0  0  0  0  0  0  0  0  0  0
  138.7527   69.7238  222.7228 H   0  0  0  0  0  0  0  0  0  0  0  0
  138.7615   68.0862  224.6136 H   0  0  0  0  0  0  0  0  0  0  0  0
  139.4007   67.5261  226.9371 H   0  0  0  0  0  0  0  0  0  0  0  0
  141.5740   70.4327  229.2952 H   0  0  0  0  0  0  0  0  0  0  0  0
  141.5448   72.0283  227.3759 H   0  0  0  0  0  0  0  0  0  0  0  0
  1  2  2  0
  2  3  1  0
  3  4  1  0
  4  5  2  0
  5  6  1  0
  5  7  1  0
  7  8  1  0
  8  9  1  0
  9 10  1  0
 10 11  1  0
 11 12  1  0
 12 13  1  0
 13 14  1  0
 14 15  1  0
 15 16  1  0
 16 17  1  0
  2 18  1  0
 18 19  2  0
 19 20  1  0
 20 21  2  0
 21 22  1  0
 22 23  2  0
 23 24  1  0
 23 25  1  0
 25 26  2  0
 26 27  1  0
 27 28  2  0
 12  7  1  0
 17 13  1  0
 28 18  1  0
 27 21  1  0
  4 29  1  0
  6 30  1  0
  8 31  1  0
  8 32  1  0
  9 33  1  0
  9 34  1  0
 10 35  1  0
 10 36  1  0
 11 37  1  0
 11 38  1  0
 12 39  1  6
 13 40  1  0
 14 41  1  0
 14 42  1  0
 15 43  1  0
 15 44  1  0
 16 45  1  0
 16 46  1  0
 17 47  1  0
 17 48  1  0
 19 49  1  0
 20 50  1  0
 22 51  1  0
 25 52  1  0
 26 53  1  0
M  CHG  1   3  -1
M  END
>  <meeko>  (5) 
{"free_energy": -8.4, "intermolecular_energy": -10.49, "internal_energy": -2.04, "cluster_size": 16, "cluster_id": 1, "rank_in_cluster": 2}

$$$$

     RDKit          3D

 53 56  0  0  0  0  0  0  0  0999 V2000
  139.5040   72.1550  221.0240 O   0  0  0  0  0  0  0  0  0  0  0  0
  139.8600   72.5260  222.1740 C   0  0  0  0  0  0  0  0  0  0  0  0
  140.3230   73.8730  222.3500 N   0  0  0  0  0  0  0  0  0  0  0  0
  141.2940   74.5450  221.5340 C   0  0  0  0  0  0  0  0  0  0  0  0
  140.9560   75.2590  220.4500 C   0  0  0  0  0  0  0  0  0  0  0  0
  139.9110   74.8380  219.6310 O   0  0  0  0  0  0  0  0  0  0  0  0
  141.6550   76.4740  220.1270 N   0  0  0  0  0  0  0  0  0  0  0  0
  142.9380   76.3720  219.4180 C   0  0  0  0  0  0  0  0  0  0  0  0
  142.9100   77.1910  218.1170 C   0  0  0  0  0  0  0  0  0  0  0  0
  142.0350   78.4580  218.2070 C   0  0  0  0  0  0  0  0  0  0  0  0
  141.8210   78.9120  219.6540 C   0  0  0  0  0  0  0  0  0  0  0  0
  141.0990   77.8070  220.4590 C   0  0  2  0  0  0  0  0  0  0  0  0
  141.1530   78.1280  221.9840 C   0  0  0  0  0  0  0  0  0  0  0  0
  139.8460   78.6430  222.5860 C   0  0  0  0  0  0  0  0  0  0  0  0
  140.2680   79.3820  223.8410 C   0  0  0  0  0  0  0  0  0  0  0  0
  141.6370   79.9710  223.5320 C   0  0  0  0  0  0  0  0  0  0  0  0
  142.2240   79.1510  222.3820 C   0  0  0  0  0  0  0  0  0  0  0  0
  139.8440   71.5580  223.2930 C   0  0  0  0  0  0  0  0  0  0  0  0
  139.2470   70.2950  223.1480 C   0  0  0  0  0  0  0  0  0  0  0  0
  139.2350   69.4050  224.2250 C   0  0  0  0  0  0  0  0  0  0  0  0
  139.8250   69.7740  225.4400 C   0  0  0  0  0  0  0  0  0  0  0  0
  139.8310   68.9070  226.5440 C   0  0  0  0  0  0  0  0  0  0  0  0
  140.4320   69.3060  227.7420 C   0  0  0  0  0  0  0  0  0  0  0  0
  140.4380   68.4670  228.8090 F   0  0  0  0  0  0  0  0  0  0  0  0
  141.0300   70.5670  227.8430 C   0  0  0  0  0  0  0  0  0  0  0  0
  141.0320   71.4350  226.7470 C   0  0  0  0  0  0  0  0  0  0  0  0
  140.4290   71.0460  225.5460 C   0  0  0  0  0  0  0  0  0  0  0  0
  140.4230   71.8900  224.4810 N   0  0  0  0  0  0  0  0  0  0  0  0
  142.3567   74.4716  221.8083 H   0  0  0  0  0  0  0  0  0  0  0  0
  139.3880   73.9950  219.8370 H   0  0  0  0  0  0  0  0  0  0  0  0
  143.7400   76.7536  220.0671 H   0  0  0  0  0  0  0  0  0  0  0  0
  143.1185   75.3165  219.1662 H   0  0  0  0  0  0  0  0  0  0  0  0
  143.9390   77.4949  217.8745 H   0  0  0  0  0  0  0  0  0  0  0  0
  142.4708   76.5487  217.3394 H   0  0  0  0  0  0  0  0  0  0  0  0
  142.5276   79.2689  217.6505 H   0  0  0  0  0  0  0  0  0  0  0  0
  141.0502   78.2193  217.7789 H   0  0  0  0  0  0  0  0  0  0  0  0
  142.7966   79.1206  220.1174 H   0  0  0  0  0  0  0  0  0  0  0  0
  141.2017   79.8211  219.6571 H   0  0  0  0  0  0  0  0  0  0  0  0
  140.0363   77.7814  220.1763 H   0  0  0  0  0  0  0  0  0  0  0  0
  141.3916   77.1333  222.3885 H   0  0  0  0  0  0  0  0  0  0  0  0
  139.3380   79.3236  221.8869 H   0  0  0  0  0  0  0  0  0  0  0  0
  139.1361   77.8302  222.7993 H   0  0  0  0  0  0  0  0  0  0  0  0
  139.5502   80.1821  224.0745 H   0  0  0  0  0  0  0  0  0  0  0  0
  140.3015   78.7133  224.7138 H   0  0  0  0  0  0  0  0  0  0  0  0
  141.5366   81.0247  223.2326 H   0  0  0  0  0  0  0  0  0  0  0  0
  142.2905   79.9335  224.4161 H   0  0  0  0  0  0  0  0  0  0  0  0
  142.4591   79.8058  221.5299 H   0  0  0  0  0  0  0  0  0  0  0  0
  143.1565   78.6524  222.6851 H   0  0  0  0  0  0  0  0  0  0  0  0
  138.7903   70.0074  222.1895 H   0  0  0  0  0  0  0  0  0  0  0  0
  138.7633   68.4170  224.1187 H   0  0  0  0  0  0  0  0  0  0  0  0
  139.3632   67.9144  226.4668 H   0  0  0  0  0  0  0  0  0  0  0  0
  141.5002   70.8765  228.7881 H   0  0  0  0  0  0  0  0  0  0  0  0
  141.5075   72.4235  226.8289 H   0  0  0  0  0  0  0  0  0  0  0  0
  1  2  2  0
  2  3  1  0
  3  4  1  0
  4  5  2  0
  5  6  1  0
  5  7  1  0
  7  8  1  0
  8  9  1  0
  9 10  1  0
 10 11  1  0
 11 12  1  0
 12 13  1  0
 13 14  1  0
 14 15  1  0
 15 16  1  0
 16 17  1  0
  2 18  1  0
 18 19  2  0
 19 20  1  0
 20 21  2  0
 21 22  1  0
 22 23  2  0
 23 24  1  0
 23 25  1  0
 25 26  2  0
 26 27  1  0
 27 28  2  0
 12  7  1  0
 17 13  1  0
 28 18  1  0
 27 21  1  0
  4 29  1  0
  6 30  1  0
  8 31  1  0
  8 32  1  0
  9 33  1  0
  9 34  1  0
 10 35  1  0
 10 36  1  0
 11 37  1  0
 11 38  1  0
 12 39  1  6
 13 40  1  0
 14 41  1  0
 14 42  1  0
 15 43  1  0
 15 44  1  0
 16 45  1  0
 16 46  1  0
 17 47  1  0
 17 48  1  0
 19 49  1  0
 20 50  1  0
 22 51  1  0
 25 52  1  0
 26 53  1  0
M  CHG  1   3  -1
M  END
>  <meeko>  (6) 
{"free_energy": -7.54, "intermolecular_energy": -9.63, "internal_energy": -2.05, "cluster_size": 16, "cluster_id": 1, "rank_in_cluster": 14}

$$$$

     RDKit          3D

 53 56  0  0  0  0  0  0  0  0999 V2000
  139.5480   71.9670  221.0520 O   0  0  0  0  0  0  0  0  0  0  0  0
  139.8840   72.4060  222.1840 C   0  0  0  0  0  0  0  0  0  0  0  0
  140.3280   73.7670  222.2900 N   0  0  0  0  0  0  0  0  0  0  0  0
  139.5470   74.9340  221.9970 C   0  0  0  0  0  0  0  0  0  0  0  0
  140.0700   76.1690  221.9870 C   0  0  0  0  0  0  0  0  0  0  0  0
  141.4510   76.3460  221.9430 O   0  0  0  0  0  0  0  0  0  0  0  0
  139.2160   77.3270  222.0060 N   0  0  0  0  0  0  0  0  0  0  0  0
  138.1160   77.3970  221.0340 C   0  0  0  0  0  0  0  0  0  0  0  0
  136.7690   77.5970  221.7460 C   0  0  0  0  0  0  0  0  0  0  0  0
  136.8750   78.4310  223.0400 C   0  0  0  0  0  0  0  0  0  0  0  0
  138.1340   79.3030  223.0640 C   0  0  0  0  0  0  0  0  0  0  0  0
  139.3990   78.4170  222.9940 C   0  0  2  0  0  0  0  0  0  0  0  0
  140.6570   79.2930  222.7100 C   0  0  0  0  0  0  0  0  0  0  0  0
  141.9120   78.8980  223.4870 C   0  0  0  0  0  0  0  0  0  0  0  0
  142.7690   80.1480  223.4900 C   0  0  0  0  0  0  0  0  0  0  0  0
  141.7930   81.3180  223.5090 C   0  0  0  0  0  0  0  0  0  0  0  0
  140.4610   80.7910  222.9720 C   0  0  0  0  0  0  0  0  0  0  0  0
  139.8650   71.5010  223.3550 C   0  0  0  0  0  0  0  0  0  0  0  0
  139.2650   70.2340  223.2790 C   0  0  0  0  0  0  0  0  0  0  0  0
  139.2500   69.4050  224.4040 C   0  0  0  0  0  0  0  0  0  0  0  0
  139.8400   69.8400  225.5970 C   0  0  0  0  0  0  0  0  0  0  0  0
  139.8420   69.0350  226.7480 C   0  0  0  0  0  0  0  0  0  0  0  0
  140.4420   69.4990  227.9240 C   0  0  0  0  0  0  0  0  0  0  0  0
  140.4440   68.7210  229.0350 F   0  0  0  0  0  0  0  0  0  0  0  0
  141.0420   70.7630  227.9550 C   0  0  0  0  0  0  0  0  0  0  0  0
  141.0470   71.5690  226.8130 C   0  0  0  0  0  0  0  0  0  0  0  0
  140.4460   71.1150  225.6340 C   0  0  0  0  0  0  0  0  0  0  0  0
  140.4420   71.8980  224.5240 N   0  0  0  0  0  0  0  0  0  0  0  0
  138.4773   74.8112  221.7717 H   0  0  0  0  0  0  0  0  0  0  0  0
  142.0850   75.5670  222.0740 H   0  0  0  0  0  0  0  0  0  0  0  0
  138.2916   78.2413  220.3512 H   0  0  0  0  0  0  0  0  0  0  0  0
  138.0809   76.4513  220.4733 H   0  0  0  0  0  0  0  0  0  0  0  0
  136.0832   78.1104  221.0560 H   0  0  0  0  0  0  0  0  0  0  0  0
  136.4031   76.6000  222.0325 H   0  0  0  0  0  0  0  0  0  0  0  0
  135.9915   79.0820  223.1154 H   0  0  0  0  0  0  0  0  0  0  0  0
  136.9311   77.7330  223.8883 H   0  0  0  0  0  0  0  0  0  0  0  0
  138.1200   79.9851  222.2011 H   0  0  0  0  0  0  0  0  0  0  0  0
  138.1522   79.8811  223.9997 H   0  0  0  0  0  0  0  0  0  0  0  0
  139.5624   77.9324  223.9679 H   0  0  0  0  0  0  0  0  0  0  0  0
  140.7983   79.0979  221.6367 H   0  0  0  0  0  0  0  0  0  0  0  0
  141.6551   78.6008  224.5145 H   0  0  0  0  0  0  0  0  0  0  0  0
  142.4292   78.0387  223.0352 H   0  0  0  0  0  0  0  0  0  0  0  0
  143.4115   80.1702  224.3826 H   0  0  0  0  0  0  0  0  0  0  0  0
  143.4323   80.1872  222.6134 H   0  0  0  0  0  0  0  0  0  0  0  0
  141.6667   81.6892  224.5367 H   0  0  0  0  0  0  0  0  0  0  0  0
  142.1641   82.1517  222.8948 H   0  0  0  0  0  0  0  0  0  0  0  0
  139.6644   80.9455  223.7147 H   0  0  0  0  0  0  0  0  0  0  0  0
  140.1663   81.3195  222.0534 H   0  0  0  0  0  0  0  0  0  0  0  0
  138.8084   69.8950  222.3374 H   0  0  0  0  0  0  0  0  0  0  0  0
  138.7761   68.4137  224.3524 H   0  0  0  0  0  0  0  0  0  0  0  0
  139.3723   68.0406  226.7250 H   0  0  0  0  0  0  0  0  0  0  0  0
  141.5117   71.1237  228.8820 H   0  0  0  0  0  0  0  0  0  0  0  0
  141.5234   72.5601  226.8413 H   0  0  0  0  0  0  0  0  0  0  0  0
  1  2  2  0
  2  3  1  0
  3  4  1  0
  4  5  2  0
  5  6  1  0
  5  7  1  0
  7  8  1  0
  8  9  1  0
  9 10  1  0
 10 11  1  0
 11 12  1  0
 12 13  1  0
 13 14  1  0
 14 15  1  0
 15 16  1  0
 16 17  1  0
  2 18  1  0
 18 19  2  0
 19 20  1  0
 20 21  2  0
 21 22  1  0
 22 23  2  0
 23 24  1  0
 23 25  1  0
 25 26  2  0
 26 27  1  0
 27 28  2  0
 12  7  1  0
 17 13  1  0
 28 18  1  0
 27 21  1  0
  4 29  1  0
  6 30  1  0
  8 31  1  0
  8 32  1  0
  9 33  1  0
  9 34  1  0
 10 35  1  0
 10 36  1  0
 11 37  1  0
 11 38  1  0
 12 39  1  1
 13 40  1  0
 14 41  1  0
 14 42  1  0
 15 43  1  0
 15 44  1  0
 16 45  1  0
 16 46  1  0
 17 47  1  0
 17 48  1  0
 19 49  1  0
 20 50  1  0
 22 51  1  0
 25 52  1  0
 26 53  1  0
M  CHG  1   3  -1
M  END
>  <meeko>  (7) 
{"free_energy": -8.18, "intermolecular_energy": -10.27, "internal_energy": -1.44, "cluster_size": 16, "cluster_id": 1, "rank_in_cluster": 7}

$$$$

     RDKit          3D

 53 56  0  0  0  0  0  0  0  0999 V2000
  133.7730   68.4580  226.4460 O   0  0  0  0  0  0  0  0  0  0  0  0
  134.2450   69.3200  225.6570 C   0  0  0  0  0  0  0  0  0  0  0  0
  135.0600   68.8760  224.5610 N   0  0  0  0  0  0  0  0  0  0  0  0
  136.4830   69.0250  224.4550 C   0  0  0  0  0  0  0  0  0  0  0  0
  137.0560   70.0610  223.8250 C   0  0  0  0  0  0  0  0  0  0  0  0
  136.2690   71.0060  223.1710 O   0  0  0  0  0  0  0  0  0  0  0  0
  138.4860   70.2210  223.8300 N   0  0  0  0  0  0  0  0  0  0  0  0
  139.2250   69.9170  222.5960 C   0  0  0  0  0  0  0  0  0  0  0  0
  140.0680   71.1240  222.1530 C   0  0  0  0  0  0  0  0  0  0  0  0
  140.5980   71.9690  223.3300 C   0  0  0  0  0  0  0  0  0  0  0  0
  140.6370   71.1760  224.6390 C   0  0  0  0  0  0  0  0  0  0  0  0
  139.2140   70.7110  225.0250 C   0  0  2  0  0  0  0  0  0  0  0  0
  139.2820   69.6570  226.1720 C   0  0  0  0  0  0  0  0  0  0  0  0
  140.2110   70.0180  227.3300 C   0  0  0  0  0  0  0  0  0  0  0  0
  140.5380   68.6900  227.9870 C   0  0  0  0  0  0  0  0  0  0  0  0
  140.5390   67.6640  226.8610 C   0  0  0  0  0  0  0  0  0  0  0  0
  139.7060   68.2530  225.7220 C   0  0  0  0  0  0  0  0  0  0  0  0
  133.9970   70.7570  225.9080 C   0  0  0  0  0  0  0  0  0  0  0  0
  133.0800   71.1710  226.8880 C   0  0  0  0  0  0  0  0  0  0  0  0
  132.8550   72.5340  227.0950 C   0  0  0  0  0  0  0  0  0  0  0  0
  133.5500   73.4790  226.3310 C   0  0  0  0  0  0  0  0  0  0  0  0
  133.3480   74.8570  226.5110 C   0  0  0  0  0  0  0  0  0  0  0  0
  134.0610   75.7750  225.7320 C   0  0  0  0  0  0  0  0  0  0  0  0
  133.8670   77.1060  225.9060 F   0  0  0  0  0  0  0  0  0  0  0  0
  134.9770   75.3230  224.7750 C   0  0  0  0  0  0  0  0  0  0  0  0
  135.1860   73.9520  224.5930 C   0  0  0  0  0  0  0  0  0  0  0  0
  134.4740   73.0270  225.3650 C   0  0  0  0  0  0  0  0  0  0  0  0
  134.6690   71.6950  225.1850 N   0  0  0  0  0  0  0  0  0  0  0  0
  137.1296   68.2592  224.9084 H   0  0  0  0  0  0  0  0  0  0  0  0
  135.2600   70.9950  223.2500 H   0  0  0  0  0  0  0  0  0  0  0  0
  139.8899   69.0593  222.7758 H   0  0  0  0  0  0  0  0  0  0  0  0
  138.5021   69.6811  221.8012 H   0  0  0  0  0  0  0  0  0  0  0  0
  140.9276   70.7549  221.5744 H   0  0  0  0  0  0  0  0  0  0  0  0
  139.4125   71.7752  221.5562 H   0  0  0  0  0  0  0  0  0  0  0  0
  141.6164   72.3095  223.0915 H   0  0  0  0  0  0  0  0  0  0  0  0
  139.9145   72.8194  223.4703 H   0  0  0  0  0  0  0  0  0  0  0  0
  141.2846   70.2960  224.5114 H   0  0  0  0  0  0  0  0  0  0  0  0
  141.0324   71.8211  225.4375 H   0  0  0  0  0  0  0  0  0  0  0  0
  138.6409   71.5661  225.4128 H   0  0  0  0  0  0  0  0  0  0  0  0
  138.2350   69.6606  226.5095 H   0  0  0  0  0  0  0  0  0  0  0  0
  141.1256   70.5025  226.9575 H   0  0  0  0  0  0  0  0  0  0  0  0
  139.7471   70.7272  228.0313 H   0  0  0  0  0  0  0  0  0  0  0  0
  141.5263   68.7328  228.4681 H   0  0  0  0  0  0  0  0  0  0  0  0
  139.8094   68.4335  228.7702 H   0  0  0  0  0  0  0  0  0  0  0  0
  141.5681   67.4779  226.5199 H   0  0  0  0  0  0  0  0  0  0  0  0
  140.1189   66.7060  227.2012 H   0  0  0  0  0  0  0  0  0  0  0  0
  140.3080   68.3142  224.8034 H   0  0  0  0  0  0  0  0  0  0  0  0
  138.8302   67.6242  225.5039 H   0  0  0  0  0  0  0  0  0  0  0  0
  132.5411   70.4248  227.4902 H   0  0  0  0  0  0  0  0  0  0  0  0
  132.1333   72.8641  227.8567 H   0  0  0  0  0  0  0  0  0  0  0  0
  132.6299   75.2144  227.2637 H   0  0  0  0  0  0  0  0  0  0  0  0
  135.5343   76.0483  224.1640 H   0  0  0  0  0  0  0  0  0  0  0  0
  135.9100   73.6008  223.8430 H   0  0  0  0  0  0  0  0  0  0  0  0
  1  2  2  0
  2  3  1  0
  3  4  1  0
  4  5  2  0
  5  6  1  0
  5  7  1  0
  7  8  1  0
  8  9  1  0
  9 10  1  0
 10 11  1  0
 11 12  1  0
 12 13  1  0
 13 14  1  0
 14 15  1  0
 15 16  1  0
 16 17  1  0
  2 18  1  0
 18 19  2  0
 19 20  1  0
 20 21  2  0
 21 22  1  0
 22 23  2  0
 23 24  1  0
 23 25  1  0
 25 26  2  0
 26 27  1  0
 27 28  2  0
 12  7  1  0
 17 13  1  0
 28 18  1  0
 27 21  1  0
  4 29  1  0
  6 30  1  0
  8 31  1  0
  8 32  1  0
  9 33  1  0
  9 34  1  0
 10 35  1  0
 10 36  1  0
 11 37  1  0
 11 38  1  0
 12 39  1  1
 13 40  1  0
 14 41  1  0
 14 42  1  0
 15 43  1  0
 15 44  1  0
 16 45  1  0
 16 46  1  0
 17 47  1  0
 17 48  1  0
 19 49  1  0
 20 50  1  0
 22 51  1  0
 25 52  1  0
 26 53  1  0
M  CHG  1   3  -1
M  END
>  <meeko>  (8) 
{"free_energy": -7.08, "intermolecular_energy": -9.17, "internal_energy": -2.6, "cluster_size": 1, "cluster_id": 3, "rank_in_cluster": 1}

$$$$

     RDKit          3D

 53 56  0  0  0  0  0  0  0  0999 V2000
  138.7270   74.2270  220.8230 O   0  0  0  0  0  0  0  0  0  0  0  0
  139.5510   74.5740  221.7100 C   0  0  0  0  0  0  0  0  0  0  0  0
  140.3390   73.5600  222.3520 N   0  0  0  0  0  0  0  0  0  0  0  0
  139.9620   72.1870  222.5310 C   0  0  0  0  0  0  0  0  0  0  0  0
  138.7350   71.8200  222.9260 C   0  0  0  0  0  0  0  0  0  0  0  0
  137.6510   72.6740  222.7310 O   0  0  0  0  0  0  0  0  0  0  0  0
  138.5160   70.5390  223.5430 N   0  0  0  0  0  0  0  0  0  0  0  0
  137.2600   69.8330  223.2550 C   0  0  0  0  0  0  0  0  0  0  0  0
  137.5380   68.4270  222.6980 C   0  0  0  0  0  0  0  0  0  0  0  0
  138.8180   67.7820  223.2680 C   0  0  0  0  0  0  0  0  0  0  0  0
  139.2330   68.4050  224.6040 C   0  0  0  0  0  0  0  0  0  0  0  0
  139.5310   69.9110  224.4220 C   0  0  2  0  0  0  0  0  0  0  0  0
  139.6520   70.6100  225.8100 C   0  0  0  0  0  0  0  0  0  0  0  0
  140.8320   71.5700  225.9530 C   0  0  0  0  0  0  0  0  0  0  0  0
  141.0650   71.6700  227.4480 C   0  0  0  0  0  0  0  0  0  0  0  0
  140.6880   70.3080  228.0160 C   0  0  0  0  0  0  0  0  0  0  0  0
  139.7540   69.6470  227.0000 C   0  0  0  0  0  0  0  0  0  0  0  0
  139.6470   75.9970  222.1050 C   0  0  0  0  0  0  0  0  0  0  0  0
  138.5530   76.6630  222.6800 C   0  0  0  0  0  0  0  0  0  0  0  0
  138.6670   78.0110  223.0310 C   0  0  0  0  0  0  0  0  0  0  0  0
  139.8730   78.6870  222.8140 C   0  0  0  0  0  0  0  0  0  0  0  0
  140.0240   80.0420  223.1520 C   0  0  0  0  0  0  0  0  0  0  0  0
  141.2440   80.6870  222.9230 C   0  0  0  0  0  0  0  0  0  0  0  0
  141.3890   81.9950  223.2500 F   0  0  0  0  0  0  0  0  0  0  0  0
  142.3160   79.9850  222.3600 C   0  0  0  0  0  0  0  0  0  0  0  0
  142.1750   78.6350  222.0240 C   0  0  0  0  0  0  0  0  0  0  0  0
  140.9570   77.9830  222.2450 C   0  0  0  0  0  0  0  0  0  0  0  0
  140.8140   76.6740  221.9130 N   0  0  0  0  0  0  0  0  0  0  0  0
  140.7101   71.4044  222.3362 H   0  0  0  0  0  0  0  0  0  0  0  0
  137.7720   73.6790  222.7020 H   0  0  0  0  0  0  0  0  0  0  0  0
  136.6756   69.7441  224.1827 H   0  0  0  0  0  0  0  0  0  0  0  0
  136.6989   70.4056  222.5018 H   0  0  0  0  0  0  0  0  0  0  0  0
  136.6830   67.7799  222.9433 H   0  0  0  0  0  0  0  0  0  0  0  0
  137.6838   68.5317  221.6127 H   0  0  0  0  0  0  0  0  0  0  0  0
  138.6364   66.7077  223.4191 H   0  0  0  0  0  0  0  0  0  0  0  0
  139.6320   67.9526  222.5481 H   0  0  0  0  0  0  0  0  0  0  0  0
  138.4171   68.2815  225.3314 H   0  0  0  0  0  0  0  0  0  0  0  0
  140.1406   67.9013  224.9680 H   0  0  0  0  0  0  0  0  0  0  0  0
  140.5011   70.0348  223.9185 H   0  0  0  0  0  0  0  0  0  0  0  0
  138.7042   71.1676  225.8364 H   0  0  0  0  0  0  0  0  0  0  0  0
  141.7226   71.1687  225.4472 H   0  0  0  0  0  0  0  0  0  0  0  0
  140.6302   72.5500  225.4959 H   0  0  0  0  0  0  0  0  0  0  0  0
  142.1215   71.8938  227.6574 H   0  0  0  0  0  0  0  0  0  0  0  0
  140.4687   72.4770  227.8987 H   0  0  0  0  0  0  0  0  0  0  0  0
  141.5897   69.6938  228.1567 H   0  0  0  0  0  0  0  0  0  0  0  0
  140.1962   70.4114  228.9945 H   0  0  0  0  0  0  0  0  0  0  0  0
  140.1696   68.6823  226.6735 H   0  0  0  0  0  0  0  0  0  0  0  0
  138.7645   69.4509  227.4386 H   0  0  0  0  0  0  0  0  0  0  0  0
  137.6091   76.1256  222.8537 H   0  0  0  0  0  0  0  0  0  0  0  0
  137.8112   78.5392  223.4766 H   0  0  0  0  0  0  0  0  0  0  0  0
  139.1836   80.5954  223.5964 H   0  0  0  0  0  0  0  0  0  0  0  0
  143.2729   80.4972  222.1812 H   0  0  0  0  0  0  0  0  0  0  0  0
  143.0215   78.0858  221.5860 H   0  0  0  0  0  0  0  0  0  0  0  0
  1  2  2  0
  2  3  1  0
  3  4  1  0
  4  5  2  0
  5  6  1  0
  5  7  1  0
  7  8  1  0
  8  9  1  0
  9 10  1  0
 10 11  1  0
 11 12  1  0
 12 13  1  0
 13 14  1  0
 14 15  1  0
 15 16  1  0
 16 17  1  0
  2 18  1  0
 18 19  2  0
 19 20  1  0
 20 21  2  0
 21 22  1  0
 22 23  2  0
 23 24  1  0
 23 25  1  0
 25 26  2  0
 26 27  1  0
 27 28  2  0
 12  7  1  0
 17 13  1  0
 28 18  1  0
 27 21  1  0
  4 29  1  0
  6 30  1  0
  8 31  1  0
  8 32  1  0
  9 33  1  0
  9 34  1  0
 10 35  1  0
 10 36  1  0
 11 37  1  0
 11 38  1  0
 12 39  1  6
 13 40  1  0
 14 41  1  0
 14 42  1  0
 15 43  1  0
 15 44  1  0
 16 45  1  0
 16 46  1  0
 17 47  1  0
 17 48  1  0
 19 49  1  0
 20 50  1  0
 22 51  1  0
 25 52  1  0
 26 53  1  0
M  CHG  1   3  -1
M  END
>  <meeko>  (9) 
{"free_energy": -7.6, "intermolecular_energy": -9.69, "internal_energy": -2.05, "cluster_size": 3, "cluster_id": 2, "rank_in_cluster": 3}

$$$$

     RDKit          3D

 53 56  0  0  0  0  0  0  0  0999 V2000
  138.5370   72.7910  222.3390 O   0  0  0  0  0  0  0  0  0  0  0  0
  139.6130   72.1680  222.5450 C   0  0  0  0  0  0  0  0  0  0  0  0
  140.7110   72.3750  221.6450 N   0  0  0  0  0  0  0  0  0  0  0  0
  141.4580   73.5900  221.4910 C   0  0  0  0  0  0  0  0  0  0  0  0
  140.8940   74.8030  221.5930 C   0  0  0  0  0  0  0  0  0  0  0  0
  139.7780   74.9910  222.4060 O   0  0  0  0  0  0  0  0  0  0  0  0
  141.4400   75.9270  220.8810 N   0  0  0  0  0  0  0  0  0  0  0  0
  142.6170   75.7080  220.0290 C   0  0  0  0  0  0  0  0  0  0  0  0
  142.3430   76.1700  218.5890 C   0  0  0  0  0  0  0  0  0  0  0  0
  141.3880   77.3790  218.5020 C   0  0  0  0  0  0  0  0  0  0  0  0
  141.3400   78.1720  219.8120 C   0  0  0  0  0  0  0  0  0  0  0  0
  140.8280   77.2750  220.9620 C   0  0  2  0  0  0  0  0  0  0  0  0
  141.0650   77.9710  222.3360 C   0  0  0  0  0  0  0  0  0  0  0  0
  139.8380   78.6540  222.9390 C   0  0  0  0  0  0  0  0  0  0  0  0
  140.4050   79.6770  223.9040 C   0  0  0  0  0  0  0  0  0  0  0  0
  141.7220   80.1360  223.2920 C   0  0  0  0  0  0  0  0  0  0  0  0
  142.1690   79.0360  222.3280 C   0  0  0  0  0  0  0  0  0  0  0  0
  139.6980   71.2070  223.6680 C   0  0  0  0  0  0  0  0  0  0  0  0
  139.1880   69.9050  223.5440 C   0  0  0  0  0  0  0  0  0  0  0  0
  139.2700   69.0220  224.6250 C   0  0  0  0  0  0  0  0  0  0  0  0
  139.8680   69.4390  225.8200 C   0  0  0  0  0  0  0  0  0  0  0  0
  139.9670   68.5800  226.9270 C   0  0  0  0  0  0  0  0  0  0  0  0
  140.5720   69.0280  228.1060 C   0  0  0  0  0  0  0  0  0  0  0  0
  140.6680   68.1980  229.1750 F   0  0  0  0  0  0  0  0  0  0  0  0
  141.0820   70.3290  228.1850 C   0  0  0  0  0  0  0  0  0  0  0  0
  140.9900   71.1880  227.0860 C   0  0  0  0  0  0  0  0  0  0  0  0
  140.3830   70.7510  225.9040 C   0  0  0  0  0  0  0  0  0  0  0  0
  140.2850   71.5860  224.8370 N   0  0  0  0  0  0  0  0  0  0  0  0
  142.5358   73.5245  221.2810 H   0  0  0  0  0  0  0  0  0  0  0  0
  139.2420   74.2050  222.7520 H   0  0  0  0  0  0  0  0  0  0  0  0
  143.4665   76.2770  220.4346 H   0  0  0  0  0  0  0  0  0  0  0  0
  142.8472   74.6324  220.0161 H   0  0  0  0  0  0  0  0  0  0  0  0
  143.3004   76.4484  218.1245 H   0  0  0  0  0  0  0  0  0  0  0  0
  141.8544   75.3334  218.0681 H   0  0  0  0  0  0  0  0  0  0  0  0
  141.7316   78.0450  217.6968 H   0  0  0  0  0  0  0  0  0  0  0  0
  140.3763   76.9972  218.3003 H   0  0  0  0  0  0  0  0  0  0  0  0
  142.3502   78.5329  220.0552 H   0  0  0  0  0  0  0  0  0  0  0  0
  140.6553   79.0242  219.6902 H   0  0  0  0  0  0  0  0  0  0  0  0
  139.7420   77.1323  220.8613 H   0  0  0  0  0  0  0  0  0  0  0  0
  141.3580   77.1060  222.9492 H   0  0  0  0  0  0  0  0  0  0  0  0
  139.2437   79.1469  222.1555 H   0  0  0  0  0  0  0  0  0  0  0  0
  139.1652   77.9397  223.4362 H   0  0  0  0  0  0  0  0  0  0  0  0
  139.7150   80.5270  224.0109 H   0  0  0  0  0  0  0  0  0  0  0  0
  140.5506   79.2510  224.9077 H   0  0  0  0  0  0  0  0  0  0  0  0
  141.5775   81.0808  222.7476 H   0  0  0  0  0  0  0  0  0  0  0  0
  142.4794   80.3100  224.0706 H   0  0  0  0  0  0  0  0  0  0  0  0
  142.2931   79.4465  221.3150 H   0  0  0  0  0  0  0  0  0  0  0  0
  143.1350   78.6083  222.6346 H   0  0  0  0  0  0  0  0  0  0  0  0
  138.7257   69.5807  222.6000 H   0  0  0  0  0  0  0  0  0  0  0  0
  138.8658   68.0028  224.5367 H   0  0  0  0  0  0  0  0  0  0  0  0
  139.5692   67.5562  226.8668 H   0  0  0  0  0  0  0  0  0  0  0  0
  141.5566   70.6765  229.1145 H   0  0  0  0  0  0  0  0  0  0  0  0
  141.3953   72.2085  227.1508 H   0  0  0  0  0  0  0  0  0  0  0  0
  1  2  2  0
  2  3  1  0
  3  4  1  0
  4  5  2  0
  5  6  1  0
  5  7  1  0
  7  8  1  0
  8  9  1  0
  9 10  1  0
 10 11  1  0
 11 12  1  0
 12 13  1  0
 13 14  1  0
 14 15  1  0
 15 16  1  0
 16 17  1  0
  2 18  1  0
 18 19  2  0
 19 20  1  0
 20 21  2  0
 21 22  1  0
 22 23  2  0
 23 24  1  0
 23 25  1  0
 25 26  2  0
 26 27  1  0
 27 28  2  0
 12  7  1  0
 17 13  1  0
 28 18  1  0
 27 21  1  0
  4 29  1  0
  6 30  1  0
  8 31  1  0
  8 32  1  0
  9 33  1  0
  9 34  1  0
 10 35  1  0
 10 36  1  0
 11 37  1  0
 11 38  1  0
 12 39  1  6
 13 40  1  0
 14 41  1  0
 14 42  1  0
 15 43  1  0
 15 44  1  0
 16 45  1  0
 16 46  1  0
 17 47  1  0
 17 48  1  0
 19 49  1  0
 20 50  1  0
 22 51  1  0
 25 52  1  0
 26 53  1  0
M  CHG  1   3  -1
M  END
>  <meeko>  (10) 
{"free_energy": -8.04, "intermolecular_energy": -10.13, "internal_energy": -2.01, "cluster_size": 16, "cluster_id": 1, "rank_in_cluster": 10}

$$$$

     RDKit          3D

 53 56  0  0  0  0  0  0  0  0999 V2000
  141.4250   72.7330  221.9800 O   0  0  0  0  0  0  0  0  0  0  0  0
  140.3430   72.6380  222.6200 C   0  0  0  0  0  0  0  0  0  0  0  0
  139.2840   73.5590  222.3220 N   0  0  0  0  0  0  0  0  0  0  0  0
  139.3670   74.6800  221.4290 C   0  0  0  0  0  0  0  0  0  0  0  0
  140.0550   75.7910  221.7270 C   0  0  0  0  0  0  0  0  0  0  0  0
  141.4160   75.7180  222.0160 O   0  0  0  0  0  0  0  0  0  0  0  0
  139.4040   77.0740  221.7380 N   0  0  0  0  0  0  0  0  0  0  0  0
  138.3800   77.3450  220.7200 C   0  0  0  0  0  0  0  0  0  0  0  0
  137.0520   77.7550  221.3770 C   0  0  0  0  0  0  0  0  0  0  0  0
  137.2320   78.5350  222.6950 C   0  0  0  0  0  0  0  0  0  0  0  0
  138.6160   79.1840  222.7970 C   0  0  0  0  0  0  0  0  0  0  0  0
  139.7180   78.1010  222.7610 C   0  0  2  0  0  0  0  0  0  0  0  0
  141.1160   78.7590  222.5560 C   0  0  0  0  0  0  0  0  0  0  0  0
  141.8510   79.1370  223.8420 C   0  0  0  0  0  0  0  0  0  0  0  0
  142.8400   80.2050  223.4180 C   0  0  0  0  0  0  0  0  0  0  0  0
  142.1670   80.9610  222.2800 C   0  0  0  0  0  0  0  0  0  0  0  0
  141.1010   80.0310  221.6990 C   0  0  0  0  0  0  0  0  0  0  0  0
  140.2130   71.6240  223.6910 C   0  0  0  0  0  0  0  0  0  0  0  0
  139.6170   70.3780  223.4360 C   0  0  0  0  0  0  0  0  0  0  0  0
  139.4950   69.4440  224.4690 C   0  0  0  0  0  0  0  0  0  0  0  0
  139.9740   69.7530  225.7480 C   0  0  0  0  0  0  0  0  0  0  0  0
  139.8660   68.8410  226.8100 C   0  0  0  0  0  0  0  0  0  0  0  0
  140.3570   69.1810  228.0750 C   0  0  0  0  0  0  0  0  0  0  0  0
  140.2540   68.2990  229.1000 F   0  0  0  0  0  0  0  0  0  0  0  0
  140.9570   70.4280  228.2850 C   0  0  0  0  0  0  0  0  0  0  0  0
  141.0700   71.3400  227.2320 C   0  0  0  0  0  0  0  0  0  0  0  0
  140.5790   71.0110  225.9640 C   0  0  0  0  0  0  0  0  0  0  0  0
  140.6810   71.8980  224.9400 N   0  0  0  0  0  0  0  0  0  0  0  0
  138.8454   74.6250  220.4621 H   0  0  0  0  0  0  0  0  0  0  0  0
  141.9160   74.8380  221.9720 H   0  0  0  0  0  0  0  0  0  0  0  0
  138.7266   78.1603  220.0680 H   0  0  0  0  0  0  0  0  0  0  0  0
  138.2151   76.4293  220.1333 H   0  0  0  0  0  0  0  0  0  0  0  0
  136.4954   78.3886  220.6708 H   0  0  0  0  0  0  0  0  0  0  0  0
  136.5124   76.8280  221.6211 H   0  0  0  0  0  0  0  0  0  0  0  0
  136.4662   79.3228  222.7482 H   0  0  0  0  0  0  0  0  0  0  0  0
  137.1303   77.8223  223.5267 H   0  0  0  0  0  0  0  0  0  0  0  0
  138.7569   79.8738  221.9518 H   0  0  0  0  0  0  0  0  0  0  0  0
  138.6849   79.7344  223.7469 H   0  0  0  0  0  0  0  0  0  0  0  0
  139.7517   77.5790  223.7287 H   0  0  0  0  0  0  0  0  0  0  0  0
  141.6461   77.9445  222.0407 H   0  0  0  0  0  0  0  0  0  0  0  0
  141.1476   79.5337  224.5889 H   0  0  0  0  0  0  0  0  0  0  0  0
  142.3456   78.2726  224.3091 H   0  0  0  0  0  0  0  0  0  0  0  0
  143.0537   80.8844  224.2563 H   0  0  0  0  0  0  0  0  0  0  0  0
  143.7995   79.7683  223.1040 H   0  0  0  0  0  0  0  0  0  0  0  0
  141.6996   81.8809  222.6611 H   0  0  0  0  0  0  0  0  0  0  0  0
  142.8992   81.2498  221.5115 H   0  0  0  0  0  0  0  0  0  0  0  0
  140.1119   80.5100  221.7477 H   0  0  0  0  0  0  0  0  0  0  0  0
  141.3076   79.8009  220.6434 H   0  0  0  0  0  0  0  0  0  0  0  0
  139.2479   70.1381  222.4279 H   0  0  0  0  0  0  0  0  0  0  0  0
  139.0238   68.4686  224.2775 H   0  0  0  0  0  0  0  0  0  0  0  0
  139.3957   67.8600  226.6475 H   0  0  0  0  0  0  0  0  0  0  0  0
  141.3407   70.6910  229.2818 H   0  0  0  0  0  0  0  0  0  0  0  0
  141.5455   72.3175  227.4004 H   0  0  0  0  0  0  0  0  0  0  0  0
  1  2  2  0
  2  3  1  0
  3  4  1  0
  4  5  2  0
  5  6  1  0
  5  7  1  0
  7  8  1  0
  8  9  1  0
  9 10  1  0
 10 11  1  0
 11 12  1  0
 12 13  1  0
 13 14  1  0
 14 15  1  0
 15 16  1  0
 16 17  1  0
  2 18  1  0
 18 19  2  0
 19 20  1  0
 20 21  2  0
 21 22  1  0
 22 23  2  0
 23 24  1  0
 23 25  1  0
 25 26  2  0
 26 27  1  0
 27 28  2  0
 12  7  1  0
 17 13  1  0
 28 18  1  0
 27 21  1  0
  4 29  1  0
  6 30  1  0
  8 31  1  0
  8 32  1  0
  9 33  1  0
  9 34  1  0
 10 35  1  0
 10 36  1  0
 11 37  1  0
 11 38  1  0
 12 39  1  1
 13 40  1  0
 14 41  1  0
 14 42  1  0
 15 43  1  0
 15 44  1  0
 16 45  1  0
 16 46  1  0
 17 47  1  0
 17 48  1  0
 19 49  1  0
 20 50  1  0
 22 51  1  0
 25 52  1  0
 26 53  1  0
M  CHG  1   3  -1
M  END
>  <meeko>  (11) 
{"free_energy": -7.67, "intermolecular_energy": -9.76, "internal_energy": -1.92, "cluster_size": 16, "cluster_id": 1, "rank_in_cluster": 12}

$$$$

     RDKit          3D

 53 56  0  0  0  0  0  0  0  0999 V2000
  138.6820   72.6900  222.3170 O   0  0  0  0  0  0  0  0  0  0  0  0
  139.7850   72.2640  222.7540 C   0  0  0  0  0  0  0  0  0  0  0  0
  140.9950   72.7330  222.1400 N   0  0  0  0  0  0  0  0  0  0  0  0
  141.0980   73.8020  221.1880 C   0  0  0  0  0  0  0  0  0  0  0  0
  140.7220   75.0580  221.4690 C   0  0  0  0  0  0  0  0  0  0  0  0
  139.6960   75.2960  222.3820 O   0  0  0  0  0  0  0  0  0  0  0  0
  141.3790   76.1760  220.8470 N   0  0  0  0  0  0  0  0  0  0  0  0
  142.6200   75.9280  220.1000 C   0  0  0  0  0  0  0  0  0  0  0  0
  142.5000   76.4440  218.6560 C   0  0  0  0  0  0  0  0  0  0  0  0
  141.6100   77.6960  218.5230 C   0  0  0  0  0  0  0  0  0  0  0  0
  141.4750   78.4530  219.8470 C   0  0  0  0  0  0  0  0  0  0  0  0
  140.8210   77.5480  220.9160 C   0  0  2  0  0  0  0  0  0  0  0  0
  140.9590   78.1930  222.3280 C   0  0  0  0  0  0  0  0  0  0  0  0
  139.7850   79.0720  222.7590 C   0  0  0  0  0  0  0  0  0  0  0  0
  140.3610   79.9840  223.8250 C   0  0  0  0  0  0  0  0  0  0  0  0
  141.8130   80.2160  223.4280 C   0  0  0  0  0  0  0  0  0  0  0  0
  142.2130   79.0570  222.5130 C   0  0  0  0  0  0  0  0  0  0  0  0
  139.8040   71.2600  223.8410 C   0  0  0  0  0  0  0  0  0  0  0  0
  139.2460   69.9850  223.6550 C   0  0  0  0  0  0  0  0  0  0  0  0
  139.2660   69.0600  224.7030 C   0  0  0  0  0  0  0  0  0  0  0  0
  139.8480   69.4080  225.9280 C   0  0  0  0  0  0  0  0  0  0  0  0
  139.8850   68.5060  227.0030 C   0  0  0  0  0  0  0  0  0  0  0  0
  140.4770   68.8850  228.2130 C   0  0  0  0  0  0  0  0  0  0  0  0
  140.5120   68.0130  229.2510 F   0  0  0  0  0  0  0  0  0  0  0  0
  141.0350   70.1600  228.3540 C   0  0  0  0  0  0  0  0  0  0  0  0
  141.0050   71.0630  227.2860 C   0  0  0  0  0  0  0  0  0  0  0  0
  140.4120   70.6940  226.0740 C   0  0  0  0  0  0  0  0  0  0  0  0
  140.3740   71.5720  225.0370 N   0  0  0  0  0  0  0  0  0  0  0  0
  141.5013   73.5823  220.1885 H   0  0  0  0  0  0  0  0  0  0  0  0
  139.2020   74.5320  222.8270 H   0  0  0  0  0  0  0  0  0  0  0  0
  143.4517   76.4458  220.6002 H   0  0  0  0  0  0  0  0  0  0  0  0
  142.8050   74.8440  220.0731 H   0  0  0  0  0  0  0  0  0  0  0  0
  143.5072   76.6922  218.2900 H   0  0  0  0  0  0  0  0  0  0  0  0
  142.0267   75.6459  218.0652 H   0  0  0  0  0  0  0  0  0  0  0  0
  142.0541   78.3684  217.7742 H   0  0  0  0  0  0  0  0  0  0  0  0
  140.6058   77.3657  218.2190 H   0  0  0  0  0  0  0  0  0  0  0  0
  142.4729   78.7608  220.1928 H   0  0  0  0  0  0  0  0  0  0  0  0
  140.8416   79.3387  219.6907 H   0  0  0  0  0  0  0  0  0  0  0  0
  139.7438   77.4582  220.7123 H   0  0  0  0  0  0  0  0  0  0  0  0
  141.0077   77.2906  222.9552 H   0  0  0  0  0  0  0  0  0  0  0  0
  139.4067   79.6588  221.9090 H   0  0  0  0  0  0  0  0  0  0  0  0
  138.9354   78.4804  223.1308 H   0  0  0  0  0  0  0  0  0  0  0  0
  139.8133   80.9376  223.8507 H   0  0  0  0  0  0  0  0  0  0  0  0
  140.2803   79.5384  224.8275 H   0  0  0  0  0  0  0  0  0  0  0  0
  141.9109   81.1720  222.8927 H   0  0  0  0  0  0  0  0  0  0  0  0
  142.4620   80.2600  224.3151 H   0  0  0  0  0  0  0  0  0  0  0  0
  142.5560   79.4414  221.5411 H   0  0  0  0  0  0  0  0  0  0  0  0
  143.0368   78.4729  222.9491 H   0  0  0  0  0  0  0  0  0  0  0  0
  138.7950   69.7151  222.6887 H   0  0  0  0  0  0  0  0  0  0  0  0
  138.8257   68.0614  224.5656 H   0  0  0  0  0  0  0  0  0  0  0  0
  139.4489   67.5020  226.8943 H   0  0  0  0  0  0  0  0  0  0  0  0
  141.4987   70.4534  229.3074 H   0  0  0  0  0  0  0  0  0  0  0  0
  141.4479   72.0635  227.3993 H   0  0  0  0  0  0  0  0  0  0  0  0
  1  2  2  0
  2  3  1  0
  3  4  1  0
  4  5  2  0
  5  6  1  0
  5  7  1  0
  7  8  1  0
  8  9  1  0
  9 10  1  0
 10 11  1  0
 11 12  1  0
 12 13  1  0
 13 14  1  0
 14 15  1  0
 15 16  1  0
 16 17  1  0
  2 18  1  0
 18 19  2  0
 19 20  1  0
 20 21  2  0
 21 22  1  0
 22 23  2  0
 23 24  1  0
 23 25  1  0
 25 26  2  0
 26 27  1  0
 27 28  2  0
 12  7  1  0
 17 13  1  0
 28 18  1  0
 27 21  1  0
  4 29  1  0
  6 30  1  0
  8 31  1  0
  8 32  1  0
  9 33  1  0
  9 34  1  0
 10 35  1  0
 10 36  1  0
 11 37  1  0
 11 38  1  0
 12 39  1  6
 13 40  1  0
 14 41  1  0
 14 42  1  0
 15 43  1  0
 15 44  1  0
 16 45  1  0
 16 46  1  0
 17 47  1  0
 17 48  1  0
 19 49  1  0
 20 50  1  0
 22 51  1  0
 25 52  1  0
 26 53  1  0
M  CHG  1   3  -1
M  END
>  <meeko>  (12) 
{"free_energy": -8.38, "intermolecular_energy": -10.47, "internal_energy": -2.06, "cluster_size": 16, "cluster_id": 1, "rank_in_cluster": 5}

$$$$

     RDKit          3D

 53 56  0  0  0  0  0  0  0  0999 V2000
  138.6260   73.2920  221.3580 O   0  0  0  0  0  0  0  0  0  0  0  0
  139.6610   73.0660  222.0390 C   0  0  0  0  0  0  0  0  0  0  0  0
  140.8590   73.7940  221.7310 N   0  0  0  0  0  0  0  0  0  0  0  0
  141.0770   75.1940  221.9540 C   0  0  0  0  0  0  0  0  0  0  0  0
  140.0800   76.0430  222.2440 C   0  0  0  0  0  0  0  0  0  0  0  0
  138.8500   75.5560  222.6810 O   0  0  0  0  0  0  0  0  0  0  0  0
  140.2690   77.4640  222.1250 N   0  0  0  0  0  0  0  0  0  0  0  0
  139.1740   78.3500  222.5420 C   0  0  0  0  0  0  0  0  0  0  0  0
  139.6590   79.3570  223.5980 C   0  0  0  0  0  0  0  0  0  0  0  0
  141.1310   79.7780  223.4170 C   0  0  0  0  0  0  0  0  0  0  0  0
  141.6270   79.5450  221.9860 C   0  0  0  0  0  0  0  0  0  0  0  0
  141.5400   78.0440  221.6280 C   0  0  2  0  0  0  0  0  0  0  0  0
  141.7460   77.8410  220.0960 C   0  0  0  0  0  0  0  0  0  0  0  0
  140.4910   77.4480  219.3190 C   0  0  0  0  0  0  0  0  0  0  0  0
  141.0130   76.7870  218.0580 C   0  0  0  0  0  0  0  0  0  0  0  0
  142.3110   76.1000  218.4600 C   0  0  0  0  0  0  0  0  0  0  0  0
  142.8060   76.7940  219.7300 C   0  0  0  0  0  0  0  0  0  0  0  0
  139.6320   72.0290  223.0950 C   0  0  0  0  0  0  0  0  0  0  0  0
  138.9100   70.8380  222.9160 C   0  0  0  0  0  0  0  0  0  0  0  0
  138.8890   69.8810  223.9350 C   0  0  0  0  0  0  0  0  0  0  0  0
  139.5930   70.1110  225.1220 C   0  0  0  0  0  0  0  0  0  0  0  0
  139.5930   69.1740  226.1670 C   0  0  0  0  0  0  0  0  0  0  0  0
  140.3100   69.4350  227.3400 C   0  0  0  0  0  0  0  0  0  0  0  0
  140.3100   68.5290  228.3490 F   0  0  0  0  0  0  0  0  0  0  0  0
  141.0280   70.6280  227.4740 C   0  0  0  0  0  0  0  0  0  0  0  0
  141.0360   71.5650  226.4370 C   0  0  0  0  0  0  0  0  0  0  0  0
  140.3190   71.3150  225.2620 C   0  0  0  0  0  0  0  0  0  0  0  0
  140.3180   72.2270  224.2550 N   0  0  0  0  0  0  0  0  0  0  0  0
  142.1021   75.5868  221.8844 H   0  0  0  0  0  0  0  0  0  0  0  0
  138.7600   74.6230  223.0640 H   0  0  0  0  0  0  0  0  0  0  0  0
  138.8002   78.8989  221.6651 H   0  0  0  0  0  0  0  0  0  0  0  0
  138.3723   77.7377  222.9805 H   0  0  0  0  0  0  0  0  0  0  0  0
  139.0295   80.2569  223.5358 H   0  0  0  0  0  0  0  0  0  0  0  0
  139.5827   78.8609  224.5768 H   0  0  0  0  0  0  0  0  0  0  0  0
  141.2255   80.8478  223.6551 H   0  0  0  0  0  0  0  0  0  0  0  0
  141.7441   79.1625  224.0917 H   0  0  0  0  0  0  0  0  0  0  0  0
  141.0036   80.1219  221.2870 H   0  0  0  0  0  0  0  0  0  0  0  0
  142.6749   79.8712  221.9120 H   0  0  0  0  0  0  0  0  0  0  0  0
  142.3511   77.4984  222.1324 H   0  0  0  0  0  0  0  0  0  0  0  0
  142.0734   78.8494  219.8028 H   0  0  0  0  0  0  0  0  0  0  0  0
  139.8783   76.7441  219.9013 H   0  0  0  0  0  0  0  0  0  0  0  0
  139.8475   78.3131  219.1008 H   0  0  0  0  0  0  0  0  0  0  0  0
  140.2884   76.0489  217.6837 H   0  0  0  0  0  0  0  0  0  0  0  0
  141.1735   77.5188  217.2526 H   0  0  0  0  0  0  0  0  0  0  0  0
  142.1289   75.0334  218.6582 H   0  0  0  0  0  0  0  0  0  0  0  0
  143.0587   76.1696  217.6562 H   0  0  0  0  0  0  0  0  0  0  0  0
  142.9151   76.0629  220.5446 H   0  0  0  0  0  0  0  0  0  0  0  0
  143.7886   77.2619  219.5702 H   0  0  0  0  0  0  0  0  0  0  0  0
  138.3635   70.6588  221.9784 H   0  0  0  0  0  0  0  0  0  0  0  0
  138.3200   68.9488  223.8037 H   0  0  0  0  0  0  0  0  0  0  0  0
  139.0296   68.2349  226.0640 H   0  0  0  0  0  0  0  0  0  0  0  0
  141.5884   70.8294  228.3989 H   0  0  0  0  0  0  0  0  0  0  0  0
  141.6063   72.4994  226.5448 H   0  0  0  0  0  0  0  0  0  0  0  0
  1  2  2  0
  2  3  1  0
  3  4  1  0
  4  5  2  0
  5  6  1  0
  5  7  1  0
  7  8  1  0
  8  9  1  0
  9 10  1  0
 10 11  1  0
 11 12  1  0
 12 13  1  0
 13 14  1  0
 14 15  1  0
 15 16  1  0
 16 17  1  0
  2 18  1  0
 18 19  2  0
 19 20  1  0
 20 21  2  0
 21 22  1  0
 22 23  2  0
 23 24  1  0
 23 25  1  0
 25 26  2  0
 26 27  1  0
 27 28  2  0
 12  7  1  0
 17 13  1  0
 28 18  1  0
 27 21  1  0
  4 29  1  0
  6 30  1  0
  8 31  1  0
  8 32  1  0
  9 33  1  0
  9 34  1  0
 10 35  1  0
 10 36  1  0
 11 37  1  0
 11 38  1  0
 12 39  1  1
 13 40  1  0
 14 41  1  0
 14 42  1  0
 15 43  1  0
 15 44  1  0
 16 45  1  0
 16 46  1  0
 17 47  1  0
 17 48  1  0
 19 49  1  0
 20 50  1  0
 22 51  1  0
 25 52  1  0
 26 53  1  0
M  CHG  1   3  -1
M  END
>  <meeko>  (13) 
{"free_energy": -7.06, "intermolecular_energy": -9.15, "internal_energy": -2.0, "cluster_size": 16, "cluster_id": 1, "rank_in_cluster": 16}

$$$$

     RDKit          3D

 53 56  0  0  0  0  0  0  0  0999 V2000
  138.0590   72.5830  222.5690 O   0  0  0  0  0  0  0  0  0  0  0  0
  139.1770   72.0040  222.6300 C   0  0  0  0  0  0  0  0  0  0  0  0
  140.1400   72.2580  221.5970 N   0  0  0  0  0  0  0  0  0  0  0  0
  141.0910   73.3330  221.5760 C   0  0  0  0  0  0  0  0  0  0  0  0
  140.7250   74.6220  221.6470 C   0  0  0  0  0  0  0  0  0  0  0  0
  139.5770   74.9880  222.3460 O   0  0  0  0  0  0  0  0  0  0  0  0
  141.5200   75.6440  221.0190 N   0  0  0  0  0  0  0  0  0  0  0  0
  142.8070   75.2590  220.4260 C   0  0  0  0  0  0  0  0  0  0  0  0
  142.8700   75.6680  218.9450 C   0  0  0  0  0  0  0  0  0  0  0  0
  142.0890   76.9600  218.6300 C   0  0  0  0  0  0  0  0  0  0  0  0
  141.8770   77.8250  219.8760 C   0  0  0  0  0  0  0  0  0  0  0  0
  141.0560   77.0490  220.9320 C   0  0  2  0  0  0  0  0  0  0  0  0
  141.0990   77.7930  222.3010 C   0  0  0  0  0  0  0  0  0  0  0  0
  139.7530   78.3200  222.7960 C   0  0  0  0  0  0  0  0  0  0  0  0
  140.1100   79.4230  223.7730 C   0  0  0  0  0  0  0  0  0  0  0  0
  141.3990   80.0390  223.2460 C   0  0  0  0  0  0  0  0  0  0  0  0
  142.0550   78.9910  222.3460 C   0  0  0  0  0  0  0  0  0  0  0  0
  139.4450   71.0440  223.7240 C   0  0  0  0  0  0  0  0  0  0  0  0
  139.1240   69.6840  223.5870 C   0  0  0  0  0  0  0  0  0  0  0  0
  139.3770   68.8020  224.6420 C   0  0  0  0  0  0  0  0  0  0  0  0
  139.9550   69.2780  225.8240 C   0  0  0  0  0  0  0  0  0  0  0  0
  140.2220   68.4220  226.9040 C   0  0  0  0  0  0  0  0  0  0  0  0
  140.8030   68.9300  228.0710 C   0  0  0  0  0  0  0  0  0  0  0  0
  141.0600   68.1020  229.1150 F   0  0  0  0  0  0  0  0  0  0  0  0
  141.1210   70.2900  228.1640 C   0  0  0  0  0  0  0  0  0  0  0  0
  140.8620   71.1480  227.0910 C   0  0  0  0  0  0  0  0  0  0  0  0
  140.2770   70.6500  225.9220 C   0  0  0  0  0  0  0  0  0  0  0  0
  140.0170   71.4820  224.8800 N   0  0  0  0  0  0  0  0  0  0  0  0
  142.1612   73.0907  221.4987 H   0  0  0  0  0  0  0  0  0  0  0  0
  138.9620   74.2910  222.7480 H   0  0  0  0  0  0  0  0  0  0  0  0
  143.6200   75.7588  220.9730 H   0  0  0  0  0  0  0  0  0  0  0  0
  142.9142   74.1664  220.4949 H   0  0  0  0  0  0  0  0  0  0  0  0
  143.9240   75.8227  218.6710 H   0  0  0  0  0  0  0  0  0  0  0  0
  142.4029   74.8581  218.3655 H   0  0  0  0  0  0  0  0  0  0  0  0
  142.6524   77.5423  217.8860 H   0  0  0  0  0  0  0  0  0  0  0  0
  141.0993   76.6718  218.2461 H   0  0  0  0  0  0  0  0  0  0  0  0
  142.8548   78.0942  220.3020 H   0  0  0  0  0  0  0  0  0  0  0  0
  141.3276   78.7347  219.5920 H   0  0  0  0  0  0  0  0  0  0  0  0
  140.0006   77.0112  220.6243 H   0  0  0  0  0  0  0  0  0  0  0  0
  141.4545   76.9837  222.9557 H   0  0  0  0  0  0  0  0  0  0  0  0
  139.1607   78.7190  221.9593 H   0  0  0  0  0  0  0  0  0  0  0  0
  139.1422   77.5323  223.2612 H   0  0  0  0  0  0  0  0  0  0  0  0
  139.3106   80.1778  223.8081 H   0  0  0  0  0  0  0  0  0  0  0  0
  140.2334   79.0357  224.7951 H   0  0  0  0  0  0  0  0  0  0  0  0
  141.1755   80.9478  222.6680 H   0  0  0  0  0  0  0  0  0  0  0  0
  142.0671   80.3228  224.0725 H   0  0  0  0  0  0  0  0  0  0  0  0
  142.2020   79.3976  221.3345 H   0  0  0  0  0  0  0  0  0  0  0  0
  143.0418   78.6971  222.7330 H   0  0  0  0  0  0  0  0  0  0  0  0
  138.6752   69.3139  222.6534 H   0  0  0  0  0  0  0  0  0  0  0  0
  139.1223   67.7365  224.5430 H   0  0  0  0  0  0  0  0  0  0  0  0
  139.9746   67.3525  226.8329 H   0  0  0  0  0  0  0  0  0  0  0  0
  141.5761   70.6849  229.0843 H   0  0  0  0  0  0  0  0  0  0  0  0
  141.1183   72.2151  227.1660 H   0  0  0  0  0  0  0  0  0  0  0  0
  1  2  2  0
  2  3  1  0
  3  4  1  0
  4  5  2  0
  5  6  1  0
  5  7  1  0
  7  8  1  0
  8  9  1  0
  9 10  1  0
 10 11  1  0
 11 12  1  0
 12 13  1  0
 13 14  1  0
 14 15  1  0
 15 16  1  0
 16 17  1  0
  2 18  1  0
 18 19  2  0
 19 20  1  0
 20 21  2  0
 21 22  1  0
 22 23  2  0
 23 24  1  0
 23 25  1  0
 25 26  2  0
 26 27  1  0
 27 28  2  0
 12  7  1  0
 17 13  1  0
 28 18  1  0
 27 21  1  0
  4 29  1  0
  6 30  1  0
  8 31  1  0
  8 32  1  0
  9 33  1  0
  9 34  1  0
 10 35  1  0
 10 36  1  0
 11 37  1  0
 11 38  1  0
 12 39  1  6
 13 40  1  0
 14 41  1  0
 14 42  1  0
 15 43  1  0
 15 44  1  0
 16 45  1  0
 16 46  1  0
 17 47  1  0
 17 48  1  0
 19 49  1  0
 20 50  1  0
 22 51  1  0
 25 52  1  0
 26 53  1  0
M  CHG  1   3  -1
M  END
>  <meeko>  (14) 
{"free_energy": -8.1, "intermolecular_energy": -10.19, "internal_energy": -2.12, "cluster_size": 16, "cluster_id": 1, "rank_in_cluster": 8}

$$$$

     RDKit          3D

 53 56  0  0  0  0  0  0  0  0999 V2000
  138.6890   72.7180  222.3510 O   0  0  0  0  0  0  0  0  0  0  0  0
  139.7900   72.2220  222.7100 C   0  0  0  0  0  0  0  0  0  0  0  0
  140.9780   72.5910  221.9940 N   0  0  0  0  0  0  0  0  0  0  0  0
  141.1050   73.6930  221.0830 C   0  0  0  0  0  0  0  0  0  0  0  0
  140.7850   74.9500  221.4210 C   0  0  0  0  0  0  0  0  0  0  0  0
  139.8000   75.1900  222.3760 O   0  0  0  0  0  0  0  0  0  0  0  0
  141.4610   76.0660  220.8150 N   0  0  0  0  0  0  0  0  0  0  0  0
  142.7090   75.8110  220.0820 C   0  0  0  0  0  0  0  0  0  0  0  0
  142.6140   76.3380  218.6410 C   0  0  0  0  0  0  0  0  0  0  0  0
  141.7370   77.6000  218.5050 C   0  0  0  0  0  0  0  0  0  0  0  0
  141.5920   78.3490  219.8330 C   0  0  0  0  0  0  0  0  0  0  0  0
  140.9150   77.4430  220.8870 C   0  0  2  0  0  0  0  0  0  0  0  0
  141.0410   78.0760  222.3050 C   0  0  0  0  0  0  0  0  0  0  0  0
  139.8130   78.8510  222.7820 C   0  0  0  0  0  0  0  0  0  0  0  0
  140.3430   79.7910  223.8470 C   0  0  0  0  0  0  0  0  0  0  0  0
  141.7600   80.1450  223.4150 C   0  0  0  0  0  0  0  0  0  0  0  0
  142.2260   79.0360  222.4700 C   0  0  0  0  0  0  0  0  0  0  0  0
  139.8230   71.2380  223.8160 C   0  0  0  0  0  0  0  0  0  0  0  0
  139.2690   69.9580  223.6600 C   0  0  0  0  0  0  0  0  0  0  0  0
  139.3020   69.0530  224.7250 C   0  0  0  0  0  0  0  0  0  0  0  0
  139.8950   69.4260  225.9370 C   0  0  0  0  0  0  0  0  0  0  0  0
  139.9460   68.5440  227.0280 C   0  0  0  0  0  0  0  0  0  0  0  0
  140.5480   68.9480  228.2250 C   0  0  0  0  0  0  0  0  0  0  0  0
  140.5970   68.0950  229.2790 F   0  0  0  0  0  0  0  0  0  0  0  0
  141.1030   70.2280  228.3360 C   0  0  0  0  0  0  0  0  0  0  0  0
  141.0590   71.1100  227.2520 C   0  0  0  0  0  0  0  0  0  0  0  0
  140.4550   70.7170  226.0530 C   0  0  0  0  0  0  0  0  0  0  0  0
  140.4050   71.5740  225.0010 N   0  0  0  0  0  0  0  0  0  0  0  0
  141.4797   73.4982  220.0673 H   0  0  0  0  0  0  0  0  0  0  0  0
  139.2900   74.4290  222.8080 H   0  0  0  0  0  0  0  0  0  0  0  0
  143.5392   76.3167  220.5968 H   0  0  0  0  0  0  0  0  0  0  0  0
  142.8828   74.7253  220.0493 H   0  0  0  0  0  0  0  0  0  0  0  0
  143.6284   76.5793  218.2907 H   0  0  0  0  0  0  0  0  0  0  0  0
  142.1417   75.5487  218.0378 H   0  0  0  0  0  0  0  0  0  0  0  0
  142.1971   78.2734  217.7668 H   0  0  0  0  0  0  0  0  0  0  0  0
  140.7338   77.2815  218.1854 H   0  0  0  0  0  0  0  0  0  0  0  0
  142.5882   78.6443  220.1940 H   0  0  0  0  0  0  0  0  0  0  0  0
  140.9694   79.2419  219.6748 H   0  0  0  0  0  0  0  0  0  0  0  0
  139.8396   77.3656  220.6689 H   0  0  0  0  0  0  0  0  0  0  0  0
  141.1802   77.1716  222.9155 H   0  0  0  0  0  0  0  0  0  0  0  0
  139.3650   79.4175  221.9523 H   0  0  0  0  0  0  0  0  0  0  0  0
  139.0247   78.1872  223.1667 H   0  0  0  0  0  0  0  0  0  0  0  0
  139.7214   80.6968  223.9031 H   0  0  0  0  0  0  0  0  0  0  0  0
  140.3263   79.3263  224.8439 H   0  0  0  0  0  0  0  0  0  0  0  0
  141.7658   81.1136  222.8936 H   0  0  0  0  0  0  0  0  0  0  0  0
  142.4280   80.2277  224.2850 H   0  0  0  0  0  0  0  0  0  0  0  0
  142.5088   79.4612  221.4957 H   0  0  0  0  0  0  0  0  0  0  0  0
  143.1066   78.5145  222.8732 H   0  0  0  0  0  0  0  0  0  0  0  0
  138.8104   69.6679  222.7032 H   0  0  0  0  0  0  0  0  0  0  0  0
  138.8633   68.0507  224.6110 H   0  0  0  0  0  0  0  0  0  0  0  0
  139.5132   67.5364  226.9421 H   0  0  0  0  0  0  0  0  0  0  0  0
  141.5752   70.5411  229.2789 H   0  0  0  0  0  0  0  0  0  0  0  0
  141.4997   72.1138  227.3421 H   0  0  0  0  0  0  0  0  0  0  0  0
  1  2  2  0
  2  3  1  0
  3  4  1  0
  4  5  2  0
  5  6  1  0
  5  7  1  0
  7  8  1  0
  8  9  1  0
  9 10  1  0
 10 11  1  0
 11 12  1  0
 12 13  1  0
 13 14  1  0
 14 15  1  0
 15 16  1  0
 16 17  1  0
  2 18  1  0
 18 19  2  0
 19 20  1  0
 20 21  2  0
 21 22  1  0
 22 23  2  0
 23 24  1  0
 23 25  1  0
 25 26  2  0
 26 27  1  0
 27 28  2  0
 12  7  1  0
 17 13  1  0
 28 18  1  0
 27 21  1  0
  4 29  1  0
  6 30  1  0
  8 31  1  0
  8 32  1  0
  9 33  1  0
  9 34  1  0
 10 35  1  0
 10 36  1  0
 11 37  1  0
 11 38  1  0
 12 39  1  6
 13 40  1  0
 14 41  1  0
 14 42  1  0
 15 43  1  0
 15 44  1  0
 16 45  1  0
 16 46  1  0
 17 47  1  0
 17 48  1  0
 19 49  1  0
 20 50  1  0
 22 51  1  0
 25 52  1  0
 26 53  1  0
M  CHG  1   3  -1
M  END
>  <meeko>  (15) 
{"free_energy": -8.36, "intermolecular_energy": -10.44, "internal_energy": -2.06, "cluster_size": 16, "cluster_id": 1, "rank_in_cluster": 6}

$$$$

     RDKit          3D

 53 56  0  0  0  0  0  0  0  0999 V2000
  138.5860   72.9520  221.9590 O   0  0  0  0  0  0  0  0  0  0  0  0
  139.6840   72.4470  222.3140 C   0  0  0  0  0  0  0  0  0  0  0  0
  140.8610   72.7570  221.5540 N   0  0  0  0  0  0  0  0  0  0  0  0
  141.4230   74.0640  221.3650 C   0  0  0  0  0  0  0  0  0  0  0  0
  140.7290   75.1880  221.5910 C   0  0  0  0  0  0  0  0  0  0  0  0
  139.6960   75.1990  222.5270 O   0  0  0  0  0  0  0  0  0  0  0  0
  141.0470   76.4010  220.8850 N   0  0  0  0  0  0  0  0  0  0  0  0
  142.2750   76.4350  220.0790 C   0  0  0  0  0  0  0  0  0  0  0  0
  141.9630   76.8220  218.6240 C   0  0  0  0  0  0  0  0  0  0  0  0
  140.7750   77.7970  218.4890 C   0  0  0  0  0  0  0  0  0  0  0  0
  140.5090   78.5670  219.7850 C   0  0  0  0  0  0  0  0  0  0  0  0
  140.1580   77.5860  220.9270 C   0  0  2  0  0  0  0  0  0  0  0  0
  140.1880   78.3230  222.3010 C   0  0  0  0  0  0  0  0  0  0  0  0
  139.8240   79.8060  222.2500 C   0  0  0  0  0  0  0  0  0  0  0  0
  140.4420   80.3950  223.5030 C   0  0  0  0  0  0  0  0  0  0  0  0
  141.7080   79.5880  223.7560 C   0  0  0  0  0  0  0  0  0  0  0  0
  141.5350   78.2520  223.0310 C   0  0  0  0  0  0  0  0  0  0  0  0
  139.7240   71.5120  223.4610 C   0  0  0  0  0  0  0  0  0  0  0  0
  139.1470   70.2350  223.3720 C   0  0  0  0  0  0  0  0  0  0  0  0
  139.1870   69.3780  224.4760 C   0  0  0  0  0  0  0  0  0  0  0  0
  139.8090   69.7940  225.6590 C   0  0  0  0  0  0  0  0  0  0  0  0
  139.8670   68.9610  226.7870 C   0  0  0  0  0  0  0  0  0  0  0  0
  140.4980   69.4070  227.9540 C   0  0  0  0  0  0  0  0  0  0  0  0
  140.5540   68.6020  229.0430 F   0  0  0  0  0  0  0  0  0  0  0  0
  141.0730   70.6820  227.9980 C   0  0  0  0  0  0  0  0  0  0  0  0
  141.0230   71.5160  226.8770 C   0  0  0  0  0  0  0  0  0  0  0  0
  140.3900   71.0800  225.7080 C   0  0  0  0  0  0  0  0  0  0  0  0
  140.3320   71.8910  224.6190 N   0  0  0  0  0  0  0  0  0  0  0  0
  142.4646   74.1464  221.0210 H   0  0  0  0  0  0  0  0  0  0  0  0
  139.1600   74.3630  222.7270 H   0  0  0  0  0  0  0  0  0  0  0  0
  142.9676   77.1741  220.5081 H   0  0  0  0  0  0  0  0  0  0  0  0
  142.7300   75.4335  220.0875 H   0  0  0  0  0  0  0  0  0  0  0  0
  142.8552   77.2979  218.1911 H   0  0  0  0  0  0  0  0  0  0  0  0
  141.6857   75.8981  218.0953 H   0  0  0  0  0  0  0  0  0  0  0  0
  140.9972   78.5175  217.6881 H   0  0  0  0  0  0  0  0  0  0  0  0
  139.8771   77.2053  218.2573 H   0  0  0  0  0  0  0  0  0  0  0  0
  141.4085   79.1374  220.0598 H   0  0  0  0  0  0  0  0  0  0  0  0
  139.6629   79.2522  219.6280 H   0  0  0  0  0  0  0  0  0  0  0  0
  139.1324   77.2132  220.7888 H   0  0  0  0  0  0  0  0  0  0  0  0
  139.4157   77.7610  222.8465 H   0  0  0  0  0  0  0  0  0  0  0  0
  140.2452   80.2785  221.3503 H   0  0  0  0  0  0  0  0  0  0  0  0
  138.7368   79.9673  222.2057 H   0  0  0  0  0  0  0  0  0  0  0  0
  140.6880   81.4558  223.3472 H   0  0  0  0  0  0  0  0  0  0  0  0
  139.7516   80.3462  224.3580 H   0  0  0  0  0  0  0  0  0  0  0  0
  142.5834   80.1231  223.3594 H   0  0  0  0  0  0  0  0  0  0  0  0
  141.8682   79.4338  224.8333 H   0  0  0  0  0  0  0  0  0  0  0  0
  142.3512   78.1033  222.3087 H   0  0  0  0  0  0  0  0  0  0  0  0
  141.5599   77.4099  223.7382 H   0  0  0  0  0  0  0  0  0  0  0  0
  138.6656   69.9102  222.4378 H   0  0  0  0  0  0  0  0  0  0  0  0
  138.7306   68.3790  224.4151 H   0  0  0  0  0  0  0  0  0  0  0  0
  139.4167   67.9579  226.7540 H   0  0  0  0  0  0  0  0  0  0  0  0
  141.5661   71.0293  228.9179 H   0  0  0  0  0  0  0  0  0  0  0  0
  141.4815   72.5152  226.9142 H   0  0  0  0  0  0  0  0  0  0  0  0
  1  2  2  0
  2  3  1  0
  3  4  1  0
  4  5  2  0
  5  6  1  0
  5  7  1  0
  7  8  1  0
  8  9  1  0
  9 10  1  0
 10 11  1  0
 11 12  1  0
 12 13  1  0
 13 14  1  0
 14 15  1  0
 15 16  1  0
 16 17  1  0
  2 18  1  0
 18 19  2  0
 19 20  1  0
 20 21  2  0
 21 22  1  0
 22 23  2  0
 23 24  1  0
 23 25  1  0
 25 26  2  0
 26 27  1  0
 27 28  2  0
 12  7  1  0
 17 13  1  0
 28 18  1  0
 27 21  1  0
  4 29  1  0
  6 30  1  0
  8 31  1  0
  8 32  1  0
  9 33  1  0
  9 34  1  0
 10 35  1  0
 10 36  1  0
 11 37  1  0
 11 38  1  0
 12 39  1  6
 13 40  1  0
 14 41  1  0
 14 42  1  0
 15 43  1  0
 15 44  1  0
 16 45  1  0
 16 46  1  0
 17 47  1  0
 17 48  1  0
 19 49  1  0
 20 50  1  0
 22 51  1  0
 25 52  1  0
 26 53  1  0
M  CHG  1   3  -1
M  END
>  <meeko>  (16) 
{"free_energy": -7.68, "intermolecular_energy": -9.77, "internal_energy": -1.98, "cluster_size": 16, "cluster_id": 1, "rank_in_cluster": 11}

$$$$

     RDKit          3D

 53 56  0  0  0  0  0  0  0  0999 V2000
  137.8750   72.1880  222.9500 O   0  0  0  0  0  0  0  0  0  0  0  0
  138.8550   71.4030  222.8450 C   0  0  0  0  0  0  0  0  0  0  0  0
  139.5890   71.3790  221.6120 N   0  0  0  0  0  0  0  0  0  0  0  0
  140.7310   72.1870  221.2940 C   0  0  0  0  0  0  0  0  0  0  0  0
  140.7040   73.5270  221.3450 C   0  0  0  0  0  0  0  0  0  0  0  0
  139.9540   74.1770  222.3230 O   0  0  0  0  0  0  0  0  0  0  0  0
  141.4590   74.3110  220.4040 N   0  0  0  0  0  0  0  0  0  0  0  0
  140.7810   74.7860  219.1900 C   0  0  0  0  0  0  0  0  0  0  0  0
  140.8890   76.3150  219.0660 C   0  0  0  0  0  0  0  0  0  0  0  0
  142.2010   76.8870  219.6420 C   0  0  0  0  0  0  0  0  0  0  0  0
  143.3070   75.8310  219.7190 C   0  0  0  0  0  0  0  0  0  0  0  0
  142.8760   74.6730  220.6480 C   0  0  2  0  0  0  0  0  0  0  0  0
  143.8490   73.4650  220.4930 C   0  0  0  0  0  0  0  0  0  0  0  0
  145.3100   73.7600  220.8310 C   0  0  0  0  0  0  0  0  0  0  0  0
  146.0960   72.6880  220.1020 C   0  0  0  0  0  0  0  0  0  0  0  0
  145.3060   72.3870  218.8360 C   0  0  0  0  0  0  0  0  0  0  0  0
  143.8670   72.8380  219.0940 C   0  0  0  0  0  0  0  0  0  0  0  0
  139.1890   70.4960  223.9660 C   0  0  0  0  0  0  0  0  0  0  0  0
  138.8710   69.1290  223.9090 C   0  0  0  0  0  0  0  0  0  0  0  0
  139.1860   68.2980  224.9870 C   0  0  0  0  0  0  0  0  0  0  0  0
  139.8240   68.8300  226.1140 C   0  0  0  0  0  0  0  0  0  0  0  0
  140.1550   68.0260  227.2160 C   0  0  0  0  0  0  0  0  0  0  0  0
  140.7950   68.5900  228.3250 C   0  0  0  0  0  0  0  0  0  0  0  0
  141.1140   67.8120  229.3900 F   0  0  0  0  0  0  0  0  0  0  0  0
  141.1080   69.9530  228.3380 C   0  0  0  0  0  0  0  0  0  0  0  0
  140.7860   70.7600  227.2430 C   0  0  0  0  0  0  0  0  0  0  0  0
  140.1420   70.2060  226.1310 C   0  0  0  0  0  0  0  0  0  0  0  0
  139.8200   70.9890  225.0680 N   0  0  0  0  0  0  0  0  0  0  0  0
  141.6652   71.6881  220.9968 H   0  0  0  0  0  0  0  0  0  0  0  0
  139.1750   73.7170  222.7790 H   0  0  0  0  0  0  0  0  0  0  0  0
  141.2479   74.3191  218.3102 H   0  0  0  0  0  0  0  0  0  0  0  0
  139.7175   74.5118  219.2503 H   0  0  0  0  0  0  0  0  0  0  0  0
  140.8301   76.5831  218.0008 H   0  0  0  0  0  0  0  0  0  0  0  0
  140.0632   76.7466  219.6506 H   0  0  0  0  0  0  0  0  0  0  0  0
  142.5417   77.7106  218.9973 H   0  0  0  0  0  0  0  0  0  0  0  0
  141.9967   77.2376  220.6644 H   0  0  0  0  0  0  0  0  0  0  0  0
  143.5021   75.4351  218.7114 H   0  0  0  0  0  0  0  0  0  0  0  0
  144.2187   76.2951  220.1233 H   0  0  0  0  0  0  0  0  0  0  0  0
  142.9399   75.0002  221.6963 H   0  0  0  0  0  0  0  0  0  0  0  0
  143.4214   72.7691  221.2298 H   0  0  0  0  0  0  0  0  0  0  0  0
  145.5963   74.7608  220.4753 H   0  0  0  0  0  0  0  0  0  0  0  0
  145.4973   73.7498  221.9149 H   0  0  0  0  0  0  0  0  0  0  0  0
  147.1014   73.0552  219.8485 H   0  0  0  0  0  0  0  0  0  0  0  0
  146.2275   71.7888  220.7218 H   0  0  0  0  0  0  0  0  0  0  0  0
  145.7294   72.9407  217.9850 H   0  0  0  0  0  0  0  0  0  0  0  0
  145.3455   71.3151  218.5921 H   0  0  0  0  0  0  0  0  0  0  0  0
  143.5610   73.5798  218.3416 H   0  0  0  0  0  0  0  0  0  0  0  0
  143.1681   71.9910  219.0297 H   0  0  0  0  0  0  0  0  0  0  0  0
  138.3757   68.7142  223.0187 H   0  0  0  0  0  0  0  0  0  0  0  0
  138.9333   67.2280  224.9504 H   0  0  0  0  0  0  0  0  0  0  0  0
  139.9114   66.9533  227.2077 H   0  0  0  0  0  0  0  0  0  0  0  0
  141.6095   70.3917  229.2132 H   0  0  0  0  0  0  0  0  0  0  0  0
  141.0388   71.8305  227.2554 H   0  0  0  0  0  0  0  0  0  0  0  0
  1  2  2  0
  2  3  1  0
  3  4  1  0
  4  5  2  0
  5  6  1  0
  5  7  1  0
  7  8  1  0
  8  9  1  0
  9 10  1  0
 10 11  1  0
 11 12  1  0
 12 13  1  0
 13 14  1  0
 14 15  1  0
 15 16  1  0
 16 17  1  0
  2 18  1  0
 18 19  2  0
 19 20  1  0
 20 21  2  0
 21 22  1  0
 22 23  2  0
 23 24  1  0
 23 25  1  0
 25 26  2  0
 26 27  1  0
 27 28  2  0
 12  7  1  0
 17 13  1  0
 28 18  1  0
 27 21  1  0
  4 29  1  0
  6 30  1  0
  8 31  1  0
  8 32  1  0
  9 33  1  0
  9 34  1  0
 10 35  1  0
 10 36  1  0
 11 37  1  0
 11 38  1  0
 12 39  1  1
 13 40  1  0
 14 41  1  0
 14 42  1  0
 15 43  1  0
 15 44  1  0
 16 45  1  0
 16 46  1  0
 17 47  1  0
 17 48  1  0
 19 49  1  0
 20 50  1  0
 22 51  1  0
 25 52  1  0
 26 53  1  0
M  CHG  1   3  -1
M  END
>  <meeko>  (17) 
{"free_energy": -7.65, "intermolecular_energy": -9.74, "internal_energy": -2.17, "cluster_size": 16, "cluster_id": 1, "rank_in_cluster": 13}

$$$$

     RDKit          3D

 53 56  0  0  0  0  0  0  0  0999 V2000
  138.7190   72.5830  222.2080 O   0  0  0  0  0  0  0  0  0  0  0  0
  139.7910   72.2730  222.7920 C   0  0  0  0  0  0  0  0  0  0  0  0
  141.0180   72.8680  222.3430 N   0  0  0  0  0  0  0  0  0  0  0  0
  141.1420   73.8930  221.3460 C   0  0  0  0  0  0  0  0  0  0  0  0
  140.6770   75.1370  221.5270 C   0  0  0  0  0  0  0  0  0  0  0  0
  139.5780   75.3620  222.3540 O   0  0  0  0  0  0  0  0  0  0  0  0
  141.3120   76.2570  220.8860 N   0  0  0  0  0  0  0  0  0  0  0  0
  142.5380   76.0150  220.1130 C   0  0  0  0  0  0  0  0  0  0  0  0
  142.3840   76.5230  218.6700 C   0  0  0  0  0  0  0  0  0  0  0  0
  141.4820   77.7690  218.5510 C   0  0  0  0  0  0  0  0  0  0  0  0
  141.3700   78.5310  219.8750 C   0  0  0  0  0  0  0  0  0  0  0  0
  140.7450   77.6250  220.9610 C   0  0  2  0  0  0  0  0  0  0  0  0
  140.9100   78.2780  222.3680 C   0  0  0  0  0  0  0  0  0  0  0  0
  139.7870   79.2310  222.7760 C   0  0  0  0  0  0  0  0  0  0  0  0
  140.4070   80.1190  223.8370 C   0  0  0  0  0  0  0  0  0  0  0  0
  141.8750   80.2580  223.4530 C   0  0  0  0  0  0  0  0  0  0  0  0
  142.2120   79.0660  222.5550 C   0  0  0  0  0  0  0  0  0  0  0  0
  139.7680   71.2710  223.8820 C   0  0  0  0  0  0  0  0  0  0  0  0
  139.1020   70.0450  223.7210 C   0  0  0  0  0  0  0  0  0  0  0  0
  139.0840   69.1220  224.7700 C   0  0  0  0  0  0  0  0  0  0  0  0
  139.7370   69.4220  225.9720 C   0  0  0  0  0  0  0  0  0  0  0  0
  139.7390   68.5210  227.0480 C   0  0  0  0  0  0  0  0  0  0  0  0
  140.4020   68.8510  228.2350 C   0  0  0  0  0  0  0  0  0  0  0  0
  140.4040   67.9790  229.2740 F   0  0  0  0  0  0  0  0  0  0  0  0
  141.0670   70.0770  228.3510 C   0  0  0  0  0  0  0  0  0  0  0  0
  141.0720   70.9780  227.2830 C   0  0  0  0  0  0  0  0  0  0  0  0
  140.4080   70.6590  226.0940 C   0  0  0  0  0  0  0  0  0  0  0  0
  140.4050   71.5360  225.0560 N   0  0  0  0  0  0  0  0  0  0  0  0
  141.6384   73.6479  220.3955 H   0  0  0  0  0  0  0  0  0  0  0  0
  139.1300   74.6020  222.8510 H   0  0  0  0  0  0  0  0  0  0  0  0
  143.3764   76.5411  220.5928 H   0  0  0  0  0  0  0  0  0  0  0  0
  142.7297   74.9322  220.0866 H   0  0  0  0  0  0  0  0  0  0  0  0
  143.3814   76.7764  218.2814 H   0  0  0  0  0  0  0  0  0  0  0  0
  141.9042   75.7190  218.0926 H   0  0  0  0  0  0  0  0  0  0  0  0
  141.9052   78.4413  217.7901 H   0  0  0  0  0  0  0  0  0  0  0  0
  140.4738   77.4304  218.2700 H   0  0  0  0  0  0  0  0  0  0  0  0
  142.3728   78.8470  220.1984 H   0  0  0  0  0  0  0  0  0  0  0  0
  140.7276   79.4119  219.7290 H   0  0  0  0  0  0  0  0  0  0  0  0
  139.6644   77.5258  220.7805 H   0  0  0  0  0  0  0  0  0  0  0  0
  140.8993   77.3827  223.0070 H   0  0  0  0  0  0  0  0  0  0  0  0
  139.4532   79.8291  221.9153 H   0  0  0  0  0  0  0  0  0  0  0  0
  138.8993   78.6965  223.1453 H   0  0  0  0  0  0  0  0  0  0  0  0
  139.9181   81.1043  223.8459 H   0  0  0  0  0  0  0  0  0  0  0  0
  140.2897   79.6910  224.8435 H   0  0  0  0  0  0  0  0  0  0  0  0
  142.0364   81.2000  222.9083 H   0  0  0  0  0  0  0  0  0  0  0  0
  142.5168   80.2730  224.3462 H   0  0  0  0  0  0  0  0  0  0  0  0
  142.5863   79.4173  221.5821 H   0  0  0  0  0  0  0  0  0  0  0  0
  142.9950   78.4383  223.0054 H   0  0  0  0  0  0  0  0  0  0  0  0
  138.5963   69.8121  222.7723 H   0  0  0  0  0  0  0  0  0  0  0  0
  138.5586   68.1628  224.6520 H   0  0  0  0  0  0  0  0  0  0  0  0
  139.2194   67.5556  226.9581 H   0  0  0  0  0  0  0  0  0  0  0  0
  141.5874   70.3321  229.2859 H   0  0  0  0  0  0  0  0  0  0  0  0
  141.5987   71.9391  227.3774 H   0  0  0  0  0  0  0  0  0  0  0  0
  1  2  2  0
  2  3  1  0
  3  4  1  0
  4  5  2  0
  5  6  1  0
  5  7  1  0
  7  8  1  0
  8  9  1  0
  9 10  1  0
 10 11  1  0
 11 12  1  0
 12 13  1  0
 13 14  1  0
 14 15  1  0
 15 16  1  0
 16 17  1  0
  2 18  1  0
 18 19  2  0
 19 20  1  0
 20 21  2  0
 21 22  1  0
 22 23  2  0
 23 24  1  0
 23 25  1  0
 25 26  2  0
 26 27  1  0
 27 28  2  0
 12  7  1  0
 17 13  1  0
 28 18  1  0
 27 21  1  0
  4 29  1  0
  6 30  1  0
  8 31  1  0
  8 32  1  0
  9 33  1  0
  9 34  1  0
 10 35  1  0
 10 36  1  0
 11 37  1  0
 11 38  1  0
 12 39  1  6
 13 40  1  0
 14 41  1  0
 14 42  1  0
 15 43  1  0
 15 44  1  0
 16 45  1  0
 16 46  1  0
 17 47  1  0
 17 48  1  0
 19 49  1  0
 20 50  1  0
 22 51  1  0
 25 52  1  0
 26 53  1  0
M  CHG  1   3  -1
M  END
>  <meeko>  (18) 
{"free_energy": -8.38, "intermolecular_energy": -10.47, "internal_energy": -2.06, "cluster_size": 16, "cluster_id": 1, "rank_in_cluster": 4}

$$$$

     RDKit          3D

 53 56  0  0  0  0  0  0  0  0999 V2000
  141.7820   73.3390  220.9380 O   0  0  0  0  0  0  0  0  0  0  0  0
  141.0320   74.1430  221.5540 C   0  0  0  0  0  0  0  0  0  0  0  0
  139.9600   73.6130  222.3470 N   0  0  0  0  0  0  0  0  0  0  0  0
  139.5780   72.2320  222.4340 C   0  0  0  0  0  0  0  0  0  0  0  0
  138.4280   71.8350  222.9980 C   0  0  0  0  0  0  0  0  0  0  0  0
  137.3210   72.6820  223.0040 O   0  0  0  0  0  0  0  0  0  0  0  0
  138.3150   70.5290  223.5900 N   0  0  0  0  0  0  0  0  0  0  0  0
  137.0830   69.7630  223.3570 C   0  0  0  0  0  0  0  0  0  0  0  0
  137.4020   68.3890  222.7440 C   0  0  0  0  0  0  0  0  0  0  0  0
  138.7450   67.8000  223.2200 C   0  0  0  0  0  0  0  0  0  0  0  0
  139.2070   68.4120  224.5470 C   0  0  0  0  0  0  0  0  0  0  0  0
  139.4130   69.9360  224.3900 C   0  0  2  0  0  0  0  0  0  0  0  0
  139.5800   70.6050  225.7880 C   0  0  0  0  0  0  0  0  0  0  0  0
  140.7520   71.5790  225.9060 C   0  0  0  0  0  0  0  0  0  0  0  0
  141.0440   71.6490  227.3920 C   0  0  0  0  0  0  0  0  0  0  0  0
  140.7080   70.2690  227.9430 C   0  0  0  0  0  0  0  0  0  0  0  0
  139.7430   69.6180  226.9500 C   0  0  0  0  0  0  0  0  0  0  0  0
  141.2390   75.6010  221.4010 C   0  0  0  0  0  0  0  0  0  0  0  0
  141.6990   76.1420  220.1900 C   0  0  0  0  0  0  0  0  0  0  0  0
  141.8980   77.5210  220.0780 C   0  0  0  0  0  0  0  0  0  0  0  0
  141.6290   78.3540  221.1700 C   0  0  0  0  0  0  0  0  0  0  0  0
  141.8190   79.7430  221.0950 C   0  0  0  0  0  0  0  0  0  0  0  0
  141.5390   80.5480  222.2050 C   0  0  0  0  0  0  0  0  0  0  0  0
  141.7220   81.8900  222.1320 F   0  0  0  0  0  0  0  0  0  0  0  0
  141.0680   79.9720  223.3900 C   0  0  0  0  0  0  0  0  0  0  0  0
  140.8730   78.5890  223.4720 C   0  0  0  0  0  0  0  0  0  0  0  0
  141.1550   77.7770  222.3680 C   0  0  0  0  0  0  0  0  0  0  0  0
  140.9740   76.4320  222.4470 N   0  0  0  0  0  0  0  0  0  0  0  0
  140.2552   71.4695  222.0218 H   0  0  0  0  0  0  0  0  0  0  0  0
  137.4280   73.6870  223.0640 H   0  0  0  0  0  0  0  0  0  0  0  0
  136.5617   69.6184  224.3148 H   0  0  0  0  0  0  0  0  0  0  0  0
  136.4469   70.3229  222.6556 H   0  0  0  0  0  0  0  0  0  0  0  0
  136.5983   67.6900  223.0189 H   0  0  0  0  0  0  0  0  0  0  0  0
  137.4781   68.5300  221.6557 H   0  0  0  0  0  0  0  0  0  0  0  0
  138.6288   66.7141  223.3520 H   0  0  0  0  0  0  0  0  0  0  0  0
  139.5044   68.0315  222.4586 H   0  0  0  0  0  0  0  0  0  0  0  0
  138.4445   68.2261  225.3177 H   0  0  0  0  0  0  0  0  0  0  0  0
  140.1605   67.9498  224.8423 H   0  0  0  0  0  0  0  0  0  0  0  0
  140.3428   70.1259  223.8338 H   0  0  0  0  0  0  0  0  0  0  0  0
  138.6262   71.1475  225.8649 H   0  0  0  0  0  0  0  0  0  0  0  0
  141.6268   71.2022  225.3558 H   0  0  0  0  0  0  0  0  0  0  0  0
  140.5183   72.5659  225.4802 H   0  0  0  0  0  0  0  0  0  0  0  0
  142.1050   71.8828  227.5639 H   0  0  0  0  0  0  0  0  0  0  0  0
  140.4561   72.4374  227.8848 H   0  0  0  0  0  0  0  0  0  0  0  0
  141.6226   69.6646  228.0335 H   0  0  0  0  0  0  0  0  0  0  0  0
  140.2544   70.3433  228.9424 H   0  0  0  0  0  0  0  0  0  0  0  0
  140.1581   68.6669  226.5850 H   0  0  0  0  0  0  0  0  0  0  0  0
  138.7746   69.3983  227.4232 H   0  0  0  0  0  0  0  0  0  0  0  0
  141.9020   75.4833  219.3327 H   0  0  0  0  0  0  0  0  0  0  0  0
  142.2650   77.9504  219.1341 H   0  0  0  0  0  0  0  0  0  0  0  0
  142.1878   80.1984  220.1641 H   0  0  0  0  0  0  0  0  0  0  0  0
  140.8503   80.6088  224.2601 H   0  0  0  0  0  0  0  0  0  0  0  0
  140.4982   78.1403  224.4038 H   0  0  0  0  0  0  0  0  0  0  0  0
  1  2  2  0
  2  3  1  0
  3  4  1  0
  4  5  2  0
  5  6  1  0
  5  7  1  0
  7  8  1  0
  8  9  1  0
  9 10  1  0
 10 11  1  0
 11 12  1  0
 12 13  1  0
 13 14  1  0
 14 15  1  0
 15 16  1  0
 16 17  1  0
  2 18  1  0
 18 19  2  0
 19 20  1  0
 20 21  2  0
 21 22  1  0
 22 23  2  0
 23 24  1  0
 23 25  1  0
 25 26  2  0
 26 27  1  0
 27 28  2  0
 12  7  1  0
 17 13  1  0
 28 18  1  0
 27 21  1  0
  4 29  1  0
  6 30  1  0
  8 31  1  0
  8 32  1  0
  9 33  1  0
  9 34  1  0
 10 35  1  0
 10 36  1  0
 11 37  1  0
 11 38  1  0
 12 39  1  6
 13 40  1  0
 14 41  1  0
 14 42  1  0
 15 43  1  0
 15 44  1  0
 16 45  1  0
 16 46  1  0
 17 47  1  0
 17 48  1  0
 19 49  1  0
 20 50  1  0
 22 51  1  0
 25 52  1  0
 26 53  1  0
M  CHG  1   3  -1
M  END
>  <meeko>  (19) 
{"free_energy": -7.66, "intermolecular_energy": -9.75, "internal_energy": -1.41, "cluster_size": 3, "cluster_id": 2, "rank_in_cluster": 2}

$$$$

     RDKit          3D

 53 56  0  0  0  0  0  0  0  0999 V2000
  138.7230   72.6100  222.3390 O   0  0  0  0  0  0  0  0  0  0  0  0
  139.8230   72.2670  222.8480 C   0  0  0  0  0  0  0  0  0  0  0  0
  141.0300   72.8560  222.3400 N   0  0  0  0  0  0  0  0  0  0  0  0
  141.1120   73.8670  221.3250 C   0  0  0  0  0  0  0  0  0  0  0  0
  140.6850   75.1230  221.5200 C   0  0  0  0  0  0  0  0  0  0  0  0
  139.6030   75.3730  222.3620 O   0  0  0  0  0  0  0  0  0  0  0  0
  141.3450   76.2290  220.8800 N   0  0  0  0  0  0  0  0  0  0  0  0
  142.5700   75.9610  220.1140 C   0  0  0  0  0  0  0  0  0  0  0  0
  142.4330   76.4680  218.6690 C   0  0  0  0  0  0  0  0  0  0  0  0
  141.5550   77.7300  218.5410 C   0  0  0  0  0  0  0  0  0  0  0  0
  141.4500   78.4980  219.8620 C   0  0  0  0  0  0  0  0  0  0  0  0
  140.8030   77.6070  220.9480 C   0  0  2  0  0  0  0  0  0  0  0  0
  140.9720   78.2610  222.3530 C   0  0  0  0  0  0  0  0  0  0  0  0
  139.8180   79.1600  222.7940 C   0  0  0  0  0  0  0  0  0  0  0  0
  140.4220   80.0710  223.8440 C   0  0  0  0  0  0  0  0  0  0  0  0
  141.8720   80.2790  223.4240 C   0  0  0  0  0  0  0  0  0  0  0  0
  142.2410   79.1070  222.5120 C   0  0  0  0  0  0  0  0  0  0  0  0
  139.8490   71.2340  223.9080 C   0  0  0  0  0  0  0  0  0  0  0  0
  139.2960   69.9620  223.6920 C   0  0  0  0  0  0  0  0  0  0  0  0
  139.3230   69.0110  224.7150 C   0  0  0  0  0  0  0  0  0  0  0  0
  139.9070   69.3290  225.9470 C   0  0  0  0  0  0  0  0  0  0  0  0
  139.9510   68.3990  226.9980 C   0  0  0  0  0  0  0  0  0  0  0  0
  140.5450   68.7490  228.2150 C   0  0  0  0  0  0  0  0  0  0  0  0
  140.5870   67.8500  229.2310 F   0  0  0  0  0  0  0  0  0  0  0  0
  141.0980   70.0220  228.3880 C   0  0  0  0  0  0  0  0  0  0  0  0
  141.0620   70.9530  227.3440 C   0  0  0  0  0  0  0  0  0  0  0  0
  140.4660   70.6130  226.1250 C   0  0  0  0  0  0  0  0  0  0  0  0
  140.4230   71.5170  225.1110 N   0  0  0  0  0  0  0  0  0  0  0  0
  141.5422   73.6011  220.3482 H   0  0  0  0  0  0  0  0  0  0  0  0
  139.1750   74.6310  222.9020 H   0  0  0  0  0  0  0  0  0  0  0  0
  143.4161   76.4720  220.5967 H   0  0  0  0  0  0  0  0  0  0  0  0
  142.7409   74.8746  220.0915 H   0  0  0  0  0  0  0  0  0  0  0  0
  143.4370   76.7018  218.2853 H   0  0  0  0  0  0  0  0  0  0  0  0
  141.9411   75.6714  218.0916 H   0  0  0  0  0  0  0  0  0  0  0  0
  141.9948   78.3919  217.7804 H   0  0  0  0  0  0  0  0  0  0  0  0
  140.5423   77.4093  218.2553 H   0  0  0  0  0  0  0  0  0  0  0  0
  142.4567   78.7968  220.1895 H   0  0  0  0  0  0  0  0  0  0  0  0
  140.8243   79.3898  219.7099 H   0  0  0  0  0  0  0  0  0  0  0  0
  139.7217   77.5270  220.7624 H   0  0  0  0  0  0  0  0  0  0  0  0
  141.0170   77.3632  222.9870 H   0  0  0  0  0  0  0  0  0  0  0  0
  139.4360   79.7459  221.9450 H   0  0  0  0  0  0  0  0  0  0  0  0
  138.9655   78.5836  223.1827 H   0  0  0  0  0  0  0  0  0  0  0  0
  139.8885   81.0326  223.8703 H   0  0  0  0  0  0  0  0  0  0  0  0
  140.3495   79.6343  224.8510 H   0  0  0  0  0  0  0  0  0  0  0  0
  141.9760   81.2294  222.8800 H   0  0  0  0  0  0  0  0  0  0  0  0
  142.5347   80.3203  224.3010 H   0  0  0  0  0  0  0  0  0  0  0  0
  142.5748   79.4788  221.5320 H   0  0  0  0  0  0  0  0  0  0  0  0
  143.0627   78.5140  222.9400 H   0  0  0  0  0  0  0  0  0  0  0  0
  138.8430   69.7149  222.7206 H   0  0  0  0  0  0  0  0  0  0  0  0
  138.8863   68.0145  224.5528 H   0  0  0  0  0  0  0  0  0  0  0  0
  139.5188   67.3963  226.8645 H   0  0  0  0  0  0  0  0  0  0  0  0
  141.5627   70.2921  229.3477 H   0  0  0  0  0  0  0  0  0  0  0  0
  141.5021   71.9517  227.4818 H   0  0  0  0  0  0  0  0  0  0  0  0
  1  2  2  0
  2  3  1  0
  3  4  1  0
  4  5  2  0
  5  6  1  0
  5  7  1  0
  7  8  1  0
  8  9  1  0
  9 10  1  0
 10 11  1  0
 11 12  1  0
 12 13  1  0
 13 14  1  0
 14 15  1  0
 15 16  1  0
 16 17  1  0
  2 18  1  0
 18 19  2  0
 19 20  1  0
 20 21  2  0
 21 22  1  0
 22 23  2  0
 23 24  1  0
 23 25  1  0
 25 26  2  0
 26 27  1  0
 27 28  2  0
 12  7  1  0
 17 13  1  0
 28 18  1  0
 27 21  1  0
  4 29  1  0
  6 30  1  0
  8 31  1  0
  8 32  1  0
  9 33  1  0
  9 34  1  0
 10 35  1  0
 10 36  1  0
 11 37  1  0
 11 38  1  0
 12 39  1  6
 13 40  1  0
 14 41  1  0
 14 42  1  0
 15 43  1  0
 15 44  1  0
 16 45  1  0
 16 46  1  0
 17 47  1  0
 17 48  1  0
 19 49  1  0
 20 50  1  0
 22 51  1  0
 25 52  1  0
 26 53  1  0
M  CHG  1   3  -1
M  END
>  <meeko>  (20) 
{"free_energy": -8.41, "intermolecular_energy": -10.5, "internal_energy": -2.04, "cluster_size": 16, "cluster_id": 1, "rank_in_cluster": 1}

$$$$
