
     RDKit          3D

 47 50  0  0  0  0  0  0  0  0999 V2000
  139.2960   71.3130  220.7190 O   0  0  0  0  0  0  0  0  0  0  0  0
  139.6040   71.8360  221.8210 C   0  0  0  0  0  0  0  0  0  0  0  0
  139.8720   73.2470  221.8490 N   0  0  0  0  0  0  0  0  0  0  0  0
  138.9090   74.3390  221.7020 C   0  0  0  0  0  0  0  0  0  0  0  0
  139.5680   75.6940  221.8010 C   0  0  0  0  0  0  0  0  0  0  0  0
  139.0520   76.5880  222.5270 O   0  0  0  0  0  0  0  0  0  0  0  0
  140.7870   75.9840  221.0890 N   0  0  0  0  0  0  0  0  0  0  0  0
  141.7950   74.9660  220.8410 C   0  0  0  0  0  0  0  0  0  0  0  0
  142.8650   75.6300  219.9820 C   0  0  0  0  0  0  0  0  0  0  0  0
  142.2450   76.9250  219.4620 C   0  0  0  0  0  0  0  0  0  0  0  0
  141.0670   77.2350  220.3910 C   0  0  2  0  0  0  0  0  0  0  0  0
  141.4010   78.3410  221.3760 C   0  0  0  0  0  0  0  0  0  0  0  0
  141.7240   79.6260  220.9080 C   0  0  0  0  0  0  0  0  0  0  0  0
  142.0790   80.6390  221.8070 C   0  0  0  0  0  0  0  0  0  0  0  0
  142.1290   80.3740  223.1790 C   0  0  0  0  0  0  0  0  0  0  0  0
  142.5750   81.6430  224.3060 Cl  0  0  0  0  0  0  0  0  0  0  0  0
  141.8070   79.1000  223.6550 C   0  0  0  0  0  0  0  0  0  0  0  0
  141.4360   78.0910  222.7610 C   0  0  0  0  0  0  0  0  0  0  0  0
  139.6940   70.9790  223.0240 C   0  0  0  0  0  0  0  0  0  0  0  0
  139.1570   69.6830  223.0150 C   0  0  0  0  0  0  0  0  0  0  0  0
  139.2610   68.8810  224.1550 C   0  0  0  0  0  0  0  0  0  0  0  0
  139.8810   69.3810  225.3040 C   0  0  0  0  0  0  0  0  0  0  0  0
  140.0100   68.6010  226.4650 C   0  0  0  0  0  0  0  0  0  0  0  0
  140.6290   69.1380  227.6010 C   0  0  0  0  0  0  0  0  0  0  0  0
  140.7980   68.1590  229.0490 Cl  0  0  0  0  0  0  0  0  0  0  0  0
  141.1080   70.4540  227.5860 C   0  0  0  0  0  0  0  0  0  0  0  0
  140.9810   71.2340  226.4320 C   0  0  0  0  0  0  0  0  0  0  0  0
  140.3820   70.7000  225.2880 C   0  0  0  0  0  0  0  0  0  0  0  0
  140.2800   71.4510  224.1580 N   0  0  0  0  0  0  0  0  0  0  0  0
  138.4216   74.2524  220.7197 H   0  0  0  0  0  0  0  0  0  0  0  0
  138.1769   74.2576  222.5190 H   0  0  0  0  0  0  0  0  0  0  0  0
  142.2288   74.6192  221.7905 H   0  0  0  0  0  0  0  0  0  0  0  0
  141.3638   74.0880  220.3378 H   0  0  0  0  0  0  0  0  0  0  0  0
  143.7579   75.8495  220.5859 H   0  0  0  0  0  0  0  0  0  0  0  0
  143.1818   74.9756  219.1565 H   0  0  0  0  0  0  0  0  0  0  0  0
  142.9819   77.7410  219.4946 H   0  0  0  0  0  0  0  0  0  0  0  0
  141.9166   76.8221  218.4172 H   0  0  0  0  0  0  0  0  0  0  0  0
  140.1970   77.5962  219.8229 H   0  0  0  0  0  0  0  0  0  0  0  0
  141.6978   79.8373  219.8288 H   0  0  0  0  0  0  0  0  0  0  0  0
  142.3190   81.6453  221.4332 H   0  0  0  0  0  0  0  0  0  0  0  0
  141.8455   78.8908  224.7342 H   0  0  0  0  0  0  0  0  0  0  0  0
  141.1695   77.0944  223.1427 H   0  0  0  0  0  0  0  0  0  0  0  0
  138.6559   69.2994  222.1140 H   0  0  0  0  0  0  0  0  0  0  0  0
  138.8558   67.8584  224.1482 H   0  0  0  0  0  0  0  0  0  0  0  0
  139.6257   67.5705  226.4821 H   0  0  0  0  0  0  0  0  0  0  0  0
  141.5850   70.8749  228.4834 H   0  0  0  0  0  0  0  0  0  0  0  0
  141.3531   72.2691  226.4250 H   0  0  0  0  0  0  0  0  0  0  0  0
  1  2  2  0
  2  3  1  0
  3  4  1  0
  4  5  1  0
  5  6  2  0
  5  7  1  0
  7  8  1  0
  8  9  1  0
  9 10  1  0
 10 11  1  0
 11 12  1  0
 12 13  2  0
 13 14  1  0
 14 15  2  0
 15 16  1  0
 15 17  1  0
 17 18  2  0
  2 19  1  0
 19 20  2  0
 20 21  1  0
 21 22  2  0
 22 23  1  0
 23 24  2  0
 24 25  1  0
 24 26  1  0
 26 27  2  0
 27 28  1  0
 28 29  2  0
 11  7  1  0
 18 12  1  0
 29 19  1  0
 28 22  1  0
  4 30  1  0
  4 31  1  0
  8 32  1  0
  8 33  1  0
  9 34  1  0
  9 35  1  0
 10 36  1  0
 10 37  1  0
 11 38  1  6
 13 39  1  0
 14 40  1  0
 17 41  1  0
 18 42  1  0
 20 43  1  0
 21 44  1  0
 23 45  1  0
 26 46  1  0
 27 47  1  0
M  CHG  1   3  -1
M  END
>  <meeko>  (1) 
{"free_energy": -8.52, "intermolecular_energy": -10.31, "internal_energy": -0.97, "cluster_size": 9, "cluster_id": 1, "rank_in_cluster": 2}

$$$$

     RDKit          3D

 47 50  0  0  0  0  0  0  0  0999 V2000
  140.6860   72.3990  220.2720 O   0  0  0  0  0  0  0  0  0  0  0  0
  139.7010   72.4510  221.0540 C   0  0  0  0  0  0  0  0  0  0  0  0
  138.6210   73.3380  220.7240 N   0  0  0  0  0  0  0  0  0  0  0  0
  138.6590   74.8000  220.6580 C   0  0  0  0  0  0  0  0  0  0  0  0
  139.7900   75.3750  221.4770 C   0  0  0  0  0  0  0  0  0  0  0  0
  139.6420   75.5410  222.7190 O   0  0  0  0  0  0  0  0  0  0  0  0
  141.0460   75.7310  220.8660 N   0  0  0  0  0  0  0  0  0  0  0  0
  142.1310   74.7730  220.7220 C   0  0  0  0  0  0  0  0  0  0  0  0
  143.2290   75.4910  219.9470 C   0  0  0  0  0  0  0  0  0  0  0  0
  142.5800   76.7400  219.3530 C   0  0  0  0  0  0  0  0  0  0  0  0
  141.3100   76.9880  220.1740 C   0  0  2  0  0  0  0  0  0  0  0  0
  141.4910   78.1240  221.1640 C   0  0  0  0  0  0  0  0  0  0  0  0
  141.7930   79.4170  220.7050 C   0  0  0  0  0  0  0  0  0  0  0  0
  142.0090   80.4600  221.6130 C   0  0  0  0  0  0  0  0  0  0  0  0
  141.9390   80.2180  222.9880 C   0  0  0  0  0  0  0  0  0  0  0  0
  142.2100   81.5240  224.1290 Cl  0  0  0  0  0  0  0  0  0  0  0  0
  141.6370   78.9360  223.4560 C   0  0  0  0  0  0  0  0  0  0  0  0
  141.4060   77.8960  222.5510 C   0  0  0  0  0  0  0  0  0  0  0  0
  139.7100   71.6190  222.2770 C   0  0  0  0  0  0  0  0  0  0  0  0
  139.0630   70.3740  222.2950 C   0  0  0  0  0  0  0  0  0  0  0  0
  139.0900   69.5940  223.4550 C   0  0  0  0  0  0  0  0  0  0  0  0
  139.7440   70.0670  224.5970 C   0  0  0  0  0  0  0  0  0  0  0  0
  139.7980   69.3080  225.7770 C   0  0  0  0  0  0  0  0  0  0  0  0
  140.4540   69.8170  226.9050 C   0  0  0  0  0  0  0  0  0  0  0  0
  140.5290   68.8630  228.3770 Cl  0  0  0  0  0  0  0  0  0  0  0  0
  141.0450   71.0860  226.8620 C   0  0  0  0  0  0  0  0  0  0  0  0
  140.9940   71.8450  225.6890 C   0  0  0  0  0  0  0  0  0  0  0  0
  140.3580   71.3370  224.5530 C   0  0  0  0  0  0  0  0  0  0  0  0
  140.3280   72.0670  223.4050 N   0  0  0  0  0  0  0  0  0  0  0  0
  138.7896   75.1047  219.6092 H   0  0  0  0  0  0  0  0  0  0  0  0
  137.7134   75.1830  221.0693 H   0  0  0  0  0  0  0  0  0  0  0  0
  142.5012   74.4641  221.7107 H   0  0  0  0  0  0  0  0  0  0  0  0
  141.7980   73.8646  220.1986 H   0  0  0  0  0  0  0  0  0  0  0  0
  144.0513   75.7719  220.6215 H   0  0  0  0  0  0  0  0  0  0  0  0
  143.6546   74.8474  219.1630 H   0  0  0  0  0  0  0  0  0  0  0  0
  143.2613   77.5998  219.4339 H   0  0  0  0  0  0  0  0  0  0  0  0
  142.3497   76.6053  218.2858 H   0  0  0  0  0  0  0  0  0  0  0  0
  140.4717   77.2884  219.5282 H   0  0  0  0  0  0  0  0  0  0  0  0
  141.8602   79.6110  219.6243 H   0  0  0  0  0  0  0  0  0  0  0  0
  142.2342   81.4715  221.2441 H   0  0  0  0  0  0  0  0  0  0  0  0
  141.5810   78.7452  224.5379 H   0  0  0  0  0  0  0  0  0  0  0  0
  141.1560   76.8922  222.9250 H   0  0  0  0  0  0  0  0  0  0  0  0
  138.5363   70.0129  221.3994 H   0  0  0  0  0  0  0  0  0  0  0  0
  138.5978   68.6103  223.4693 H   0  0  0  0  0  0  0  0  0  0  0  0
  139.3259   68.3152  225.8155 H   0  0  0  0  0  0  0  0  0  0  0  0
  141.5505   71.4864  227.7532 H   0  0  0  0  0  0  0  0  0  0  0  0
  141.4551   72.8433  225.6602 H   0  0  0  0  0  0  0  0  0  0  0  0
  1  2  2  0
  2  3  1  0
  3  4  1  0
  4  5  1  0
  5  6  2  0
  5  7  1  0
  7  8  1  0
  8  9  1  0
  9 10  1  0
 10 11  1  0
 11 12  1  0
 12 13  2  0
 13 14  1  0
 14 15  2  0
 15 16  1  0
 15 17  1  0
 17 18  2  0
  2 19  1  0
 19 20  2  0
 20 21  1  0
 21 22  2  0
 22 23  1  0
 23 24  2  0
 24 25  1  0
 24 26  1  0
 26 27  2  0
 27 28  1  0
 28 29  2  0
 11  7  1  0
 18 12  1  0
 29 19  1  0
 28 22  1  0
  4 30  1  0
  4 31  1  0
  8 32  1  0
  8 33  1  0
  9 34  1  0
  9 35  1  0
 10 36  1  0
 10 37  1  0
 11 38  1  6
 13 39  1  0
 14 40  1  0
 17 41  1  0
 18 42  1  0
 20 43  1  0
 21 44  1  0
 23 45  1  0
 26 46  1  0
 27 47  1  0
M  CHG  1   3  -1
M  END
>  <meeko>  (2) 
{"free_energy": -8.28, "intermolecular_energy": -10.07, "internal_energy": -1.42, "cluster_size": 9, "cluster_id": 1, "rank_in_cluster": 6}

$$$$

     RDKit          3D

 47 50  0  0  0  0  0  0  0  0999 V2000
  133.4690   69.6710  226.6510 O   0  0  0  0  0  0  0  0  0  0  0  0
  133.9420   70.7770  226.2810 C   0  0  0  0  0  0  0  0  0  0  0  0
  135.1540   70.7710  225.5110 N   0  0  0  0  0  0  0  0  0  0  0  0
  135.2930   70.5360  224.0730 C   0  0  0  0  0  0  0  0  0  0  0  0
  135.7860   69.1420  223.7710 C   0  0  0  0  0  0  0  0  0  0  0  0
  135.0730   68.1460  224.0750 O   0  0  0  0  0  0  0  0  0  0  0  0
  137.0580   68.9240  223.1270 N   0  0  0  0  0  0  0  0  0  0  0  0
  137.2230   67.9540  222.0560 C   0  0  0  0  0  0  0  0  0  0  0  0
  138.6620   68.0940  221.5760 C   0  0  0  0  0  0  0  0  0  0  0  0
  139.1750   69.4100  222.1570 C   0  0  0  0  0  0  0  0  0  0  0  0
  138.2460   69.7480  223.3280 C   0  0  2  0  0  0  0  0  0  0  0  0
  138.8930   69.4460  224.6660 C   0  0  0  0  0  0  0  0  0  0  0  0
  139.5530   70.4640  225.3750 C   0  0  0  0  0  0  0  0  0  0  0  0
  140.1940   70.1840  226.5880 C   0  0  0  0  0  0  0  0  0  0  0  0
  140.1930   68.8820  227.0970 C   0  0  0  0  0  0  0  0  0  0  0  0
  140.9970   68.5290  228.6170 Cl  0  0  0  0  0  0  0  0  0  0  0  0
  139.5380   67.8620  226.4010 C   0  0  0  0  0  0  0  0  0  0  0  0
  138.8840   68.1420  225.1980 C   0  0  0  0  0  0  0  0  0  0  0  0
  133.2460   72.0230  226.6710 C   0  0  0  0  0  0  0  0  0  0  0  0
  131.9610   71.9740  227.2320 C   0  0  0  0  0  0  0  0  0  0  0  0
  131.3210   73.1590  227.6060 C   0  0  0  0  0  0  0  0  0  0  0  0
  131.9560   74.3880  227.4000 C   0  0  0  0  0  0  0  0  0  0  0  0
  131.3470   75.5980  227.7710 C   0  0  0  0  0  0  0  0  0  0  0  0
  132.0080   76.8110  227.5420 C   0  0  0  0  0  0  0  0  0  0  0  0
  131.2500   78.3230  228.0140 Cl  0  0  0  0  0  0  0  0  0  0  0  0
  133.2700   76.8210  226.9340 C   0  0  0  0  0  0  0  0  0  0  0  0
  133.8800   75.6180  226.5640 C   0  0  0  0  0  0  0  0  0  0  0  0
  133.2350   74.4020  226.8050 C   0  0  0  0  0  0  0  0  0  0  0  0
  133.8390   73.2310  226.4660 N   0  0  0  0  0  0  0  0  0  0  0  0
  134.3128   70.6772  223.5941 H   0  0  0  0  0  0  0  0  0  0  0  0
  136.0340   71.2494  223.6831 H   0  0  0  0  0  0  0  0  0  0  0  0
  137.0435   66.9360  222.4321 H   0  0  0  0  0  0  0  0  0  0  0  0
  136.5082   68.1323  221.2392 H   0  0  0  0  0  0  0  0  0  0  0  0
  139.2698   67.2528  221.9406 H   0  0  0  0  0  0  0  0  0  0  0  0
  138.7221   68.0886  220.4777 H   0  0  0  0  0  0  0  0  0  0  0  0
  140.2096   69.2932  222.5118 H   0  0  0  0  0  0  0  0  0  0  0  0
  139.1766   70.2095  221.4014 H   0  0  0  0  0  0  0  0  0  0  0  0
  138.0072   70.8215  223.3494 H   0  0  0  0  0  0  0  0  0  0  0  0
  139.5662   71.4883  224.9742 H   0  0  0  0  0  0  0  0  0  0  0  0
  140.6990   70.9896  227.1411 H   0  0  0  0  0  0  0  0  0  0  0  0
  139.5373   66.8372  226.8008 H   0  0  0  0  0  0  0  0  0  0  0  0
  138.3582   67.3377  224.6626 H   0  0  0  0  0  0  0  0  0  0  0  0
  131.4588   71.0061  227.3770 H   0  0  0  0  0  0  0  0  0  0  0  0
  130.3202   73.1250  228.0613 H   0  0  0  0  0  0  0  0  0  0  0  0
  130.3523   75.5928  228.2407 H   0  0  0  0  0  0  0  0  0  0  0  0
  133.7820   77.7765  226.7473 H   0  0  0  0  0  0  0  0  0  0  0  0
  134.8690   75.6291  226.0826 H   0  0  0  0  0  0  0  0  0  0  0  0
  1  2  2  0
  2  3  1  0
  3  4  1  0
  4  5  1  0
  5  6  2  0
  5  7  1  0
  7  8  1  0
  8  9  1  0
  9 10  1  0
 10 11  1  0
 11 12  1  0
 12 13  2  0
 13 14  1  0
 14 15  2  0
 15 16  1  0
 15 17  1  0
 17 18  2  0
  2 19  1  0
 19 20  2  0
 20 21  1  0
 21 22  2  0
 22 23  1  0
 23 24  2  0
 24 25  1  0
 24 26  1  0
 26 27  2  0
 27 28  1  0
 28 29  2  0
 11  7  1  0
 18 12  1  0
 29 19  1  0
 28 22  1  0
  4 30  1  0
  4 31  1  0
  8 32  1  0
  8 33  1  0
  9 34  1  0
  9 35  1  0
 10 36  1  0
 10 37  1  0
 11 38  1  1
 13 39  1  0
 14 40  1  0
 17 41  1  0
 18 42  1  0
 20 43  1  0
 21 44  1  0
 23 45  1  0
 26 46  1  0
 27 47  1  0
M  CHG  1   3  -1
M  END
>  <meeko>  (3) 
{"free_energy": -8.38, "intermolecular_energy": -10.17, "internal_energy": -1.21, "cluster_size": 6, "cluster_id": 2, "rank_in_cluster": 1}

$$$$

     RDKit          3D

 47 50  0  0  0  0  0  0  0  0999 V2000
  133.7860   68.4980  226.1010 O   0  0  0  0  0  0  0  0  0  0  0  0
  134.5240   69.2340  225.3960 C   0  0  0  0  0  0  0  0  0  0  0  0
  135.4670   68.6040  224.5160 N   0  0  0  0  0  0  0  0  0  0  0  0
  135.7390   68.9360  223.1180 C   0  0  0  0  0  0  0  0  0  0  0  0
  137.1540   68.5960  222.7180 C   0  0  0  0  0  0  0  0  0  0  0  0
  137.4440   67.4140  222.3860 O   0  0  0  0  0  0  0  0  0  0  0  0
  138.1860   69.6030  222.6980 N   0  0  0  0  0  0  0  0  0  0  0  0
  139.0270   69.8200  221.5320 C   0  0  0  0  0  0  0  0  0  0  0  0
  139.9070   71.0200  221.8620 C   0  0  0  0  0  0  0  0  0  0  0  0
  139.2770   71.6800  223.0860 C   0  0  0  0  0  0  0  0  0  0  0  0
  138.3820   70.6160  223.7290 C   0  0  2  0  0  0  0  0  0  0  0  0
  139.0220   70.0130  224.9650 C   0  0  0  0  0  0  0  0  0  0  0  0
  139.9360   70.7640  225.7240 C   0  0  0  0  0  0  0  0  0  0  0  0
  140.5670   70.1990  226.8380 C   0  0  0  0  0  0  0  0  0  0  0  0
  140.3020   68.8740  227.1980 C   0  0  0  0  0  0  0  0  0  0  0  0
  141.0930   68.1640  228.5940 Cl  0  0  0  0  0  0  0  0  0  0  0  0
  139.3930   68.1180  226.4520 C   0  0  0  0  0  0  0  0  0  0  0  0
  138.7500   68.6850  225.3480 C   0  0  0  0  0  0  0  0  0  0  0  0
  134.4020   70.7040  225.5210 C   0  0  0  0  0  0  0  0  0  0  0  0
  135.2110   71.5520  224.7500 C   0  0  0  0  0  0  0  0  0  0  0  0
  135.0760   72.9380  224.8700 C   0  0  0  0  0  0  0  0  0  0  0  0
  134.1500   73.4720  225.7730 C   0  0  0  0  0  0  0  0  0  0  0  0
  133.9820   74.8590  225.9140 C   0  0  0  0  0  0  0  0  0  0  0  0
  133.0520   75.3590  226.8340 C   0  0  0  0  0  0  0  0  0  0  0  0
  132.8350   77.0930  227.0050 Cl  0  0  0  0  0  0  0  0  0  0  0  0
  132.2990   74.4790  227.6220 C   0  0  0  0  0  0  0  0  0  0  0  0
  132.4640   73.0970  227.4840 C   0  0  0  0  0  0  0  0  0  0  0  0
  133.3750   72.5890  226.5550 C   0  0  0  0  0  0  0  0  0  0  0  0
  133.5180   71.2450  226.4040 N   0  0  0  0  0  0  0  0  0  0  0  0
  135.0444   68.3721  222.4780 H   0  0  0  0  0  0  0  0  0  0  0  0
  135.6040   70.0208  222.9953 H   0  0  0  0  0  0  0  0  0  0  0  0
  139.6481   68.9329  221.3390 H   0  0  0  0  0  0  0  0  0  0  0  0
  138.4239   70.0003  220.6299 H   0  0  0  0  0  0  0  0  0  0  0  0
  140.9317   70.6913  222.0900 H   0  0  0  0  0  0  0  0  0  0  0  0
  139.9695   71.7189  221.0148 H   0  0  0  0  0  0  0  0  0  0  0  0
  140.0579   71.9993  223.7919 H   0  0  0  0  0  0  0  0  0  0  0  0
  138.7011   72.5751  222.8081 H   0  0  0  0  0  0  0  0  0  0  0  0
  137.4302   71.0499  224.0694 H   0  0  0  0  0  0  0  0  0  0  0  0
  140.1570   71.8036  225.4403 H   0  0  0  0  0  0  0  0  0  0  0  0
  141.2729   70.7984  227.4317 H   0  0  0  0  0  0  0  0  0  0  0  0
  139.1835   67.0756  226.7342 H   0  0  0  0  0  0  0  0  0  0  0  0
  138.0255   68.0892  224.7735 H   0  0  0  0  0  0  0  0  0  0  0  0
  135.9490   71.1276  224.0534 H   0  0  0  0  0  0  0  0  0  0  0  0
  135.6963   73.6075  224.2560 H   0  0  0  0  0  0  0  0  0  0  0  0
  134.5797   75.5514  225.3030 H   0  0  0  0  0  0  0  0  0  0  0  0
  131.5766   74.8756  228.3506 H   0  0  0  0  0  0  0  0  0  0  0  0
  131.8752   72.4088  228.1083 H   0  0  0  0  0  0  0  0  0  0  0  0
  1  2  2  0
  2  3  1  0
  3  4  1  0
  4  5  1  0
  5  6  2  0
  5  7  1  0
  7  8  1  0
  8  9  1  0
  9 10  1  0
 10 11  1  0
 11 12  1  0
 12 13  2  0
 13 14  1  0
 14 15  2  0
 15 16  1  0
 15 17  1  0
 17 18  2  0
  2 19  1  0
 19 20  2  0
 20 21  1  0
 21 22  2  0
 22 23  1  0
 23 24  2  0
 24 25  1  0
 24 26  1  0
 26 27  2  0
 27 28  1  0
 28 29  2  0
 11  7  1  0
 18 12  1  0
 29 19  1  0
 28 22  1  0
  4 30  1  0
  4 31  1  0
  8 32  1  0
  8 33  1  0
  9 34  1  0
  9 35  1  0
 10 36  1  0
 10 37  1  0
 11 38  1  1
 13 39  1  0
 14 40  1  0
 17 41  1  0
 18 42  1  0
 20 43  1  0
 21 44  1  0
 23 45  1  0
 26 46  1  0
 27 47  1  0
M  CHG  1   3  -1
M  END
>  <meeko>  (4) 
{"free_energy": -7.86, "intermolecular_energy": -9.65, "internal_energy": -1.61, "cluster_size": 6, "cluster_id": 2, "rank_in_cluster": 5}

$$$$

     RDKit          3D

 47 50  0  0  0  0  0  0  0  0999 V2000
  137.5630   70.8810  221.2660 O   0  0  0  0  0  0  0  0  0  0  0  0
  138.6810   71.3570  221.5930 C   0  0  0  0  0  0  0  0  0  0  0  0
  139.3500   72.2170  220.6570 N   0  0  0  0  0  0  0  0  0  0  0  0
  139.0790   73.6310  220.3970 C   0  0  0  0  0  0  0  0  0  0  0  0
  139.9680   74.5380  221.2140 C   0  0  0  0  0  0  0  0  0  0  0  0
  139.5910   74.9210  222.3550 O   0  0  0  0  0  0  0  0  0  0  0  0
  141.2510   74.9690  220.7170 N   0  0  0  0  0  0  0  0  0  0  0  0
  142.4230   74.1100  220.7660 C   0  0  0  0  0  0  0  0  0  0  0  0
  143.5380   74.8750  220.0610 C   0  0  0  0  0  0  0  0  0  0  0  0
  142.8560   76.0130  219.3050 C   0  0  0  0  0  0  0  0  0  0  0  0
  141.4830   76.1950  219.9610 C   0  0  2  0  0  0  0  0  0  0  0  0
  141.4500   77.4080  220.8730 C   0  0  0  0  0  0  0  0  0  0  0  0
  141.8280   78.6690  220.3820 C   0  0  0  0  0  0  0  0  0  0  0  0
  141.8460   79.7830  221.2290 C   0  0  0  0  0  0  0  0  0  0  0  0
  141.5010   79.6460  222.5770 C   0  0  0  0  0  0  0  0  0  0  0  0
  141.5240   81.0430  223.6400 Cl  0  0  0  0  0  0  0  0  0  0  0  0
  141.1220   78.3970  223.0750 C   0  0  0  0  0  0  0  0  0  0  0  0
  141.0870   77.2850  222.2280 C   0  0  0  0  0  0  0  0  0  0  0  0
  139.2600   70.9960  222.9050 C   0  0  0  0  0  0  0  0  0  0  0  0
  140.1370   71.8750  223.5620 C   0  0  0  0  0  0  0  0  0  0  0  0
  140.6660   71.5250  224.8070 C   0  0  0  0  0  0  0  0  0  0  0  0
  140.3370   70.2930  225.3820 C   0  0  0  0  0  0  0  0  0  0  0  0
  140.8450   69.9120  226.6350 C   0  0  0  0  0  0  0  0  0  0  0  0
  140.5010   68.6670  227.1780 C   0  0  0  0  0  0  0  0  0  0  0  0
  141.1280   68.1950  228.7480 Cl  0  0  0  0  0  0  0  0  0  0  0  0
  139.6630   67.7980  226.4680 C   0  0  0  0  0  0  0  0  0  0  0  0
  139.1560   68.1740  225.2210 C   0  0  0  0  0  0  0  0  0  0  0  0
  139.4780   69.4220  224.6800 C   0  0  0  0  0  0  0  0  0  0  0  0
  138.9660   69.7970  223.4770 N   0  0  0  0  0  0  0  0  0  0  0  0
  139.2493   73.8346  219.3295 H   0  0  0  0  0  0  0  0  0  0  0  0
  138.0355   73.8341  220.6798 H   0  0  0  0  0  0  0  0  0  0  0  0
  142.7021   73.9043  221.8099 H   0  0  0  0  0  0  0  0  0  0  0  0
  142.2317   73.1412  220.2813 H   0  0  0  0  0  0  0  0  0  0  0  0
  144.2496   75.2777  220.7969 H   0  0  0  0  0  0  0  0  0  0  0  0
  144.1057   74.2231  219.3807 H   0  0  0  0  0  0  0  0  0  0  0  0
  143.4464   76.9371  219.3920 H   0  0  0  0  0  0  0  0  0  0  0  0
  142.7625   75.7846  218.2330 H   0  0  0  0  0  0  0  0  0  0  0  0
  140.7020   76.3698  219.2064 H   0  0  0  0  0  0  0  0  0  0  0  0
  142.1116   78.7814  219.3252 H   0  0  0  0  0  0  0  0  0  0  0  0
  142.1322   80.7686  220.8333 H   0  0  0  0  0  0  0  0  0  0  0  0
  140.8506   78.2881  224.1354 H   0  0  0  0  0  0  0  0  0  0  0  0
  140.7737   76.3073  222.6229 H   0  0  0  0  0  0  0  0  0  0  0  0
  140.4063   72.8353  223.0980 H   0  0  0  0  0  0  0  0  0  0  0  0
  141.3397   72.2168  225.3338 H   0  0  0  0  0  0  0  0  0  0  0  0
  141.5115   70.5896  227.1887 H   0  0  0  0  0  0  0  0  0  0  0  0
  139.4032   66.8172  226.8928 H   0  0  0  0  0  0  0  0  0  0  0  0
  138.5023   67.4865  224.6642 H   0  0  0  0  0  0  0  0  0  0  0  0
  1  2  2  0
  2  3  1  0
  3  4  1  0
  4  5  1  0
  5  6  2  0
  5  7  1  0
  7  8  1  0
  8  9  1  0
  9 10  1  0
 10 11  1  0
 11 12  1  0
 12 13  2  0
 13 14  1  0
 14 15  2  0
 15 16  1  0
 15 17  1  0
 17 18  2  0
  2 19  1  0
 19 20  2  0
 20 21  1  0
 21 22  2  0
 22 23  1  0
 23 24  2  0
 24 25  1  0
 24 26  1  0
 26 27  2  0
 27 28  1  0
 28 29  2  0
 11  7  1  0
 18 12  1  0
 29 19  1  0
 28 22  1  0
  4 30  1  0
  4 31  1  0
  8 32  1  0
  8 33  1  0
  9 34  1  0
  9 35  1  0
 10 36  1  0
 10 37  1  0
 11 38  1  6
 13 39  1  0
 14 40  1  0
 17 41  1  0
 18 42  1  0
 20 43  1  0
 21 44  1  0
 23 45  1  0
 26 46  1  0
 27 47  1  0
M  CHG  1   3  -1
M  END
>  <meeko>  (5) 
{"free_energy": -8.36, "intermolecular_energy": -10.15, "internal_energy": -1.26, "cluster_size": 9, "cluster_id": 1, "rank_in_cluster": 5}

$$$$

     RDKit          3D

 47 50  0  0  0  0  0  0  0  0999 V2000
  133.6040   68.5220  226.0920 O   0  0  0  0  0  0  0  0  0  0  0  0
  134.3930   69.2630  225.4510 C   0  0  0  0  0  0  0  0  0  0  0  0
  135.3940   68.6370  224.6320 N   0  0  0  0  0  0  0  0  0  0  0  0
  135.6720   68.8930  223.2180 C   0  0  0  0  0  0  0  0  0  0  0  0
  137.1030   68.5740  222.8560 C   0  0  0  0  0  0  0  0  0  0  0  0
  137.4290   67.3860  222.5820 O   0  0  0  0  0  0  0  0  0  0  0  0
  138.1080   69.6070  222.8050 N   0  0  0  0  0  0  0  0  0  0  0  0
  138.8760   69.8750  221.6010 C   0  0  0  0  0  0  0  0  0  0  0  0
  139.7440   71.0880  221.9140 C   0  0  0  0  0  0  0  0  0  0  0  0
  139.1700   71.7000  223.1900 C   0  0  0  0  0  0  0  0  0  0  0  0
  138.3380   70.5970  223.8520 C   0  0  2  0  0  0  0  0  0  0  0  0
  139.0620   69.9770  225.0330 C   0  0  0  0  0  0  0  0  0  0  0  0
  138.8150   68.6400  225.3890 C   0  0  0  0  0  0  0  0  0  0  0  0
  139.4420   68.0750  226.5050 C   0  0  0  0  0  0  0  0  0  0  0  0
  140.3120   68.8440  227.2850 C   0  0  0  0  0  0  0  0  0  0  0  0
  141.0990   68.1370  228.6850 Cl  0  0  0  0  0  0  0  0  0  0  0  0
  140.5670   70.1740  226.9390 C   0  0  0  0  0  0  0  0  0  0  0  0
  139.9540   70.7360  225.8160 C   0  0  0  0  0  0  0  0  0  0  0  0
  134.2690   70.7310  225.5850 C   0  0  0  0  0  0  0  0  0  0  0  0
  135.0960   71.5850  224.8390 C   0  0  0  0  0  0  0  0  0  0  0  0
  134.9590   72.9700  224.9680 C   0  0  0  0  0  0  0  0  0  0  0  0
  134.0140   73.4970  225.8550 C   0  0  0  0  0  0  0  0  0  0  0  0
  133.8430   74.8830  226.0040 C   0  0  0  0  0  0  0  0  0  0  0  0
  132.8930   75.3760  226.9080 C   0  0  0  0  0  0  0  0  0  0  0  0
  132.6740   77.1080  227.0880 Cl  0  0  0  0  0  0  0  0  0  0  0  0
  132.1230   74.4900  227.6720 C   0  0  0  0  0  0  0  0  0  0  0  0
  132.2900   73.1090  227.5250 C   0  0  0  0  0  0  0  0  0  0  0  0
  133.2220   72.6080  226.6120 C   0  0  0  0  0  0  0  0  0  0  0  0
  133.3670   71.2650  226.4530 N   0  0  0  0  0  0  0  0  0  0  0  0
  135.0035   68.2696  222.6061 H   0  0  0  0  0  0  0  0  0  0  0  0
  135.5037   69.9631  223.0270 H   0  0  0  0  0  0  0  0  0  0  0  0
  139.5063   69.0092  221.3497 H   0  0  0  0  0  0  0  0  0  0  0  0
  138.2190   70.0629  220.7390 H   0  0  0  0  0  0  0  0  0  0  0  0
  140.7877   70.7797  222.0742 H   0  0  0  0  0  0  0  0  0  0  0  0
  139.7403   71.8103  221.0844 H   0  0  0  0  0  0  0  0  0  0  0  0
  139.9824   72.0194  223.8593 H   0  0  0  0  0  0  0  0  0  0  0  0
  138.5590   72.5880  222.9707 H   0  0  0  0  0  0  0  0  0  0  0  0
  137.3970   70.9974  224.2573 H   0  0  0  0  0  0  0  0  0  0  0  0
  138.1236   68.0332  224.7858 H   0  0  0  0  0  0  0  0  0  0  0  0
  139.2505   67.0245  226.7694 H   0  0  0  0  0  0  0  0  0  0  0  0
  141.2513   70.7793  227.5517 H   0  0  0  0  0  0  0  0  0  0  0  0
  140.1696   71.7791  225.5412 H   0  0  0  0  0  0  0  0  0  0  0  0
  135.8491   71.1660  224.1554 H   0  0  0  0  0  0  0  0  0  0  0  0
  135.5929   73.6443  224.3734 H   0  0  0  0  0  0  0  0  0  0  0  0
  134.4539   75.5803  225.4119 H   0  0  0  0  0  0  0  0  0  0  0  0
  131.3858   74.8808  228.3888 H   0  0  0  0  0  0  0  0  0  0  0  0
  131.6864   72.4158  228.1293 H   0  0  0  0  0  0  0  0  0  0  0  0
  1  2  2  0
  2  3  1  0
  3  4  1  0
  4  5  1  0
  5  6  2  0
  5  7  1  0
  7  8  1  0
  8  9  1  0
  9 10  1  0
 10 11  1  0
 11 12  1  0
 12 13  2  0
 13 14  1  0
 14 15  2  0
 15 16  1  0
 15 17  1  0
 17 18  2  0
  2 19  1  0
 19 20  2  0
 20 21  1  0
 21 22  2  0
 22 23  1  0
 23 24  2  0
 24 25  1  0
 24 26  1  0
 26 27  2  0
 27 28  1  0
 28 29  2  0
 11  7  1  0
 18 12  1  0
 29 19  1  0
 28 22  1  0
  4 30  1  0
  4 31  1  0
  8 32  1  0
  8 33  1  0
  9 34  1  0
  9 35  1  0
 10 36  1  0
 10 37  1  0
 11 38  1  1
 13 39  1  0
 14 40  1  0
 17 41  1  0
 18 42  1  0
 20 43  1  0
 21 44  1  0
 23 45  1  0
 26 46  1  0
 27 47  1  0
M  CHG  1   3  -1
M  END
>  <meeko>  (6) 
{"free_energy": -7.92, "intermolecular_energy": -9.71, "internal_energy": -1.57, "cluster_size": 6, "cluster_id": 2, "rank_in_cluster": 4}

$$$$

     RDKit          3D

 47 50  0  0  0  0  0  0  0  0999 V2000
  140.7800   73.8180  221.9670 O   0  0  0  0  0  0  0  0  0  0  0  0
  139.8580   72.9650  222.0330 C   0  0  0  0  0  0  0  0  0  0  0  0
  138.7860   73.0530  221.0800 N   0  0  0  0  0  0  0  0  0  0  0  0
  138.7990   73.7370  219.7870 C   0  0  0  0  0  0  0  0  0  0  0  0
  138.6110   75.2280  219.9330 C   0  0  0  0  0  0  0  0  0  0  0  0
  139.1920   76.0130  219.1330 O   0  0  0  0  0  0  0  0  0  0  0  0
  137.7690   75.7760  220.9670 N   0  0  0  0  0  0  0  0  0  0  0  0
  136.3760   76.1160  220.7250 C   0  0  0  0  0  0  0  0  0  0  0  0
  135.8090   76.5590  222.0680 C   0  0  0  0  0  0  0  0  0  0  0  0
  136.8180   76.1080  223.1220 C   0  0  0  0  0  0  0  0  0  0  0  0
  138.1360   75.8780  222.3750 C   0  0  2  0  0  0  0  0  0  0  0  0
  139.1160   77.0140  222.5980 C   0  0  0  0  0  0  0  0  0  0  0  0
  138.6540   78.2700  223.0280 C   0  0  0  0  0  0  0  0  0  0  0  0
  139.5450   79.3360  223.1910 C   0  0  0  0  0  0  0  0  0  0  0  0
  140.9040   79.1640  222.9130 C   0  0  0  0  0  0  0  0  0  0  0  0
  142.0230   80.5010  223.1170 Cl  0  0  0  0  0  0  0  0  0  0  0  0
  141.3760   77.9190  222.4870 C   0  0  0  0  0  0  0  0  0  0  0  0
  140.4910   76.8470  222.3390 C   0  0  0  0  0  0  0  0  0  0  0  0
  139.9070   71.9340  223.0920 C   0  0  0  0  0  0  0  0  0  0  0  0
  139.4230   70.6390  222.8470 C   0  0  0  0  0  0  0  0  0  0  0  0
  139.4870   69.6720  223.8540 C   0  0  0  0  0  0  0  0  0  0  0  0
  140.0130   70.0050  225.1070 C   0  0  0  0  0  0  0  0  0  0  0  0
  140.1000   69.0570  226.1400 C   0  0  0  0  0  0  0  0  0  0  0  0
  140.6250   69.4280  227.3840 C   0  0  0  0  0  0  0  0  0  0  0  0
  140.7410   68.2400  228.6720 Cl  0  0  0  0  0  0  0  0  0  0  0  0
  141.0500   70.7440  227.6050 C   0  0  0  0  0  0  0  0  0  0  0  0
  140.9660   71.6900  226.5790 C   0  0  0  0  0  0  0  0  0  0  0  0
  140.4610   71.3250  225.3280 C   0  0  0  0  0  0  0  0  0  0  0  0
  140.4010   72.2400  224.3230 N   0  0  0  0  0  0  0  0  0  0  0  0
  139.7643   73.5474  219.2948 H   0  0  0  0  0  0  0  0  0  0  0  0
  137.9630   73.3465  219.1881 H   0  0  0  0  0  0  0  0  0  0  0  0
  136.3044   76.9332  219.9922 H   0  0  0  0  0  0  0  0  0  0  0  0
  135.8188   75.2600  220.3165 H   0  0  0  0  0  0  0  0  0  0  0  0
  135.6945   77.6528  222.0922 H   0  0  0  0  0  0  0  0  0  0  0  0
  134.8157   76.1224  222.2491 H   0  0  0  0  0  0  0  0  0  0  0  0
  136.9440   76.8871  223.8883 H   0  0  0  0  0  0  0  0  0  0  0  0
  136.4822   75.1955  223.6363 H   0  0  0  0  0  0  0  0  0  0  0  0
  138.6447   74.9721  222.7364 H   0  0  0  0  0  0  0  0  0  0  0  0
  137.5841   78.4157  223.2378 H   0  0  0  0  0  0  0  0  0  0  0  0
  139.1753   80.3119  223.5388 H   0  0  0  0  0  0  0  0  0  0  0  0
  142.4453   77.7827  222.2679 H   0  0  0  0  0  0  0  0  0  0  0  0
  140.8708   75.8658  222.0180 H   0  0  0  0  0  0  0  0  0  0  0  0
  138.9949   70.3864  221.8657 H   0  0  0  0  0  0  0  0  0  0  0  0
  139.1246   68.6513  223.6619 H   0  0  0  0  0  0  0  0  0  0  0  0
  139.7565   68.0256  225.9720 H   0  0  0  0  0  0  0  0  0  0  0  0
  141.4506   71.0339  228.5876 H   0  0  0  0  0  0  0  0  0  0  0  0
  141.2980   72.7235  226.7567 H   0  0  0  0  0  0  0  0  0  0  0  0
  1  2  2  0
  2  3  1  0
  3  4  1  0
  4  5  1  0
  5  6  2  0
  5  7  1  0
  7  8  1  0
  8  9  1  0
  9 10  1  0
 10 11  1  0
 11 12  1  0
 12 13  2  0
 13 14  1  0
 14 15  2  0
 15 16  1  0
 15 17  1  0
 17 18  2  0
  2 19  1  0
 19 20  2  0
 20 21  1  0
 21 22  2  0
 22 23  1  0
 23 24  2  0
 24 25  1  0
 24 26  1  0
 26 27  2  0
 27 28  1  0
 28 29  2  0
 11  7  1  0
 18 12  1  0
 29 19  1  0
 28 22  1  0
  4 30  1  0
  4 31  1  0
  8 32  1  0
  8 33  1  0
  9 34  1  0
  9 35  1  0
 10 36  1  0
 10 37  1  0
 11 38  1  1
 13 39  1  0
 14 40  1  0
 17 41  1  0
 18 42  1  0
 20 43  1  0
 21 44  1  0
 23 45  1  0
 26 46  1  0
 27 47  1  0
M  CHG  1   3  -1
M  END
>  <meeko>  (7) 
{"free_energy": -7.66, "intermolecular_energy": -9.45, "internal_energy": -1.67, "cluster_size": 9, "cluster_id": 1, "rank_in_cluster": 9}

$$$$

     RDKit          3D

 47 50  0  0  0  0  0  0  0  0999 V2000
  136.0050   75.8080  222.0970 O   0  0  0  0  0  0  0  0  0  0  0  0
  137.1400   75.2750  221.9960 C   0  0  0  0  0  0  0  0  0  0  0  0
  137.2060   73.8800  221.6620 N   0  0  0  0  0  0  0  0  0  0  0  0
  136.4790   72.7790  222.2940 C   0  0  0  0  0  0  0  0  0  0  0  0
  137.3920   71.8830  223.0960 C   0  0  0  0  0  0  0  0  0  0  0  0
  136.9700   71.3530  224.1610 O   0  0  0  0  0  0  0  0  0  0  0  0
  138.7390   71.6090  222.6610 N   0  0  0  0  0  0  0  0  0  0  0  0
  139.0260   71.0480  221.3510 C   0  0  0  0  0  0  0  0  0  0  0  0
  140.5450   71.0070  221.2320 C   0  0  0  0  0  0  0  0  0  0  0  0
  141.0800   71.8940  222.3540 C   0  0  0  0  0  0  0  0  0  0  0  0
  139.9440   72.0200  223.3740 C   0  0  2  0  0  0  0  0  0  0  0  0
  140.1790   71.1430  224.5900 C   0  0  0  0  0  0  0  0  0  0  0  0
  139.7430   69.8070  224.5900 C   0  0  0  0  0  0  0  0  0  0  0  0
  139.9140   69.0060  225.7250 C   0  0  0  0  0  0  0  0  0  0  0  0
  140.5080   69.5350  226.8750 C   0  0  0  0  0  0  0  0  0  0  0  0
  140.7220   68.5310  228.2990 Cl  0  0  0  0  0  0  0  0  0  0  0  0
  140.9470   70.8620  226.8850 C   0  0  0  0  0  0  0  0  0  0  0  0
  140.7920   71.6600  225.7480 C   0  0  0  0  0  0  0  0  0  0  0  0
  138.3450   76.0990  222.2430 C   0  0  0  0  0  0  0  0  0  0  0  0
  139.6250   75.5720  222.0150 C   0  0  0  0  0  0  0  0  0  0  0  0
  140.7530   76.3660  222.2420 C   0  0  0  0  0  0  0  0  0  0  0  0
  140.6000   77.6730  222.7160 C   0  0  0  0  0  0  0  0  0  0  0  0
  141.7100   78.5020  222.9480 C   0  0  0  0  0  0  0  0  0  0  0  0
  141.5200   79.8030  223.4310 C   0  0  0  0  0  0  0  0  0  0  0  0
  142.9080   80.8410  223.7130 Cl  0  0  0  0  0  0  0  0  0  0  0  0
  140.2280   80.2740  223.6950 C   0  0  0  0  0  0  0  0  0  0  0  0
  139.1210   79.4520  223.4640 C   0  0  0  0  0  0  0  0  0  0  0  0
  139.2990   78.1590  222.9640 C   0  0  0  0  0  0  0  0  0  0  0  0
  138.2200   77.3680  222.7190 N   0  0  0  0  0  0  0  0  0  0  0  0
  135.7140   73.1975  222.9645 H   0  0  0  0  0  0  0  0  0  0  0  0
  136.0226   72.1727  221.4977 H   0  0  0  0  0  0  0  0  0  0  0  0
  138.6093   70.0331  221.2707 H   0  0  0  0  0  0  0  0  0  0  0  0
  138.5763   71.6510  220.5484 H   0  0  0  0  0  0  0  0  0  0  0  0
  140.9100   69.9764  221.3527 H   0  0  0  0  0  0  0  0  0  0  0  0
  140.8812   71.3590  220.2455 H   0  0  0  0  0  0  0  0  0  0  0  0
  141.9618   71.4300  222.8200 H   0  0  0  0  0  0  0  0  0  0  0  0
  141.3905   72.8787  221.9746 H   0  0  0  0  0  0  0  0  0  0  0  0
  139.8670   73.0474  223.7593 H   0  0  0  0  0  0  0  0  0  0  0  0
  139.2644   69.3882  223.6925 H   0  0  0  0  0  0  0  0  0  0  0  0
  139.5803   67.9579  225.7123 H   0  0  0  0  0  0  0  0  0  0  0  0
  141.4151   71.2789  227.7889 H   0  0  0  0  0  0  0  0  0  0  0  0
  141.1514   72.6996  225.7576 H   0  0  0  0  0  0  0  0  0  0  0  0
  139.7407   74.5377  221.6589 H   0  0  0  0  0  0  0  0  0  0  0  0
  141.7584   75.9639  222.0483 H   0  0  0  0  0  0  0  0  0  0  0  0
  142.7263   78.1303  222.7508 H   0  0  0  0  0  0  0  0  0  0  0  0
  140.0838   81.2925  224.0848 H   0  0  0  0  0  0  0  0  0  0  0  0
  138.1077   79.8237  223.6762 H   0  0  0  0  0  0  0  0  0  0  0  0
  1  2  2  0
  2  3  1  0
  3  4  1  0
  4  5  1  0
  5  6  2  0
  5  7  1  0
  7  8  1  0
  8  9  1  0
  9 10  1  0
 10 11  1  0
 11 12  1  0
 12 13  2  0
 13 14  1  0
 14 15  2  0
 15 16  1  0
 15 17  1  0
 17 18  2  0
  2 19  1  0
 19 20  2  0
 20 21  1  0
 21 22  2  0
 22 23  1  0
 23 24  2  0
 24 25  1  0
 24 26  1  0
 26 27  2  0
 27 28  1  0
 28 29  2  0
 11  7  1  0
 18 12  1  0
 29 19  1  0
 28 22  1  0
  4 30  1  0
  4 31  1  0
  8 32  1  0
  8 33  1  0
  9 34  1  0
  9 35  1  0
 10 36  1  0
 10 37  1  0
 11 38  1  1
 13 39  1  0
 14 40  1  0
 17 41  1  0
 18 42  1  0
 20 43  1  0
 21 44  1  0
 23 45  1  0
 26 46  1  0
 27 47  1  0
M  CHG  1   3  -1
M  END
>  <meeko>  (8) 
{"free_energy": -7.63, "intermolecular_energy": -9.42, "internal_energy": -1.64, "cluster_size": 1, "cluster_id": 4, "rank_in_cluster": 1}

$$$$

     RDKit          3D

 47 50  0  0  0  0  0  0  0  0999 V2000
  141.1230   74.4240  221.9460 O   0  0  0  0  0  0  0  0  0  0  0  0
  139.9780   73.9090  221.8660 C   0  0  0  0  0  0  0  0  0  0  0  0
  139.0040   74.5520  221.0290 N   0  0  0  0  0  0  0  0  0  0  0  0
  138.6880   75.9790  220.9660 C   0  0  0  0  0  0  0  0  0  0  0  0
  138.7080   76.6250  222.3300 C   0  0  0  0  0  0  0  0  0  0  0  0
  137.9450   76.1930  223.2380 O   0  0  0  0  0  0  0  0  0  0  0  0
  139.5940   77.7250  222.6220 N   0  0  0  0  0  0  0  0  0  0  0  0
  139.1190   78.9530  223.2380 C   0  0  0  0  0  0  0  0  0  0  0  0
  140.3540   79.8130  223.4740 C   0  0  0  0  0  0  0  0  0  0  0  0
  141.5540   78.8820  223.3100 C   0  0  0  0  0  0  0  0  0  0  0  0
  141.0480   77.6740  222.5150 C   0  0  2  0  0  0  0  0  0  0  0  0
  141.4870   77.7300  221.0640 C   0  0  0  0  0  0  0  0  0  0  0  0
  141.3710   78.9280  220.3380 C   0  0  0  0  0  0  0  0  0  0  0  0
  141.7290   78.9760  218.9860 C   0  0  0  0  0  0  0  0  0  0  0  0
  142.1940   77.8260  218.3420 C   0  0  0  0  0  0  0  0  0  0  0  0
  142.6430   77.8850  216.6460 Cl  0  0  0  0  0  0  0  0  0  0  0  0
  142.3150   76.6290  219.0540 C   0  0  0  0  0  0  0  0  0  0  0  0
  141.9730   76.5820  220.4090 C   0  0  0  0  0  0  0  0  0  0  0  0
  139.6830   72.6880  222.6480 C   0  0  0  0  0  0  0  0  0  0  0  0
  138.5140   71.9510  222.4010 C   0  0  0  0  0  0  0  0  0  0  0  0
  138.2550   70.7930  223.1390 C   0  0  0  0  0  0  0  0  0  0  0  0
  139.1510   70.3860  224.1340 C   0  0  0  0  0  0  0  0  0  0  0  0
  138.9270   69.2240  224.8900 C   0  0  0  0  0  0  0  0  0  0  0  0
  139.8410   68.8510  225.8840 C   0  0  0  0  0  0  0  0  0  0  0  0
  139.5650   67.3930  226.8220 Cl  0  0  0  0  0  0  0  0  0  0  0  0
  140.9700   69.6410  226.1330 C   0  0  0  0  0  0  0  0  0  0  0  0
  141.1960   70.7990  225.3820 C   0  0  0  0  0  0  0  0  0  0  0  0
  140.3000   71.1680  224.3760 C   0  0  0  0  0  0  0  0  0  0  0  0
  140.5330   72.2820  223.6300 N   0  0  0  0  0  0  0  0  0  0  0  0
  139.4299   76.4788  220.3258 H   0  0  0  0  0  0  0  0  0  0  0  0
  137.6726   76.0836  220.5562 H   0  0  0  0  0  0  0  0  0  0  0  0
  138.4167   79.4696  222.5673 H   0  0  0  0  0  0  0  0  0  0  0  0
  138.5851   78.7503  224.1781 H   0  0  0  0  0  0  0  0  0  0  0  0
  140.3989   80.6277  222.7363 H   0  0  0  0  0  0  0  0  0  0  0  0
  140.3373   80.2763  224.4715 H   0  0  0  0  0  0  0  0  0  0  0  0
  142.3597   79.3907  222.7603 H   0  0  0  0  0  0  0  0  0  0  0  0
  141.9640   78.5789  224.2847 H   0  0  0  0  0  0  0  0  0  0  0  0
  141.4597   76.7347  222.9127 H   0  0  0  0  0  0  0  0  0  0  0  0
  140.9961   79.8343  220.8361 H   0  0  0  0  0  0  0  0  0  0  0  0
  141.6443   79.9207  218.4290 H   0  0  0  0  0  0  0  0  0  0  0  0
  142.6797   75.7231  218.5477 H   0  0  0  0  0  0  0  0  0  0  0  0
  142.0845   75.6410  220.9677 H   0  0  0  0  0  0  0  0  0  0  0  0
  137.8044   72.2839  221.6292 H   0  0  0  0  0  0  0  0  0  0  0  0
  137.3488   70.2026  222.9383 H   0  0  0  0  0  0  0  0  0  0  0  0
  138.0354   68.6077  224.7020 H   0  0  0  0  0  0  0  0  0  0  0  0
  141.6805   69.3503  226.9208 H   0  0  0  0  0  0  0  0  0  0  0  0
  142.0810   71.4203  225.5840 H   0  0  0  0  0  0  0  0  0  0  0  0
  1  2  2  0
  2  3  1  0
  3  4  1  0
  4  5  1  0
  5  6  2  0
  5  7  1  0
  7  8  1  0
  8  9  1  0
  9 10  1  0
 10 11  1  0
 11 12  1  0
 12 13  2  0
 13 14  1  0
 14 15  2  0
 15 16  1  0
 15 17  1  0
 17 18  2  0
  2 19  1  0
 19 20  2  0
 20 21  1  0
 21 22  2  0
 22 23  1  0
 23 24  2  0
 24 25  1  0
 24 26  1  0
 26 27  2  0
 27 28  1  0
 28 29  2  0
 11  7  1  0
 18 12  1  0
 29 19  1  0
 28 22  1  0
  4 30  1  0
  4 31  1  0
  8 32  1  0
  8 33  1  0
  9 34  1  0
  9 35  1  0
 10 36  1  0
 10 37  1  0
 11 38  1  1
 13 39  1  0
 14 40  1  0
 17 41  1  0
 18 42  1  0
 20 43  1  0
 21 44  1  0
 23 45  1  0
 26 46  1  0
 27 47  1  0
M  CHG  1   3  -1
M  END
>  <meeko>  (9) 
{"free_energy": -7.38, "intermolecular_energy": -9.17, "internal_energy": -1.54, "cluster_size": 1, "cluster_id": 5, "rank_in_cluster": 1}

$$$$

     RDKit          3D

 47 50  0  0  0  0  0  0  0  0999 V2000
  140.1800   72.2500  220.7480 O   0  0  0  0  0  0  0  0  0  0  0  0
  139.9310   72.6380  221.9180 C   0  0  0  0  0  0  0  0  0  0  0  0
  139.6430   74.0300  222.1230 N   0  0  0  0  0  0  0  0  0  0  0  0
  140.5530   75.1620  221.9430 C   0  0  0  0  0  0  0  0  0  0  0  0
  140.2880   75.9030  220.6550 C   0  0  0  0  0  0  0  0  0  0  0  0
  139.1130   75.9620  220.1970 O   0  0  0  0  0  0  0  0  0  0  0  0
  141.3540   76.5600  219.9390 N   0  0  0  0  0  0  0  0  0  0  0  0
  142.4780   75.8210  219.3860 C   0  0  0  0  0  0  0  0  0  0  0  0
  143.3200   76.8400  218.6270 C   0  0  0  0  0  0  0  0  0  0  0  0
  142.4430   78.0800  218.4700 C   0  0  0  0  0  0  0  0  0  0  0  0
  141.3450   77.9610  219.5320 C   0  0  2  0  0  0  0  0  0  0  0  0
  141.6070   78.8710  220.7180 C   0  0  0  0  0  0  0  0  0  0  0  0
  141.8270   80.2440  220.5170 C   0  0  0  0  0  0  0  0  0  0  0  0
  142.1160   81.0820  221.6010 C   0  0  0  0  0  0  0  0  0  0  0  0
  142.2010   80.5540  222.8930 C   0  0  0  0  0  0  0  0  0  0  0  0
  142.5640   81.6040  224.2520 Cl  0  0  0  0  0  0  0  0  0  0  0  0
  141.9820   79.1900  223.1040 C   0  0  0  0  0  0  0  0  0  0  0  0
  141.6770   78.3540  222.0260 C   0  0  0  0  0  0  0  0  0  0  0  0
  139.9660   71.6550  223.0240 C   0  0  0  0  0  0  0  0  0  0  0  0
  139.4760   70.3540  222.8340 C   0  0  0  0  0  0  0  0  0  0  0  0
  139.5270   69.4330  223.8850 C   0  0  0  0  0  0  0  0  0  0  0  0
  140.0460   69.8200  225.1250 C   0  0  0  0  0  0  0  0  0  0  0  0
  140.1190   68.9200  226.2010 C   0  0  0  0  0  0  0  0  0  0  0  0
  140.6370   69.3430  227.4310 C   0  0  0  0  0  0  0  0  0  0  0  0
  140.7370   68.2150  228.7720 Cl  0  0  0  0  0  0  0  0  0  0  0  0
  141.0690   70.6660  227.5950 C   0  0  0  0  0  0  0  0  0  0  0  0
  140.9970   71.5650  226.5260 C   0  0  0  0  0  0  0  0  0  0  0  0
  140.5000   71.1450  225.2890 C   0  0  0  0  0  0  0  0  0  0  0  0
  140.4530   72.0140  224.2430 N   0  0  0  0  0  0  0  0  0  0  0  0
  140.4250   75.8577  222.7854 H   0  0  0  0  0  0  0  0  0  0  0  0
  141.5796   74.7689  221.9031 H   0  0  0  0  0  0  0  0  0  0  0  0
  143.0684   75.3631  220.1933 H   0  0  0  0  0  0  0  0  0  0  0  0
  142.1397   75.0078  218.7270 H   0  0  0  0  0  0  0  0  0  0  0  0
  144.2287   77.0846  219.1965 H   0  0  0  0  0  0  0  0  0  0  0  0
  143.6416   76.4486  217.6506 H   0  0  0  0  0  0  0  0  0  0  0  0
  143.0369   78.9911  218.6353 H   0  0  0  0  0  0  0  0  0  0  0  0
  142.0176   78.1459  217.4577 H   0  0  0  0  0  0  0  0  0  0  0  0
  140.3682   78.2697  219.1313 H   0  0  0  0  0  0  0  0  0  0  0  0
  141.7719   80.6634  219.5016 H   0  0  0  0  0  0  0  0  0  0  0  0
  142.2764   82.1576  221.4359 H   0  0  0  0  0  0  0  0  0  0  0  0
  142.0497   78.7736  224.1199 H   0  0  0  0  0  0  0  0  0  0  0  0
  141.4903   77.2841  222.2008 H   0  0  0  0  0  0  0  0  0  0  0  0
  139.0534   70.0597  221.8620 H   0  0  0  0  0  0  0  0  0  0  0  0
  139.1599   68.4067  223.7370 H   0  0  0  0  0  0  0  0  0  0  0  0
  139.7697   67.8843  226.0774 H   0  0  0  0  0  0  0  0  0  0  0  0
  141.4653   70.9979  228.5660 H   0  0  0  0  0  0  0  0  0  0  0  0
  141.3320   72.6043  226.6590 H   0  0  0  0  0  0  0  0  0  0  0  0
  1  2  2  0
  2  3  1  0
  3  4  1  0
  4  5  1  0
  5  6  2  0
  5  7  1  0
  7  8  1  0
  8  9  1  0
  9 10  1  0
 10 11  1  0
 11 12  1  0
 12 13  2  0
 13 14  1  0
 14 15  2  0
 15 16  1  0
 15 17  1  0
 17 18  2  0
  2 19  1  0
 19 20  2  0
 20 21  1  0
 21 22  2  0
 22 23  1  0
 23 24  2  0
 24 25  1  0
 24 26  1  0
 26 27  2  0
 27 28  1  0
 28 29  2  0
 11  7  1  0
 18 12  1  0
 29 19  1  0
 28 22  1  0
  4 30  1  0
  4 31  1  0
  8 32  1  0
  8 33  1  0
  9 34  1  0
  9 35  1  0
 10 36  1  0
 10 37  1  0
 11 38  1  6
 13 39  1  0
 14 40  1  0
 17 41  1  0
 18 42  1  0
 20 43  1  0
 21 44  1  0
 23 45  1  0
 26 46  1  0
 27 47  1  0
M  CHG  1   3  -1
M  END
>  <meeko>  (10) 
{"free_energy": -8.47, "intermolecular_energy": -10.26, "internal_energy": -1.06, "cluster_size": 9, "cluster_id": 1, "rank_in_cluster": 3}

$$$$

     RDKit          3D

 47 50  0  0  0  0  0  0  0  0999 V2000
  139.5460   73.7190  222.3410 O   0  0  0  0  0  0  0  0  0  0  0  0
  139.7090   72.5010  222.0710 C   0  0  0  0  0  0  0  0  0  0  0  0
  139.7700   72.1180  220.6880 N   0  0  0  0  0  0  0  0  0  0  0  0
  140.3820   72.8590  219.5850 C   0  0  0  0  0  0  0  0  0  0  0  0
  141.7560   72.3350  219.2420 C   0  0  0  0  0  0  0  0  0  0  0  0
  141.8800   71.4280  218.3730 O   0  0  0  0  0  0  0  0  0  0  0  0
  142.9360   72.8610  219.8830 N   0  0  0  0  0  0  0  0  0  0  0  0
  143.7310   72.0650  220.8030 C   0  0  0  0  0  0  0  0  0  0  0  0
  144.9320   72.9250  221.1780 C   0  0  0  0  0  0  0  0  0  0  0  0
  144.9670   74.0660  220.1630 C   0  0  0  0  0  0  0  0  0  0  0  0
  143.5610   74.1380  219.5570 C   0  0  2  0  0  0  0  0  0  0  0  0
  142.7600   75.2940  220.1270 C   0  0  0  0  0  0  0  0  0  0  0  0
  141.8510   75.0730  221.1750 C   0  0  0  0  0  0  0  0  0  0  0  0
  141.0740   76.1240  221.6740 C   0  0  0  0  0  0  0  0  0  0  0  0
  141.1880   77.4040  221.1230 C   0  0  0  0  0  0  0  0  0  0  0  0
  140.2130   78.7230  221.7480 Cl  0  0  0  0  0  0  0  0  0  0  0  0
  142.0910   77.6360  220.0820 C   0  0  0  0  0  0  0  0  0  0  0  0
  142.8790   76.5920  219.5920 C   0  0  0  0  0  0  0  0  0  0  0  0
  139.8100   71.5260  223.1790 C   0  0  0  0  0  0  0  0  0  0  0  0
  139.3650   70.2060  223.0070 C   0  0  0  0  0  0  0  0  0  0  0  0
  139.4780   69.2930  224.0590 C   0  0  0  0  0  0  0  0  0  0  0  0
  140.0130   69.7050  225.2840 C   0  0  0  0  0  0  0  0  0  0  0  0
  140.1480   68.8130  226.3610 C   0  0  0  0  0  0  0  0  0  0  0  0
  140.6800   69.2620  227.5760 C   0  0  0  0  0  0  0  0  0  0  0  0
  140.8570   68.1450  228.9190 Cl  0  0  0  0  0  0  0  0  0  0  0  0
  141.0650   70.6010  227.7240 C   0  0  0  0  0  0  0  0  0  0  0  0
  140.9320   71.4910  226.6540 C   0  0  0  0  0  0  0  0  0  0  0  0
  140.4200   71.0480  225.4310 C   0  0  0  0  0  0  0  0  0  0  0  0
  140.3130   71.9090  224.3840 N   0  0  0  0  0  0  0  0  0  0  0  0
  139.7374   72.7714  218.6980 H   0  0  0  0  0  0  0  0  0  0  0  0
  140.4881   73.9078  219.8992 H   0  0  0  0  0  0  0  0  0  0  0  0
  143.1437   71.8180  221.6996 H   0  0  0  0  0  0  0  0  0  0  0  0
  144.0445   71.1154  220.3448 H   0  0  0  0  0  0  0  0  0  0  0  0
  144.8137   73.3232  222.1966 H   0  0  0  0  0  0  0  0  0  0  0  0
  145.8651   72.3427  221.1615 H   0  0  0  0  0  0  0  0  0  0  0  0
  145.2166   75.0138  220.6623 H   0  0  0  0  0  0  0  0  0  0  0  0
  145.7299   73.8931  219.3896 H   0  0  0  0  0  0  0  0  0  0  0  0
  143.6036   74.3133  218.4719 H   0  0  0  0  0  0  0  0  0  0  0  0
  141.7494   74.0663  221.6064 H   0  0  0  0  0  0  0  0  0  0  0  0
  140.3721   75.9430  222.5014 H   0  0  0  0  0  0  0  0  0  0  0  0
  142.1814   78.6426  219.6477 H   0  0  0  0  0  0  0  0  0  0  0  0
  143.5980   76.7847  218.7821 H   0  0  0  0  0  0  0  0  0  0  0  0
  138.9288   69.8912  222.0475 H   0  0  0  0  0  0  0  0  0  0  0  0
  139.1470   68.2527  223.9240 H   0  0  0  0  0  0  0  0  0  0  0  0
  139.8364   67.7639  226.2500 H   0  0  0  0  0  0  0  0  0  0  0  0
  141.4725   70.9525  228.6834 H   0  0  0  0  0  0  0  0  0  0  0  0
  141.2311   72.5426  226.7748 H   0  0  0  0  0  0  0  0  0  0  0  0
  1  2  2  0
  2  3  1  0
  3  4  1  0
  4  5  1  0
  5  6  2  0
  5  7  1  0
  7  8  1  0
  8  9  1  0
  9 10  1  0
 10 11  1  0
 11 12  1  0
 12 13  2  0
 13 14  1  0
 14 15  2  0
 15 16  1  0
 15 17  1  0
 17 18  2  0
  2 19  1  0
 19 20  2  0
 20 21  1  0
 21 22  2  0
 22 23  1  0
 23 24  2  0
 24 25  1  0
 24 26  1  0
 26 27  2  0
 27 28  1  0
 28 29  2  0
 11  7  1  0
 18 12  1  0
 29 19  1  0
 28 22  1  0
  4 30  1  0
  4 31  1  0
  8 32  1  0
  8 33  1  0
  9 34  1  0
  9 35  1  0
 10 36  1  0
 10 37  1  0
 11 38  1  6
 13 39  1  0
 14 40  1  0
 17 41  1  0
 18 42  1  0
 20 43  1  0
 21 44  1  0
 23 45  1  0
 26 46  1  0
 27 47  1  0
M  CHG  1   3  -1
M  END
>  <meeko>  (11) 
{"free_energy": -7.86, "intermolecular_energy": -9.65, "internal_energy": -1.53, "cluster_size": 1, "cluster_id": 3, "rank_in_cluster": 1}

$$$$

     RDKit          3D

 47 50  0  0  0  0  0  0  0  0999 V2000
  139.4440   72.1030  220.7420 O   0  0  0  0  0  0  0  0  0  0  0  0
  139.8590   72.4980  221.8620 C   0  0  0  0  0  0  0  0  0  0  0  0
  140.3120   73.8570  221.9740 N   0  0  0  0  0  0  0  0  0  0  0  0
  139.4980   75.0480  222.2160 C   0  0  0  0  0  0  0  0  0  0  0  0
  139.5630   76.0230  221.0660 C   0  0  0  0  0  0  0  0  0  0  0  0
  138.5050   76.5690  220.6460 O   0  0  0  0  0  0  0  0  0  0  0  0
  140.8200   76.3540  220.4400 N   0  0  0  0  0  0  0  0  0  0  0  0
  141.8170   75.3420  220.1320 C   0  0  0  0  0  0  0  0  0  0  0  0
  142.9380   76.0620  219.3930 C   0  0  0  0  0  0  0  0  0  0  0  0
  142.3680   77.4190  218.9820 C   0  0  0  0  0  0  0  0  0  0  0  0
  141.1560   77.6620  219.8870 C   0  0  2  0  0  0  0  0  0  0  0  0
  141.4670   78.6530  220.9920 C   0  0  0  0  0  0  0  0  0  0  0  0
  141.8150   79.9770  220.6740 C   0  0  0  0  0  0  0  0  0  0  0  0
  142.1500   80.8850  221.6850 C   0  0  0  0  0  0  0  0  0  0  0  0
  142.1540   80.4770  223.0220 C   0  0  0  0  0  0  0  0  0  0  0  0
  142.5740   81.6140  224.2910 Cl  0  0  0  0  0  0  0  0  0  0  0  0
  141.8070   79.1630  223.3500 C   0  0  0  0  0  0  0  0  0  0  0  0
  141.4570   78.2580  222.3440 C   0  0  0  0  0  0  0  0  0  0  0  0
  139.8820   71.5490  222.9960 C   0  0  0  0  0  0  0  0  0  0  0  0
  139.3310   70.2650  222.8600 C   0  0  0  0  0  0  0  0  0  0  0  0
  139.3700   69.3750  223.9370 C   0  0  0  0  0  0  0  0  0  0  0  0
  139.9390   69.7760  225.1510 C   0  0  0  0  0  0  0  0  0  0  0  0
  140.0030   68.9060  226.2520 C   0  0  0  0  0  0  0  0  0  0  0  0
  140.5720   69.3430  227.4550 C   0  0  0  0  0  0  0  0  0  0  0  0
  140.6590   68.2530  228.8280 Cl  0  0  0  0  0  0  0  0  0  0  0  0
  141.0650   70.6500  227.5660 C   0  0  0  0  0  0  0  0  0  0  0  0
  141.0030   71.5180  226.4720 C   0  0  0  0  0  0  0  0  0  0  0  0
  140.4550   71.0840  225.2620 C   0  0  0  0  0  0  0  0  0  0  0  0
  140.4170   71.9230  224.1910 N   0  0  0  0  0  0  0  0  0  0  0  0
  138.4521   74.7394  222.3608 H   0  0  0  0  0  0  0  0  0  0  0  0
  139.8927   75.5522  223.1104 H   0  0  0  0  0  0  0  0  0  0  0  0
  142.2000   74.8894  221.0585 H   0  0  0  0  0  0  0  0  0  0  0  0
  141.3908   74.5313  219.5228 H   0  0  0  0  0  0  0  0  0  0  0  0
  143.8067   76.1968  220.0542 H   0  0  0  0  0  0  0  0  0  0  0  0
  143.2790   75.4870  218.5195 H   0  0  0  0  0  0  0  0  0  0  0  0
  143.1190   78.2091  219.1293 H   0  0  0  0  0  0  0  0  0  0  0  0
  142.0849   77.4309  217.9191 H   0  0  0  0  0  0  0  0  0  0  0  0
  140.3197   78.1003  219.3227 H   0  0  0  0  0  0  0  0  0  0  0  0
  141.8242   80.3019  219.6231 H   0  0  0  0  0  0  0  0  0  0  0  0
  142.4107   81.9220  221.4269 H   0  0  0  0  0  0  0  0  0  0  0  0
  141.8094   78.8408  224.4018 H   0  0  0  0  0  0  0  0  0  0  0  0
  141.1716   77.2295  222.6101 H   0  0  0  0  0  0  0  0  0  0  0  0
  138.8700   69.9603  221.9089 H   0  0  0  0  0  0  0  0  0  0  0  0
  138.9545   68.3620  223.8306 H   0  0  0  0  0  0  0  0  0  0  0  0
  139.6069   67.8831  226.1696 H   0  0  0  0  0  0  0  0  0  0  0  0
  141.5015   70.9935  228.5155 H   0  0  0  0  0  0  0  0  0  0  0  0
  141.3864   72.5449  226.5638 H   0  0  0  0  0  0  0  0  0  0  0  0
  1  2  2  0
  2  3  1  0
  3  4  1  0
  4  5  1  0
  5  6  2  0
  5  7  1  0
  7  8  1  0
  8  9  1  0
  9 10  1  0
 10 11  1  0
 11 12  1  0
 12 13  2  0
 13 14  1  0
 14 15  2  0
 15 16  1  0
 15 17  1  0
 17 18  2  0
  2 19  1  0
 19 20  2  0
 20 21  1  0
 21 22  2  0
 22 23  1  0
 23 24  2  0
 24 25  1  0
 24 26  1  0
 26 27  2  0
 27 28  1  0
 28 29  2  0
 11  7  1  0
 18 12  1  0
 29 19  1  0
 28 22  1  0
  4 30  1  0
  4 31  1  0
  8 32  1  0
  8 33  1  0
  9 34  1  0
  9 35  1  0
 10 36  1  0
 10 37  1  0
 11 38  1  6
 13 39  1  0
 14 40  1  0
 17 41  1  0
 18 42  1  0
 20 43  1  0
 21 44  1  0
 23 45  1  0
 26 46  1  0
 27 47  1  0
M  CHG  1   3  -1
M  END
>  <meeko>  (12) 
{"free_energy": -8.65, "intermolecular_energy": -10.44, "internal_energy": -1.11, "cluster_size": 9, "cluster_id": 1, "rank_in_cluster": 1}

$$$$

     RDKit          3D

 47 50  0  0  0  0  0  0  0  0999 V2000
  133.9750   68.2390  226.4590 O   0  0  0  0  0  0  0  0  0  0  0  0
  134.3910   69.1590  225.7090 C   0  0  0  0  0  0  0  0  0  0  0  0
  135.2560   68.8050  224.6190 N   0  0  0  0  0  0  0  0  0  0  0  0
  135.7280   69.6730  223.5400 C   0  0  0  0  0  0  0  0  0  0  0  0
  137.0050   69.1610  222.9170 C   0  0  0  0  0  0  0  0  0  0  0  0
  137.0440   67.9930  222.4410 O   0  0  0  0  0  0  0  0  0  0  0  0
  138.1840   69.9880  222.8450 N   0  0  0  0  0  0  0  0  0  0  0  0
  139.0000   70.0620  221.6450 C   0  0  0  0  0  0  0  0  0  0  0  0
  140.0750   71.1050  221.9270 C   0  0  0  0  0  0  0  0  0  0  0  0
  139.6110   71.8630  223.1690 C   0  0  0  0  0  0  0  0  0  0  0  0
  138.5830   70.9600  223.8580 C   0  0  2  0  0  0  0  0  0  0  0  0
  139.1670   70.2660  225.0740 C   0  0  0  0  0  0  0  0  0  0  0  0
  140.0740   70.9450  225.9050 C   0  0  0  0  0  0  0  0  0  0  0  0
  140.6540   70.2970  227.0020 C   0  0  0  0  0  0  0  0  0  0  0  0
  140.3450   68.9600  227.2710 C   0  0  0  0  0  0  0  0  0  0  0  0
  141.0720   68.1460  228.6450 Cl  0  0  0  0  0  0  0  0  0  0  0  0
  139.4420   68.2750  226.4520 C   0  0  0  0  0  0  0  0  0  0  0  0
  138.8490   68.9250  225.3660 C   0  0  0  0  0  0  0  0  0  0  0  0
  133.9890   70.5550  225.9940 C   0  0  0  0  0  0  0  0  0  0  0  0
  132.9010   70.8230  226.8390 C   0  0  0  0  0  0  0  0  0  0  0  0
  132.5420   72.1470  227.1070 C   0  0  0  0  0  0  0  0  0  0  0  0
  133.2540   73.1960  226.5170 C   0  0  0  0  0  0  0  0  0  0  0  0
  132.9260   74.5380  226.7700 C   0  0  0  0  0  0  0  0  0  0  0  0
  133.6550   75.5630  226.1550 C   0  0  0  0  0  0  0  0  0  0  0  0
  133.2500   77.2400  226.4790 Cl  0  0  0  0  0  0  0  0  0  0  0  0
  134.7030   75.2520  225.2780 C   0  0  0  0  0  0  0  0  0  0  0  0
  135.0330   73.9170  225.0240 C   0  0  0  0  0  0  0  0  0  0  0  0
  134.3230   72.8880  225.6480 C   0  0  0  0  0  0  0  0  0  0  0  0
  134.6590   71.5900  225.4180 N   0  0  0  0  0  0  0  0  0  0  0  0
  134.9512   69.7275  222.7630 H   0  0  0  0  0  0  0  0  0  0  0  0
  135.9339   70.6650  223.9685 H   0  0  0  0  0  0  0  0  0  0  0  0
  139.4613   69.0854  221.4365 H   0  0  0  0  0  0  0  0  0  0  0  0
  138.3973   70.3343  220.7660 H   0  0  0  0  0  0  0  0  0  0  0  0
  141.0417   70.6157  222.1169 H   0  0  0  0  0  0  0  0  0  0  0  0
  140.2143   71.7815  221.0709 H   0  0  0  0  0  0  0  0  0  0  0  0
  140.4617   72.0541  223.8397 H   0  0  0  0  0  0  0  0  0  0  0  0
  139.1765   72.8386  222.9056 H   0  0  0  0  0  0  0  0  0  0  0  0
  137.7284   71.5431  224.2317 H   0  0  0  0  0  0  0  0  0  0  0  0
  140.3302   71.9933  225.6920 H   0  0  0  0  0  0  0  0  0  0  0  0
  141.3541   70.8405  227.6535 H   0  0  0  0  0  0  0  0  0  0  0  0
  139.1981   67.2233  226.6627 H   0  0  0  0  0  0  0  0  0  0  0  0
  138.1282   68.3852  224.7343 H   0  0  0  0  0  0  0  0  0  0  0  0
  132.3333   69.9949  227.2884 H   0  0  0  0  0  0  0  0  0  0  0  0
  131.7003   72.3636  227.7813 H   0  0  0  0  0  0  0  0  0  0  0  0
  132.0974   74.7835  227.4505 H   0  0  0  0  0  0  0  0  0  0  0  0
  135.2671   76.0596  224.7885 H   0  0  0  0  0  0  0  0  0  0  0  0
  135.8532   73.6765  224.3316 H   0  0  0  0  0  0  0  0  0  0  0  0
  1  2  2  0
  2  3  1  0
  3  4  1  0
  4  5  1  0
  5  6  2  0
  5  7  1  0
  7  8  1  0
  8  9  1  0
  9 10  1  0
 10 11  1  0
 11 12  1  0
 12 13  2  0
 13 14  1  0
 14 15  2  0
 15 16  1  0
 15 17  1  0
 17 18  2  0
  2 19  1  0
 19 20  2  0
 20 21  1  0
 21 22  2  0
 22 23  1  0
 23 24  2  0
 24 25  1  0
 24 26  1  0
 26 27  2  0
 27 28  1  0
 28 29  2  0
 11  7  1  0
 18 12  1  0
 29 19  1  0
 28 22  1  0
  4 30  1  0
  4 31  1  0
  8 32  1  0
  8 33  1  0
  9 34  1  0
  9 35  1  0
 10 36  1  0
 10 37  1  0
 11 38  1  1
 13 39  1  0
 14 40  1  0
 17 41  1  0
 18 42  1  0
 20 43  1  0
 21 44  1  0
 23 45  1  0
 26 46  1  0
 27 47  1  0
M  CHG  1   3  -1
M  END
>  <meeko>  (13) 
{"free_energy": -8.03, "intermolecular_energy": -9.82, "internal_energy": -1.43, "cluster_size": 6, "cluster_id": 2, "rank_in_cluster": 3}

$$$$

     RDKit          3D

 47 50  0  0  0  0  0  0  0  0999 V2000
  138.3520   71.9290  220.8620 O   0  0  0  0  0  0  0  0  0  0  0  0
  138.9860   72.3490  221.8640 C   0  0  0  0  0  0  0  0  0  0  0  0
  139.4440   73.7100  221.8540 N   0  0  0  0  0  0  0  0  0  0  0  0
  139.9710   74.4620  220.7150 C   0  0  0  0  0  0  0  0  0  0  0  0
  141.0390   75.4450  221.1290 C   0  0  0  0  0  0  0  0  0  0  0  0
  141.4330   75.4720  222.3280 O   0  0  0  0  0  0  0  0  0  0  0  0
  141.6300   76.3510  220.1760 N   0  0  0  0  0  0  0  0  0  0  0  0
  142.7150   75.9440  219.2970 C   0  0  0  0  0  0  0  0  0  0  0  0
  142.9850   77.1320  218.3810 C   0  0  0  0  0  0  0  0  0  0  0  0
  141.7850   78.0640  218.5330 C   0  0  0  0  0  0  0  0  0  0  0  0
  141.1100   77.6750  219.8520 C   0  0  2  0  0  0  0  0  0  0  0  0
  141.4240   78.6650  220.9590 C   0  0  0  0  0  0  0  0  0  0  0  0
  141.8290   79.9730  220.6400 C   0  0  0  0  0  0  0  0  0  0  0  0
  142.1660   80.8780  221.6540 C   0  0  0  0  0  0  0  0  0  0  0  0
  142.1150   80.4820  222.9930 C   0  0  0  0  0  0  0  0  0  0  0  0
  142.5380   81.6150  224.2650 Cl  0  0  0  0  0  0  0  0  0  0  0  0
  141.7110   79.1840  223.3220 C   0  0  0  0  0  0  0  0  0  0  0  0
  141.3590   78.2840  222.3130 C   0  0  0  0  0  0  0  0  0  0  0  0
  139.2450   71.4240  222.9900 C   0  0  0  0  0  0  0  0  0  0  0  0
  138.8100   70.0920  222.9310 C   0  0  0  0  0  0  0  0  0  0  0  0
  139.0730   69.2270  223.9970 C   0  0  0  0  0  0  0  0  0  0  0  0
  139.7510   69.7000  225.1260 C   0  0  0  0  0  0  0  0  0  0  0  0
  140.0390   68.8580  226.2120 C   0  0  0  0  0  0  0  0  0  0  0  0
  140.7120   69.3670  227.3300 C   0  0  0  0  0  0  0  0  0  0  0  0
  141.0800   68.3120  228.6840 Cl  0  0  0  0  0  0  0  0  0  0  0  0
  141.0850   70.7160  227.3720 C   0  0  0  0  0  0  0  0  0  0  0  0
  140.8000   71.5580  226.2920 C   0  0  0  0  0  0  0  0  0  0  0  0
  140.1460   71.0540  225.1640 C   0  0  0  0  0  0  0  0  0  0  0  0
  139.8900   71.8670  224.1050 N   0  0  0  0  0  0  0  0  0  0  0  0
  140.4016   73.7543  219.9913 H   0  0  0  0  0  0  0  0  0  0  0  0
  139.1407   75.0308  220.2712 H   0  0  0  0  0  0  0  0  0  0  0  0
  143.6130   75.7035  219.8850 H   0  0  0  0  0  0  0  0  0  0  0  0
  142.4502   75.0447  218.7215 H   0  0  0  0  0  0  0  0  0  0  0  0
  143.9088   77.6462  218.6846 H   0  0  0  0  0  0  0  0  0  0  0  0
  143.1167   76.8129  217.3366 H   0  0  0  0  0  0  0  0  0  0  0  0
  142.1175   79.1119  218.5687 H   0  0  0  0  0  0  0  0  0  0  0  0
  141.0924   77.9695  217.6837 H   0  0  0  0  0  0  0  0  0  0  0  0
  140.0144   77.6765  219.7534 H   0  0  0  0  0  0  0  0  0  0  0  0
  141.8815   80.2874  219.5872 H   0  0  0  0  0  0  0  0  0  0  0  0
  142.4715   81.9027  221.3959 H   0  0  0  0  0  0  0  0  0  0  0  0
  141.6704   78.8715  224.3759 H   0  0  0  0  0  0  0  0  0  0  0  0
  141.0282   77.2691  222.5786 H   0  0  0  0  0  0  0  0  0  0  0  0
  138.2633   69.7290  222.0482 H   0  0  0  0  0  0  0  0  0  0  0  0
  138.7479   68.1773  223.9485 H   0  0  0  0  0  0  0  0  0  0  0  0
  139.7367   67.8007  226.1849 H   0  0  0  0  0  0  0  0  0  0  0  0
  141.6034   71.1146  228.2565 H   0  0  0  0  0  0  0  0  0  0  0  0
  141.0909   72.6181  226.3304 H   0  0  0  0  0  0  0  0  0  0  0  0
  1  2  2  0
  2  3  1  0
  3  4  1  0
  4  5  1  0
  5  6  2  0
  5  7  1  0
  7  8  1  0
  8  9  1  0
  9 10  1  0
 10 11  1  0
 11 12  1  0
 12 13  2  0
 13 14  1  0
 14 15  2  0
 15 16  1  0
 15 17  1  0
 17 18  2  0
  2 19  1  0
 19 20  2  0
 20 21  1  0
 21 22  2  0
 22 23  1  0
 23 24  2  0
 24 25  1  0
 24 26  1  0
 26 27  2  0
 27 28  1  0
 28 29  2  0
 11  7  1  0
 18 12  1  0
 29 19  1  0
 28 22  1  0
  4 30  1  0
  4 31  1  0
  8 32  1  0
  8 33  1  0
  9 34  1  0
  9 35  1  0
 10 36  1  0
 10 37  1  0
 11 38  1  6
 13 39  1  0
 14 40  1  0
 17 41  1  0
 18 42  1  0
 20 43  1  0
 21 44  1  0
 23 45  1  0
 26 46  1  0
 27 47  1  0
M  CHG  1   3  -1
M  END
>  <meeko>  (14) 
{"free_energy": -8.37, "intermolecular_energy": -10.16, "internal_energy": -0.92, "cluster_size": 9, "cluster_id": 1, "rank_in_cluster": 4}

$$$$

     RDKit          3D

 47 50  0  0  0  0  0  0  0  0999 V2000
  133.9300   67.7520  226.4750 O   0  0  0  0  0  0  0  0  0  0  0  0
  134.2190   68.4780  225.4890 C   0  0  0  0  0  0  0  0  0  0  0  0
  134.6520   67.8350  224.2800 N   0  0  0  0  0  0  0  0  0  0  0  0
  134.4200   68.2780  222.9050 C   0  0  0  0  0  0  0  0  0  0  0  0
  135.6850   68.7760  222.2480 C   0  0  0  0  0  0  0  0  0  0  0  0
  135.7470   69.9640  221.8280 O   0  0  0  0  0  0  0  0  0  0  0  0
  136.8350   67.9180  222.0990 N   0  0  0  0  0  0  0  0  0  0  0  0
  136.7060   66.5070  221.7730 C   0  0  0  0  0  0  0  0  0  0  0  0
  138.1260   65.9810  221.6030 C   0  0  0  0  0  0  0  0  0  0  0  0
  139.0210   67.2120  221.4830 C   0  0  0  0  0  0  0  0  0  0  0  0
  138.2190   68.3790  222.0710 C   0  0  2  0  0  0  0  0  0  0  0  0
  138.6970   68.7450  223.4630 C   0  0  0  0  0  0  0  0  0  0  0  0
  139.1690   67.7470  224.3320 C   0  0  0  0  0  0  0  0  0  0  0  0
  139.5670   68.0700  225.6340 C   0  0  0  0  0  0  0  0  0  0  0  0
  139.4840   69.3910  226.0860 C   0  0  0  0  0  0  0  0  0  0  0  0
  139.9820   69.7970  227.7200 Cl  0  0  0  0  0  0  0  0  0  0  0  0
  139.0170   70.3920  225.2300 C   0  0  0  0  0  0  0  0  0  0  0  0
  138.6350   70.0750  223.9240 C   0  0  0  0  0  0  0  0  0  0  0  0
  134.1210   69.9480  225.6250 C   0  0  0  0  0  0  0  0  0  0  0  0
  135.0020   70.7870  224.9270 C   0  0  0  0  0  0  0  0  0  0  0  0
  134.8900   72.1740  225.0560 C   0  0  0  0  0  0  0  0  0  0  0  0
  133.9130   72.7170  225.8980 C   0  0  0  0  0  0  0  0  0  0  0  0
  133.7660   74.1060  226.0470 C   0  0  0  0  0  0  0  0  0  0  0  0
  132.7820   74.6160  226.9040 C   0  0  0  0  0  0  0  0  0  0  0  0
  132.5930   76.3520  227.0830 Cl  0  0  0  0  0  0  0  0  0  0  0  0
  131.9550   73.7430  227.6230 C   0  0  0  0  0  0  0  0  0  0  0  0
  132.0990   72.3600  227.4770 C   0  0  0  0  0  0  0  0  0  0  0  0
  133.0640   71.8430  226.6090 C   0  0  0  0  0  0  0  0  0  0  0  0
  133.1880   70.4980  226.4500 N   0  0  0  0  0  0  0  0  0  0  0  0
  134.0263   67.4326  222.3216 H   0  0  0  0  0  0  0  0  0  0  0  0
  133.7025   69.1113  222.9339 H   0  0  0  0  0  0  0  0  0  0  0  0
  136.1957   65.9721  222.5875 H   0  0  0  0  0  0  0  0  0  0  0  0
  136.1104   66.3583  220.8602 H   0  0  0  0  0  0  0  0  0  0  0  0
  138.4180   65.3803  222.4770 H   0  0  0  0  0  0  0  0  0  0  0  0
  138.2118   65.3335  220.7179 H   0  0  0  0  0  0  0  0  0  0  0  0
  139.9518   67.0642  222.0503 H   0  0  0  0  0  0  0  0  0  0  0  0
  139.3025   67.4041  220.4371 H   0  0  0  0  0  0  0  0  0  0  0  0
  138.3393   69.2906  221.4673 H   0  0  0  0  0  0  0  0  0  0  0  0
  139.2261   66.7043  223.9864 H   0  0  0  0  0  0  0  0  0  0  0  0
  139.9459   67.2835  226.3033 H   0  0  0  0  0  0  0  0  0  0  0  0
  138.9501   71.4310  225.5849 H   0  0  0  0  0  0  0  0  0  0  0  0
  138.2830   70.8701  223.2503 H   0  0  0  0  0  0  0  0  0  0  0  0
  135.7791   70.3544  224.2797 H   0  0  0  0  0  0  0  0  0  0  0  0
  135.5675   72.8367  224.4976 H   0  0  0  0  0  0  0  0  0  0  0  0
  134.4224   74.7922  225.4917 H   0  0  0  0  0  0  0  0  0  0  0  0
  131.1909   74.1465  228.3037 H   0  0  0  0  0  0  0  0  0  0  0  0
  131.4512   71.6775  228.0467 H   0  0  0  0  0  0  0  0  0  0  0  0
  1  2  2  0
  2  3  1  0
  3  4  1  0
  4  5  1  0
  5  6  2  0
  5  7  1  0
  7  8  1  0
  8  9  1  0
  9 10  1  0
 10 11  1  0
 11 12  1  0
 12 13  2  0
 13 14  1  0
 14 15  2  0
 15 16  1  0
 15 17  1  0
 17 18  2  0
  2 19  1  0
 19 20  2  0
 20 21  1  0
 21 22  2  0
 22 23  1  0
 23 24  2  0
 24 25  1  0
 24 26  1  0
 26 27  2  0
 27 28  1  0
 28 29  2  0
 11  7  1  0
 18 12  1  0
 29 19  1  0
 28 22  1  0
  4 30  1  0
  4 31  1  0
  8 32  1  0
  8 33  1  0
  9 34  1  0
  9 35  1  0
 10 36  1  0
 10 37  1  0
 11 38  1  6
 13 39  1  0
 14 40  1  0
 17 41  1  0
 18 42  1  0
 20 43  1  0
 21 44  1  0
 23 45  1  0
 26 46  1  0
 27 47  1  0
M  CHG  1   3  -1
M  END
>  <meeko>  (15) 
{"free_energy": -6.97, "intermolecular_energy": -8.76, "internal_energy": -1.87, "cluster_size": 6, "cluster_id": 2, "rank_in_cluster": 6}

$$$$

     RDKit          3D

 47 50  0  0  0  0  0  0  0  0999 V2000
  138.6250   71.8940  220.6720 O   0  0  0  0  0  0  0  0  0  0  0  0
  138.5950   72.4060  221.8210 C   0  0  0  0  0  0  0  0  0  0  0  0
  138.3730   73.8210  221.9260 N   0  0  0  0  0  0  0  0  0  0  0  0
  139.1040   74.8890  221.2430 C   0  0  0  0  0  0  0  0  0  0  0  0
  140.5990   74.7290  221.3780 C   0  0  0  0  0  0  0  0  0  0  0  0
  141.0700   73.9840  222.2810 O   0  0  0  0  0  0  0  0  0  0  0  0
  141.5050   75.4060  220.4830 N   0  0  0  0  0  0  0  0  0  0  0  0
  142.6990   74.7600  219.9640 C   0  0  0  0  0  0  0  0  0  0  0  0
  143.3250   75.7500  218.9880 C   0  0  0  0  0  0  0  0  0  0  0  0
  142.2530   76.8020  218.7100 C   0  0  0  0  0  0  0  0  0  0  0  0
  141.2500   76.7020  219.8630 C   0  0  2  0  0  0  0  0  0  0  0  0
  141.4290   77.8270  220.8660 C   0  0  0  0  0  0  0  0  0  0  0  0
  141.1580   77.6070  222.2270 C   0  0  0  0  0  0  0  0  0  0  0  0
  141.2760   78.6520  223.1510 C   0  0  0  0  0  0  0  0  0  0  0  0
  141.6510   79.9290  222.7230 C   0  0  0  0  0  0  0  0  0  0  0  0
  141.7980   81.2400  223.8800 Cl  0  0  0  0  0  0  0  0  0  0  0  0
  141.9260   80.1580  221.3710 C   0  0  0  0  0  0  0  0  0  0  0  0
  141.8240   79.1130  220.4490 C   0  0  0  0  0  0  0  0  0  0  0  0
  138.8070   71.5380  223.0000 C   0  0  0  0  0  0  0  0  0  0  0  0
  138.0660   70.3570  223.1570 C   0  0  0  0  0  0  0  0  0  0  0  0
  138.2860   69.5410  224.2700 C   0  0  0  0  0  0  0  0  0  0  0  0
  139.2290   69.9170  225.2330 C   0  0  0  0  0  0  0  0  0  0  0  0
  139.4820   69.1180  226.3600 C   0  0  0  0  0  0  0  0  0  0  0  0
  140.4270   69.5290  227.3080 C   0  0  0  0  0  0  0  0  0  0  0  0
  140.7500   68.5260  228.7120 Cl  0  0  0  0  0  0  0  0  0  0  0  0
  141.1100   70.7400  227.1410 C   0  0  0  0  0  0  0  0  0  0  0  0
  140.8610   71.5380  226.0200 C   0  0  0  0  0  0  0  0  0  0  0  0
  139.9340   71.1260  225.0590 C   0  0  0  0  0  0  0  0  0  0  0  0
  139.7090   71.8920  223.9570 N   0  0  0  0  0  0  0  0  0  0  0  0
  138.8404   74.8728  220.1752 H   0  0  0  0  0  0  0  0  0  0  0  0
  138.8218   75.8447  221.7088 H   0  0  0  0  0  0  0  0  0  0  0  0
  143.3988   74.5368  220.7828 H   0  0  0  0  0  0  0  0  0  0  0  0
  142.4580   73.8069  219.4705 H   0  0  0  0  0  0  0  0  0  0  0  0
  144.2134   76.2188  219.4363 H   0  0  0  0  0  0  0  0  0  0  0  0
  143.6507   75.2523  218.0627 H   0  0  0  0  0  0  0  0  0  0  0  0
  142.7019   77.8058  218.6806 H   0  0  0  0  0  0  0  0  0  0  0  0
  141.7662   76.6324  217.7383 H   0  0  0  0  0  0  0  0  0  0  0  0
  140.2156   76.7912  219.4997 H   0  0  0  0  0  0  0  0  0  0  0  0
  140.8512   76.6074  222.5686 H   0  0  0  0  0  0  0  0  0  0  0  0
  141.0732   78.4679  224.2164 H   0  0  0  0  0  0  0  0  0  0  0  0
  142.2229   81.1618  221.0331 H   0  0  0  0  0  0  0  0  0  0  0  0
  142.0541   79.2962  219.3890 H   0  0  0  0  0  0  0  0  0  0  0  0
  137.3138   70.0741  222.4059 H   0  0  0  0  0  0  0  0  0  0  0  0
  137.7194   68.6057  224.3887 H   0  0  0  0  0  0  0  0  0  0  0  0
  138.9389   68.1714  226.4977 H   0  0  0  0  0  0  0  0  0  0  0  0
  141.8441   71.0643  227.8933 H   0  0  0  0  0  0  0  0  0  0  0  0
  141.3955   72.4912  225.8946 H   0  0  0  0  0  0  0  0  0  0  0  0
  1  2  2  0
  2  3  1  0
  3  4  1  0
  4  5  1  0
  5  6  2  0
  5  7  1  0
  7  8  1  0
  8  9  1  0
  9 10  1  0
 10 11  1  0
 11 12  1  0
 12 13  2  0
 13 14  1  0
 14 15  2  0
 15 16  1  0
 15 17  1  0
 17 18  2  0
  2 19  1  0
 19 20  2  0
 20 21  1  0
 21 22  2  0
 22 23  1  0
 23 24  2  0
 24 25  1  0
 24 26  1  0
 26 27  2  0
 27 28  1  0
 28 29  2  0
 11  7  1  0
 18 12  1  0
 29 19  1  0
 28 22  1  0
  4 30  1  0
  4 31  1  0
  8 32  1  0
  8 33  1  0
  9 34  1  0
  9 35  1  0
 10 36  1  0
 10 37  1  0
 11 38  1  6
 13 39  1  0
 14 40  1  0
 17 41  1  0
 18 42  1  0
 20 43  1  0
 21 44  1  0
 23 45  1  0
 26 46  1  0
 27 47  1  0
M  CHG  1   3  -1
M  END
>  <meeko>  (16) 
{"free_energy": -8.23, "intermolecular_energy": -10.02, "internal_energy": -1.17, "cluster_size": 9, "cluster_id": 1, "rank_in_cluster": 7}

$$$$

     RDKit          3D

 47 50  0  0  0  0  0  0  0  0999 V2000
  133.9290   69.1310  226.4520 O   0  0  0  0  0  0  0  0  0  0  0  0
  133.9030   70.1270  225.6840 C   0  0  0  0  0  0  0  0  0  0  0  0
  134.3870   69.9590  224.3430 N   0  0  0  0  0  0  0  0  0  0  0  0
  135.7430   69.6030  223.9250 C   0  0  0  0  0  0  0  0  0  0  0  0
  136.6620   70.8010  223.8960 C   0  0  0  0  0  0  0  0  0  0  0  0
  136.2850   71.8900  224.4100 O   0  0  0  0  0  0  0  0  0  0  0  0
  137.9720   70.7220  223.2990 N   0  0  0  0  0  0  0  0  0  0  0  0
  138.1800   70.1690  221.9700 C   0  0  0  0  0  0  0  0  0  0  0  0
  139.6610   70.3560  221.6620 C   0  0  0  0  0  0  0  0  0  0  0  0
  140.1850   71.3490  222.6960 C   0  0  0  0  0  0  0  0  0  0  0  0
  139.1770   71.3330  223.8500 C   0  0  2  0  0  0  0  0  0  0  0  0
  139.6910   70.5410  225.0370 C   0  0  0  0  0  0  0  0  0  0  0  0
  139.3930   69.1730  225.1540 C   0  0  0  0  0  0  0  0  0  0  0  0
  139.8230   68.4460  226.2700 C   0  0  0  0  0  0  0  0  0  0  0  0
  140.5440   69.0810  227.2860 C   0  0  0  0  0  0  0  0  0  0  0  0
  141.0840   68.1710  228.6860 Cl  0  0  0  0  0  0  0  0  0  0  0  0
  140.8480   70.4410  227.1790 C   0  0  0  0  0  0  0  0  0  0  0  0
  140.4330   71.1660  226.0580 C   0  0  0  0  0  0  0  0  0  0  0  0
  133.3990   71.4190  226.1990 C   0  0  0  0  0  0  0  0  0  0  0  0
  132.2140   71.4720  226.9500 C   0  0  0  0  0  0  0  0  0  0  0  0
  131.7570   72.6990  227.4400 C   0  0  0  0  0  0  0  0  0  0  0  0
  132.4710   73.8690  227.1610 C   0  0  0  0  0  0  0  0  0  0  0  0
  132.0450   75.1180  227.6430 C   0  0  0  0  0  0  0  0  0  0  0  0
  132.7800   76.2710  227.3370 C   0  0  0  0  0  0  0  0  0  0  0  0
  132.2520   77.8310  227.9480 Cl  0  0  0  0  0  0  0  0  0  0  0  0
  133.9290   76.1830  226.5420 C   0  0  0  0  0  0  0  0  0  0  0  0
  134.3560   74.9410  226.0610 C   0  0  0  0  0  0  0  0  0  0  0  0
  133.6400   73.7830  226.3770 C   0  0  0  0  0  0  0  0  0  0  0  0
  134.0690   72.5730  225.9270 N   0  0  0  0  0  0  0  0  0  0  0  0
  136.1483   68.8621  224.6299 H   0  0  0  0  0  0  0  0  0  0  0  0
  135.6866   69.1948  222.9051 H   0  0  0  0  0  0  0  0  0  0  0  0
  137.9190   69.1005  221.9559 H   0  0  0  0  0  0  0  0  0  0  0  0
  137.5474   70.6701  221.2225 H   0  0  0  0  0  0  0  0  0  0  0  0
  140.1933   69.3973  221.7491 H   0  0  0  0  0  0  0  0  0  0  0  0
  139.8155   70.7235  220.6368 H   0  0  0  0  0  0  0  0  0  0  0  0
  141.1786   71.0399  223.0527 H   0  0  0  0  0  0  0  0  0  0  0  0
  140.2897   72.3569  222.2680 H   0  0  0  0  0  0  0  0  0  0  0  0
  138.9906   72.3484  224.2299 H   0  0  0  0  0  0  0  0  0  0  0  0
  138.8177   68.6698  224.3629 H   0  0  0  0  0  0  0  0  0  0  0  0
  139.5933   67.3731  226.3480 H   0  0  0  0  0  0  0  0  0  0  0  0
  141.4146   70.9416  227.9780 H   0  0  0  0  0  0  0  0  0  0  0  0
  140.6879   72.2327  225.9727 H   0  0  0  0  0  0  0  0  0  0  0  0
  131.6471   70.5513  227.1522 H   0  0  0  0  0  0  0  0  0  0  0  0
  130.8384   72.7442  228.0434 H   0  0  0  0  0  0  0  0  0  0  0  0
  131.1366   75.1906  228.2591 H   0  0  0  0  0  0  0  0  0  0  0  0
  134.4969   77.0922  226.2952 H   0  0  0  0  0  0  0  0  0  0  0  0
  135.2568   74.8755  225.4330 H   0  0  0  0  0  0  0  0  0  0  0  0
  1  2  2  0
  2  3  1  0
  3  4  1  0
  4  5  1  0
  5  6  2  0
  5  7  1  0
  7  8  1  0
  8  9  1  0
  9 10  1  0
 10 11  1  0
 11 12  1  0
 12 13  2  0
 13 14  1  0
 14 15  2  0
 15 16  1  0
 15 17  1  0
 17 18  2  0
  2 19  1  0
 19 20  2  0
 20 21  1  0
 21 22  2  0
 22 23  1  0
 23 24  2  0
 24 25  1  0
 24 26  1  0
 26 27  2  0
 27 28  1  0
 28 29  2  0
 11  7  1  0
 18 12  1  0
 29 19  1  0
 28 22  1  0
  4 30  1  0
  4 31  1  0
  8 32  1  0
  8 33  1  0
  9 34  1  0
  9 35  1  0
 10 36  1  0
 10 37  1  0
 11 38  1  1
 13 39  1  0
 14 40  1  0
 17 41  1  0
 18 42  1  0
 20 43  1  0
 21 44  1  0
 23 45  1  0
 26 46  1  0
 27 47  1  0
M  CHG  1   3  -1
M  END
>  <meeko>  (17) 
{"free_energy": -8.11, "intermolecular_energy": -9.9, "internal_energy": -1.3, "cluster_size": 6, "cluster_id": 2, "rank_in_cluster": 2}

$$$$

     RDKit          3D

 47 50  0  0  0  0  0  0  0  0999 V2000
  139.9590   73.4240  222.4440 O   0  0  0  0  0  0  0  0  0  0  0  0
  140.0870   74.0170  221.3410 C   0  0  0  0  0  0  0  0  0  0  0  0
  140.1100   73.2230  220.1450 N   0  0  0  0  0  0  0  0  0  0  0  0
  141.2700   72.5780  219.5280 C   0  0  0  0  0  0  0  0  0  0  0  0
  142.3920   72.3640  220.5160 C   0  0  0  0  0  0  0  0  0  0  0  0
  142.1660   71.7510  221.5950 O   0  0  0  0  0  0  0  0  0  0  0  0
  143.7260   72.8390  220.2430 N   0  0  0  0  0  0  0  0  0  0  0  0
  144.8210   72.6360  221.1790 C   0  0  0  0  0  0  0  0  0  0  0  0
  146.0690   73.1800  220.4930 C   0  0  0  0  0  0  0  0  0  0  0  0
  145.7000   73.3510  219.0210 C   0  0  0  0  0  0  0  0  0  0  0  0
  144.1700   73.3910  218.9680 C   0  0  2  0  0  0  0  0  0  0  0  0
  143.6490   74.8030  218.7790 C   0  0  0  0  0  0  0  0  0  0  0  0
  143.4210   75.3030  217.4850 C   0  0  0  0  0  0  0  0  0  0  0  0
  142.9860   76.6210  217.3000 C   0  0  0  0  0  0  0  0  0  0  0  0
  142.7870   77.4550  218.4040 C   0  0  0  0  0  0  0  0  0  0  0  0
  142.2410   79.1080  218.1730 Cl  0  0  0  0  0  0  0  0  0  0  0  0
  143.0080   76.9680  219.6950 C   0  0  0  0  0  0  0  0  0  0  0  0
  143.4270   75.6480  219.8840 C   0  0  0  0  0  0  0  0  0  0  0  0
  140.2260   75.4900  221.3290 C   0  0  0  0  0  0  0  0  0  0  0  0
  139.7220   76.2430  220.2570 C   0  0  0  0  0  0  0  0  0  0  0  0
  139.8510   77.6350  220.2660 C   0  0  0  0  0  0  0  0  0  0  0  0
  140.5000   78.2670  221.3310 C   0  0  0  0  0  0  0  0  0  0  0  0
  140.6420   79.6640  221.3770 C   0  0  0  0  0  0  0  0  0  0  0  0
  141.3050   80.2630  222.4550 C   0  0  0  0  0  0  0  0  0  0  0  0
  141.4730   82.0100  222.5160 Cl  0  0  0  0  0  0  0  0  0  0  0  0
  141.8380   79.4720  223.4810 C   0  0  0  0  0  0  0  0  0  0  0  0
  141.6990   78.0820  223.4390 C   0  0  0  0  0  0  0  0  0  0  0  0
  141.0220   77.4760  222.3770 C   0  0  0  0  0  0  0  0  0  0  0  0
  140.8670   76.1250  222.3480 N   0  0  0  0  0  0  0  0  0  0  0  0
  140.9609   71.6022  219.1251 H   0  0  0  0  0  0  0  0  0  0  0  0
  141.6414   73.2388  218.7309 H   0  0  0  0  0  0  0  0  0  0  0  0
  144.6303   73.1828  222.1142 H   0  0  0  0  0  0  0  0  0  0  0  0
  144.9359   71.5734  221.4391 H   0  0  0  0  0  0  0  0  0  0  0  0
  146.3542   74.1481  220.9304 H   0  0  0  0  0  0  0  0  0  0  0  0
  146.9253   72.5008  220.6173 H   0  0  0  0  0  0  0  0  0  0  0  0
  146.1201   74.2888  218.6287 H   0  0  0  0  0  0  0  0  0  0  0  0
  146.1018   72.5306  218.4083 H   0  0  0  0  0  0  0  0  0  0  0  0
  143.7866   72.8164  218.1119 H   0  0  0  0  0  0  0  0  0  0  0  0
  143.5855   74.6544  216.6119 H   0  0  0  0  0  0  0  0  0  0  0  0
  142.8006   77.0007  216.2844 H   0  0  0  0  0  0  0  0  0  0  0  0
  142.8520   77.6244  220.5638 H   0  0  0  0  0  0  0  0  0  0  0  0
  143.5846   75.2661  220.9035 H   0  0  0  0  0  0  0  0  0  0  0  0
  139.2274   75.7398  219.4131 H   0  0  0  0  0  0  0  0  0  0  0  0
  139.4428   78.2318  219.4370 H   0  0  0  0  0  0  0  0  0  0  0  0
  140.2329   80.2862  220.5674 H   0  0  0  0  0  0  0  0  0  0  0  0
  142.3668   79.9458  224.3212 H   0  0  0  0  0  0  0  0  0  0  0  0
  142.1234   77.4635  224.2436 H   0  0  0  0  0  0  0  0  0  0  0  0
  1  2  2  0
  2  3  1  0
  3  4  1  0
  4  5  1  0
  5  6  2  0
  5  7  1  0
  7  8  1  0
  8  9  1  0
  9 10  1  0
 10 11  1  0
 11 12  1  0
 12 13  2  0
 13 14  1  0
 14 15  2  0
 15 16  1  0
 15 17  1  0
 17 18  2  0
  2 19  1  0
 19 20  2  0
 20 21  1  0
 21 22  2  0
 22 23  1  0
 23 24  2  0
 24 25  1  0
 24 26  1  0
 26 27  2  0
 27 28  1  0
 28 29  2  0
 11  7  1  0
 18 12  1  0
 29 19  1  0
 28 22  1  0
  4 30  1  0
  4 31  1  0
  8 32  1  0
  8 33  1  0
  9 34  1  0
  9 35  1  0
 10 36  1  0
 10 37  1  0
 11 38  1  6
 13 39  1  0
 14 40  1  0
 17 41  1  0
 18 42  1  0
 20 43  1  0
 21 44  1  0
 23 45  1  0
 26 46  1  0
 27 47  1  0
M  CHG  1   3  -1
M  END
>  <meeko>  (18) 
{"free_energy": -6.44, "intermolecular_energy": -8.23, "internal_energy": -2.62, "cluster_size": 1, "cluster_id": 6, "rank_in_cluster": 1}

$$$$

     RDKit          3D

 47 50  0  0  0  0  0  0  0  0999 V2000
  139.6060   73.9990  222.3340 O   0  0  0  0  0  0  0  0  0  0  0  0
  140.1340   72.8770  222.1240 C   0  0  0  0  0  0  0  0  0  0  0  0
  140.7290   72.6380  220.8390 N   0  0  0  0  0  0  0  0  0  0  0  0
  142.1000   72.9360  220.4240 C   0  0  0  0  0  0  0  0  0  0  0  0
  142.3640   74.4220  220.3670 C   0  0  0  0  0  0  0  0  0  0  0  0
  143.4390   74.8850  220.8390 O   0  0  0  0  0  0  0  0  0  0  0  0
  141.4130   75.3260  219.7690 N   0  0  0  0  0  0  0  0  0  0  0  0
  141.3190   75.5030  218.3290 C   0  0  0  0  0  0  0  0  0  0  0  0
  140.1440   76.4450  218.0940 C   0  0  0  0  0  0  0  0  0  0  0  0
  139.3710   76.4900  219.4100 C   0  0  0  0  0  0  0  0  0  0  0  0
  140.3420   76.0050  220.4910 C   0  0  2  0  0  0  0  0  0  0  0  0
  140.8900   77.1560  221.3150 C   0  0  0  0  0  0  0  0  0  0  0  0
  141.4080   78.2950  220.6760 C   0  0  0  0  0  0  0  0  0  0  0  0
  141.9580   79.3410  221.4270 C   0  0  0  0  0  0  0  0  0  0  0  0
  142.0080   79.2520  222.8210 C   0  0  0  0  0  0  0  0  0  0  0  0
  142.6980   80.5620  223.7640 Cl  0  0  0  0  0  0  0  0  0  0  0  0
  141.4940   78.1240  223.4670 C   0  0  0  0  0  0  0  0  0  0  0  0
  140.9290   77.0860  222.7210 C   0  0  0  0  0  0  0  0  0  0  0  0
  140.1000   71.8560  223.1950 C   0  0  0  0  0  0  0  0  0  0  0  0
  139.5470   70.5890  222.9520 C   0  0  0  0  0  0  0  0  0  0  0  0
  139.5330   69.6310  223.9690 C   0  0  0  0  0  0  0  0  0  0  0  0
  140.0500   69.9460  225.2300 C   0  0  0  0  0  0  0  0  0  0  0  0
  140.0590   69.0070  226.2740 C   0  0  0  0  0  0  0  0  0  0  0  0
  140.5770   69.3600  227.5260 C   0  0  0  0  0  0  0  0  0  0  0  0
  140.5960   68.1820  228.8280 Cl  0  0  0  0  0  0  0  0  0  0  0  0
  141.0730   70.6510  227.7430 C   0  0  0  0  0  0  0  0  0  0  0  0
  141.0660   71.5900  226.7060 C   0  0  0  0  0  0  0  0  0  0  0  0
  140.5690   71.2400  225.4480 C   0  0  0  0  0  0  0  0  0  0  0  0
  140.5840   72.1460  224.4330 N   0  0  0  0  0  0  0  0  0  0  0  0
  142.7959   72.4791  221.1430 H   0  0  0  0  0  0  0  0  0  0  0  0
  142.2456   72.5262  219.4136 H   0  0  0  0  0  0  0  0  0  0  0  0
  142.2469   75.9453  217.9375 H   0  0  0  0  0  0  0  0  0  0  0  0
  141.1720   74.5417  217.8150 H   0  0  0  0  0  0  0  0  0  0  0  0
  140.5063   77.4492  217.8290 H   0  0  0  0  0  0  0  0  0  0  0  0
  139.5090   76.0982  217.2654 H   0  0  0  0  0  0  0  0  0  0  0  0
  139.0430   77.5177  219.6250 H   0  0  0  0  0  0  0  0  0  0  0  0
  138.4699   75.8605  219.3680 H   0  0  0  0  0  0  0  0  0  0  0  0
  139.8389   75.3400  221.2084 H   0  0  0  0  0  0  0  0  0  0  0  0
  141.3813   78.3655  219.5786 H   0  0  0  0  0  0  0  0  0  0  0  0
  142.3513   80.2340  220.9192 H   0  0  0  0  0  0  0  0  0  0  0  0
  141.5343   78.0532  224.5640 H   0  0  0  0  0  0  0  0  0  0  0  0
  140.5117   76.2080  223.2358 H   0  0  0  0  0  0  0  0  0  0  0  0
  139.1260   70.3510  221.9640 H   0  0  0  0  0  0  0  0  0  0  0  0
  139.1162   68.6310  223.7784 H   0  0  0  0  0  0  0  0  0  0  0  0
  139.6597   67.9955  226.1085 H   0  0  0  0  0  0  0  0  0  0  0  0
  141.4692   70.9277  228.7312 H   0  0  0  0  0  0  0  0  0  0  0  0
  141.4522   72.6050  226.8812 H   0  0  0  0  0  0  0  0  0  0  0  0
  1  2  2  0
  2  3  1  0
  3  4  1  0
  4  5  1  0
  5  6  2  0
  5  7  1  0
  7  8  1  0
  8  9  1  0
  9 10  1  0
 10 11  1  0
 11 12  1  0
 12 13  2  0
 13 14  1  0
 14 15  2  0
 15 16  1  0
 15 17  1  0
 17 18  2  0
  2 19  1  0
 19 20  2  0
 20 21  1  0
 21 22  2  0
 22 23  1  0
 23 24  2  0
 24 25  1  0
 24 26  1  0
 26 27  2  0
 27 28  1  0
 28 29  2  0
 11  7  1  0
 18 12  1  0
 29 19  1  0
 28 22  1  0
  4 30  1  0
  4 31  1  0
  8 32  1  0
  8 33  1  0
  9 34  1  0
  9 35  1  0
 10 36  1  0
 10 37  1  0
 11 38  1  1
 13 39  1  0
 14 40  1  0
 17 41  1  0
 18 42  1  0
 20 43  1  0
 21 44  1  0
 23 45  1  0
 26 46  1  0
 27 47  1  0
M  CHG  1   3  -1
M  END
>  <meeko>  (19) 
{"free_energy": -8.06, "intermolecular_energy": -9.85, "internal_energy": -1.56, "cluster_size": 9, "cluster_id": 1, "rank_in_cluster": 8}

$$$$

     RDKit          3D

 47 50  0  0  0  0  0  0  0  0999 V2000
  136.2410   77.3760  223.0990 O   0  0  0  0  0  0  0  0  0  0  0  0
  137.4420   77.5430  222.7660 C   0  0  0  0  0  0  0  0  0  0  0  0
  138.2690   76.3790  222.6080 N   0  0  0  0  0  0  0  0  0  0  0  0
  138.7820   75.8150  221.3600 C   0  0  0  0  0  0  0  0  0  0  0  0
  140.1590   75.2190  221.5300 C   0  0  0  0  0  0  0  0  0  0  0  0
  140.3270   74.2460  222.3160 O   0  0  0  0  0  0  0  0  0  0  0  0
  141.2900   75.7360  220.8000 N   0  0  0  0  0  0  0  0  0  0  0  0
  142.4470   74.9120  220.4890 C   0  0  0  0  0  0  0  0  0  0  0  0
  143.3640   75.7760  219.6320 C   0  0  0  0  0  0  0  0  0  0  0  0
  142.5190   76.9640  219.1750 C   0  0  0  0  0  0  0  0  0  0  0  0
  141.3340   77.0380  220.1430 C   0  0  2  0  0  0  0  0  0  0  0  0
  141.5060   78.1510  221.1600 C   0  0  0  0  0  0  0  0  0  0  0  0
  141.8270   79.4510  220.7340 C   0  0  0  0  0  0  0  0  0  0  0  0
  142.0340   80.4730  221.6680 C   0  0  0  0  0  0  0  0  0  0  0  0
  141.9350   80.2040  223.0360 C   0  0  0  0  0  0  0  0  0  0  0  0
  142.1950   81.4840  224.2080 Cl  0  0  0  0  0  0  0  0  0  0  0  0
  141.6140   78.9150  223.4710 C   0  0  0  0  0  0  0  0  0  0  0  0
  141.3910   77.8960  222.5400 C   0  0  0  0  0  0  0  0  0  0  0  0
  137.9500   78.9200  222.5720 C   0  0  0  0  0  0  0  0  0  0  0  0
  138.0980   79.7830  223.6680 C   0  0  0  0  0  0  0  0  0  0  0  0
  138.5900   81.0770  223.4720 C   0  0  0  0  0  0  0  0  0  0  0  0
  138.9130   81.5100  222.1810 C   0  0  0  0  0  0  0  0  0  0  0  0
  139.4160   82.8000  221.9470 C   0  0  0  0  0  0  0  0  0  0  0  0
  139.7210   83.2030  220.6410 C   0  0  0  0  0  0  0  0  0  0  0  0
  140.3590   84.8130  220.3490 Cl  0  0  0  0  0  0  0  0  0  0  0  0
  139.5110   82.3280  219.5670 C   0  0  0  0  0  0  0  0  0  0  0  0
  139.0100   81.0430  219.7970 C   0  0  0  0  0  0  0  0  0  0  0  0
  138.7220   80.6250  221.0990 C   0  0  0  0  0  0  0  0  0  0  0  0
  138.2560   79.3670  221.3240 N   0  0  0  0  0  0  0  0  0  0  0  0
  138.0945   75.0276  221.0175 H   0  0  0  0  0  0  0  0  0  0  0  0
  138.8538   76.6296  220.6243 H   0  0  0  0  0  0  0  0  0  0  0  0
  142.9608   74.6110  221.4139 H   0  0  0  0  0  0  0  0  0  0  0  0
  142.1546   73.9917  219.9622 H   0  0  0  0  0  0  0  0  0  0  0  0
  144.2238   76.1238  220.2234 H   0  0  0  0  0  0  0  0  0  0  0  0
  143.7631   75.2128  218.7756 H   0  0  0  0  0  0  0  0  0  0  0  0
  143.1081   77.8918  219.2207 H   0  0  0  0  0  0  0  0  0  0  0  0
  142.1821   76.8418  218.1350 H   0  0  0  0  0  0  0  0  0  0  0  0
  140.3989   77.2642  219.6097 H   0  0  0  0  0  0  0  0  0  0  0  0
  141.9162   79.6671  219.6591 H   0  0  0  0  0  0  0  0  0  0  0  0
  142.2751   81.4898  221.3246 H   0  0  0  0  0  0  0  0  0  0  0  0
  141.5367   78.7020  224.5474 H   0  0  0  0  0  0  0  0  0  0  0  0
  141.1237   76.8874  222.8883 H   0  0  0  0  0  0  0  0  0  0  0  0
  137.8278   79.4427  224.6785 H   0  0  0  0  0  0  0  0  0  0  0  0
  138.7228   81.7526  224.3299 H   0  0  0  0  0  0  0  0  0  0  0  0
  139.5701   83.4924  222.7877 H   0  0  0  0  0  0  0  0  0  0  0  0
  139.7406   82.6525  218.5413 H   0  0  0  0  0  0  0  0  0  0  0  0
  138.8422   80.3598  218.9514 H   0  0  0  0  0  0  0  0  0  0  0  0
  1  2  2  0
  2  3  1  0
  3  4  1  0
  4  5  1  0
  5  6  2  0
  5  7  1  0
  7  8  1  0
  8  9  1  0
  9 10  1  0
 10 11  1  0
 11 12  1  0
 12 13  2  0
 13 14  1  0
 14 15  2  0
 15 16  1  0
 15 17  1  0
 17 18  2  0
  2 19  1  0
 19 20  2  0
 20 21  1  0
 21 22  2  0
 22 23  1  0
 23 24  2  0
 24 25  1  0
 24 26  1  0
 26 27  2  0
 27 28  1  0
 28 29  2  0
 11  7  1  0
 18 12  1  0
 29 19  1  0
 28 22  1  0
  4 30  1  0
  4 31  1  0
  8 32  1  0
  8 33  1  0
  9 34  1  0
  9 35  1  0
 10 36  1  0
 10 37  1  0
 11 38  1  6
 13 39  1  0
 14 40  1  0
 17 41  1  0
 18 42  1  0
 20 43  1  0
 21 44  1  0
 23 45  1  0
 26 46  1  0
 27 47  1  0
M  CHG  1   3  -1
M  END
>  <meeko>  (20) 
{"free_energy": -6.18, "intermolecular_energy": -7.97, "internal_energy": -3.03, "cluster_size": 1, "cluster_id": 7, "rank_in_cluster": 1}

$$$$
