
     RDKit          3D

 47 50  0  0  0  0  0  0  0  0999 V2000
  138.7090   73.5270  221.1470 O   0  0  0  0  0  0  0  0  0  0  0  0
  139.7690   74.0160  221.6150 C   0  0  0  0  0  0  0  0  0  0  0  0
  140.7000   73.1570  222.2870 N   0  0  0  0  0  0  0  0  0  0  0  0
  141.3990   72.0360  221.6600 C   0  0  0  0  0  0  0  0  0  0  0  0
  142.0620   72.4810  220.3820 C   0  0  0  0  0  0  0  0  0  0  0  0
  141.3670   72.5320  219.3310 O   0  0  0  0  0  0  0  0  0  0  0  0
  143.4520   72.8590  220.3320 N   0  0  0  0  0  0  0  0  0  0  0  0
  144.5490   71.9340  220.0890 C   0  0  0  0  0  0  0  0  0  0  0  0
  145.8130   72.7840  220.0630 C   0  0  0  0  0  0  0  0  0  0  0  0
  145.4330   74.1230  220.6920 C   0  0  0  0  0  0  0  0  0  0  0  0
  143.9100   74.2200  220.5820 C   0  0  1  0  0  0  0  0  0  0  0  0
  143.4920   75.1550  219.4640 C   0  0  0  0  0  0  0  0  0  0  0  0
  143.3220   74.6880  218.1470 C   0  0  0  0  0  0  0  0  0  0  0  0
  142.9590   75.5700  217.1250 C   0  0  0  0  0  0  0  0  0  0  0  0
  142.7710   76.9280  217.4040 C   0  0  0  0  0  0  0  0  0  0  0  0
  142.3170   78.0330  216.1200 Cl  0  0  0  0  0  0  0  0  0  0  0  0
  142.9510   77.4030  218.7060 C   0  0  0  0  0  0  0  0  0  0  0  0
  143.3140   76.5240  219.7300 C   0  0  0  0  0  0  0  0  0  0  0  0
  140.0480   75.4440  221.4150 C   0  0  0  0  0  0  0  0  0  0  0  0
  139.6690   76.0870  220.2290 C   0  0  0  0  0  0  0  0  0  0  0  0
  139.8920   77.4580  220.0870 C   0  0  0  0  0  0  0  0  0  0  0  0
  140.4830   78.1780  221.1310 C   0  0  0  0  0  0  0  0  0  0  0  0
  140.6880   79.5630  221.0360 C   0  0  0  0  0  0  0  0  0  0  0  0
  141.2690   80.2570  222.1040 C   0  0  0  0  0  0  0  0  0  0  0  0
  141.5160   81.9900  221.9890 Cl  0  0  0  0  0  0  0  0  0  0  0  0
  141.6490   79.5730  223.2640 C   0  0  0  0  0  0  0  0  0  0  0  0
  141.4510   78.1930  223.3640 C   0  0  0  0  0  0  0  0  0  0  0  0
  140.8660   77.4910  222.3040 C   0  0  0  0  0  0  0  0  0  0  0  0
  140.6440   76.1530  222.4100 N   0  0  0  0  0  0  0  0  0  0  0  0
  142.1642   71.6532  222.3514 H   0  0  0  0  0  0  0  0  0  0  0  0
  140.6705   71.2451  221.4282 H   0  0  0  0  0  0  0  0  0  0  0  0
  144.6061   71.1878  220.8952 H   0  0  0  0  0  0  0  0  0  0  0  0
  144.4125   71.3839  219.1463 H   0  0  0  0  0  0  0  0  0  0  0  0
  146.6107   72.3006  220.6460 H   0  0  0  0  0  0  0  0  0  0  0  0
  146.1907   72.9131  219.0380 H   0  0  0  0  0  0  0  0  0  0  0  0
  145.7432   74.1520  221.7470 H   0  0  0  0  0  0  0  0  0  0  0  0
  145.9292   74.9633  220.1844 H   0  0  0  0  0  0  0  0  0  0  0  0
  143.4661   74.6365  221.4982 H   0  0  0  0  0  0  0  0  0  0  0  0
  143.4757   73.6226  217.9207 H   0  0  0  0  0  0  0  0  0  0  0  0
  142.8210   75.1957  216.0999 H   0  0  0  0  0  0  0  0  0  0  0  0
  142.8066   78.4712  218.9253 H   0  0  0  0  0  0  0  0  0  0  0  0
  143.4614   76.9058  220.7510 H   0  0  0  0  0  0  0  0  0  0  0  0
  139.1989   75.5154  219.4152 H   0  0  0  0  0  0  0  0  0  0  0  0
  139.6039   77.9704  219.1573 H   0  0  0  0  0  0  0  0  0  0  0  0
  140.3927   80.1024  220.1239 H   0  0  0  0  0  0  0  0  0  0  0  0
  142.1052   80.1233  224.1002 H   0  0  0  0  0  0  0  0  0  0  0  0
  141.7551   77.6586  224.2761 H   0  0  0  0  0  0  0  0  0  0  0  0
  1  2  2  0
  2  3  1  0
  3  4  1  0
  4  5  1  0
  5  6  2  0
  5  7  1  0
  7  8  1  0
  8  9  1  0
  9 10  1  0
 10 11  1  0
 11 12  1  0
 12 13  2  0
 13 14  1  0
 14 15  2  0
 15 16  1  0
 15 17  1  0
 17 18  2  0
  2 19  1  0
 19 20  2  0
 20 21  1  0
 21 22  2  0
 22 23  1  0
 23 24  2  0
 24 25  1  0
 24 26  1  0
 26 27  2  0
 27 28  1  0
 28 29  2  0
 11  7  1  0
 18 12  1  0
 29 19  1  0
 28 22  1  0
  4 30  1  0
  4 31  1  0
  8 32  1  0
  8 33  1  0
  9 34  1  0
  9 35  1  0
 10 36  1  0
 10 37  1  0
 11 38  1  1
 13 39  1  0
 14 40  1  0
 17 41  1  0
 18 42  1  0
 20 43  1  0
 21 44  1  0
 23 45  1  0
 26 46  1  0
 27 47  1  0
M  CHG  1   3  -1
M  END
>  <meeko>  (1) 
{"free_energy": -6.48, "intermolecular_energy": -8.27, "internal_energy": -2.68, "cluster_size": 1, "cluster_id": 6, "rank_in_cluster": 1}

$$$$

     RDKit          3D

 47 50  0  0  0  0  0  0  0  0999 V2000
  139.6850   73.9260  222.3220 O   0  0  0  0  0  0  0  0  0  0  0  0
  139.9860   72.7310  222.0660 C   0  0  0  0  0  0  0  0  0  0  0  0
  140.3950   72.3810  220.7370 N   0  0  0  0  0  0  0  0  0  0  0  0
  141.2960   71.2780  220.4070 C   0  0  0  0  0  0  0  0  0  0  0  0
  142.3300   71.7270  219.4080 C   0  0  0  0  0  0  0  0  0  0  0  0
  142.0600   71.6280  218.1800 O   0  0  0  0  0  0  0  0  0  0  0  0
  143.6000   72.2730  219.8140 N   0  0  0  0  0  0  0  0  0  0  0  0
  144.8870   71.8480  219.2830 C   0  0  0  0  0  0  0  0  0  0  0  0
  145.9280   72.7370  219.9520 C   0  0  0  0  0  0  0  0  0  0  0  0
  145.2280   73.3790  221.1480 C   0  0  0  0  0  0  0  0  0  0  0  0
  143.7290   73.2830  220.8560 C   0  0  1  0  0  0  0  0  0  0  0  0
  143.1660   74.6160  220.4040 C   0  0  0  0  0  0  0  0  0  0  0  0
  143.8210   75.3920  219.4290 C   0  0  0  0  0  0  0  0  0  0  0  0
  143.2980   76.6300  219.0410 C   0  0  0  0  0  0  0  0  0  0  0  0
  142.1220   77.1090  219.6280 C   0  0  0  0  0  0  0  0  0  0  0  0
  141.4690   78.6630  219.1410 Cl  0  0  0  0  0  0  0  0  0  0  0  0
  141.4720   76.3520  220.6070 C   0  0  0  0  0  0  0  0  0  0  0  0
  141.9920   75.1140  220.9960 C   0  0  0  0  0  0  0  0  0  0  0  0
  139.9600   71.7390  223.1480 C   0  0  0  0  0  0  0  0  0  0  0  0
  139.4900   70.4400  222.9150 C   0  0  0  0  0  0  0  0  0  0  0  0
  139.5300   69.4970  223.9440 C   0  0  0  0  0  0  0  0  0  0  0  0
  140.0470   69.8550  225.1950 C   0  0  0  0  0  0  0  0  0  0  0  0
  140.1360   68.9230  226.2410 C   0  0  0  0  0  0  0  0  0  0  0  0
  140.6700   69.3090  227.4750 C   0  0  0  0  0  0  0  0  0  0  0  0
  140.7910   68.1410  228.7790 Cl  0  0  0  0  0  0  0  0  0  0  0  0
  141.1120   70.6220  227.6710 C   0  0  0  0  0  0  0  0  0  0  0  0
  141.0230   71.5570  226.6350 C   0  0  0  0  0  0  0  0  0  0  0  0
  140.4950   71.1790  225.3960 C   0  0  0  0  0  0  0  0  0  0  0  0
  140.4350   72.0780  224.3760 N   0  0  0  0  0  0  0  0  0  0  0  0
  141.8008   70.9358  221.3225 H   0  0  0  0  0  0  0  0  0  0  0  0
  140.7097   70.4564  219.9696 H   0  0  0  0  0  0  0  0  0  0  0  0
  145.0719   70.7916  219.5274 H   0  0  0  0  0  0  0  0  0  0  0  0
  144.9221   71.9387  218.1873 H   0  0  0  0  0  0  0  0  0  0  0  0
  146.7849   72.1351  220.2887 H   0  0  0  0  0  0  0  0  0  0  0  0
  146.3156   73.4964  219.2569 H   0  0  0  0  0  0  0  0  0  0  0  0
  145.4736   72.8356  222.0723 H   0  0  0  0  0  0  0  0  0  0  0  0
  145.5462   74.4223  221.2907 H   0  0  0  0  0  0  0  0  0  0  0  0
  143.1598   73.0105  221.7570 H   0  0  0  0  0  0  0  0  0  0  0  0
  144.7497   75.0226  218.9695 H   0  0  0  0  0  0  0  0  0  0  0  0
  143.8119   77.2275  218.2736 H   0  0  0  0  0  0  0  0  0  0  0  0
  140.5500   76.7310  221.0720 H   0  0  0  0  0  0  0  0  0  0  0  0
  141.4790   74.5253  221.7708 H   0  0  0  0  0  0  0  0  0  0  0  0
  139.0918   70.1646  221.9273 H   0  0  0  0  0  0  0  0  0  0  0  0
  139.1567   68.4766  223.7724 H   0  0  0  0  0  0  0  0  0  0  0  0
  139.7864   67.8909  226.0905 H   0  0  0  0  0  0  0  0  0  0  0  0
  141.5310   70.9198  228.6435 H   0  0  0  0  0  0  0  0  0  0  0  0
  141.3680   72.5893  226.7943 H   0  0  0  0  0  0  0  0  0  0  0  0
  1  2  2  0
  2  3  1  0
  3  4  1  0
  4  5  1  0
  5  6  2  0
  5  7  1  0
  7  8  1  0
  8  9  1  0
  9 10  1  0
 10 11  1  0
 11 12  1  0
 12 13  2  0
 13 14  1  0
 14 15  2  0
 15 16  1  0
 15 17  1  0
 17 18  2  0
  2 19  1  0
 19 20  2  0
 20 21  1  0
 21 22  2  0
 22 23  1  0
 23 24  2  0
 24 25  1  0
 24 26  1  0
 26 27  2  0
 27 28  1  0
 28 29  2  0
 11  7  1  0
 18 12  1  0
 29 19  1  0
 28 22  1  0
  4 30  1  0
  4 31  1  0
  8 32  1  0
  8 33  1  0
  9 34  1  0
  9 35  1  0
 10 36  1  0
 10 37  1  0
 11 38  1  1
 13 39  1  0
 14 40  1  0
 17 41  1  0
 18 42  1  0
 20 43  1  0
 21 44  1  0
 23 45  1  0
 26 46  1  0
 27 47  1  0
M  CHG  1   3  -1
M  END
>  <meeko>  (2) 
{"free_energy": -7.93, "intermolecular_energy": -9.72, "internal_energy": -1.59, "cluster_size": 1, "cluster_id": 2, "rank_in_cluster": 1}

$$$$

     RDKit          3D

 47 50  0  0  0  0  0  0  0  0999 V2000
  141.1950   73.1520  221.3820 O   0  0  0  0  0  0  0  0  0  0  0  0
  140.0760   72.8690  221.8820 C   0  0  0  0  0  0  0  0  0  0  0  0
  138.8920   73.4590  221.3270 N   0  0  0  0  0  0  0  0  0  0  0  0
  138.1130   74.5180  221.9660 C   0  0  0  0  0  0  0  0  0  0  0  0
  138.8380   75.8340  221.8690 C   0  0  0  0  0  0  0  0  0  0  0  0
  138.6440   76.6950  222.7700 O   0  0  0  0  0  0  0  0  0  0  0  0
  139.7500   76.1270  220.7920 N   0  0  0  0  0  0  0  0  0  0  0  0
  139.3700   76.2010  219.3880 C   0  0  0  0  0  0  0  0  0  0  0  0
  140.6340   76.5950  218.6340 C   0  0  0  0  0  0  0  0  0  0  0  0
  141.7930   76.3440  219.5960 C   0  0  0  0  0  0  0  0  0  0  0  0
  141.1780   76.3270  220.9970 C   0  0  1  0  0  0  0  0  0  0  0  0
  141.4520   77.6200  221.7400 C   0  0  0  0  0  0  0  0  0  0  0  0
  141.4370   77.6710  223.1470 C   0  0  0  0  0  0  0  0  0  0  0  0
  141.6690   78.8770  223.8130 C   0  0  0  0  0  0  0  0  0  0  0  0
  141.9100   80.0470  223.0840 C   0  0  0  0  0  0  0  0  0  0  0  0
  142.2010   81.5590  223.9230 Cl  0  0  0  0  0  0  0  0  0  0  0  0
  141.9150   80.0090  221.6870 C   0  0  0  0  0  0  0  0  0  0  0  0
  141.6820   78.8040  221.0180 C   0  0  0  0  0  0  0  0  0  0  0  0
  140.0070   71.9030  222.9860 C   0  0  0  0  0  0  0  0  0  0  0  0
  139.4850   70.6190  222.7800 C   0  0  0  0  0  0  0  0  0  0  0  0
  139.4850   69.6990  223.8300 C   0  0  0  0  0  0  0  0  0  0  0  0
  140.0130   70.0630  225.0740 C   0  0  0  0  0  0  0  0  0  0  0  0
  140.0620   69.1530  226.1400 C   0  0  0  0  0  0  0  0  0  0  0  0
  140.6100   69.5430  227.3680 C   0  0  0  0  0  0  0  0  0  0  0  0
  140.6800   68.4020  228.6970 Cl  0  0  0  0  0  0  0  0  0  0  0  0
  141.1050   70.8420  227.5350 C   0  0  0  0  0  0  0  0  0  0  0  0
  141.0560   71.7560  226.4780 C   0  0  0  0  0  0  0  0  0  0  0  0
  140.5150   71.3720  225.2470 C   0  0  0  0  0  0  0  0  0  0  0  0
  140.4940   72.2490  224.2070 N   0  0  0  0  0  0  0  0  0  0  0  0
  137.1378   74.6036  221.4644 H   0  0  0  0  0  0  0  0  0  0  0  0
  137.9713   74.2660  223.0273 H   0  0  0  0  0  0  0  0  0  0  0  0
  139.0047   75.2241  219.0384 H   0  0  0  0  0  0  0  0  0  0  0  0
  138.5600   76.9275  219.2264 H   0  0  0  0  0  0  0  0  0  0  0  0
  140.7475   75.9789  217.7298 H   0  0  0  0  0  0  0  0  0  0  0  0
  140.5992   77.6457  218.3103 H   0  0  0  0  0  0  0  0  0  0  0  0
  142.2707   75.3779  219.3759 H   0  0  0  0  0  0  0  0  0  0  0  0
  142.5690   77.1183  219.5046 H   0  0  0  0  0  0  0  0  0  0  0  0
  141.6141   75.5305  221.6178 H   0  0  0  0  0  0  0  0  0  0  0  0
  141.2415   76.7559  223.7252 H   0  0  0  0  0  0  0  0  0  0  0  0
  141.6622   78.9070  224.9126 H   0  0  0  0  0  0  0  0  0  0  0  0
  142.1025   80.9285  221.1131 H   0  0  0  0  0  0  0  0  0  0  0  0
  141.6786   78.7821  219.9182 H   0  0  0  0  0  0  0  0  0  0  0  0
  139.0779   70.3379  221.7975 H   0  0  0  0  0  0  0  0  0  0  0  0
  139.0712   68.6909  223.6801 H   0  0  0  0  0  0  0  0  0  0  0  0
  139.6701   68.1333  226.0114 H   0  0  0  0  0  0  0  0  0  0  0  0
  141.5341   71.1447  228.5016 H   0  0  0  0  0  0  0  0  0  0  0  0
  141.4428   72.7766  226.6147 H   0  0  0  0  0  0  0  0  0  0  0  0
  1  2  2  0
  2  3  1  0
  3  4  1  0
  4  5  1  0
  5  6  2  0
  5  7  1  0
  7  8  1  0
  8  9  1  0
  9 10  1  0
 10 11  1  0
 11 12  1  0
 12 13  2  0
 13 14  1  0
 14 15  2  0
 15 16  1  0
 15 17  1  0
 17 18  2  0
  2 19  1  0
 19 20  2  0
 20 21  1  0
 21 22  2  0
 22 23  1  0
 23 24  2  0
 24 25  1  0
 24 26  1  0
 26 27  2  0
 27 28  1  0
 28 29  2  0
 11  7  1  0
 18 12  1  0
 29 19  1  0
 28 22  1  0
  4 30  1  0
  4 31  1  0
  8 32  1  0
  8 33  1  0
  9 34  1  0
  9 35  1  0
 10 36  1  0
 10 37  1  0
 11 38  1  1
 13 39  1  0
 14 40  1  0
 17 41  1  0
 18 42  1  0
 20 43  1  0
 21 44  1  0
 23 45  1  0
 26 46  1  0
 27 47  1  0
M  CHG  1   3  -1
M  END
>  <meeko>  (3) 
{"free_energy": -7.97, "intermolecular_energy": -9.76, "internal_energy": -1.59, "cluster_size": 12, "cluster_id": 1, "rank_in_cluster": 9}

$$$$

     RDKit          3D

 47 50  0  0  0  0  0  0  0  0999 V2000
  137.9770   76.2210  223.1330 O   0  0  0  0  0  0  0  0  0  0  0  0
  138.5480   76.9710  222.3000 C   0  0  0  0  0  0  0  0  0  0  0  0
  138.0020   78.2710  222.0370 N   0  0  0  0  0  0  0  0  0  0  0  0
  137.8030   79.3080  223.0480 C   0  0  0  0  0  0  0  0  0  0  0  0
  138.8000   80.4220  222.8590 C   0  0  0  0  0  0  0  0  0  0  0  0
  138.3830   81.5380  222.4460 O   0  0  0  0  0  0  0  0  0  0  0  0
  140.2020   80.2510  223.1480 N   0  0  0  0  0  0  0  0  0  0  0  0
  140.7680   79.0920  223.8220 C   0  0  0  0  0  0  0  0  0  0  0  0
  142.2740   79.3210  223.8510 C   0  0  0  0  0  0  0  0  0  0  0  0
  142.4810   80.8020  223.5410 C   0  0  0  0  0  0  0  0  0  0  0  0
  141.2010   81.2650  222.8420 C   0  0  1  0  0  0  0  0  0  0  0  0
  141.4060   81.4030  221.3450 C   0  0  0  0  0  0  0  0  0  0  0  0
  141.9510   80.3520  220.5840 C   0  0  0  0  0  0  0  0  0  0  0  0
  142.1530   80.5060  219.2090 C   0  0  0  0  0  0  0  0  0  0  0  0
  141.8220   81.7120  218.5820 C   0  0  0  0  0  0  0  0  0  0  0  0
  142.0770   81.9020  216.8570 Cl  0  0  0  0  0  0  0  0  0  0  0  0
  141.2920   82.7650  219.3320 C   0  0  0  0  0  0  0  0  0  0  0  0
  141.0890   82.6140  220.7070 C   0  0  0  0  0  0  0  0  0  0  0  0
  139.7870   76.5140  221.6560 C   0  0  0  0  0  0  0  0  0  0  0  0
  140.6230   77.4210  220.9930 C   0  0  0  0  0  0  0  0  0  0  0  0
  141.8240   76.9720  220.4390 C   0  0  0  0  0  0  0  0  0  0  0  0
  142.1860   75.6250  220.5600 C   0  0  0  0  0  0  0  0  0  0  0  0
  143.4020   75.1480  220.0490 C   0  0  0  0  0  0  0  0  0  0  0  0
  143.7400   73.7980  220.1980 C   0  0  0  0  0  0  0  0  0  0  0  0
  145.2650   73.2040  219.5680 Cl  0  0  0  0  0  0  0  0  0  0  0  0
  142.8660   72.9220  220.8530 C   0  0  0  0  0  0  0  0  0  0  0  0
  141.6510   73.3900  221.3620 C   0  0  0  0  0  0  0  0  0  0  0  0
  141.3070   74.7390  221.2210 C   0  0  0  0  0  0  0  0  0  0  0  0
  140.1390   75.2040  221.7430 N   0  0  0  0  0  0  0  0  0  0  0  0
  136.7845   79.7133  222.9563 H   0  0  0  0  0  0  0  0  0  0  0  0
  137.9450   78.8667  224.0455 H   0  0  0  0  0  0  0  0  0  0  0  0
  140.3730   79.0138  224.8456 H   0  0  0  0  0  0  0  0  0  0  0  0
  140.5113   78.1570  223.3025 H   0  0  0  0  0  0  0  0  0  0  0  0
  142.6784   79.0784  224.8448 H   0  0  0  0  0  0  0  0  0  0  0  0
  142.7929   78.6807  223.1225 H   0  0  0  0  0  0  0  0  0  0  0  0
  142.6367   81.3697  224.4703 H   0  0  0  0  0  0  0  0  0  0  0  0
  143.3676   80.9633  222.9102 H   0  0  0  0  0  0  0  0  0  0  0  0
  140.8883   82.2598  223.1922 H   0  0  0  0  0  0  0  0  0  0  0  0
  142.2195   79.4043  221.0736 H   0  0  0  0  0  0  0  0  0  0  0  0
  142.5728   79.6776  218.6194 H   0  0  0  0  0  0  0  0  0  0  0  0
  141.0341   83.7143  218.8398 H   0  0  0  0  0  0  0  0  0  0  0  0
  140.6782   83.4491  221.2934 H   0  0  0  0  0  0  0  0  0  0  0  0
  140.3359   78.4795  220.9091 H   0  0  0  0  0  0  0  0  0  0  0  0
  142.4837   77.6749  219.9090 H   0  0  0  0  0  0  0  0  0  0  0  0
  144.0890   75.8340  219.5319 H   0  0  0  0  0  0  0  0  0  0  0  0
  143.1363   71.8619  220.9675 H   0  0  0  0  0  0  0  0  0  0  0  0
  140.9656   72.6980  221.8732 H   0  0  0  0  0  0  0  0  0  0  0  0
  1  2  2  0
  2  3  1  0
  3  4  1  0
  4  5  1  0
  5  6  2  0
  5  7  1  0
  7  8  1  0
  8  9  1  0
  9 10  1  0
 10 11  1  0
 11 12  1  0
 12 13  2  0
 13 14  1  0
 14 15  2  0
 15 16  1  0
 15 17  1  0
 17 18  2  0
  2 19  1  0
 19 20  2  0
 20 21  1  0
 21 22  2  0
 22 23  1  0
 23 24  2  0
 24 25  1  0
 24 26  1  0
 26 27  2  0
 27 28  1  0
 28 29  2  0
 11  7  1  0
 18 12  1  0
 29 19  1  0
 28 22  1  0
  4 30  1  0
  4 31  1  0
  8 32  1  0
  8 33  1  0
  9 34  1  0
  9 35  1  0
 10 36  1  0
 10 37  1  0
 11 38  1  1
 13 39  1  0
 14 40  1  0
 17 41  1  0
 18 42  1  0
 20 43  1  0
 21 44  1  0
 23 45  1  0
 26 46  1  0
 27 47  1  0
M  CHG  1   3  -1
M  END
>  <meeko>  (4) 
{"free_energy": -6.76, "intermolecular_energy": -8.55, "internal_energy": -2.09, "cluster_size": 2, "cluster_id": 5, "rank_in_cluster": 1}

$$$$

     RDKit          3D

 47 50  0  0  0  0  0  0  0  0999 V2000
  141.0880   73.3520  221.6400 O   0  0  0  0  0  0  0  0  0  0  0  0
  139.9770   72.9380  222.0630 C   0  0  0  0  0  0  0  0  0  0  0  0
  138.7720   73.4200  221.4540 N   0  0  0  0  0  0  0  0  0  0  0  0
  138.0020   74.5690  221.9300 C   0  0  0  0  0  0  0  0  0  0  0  0
  138.8490   75.8140  221.9060 C   0  0  0  0  0  0  0  0  0  0  0  0
  138.7700   76.6130  222.8790 O   0  0  0  0  0  0  0  0  0  0  0  0
  139.7490   76.1060  220.8190 N   0  0  0  0  0  0  0  0  0  0  0  0
  139.3560   76.1690  219.4190 C   0  0  0  0  0  0  0  0  0  0  0  0
  140.6110   76.5660  218.6510 C   0  0  0  0  0  0  0  0  0  0  0  0
  141.7800   76.3290  219.6040 C   0  0  0  0  0  0  0  0  0  0  0  0
  141.1780   76.3160  221.0110 C   0  0  1  0  0  0  0  0  0  0  0  0
  141.4510   77.6150  221.7430 C   0  0  0  0  0  0  0  0  0  0  0  0
  141.4310   77.6780  223.1490 C   0  0  0  0  0  0  0  0  0  0  0  0
  141.6630   78.8890  223.8070 C   0  0  0  0  0  0  0  0  0  0  0  0
  141.9070   80.0520  223.0680 C   0  0  0  0  0  0  0  0  0  0  0  0
  142.1960   81.5720  223.8950 Cl  0  0  0  0  0  0  0  0  0  0  0  0
  141.9160   80.0020  221.6710 C   0  0  0  0  0  0  0  0  0  0  0  0
  141.6850   78.7920  221.0120 C   0  0  0  0  0  0  0  0  0  0  0  0
  139.9480   71.9330  223.1340 C   0  0  0  0  0  0  0  0  0  0  0  0
  139.4770   70.6370  222.8840 C   0  0  0  0  0  0  0  0  0  0  0  0
  139.5140   69.6830  223.9040 C   0  0  0  0  0  0  0  0  0  0  0  0
  140.0280   70.0260  225.1590 C   0  0  0  0  0  0  0  0  0  0  0  0
  140.1130   69.0830  226.1950 C   0  0  0  0  0  0  0  0  0  0  0  0
  140.6450   69.4540  227.4350 C   0  0  0  0  0  0  0  0  0  0  0  0
  140.7610   68.2720  228.7260 Cl  0  0  0  0  0  0  0  0  0  0  0  0
  141.0870   70.7650  227.6470 C   0  0  0  0  0  0  0  0  0  0  0  0
  141.0010   71.7110  226.6210 C   0  0  0  0  0  0  0  0  0  0  0  0
  140.4760   71.3480  225.3760 C   0  0  0  0  0  0  0  0  0  0  0  0
  140.4200   72.2580  224.3670 N   0  0  0  0  0  0  0  0  0  0  0  0
  137.1267   74.7134  221.2797 H   0  0  0  0  0  0  0  0  0  0  0  0
  137.6772   74.3779  222.9634 H   0  0  0  0  0  0  0  0  0  0  0  0
  138.9934   75.1878  219.0787 H   0  0  0  0  0  0  0  0  0  0  0  0
  138.5402   76.8896  219.2603 H   0  0  0  0  0  0  0  0  0  0  0  0
  140.7203   75.9446  217.7500 H   0  0  0  0  0  0  0  0  0  0  0  0
  140.5665   77.6143  218.3207 H   0  0  0  0  0  0  0  0  0  0  0  0
  142.2625   75.3650  219.3854 H   0  0  0  0  0  0  0  0  0  0  0  0
  142.5494   77.1083  219.5011 H   0  0  0  0  0  0  0  0  0  0  0  0
  141.6240   75.5261  221.6332 H   0  0  0  0  0  0  0  0  0  0  0  0
  141.2314   76.7680  223.7338 H   0  0  0  0  0  0  0  0  0  0  0  0
  141.6538   78.9279  224.9063 H   0  0  0  0  0  0  0  0  0  0  0  0
  142.1052   80.9166  221.0899 H   0  0  0  0  0  0  0  0  0  0  0  0
  141.6863   78.7604  219.9124 H   0  0  0  0  0  0  0  0  0  0  0  0
  139.0812   70.3729  221.8922 H   0  0  0  0  0  0  0  0  0  0  0  0
  139.1400   68.6649  223.7207 H   0  0  0  0  0  0  0  0  0  0  0  0
  139.7618   68.0533  226.0324 H   0  0  0  0  0  0  0  0  0  0  0  0
  141.5034   71.0520  228.6239 H   0  0  0  0  0  0  0  0  0  0  0  0
  141.3463   72.7412  226.7928 H   0  0  0  0  0  0  0  0  0  0  0  0
  1  2  2  0
  2  3  1  0
  3  4  1  0
  4  5  1  0
  5  6  2  0
  5  7  1  0
  7  8  1  0
  8  9  1  0
  9 10  1  0
 10 11  1  0
 11 12  1  0
 12 13  2  0
 13 14  1  0
 14 15  2  0
 15 16  1  0
 15 17  1  0
 17 18  2  0
  2 19  1  0
 19 20  2  0
 20 21  1  0
 21 22  2  0
 22 23  1  0
 23 24  2  0
 24 25  1  0
 24 26  1  0
 26 27  2  0
 27 28  1  0
 28 29  2  0
 11  7  1  0
 18 12  1  0
 29 19  1  0
 28 22  1  0
  4 30  1  0
  4 31  1  0
  8 32  1  0
  8 33  1  0
  9 34  1  0
  9 35  1  0
 10 36  1  0
 10 37  1  0
 11 38  1  1
 13 39  1  0
 14 40  1  0
 17 41  1  0
 18 42  1  0
 20 43  1  0
 21 44  1  0
 23 45  1  0
 26 46  1  0
 27 47  1  0
M  CHG  1   3  -1
M  END
>  <meeko>  (5) 
{"free_energy": -8.06, "intermolecular_energy": -9.85, "internal_energy": -1.54, "cluster_size": 12, "cluster_id": 1, "rank_in_cluster": 7}

$$$$

     RDKit          3D

 47 50  0  0  0  0  0  0  0  0999 V2000
  139.6120   71.0620  220.8750 O   0  0  0  0  0  0  0  0  0  0  0  0
  139.1020   71.4940  221.9410 C   0  0  0  0  0  0  0  0  0  0  0  0
  137.9480   72.3430  221.8720 N   0  0  0  0  0  0  0  0  0  0  0  0
  137.9810   73.7650  221.5320 C   0  0  0  0  0  0  0  0  0  0  0  0
  139.4000   74.2150  221.2990 C   0  0  0  0  0  0  0  0  0  0  0  0
  140.1940   74.2290  222.2790 O   0  0  0  0  0  0  0  0  0  0  0  0
  139.8720   74.6130  219.9970 N   0  0  0  0  0  0  0  0  0  0  0  0
  139.4820   75.8400  219.3190 C   0  0  0  0  0  0  0  0  0  0  0  0
  140.2710   75.8650  218.0150 C   0  0  0  0  0  0  0  0  0  0  0  0
  140.7910   74.4440  217.8110 C   0  0  0  0  0  0  0  0  0  0  0  0
  140.7590   73.7840  219.1910 C   0  0  1  0  0  0  0  0  0  0  0  0
  142.1450   73.7050  219.8010 C   0  0  0  0  0  0  0  0  0  0  0  0
  142.9910   74.8290  219.8370 C   0  0  0  0  0  0  0  0  0  0  0  0
  144.2740   74.7310  220.3830 C   0  0  0  0  0  0  0  0  0  0  0  0
  144.7300   73.5090  220.8900 C   0  0  0  0  0  0  0  0  0  0  0  0
  146.3400   73.3880  221.5730 Cl  0  0  0  0  0  0  0  0  0  0  0  0
  143.9010   72.3840  220.8450 C   0  0  0  0  0  0  0  0  0  0  0  0
  142.6180   72.4790  220.3000 C   0  0  0  0  0  0  0  0  0  0  0  0
  139.6710   71.0760  223.2290 C   0  0  0  0  0  0  0  0  0  0  0  0
  140.5310   71.9240  223.9390 C   0  0  0  0  0  0  0  0  0  0  0  0
  141.0130   71.5270  225.1880 C   0  0  0  0  0  0  0  0  0  0  0  0
  140.6260   70.2930  225.7230 C   0  0  0  0  0  0  0  0  0  0  0  0
  141.0620   69.8790  226.9900 C   0  0  0  0  0  0  0  0  0  0  0  0
  140.6470   68.6440  227.5030 C   0  0  0  0  0  0  0  0  0  0  0  0
  141.1830   68.1320  229.0920 Cl  0  0  0  0  0  0  0  0  0  0  0  0
  139.8010   67.8200  226.7520 C   0  0  0  0  0  0  0  0  0  0  0  0
  139.3660   68.2240  225.4860 C   0  0  0  0  0  0  0  0  0  0  0  0
  139.7720   69.4590  224.9680 C   0  0  0  0  0  0  0  0  0  0  0  0
  139.3260   69.8680  223.7500 N   0  0  0  0  0  0  0  0  0  0  0  0
  137.3924   73.9332  220.6180 H   0  0  0  0  0  0  0  0  0  0  0  0
  137.5554   74.3420  222.3663 H   0  0  0  0  0  0  0  0  0  0  0  0
  138.4015   75.8364  219.1126 H   0  0  0  0  0  0  0  0  0  0  0  0
  139.6920   76.7265  219.9354 H   0  0  0  0  0  0  0  0  0  0  0  0
  139.6185   76.1570  217.1789 H   0  0  0  0  0  0  0  0  0  0  0  0
  141.0942   76.5935  218.0558 H   0  0  0  0  0  0  0  0  0  0  0  0
  140.1438   73.8966  217.1099 H   0  0  0  0  0  0  0  0  0  0  0  0
  141.8055   74.4422  217.3857 H   0  0  0  0  0  0  0  0  0  0  0  0
  140.4016   72.7453  219.1325 H   0  0  0  0  0  0  0  0  0  0  0  0
  142.6406   75.7903  219.4331 H   0  0  0  0  0  0  0  0  0  0  0  0
  144.9264   75.6161  220.4142 H   0  0  0  0  0  0  0  0  0  0  0  0
  144.2597   71.4219  221.2396 H   0  0  0  0  0  0  0  0  0  0  0  0
  141.9737   71.5883  220.2612 H   0  0  0  0  0  0  0  0  0  0  0  0
  140.8245   72.8958  223.5155 H   0  0  0  0  0  0  0  0  0  0  0  0
  141.6949   72.1823  225.7498 H   0  0  0  0  0  0  0  0  0  0  0  0
  141.7295   70.5240  227.5803 H   0  0  0  0  0  0  0  0  0  0  0  0
  139.4770   66.8509  227.1592 H   0  0  0  0  0  0  0  0  0  0  0  0
  138.7048   67.5712  224.8973 H   0  0  0  0  0  0  0  0  0  0  0  0
  1  2  2  0
  2  3  1  0
  3  4  1  0
  4  5  1  0
  5  6  2  0
  5  7  1  0
  7  8  1  0
  8  9  1  0
  9 10  1  0
 10 11  1  0
 11 12  1  0
 12 13  2  0
 13 14  1  0
 14 15  2  0
 15 16  1  0
 15 17  1  0
 17 18  2  0
  2 19  1  0
 19 20  2  0
 20 21  1  0
 21 22  2  0
 22 23  1  0
 23 24  2  0
 24 25  1  0
 24 26  1  0
 26 27  2  0
 27 28  1  0
 28 29  2  0
 11  7  1  0
 18 12  1  0
 29 19  1  0
 28 22  1  0
  4 30  1  0
  4 31  1  0
  8 32  1  0
  8 33  1  0
  9 34  1  0
  9 35  1  0
 10 36  1  0
 10 37  1  0
 11 38  1  6
 13 39  1  0
 14 40  1  0
 17 41  1  0
 18 42  1  0
 20 43  1  0
 21 44  1  0
 23 45  1  0
 26 46  1  0
 27 47  1  0
M  CHG  1   3  -1
M  END
>  <meeko>  (6) 
{"free_energy": -7.31, "intermolecular_energy": -9.1, "internal_energy": -1.82, "cluster_size": 2, "cluster_id": 4, "rank_in_cluster": 2}

$$$$

     RDKit          3D

 47 50  0  0  0  0  0  0  0  0999 V2000
  138.9160   72.3480  221.3130 O   0  0  0  0  0  0  0  0  0  0  0  0
  139.8250   72.4550  222.1760 C   0  0  0  0  0  0  0  0  0  0  0  0
  140.7610   73.5370  222.0770 N   0  0  0  0  0  0  0  0  0  0  0  0
  141.5900   73.8140  220.9050 C   0  0  0  0  0  0  0  0  0  0  0  0
  141.3530   75.2180  220.4150 C   0  0  0  0  0  0  0  0  0  0  0  0
  142.2810   75.8020  219.7930 O   0  0  0  0  0  0  0  0  0  0  0  0
  140.1000   75.8990  220.6240 N   0  0  0  0  0  0  0  0  0  0  0  0
  138.8800   75.2560  221.0910 C   0  0  0  0  0  0  0  0  0  0  0  0
  137.8460   76.3680  221.2190 C   0  0  0  0  0  0  0  0  0  0  0  0
  138.4040   77.5540  220.4370 C   0  0  0  0  0  0  0  0  0  0  0  0
  139.9100   77.3140  220.3290 C   0  0  1  0  0  0  0  0  0  0  0  0
  140.6830   78.1870  221.2980 C   0  0  0  0  0  0  0  0  0  0  0  0
  140.8330   77.8220  222.6490 C   0  0  0  0  0  0  0  0  0  0  0  0
  141.5290   78.6510  223.5330 C   0  0  0  0  0  0  0  0  0  0  0  0
  142.0760   79.8570  223.0800 C   0  0  0  0  0  0  0  0  0  0  0  0
  142.9480   80.8960  224.1910 Cl  0  0  0  0  0  0  0  0  0  0  0  0
  141.9200   80.2340  221.7430 C   0  0  0  0  0  0  0  0  0  0  0  0
  141.2240   79.4070  220.8570 C   0  0  0  0  0  0  0  0  0  0  0  0
  139.8700   71.5000  223.2910 C   0  0  0  0  0  0  0  0  0  0  0  0
  139.4590   70.1730  223.1110 C   0  0  0  0  0  0  0  0  0  0  0  0
  139.5660   69.2700  224.1710 C   0  0  0  0  0  0  0  0  0  0  0  0
  140.0900   69.6940  225.3970 C   0  0  0  0  0  0  0  0  0  0  0  0
  140.2450   68.8050  226.4710 C   0  0  0  0  0  0  0  0  0  0  0  0
  140.7850   69.2570  227.6800 C   0  0  0  0  0  0  0  0  0  0  0  0
  140.9890   68.1420  229.0190 Cl  0  0  0  0  0  0  0  0  0  0  0  0
  141.1660   70.5970  227.8230 C   0  0  0  0  0  0  0  0  0  0  0  0
  141.0100   71.4890  226.7580 C   0  0  0  0  0  0  0  0  0  0  0  0
  140.4760   71.0450  225.5440 C   0  0  0  0  0  0  0  0  0  0  0  0
  140.3520   71.9040  224.4970 N   0  0  0  0  0  0  0  0  0  0  0  0
  142.6500   73.6984  221.1752 H   0  0  0  0  0  0  0  0  0  0  0  0
  141.3249   73.1071  220.1050 H   0  0  0  0  0  0  0  0  0  0  0  0
  138.5429   74.5015  220.3650 H   0  0  0  0  0  0  0  0  0  0  0  0
  139.0371   74.7377  222.0485 H   0  0  0  0  0  0  0  0  0  0  0  0
  136.8846   76.0469  220.7917 H   0  0  0  0  0  0  0  0  0  0  0  0
  137.6641   76.6295  222.2719 H   0  0  0  0  0  0  0  0  0  0  0  0
  137.9510   77.5991  219.4356 H   0  0  0  0  0  0  0  0  0  0  0  0
  138.1821   78.5080  220.9377 H   0  0  0  0  0  0  0  0  0  0  0  0
  140.2880   77.5746  219.3294 H   0  0  0  0  0  0  0  0  0  0  0  0
  140.3996   76.8782  223.0114 H   0  0  0  0  0  0  0  0  0  0  0  0
  141.6470   78.3553  224.5859 H   0  0  0  0  0  0  0  0  0  0  0  0
  142.3460   81.1838  221.3874 H   0  0  0  0  0  0  0  0  0  0  0  0
  141.0988   79.7128  219.8078 H   0  0  0  0  0  0  0  0  0  0  0  0
  139.0550   69.8446  222.1420 H   0  0  0  0  0  0  0  0  0  0  0  0
  139.2390   68.2276  224.0423 H   0  0  0  0  0  0  0  0  0  0  0  0
  139.9421   67.7531  226.3627 H   0  0  0  0  0  0  0  0  0  0  0  0
  141.5890   70.9485  228.7756 H   0  0  0  0  0  0  0  0  0  0  0  0
  141.3076   72.5415  226.8749 H   0  0  0  0  0  0  0  0  0  0  0  0
  1  2  2  0
  2  3  1  0
  3  4  1  0
  4  5  1  0
  5  6  2  0
  5  7  1  0
  7  8  1  0
  8  9  1  0
  9 10  1  0
 10 11  1  0
 11 12  1  0
 12 13  2  0
 13 14  1  0
 14 15  2  0
 15 16  1  0
 15 17  1  0
 17 18  2  0
  2 19  1  0
 19 20  2  0
 20 21  1  0
 21 22  2  0
 22 23  1  0
 23 24  2  0
 24 25  1  0
 24 26  1  0
 26 27  2  0
 27 28  1  0
 28 29  2  0
 11  7  1  0
 18 12  1  0
 29 19  1  0
 28 22  1  0
  4 30  1  0
  4 31  1  0
  8 32  1  0
  8 33  1  0
  9 34  1  0
  9 35  1  0
 10 36  1  0
 10 37  1  0
 11 38  1  6
 13 39  1  0
 14 40  1  0
 17 41  1  0
 18 42  1  0
 20 43  1  0
 21 44  1  0
 23 45  1  0
 26 46  1  0
 27 47  1  0
M  CHG  1   3  -1
M  END
>  <meeko>  (7) 
{"free_energy": -8.25, "intermolecular_energy": -10.04, "internal_energy": -1.13, "cluster_size": 12, "cluster_id": 1, "rank_in_cluster": 2}

$$$$

     RDKit          3D

 47 50  0  0  0  0  0  0  0  0999 V2000
  141.6060   72.7580  221.1310 O   0  0  0  0  0  0  0  0  0  0  0  0
  140.5280   72.8460  221.7750 C   0  0  0  0  0  0  0  0  0  0  0  0
  139.5430   73.8040  221.3650 N   0  0  0  0  0  0  0  0  0  0  0  0
  138.9240   74.7900  222.2490 C   0  0  0  0  0  0  0  0  0  0  0  0
  138.6350   76.0620  221.4950 C   0  0  0  0  0  0  0  0  0  0  0  0
  137.6430   76.7560  221.8470 O   0  0  0  0  0  0  0  0  0  0  0  0
  139.4630   76.5090  220.4030 N   0  0  0  0  0  0  0  0  0  0  0  0
  138.9680   76.8330  219.0730 C   0  0  0  0  0  0  0  0  0  0  0  0
  140.1780   77.3130  218.2830 C   0  0  0  0  0  0  0  0  0  0  0  0
  141.4040   76.8680  219.0780 C   0  0  0  0  0  0  0  0  0  0  0  0
  140.9110   76.6280  220.5060 C   0  0  1  0  0  0  0  0  0  0  0  0
  141.3060   77.7660  221.4280 C   0  0  0  0  0  0  0  0  0  0  0  0
  141.1510   77.6630  222.8230 C   0  0  0  0  0  0  0  0  0  0  0  0
  141.4990   78.7310  223.6550 C   0  0  0  0  0  0  0  0  0  0  0  0
  141.9960   79.9160  223.1030 C   0  0  0  0  0  0  0  0  0  0  0  0
  142.4310   81.2560  224.1480 Cl  0  0  0  0  0  0  0  0  0  0  0  0
  142.1410   80.0330  221.7170 C   0  0  0  0  0  0  0  0  0  0  0  0
  141.7940   78.9660  220.8840 C   0  0  0  0  0  0  0  0  0  0  0  0
  140.2870   71.9280  222.8960 C   0  0  0  0  0  0  0  0  0  0  0  0
  139.6340   70.7050  222.6900 C   0  0  0  0  0  0  0  0  0  0  0  0
  139.4680   69.8250  223.7610 C   0  0  0  0  0  0  0  0  0  0  0  0
  139.9630   70.1650  225.0250 C   0  0  0  0  0  0  0  0  0  0  0  0
  139.8470   69.2890  226.1140 C   0  0  0  0  0  0  0  0  0  0  0  0
  140.3650   69.6530  227.3630 C   0  0  0  0  0  0  0  0  0  0  0  0
  140.2290   68.5520  228.7210 Cl  0  0  0  0  0  0  0  0  0  0  0  0
  140.9950   70.8920  227.5280 C   0  0  0  0  0  0  0  0  0  0  0  0
  141.1110   71.7720  226.4480 C   0  0  0  0  0  0  0  0  0  0  0  0
  140.6010   71.4140  225.1960 C   0  0  0  0  0  0  0  0  0  0  0  0
  140.7390   72.2560  224.1350 N   0  0  0  0  0  0  0  0  0  0  0  0
  137.9826   74.3814  222.6451 H   0  0  0  0  0  0  0  0  0  0  0  0
  139.6156   75.0135  223.0746 H   0  0  0  0  0  0  0  0  0  0  0  0
  138.5311   75.9414  218.5996 H   0  0  0  0  0  0  0  0  0  0  0  0
  138.1803   77.5998  219.1109 H   0  0  0  0  0  0  0  0  0  0  0  0
  140.1858   76.8575  217.2818 H   0  0  0  0  0  0  0  0  0  0  0  0
  140.1618   78.4042  218.1450 H   0  0  0  0  0  0  0  0  0  0  0  0
  141.8188   75.9411  218.6552 H   0  0  0  0  0  0  0  0  0  0  0  0
  142.2024   77.6241  219.0473 H   0  0  0  0  0  0  0  0  0  0  0  0
  141.3618   75.7236  220.9404 H   0  0  0  0  0  0  0  0  0  0  0  0
  140.7534   76.7359  223.2615 H   0  0  0  0  0  0  0  0  0  0  0  0
  141.3818   78.6393  224.7449 H   0  0  0  0  0  0  0  0  0  0  0  0
  142.5287   80.9660  221.2820 H   0  0  0  0  0  0  0  0  0  0  0  0
  141.9038   79.0664  219.7941 H   0  0  0  0  0  0  0  0  0  0  0  0
  139.2551   70.4405  221.6918 H   0  0  0  0  0  0  0  0  0  0  0  0
  138.9493   68.8665  223.6116 H   0  0  0  0  0  0  0  0  0  0  0  0
  139.3493   68.3163  225.9871 H   0  0  0  0  0  0  0  0  0  0  0  0
  141.4002   71.1742  228.5109 H   0  0  0  0  0  0  0  0  0  0  0  0
  141.6035   72.7463  226.5830 H   0  0  0  0  0  0  0  0  0  0  0  0
  1  2  2  0
  2  3  1  0
  3  4  1  0
  4  5  1  0
  5  6  2  0
  5  7  1  0
  7  8  1  0
  8  9  1  0
  9 10  1  0
 10 11  1  0
 11 12  1  0
 12 13  2  0
 13 14  1  0
 14 15  2  0
 15 16  1  0
 15 17  1  0
 17 18  2  0
  2 19  1  0
 19 20  2  0
 20 21  1  0
 21 22  2  0
 22 23  1  0
 23 24  2  0
 24 25  1  0
 24 26  1  0
 26 27  2  0
 27 28  1  0
 28 29  2  0
 11  7  1  0
 18 12  1  0
 29 19  1  0
 28 22  1  0
  4 30  1  0
  4 31  1  0
  8 32  1  0
  8 33  1  0
  9 34  1  0
  9 35  1  0
 10 36  1  0
 10 37  1  0
 11 38  1  1
 13 39  1  0
 14 40  1  0
 17 41  1  0
 18 42  1  0
 20 43  1  0
 21 44  1  0
 23 45  1  0
 26 46  1  0
 27 47  1  0
M  CHG  1   3  -1
M  END
>  <meeko>  (8) 
{"free_energy": -7.53, "intermolecular_energy": -9.32, "internal_energy": -1.43, "cluster_size": 12, "cluster_id": 1, "rank_in_cluster": 12}

$$$$

     RDKit          3D

 47 50  0  0  0  0  0  0  0  0999 V2000
  140.8920   73.4980  221.9420 O   0  0  0  0  0  0  0  0  0  0  0  0
  139.8260   72.9130  222.2650 C   0  0  0  0  0  0  0  0  0  0  0  0
  138.6150   73.2260  221.5640 N   0  0  0  0  0  0  0  0  0  0  0  0
  137.9180   74.5090  221.6420 C   0  0  0  0  0  0  0  0  0  0  0  0
  138.9080   75.6370  221.7580 C   0  0  0  0  0  0  0  0  0  0  0  0
  138.8900   76.3470  222.8010 O   0  0  0  0  0  0  0  0  0  0  0  0
  139.8760   75.9160  220.7280 N   0  0  0  0  0  0  0  0  0  0  0  0
  139.5870   75.9040  219.3010 C   0  0  0  0  0  0  0  0  0  0  0  0
  140.8810   76.3130  218.6090 C   0  0  0  0  0  0  0  0  0  0  0  0
  141.9840   76.1600  219.6550 C   0  0  0  0  0  0  0  0  0  0  0  0
  141.2790   76.1860  221.0130 C   0  0  1  0  0  0  0  0  0  0  0  0
  141.4530   77.5240  221.7030 C   0  0  0  0  0  0  0  0  0  0  0  0
  141.6640   78.7040  220.9650 C   0  0  0  0  0  0  0  0  0  0  0  0
  141.8460   79.9260  221.6200 C   0  0  0  0  0  0  0  0  0  0  0  0
  141.8270   79.9820  223.0180 C   0  0  0  0  0  0  0  0  0  0  0  0
  142.0560   81.5150  223.8370 Cl  0  0  0  0  0  0  0  0  0  0  0  0
  141.6320   78.8130  223.7600 C   0  0  0  0  0  0  0  0  0  0  0  0
  141.4500   77.5900  223.1070 C   0  0  0  0  0  0  0  0  0  0  0  0
  139.8630   71.8880  223.3170 C   0  0  0  0  0  0  0  0  0  0  0  0
  139.4560   70.5740  223.0480 C   0  0  0  0  0  0  0  0  0  0  0  0
  139.5550   69.6050  224.0480 C   0  0  0  0  0  0  0  0  0  0  0  0
  140.0670   69.9500  225.3040 C   0  0  0  0  0  0  0  0  0  0  0  0
  140.2140   68.9940  226.3190 C   0  0  0  0  0  0  0  0  0  0  0  0
  140.7420   69.3680  227.5600 C   0  0  0  0  0  0  0  0  0  0  0  0
  140.9360   68.1700  228.8260 Cl  0  0  0  0  0  0  0  0  0  0  0  0
  141.1190   70.6960  227.7920 C   0  0  0  0  0  0  0  0  0  0  0  0
  140.9710   71.6550  226.7860 C   0  0  0  0  0  0  0  0  0  0  0  0
  140.4490   71.2890  225.5410 C   0  0  0  0  0  0  0  0  0  0  0  0
  140.3330   72.2140  224.5500 N   0  0  0  0  0  0  0  0  0  0  0  0
  137.3135   74.6491  220.7337 H   0  0  0  0  0  0  0  0  0  0  0  0
  137.2699   74.5099  222.5308 H   0  0  0  0  0  0  0  0  0  0  0  0
  139.2838   74.8963  218.9806 H   0  0  0  0  0  0  0  0  0  0  0  0
  138.7619   76.5870  219.0505 H   0  0  0  0  0  0  0  0  0  0  0  0
  141.0775   75.6577  217.7476 H   0  0  0  0  0  0  0  0  0  0  0  0
  140.8263   77.3437  218.2287 H   0  0  0  0  0  0  0  0  0  0  0  0
  142.5132   75.2056  219.5166 H   0  0  0  0  0  0  0  0  0  0  0  0
  142.7331   76.9613  219.5729 H   0  0  0  0  0  0  0  0  0  0  0  0
  141.7037   75.4401  221.7010 H   0  0  0  0  0  0  0  0  0  0  0  0
  141.6859   78.6646  219.8659 H   0  0  0  0  0  0  0  0  0  0  0  0
  142.0043   80.8443  221.0355 H   0  0  0  0  0  0  0  0  0  0  0  0
  141.6218   78.8555  224.8591 H   0  0  0  0  0  0  0  0  0  0  0  0
  141.3034   76.6729  223.6964 H   0  0  0  0  0  0  0  0  0  0  0  0
  139.0615   70.3083  222.0562 H   0  0  0  0  0  0  0  0  0  0  0  0
  139.2313   68.5727  223.8493 H   0  0  0  0  0  0  0  0  0  0  0  0
  139.9146   67.9508  226.1401 H   0  0  0  0  0  0  0  0  0  0  0  0
  141.5330   70.9857  228.7691 H   0  0  0  0  0  0  0  0  0  0  0  0
  141.2652   72.6982  226.9735 H   0  0  0  0  0  0  0  0  0  0  0  0
  1  2  2  0
  2  3  1  0
  3  4  1  0
  4  5  1  0
  5  6  2  0
  5  7  1  0
  7  8  1  0
  8  9  1  0
  9 10  1  0
 10 11  1  0
 11 12  1  0
 12 13  2  0
 13 14  1  0
 14 15  2  0
 15 16  1  0
 15 17  1  0
 17 18  2  0
  2 19  1  0
 19 20  2  0
 20 21  1  0
 21 22  2  0
 22 23  1  0
 23 24  2  0
 24 25  1  0
 24 26  1  0
 26 27  2  0
 27 28  1  0
 28 29  2  0
 11  7  1  0
 18 12  1  0
 29 19  1  0
 28 22  1  0
  4 30  1  0
  4 31  1  0
  8 32  1  0
  8 33  1  0
  9 34  1  0
  9 35  1  0
 10 36  1  0
 10 37  1  0
 11 38  1  1
 13 39  1  0
 14 40  1  0
 17 41  1  0
 18 42  1  0
 20 43  1  0
 21 44  1  0
 23 45  1  0
 26 46  1  0
 27 47  1  0
M  CHG  1   3  -1
M  END
>  <meeko>  (9) 
{"free_energy": -8.23, "intermolecular_energy": -10.02, "internal_energy": -1.42, "cluster_size": 12, "cluster_id": 1, "rank_in_cluster": 4}

$$$$

     RDKit          3D

 47 50  0  0  0  0  0  0  0  0999 V2000
  133.9490   69.3890  226.8520 O   0  0  0  0  0  0  0  0  0  0  0  0
  134.1620   70.3930  226.1240 C   0  0  0  0  0  0  0  0  0  0  0  0
  134.9750   70.2480  224.9520 N   0  0  0  0  0  0  0  0  0  0  0  0
  135.8250   69.0930  224.6670 C   0  0  0  0  0  0  0  0  0  0  0  0
  136.4930   69.2520  223.3260 C   0  0  0  0  0  0  0  0  0  0  0  0
  136.1100   68.5190  222.3740 O   0  0  0  0  0  0  0  0  0  0  0  0
  137.5370   70.2200  223.1010 N   0  0  0  0  0  0  0  0  0  0  0  0
  137.3060   71.6250  222.7970 C   0  0  0  0  0  0  0  0  0  0  0  0
  138.6860   72.2640  222.7050 C   0  0  0  0  0  0  0  0  0  0  0  0
  139.6760   71.1100  222.5680 C   0  0  0  0  0  0  0  0  0  0  0  0
  138.9510   69.8710  223.0990 C   0  0  1  0  0  0  0  0  0  0  0  0
  139.4300   69.5020  224.4900 C   0  0  0  0  0  0  0  0  0  0  0  0
  139.2340   68.2090  225.0100 C   0  0  0  0  0  0  0  0  0  0  0  0
  139.6610   67.8940  226.3030 C   0  0  0  0  0  0  0  0  0  0  0  0
  140.2790   68.8670  227.0940 C   0  0  0  0  0  0  0  0  0  0  0  0
  140.8130   68.4700  228.7170 Cl  0  0  0  0  0  0  0  0  0  0  0  0
  140.4660   70.1590  226.5920 C   0  0  0  0  0  0  0  0  0  0  0  0
  140.0400   70.4760  225.2990 C   0  0  0  0  0  0  0  0  0  0  0  0
  133.5300   71.6730  226.4680 C   0  0  0  0  0  0  0  0  0  0  0  0
  132.3250   71.7060  227.1820 C   0  0  0  0  0  0  0  0  0  0  0  0
  131.7750   72.9370  227.5470 C   0  0  0  0  0  0  0  0  0  0  0  0
  132.4340   74.1230  227.2050 C   0  0  0  0  0  0  0  0  0  0  0  0
  131.9290   75.3740  227.5880 C   0  0  0  0  0  0  0  0  0  0  0  0
  132.6190   76.5420  227.2420 C   0  0  0  0  0  0  0  0  0  0  0  0
  131.9920   78.1050  227.7300 Cl  0  0  0  0  0  0  0  0  0  0  0  0
  133.8110   76.4640  226.5130 C   0  0  0  0  0  0  0  0  0  0  0  0
  134.3190   75.2200  226.1250 C   0  0  0  0  0  0  0  0  0  0  0  0
  133.6380   74.0480  226.4700 C   0  0  0  0  0  0  0  0  0  0  0  0
  134.1450   72.8350  226.1210 N   0  0  0  0  0  0  0  0  0  0  0  0
  136.5950   69.0079  225.4479 H   0  0  0  0  0  0  0  0  0  0  0  0
  135.2022   68.1864  224.6507 H   0  0  0  0  0  0  0  0  0  0  0  0
  136.7725   71.7269  221.8405 H   0  0  0  0  0  0  0  0  0  0  0  0
  136.6872   72.1087  223.5672 H   0  0  0  0  0  0  0  0  0  0  0  0
  138.7440   72.9236  221.8266 H   0  0  0  0  0  0  0  0  0  0  0  0
  138.9047   72.8795  223.5901 H   0  0  0  0  0  0  0  0  0  0  0  0
  139.9545   70.9678  221.5134 H   0  0  0  0  0  0  0  0  0  0  0  0
  140.6039   71.3052  223.1255 H   0  0  0  0  0  0  0  0  0  0  0  0
  139.1497   68.9885  222.4731 H   0  0  0  0  0  0  0  0  0  0  0  0
  138.7416   67.4414  224.3949 H   0  0  0  0  0  0  0  0  0  0  0  0
  139.5105   66.8788  226.6989 H   0  0  0  0  0  0  0  0  0  0  0  0
  140.9487   70.9262  227.2152 H   0  0  0  0  0  0  0  0  0  0  0  0
  140.1833   71.4955  224.9117 H   0  0  0  0  0  0  0  0  0  0  0  0
  131.8158   70.7694  227.4532 H   0  0  0  0  0  0  0  0  0  0  0  0
  130.8260   72.9740  228.1020 H   0  0  0  0  0  0  0  0  0  0  0  0
  130.9915   75.4375  228.1598 H   0  0  0  0  0  0  0  0  0  0  0  0
  134.3503   77.3843  226.2442 H   0  0  0  0  0  0  0  0  0  0  0  0
  135.2541   75.1633  225.5485 H   0  0  0  0  0  0  0  0  0  0  0  0
  1  2  2  0
  2  3  1  0
  3  4  1  0
  4  5  1  0
  5  6  2  0
  5  7  1  0
  7  8  1  0
  8  9  1  0
  9 10  1  0
 10 11  1  0
 11 12  1  0
 12 13  2  0
 13 14  1  0
 14 15  2  0
 15 16  1  0
 15 17  1  0
 17 18  2  0
  2 19  1  0
 19 20  2  0
 20 21  1  0
 21 22  2  0
 22 23  1  0
 23 24  2  0
 24 25  1  0
 24 26  1  0
 26 27  2  0
 27 28  1  0
 28 29  2  0
 11  7  1  0
 18 12  1  0
 29 19  1  0
 28 22  1  0
  4 30  1  0
  4 31  1  0
  8 32  1  0
  8 33  1  0
  9 34  1  0
  9 35  1  0
 10 36  1  0
 10 37  1  0
 11 38  1  6
 13 39  1  0
 14 40  1  0
 17 41  1  0
 18 42  1  0
 20 43  1  0
 21 44  1  0
 23 45  1  0
 26 46  1  0
 27 47  1  0
M  CHG  1   3  -1
M  END
>  <meeko>  (10) 
{"free_energy": -7.89, "intermolecular_energy": -9.68, "internal_energy": -1.3, "cluster_size": 2, "cluster_id": 3, "rank_in_cluster": 1}

$$$$

     RDKit          3D

 47 50  0  0  0  0  0  0  0  0999 V2000
  139.6260   72.5070  220.7080 O   0  0  0  0  0  0  0  0  0  0  0  0
  140.1210   72.8280  221.8190 C   0  0  0  0  0  0  0  0  0  0  0  0
  140.7020   74.1290  221.9790 N   0  0  0  0  0  0  0  0  0  0  0  0
  140.8530   75.1090  220.9040 C   0  0  0  0  0  0  0  0  0  0  0  0
  139.5050   75.6100  220.4570 C   0  0  0  0  0  0  0  0  0  0  0  0
  139.2070   75.5220  219.2350 O   0  0  0  0  0  0  0  0  0  0  0  0
  138.5500   76.1670  221.3820 N   0  0  0  0  0  0  0  0  0  0  0  0
  137.7020   75.3790  222.2650 C   0  0  0  0  0  0  0  0  0  0  0  0
  136.9140   76.3850  223.0940 C   0  0  0  0  0  0  0  0  0  0  0  0
  137.0520   77.7240  222.3720 C   0  0  0  0  0  0  0  0  0  0  0  0
  138.2930   77.5970  221.4880 C   0  0  1  0  0  0  0  0  0  0  0  0
  139.4790   78.3270  222.0870 C   0  0  0  0  0  0  0  0  0  0  0  0
  139.3760   78.9970  223.3200 C   0  0  0  0  0  0  0  0  0  0  0  0
  140.4740   79.6850  223.8460 C   0  0  0  0  0  0  0  0  0  0  0  0
  141.6830   79.7180  223.1430 C   0  0  0  0  0  0  0  0  0  0  0  0
  143.0580   80.5820  223.8040 Cl  0  0  0  0  0  0  0  0  0  0  0  0
  141.7910   79.0660  221.9110 C   0  0  0  0  0  0  0  0  0  0  0  0
  140.6950   78.3790  221.3830 C   0  0  0  0  0  0  0  0  0  0  0  0
  140.0440   71.8790  222.9380 C   0  0  0  0  0  0  0  0  0  0  0  0
  139.5200   70.5930  222.7480 C   0  0  0  0  0  0  0  0  0  0  0  0
  139.5120   69.6890  223.8130 C   0  0  0  0  0  0  0  0  0  0  0  0
  140.0330   70.0720  225.0540 C   0  0  0  0  0  0  0  0  0  0  0  0
  140.0740   69.1770  226.1350 C   0  0  0  0  0  0  0  0  0  0  0  0
  140.6140   69.5860  227.3590 C   0  0  0  0  0  0  0  0  0  0  0  0
  140.6740   68.4650  228.7060 Cl  0  0  0  0  0  0  0  0  0  0  0  0
  141.1100   70.8860  227.5100 C   0  0  0  0  0  0  0  0  0  0  0  0
  141.0700   71.7840  226.4390 C   0  0  0  0  0  0  0  0  0  0  0  0
  140.5360   71.3820  225.2100 C   0  0  0  0  0  0  0  0  0  0  0  0
  140.5230   72.2430  224.1570 N   0  0  0  0  0  0  0  0  0  0  0  0
  141.4523   75.9566  221.2679 H   0  0  0  0  0  0  0  0  0  0  0  0
  141.3558   74.6288  220.0516 H   0  0  0  0  0  0  0  0  0  0  0  0
  137.0185   74.7487  221.6771 H   0  0  0  0  0  0  0  0  0  0  0  0
  138.2961   74.7075  222.9023 H   0  0  0  0  0  0  0  0  0  0  0  0
  135.8562   76.0885  223.1509 H   0  0  0  0  0  0  0  0  0  0  0  0
  137.2922   76.4420  224.1254 H   0  0  0  0  0  0  0  0  0  0  0  0
  136.1619   77.9202  221.7562 H   0  0  0  0  0  0  0  0  0  0  0  0
  137.1458   78.5584  223.0826 H   0  0  0  0  0  0  0  0  0  0  0  0
  138.1318   78.0543  220.5006 H   0  0  0  0  0  0  0  0  0  0  0  0
  138.4257   78.9795  223.8737 H   0  0  0  0  0  0  0  0  0  0  0  0
  140.3869   80.2008  224.8136 H   0  0  0  0  0  0  0  0  0  0  0  0
  142.7405   79.0940  221.3564 H   0  0  0  0  0  0  0  0  0  0  0  0
  140.7841   77.8750  220.4093 H   0  0  0  0  0  0  0  0  0  0  0  0
  139.1181   70.2977  221.7676 H   0  0  0  0  0  0  0  0  0  0  0  0
  139.0974   68.6793  223.6765 H   0  0  0  0  0  0  0  0  0  0  0  0
  139.6821   68.1557  226.0196 H   0  0  0  0  0  0  0  0  0  0  0  0
  141.5329   71.2025  228.4749 H   0  0  0  0  0  0  0  0  0  0  0  0
  141.4581   72.8058  226.5627 H   0  0  0  0  0  0  0  0  0  0  0  0
  1  2  2  0
  2  3  1  0
  3  4  1  0
  4  5  1  0
  5  6  2  0
  5  7  1  0
  7  8  1  0
  8  9  1  0
  9 10  1  0
 10 11  1  0
 11 12  1  0
 12 13  2  0
 13 14  1  0
 14 15  2  0
 15 16  1  0
 15 17  1  0
 17 18  2  0
  2 19  1  0
 19 20  2  0
 20 21  1  0
 21 22  2  0
 22 23  1  0
 23 24  2  0
 24 25  1  0
 24 26  1  0
 26 27  2  0
 27 28  1  0
 28 29  2  0
 11  7  1  0
 18 12  1  0
 29 19  1  0
 28 22  1  0
  4 30  1  0
  4 31  1  0
  8 32  1  0
  8 33  1  0
  9 34  1  0
  9 35  1  0
 10 36  1  0
 10 37  1  0
 11 38  1  6
 13 39  1  0
 14 40  1  0
 17 41  1  0
 18 42  1  0
 20 43  1  0
 21 44  1  0
 23 45  1  0
 26 46  1  0
 27 47  1  0
M  CHG  1   3  -1
M  END
>  <meeko>  (11) 
{"free_energy": -8.24, "intermolecular_energy": -10.03, "internal_energy": -1.39, "cluster_size": 12, "cluster_id": 1, "rank_in_cluster": 3}

$$$$

     RDKit          3D

 47 50  0  0  0  0  0  0  0  0999 V2000
  139.8640   74.1500  222.3330 O   0  0  0  0  0  0  0  0  0  0  0  0
  140.1550   72.9540  222.0680 C   0  0  0  0  0  0  0  0  0  0  0  0
  140.6030   72.6180  220.7480 N   0  0  0  0  0  0  0  0  0  0  0  0
  141.7900   73.1800  220.1050 C   0  0  0  0  0  0  0  0  0  0  0  0
  141.7800   74.6830  220.2080 C   0  0  0  0  0  0  0  0  0  0  0  0
  142.7890   75.2590  220.6980 O   0  0  0  0  0  0  0  0  0  0  0  0
  140.6640   75.4730  219.7510 N   0  0  0  0  0  0  0  0  0  0  0  0
  139.2940   74.9900  219.6630 C   0  0  0  0  0  0  0  0  0  0  0  0
  138.4620   76.1780  219.1960 C   0  0  0  0  0  0  0  0  0  0  0  0
  139.4570   77.2000  218.6490 C   0  0  0  0  0  0  0  0  0  0  0  0
  140.8080   76.8410  219.2700 C   0  0  1  0  0  0  0  0  0  0  0  0
  141.1700   77.7870  220.3980 C   0  0  0  0  0  0  0  0  0  0  0  0
  141.7440   79.0460  220.1400 C   0  0  0  0  0  0  0  0  0  0  0  0
  142.0920   79.8950  221.1940 C   0  0  0  0  0  0  0  0  0  0  0  0
  141.8780   79.4940  222.5170 C   0  0  0  0  0  0  0  0  0  0  0  0
  142.3160   80.5610  223.8390 Cl  0  0  0  0  0  0  0  0  0  0  0  0
  141.3210   78.2400  222.7840 C   0  0  0  0  0  0  0  0  0  0  0  0
  140.9720   77.3890  221.7320 C   0  0  0  0  0  0  0  0  0  0  0  0
  140.0750   71.9450  223.1320 C   0  0  0  0  0  0  0  0  0  0  0  0
  139.5780   70.6630  222.8650 C   0  0  0  0  0  0  0  0  0  0  0  0
  139.5670   69.7030  223.8790 C   0  0  0  0  0  0  0  0  0  0  0  0
  140.0600   70.0270  225.1490 C   0  0  0  0  0  0  0  0  0  0  0  0
  140.0970   69.0770  226.1800 C   0  0  0  0  0  0  0  0  0  0  0  0
  140.6080   69.4290  227.4350 C   0  0  0  0  0  0  0  0  0  0  0  0
  140.6650   68.2370  228.7210 Cl  0  0  0  0  0  0  0  0  0  0  0  0
  141.0780   70.7270  227.6640 C   0  0  0  0  0  0  0  0  0  0  0  0
  141.0400   71.6800  226.6420 C   0  0  0  0  0  0  0  0  0  0  0  0
  140.5360   71.3360  225.3830 C   0  0  0  0  0  0  0  0  0  0  0  0
  140.5260   72.2520  224.3780 N   0  0  0  0  0  0  0  0  0  0  0  0
  142.6906   72.7885  220.6007 H   0  0  0  0  0  0  0  0  0  0  0  0
  141.7896   72.8947  219.0426 H   0  0  0  0  0  0  0  0  0  0  0  0
  139.2247   74.1656  218.9380 H   0  0  0  0  0  0  0  0  0  0  0  0
  138.9391   74.6032  220.6297 H   0  0  0  0  0  0  0  0  0  0  0  0
  137.7609   75.8672  218.4074 H   0  0  0  0  0  0  0  0  0  0  0  0
  137.8633   76.5984  220.0175 H   0  0  0  0  0  0  0  0  0  0  0  0
  139.5100   77.1338  217.5523 H   0  0  0  0  0  0  0  0  0  0  0  0
  139.1580   78.2290  218.8977 H   0  0  0  0  0  0  0  0  0  0  0  0
  141.6234   76.9288  218.5370 H   0  0  0  0  0  0  0  0  0  0  0  0
  141.9199   79.3638  219.1017 H   0  0  0  0  0  0  0  0  0  0  0  0
  142.5347   80.8797  220.9831 H   0  0  0  0  0  0  0  0  0  0  0  0
  141.1571   77.9225  223.8243 H   0  0  0  0  0  0  0  0  0  0  0  0
  140.5395   76.4011  221.9489 H   0  0  0  0  0  0  0  0  0  0  0  0
  139.1988   70.4140  221.8629 H   0  0  0  0  0  0  0  0  0  0  0  0
  139.1724   68.6955  223.6808 H   0  0  0  0  0  0  0  0  0  0  0  0
  139.7252   68.0570  226.0029 H   0  0  0  0  0  0  0  0  0  0  0  0
  141.4788   70.9984  228.6518 H   0  0  0  0  0  0  0  0  0  0  0  0
  141.4064   72.7004  226.8277 H   0  0  0  0  0  0  0  0  0  0  0  0
  1  2  2  0
  2  3  1  0
  3  4  1  0
  4  5  1  0
  5  6  2  0
  5  7  1  0
  7  8  1  0
  8  9  1  0
  9 10  1  0
 10 11  1  0
 11 12  1  0
 12 13  2  0
 13 14  1  0
 14 15  2  0
 15 16  1  0
 15 17  1  0
 17 18  2  0
  2 19  1  0
 19 20  2  0
 20 21  1  0
 21 22  2  0
 22 23  1  0
 23 24  2  0
 24 25  1  0
 24 26  1  0
 26 27  2  0
 27 28  1  0
 28 29  2  0
 11  7  1  0
 18 12  1  0
 29 19  1  0
 28 22  1  0
  4 30  1  0
  4 31  1  0
  8 32  1  0
  8 33  1  0
  9 34  1  0
  9 35  1  0
 10 36  1  0
 10 37  1  0
 11 38  1  6
 13 39  1  0
 14 40  1  0
 17 41  1  0
 18 42  1  0
 20 43  1  0
 21 44  1  0
 23 45  1  0
 26 46  1  0
 27 47  1  0
M  CHG  1   3  -1
M  END
>  <meeko>  (12) 
{"free_energy": -7.76, "intermolecular_energy": -9.55, "internal_energy": -1.33, "cluster_size": 12, "cluster_id": 1, "rank_in_cluster": 11}

$$$$

     RDKit          3D

 47 50  0  0  0  0  0  0  0  0999 V2000
  139.9320   72.4660  220.6950 O   0  0  0  0  0  0  0  0  0  0  0  0
  140.0760   72.8720  221.8770 C   0  0  0  0  0  0  0  0  0  0  0  0
  140.2480   74.2750  222.1200 N   0  0  0  0  0  0  0  0  0  0  0  0
  139.2440   75.2970  221.8310 C   0  0  0  0  0  0  0  0  0  0  0  0
  139.3860   75.7850  220.4130 C   0  0  0  0  0  0  0  0  0  0  0  0
  138.3400   76.0690  219.7680 O   0  0  0  0  0  0  0  0  0  0  0  0
  140.6730   75.9480  219.7850 N   0  0  0  0  0  0  0  0  0  0  0  0
  140.9610   75.6130  218.3980 C   0  0  0  0  0  0  0  0  0  0  0  0
  142.4140   76.0080  218.1670 C   0  0  0  0  0  0  0  0  0  0  0  0
  143.0260   76.1920  219.5540 C   0  0  0  0  0  0  0  0  0  0  0  0
  141.8490   76.4200  220.5040 C   0  0  1  0  0  0  0  0  0  0  0  0
  141.7150   77.8820  220.8810 C   0  0  0  0  0  0  0  0  0  0  0  0
  141.4540   78.2730  222.2080 C   0  0  0  0  0  0  0  0  0  0  0  0
  141.3110   79.6250  222.5320 C   0  0  0  0  0  0  0  0  0  0  0  0
  141.4170   80.6000  221.5360 C   0  0  0  0  0  0  0  0  0  0  0  0
  141.2360   82.2960  221.9450 Cl  0  0  0  0  0  0  0  0  0  0  0  0
  141.6620   80.2210  220.2120 C   0  0  0  0  0  0  0  0  0  0  0  0
  141.8060   78.8700  219.8860 C   0  0  0  0  0  0  0  0  0  0  0  0
  140.0130   71.9030  222.9800 C   0  0  0  0  0  0  0  0  0  0  0  0
  139.5200   70.6090  222.7660 C   0  0  0  0  0  0  0  0  0  0  0  0
  139.5240   69.6890  223.8150 C   0  0  0  0  0  0  0  0  0  0  0  0
  140.0280   70.0620  225.0660 C   0  0  0  0  0  0  0  0  0  0  0  0
  140.0820   69.1520  226.1330 C   0  0  0  0  0  0  0  0  0  0  0  0
  140.6040   69.5520  227.3680 C   0  0  0  0  0  0  0  0  0  0  0  0
  140.6800   68.4110  228.6970 Cl  0  0  0  0  0  0  0  0  0  0  0  0
  141.0700   70.8610  227.5430 C   0  0  0  0  0  0  0  0  0  0  0  0
  141.0160   71.7740  226.4860 C   0  0  0  0  0  0  0  0  0  0  0  0
  140.5000   71.3810  225.2470 C   0  0  0  0  0  0  0  0  0  0  0  0
  140.4750   72.2590  224.2080 N   0  0  0  0  0  0  0  0  0  0  0  0
  138.2403   74.8683  221.9682 H   0  0  0  0  0  0  0  0  0  0  0  0
  139.3894   76.1447  222.5168 H   0  0  0  0  0  0  0  0  0  0  0  0
  140.8260   74.5345  218.2287 H   0  0  0  0  0  0  0  0  0  0  0  0
  140.2848   76.1373  217.7067 H   0  0  0  0  0  0  0  0  0  0  0  0
  142.9430   75.2150  217.6180 H   0  0  0  0  0  0  0  0  0  0  0  0
  142.4912   76.9271  217.5675 H   0  0  0  0  0  0  0  0  0  0  0  0
  143.5861   75.2920  219.8477 H   0  0  0  0  0  0  0  0  0  0  0  0
  143.7320   77.0353  219.5756 H   0  0  0  0  0  0  0  0  0  0  0  0
  141.9872   75.8813  221.4530 H   0  0  0  0  0  0  0  0  0  0  0  0
  141.3620   77.5097  222.9947 H   0  0  0  0  0  0  0  0  0  0  0  0
  141.1147   79.9224  223.5727 H   0  0  0  0  0  0  0  0  0  0  0  0
  141.7414   80.9873  219.4268 H   0  0  0  0  0  0  0  0  0  0  0  0
  141.9921   78.5775  218.8421 H   0  0  0  0  0  0  0  0  0  0  0  0
  139.1325   70.3204  221.7778 H   0  0  0  0  0  0  0  0  0  0  0  0
  139.1320   68.6731  223.6590 H   0  0  0  0  0  0  0  0  0  0  0  0
  139.7139   68.1242  225.9984 H   0  0  0  0  0  0  0  0  0  0  0  0
  141.4798   71.1717  228.5154 H   0  0  0  0  0  0  0  0  0  0  0  0
  141.3796   72.8023  226.6288 H   0  0  0  0  0  0  0  0  0  0  0  0
  1  2  2  0
  2  3  1  0
  3  4  1  0
  4  5  1  0
  5  6  2  0
  5  7  1  0
  7  8  1  0
  8  9  1  0
  9 10  1  0
 10 11  1  0
 11 12  1  0
 12 13  2  0
 13 14  1  0
 14 15  2  0
 15 16  1  0
 15 17  1  0
 17 18  2  0
  2 19  1  0
 19 20  2  0
 20 21  1  0
 21 22  2  0
 22 23  1  0
 23 24  2  0
 24 25  1  0
 24 26  1  0
 26 27  2  0
 27 28  1  0
 28 29  2  0
 11  7  1  0
 18 12  1  0
 29 19  1  0
 28 22  1  0
  4 30  1  0
  4 31  1  0
  8 32  1  0
  8 33  1  0
  9 34  1  0
  9 35  1  0
 10 36  1  0
 10 37  1  0
 11 38  1  1
 13 39  1  0
 14 40  1  0
 17 41  1  0
 18 42  1  0
 20 43  1  0
 21 44  1  0
 23 45  1  0
 26 46  1  0
 27 47  1  0
M  CHG  1   3  -1
M  END
>  <meeko>  (13) 
{"free_energy": -7.82, "intermolecular_energy": -9.61, "internal_energy": -1.42, "cluster_size": 12, "cluster_id": 1, "rank_in_cluster": 10}

$$$$

     RDKit          3D

 47 50  0  0  0  0  0  0  0  0999 V2000
  140.2190   72.4530  220.8860 O   0  0  0  0  0  0  0  0  0  0  0  0
  140.0450   72.8300  222.0740 C   0  0  0  0  0  0  0  0  0  0  0  0
  139.8460   74.2240  222.3440 N   0  0  0  0  0  0  0  0  0  0  0  0
  138.6780   74.9950  221.9210 C   0  0  0  0  0  0  0  0  0  0  0  0
  138.8700   75.5120  220.5190 C   0  0  0  0  0  0  0  0  0  0  0  0
  137.8500   75.8510  219.8590 O   0  0  0  0  0  0  0  0  0  0  0  0
  140.1760   75.6410  219.9240 N   0  0  0  0  0  0  0  0  0  0  0  0
  140.4380   75.5820  218.4930 C   0  0  0  0  0  0  0  0  0  0  0  0
  141.9330   75.8270  218.3330 C   0  0  0  0  0  0  0  0  0  0  0  0
  142.5440   75.6240  219.7180 C   0  0  0  0  0  0  0  0  0  0  0  0
  141.3930   75.7880  220.7110 C   0  0  1  0  0  0  0  0  0  0  0  0
  141.4430   77.1380  221.4000 C   0  0  0  0  0  0  0  0  0  0  0  0
  141.0700   77.2830  222.7500 C   0  0  0  0  0  0  0  0  0  0  0  0
  141.1000   78.5400  223.3610 C   0  0  0  0  0  0  0  0  0  0  0  0
  141.4950   79.6660  222.6310 C   0  0  0  0  0  0  0  0  0  0  0  0
  141.5310   81.2420  223.4000 Cl  0  0  0  0  0  0  0  0  0  0  0  0
  141.8540   79.5340  221.2860 C   0  0  0  0  0  0  0  0  0  0  0  0
  141.8240   78.2790  220.6720 C   0  0  0  0  0  0  0  0  0  0  0  0
  139.9970   71.8260  223.1440 C   0  0  0  0  0  0  0  0  0  0  0  0
  139.5250   70.5320  222.8890 C   0  0  0  0  0  0  0  0  0  0  0  0
  139.5440   69.5780  223.9080 C   0  0  0  0  0  0  0  0  0  0  0  0
  140.0430   69.9190  225.1710 C   0  0  0  0  0  0  0  0  0  0  0  0
  140.1120   68.9750  226.2070 C   0  0  0  0  0  0  0  0  0  0  0  0
  140.6290   69.3440  227.4540 C   0  0  0  0  0  0  0  0  0  0  0  0
  140.7240   68.1620  228.7460 Cl  0  0  0  0  0  0  0  0  0  0  0  0
  141.0740   70.6530  227.6710 C   0  0  0  0  0  0  0  0  0  0  0  0
  141.0050   71.6000  226.6440 C   0  0  0  0  0  0  0  0  0  0  0  0
  140.4940   71.2380  225.3930 C   0  0  0  0  0  0  0  0  0  0  0  0
  140.4550   72.1490  224.3830 N   0  0  0  0  0  0  0  0  0  0  0  0
  137.7876   74.3498  221.9507 H   0  0  0  0  0  0  0  0  0  0  0  0
  138.5485   75.8492  222.6018 H   0  0  0  0  0  0  0  0  0  0  0  0
  140.1674   74.5930  218.0947 H   0  0  0  0  0  0  0  0  0  0  0  0
  139.8450   76.3270  217.9423 H   0  0  0  0  0  0  0  0  0  0  0  0
  142.3630   75.1112  217.6170 H   0  0  0  0  0  0  0  0  0  0  0  0
  142.1365   76.8368  217.9471 H   0  0  0  0  0  0  0  0  0  0  0  0
  142.9800   74.6174  219.8002 H   0  0  0  0  0  0  0  0  0  0  0  0
  143.3518   76.3447  219.9130 H   0  0  0  0  0  0  0  0  0  0  0  0
  141.4474   75.0409  221.5165 H   0  0  0  0  0  0  0  0  0  0  0  0
  140.7531   76.4019  223.3273 H   0  0  0  0  0  0  0  0  0  0  0  0
  140.8125   78.6438  224.4177 H   0  0  0  0  0  0  0  0  0  0  0  0
  142.1606   80.4197  220.7102 H   0  0  0  0  0  0  0  0  0  0  0  0
  142.1004   78.1831  219.6116 H   0  0  0  0  0  0  0  0  0  0  0  0
  139.1417   70.2692  221.8920 H   0  0  0  0  0  0  0  0  0  0  0  0
  139.1681   68.5616  223.7193 H   0  0  0  0  0  0  0  0  0  0  0  0
  139.7602   67.9464  226.0392 H   0  0  0  0  0  0  0  0  0  0  0  0
  141.4796   70.9382  228.6529 H   0  0  0  0  0  0  0  0  0  0  0  0
  141.3523   72.6288  226.8198 H   0  0  0  0  0  0  0  0  0  0  0  0
  1  2  2  0
  2  3  1  0
  3  4  1  0
  4  5  1  0
  5  6  2  0
  5  7  1  0
  7  8  1  0
  8  9  1  0
  9 10  1  0
 10 11  1  0
 11 12  1  0
 12 13  2  0
 13 14  1  0
 14 15  2  0
 15 16  1  0
 15 17  1  0
 17 18  2  0
  2 19  1  0
 19 20  2  0
 20 21  1  0
 21 22  2  0
 22 23  1  0
 23 24  2  0
 24 25  1  0
 24 26  1  0
 26 27  2  0
 27 28  1  0
 28 29  2  0
 11  7  1  0
 18 12  1  0
 29 19  1  0
 28 22  1  0
  4 30  1  0
  4 31  1  0
  8 32  1  0
  8 33  1  0
  9 34  1  0
  9 35  1  0
 10 36  1  0
 10 37  1  0
 11 38  1  1
 13 39  1  0
 14 40  1  0
 17 41  1  0
 18 42  1  0
 20 43  1  0
 21 44  1  0
 23 45  1  0
 26 46  1  0
 27 47  1  0
M  CHG  1   3  -1
M  END
>  <meeko>  (14) 
{"free_energy": -8.08, "intermolecular_energy": -9.87, "internal_energy": -1.38, "cluster_size": 12, "cluster_id": 1, "rank_in_cluster": 6}

$$$$

     RDKit          3D

 47 50  0  0  0  0  0  0  0  0999 V2000
  139.7840   72.1780  220.8360 O   0  0  0  0  0  0  0  0  0  0  0  0
  140.0160   72.5780  222.0060 C   0  0  0  0  0  0  0  0  0  0  0  0
  140.2750   73.9700  222.2320 N   0  0  0  0  0  0  0  0  0  0  0  0
  140.8150   74.8890  221.2300 C   0  0  0  0  0  0  0  0  0  0  0  0
  139.7160   75.7490  220.6630 C   0  0  0  0  0  0  0  0  0  0  0  0
  139.6870   75.9410  219.4160 O   0  0  0  0  0  0  0  0  0  0  0  0
  138.6990   76.3400  221.4960 N   0  0  0  0  0  0  0  0  0  0  0  0
  137.7910   75.5860  222.3470 C   0  0  0  0  0  0  0  0  0  0  0  0
  136.9470   76.6230  223.0780 C   0  0  0  0  0  0  0  0  0  0  0  0
  137.1370   77.9330  222.3160 C   0  0  0  0  0  0  0  0  0  0  0  0
  138.4370   77.7730  221.5270 C   0  0  1  0  0  0  0  0  0  0  0  0
  139.5790   78.5280  222.1790 C   0  0  0  0  0  0  0  0  0  0  0  0
  140.6580   77.8470  222.7740 C   0  0  0  0  0  0  0  0  0  0  0  0
  141.6900   78.5590  223.3910 C   0  0  0  0  0  0  0  0  0  0  0  0
  141.6530   79.9570  223.4290 C   0  0  0  0  0  0  0  0  0  0  0  0
  142.9480   80.8490  224.2050 Cl  0  0  0  0  0  0  0  0  0  0  0  0
  140.5790   80.6420  222.8520 C   0  0  0  0  0  0  0  0  0  0  0  0
  139.5450   79.9320  222.2350 C   0  0  0  0  0  0  0  0  0  0  0  0
  139.9660   71.6160  223.1150 C   0  0  0  0  0  0  0  0  0  0  0  0
  139.4680   70.3210  222.9150 C   0  0  0  0  0  0  0  0  0  0  0  0
  139.4840   69.4070  223.9700 C   0  0  0  0  0  0  0  0  0  0  0  0
  140.0050   69.7880  225.2130 C   0  0  0  0  0  0  0  0  0  0  0  0
  140.0700   68.8840  226.2840 C   0  0  0  0  0  0  0  0  0  0  0  0
  140.6090   69.2910  227.5090 C   0  0  0  0  0  0  0  0  0  0  0  0
  140.7000   68.1580  228.8450 Cl  0  0  0  0  0  0  0  0  0  0  0  0
  141.0780   70.6000  227.6710 C   0  0  0  0  0  0  0  0  0  0  0  0
  141.0130   71.5070  226.6090 C   0  0  0  0  0  0  0  0  0  0  0  0
  140.4810   71.1070  225.3790 C   0  0  0  0  0  0  0  0  0  0  0  0
  140.4440   71.9780  224.3350 N   0  0  0  0  0  0  0  0  0  0  0  0
  141.5737   75.5325  221.6993 H   0  0  0  0  0  0  0  0  0  0  0  0
  141.2680   74.3045  220.4157 H   0  0  0  0  0  0  0  0  0  0  0  0
  137.1503   74.9315  221.7379 H   0  0  0  0  0  0  0  0  0  0  0  0
  138.3381   74.9413  223.0506 H   0  0  0  0  0  0  0  0  0  0  0  0
  135.8876   76.3271  223.0714 H   0  0  0  0  0  0  0  0  0  0  0  0
  137.2515   76.7211  224.1305 H   0  0  0  0  0  0  0  0  0  0  0  0
  136.2926   78.1039  221.6320 H   0  0  0  0  0  0  0  0  0  0  0  0
  137.1816   78.7947  222.9982 H   0  0  0  0  0  0  0  0  0  0  0  0
  138.3463   78.1906  220.5134 H   0  0  0  0  0  0  0  0  0  0  0  0
  140.6889   76.7476  222.7531 H   0  0  0  0  0  0  0  0  0  0  0  0
  142.5328   78.0194  223.8476 H   0  0  0  0  0  0  0  0  0  0  0  0
  140.5478   81.7411  222.8837 H   0  0  0  0  0  0  0  0  0  0  0  0
  138.6987   80.4759  221.7901 H   0  0  0  0  0  0  0  0  0  0  0  0
  139.0674   70.0271  221.9336 H   0  0  0  0  0  0  0  0  0  0  0  0
  139.0886   68.3907  223.8256 H   0  0  0  0  0  0  0  0  0  0  0  0
  139.6976   67.8564  226.1605 H   0  0  0  0  0  0  0  0  0  0  0  0
  141.4990   70.9160  228.6369 H   0  0  0  0  0  0  0  0  0  0  0  0
  141.3804   72.5354  226.7409 H   0  0  0  0  0  0  0  0  0  0  0  0
  1  2  2  0
  2  3  1  0
  3  4  1  0
  4  5  1  0
  5  6  2  0
  5  7  1  0
  7  8  1  0
  8  9  1  0
  9 10  1  0
 10 11  1  0
 11 12  1  0
 12 13  2  0
 13 14  1  0
 14 15  2  0
 15 16  1  0
 15 17  1  0
 17 18  2  0
  2 19  1  0
 19 20  2  0
 20 21  1  0
 21 22  2  0
 22 23  1  0
 23 24  2  0
 24 25  1  0
 24 26  1  0
 26 27  2  0
 27 28  1  0
 28 29  2  0
 11  7  1  0
 18 12  1  0
 29 19  1  0
 28 22  1  0
  4 30  1  0
  4 31  1  0
  8 32  1  0
  8 33  1  0
  9 34  1  0
  9 35  1  0
 10 36  1  0
 10 37  1  0
 11 38  1  6
 13 39  1  0
 14 40  1  0
 17 41  1  0
 18 42  1  0
 20 43  1  0
 21 44  1  0
 23 45  1  0
 26 46  1  0
 27 47  1  0
M  CHG  1   3  -1
M  END
>  <meeko>  (15) 
{"free_energy": -8.37, "intermolecular_energy": -10.16, "internal_energy": -1.25, "cluster_size": 12, "cluster_id": 1, "rank_in_cluster": 1}

$$$$

     RDKit          3D

 47 50  0  0  0  0  0  0  0  0999 V2000
  137.1630   78.1440  222.0960 O   0  0  0  0  0  0  0  0  0  0  0  0
  138.2470   78.4510  221.5360 C   0  0  0  0  0  0  0  0  0  0  0  0
  138.4360   79.7910  221.0630 N   0  0  0  0  0  0  0  0  0  0  0  0
  138.2600   80.9930  221.8760 C   0  0  0  0  0  0  0  0  0  0  0  0
  138.9540   80.8330  223.2040 C   0  0  0  0  0  0  0  0  0  0  0  0
  138.3140   81.1180  224.2540 O   0  0  0  0  0  0  0  0  0  0  0  0
  140.3090   80.3540  223.3070 N   0  0  0  0  0  0  0  0  0  0  0  0
  140.6850   79.0570  223.8490 C   0  0  0  0  0  0  0  0  0  0  0  0
  142.1990   78.9650  223.6990 C   0  0  0  0  0  0  0  0  0  0  0  0
  142.6830   80.3890  223.4350 C   0  0  0  0  0  0  0  0  0  0  0  0
  141.4620   81.1580  222.9240 C   0  0  1  0  0  0  0  0  0  0  0  0
  141.5210   81.3580  221.4220 C   0  0  0  0  0  0  0  0  0  0  0  0
  142.0450   80.3640  220.5740 C   0  0  0  0  0  0  0  0  0  0  0  0
  142.1110   80.5750  219.1940 C   0  0  0  0  0  0  0  0  0  0  0  0
  141.6640   81.7830  218.6460 C   0  0  0  0  0  0  0  0  0  0  0  0
  141.7500   82.0460  216.9150 Cl  0  0  0  0  0  0  0  0  0  0  0  0
  141.1550   82.7800  219.4820 C   0  0  0  0  0  0  0  0  0  0  0  0
  141.0870   82.5720  220.8630 C   0  0  0  0  0  0  0  0  0  0  0  0
  139.3080   77.4410  221.4300 C   0  0  0  0  0  0  0  0  0  0  0  0
  139.1490   76.1740  222.0060 C   0  0  0  0  0  0  0  0  0  0  0  0
  140.1480   75.2120  221.8410 C   0  0  0  0  0  0  0  0  0  0  0  0
  141.2920   75.5180  221.0950 C   0  0  0  0  0  0  0  0  0  0  0  0
  142.2970   74.5640  220.8780 C   0  0  0  0  0  0  0  0  0  0  0  0
  143.4230   74.8970  220.1160 C   0  0  0  0  0  0  0  0  0  0  0  0
  144.6750   73.7000  219.8370 Cl  0  0  0  0  0  0  0  0  0  0  0  0
  143.5500   76.1800  219.5730 C   0  0  0  0  0  0  0  0  0  0  0  0
  142.5540   77.1370  219.7880 C   0  0  0  0  0  0  0  0  0  0  0  0
  141.4230   76.8120  220.5440 C   0  0  0  0  0  0  0  0  0  0  0  0
  140.4370   77.7310  220.7300 N   0  0  0  0  0  0  0  0  0  0  0  0
  138.6877   81.8561  221.3448 H   0  0  0  0  0  0  0  0  0  0  0  0
  137.1857   81.1523  222.0508 H   0  0  0  0  0  0  0  0  0  0  0  0
  140.4006   78.9883  224.9094 H   0  0  0  0  0  0  0  0  0  0  0  0
  140.1762   78.2362  223.3224 H   0  0  0  0  0  0  0  0  0  0  0  0
  142.6514   78.5724  224.6217 H   0  0  0  0  0  0  0  0  0  0  0  0
  142.4824   78.2851  222.8820 H   0  0  0  0  0  0  0  0  0  0  0  0
  143.0606   80.8432  224.3630 H   0  0  0  0  0  0  0  0  0  0  0  0
  143.5066   80.4075  222.7060 H   0  0  0  0  0  0  0  0  0  0  0  0
  141.4126   82.1686  223.3555 H   0  0  0  0  0  0  0  0  0  0  0  0
  142.4046   79.4157  221.0000 H   0  0  0  0  0  0  0  0  0  0  0  0
  142.5149   79.7904  218.5373 H   0  0  0  0  0  0  0  0  0  0  0  0
  140.8068   83.7310  219.0527 H   0  0  0  0  0  0  0  0  0  0  0  0
  140.6912   83.3638  221.5161 H   0  0  0  0  0  0  0  0  0  0  0  0
  138.2435   75.9384  222.5843 H   0  0  0  0  0  0  0  0  0  0  0  0
  140.0360   74.2168  222.2960 H   0  0  0  0  0  0  0  0  0  0  0  0
  142.2005   73.5553  221.3061 H   0  0  0  0  0  0  0  0  0  0  0  0
  144.4367   76.4367  218.9748 H   0  0  0  0  0  0  0  0  0  0  0  0
  142.6597   78.1459  219.3625 H   0  0  0  0  0  0  0  0  0  0  0  0
  1  2  2  0
  2  3  1  0
  3  4  1  0
  4  5  1  0
  5  6  2  0
  5  7  1  0
  7  8  1  0
  8  9  1  0
  9 10  1  0
 10 11  1  0
 11 12  1  0
 12 13  2  0
 13 14  1  0
 14 15  2  0
 15 16  1  0
 15 17  1  0
 17 18  2  0
  2 19  1  0
 19 20  2  0
 20 21  1  0
 21 22  2  0
 22 23  1  0
 23 24  2  0
 24 25  1  0
 24 26  1  0
 26 27  2  0
 27 28  1  0
 28 29  2  0
 11  7  1  0
 18 12  1  0
 29 19  1  0
 28 22  1  0
  4 30  1  0
  4 31  1  0
  8 32  1  0
  8 33  1  0
  9 34  1  0
  9 35  1  0
 10 36  1  0
 10 37  1  0
 11 38  1  1
 13 39  1  0
 14 40  1  0
 17 41  1  0
 18 42  1  0
 20 43  1  0
 21 44  1  0
 23 45  1  0
 26 46  1  0
 27 47  1  0
M  CHG  1   3  -1
M  END
>  <meeko>  (16) 
{"free_energy": -6.38, "intermolecular_energy": -8.17, "internal_energy": -2.73, "cluster_size": 2, "cluster_id": 5, "rank_in_cluster": 2}

$$$$

     RDKit          3D

 47 50  0  0  0  0  0  0  0  0999 V2000
  137.8860   70.5260  221.0620 O   0  0  0  0  0  0  0  0  0  0  0  0
  138.4230   71.4130  221.7740 C   0  0  0  0  0  0  0  0  0  0  0  0
  138.2980   72.7890  221.3920 N   0  0  0  0  0  0  0  0  0  0  0  0
  139.3910   73.6110  220.8740 C   0  0  0  0  0  0  0  0  0  0  0  0
  139.5870   74.8280  221.7400 C   0  0  0  0  0  0  0  0  0  0  0  0
  140.7040   74.9910  222.3020 O   0  0  0  0  0  0  0  0  0  0  0  0
  138.5480   75.8080  221.9280 N   0  0  0  0  0  0  0  0  0  0  0  0
  137.3320   75.5830  222.6960 C   0  0  0  0  0  0  0  0  0  0  0  0
  136.5720   76.9030  222.6720 C   0  0  0  0  0  0  0  0  0  0  0  0
  137.1970   77.7270  221.5490 C   0  0  0  0  0  0  0  0  0  0  0  0
  138.5850   77.1280  221.3120 C   0  0  1  0  0  0  0  0  0  0  0  0
  139.6730   77.9900  221.9200 C   0  0  0  0  0  0  0  0  0  0  0  0
  140.9580   78.0540  221.3480 C   0  0  0  0  0  0  0  0  0  0  0  0
  141.9560   78.8370  221.9360 C   0  0  0  0  0  0  0  0  0  0  0  0
  141.6850   79.5570  223.1050 C   0  0  0  0  0  0  0  0  0  0  0  0
  142.9390   80.5370  223.8420 Cl  0  0  0  0  0  0  0  0  0  0  0  0
  140.4160   79.4890  223.6870 C   0  0  0  0  0  0  0  0  0  0  0  0
  139.4170   78.7070  223.1010 C   0  0  0  0  0  0  0  0  0  0  0  0
  139.1200   71.0180  223.0060 C   0  0  0  0  0  0  0  0  0  0  0  0
  140.0260   71.8890  223.6240 C   0  0  0  0  0  0  0  0  0  0  0  0
  140.6310   71.5140  224.8250 C   0  0  0  0  0  0  0  0  0  0  0  0
  140.3220   70.2780  225.4040 C   0  0  0  0  0  0  0  0  0  0  0  0
  140.8830   69.8850  226.6280 C   0  0  0  0  0  0  0  0  0  0  0  0
  140.5430   68.6480  227.1880 C   0  0  0  0  0  0  0  0  0  0  0  0
  141.2370   68.1620  228.7230 Cl  0  0  0  0  0  0  0  0  0  0  0  0
  139.6460   67.8000  226.5270 C   0  0  0  0  0  0  0  0  0  0  0  0
  139.0860   68.1840  225.3050 C   0  0  0  0  0  0  0  0  0  0  0  0
  139.4170   69.4200  224.7410 C   0  0  0  0  0  0  0  0  0  0  0  0
  138.8490   69.8090  223.5670 N   0  0  0  0  0  0  0  0  0  0  0  0
  140.3179   73.0186  220.8657 H   0  0  0  0  0  0  0  0  0  0  0  0
  139.1414   73.9353  219.8530 H   0  0  0  0  0  0  0  0  0  0  0  0
  136.7299   74.7865  222.2344 H   0  0  0  0  0  0  0  0  0  0  0  0
  137.5574   75.2657  223.7248 H   0  0  0  0  0  0  0  0  0  0  0  0
  135.5055   76.7265  222.4687 H   0  0  0  0  0  0  0  0  0  0  0  0
  136.6375   77.4237  223.6387 H   0  0  0  0  0  0  0  0  0  0  0  0
  136.5877   77.6539  220.6361 H   0  0  0  0  0  0  0  0  0  0  0  0
  137.2570   78.7926  221.8152 H   0  0  0  0  0  0  0  0  0  0  0  0
  138.8201   77.0684  220.2391 H   0  0  0  0  0  0  0  0  0  0  0  0
  141.1780   77.4845  220.4330 H   0  0  0  0  0  0  0  0  0  0  0  0
  142.9554   78.8871  221.4792 H   0  0  0  0  0  0  0  0  0  0  0  0
  140.2033   80.0519  224.6078 H   0  0  0  0  0  0  0  0  0  0  0  0
  138.4225   78.6523  223.5679 H   0  0  0  0  0  0  0  0  0  0  0  0
  140.2593   72.8617  223.1663 H   0  0  0  0  0  0  0  0  0  0  0  0
  141.3488   72.1884  225.3149 H   0  0  0  0  0  0  0  0  0  0  0  0
  141.5898   70.5486  227.1476 H   0  0  0  0  0  0  0  0  0  0  0  0
  139.3812   66.8288  226.9705 H   0  0  0  0  0  0  0  0  0  0  0  0
  138.3846   67.5135  224.7869 H   0  0  0  0  0  0  0  0  0  0  0  0
  1  2  2  0
  2  3  1  0
  3  4  1  0
  4  5  1  0
  5  6  2  0
  5  7  1  0
  7  8  1  0
  8  9  1  0
  9 10  1  0
 10 11  1  0
 11 12  1  0
 12 13  2  0
 13 14  1  0
 14 15  2  0
 15 16  1  0
 15 17  1  0
 17 18  2  0
  2 19  1  0
 19 20  2  0
 20 21  1  0
 21 22  2  0
 22 23  1  0
 23 24  2  0
 24 25  1  0
 24 26  1  0
 26 27  2  0
 27 28  1  0
 28 29  2  0
 11  7  1  0
 18 12  1  0
 29 19  1  0
 28 22  1  0
  4 30  1  0
  4 31  1  0
  8 32  1  0
  8 33  1  0
  9 34  1  0
  9 35  1  0
 10 36  1  0
 10 37  1  0
 11 38  1  6
 13 39  1  0
 14 40  1  0
 17 41  1  0
 18 42  1  0
 20 43  1  0
 21 44  1  0
 23 45  1  0
 26 46  1  0
 27 47  1  0
M  CHG  1   3  -1
M  END
>  <meeko>  (17) 
{"free_energy": -7.98, "intermolecular_energy": -9.77, "internal_energy": -1.39, "cluster_size": 12, "cluster_id": 1, "rank_in_cluster": 8}

$$$$

     RDKit          3D

 47 50  0  0  0  0  0  0  0  0999 V2000
  139.5400   72.3660  220.9250 O   0  0  0  0  0  0  0  0  0  0  0  0
  139.8570   72.7270  222.0880 C   0  0  0  0  0  0  0  0  0  0  0  0
  140.1590   74.1070  222.3360 N   0  0  0  0  0  0  0  0  0  0  0  0
  139.3150   75.2290  221.9280 C   0  0  0  0  0  0  0  0  0  0  0  0
  140.1350   76.2670  221.2080 C   0  0  0  0  0  0  0  0  0  0  0  0
  140.4740   77.3060  221.8370 O   0  0  0  0  0  0  0  0  0  0  0  0
  140.5500   76.1000  219.8380 N   0  0  0  0  0  0  0  0  0  0  0  0
  140.5320   77.1560  218.8370 C   0  0  0  0  0  0  0  0  0  0  0  0
  141.1110   76.5390  217.5690 C   0  0  0  0  0  0  0  0  0  0  0  0
  141.0720   75.0270  217.7810 C   0  0  0  0  0  0  0  0  0  0  0  0
  140.9840   74.8190  219.2950 C   0  0  1  0  0  0  0  0  0  0  0  0
  142.3200   74.3980  219.8760 C   0  0  0  0  0  0  0  0  0  0  0  0
  143.3940   75.3040  219.9660 C   0  0  0  0  0  0  0  0  0  0  0  0
  144.6250   74.8910  220.4840 C   0  0  0  0  0  0  0  0  0  0  0  0
  144.8000   73.5700  220.9080 C   0  0  0  0  0  0  0  0  0  0  0  0
  146.3460   73.0540  221.5560 Cl  0  0  0  0  0  0  0  0  0  0  0  0
  143.7430   72.6600  220.8100 C   0  0  0  0  0  0  0  0  0  0  0  0
  142.5110   73.0700  220.2930 C   0  0  0  0  0  0  0  0  0  0  0  0
  139.8590   71.7340  223.1700 C   0  0  0  0  0  0  0  0  0  0  0  0
  139.4080   70.4270  222.9410 C   0  0  0  0  0  0  0  0  0  0  0  0
  139.4740   69.4860  223.9710 C   0  0  0  0  0  0  0  0  0  0  0  0
  139.9980   69.8520  225.2160 C   0  0  0  0  0  0  0  0  0  0  0  0
  140.1140   68.9220  226.2600 C   0  0  0  0  0  0  0  0  0  0  0  0
  140.6550   69.3160  227.4890 C   0  0  0  0  0  0  0  0  0  0  0  0
  140.8090   68.1510  228.7910 Cl  0  0  0  0  0  0  0  0  0  0  0  0
  141.0770   70.6370  227.6800 C   0  0  0  0  0  0  0  0  0  0  0  0
  140.9620   71.5700  226.6450 C   0  0  0  0  0  0  0  0  0  0  0  0
  140.4270   71.1830  225.4120 C   0  0  0  0  0  0  0  0  0  0  0  0
  140.3410   72.0810  224.3930 N   0  0  0  0  0  0  0  0  0  0  0  0
  138.5239   74.8625  221.2572 H   0  0  0  0  0  0  0  0  0  0  0  0
  138.8689   75.6848  222.8242 H   0  0  0  0  0  0  0  0  0  0  0  0
  139.5016   77.4981  218.6601 H   0  0  0  0  0  0  0  0  0  0  0  0
  141.1135   78.0312  219.1624 H   0  0  0  0  0  0  0  0  0  0  0  0
  140.5030   76.8184  216.6959 H   0  0  0  0  0  0  0  0  0  0  0  0
  142.1351   76.8931  217.3799 H   0  0  0  0  0  0  0  0  0  0  0  0
  140.1922   74.5932  217.2832 H   0  0  0  0  0  0  0  0  0  0  0  0
  141.9601   74.5361  217.3564 H   0  0  0  0  0  0  0  0  0  0  0  0
  140.2822   74.0115  219.5506 H   0  0  0  0  0  0  0  0  0  0  0  0
  143.2637   76.3423  219.6269 H   0  0  0  0  0  0  0  0  0  0  0  0
  145.4573   75.6063  220.5582 H   0  0  0  0  0  0  0  0  0  0  0  0
  143.8813   71.6199  221.1403 H   0  0  0  0  0  0  0  0  0  0  0  0
  141.6851   72.3479  220.2120 H   0  0  0  0  0  0  0  0  0  0  0  0
  139.0050   70.1443  221.9573 H   0  0  0  0  0  0  0  0  0  0  0  0
  139.1150   68.4597  223.8040 H   0  0  0  0  0  0  0  0  0  0  0  0
  139.7801   67.8843  226.1127 H   0  0  0  0  0  0  0  0  0  0  0  0
  141.5007   70.9422  228.6481 H   0  0  0  0  0  0  0  0  0  0  0  0
  141.2921   72.6077  226.8003 H   0  0  0  0  0  0  0  0  0  0  0  0
  1  2  2  0
  2  3  1  0
  3  4  1  0
  4  5  1  0
  5  6  2  0
  5  7  1  0
  7  8  1  0
  8  9  1  0
  9 10  1  0
 10 11  1  0
 11 12  1  0
 12 13  2  0
 13 14  1  0
 14 15  2  0
 15 16  1  0
 15 17  1  0
 17 18  2  0
  2 19  1  0
 19 20  2  0
 20 21  1  0
 21 22  2  0
 22 23  1  0
 23 24  2  0
 24 25  1  0
 24 26  1  0
 26 27  2  0
 27 28  1  0
 28 29  2  0
 11  7  1  0
 18 12  1  0
 29 19  1  0
 28 22  1  0
  4 30  1  0
  4 31  1  0
  8 32  1  0
  8 33  1  0
  9 34  1  0
  9 35  1  0
 10 36  1  0
 10 37  1  0
 11 38  1  6
 13 39  1  0
 14 40  1  0
 17 41  1  0
 18 42  1  0
 20 43  1  0
 21 44  1  0
 23 45  1  0
 26 46  1  0
 27 47  1  0
M  CHG  1   3  -1
M  END
>  <meeko>  (18) 
{"free_energy": -7.73, "intermolecular_energy": -9.52, "internal_energy": -1.71, "cluster_size": 2, "cluster_id": 4, "rank_in_cluster": 1}

$$$$

     RDKit          3D

 47 50  0  0  0  0  0  0  0  0999 V2000
  133.5800   68.2870  226.1580 O   0  0  0  0  0  0  0  0  0  0  0  0
  134.3460   69.0670  225.5360 C   0  0  0  0  0  0  0  0  0  0  0  0
  135.3160   68.5220  224.6310 N   0  0  0  0  0  0  0  0  0  0  0  0
  135.2490   68.6330  223.1740 C   0  0  0  0  0  0  0  0  0  0  0  0
  136.6360   68.7000  222.5900 C   0  0  0  0  0  0  0  0  0  0  0  0
  137.1310   67.6490  222.0980 O   0  0  0  0  0  0  0  0  0  0  0  0
  137.3970   69.9230  222.5640 N   0  0  0  0  0  0  0  0  0  0  0  0
  136.8290   71.2430  222.3320 C   0  0  0  0  0  0  0  0  0  0  0  0
  137.9870   72.2240  222.4570 C   0  0  0  0  0  0  0  0  0  0  0  0
  139.2600   71.3860  222.3650 C   0  0  0  0  0  0  0  0  0  0  0  0
  138.8460   69.9550  222.7150 C   0  0  1  0  0  0  0  0  0  0  0  0
  139.2610   69.5860  224.1260 C   0  0  0  0  0  0  0  0  0  0  0  0
  139.1720   68.2600  224.5890 C   0  0  0  0  0  0  0  0  0  0  0  0
  139.5380   67.9420  225.9000 C   0  0  0  0  0  0  0  0  0  0  0  0
  139.9880   68.9460  226.7650 C   0  0  0  0  0  0  0  0  0  0  0  0
  140.4450   68.5450  228.4110 Cl  0  0  0  0  0  0  0  0  0  0  0  0
  140.0670   70.2680  226.3180 C   0  0  0  0  0  0  0  0  0  0  0  0
  139.7020   70.5880  225.0080 C   0  0  0  0  0  0  0  0  0  0  0  0
  134.1910   70.5160  225.7140 C   0  0  0  0  0  0  0  0  0  0  0  0
  134.9770   71.4140  224.9790 C   0  0  0  0  0  0  0  0  0  0  0  0
  134.7700   72.7880  225.1240 C   0  0  0  0  0  0  0  0  0  0  0  0
  133.7770   73.2540  225.9930 C   0  0  0  0  0  0  0  0  0  0  0  0
  133.5180   74.6260  226.1350 C   0  0  0  0  0  0  0  0  0  0  0  0
  132.5090   75.0600  227.0030 C   0  0  0  0  0  0  0  0  0  0  0  0
  132.1790   76.7740  227.1720 Cl  0  0  0  0  0  0  0  0  0  0  0  0
  131.7600   74.1290  227.7320 C   0  0  0  0  0  0  0  0  0  0  0  0
  132.0150   72.7610  227.5980 C   0  0  0  0  0  0  0  0  0  0  0  0
  133.0190   72.3180  226.7290 C   0  0  0  0  0  0  0  0  0  0  0  0
  133.2480   70.9860  226.5740 N   0  0  0  0  0  0  0  0  0  0  0  0
  134.7260   67.7551  222.7669 H   0  0  0  0  0  0  0  0  0  0  0  0
  134.7050   69.5519  222.9100 H   0  0  0  0  0  0  0  0  0  0  0  0
  136.3878   71.2982  221.3259 H   0  0  0  0  0  0  0  0  0  0  0  0
  136.0282   71.4700  223.0512 H   0  0  0  0  0  0  0  0  0  0  0  0
  137.9541   72.9602  221.6403 H   0  0  0  0  0  0  0  0  0  0  0  0
  137.9406   72.7839  223.4027 H   0  0  0  0  0  0  0  0  0  0  0  0
  139.6721   71.4267  221.3459 H   0  0  0  0  0  0  0  0  0  0  0  0
  140.0393   71.7590  223.0458 H   0  0  0  0  0  0  0  0  0  0  0  0
  139.3389   69.2215  222.0600 H   0  0  0  0  0  0  0  0  0  0  0  0
  138.8121   67.4688  223.9149 H   0  0  0  0  0  0  0  0  0  0  0  0
  139.4723   66.9019  226.2521 H   0  0  0  0  0  0  0  0  0  0  0  0
  140.4172   71.0578  226.9989 H   0  0  0  0  0  0  0  0  0  0  0  0
  139.7601   71.6313  224.6642 H   0  0  0  0  0  0  0  0  0  0  0  0
  135.7512   71.0397  224.2930 H   0  0  0  0  0  0  0  0  0  0  0  0
  135.3858   73.5015  224.5567 H   0  0  0  0  0  0  0  0  0  0  0  0
  134.1071   75.3595  225.5649 H   0  0  0  0  0  0  0  0  0  0  0  0
  130.9681   74.4749  228.4126 H   0  0  0  0  0  0  0  0  0  0  0  0
  131.4267   72.0327  228.1755 H   0  0  0  0  0  0  0  0  0  0  0  0
  1  2  2  0
  2  3  1  0
  3  4  1  0
  4  5  1  0
  5  6  2  0
  5  7  1  0
  7  8  1  0
  8  9  1  0
  9 10  1  0
 10 11  1  0
 11 12  1  0
 12 13  2  0
 13 14  1  0
 14 15  2  0
 15 16  1  0
 15 17  1  0
 17 18  2  0
  2 19  1  0
 19 20  2  0
 20 21  1  0
 21 22  2  0
 22 23  1  0
 23 24  2  0
 24 25  1  0
 24 26  1  0
 26 27  2  0
 27 28  1  0
 28 29  2  0
 11  7  1  0
 18 12  1  0
 29 19  1  0
 28 22  1  0
  4 30  1  0
  4 31  1  0
  8 32  1  0
  8 33  1  0
  9 34  1  0
  9 35  1  0
 10 36  1  0
 10 37  1  0
 11 38  1  6
 13 39  1  0
 14 40  1  0
 17 41  1  0
 18 42  1  0
 20 43  1  0
 21 44  1  0
 23 45  1  0
 26 46  1  0
 27 47  1  0
M  CHG  1   3  -1
M  END
>  <meeko>  (19) 
{"free_energy": -7.55, "intermolecular_energy": -9.34, "internal_energy": -1.74, "cluster_size": 2, "cluster_id": 3, "rank_in_cluster": 2}

$$$$

     RDKit          3D

 47 50  0  0  0  0  0  0  0  0999 V2000
  141.0660   73.4290  221.8440 O   0  0  0  0  0  0  0  0  0  0  0  0
  139.9640   72.9180  222.1720 C   0  0  0  0  0  0  0  0  0  0  0  0
  138.7740   73.3110  221.4750 N   0  0  0  0  0  0  0  0  0  0  0  0
  137.9690   74.4870  221.8020 C   0  0  0  0  0  0  0  0  0  0  0  0
  138.8250   75.7260  221.7970 C   0  0  0  0  0  0  0  0  0  0  0  0
  138.7130   76.5370  222.7560 O   0  0  0  0  0  0  0  0  0  0  0  0
  139.7700   75.9990  220.7440 N   0  0  0  0  0  0  0  0  0  0  0  0
  139.4400   76.0210  219.3260 C   0  0  0  0  0  0  0  0  0  0  0  0
  140.7240   76.4110  218.6050 C   0  0  0  0  0  0  0  0  0  0  0  0
  141.8520   76.2110  219.6150 C   0  0  0  0  0  0  0  0  0  0  0  0
  141.1870   76.2290  220.9930 C   0  0  1  0  0  0  0  0  0  0  0  0
  141.4150   77.5500  221.7020 C   0  0  0  0  0  0  0  0  0  0  0  0
  141.6930   78.7260  220.9810 C   0  0  0  0  0  0  0  0  0  0  0  0
  141.9220   79.9300  221.6530 C   0  0  0  0  0  0  0  0  0  0  0  0
  141.8860   79.9710  223.0510 C   0  0  0  0  0  0  0  0  0  0  0  0
  142.1760   81.4820  223.8920 Cl  0  0  0  0  0  0  0  0  0  0  0  0
  141.6250   78.8050  223.7760 C   0  0  0  0  0  0  0  0  0  0  0  0
  141.3950   77.6000  223.1060 C   0  0  0  0  0  0  0  0  0  0  0  0
  139.9350   71.8950  223.2260 C   0  0  0  0  0  0  0  0  0  0  0  0
  139.4640   70.6040  222.9550 C   0  0  0  0  0  0  0  0  0  0  0  0
  139.5000   69.6330  223.9570 C   0  0  0  0  0  0  0  0  0  0  0  0
  140.0150   69.9540  225.2190 C   0  0  0  0  0  0  0  0  0  0  0  0
  140.1010   68.9940  226.2380 C   0  0  0  0  0  0  0  0  0  0  0  0
  140.6330   69.3430  227.4840 C   0  0  0  0  0  0  0  0  0  0  0  0
  140.7490   68.1390  228.7540 Cl  0  0  0  0  0  0  0  0  0  0  0  0
  141.0760   70.6500  227.7180 C   0  0  0  0  0  0  0  0  0  0  0  0
  140.9900   71.6130  226.7080 C   0  0  0  0  0  0  0  0  0  0  0  0
  140.4640   71.2720  225.4580 C   0  0  0  0  0  0  0  0  0  0  0  0
  140.4070   72.1990  224.4640 N   0  0  0  0  0  0  0  0  0  0  0  0
  137.1678   74.5968  221.0563 H   0  0  0  0  0  0  0  0  0  0  0  0
  137.5361   74.3560  222.8047 H   0  0  0  0  0  0  0  0  0  0  0  0
  139.1025   75.0274  218.9962 H   0  0  0  0  0  0  0  0  0  0  0  0
  138.6254   76.7285  219.1117 H   0  0  0  0  0  0  0  0  0  0  0  0
  140.8793   75.7677  217.7263 H   0  0  0  0  0  0  0  0  0  0  0  0
  140.6845   77.4500  218.2459 H   0  0  0  0  0  0  0  0  0  0  0  0
  142.3525   75.2465  219.4440 H   0  0  0  0  0  0  0  0  0  0  0  0
  142.6187   76.9947  219.5256 H   0  0  0  0  0  0  0  0  0  0  0  0
  141.6119   75.4601  221.6550 H   0  0  0  0  0  0  0  0  0  0  0  0
  141.7303   78.6976  219.8820 H   0  0  0  0  0  0  0  0  0  0  0  0
  142.1308   80.8466  221.0819 H   0  0  0  0  0  0  0  0  0  0  0  0
  141.6005   78.8356  224.8753 H   0  0  0  0  0  0  0  0  0  0  0  0
  141.1969   76.6841  223.6822 H   0  0  0  0  0  0  0  0  0  0  0  0
  139.0683   70.3570  221.9588 H   0  0  0  0  0  0  0  0  0  0  0  0
  139.1249   68.6187  223.7559 H   0  0  0  0  0  0  0  0  0  0  0  0
  139.7503   67.9671  226.0576 H   0  0  0  0  0  0  0  0  0  0  0  0
  141.4930   70.9203  228.6994 H   0  0  0  0  0  0  0  0  0  0  0  0
  141.3364   72.6398  226.8968 H   0  0  0  0  0  0  0  0  0  0  0  0
  1  2  2  0
  2  3  1  0
  3  4  1  0
  4  5  1  0
  5  6  2  0
  5  7  1  0
  7  8  1  0
  8  9  1  0
  9 10  1  0
 10 11  1  0
 11 12  1  0
 12 13  2  0
 13 14  1  0
 14 15  2  0
 15 16  1  0
 15 17  1  0
 17 18  2  0
  2 19  1  0
 19 20  2  0
 20 21  1  0
 21 22  2  0
 22 23  1  0
 23 24  2  0
 24 25  1  0
 24 26  1  0
 26 27  2  0
 27 28  1  0
 28 29  2  0
 11  7  1  0
 18 12  1  0
 29 19  1  0
 28 22  1  0
  4 30  1  0
  4 31  1  0
  8 32  1  0
  8 33  1  0
  9 34  1  0
  9 35  1  0
 10 36  1  0
 10 37  1  0
 11 38  1  1
 13 39  1  0
 14 40  1  0
 17 41  1  0
 18 42  1  0
 20 43  1  0
 21 44  1  0
 23 45  1  0
 26 46  1  0
 27 47  1  0
M  CHG  1   3  -1
M  END
>  <meeko>  (20) 
{"free_energy": -8.21, "intermolecular_energy": -10.0, "internal_energy": -1.52, "cluster_size": 12, "cluster_id": 1, "rank_in_cluster": 5}

$$$$
