
     RDKit          3D

 49 52  0  0  0  0  0  0  0  0999 V2000
  139.3200   74.6350  219.3510 O   0  0  0  0  0  0  0  0  0  0  0  0
  140.0610   75.2890  220.1340 C   0  0  0  0  0  0  0  0  0  0  0  0
  139.9090   75.0620  221.6190 C   0  0  0  0  0  0  0  0  0  0  0  0
  140.4070   73.7410  222.0000 N   0  0  0  0  0  0  0  0  0  0  0  0
  139.7510   72.6190  221.8940 C   0  0  0  0  0  0  0  0  0  0  0  0
  138.9630   72.3320  220.7750 O   0  0  0  0  0  0  0  0  0  0  0  0
  139.8460   71.6290  222.9840 C   0  0  0  0  0  0  0  0  0  0  0  0
  139.4300   70.3020  222.7910 C   0  0  0  0  0  0  0  0  0  0  0  0
  139.5300   69.3860  223.8410 C   0  0  0  0  0  0  0  0  0  0  0  0
  140.0450   69.7940  225.0760 C   0  0  0  0  0  0  0  0  0  0  0  0
  140.1590   68.8990  226.1510 C   0  0  0  0  0  0  0  0  0  0  0  0
  140.6780   69.3390  227.3750 C   0  0  0  0  0  0  0  0  0  0  0  0
  140.8200   68.2200  228.7180 Cl  0  0  0  0  0  0  0  0  0  0  0  0
  141.0820   70.6710  227.5280 C   0  0  0  0  0  0  0  0  0  0  0  0
  140.9690   71.5680  226.4620 C   0  0  0  0  0  0  0  0  0  0  0  0
  140.4520   71.1370  225.2350 C   0  0  0  0  0  0  0  0  0  0  0  0
  140.3430   72.0060  224.1950 N   0  0  0  0  0  0  0  0  0  0  0  0
  141.0620   76.1850  219.5920 N   0  0  0  0  0  0  0  0  0  0  0  0
  141.5670   77.2830  220.4400 C   0  0  0  0  0  0  0  0  0  0  0  0
  141.8400   78.5430  219.6170 C   0  0  0  0  0  0  0  0  0  0  0  0
  142.7350   78.2260  218.4210 C   0  0  0  0  0  0  0  0  0  0  0  0
  142.0700   77.1760  217.5300 C   0  0  0  0  0  0  0  0  0  0  0  0
  141.7240   75.8890  218.3020 C   0  0  1  0  0  0  0  0  0  0  0  0
  142.9420   75.0190  218.4930 C   0  0  0  0  0  0  0  0  0  0  0  0
  143.4410   74.7800  219.7380 N   0  0  0  0  0  0  0  0  0  0  0  0
  144.5460   74.0110  219.9150 C   0  0  0  0  0  0  0  0  0  0  0  0
  145.1920   73.4590  218.8100 C   0  0  0  0  0  0  0  0  0  0  0  0
  146.3220   72.6670  218.9700 O   0  0  0  0  0  0  0  0  0  0  0  0
  144.6790   73.7210  217.5410 C   0  0  0  0  0  0  0  0  0  0  0  0
  143.5720   74.4960  217.4060 N   0  0  0  0  0  0  0  0  0  0  0  0
  140.4786   75.8314  222.1608 H   0  0  0  0  0  0  0  0  0  0  0  0
  138.8410   75.1217  221.8755 H   0  0  0  0  0  0  0  0  0  0  0  0
  138.8790   72.9490  219.9780 H   0  0  0  0  0  0  0  0  0  0  0  0
  139.0272   69.9851  221.8177 H   0  0  0  0  0  0  0  0  0  0  0  0
  139.2042   68.3453  223.6969 H   0  0  0  0  0  0  0  0  0  0  0  0
  139.8409   67.8527  226.0322 H   0  0  0  0  0  0  0  0  0  0  0  0
  141.4898   71.0127  228.4908 H   0  0  0  0  0  0  0  0  0  0  0  0
  141.2867   72.6136  226.5876 H   0  0  0  0  0  0  0  0  0  0  0  0
  140.8168   77.5143  221.2105 H   0  0  0  0  0  0  0  0  0  0  0  0
  142.5119   76.9586  220.9004 H   0  0  0  0  0  0  0  0  0  0  0  0
  140.8849   78.9510  219.2546 H   0  0  0  0  0  0  0  0  0  0  0  0
  142.3522   79.2774  220.2559 H   0  0  0  0  0  0  0  0  0  0  0  0
  142.9024   79.1440  217.8385 H   0  0  0  0  0  0  0  0  0  0  0  0
  143.6958   77.8328  218.7848 H   0  0  0  0  0  0  0  0  0  0  0  0
  141.1435   77.5996  217.1151 H   0  0  0  0  0  0  0  0  0  0  0  0
  142.7816   76.9102  216.7344 H   0  0  0  0  0  0  0  0  0  0  0  0
  141.0049   75.3242  217.6905 H   0  0  0  0  0  0  0  0  0  0  0  0
  144.9307   73.8240  220.9284 H   0  0  0  0  0  0  0  0  0  0  0  0
  145.1697   73.3010  216.6506 H   0  0  0  0  0  0  0  0  0  0  0  0
  1  2  2  0
  2  3  1  0
  3  4  1  0
  4  5  2  0
  5  6  1  0
  5  7  1  0
  7  8  2  0
  8  9  1  0
  9 10  2  0
 10 11  1  0
 11 12  2  0
 12 13  1  0
 12 14  1  0
 14 15  2  0
 15 16  1  0
 16 17  2  0
  2 18  1  0
 18 19  1  0
 19 20  1  0
 20 21  1  0
 21 22  1  0
 22 23  1  0
 23 24  1  0
 24 25  2  0
 25 26  1  0
 26 27  2  0
 27 28  1  0
 27 29  1  0
 29 30  2  0
 17  7  1  0
 23 18  1  0
 30 24  1  0
 16 10  1  0
  3 31  1  0
  3 32  1  0
  6 33  1  0
  8 34  1  0
  9 35  1  0
 11 36  1  0
 14 37  1  0
 15 38  1  0
 19 39  1  0
 19 40  1  0
 20 41  1  0
 20 42  1  0
 21 43  1  0
 21 44  1  0
 22 45  1  0
 22 46  1  0
 23 47  1  6
 26 48  1  0
 29 49  1  0
M  CHG  1  28  -1
M  END
>  <meeko>  (1) 
{"free_energy": -7.85, "intermolecular_energy": -9.94, "internal_energy": -1.81, "cluster_size": 18, "cluster_id": 1, "rank_in_cluster": 3}

$$$$

     RDKit          3D

 49 52  0  0  0  0  0  0  0  0999 V2000
  139.6030   74.0920  219.0340 O   0  0  0  0  0  0  0  0  0  0  0  0
  140.0240   74.9900  219.8130 C   0  0  0  0  0  0  0  0  0  0  0  0
  139.4250   75.0740  221.1970 C   0  0  0  0  0  0  0  0  0  0  0  0
  140.0820   74.1370  222.1080 N   0  0  0  0  0  0  0  0  0  0  0  0
  140.3480   72.8870  221.8540 C   0  0  0  0  0  0  0  0  0  0  0  0
  140.7280   72.4620  220.5770 O   0  0  0  0  0  0  0  0  0  0  0  0
  140.2460   71.8970  222.9430 C   0  0  0  0  0  0  0  0  0  0  0  0
  139.6740   70.6330  222.7200 C   0  0  0  0  0  0  0  0  0  0  0  0
  139.5910   69.7160  223.7700 C   0  0  0  0  0  0  0  0  0  0  0  0
  140.0770   70.0590  225.0360 C   0  0  0  0  0  0  0  0  0  0  0  0
  140.0080   69.1610  226.1120 C   0  0  0  0  0  0  0  0  0  0  0  0
  140.5030   69.5350  227.3680 C   0  0  0  0  0  0  0  0  0  0  0  0
  140.4170   68.4120  228.7120 Cl  0  0  0  0  0  0  0  0  0  0  0  0
  141.0650   70.8040  227.5510 C   0  0  0  0  0  0  0  0  0  0  0  0
  141.1360   71.7040  226.4840 C   0  0  0  0  0  0  0  0  0  0  0  0
  140.6440   71.3380  225.2250 C   0  0  0  0  0  0  0  0  0  0  0  0
  140.7120   72.2110  224.1850 N   0  0  0  0  0  0  0  0  0  0  0  0
  141.0940   75.8670  219.3840 N   0  0  0  0  0  0  0  0  0  0  0  0
  141.5270   76.9540  220.2840 C   0  0  0  0  0  0  0  0  0  0  0  0
  141.9100   78.2090  219.5000 C   0  0  0  0  0  0  0  0  0  0  0  0
  142.9220   77.8760  218.4050 C   0  0  0  0  0  0  0  0  0  0  0  0
  142.3350   76.8400  217.4450 C   0  0  0  0  0  0  0  0  0  0  0  0
  141.8840   75.5590  218.1710 C   0  0  1  0  0  0  0  0  0  0  0  0
  143.0580   74.6650  218.4890 C   0  0  0  0  0  0  0  0  0  0  0  0
  143.1820   74.0840  219.7140 N   0  0  0  0  0  0  0  0  0  0  0  0
  144.2440   73.2910  220.0110 C   0  0  0  0  0  0  0  0  0  0  0  0
  145.2330   73.0700  219.0550 C   0  0  0  0  0  0  0  0  0  0  0  0
  146.3260   72.2610  219.3380 O   0  0  0  0  0  0  0  0  0  0  0  0
  145.1010   73.6800  217.8090 C   0  0  0  0  0  0  0  0  0  0  0  0
  144.0240   74.4670  217.5510 N   0  0  0  0  0  0  0  0  0  0  0  0
  139.5491   76.0971  221.5816 H   0  0  0  0  0  0  0  0  0  0  0  0
  138.3581   74.8137  221.1345 H   0  0  0  0  0  0  0  0  0  0  0  0
  141.2650   73.0310  219.9370 H   0  0  0  0  0  0  0  0  0  0  0  0
  139.2933   70.3670  221.7228 H   0  0  0  0  0  0  0  0  0  0  0  0
  139.1440   68.7251  223.6017 H   0  0  0  0  0  0  0  0  0  0  0  0
  139.5655   68.1641  225.9694 H   0  0  0  0  0  0  0  0  0  0  0  0
  141.4524   71.0941  228.5388 H   0  0  0  0  0  0  0  0  0  0  0  0
  141.5784   72.7000  226.6332 H   0  0  0  0  0  0  0  0  0  0  0  0
  140.7037   77.1988  220.9712 H   0  0  0  0  0  0  0  0  0  0  0  0
  142.4115   76.6105  220.8406 H   0  0  0  0  0  0  0  0  0  0  0  0
  141.0071   78.6360  219.0390 H   0  0  0  0  0  0  0  0  0  0  0  0
  142.3647   78.9326  220.1925 H   0  0  0  0  0  0  0  0  0  0  0  0
  143.1683   78.7912  217.8466 H   0  0  0  0  0  0  0  0  0  0  0  0
  143.8310   77.4641  218.8677 H   0  0  0  0  0  0  0  0  0  0  0  0
  141.4662   77.2823  216.9356 H   0  0  0  0  0  0  0  0  0  0  0  0
  143.1221   76.5612  216.7289 H   0  0  0  0  0  0  0  0  0  0  0  0
  141.2242   75.0087  217.4841 H   0  0  0  0  0  0  0  0  0  0  0  0
  144.3230   72.8244  221.0040 H   0  0  0  0  0  0  0  0  0  0  0  0
  145.8676   73.5246  217.0356 H   0  0  0  0  0  0  0  0  0  0  0  0
  1  2  2  0
  2  3  1  0
  3  4  1  0
  4  5  2  0
  5  6  1  0
  5  7  1  0
  7  8  2  0
  8  9  1  0
  9 10  2  0
 10 11  1  0
 11 12  2  0
 12 13  1  0
 12 14  1  0
 14 15  2  0
 15 16  1  0
 16 17  2  0
  2 18  1  0
 18 19  1  0
 19 20  1  0
 20 21  1  0
 21 22  1  0
 22 23  1  0
 23 24  1  0
 24 25  2  0
 25 26  1  0
 26 27  2  0
 27 28  1  0
 27 29  1  0
 29 30  2  0
 17  7  1  0
 23 18  1  0
 30 24  1  0
 16 10  1  0
  3 31  1  0
  3 32  1  0
  6 33  1  0
  8 34  1  0
  9 35  1  0
 11 36  1  0
 14 37  1  0
 15 38  1  0
 19 39  1  0
 19 40  1  0
 20 41  1  0
 20 42  1  0
 21 43  1  0
 21 44  1  0
 22 45  1  0
 22 46  1  0
 23 47  1  6
 26 48  1  0
 29 49  1  0
M  CHG  1  28  -1
M  END
>  <meeko>  (2) 
{"free_energy": -7.41, "intermolecular_energy": -9.5, "internal_energy": -2.39, "cluster_size": 18, "cluster_id": 1, "rank_in_cluster": 12}

$$$$

     RDKit          3D

 49 52  0  0  0  0  0  0  0  0999 V2000
  139.5820   74.0760  218.9480 O   0  0  0  0  0  0  0  0  0  0  0  0
  139.9560   74.9700  219.7550 C   0  0  0  0  0  0  0  0  0  0  0  0
  139.2960   75.0300  221.1120 C   0  0  0  0  0  0  0  0  0  0  0  0
  139.9730   74.1480  222.0620 N   0  0  0  0  0  0  0  0  0  0  0  0
  140.3250   72.9130  221.8380 C   0  0  0  0  0  0  0  0  0  0  0  0
  140.7980   72.5000  220.5880 O   0  0  0  0  0  0  0  0  0  0  0  0
  140.2230   71.9290  222.9320 C   0  0  0  0  0  0  0  0  0  0  0  0
  139.6450   70.6670  222.7170 C   0  0  0  0  0  0  0  0  0  0  0  0
  139.5620   69.7550  223.7720 C   0  0  0  0  0  0  0  0  0  0  0  0
  140.0540   70.1030  225.0350 C   0  0  0  0  0  0  0  0  0  0  0  0
  139.9860   69.2100  226.1150 C   0  0  0  0  0  0  0  0  0  0  0  0
  140.4870   69.5880  227.3670 C   0  0  0  0  0  0  0  0  0  0  0  0
  140.4010   68.4720  228.7170 Cl  0  0  0  0  0  0  0  0  0  0  0  0
  141.0560   70.8550  227.5420 C   0  0  0  0  0  0  0  0  0  0  0  0
  141.1270   71.7490  226.4700 C   0  0  0  0  0  0  0  0  0  0  0  0
  140.6280   71.3800  225.2150 C   0  0  0  0  0  0  0  0  0  0  0  0
  140.6960   72.2470  224.1700 N   0  0  0  0  0  0  0  0  0  0  0  0
  141.0330   75.8650  219.3830 N   0  0  0  0  0  0  0  0  0  0  0  0
  141.4370   76.9220  220.3310 C   0  0  0  0  0  0  0  0  0  0  0  0
  141.8350   78.2050  219.5990 C   0  0  0  0  0  0  0  0  0  0  0  0
  142.8750   77.9130  218.5200 C   0  0  0  0  0  0  0  0  0  0  0  0
  142.3180   76.9080  217.5110 C   0  0  0  0  0  0  0  0  0  0  0  0
  141.8550   75.6010  218.1810 C   0  0  1  0  0  0  0  0  0  0  0  0
  143.0240   74.7010  218.4990 C   0  0  0  0  0  0  0  0  0  0  0  0
  143.1770   74.1670  219.7420 N   0  0  0  0  0  0  0  0  0  0  0  0
  144.2360   73.3700  220.0380 C   0  0  0  0  0  0  0  0  0  0  0  0
  145.1910   73.0950  219.0620 C   0  0  0  0  0  0  0  0  0  0  0  0
  146.2810   72.2800  219.3440 O   0  0  0  0  0  0  0  0  0  0  0  0
  145.0310   73.6570  217.7970 C   0  0  0  0  0  0  0  0  0  0  0  0
  143.9580   74.4510  217.5410 N   0  0  0  0  0  0  0  0  0  0  0  0
  139.3378   76.0632  221.4873 H   0  0  0  0  0  0  0  0  0  0  0  0
  138.2517   74.7000  221.0094 H   0  0  0  0  0  0  0  0  0  0  0  0
  141.2660   73.1160  219.9370 H   0  0  0  0  0  0  0  0  0  0  0  0
  139.2595   70.3980  221.7225 H   0  0  0  0  0  0  0  0  0  0  0  0
  139.1106   68.7650  223.6102 H   0  0  0  0  0  0  0  0  0  0  0  0
  139.5396   68.2140  225.9785 H   0  0  0  0  0  0  0  0  0  0  0  0
  141.4487   71.1481  228.5269 H   0  0  0  0  0  0  0  0  0  0  0  0
  141.5753   72.7434  226.6124 H   0  0  0  0  0  0  0  0  0  0  0  0
  140.5947   77.1404  221.0040 H   0  0  0  0  0  0  0  0  0  0  0  0
  142.3076   76.5632  220.8996 H   0  0  0  0  0  0  0  0  0  0  0  0
  140.9423   78.6444  219.1300 H   0  0  0  0  0  0  0  0  0  0  0  0
  142.2693   78.9061  220.3269 H   0  0  0  0  0  0  0  0  0  0  0  0
  143.1310   78.8475  217.9992 H   0  0  0  0  0  0  0  0  0  0  0  0
  143.7737   77.4889  218.9917 H   0  0  0  0  0  0  0  0  0  0  0  0
  141.4602   77.3638  216.9948 H   0  0  0  0  0  0  0  0  0  0  0  0
  143.1246   76.6570  216.8064 H   0  0  0  0  0  0  0  0  0  0  0  0
  141.2162   75.0717  217.4586 H   0  0  0  0  0  0  0  0  0  0  0  0
  144.3394   72.9426  221.0463 H   0  0  0  0  0  0  0  0  0  0  0  0
  145.7711   73.4586  217.0077 H   0  0  0  0  0  0  0  0  0  0  0  0
  1  2  2  0
  2  3  1  0
  3  4  1  0
  4  5  2  0
  5  6  1  0
  5  7  1  0
  7  8  2  0
  8  9  1  0
  9 10  2  0
 10 11  1  0
 11 12  2  0
 12 13  1  0
 12 14  1  0
 14 15  2  0
 15 16  1  0
 16 17  2  0
  2 18  1  0
 18 19  1  0
 19 20  1  0
 20 21  1  0
 21 22  1  0
 22 23  1  0
 23 24  1  0
 24 25  2  0
 25 26  1  0
 26 27  2  0
 27 28  1  0
 27 29  1  0
 29 30  2  0
 17  7  1  0
 23 18  1  0
 30 24  1  0
 16 10  1  0
  3 31  1  0
  3 32  1  0
  6 33  1  0
  8 34  1  0
  9 35  1  0
 11 36  1  0
 14 37  1  0
 15 38  1  0
 19 39  1  0
 19 40  1  0
 20 41  1  0
 20 42  1  0
 21 43  1  0
 21 44  1  0
 22 45  1  0
 22 46  1  0
 23 47  1  6
 26 48  1  0
 29 49  1  0
M  CHG  1  28  -1
M  END
>  <meeko>  (3) 
{"free_energy": -7.44, "intermolecular_energy": -9.53, "internal_energy": -2.43, "cluster_size": 18, "cluster_id": 1, "rank_in_cluster": 11}

$$$$

     RDKit          3D

 49 52  0  0  0  0  0  0  0  0999 V2000
  139.3020   74.9940  219.5110 O   0  0  0  0  0  0  0  0  0  0  0  0
  140.2180   75.5480  220.1770 C   0  0  0  0  0  0  0  0  0  0  0  0
  140.2630   75.3090  221.6670 C   0  0  0  0  0  0  0  0  0  0  0  0
  140.7220   73.9530  221.9660 N   0  0  0  0  0  0  0  0  0  0  0  0
  140.0140   72.8650  221.8490 C   0  0  0  0  0  0  0  0  0  0  0  0
  139.2440   72.6100  220.7100 O   0  0  0  0  0  0  0  0  0  0  0  0
  140.0270   71.8800  222.9470 C   0  0  0  0  0  0  0  0  0  0  0  0
  139.5470   70.5750  222.7520 C   0  0  0  0  0  0  0  0  0  0  0  0
  139.5720   69.6630  223.8090 C   0  0  0  0  0  0  0  0  0  0  0  0
  140.0730   70.0540  225.0560 C   0  0  0  0  0  0  0  0  0  0  0  0
  140.1110   69.1620  226.1390 C   0  0  0  0  0  0  0  0  0  0  0  0
  140.6190   69.5850  227.3740 C   0  0  0  0  0  0  0  0  0  0  0  0
  140.6660   68.4710  228.7280 Cl  0  0  0  0  0  0  0  0  0  0  0  0
  141.0870   70.8950  227.5300 C   0  0  0  0  0  0  0  0  0  0  0  0
  141.0510   71.7880  226.4550 C   0  0  0  0  0  0  0  0  0  0  0  0
  140.5460   71.3750  225.2170 C   0  0  0  0  0  0  0  0  0  0  0  0
  140.5100   72.2410  224.1690 N   0  0  0  0  0  0  0  0  0  0  0  0
  141.2200   76.3420  219.4950 N   0  0  0  0  0  0  0  0  0  0  0  0
  141.8050   77.5030  220.1950 C   0  0  0  0  0  0  0  0  0  0  0  0
  142.0780   78.6560  219.2290 C   0  0  0  0  0  0  0  0  0  0  0  0
  142.9010   78.1790  218.0340 C   0  0  0  0  0  0  0  0  0  0  0  0
  142.1560   77.0670  217.2940 C   0  0  0  0  0  0  0  0  0  0  0  0
  141.8060   75.8830  218.2160 C   0  0  1  0  0  0  0  0  0  0  0  0
  143.0020   74.9920  218.4440 C   0  0  0  0  0  0  0  0  0  0  0  0
  143.4350   74.7130  219.7050 N   0  0  0  0  0  0  0  0  0  0  0  0
  144.5200   73.9240  219.9160 C   0  0  0  0  0  0  0  0  0  0  0  0
  145.2140   73.3930  218.8300 C   0  0  0  0  0  0  0  0  0  0  0  0
  146.3250   72.5820  219.0240 O   0  0  0  0  0  0  0  0  0  0  0  0
  144.7690   73.6960  217.5440 C   0  0  0  0  0  0  0  0  0  0  0  0
  143.6790   74.4900  217.3750 N   0  0  0  0  0  0  0  0  0  0  0  0
  140.9529   76.0320  222.1267 H   0  0  0  0  0  0  0  0  0  0  0  0
  139.2482   75.4333  222.0730 H   0  0  0  0  0  0  0  0  0  0  0  0
  139.1330   73.2700  219.9520 H   0  0  0  0  0  0  0  0  0  0  0  0
  139.1529   70.2724  221.7706 H   0  0  0  0  0  0  0  0  0  0  0  0
  139.1985   68.6389  223.6619 H   0  0  0  0  0  0  0  0  0  0  0  0
  139.7425   68.1326  226.0182 H   0  0  0  0  0  0  0  0  0  0  0  0
  141.4845   71.2229  228.5018 H   0  0  0  0  0  0  0  0  0  0  0  0
  141.4200   72.8164  226.5824 H   0  0  0  0  0  0  0  0  0  0  0  0
  141.1036   77.8442  220.9706 H   0  0  0  0  0  0  0  0  0  0  0  0
  142.7605   77.1924  220.6428 H   0  0  0  0  0  0  0  0  0  0  0  0
  141.1200   79.0595  218.8691 H   0  0  0  0  0  0  0  0  0  0  0  0
  142.6458   79.4341  219.7602 H   0  0  0  0  0  0  0  0  0  0  0  0
  143.0700   79.0225  217.3485 H   0  0  0  0  0  0  0  0  0  0  0  0
  143.8652   77.7898  218.3928 H   0  0  0  0  0  0  0  0  0  0  0  0
  141.2244   77.4802  216.8800 H   0  0  0  0  0  0  0  0  0  0  0  0
  142.8169   76.6905  216.4993 H   0  0  0  0  0  0  0  0  0  0  0  0
  141.0394   75.2833  217.7035 H   0  0  0  0  0  0  0  0  0  0  0  0
  144.8505   73.7044  220.9419 H   0  0  0  0  0  0  0  0  0  0  0  0
  145.2989   73.2934  216.6682 H   0  0  0  0  0  0  0  0  0  0  0  0
  1  2  2  0
  2  3  1  0
  3  4  1  0
  4  5  2  0
  5  6  1  0
  5  7  1  0
  7  8  2  0
  8  9  1  0
  9 10  2  0
 10 11  1  0
 11 12  2  0
 12 13  1  0
 12 14  1  0
 14 15  2  0
 15 16  1  0
 16 17  2  0
  2 18  1  0
 18 19  1  0
 19 20  1  0
 20 21  1  0
 21 22  1  0
 22 23  1  0
 23 24  1  0
 24 25  2  0
 25 26  1  0
 26 27  2  0
 27 28  1  0
 27 29  1  0
 29 30  2  0
 17  7  1  0
 23 18  1  0
 30 24  1  0
 16 10  1  0
  3 31  1  0
  3 32  1  0
  6 33  1  0
  8 34  1  0
  9 35  1  0
 11 36  1  0
 14 37  1  0
 15 38  1  0
 19 39  1  0
 19 40  1  0
 20 41  1  0
 20 42  1  0
 21 43  1  0
 21 44  1  0
 22 45  1  0
 22 46  1  0
 23 47  1  6
 26 48  1  0
 29 49  1  0
M  CHG  1  28  -1
M  END
>  <meeko>  (4) 
{"free_energy": -7.82, "intermolecular_energy": -9.9, "internal_energy": -1.87, "cluster_size": 18, "cluster_id": 1, "rank_in_cluster": 4}

$$$$

     RDKit          3D

 49 52  0  0  0  0  0  0  0  0999 V2000
  139.3760   74.4060  219.3440 O   0  0  0  0  0  0  0  0  0  0  0  0
  140.0100   75.1430  220.1470 C   0  0  0  0  0  0  0  0  0  0  0  0
  139.7420   74.9870  221.6250 C   0  0  0  0  0  0  0  0  0  0  0  0
  140.3560   73.7640  222.1410 N   0  0  0  0  0  0  0  0  0  0  0  0
  139.9290   72.5500  221.9340 C   0  0  0  0  0  0  0  0  0  0  0  0
  139.4360   72.1480  220.6870 O   0  0  0  0  0  0  0  0  0  0  0  0
  139.9680   71.5770  223.0420 C   0  0  0  0  0  0  0  0  0  0  0  0
  139.5170   70.2600  222.8620 C   0  0  0  0  0  0  0  0  0  0  0  0
  139.5660   69.3600  223.9290 C   0  0  0  0  0  0  0  0  0  0  0  0
  140.0630   69.7750  225.1700 C   0  0  0  0  0  0  0  0  0  0  0  0
  140.1250   68.8960  226.2620 C   0  0  0  0  0  0  0  0  0  0  0  0
  140.6280   69.3430  227.4900 C   0  0  0  0  0  0  0  0  0  0  0  0
  140.7060   68.2450  228.8550 Cl  0  0  0  0  0  0  0  0  0  0  0  0
  141.0680   70.6650  227.6300 C   0  0  0  0  0  0  0  0  0  0  0  0
  141.0080   71.5450  226.5460 C   0  0  0  0  0  0  0  0  0  0  0  0
  140.5070   71.1080  225.3150 C   0  0  0  0  0  0  0  0  0  0  0  0
  140.4480   71.9620  224.2580 N   0  0  0  0  0  0  0  0  0  0  0  0
  141.0040   76.0660  219.6400 N   0  0  0  0  0  0  0  0  0  0  0  0
  141.4870   77.1470  220.5220 C   0  0  0  0  0  0  0  0  0  0  0  0
  141.7520   78.4320  219.7360 C   0  0  0  0  0  0  0  0  0  0  0  0
  142.6620   78.1590  218.5410 C   0  0  0  0  0  0  0  0  0  0  0  0
  142.0200   77.1260  217.6160 C   0  0  0  0  0  0  0  0  0  0  0  0
  141.6830   75.8130  218.3490 C   0  0  1  0  0  0  0  0  0  0  0  0
  142.9100   74.9540  218.5290 C   0  0  0  0  0  0  0  0  0  0  0  0
  143.4000   74.6870  219.7710 N   0  0  0  0  0  0  0  0  0  0  0  0
  144.5130   73.9280  219.9390 C   0  0  0  0  0  0  0  0  0  0  0  0
  145.1770   73.4150  218.8260 C   0  0  0  0  0  0  0  0  0  0  0  0
  146.3160   72.6330  218.9760 O   0  0  0  0  0  0  0  0  0  0  0  0
  144.6730   73.7050  217.5590 C   0  0  0  0  0  0  0  0  0  0  0  0
  143.5570   74.4690  217.4340 N   0  0  0  0  0  0  0  0  0  0  0  0
  140.1594   75.8528  222.1600 H   0  0  0  0  0  0  0  0  0  0  0  0
  138.6547   74.9267  221.7804 H   0  0  0  0  0  0  0  0  0  0  0  0
  139.4060   72.7540  219.8780 H   0  0  0  0  0  0  0  0  0  0  0  0
  139.1268   69.9382  221.8852 H   0  0  0  0  0  0  0  0  0  0  0  0
  139.2145   68.3264  223.7943 H   0  0  0  0  0  0  0  0  0  0  0  0
  139.7790   67.8575  226.1536 H   0  0  0  0  0  0  0  0  0  0  0  0
  141.4622   71.0120  228.5965 H   0  0  0  0  0  0  0  0  0  0  0  0
  141.3551   72.5825  226.6608 H   0  0  0  0  0  0  0  0  0  0  0  0
  140.7266   77.3482  221.2910 H   0  0  0  0  0  0  0  0  0  0  0  0
  142.4315   76.8219  220.9827 H   0  0  0  0  0  0  0  0  0  0  0  0
  140.7953   78.8379  219.3754 H   0  0  0  0  0  0  0  0  0  0  0  0
  142.2490   79.1549  220.3996 H   0  0  0  0  0  0  0  0  0  0  0  0
  142.8229   79.0945  217.9852 H   0  0  0  0  0  0  0  0  0  0  0  0
  143.6242   77.7682  218.9036 H   0  0  0  0  0  0  0  0  0  0  0  0
  141.0921   77.5489  217.2035 H   0  0  0  0  0  0  0  0  0  0  0  0
  142.7430   76.8912  216.8209 H   0  0  0  0  0  0  0  0  0  0  0  0
  140.9780   75.2554  217.7149 H   0  0  0  0  0  0  0  0  0  0  0  0
  144.8899   73.7184  220.9509 H   0  0  0  0  0  0  0  0  0  0  0  0
  145.1780   73.3160  216.6625 H   0  0  0  0  0  0  0  0  0  0  0  0
  1  2  2  0
  2  3  1  0
  3  4  1  0
  4  5  2  0
  5  6  1  0
  5  7  1  0
  7  8  2  0
  8  9  1  0
  9 10  2  0
 10 11  1  0
 11 12  2  0
 12 13  1  0
 12 14  1  0
 14 15  2  0
 15 16  1  0
 16 17  2  0
  2 18  1  0
 18 19  1  0
 19 20  1  0
 20 21  1  0
 21 22  1  0
 22 23  1  0
 23 24  1  0
 24 25  2  0
 25 26  1  0
 26 27  2  0
 27 28  1  0
 27 29  1  0
 29 30  2  0
 17  7  1  0
 23 18  1  0
 30 24  1  0
 16 10  1  0
  3 31  1  0
  3 32  1  0
  6 33  1  0
  8 34  1  0
  9 35  1  0
 11 36  1  0
 14 37  1  0
 15 38  1  0
 19 39  1  0
 19 40  1  0
 20 41  1  0
 20 42  1  0
 21 43  1  0
 21 44  1  0
 22 45  1  0
 22 46  1  0
 23 47  1  6
 26 48  1  0
 29 49  1  0
M  CHG  1  28  -1
M  END
>  <meeko>  (5) 
{"free_energy": -7.82, "intermolecular_energy": -9.9, "internal_energy": -1.82, "cluster_size": 18, "cluster_id": 1, "rank_in_cluster": 5}

$$$$

     RDKit          3D

 49 52  0  0  0  0  0  0  0  0999 V2000
  141.2870   77.1370  221.9110 O   0  0  0  0  0  0  0  0  0  0  0  0
  140.9350   76.3340  221.0040 C   0  0  0  0  0  0  0  0  0  0  0  0
  139.9100   75.2780  221.3440 C   0  0  0  0  0  0  0  0  0  0  0  0
  140.5190   74.1830  222.0970 N   0  0  0  0  0  0  0  0  0  0  0  0
  140.4270   72.9150  221.8080 C   0  0  0  0  0  0  0  0  0  0  0  0
  140.4590   72.4590  220.4860 O   0  0  0  0  0  0  0  0  0  0  0  0
  140.2860   71.9380  222.9050 C   0  0  0  0  0  0  0  0  0  0  0  0
  139.7030   70.6800  222.6810 C   0  0  0  0  0  0  0  0  0  0  0  0
  139.5820   69.7750  223.7370 C   0  0  0  0  0  0  0  0  0  0  0  0
  140.0440   70.1250  225.0120 C   0  0  0  0  0  0  0  0  0  0  0  0
  139.9380   69.2390  226.0950 C   0  0  0  0  0  0  0  0  0  0  0  0
  140.4080   69.6200  227.3580 C   0  0  0  0  0  0  0  0  0  0  0  0
  140.2750   68.5120  228.7110 Cl  0  0  0  0  0  0  0  0  0  0  0  0
  140.9840   70.8830  227.5410 C   0  0  0  0  0  0  0  0  0  0  0  0
  141.0910   71.7700  226.4660 C   0  0  0  0  0  0  0  0  0  0  0  0
  140.6240   71.3980  225.2010 C   0  0  0  0  0  0  0  0  0  0  0  0
  140.7280   72.2590  224.1530 N   0  0  0  0  0  0  0  0  0  0  0  0
  141.4730   76.4810  219.6680 N   0  0  0  0  0  0  0  0  0  0  0  0
  142.1820   77.7280  219.3200 C   0  0  0  0  0  0  0  0  0  0  0  0
  141.9090   78.1410  217.8730 C   0  0  0  0  0  0  0  0  0  0  0  0
  142.1930   76.9840  216.9170 C   0  0  0  0  0  0  0  0  0  0  0  0
  141.3170   75.7820  217.2730 C   0  0  0  0  0  0  0  0  0  0  0  0
  141.5050   75.3330  218.7350 C   0  0  1  0  0  0  0  0  0  0  0  0
  142.7660   74.5210  218.9020 C   0  0  0  0  0  0  0  0  0  0  0  0
  143.0290   73.8710  220.0690 N   0  0  0  0  0  0  0  0  0  0  0  0
  144.1690   73.1510  220.2310 C   0  0  0  0  0  0  0  0  0  0  0  0
  145.0960   73.0780  219.1930 C   0  0  0  0  0  0  0  0  0  0  0  0
  146.2680   72.3450  219.3380 O   0  0  0  0  0  0  0  0  0  0  0  0
  144.8220   73.7580  218.0080 C   0  0  0  0  0  0  0  0  0  0  0  0
  143.6700   74.4680  217.8860 N   0  0  0  0  0  0  0  0  0  0  0  0
  139.1125   75.7322  221.9504 H   0  0  0  0  0  0  0  0  0  0  0  0
  139.4979   74.8739  220.4076 H   0  0  0  0  0  0  0  0  0  0  0  0
  141.2180   72.6540  219.8470 H   0  0  0  0  0  0  0  0  0  0  0  0
  139.3432   70.4089  221.6775 H   0  0  0  0  0  0  0  0  0  0  0  0
  139.1247   68.7889  223.5680 H   0  0  0  0  0  0  0  0  0  0  0  0
  139.4862   68.2463  225.9521 H   0  0  0  0  0  0  0  0  0  0  0  0
  141.3535   71.1782  228.5341 H   0  0  0  0  0  0  0  0  0  0  0  0
  141.5430   72.7617  226.6150 H   0  0  0  0  0  0  0  0  0  0  0  0
  141.8436   78.5311  219.9912 H   0  0  0  0  0  0  0  0  0  0  0  0
  143.2624   77.5543  219.4321 H   0  0  0  0  0  0  0  0  0  0  0  0
  140.8546   78.4390  217.7756 H   0  0  0  0  0  0  0  0  0  0  0  0
  142.5694   78.9821  217.6153 H   0  0  0  0  0  0  0  0  0  0  0  0
  141.9744   77.3012  215.8867 H   0  0  0  0  0  0  0  0  0  0  0  0
  143.2513   76.6968  217.0033 H   0  0  0  0  0  0  0  0  0  0  0  0
  140.2625   76.0552  217.1198 H   0  0  0  0  0  0  0  0  0  0  0  0
  141.6141   74.9454  216.6235 H   0  0  0  0  0  0  0  0  0  0  0  0
  140.6550   74.6830  218.9900 H   0  0  0  0  0  0  0  0  0  0  0  0
  144.3602   72.6268  221.1790 H   0  0  0  0  0  0  0  0  0  0  0  0
  145.5370   73.7201  217.1729 H   0  0  0  0  0  0  0  0  0  0  0  0
  1  2  2  0
  2  3  1  0
  3  4  1  0
  4  5  2  0
  5  6  1  0
  5  7  1  0
  7  8  2  0
  8  9  1  0
  9 10  2  0
 10 11  1  0
 11 12  2  0
 12 13  1  0
 12 14  1  0
 14 15  2  0
 15 16  1  0
 16 17  2  0
  2 18  1  0
 18 19  1  0
 19 20  1  0
 20 21  1  0
 21 22  1  0
 22 23  1  0
 23 24  1  0
 24 25  2  0
 25 26  1  0
 26 27  2  0
 27 28  1  0
 27 29  1  0
 29 30  2  0
 17  7  1  0
 23 18  1  0
 30 24  1  0
 16 10  1  0
  3 31  1  0
  3 32  1  0
  6 33  1  0
  8 34  1  0
  9 35  1  0
 11 36  1  0
 14 37  1  0
 15 38  1  0
 19 39  1  0
 19 40  1  0
 20 41  1  0
 20 42  1  0
 21 43  1  0
 21 44  1  0
 22 45  1  0
 22 46  1  0
 23 47  1  1
 26 48  1  0
 29 49  1  0
M  CHG  1  28  -1
M  END
>  <meeko>  (6) 
{"free_energy": -7.48, "intermolecular_energy": -9.56, "internal_energy": -1.96, "cluster_size": 18, "cluster_id": 1, "rank_in_cluster": 10}

$$$$

     RDKit          3D

 49 52  0  0  0  0  0  0  0  0999 V2000
  140.6040   74.4490  222.3340 O   0  0  0  0  0  0  0  0  0  0  0  0
  140.1470   74.8080  221.2150 C   0  0  0  0  0  0  0  0  0  0  0  0
  138.7760   74.3180  220.8120 C   0  0  0  0  0  0  0  0  0  0  0  0
  138.8490   72.9760  220.2370 N   0  0  0  0  0  0  0  0  0  0  0  0
  139.7520   72.0760  220.5110 C   0  0  0  0  0  0  0  0  0  0  0  0
  140.8090   71.8060  219.6360 O   0  0  0  0  0  0  0  0  0  0  0  0
  139.6550   71.3270  221.7780 C   0  0  0  0  0  0  0  0  0  0  0  0
  138.9800   70.0970  221.8410 C   0  0  0  0  0  0  0  0  0  0  0  0
  138.9040   69.4100  223.0540 C   0  0  0  0  0  0  0  0  0  0  0  0
  139.5010   69.9480  224.1990 C   0  0  0  0  0  0  0  0  0  0  0  0
  139.4430   69.2830  225.4340 C   0  0  0  0  0  0  0  0  0  0  0  0
  140.0510   69.8480  226.5610 C   0  0  0  0  0  0  0  0  0  0  0  0
  139.9780   69.0170  228.1040 Cl  0  0  0  0  0  0  0  0  0  0  0  0
  140.7160   71.0760  226.4590 C   0  0  0  0  0  0  0  0  0  0  0  0
  140.7760   71.7440  225.2330 C   0  0  0  0  0  0  0  0  0  0  0  0
  140.1720   71.1870  224.1000 C   0  0  0  0  0  0  0  0  0  0  0  0
  140.2300   71.8340  222.9060 N   0  0  0  0  0  0  0  0  0  0  0  0
  140.9150   75.7120  220.3840 N   0  0  0  0  0  0  0  0  0  0  0  0
  141.4460   76.9510  220.9840 C   0  0  0  0  0  0  0  0  0  0  0  0
  141.4090   78.1130  219.9900 C   0  0  0  0  0  0  0  0  0  0  0  0
  142.0860   77.7250  218.6780 C   0  0  0  0  0  0  0  0  0  0  0  0
  141.3850   76.5130  218.0630 C   0  0  0  0  0  0  0  0  0  0  0  0
  141.3440   75.3100  219.0250 C   0  0  1  0  0  0  0  0  0  0  0  0
  142.6680   74.5860  219.0560 C   0  0  0  0  0  0  0  0  0  0  0  0
  143.3620   74.4490  220.2190 N   0  0  0  0  0  0  0  0  0  0  0  0
  144.5610   73.8120  220.2500 C   0  0  0  0  0  0  0  0  0  0  0  0
  145.1010   73.2930  219.0750 C   0  0  0  0  0  0  0  0  0  0  0  0
  146.3250   72.6350  219.0860 O   0  0  0  0  0  0  0  0  0  0  0  0
  144.3870   73.4500  217.8890 C   0  0  0  0  0  0  0  0  0  0  0  0
  143.1910   74.0950  217.9000 N   0  0  0  0  0  0  0  0  0  0  0  0
  138.1268   74.2945  221.6997 H   0  0  0  0  0  0  0  0  0  0  0  0
  138.3671   75.0028  220.0545 H   0  0  0  0  0  0  0  0  0  0  0  0
  141.6990   71.4310  219.9350 H   0  0  0  0  0  0  0  0  0  0  0  0
  138.5130   69.6766  220.9381 H   0  0  0  0  0  0  0  0  0  0  0  0
  138.3754   68.4469  223.1093 H   0  0  0  0  0  0  0  0  0  0  0  0
  138.9201   68.3187  225.5159 H   0  0  0  0  0  0  0  0  0  0  0  0
  141.1929   71.5164  227.3470 H   0  0  0  0  0  0  0  0  0  0  0  0
  141.2987   72.7090  225.1584 H   0  0  0  0  0  0  0  0  0  0  0  0
  140.8380   77.2122  221.8627 H   0  0  0  0  0  0  0  0  0  0  0  0
  142.4930   76.7750  221.2720 H   0  0  0  0  0  0  0  0  0  0  0  0
  140.3617   78.3830  219.7895 H   0  0  0  0  0  0  0  0  0  0  0  0
  141.9476   78.9674  220.4258 H   0  0  0  0  0  0  0  0  0  0  0  0
  142.0322   78.5709  217.9768 H   0  0  0  0  0  0  0  0  0  0  0  0
  143.1373   77.4700  218.8771 H   0  0  0  0  0  0  0  0  0  0  0  0
  140.3535   76.7945  217.8046 H   0  0  0  0  0  0  0  0  0  0  0  0
  141.9547   76.2115  217.1716 H   0  0  0  0  0  0  0  0  0  0  0  0
  140.5904   74.6074  218.6396 H   0  0  0  0  0  0  0  0  0  0  0  0
  145.1046   73.7060  221.2004 H   0  0  0  0  0  0  0  0  0  0  0  0
  144.7905   73.0528  216.9459 H   0  0  0  0  0  0  0  0  0  0  0  0
  1  2  2  0
  2  3  1  0
  3  4  1  0
  4  5  2  0
  5  6  1  0
  5  7  1  0
  7  8  2  0
  8  9  1  0
  9 10  2  0
 10 11  1  0
 11 12  2  0
 12 13  1  0
 12 14  1  0
 14 15  2  0
 15 16  1  0
 16 17  2  0
  2 18  1  0
 18 19  1  0
 19 20  1  0
 20 21  1  0
 21 22  1  0
 22 23  1  0
 23 24  1  0
 24 25  2  0
 25 26  1  0
 26 27  2  0
 27 28  1  0
 27 29  1  0
 29 30  2  0
 17  7  1  0
 23 18  1  0
 30 24  1  0
 16 10  1  0
  3 31  1  0
  3 32  1  0
  6 33  1  0
  8 34  1  0
  9 35  1  0
 11 36  1  0
 14 37  1  0
 15 38  1  0
 19 39  1  0
 19 40  1  0
 20 41  1  0
 20 42  1  0
 21 43  1  0
 21 44  1  0
 22 45  1  0
 22 46  1  0
 23 47  1  6
 26 48  1  0
 29 49  1  0
M  CHG  1  28  -1
M  END
>  <meeko>  (7) 
{"free_energy": -6.96, "intermolecular_energy": -9.05, "internal_energy": -1.7, "cluster_size": 18, "cluster_id": 1, "rank_in_cluster": 17}

$$$$

     RDKit          3D

 49 52  0  0  0  0  0  0  0  0999 V2000
  143.1590   72.7690  221.1950 O   0  0  0  0  0  0  0  0  0  0  0  0
  142.2850   72.9840  220.3120 C   0  0  0  0  0  0  0  0  0  0  0  0
  141.2010   71.9520  220.1120 C   0  0  0  0  0  0  0  0  0  0  0  0
  139.9560   72.3700  220.7560 N   0  0  0  0  0  0  0  0  0  0  0  0
  139.8300   72.7520  221.9960 C   0  0  0  0  0  0  0  0  0  0  0  0
  139.6410   74.0960  222.3340 O   0  0  0  0  0  0  0  0  0  0  0  0
  139.8870   71.7400  223.0670 C   0  0  0  0  0  0  0  0  0  0  0  0
  139.4400   70.4270  222.8450 C   0  0  0  0  0  0  0  0  0  0  0  0
  139.5060   69.4900  223.8780 C   0  0  0  0  0  0  0  0  0  0  0  0
  140.0170   69.8620  225.1270 C   0  0  0  0  0  0  0  0  0  0  0  0
  140.0970   68.9440  226.1850 C   0  0  0  0  0  0  0  0  0  0  0  0
  140.6130   69.3480  227.4230 C   0  0  0  0  0  0  0  0  0  0  0  0
  140.7130   68.2010  228.7460 Cl  0  0  0  0  0  0  0  0  0  0  0  0
  141.0490   70.6660  227.6060 C   0  0  0  0  0  0  0  0  0  0  0  0
  140.9710   71.5850  226.5550 C   0  0  0  0  0  0  0  0  0  0  0  0
  140.4570   71.1900  225.3150 C   0  0  0  0  0  0  0  0  0  0  0  0
  140.3810   72.0820  224.2910 N   0  0  0  0  0  0  0  0  0  0  0  0
  142.3130   74.2240  219.5630 N   0  0  0  0  0  0  0  0  0  0  0  0
  141.9370   74.2020  218.1360 C   0  0  0  0  0  0  0  0  0  0  0  0
  142.7830   75.1810  217.3210 C   0  0  0  0  0  0  0  0  0  0  0  0
  142.7510   76.5740  217.9440 C   0  0  0  0  0  0  0  0  0  0  0  0
  143.2820   76.5210  219.3770 C   0  0  0  0  0  0  0  0  0  0  0  0
  142.5040   75.5200  220.2530 C   0  0  1  0  0  0  0  0  0  0  0  0
  141.1890   76.0990  220.7140 C   0  0  0  0  0  0  0  0  0  0  0  0
  141.0570   76.6270  221.9620 N   0  0  0  0  0  0  0  0  0  0  0  0
  139.8720   77.1350  222.3880 C   0  0  0  0  0  0  0  0  0  0  0  0
  138.7650   77.1130  221.5430 C   0  0  0  0  0  0  0  0  0  0  0  0
  137.5440   77.6300  221.9590 O   0  0  0  0  0  0  0  0  0  0  0  0
  138.9080   76.5590  220.2730 C   0  0  0  0  0  0  0  0  0  0  0  0
  140.1100   76.0600  219.8840 N   0  0  0  0  0  0  0  0  0  0  0  0
  141.0227   71.8214  219.0344 H   0  0  0  0  0  0  0  0  0  0  0  0
  141.5299   71.0051  220.5650 H   0  0  0  0  0  0  0  0  0  0  0  0
  139.8210   74.8620  221.6980 H   0  0  0  0  0  0  0  0  0  0  0  0
  139.0398   70.1383  221.8619 H   0  0  0  0  0  0  0  0  0  0  0  0
  139.1568   68.4604  223.7105 H   0  0  0  0  0  0  0  0  0  0  0  0
  139.7549   67.9083  226.0425 H   0  0  0  0  0  0  0  0  0  0  0  0
  141.4541   70.9794  228.5795 H   0  0  0  0  0  0  0  0  0  0  0  0
  141.3141   72.6196  226.7032 H   0  0  0  0  0  0  0  0  0  0  0  0
  142.0865   73.1859  217.7421 H   0  0  0  0  0  0  0  0  0  0  0  0
  140.8822   74.5022  218.0512 H   0  0  0  0  0  0  0  0  0  0  0  0
  143.8225   74.8224  217.2927 H   0  0  0  0  0  0  0  0  0  0  0  0
  142.3706   75.2405  216.3030 H   0  0  0  0  0  0  0  0  0  0  0  0
  143.3784   77.2534  217.3484 H   0  0  0  0  0  0  0  0  0  0  0  0
  141.7132   76.9385  217.9578 H   0  0  0  0  0  0  0  0  0  0  0  0
  144.3399   76.2206  219.3512 H   0  0  0  0  0  0  0  0  0  0  0  0
  143.1586   77.5209  219.8185 H   0  0  0  0  0  0  0  0  0  0  0  0
  143.1127   75.3260  221.1484 H   0  0  0  0  0  0  0  0  0  0  0  0
  139.7865   77.5628  223.3978 H   0  0  0  0  0  0  0  0  0  0  0  0
  138.0492   76.5257  219.5864 H   0  0  0  0  0  0  0  0  0  0  0  0
  1  2  2  0
  2  3  1  0
  3  4  1  0
  4  5  2  0
  5  6  1  0
  5  7  1  0
  7  8  2  0
  8  9  1  0
  9 10  2  0
 10 11  1  0
 11 12  2  0
 12 13  1  0
 12 14  1  0
 14 15  2  0
 15 16  1  0
 16 17  2  0
  2 18  1  0
 18 19  1  0
 19 20  1  0
 20 21  1  0
 21 22  1  0
 22 23  1  0
 23 24  1  0
 24 25  2  0
 25 26  1  0
 26 27  2  0
 27 28  1  0
 27 29  1  0
 29 30  2  0
 17  7  1  0
 23 18  1  0
 30 24  1  0
 16 10  1  0
  3 31  1  0
  3 32  1  0
  6 33  1  0
  8 34  1  0
  9 35  1  0
 11 36  1  0
 14 37  1  0
 15 38  1  0
 19 39  1  0
 19 40  1  0
 20 41  1  0
 20 42  1  0
 21 43  1  0
 21 44  1  0
 22 45  1  0
 22 46  1  0
 23 47  1  1
 26 48  1  0
 29 49  1  0
M  CHG  1  28  -1
M  END
>  <meeko>  (8) 
{"free_energy": -6.03, "intermolecular_energy": -8.12, "internal_energy": -2.78, "cluster_size": 1, "cluster_id": 3, "rank_in_cluster": 1}

$$$$

     RDKit          3D

 49 52  0  0  0  0  0  0  0  0999 V2000
  138.8260   74.3540  218.2150 O   0  0  0  0  0  0  0  0  0  0  0  0
  139.7470   74.1230  219.0450 C   0  0  0  0  0  0  0  0  0  0  0  0
  139.8460   72.7370  219.6360 C   0  0  0  0  0  0  0  0  0  0  0  0
  140.4910   72.7720  220.9470 N   0  0  0  0  0  0  0  0  0  0  0  0
  139.8920   72.9790  222.0860 C   0  0  0  0  0  0  0  0  0  0  0  0
  139.2010   74.1680  222.3470 O   0  0  0  0  0  0  0  0  0  0  0  0
  139.9440   71.9330  223.1250 C   0  0  0  0  0  0  0  0  0  0  0  0
  139.5110   70.6240  222.8540 C   0  0  0  0  0  0  0  0  0  0  0  0
  139.5710   69.6540  223.8550 C   0  0  0  0  0  0  0  0  0  0  0  0
  140.0630   69.9890  225.1230 C   0  0  0  0  0  0  0  0  0  0  0  0
  140.1370   69.0370  226.1510 C   0  0  0  0  0  0  0  0  0  0  0  0
  140.6330   69.4040  227.4080 C   0  0  0  0  0  0  0  0  0  0  0  0
  140.7250   68.2150  228.6940 Cl  0  0  0  0  0  0  0  0  0  0  0  0
  141.0540   70.7190  227.6400 C   0  0  0  0  0  0  0  0  0  0  0  0
  140.9820   71.6720  226.6200 C   0  0  0  0  0  0  0  0  0  0  0  0
  140.4880   71.3140  225.3600 C   0  0  0  0  0  0  0  0  0  0  0  0
  140.4180   72.2380  224.3650 N   0  0  0  0  0  0  0  0  0  0  0  0
  140.7050   75.1630  219.3600 N   0  0  0  0  0  0  0  0  0  0  0  0
  140.7080   75.7380  220.7200 C   0  0  0  0  0  0  0  0  0  0  0  0
  141.0220   77.2350  220.6920 C   0  0  0  0  0  0  0  0  0  0  0  0
  142.3030   77.5050  219.9060 C   0  0  0  0  0  0  0  0  0  0  0  0
  142.1580   76.9930  218.4720 C   0  0  0  0  0  0  0  0  0  0  0  0
  141.7970   75.4960  218.4190 C   0  0  1  0  0  0  0  0  0  0  0  0
  143.0110   74.6300  218.6530 C   0  0  0  0  0  0  0  0  0  0  0  0
  143.6150   73.9800  217.6200 N   0  0  0  0  0  0  0  0  0  0  0  0
  144.6980   73.1870  217.8270 C   0  0  0  0  0  0  0  0  0  0  0  0
  145.2010   73.0230  219.1150 C   0  0  0  0  0  0  0  0  0  0  0  0
  146.3100   72.2190  219.3480 O   0  0  0  0  0  0  0  0  0  0  0  0
  144.5670   73.6830  220.1660 C   0  0  0  0  0  0  0  0  0  0  0  0
  143.4860   74.4670  219.9180 N   0  0  0  0  0  0  0  0  0  0  0  0
  138.8344   72.3187  219.7438 H   0  0  0  0  0  0  0  0  0  0  0  0
  140.4517   72.1116  218.9638 H   0  0  0  0  0  0  0  0  0  0  0  0
  138.4980   74.2580  223.0690 H   0  0  0  0  0  0  0  0  0  0  0  0
  139.1262   70.3651  221.8566 H   0  0  0  0  0  0  0  0  0  0  0  0
  139.2325   68.6279  223.6488 H   0  0  0  0  0  0  0  0  0  0  0  0
  139.8058   68.0038  225.9698 H   0  0  0  0  0  0  0  0  0  0  0  0
  141.4430   71.0033  228.6289 H   0  0  0  0  0  0  0  0  0  0  0  0
  141.3137   72.7039  226.8075 H   0  0  0  0  0  0  0  0  0  0  0  0
  139.7173   75.5885  221.1740 H   0  0  0  0  0  0  0  0  0  0  0  0
  141.4873   75.2316  221.3084 H   0  0  0  0  0  0  0  0  0  0  0  0
  140.1871   77.7699  220.2158 H   0  0  0  0  0  0  0  0  0  0  0  0
  141.1614   77.5857  221.7252 H   0  0  0  0  0  0  0  0  0  0  0  0
  142.4973   78.5876  219.8878 H   0  0  0  0  0  0  0  0  0  0  0  0
  143.1402   76.9824  220.3918 H   0  0  0  0  0  0  0  0  0  0  0  0
  141.3644   77.5662  217.9703 H   0  0  0  0  0  0  0  0  0  0  0  0
  143.1274   77.1233  217.9686 H   0  0  0  0  0  0  0  0  0  0  0  0
  141.4278   75.2837  217.4048 H   0  0  0  0  0  0  0  0  0  0  0  0
  145.1767   72.6754  216.9790 H   0  0  0  0  0  0  0  0  0  0  0  0
  144.9412   73.5692  221.1941 H   0  0  0  0  0  0  0  0  0  0  0  0
  1  2  2  0
  2  3  1  0
  3  4  1  0
  4  5  2  0
  5  6  1  0
  5  7  1  0
  7  8  2  0
  8  9  1  0
  9 10  2  0
 10 11  1  0
 11 12  2  0
 12 13  1  0
 12 14  1  0
 14 15  2  0
 15 16  1  0
 16 17  2  0
  2 18  1  0
 18 19  1  0
 19 20  1  0
 20 21  1  0
 21 22  1  0
 22 23  1  0
 23 24  1  0
 24 25  2  0
 25 26  1  0
 26 27  2  0
 27 28  1  0
 27 29  1  0
 29 30  2  0
 17  7  1  0
 23 18  1  0
 30 24  1  0
 16 10  1  0
  3 31  1  0
  3 32  1  0
  6 33  1  0
  8 34  1  0
  9 35  1  0
 11 36  1  0
 14 37  1  0
 15 38  1  0
 19 39  1  0
 19 40  1  0
 20 41  1  0
 20 42  1  0
 21 43  1  0
 21 44  1  0
 22 45  1  0
 22 46  1  0
 23 47  1  6
 26 48  1  0
 29 49  1  0
M  CHG  1  28  -1
M  END
>  <meeko>  (9) 
{"free_energy": -7.95, "intermolecular_energy": -10.04, "internal_energy": -1.26, "cluster_size": 18, "cluster_id": 1, "rank_in_cluster": 2}

$$$$

     RDKit          3D

 49 52  0  0  0  0  0  0  0  0999 V2000
  139.4800   74.3010  222.3740 O   0  0  0  0  0  0  0  0  0  0  0  0
  139.7800   74.4570  221.1590 C   0  0  0  0  0  0  0  0  0  0  0  0
  139.1330   73.5470  220.1420 C   0  0  0  0  0  0  0  0  0  0  0  0
  139.7490   72.2210  220.1590 N   0  0  0  0  0  0  0  0  0  0  0  0
  140.7110   71.8380  220.9510 C   0  0  0  0  0  0  0  0  0  0  0  0
  142.0560   72.0300  220.6190 O   0  0  0  0  0  0  0  0  0  0  0  0
  140.3690   71.1860  222.2300 C   0  0  0  0  0  0  0  0  0  0  0  0
  139.5640   70.0360  222.2620 C   0  0  0  0  0  0  0  0  0  0  0  0
  139.2570   69.4400  223.4870 C   0  0  0  0  0  0  0  0  0  0  0  0
  139.7530   69.9910  224.6750 C   0  0  0  0  0  0  0  0  0  0  0  0
  139.4620   69.4170  225.9220 C   0  0  0  0  0  0  0  0  0  0  0  0
  139.9730   69.9930  227.0920 C   0  0  0  0  0  0  0  0  0  0  0  0
  139.6100   69.2750  228.6500 Cl  0  0  0  0  0  0  0  0  0  0  0  0
  140.7720   71.1400  227.0190 C   0  0  0  0  0  0  0  0  0  0  0  0
  141.0640   71.7170  225.7790 C   0  0  0  0  0  0  0  0  0  0  0  0
  140.5580   71.1490  224.6050 C   0  0  0  0  0  0  0  0  0  0  0  0
  140.8410   71.7070  223.3980 N   0  0  0  0  0  0  0  0  0  0  0  0
  140.6790   75.5240  220.7730 N   0  0  0  0  0  0  0  0  0  0  0  0
  141.1320   76.4790  221.8040 C   0  0  0  0  0  0  0  0  0  0  0  0
  141.2650   77.8920  221.2350 C   0  0  0  0  0  0  0  0  0  0  0  0
  142.1280   77.8910  219.9750 C   0  0  0  0  0  0  0  0  0  0  0  0
  141.5110   76.9760  218.9160 C   0  0  0  0  0  0  0  0  0  0  0  0
  141.3050   75.5390  219.4320 C   0  0  1  0  0  0  0  0  0  0  0  0
  142.5960   74.7590  219.4160 C   0  0  0  0  0  0  0  0  0  0  0  0
  143.4540   74.8070  220.4720 N   0  0  0  0  0  0  0  0  0  0  0  0
  144.6250   74.1190  220.4570 C   0  0  0  0  0  0  0  0  0  0  0  0
  144.9670   73.3560  219.3430 C   0  0  0  0  0  0  0  0  0  0  0  0
  146.1590   72.6430  219.3080 O   0  0  0  0  0  0  0  0  0  0  0  0
  144.0870   73.3250  218.2630 C   0  0  0  0  0  0  0  0  0  0  0  0
  142.9250   74.0270  218.3160 N   0  0  0  0  0  0  0  0  0  0  0  0
  138.0626   73.4495  220.3759 H   0  0  0  0  0  0  0  0  0  0  0  0
  139.2705   73.9847  219.1422 H   0  0  0  0  0  0  0  0  0  0  0  0
  142.4040   72.8610  220.1590 H   0  0  0  0  0  0  0  0  0  0  0  0
  139.1769   69.6065  221.3262 H   0  0  0  0  0  0  0  0  0  0  0  0
  138.6266   68.5391  223.5187 H   0  0  0  0  0  0  0  0  0  0  0  0
  138.8336   68.5161  225.9805 H   0  0  0  0  0  0  0  0  0  0  0  0
  141.1716   71.5891  227.9402 H   0  0  0  0  0  0  0  0  0  0  0  0
  141.6922   72.6185  225.7268 H   0  0  0  0  0  0  0  0  0  0  0  0
  140.4013   76.4915  222.6262 H   0  0  0  0  0  0  0  0  0  0  0  0
  142.1198   76.1565  222.1648 H   0  0  0  0  0  0  0  0  0  0  0  0
  140.2647   78.2762  220.9865 H   0  0  0  0  0  0  0  0  0  0  0  0
  141.7447   78.5321  221.9901 H   0  0  0  0  0  0  0  0  0  0  0  0
  142.1932   78.9147  219.5779 H   0  0  0  0  0  0  0  0  0  0  0  0
  143.1333   77.5227  220.2275 H   0  0  0  0  0  0  0  0  0  0  0  0
  140.5356   77.3878  218.6178 H   0  0  0  0  0  0  0  0  0  0  0  0
  142.2059   76.9310  218.0645 H   0  0  0  0  0  0  0  0  0  0  0  0
  140.6080   75.0402  218.7425 H   0  0  0  0  0  0  0  0  0  0  0  0
  145.3019   74.1643  221.3229 H   0  0  0  0  0  0  0  0  0  0  0  0
  144.3328   72.7331  217.3690 H   0  0  0  0  0  0  0  0  0  0  0  0
  1  2  2  0
  2  3  1  0
  3  4  1  0
  4  5  2  0
  5  6  1  0
  5  7  1  0
  7  8  2  0
  8  9  1  0
  9 10  2  0
 10 11  1  0
 11 12  2  0
 12 13  1  0
 12 14  1  0
 14 15  2  0
 15 16  1  0
 16 17  2  0
  2 18  1  0
 18 19  1  0
 19 20  1  0
 20 21  1  0
 21 22  1  0
 22 23  1  0
 23 24  1  0
 24 25  2  0
 25 26  1  0
 26 27  2  0
 27 28  1  0
 27 29  1  0
 29 30  2  0
 17  7  1  0
 23 18  1  0
 30 24  1  0
 16 10  1  0
  3 31  1  0
  3 32  1  0
  6 33  1  0
  8 34  1  0
  9 35  1  0
 11 36  1  0
 14 37  1  0
 15 38  1  0
 19 39  1  0
 19 40  1  0
 20 41  1  0
 20 42  1  0
 21 43  1  0
 21 44  1  0
 22 45  1  0
 22 46  1  0
 23 47  1  6
 26 48  1  0
 29 49  1  0
M  CHG  1  28  -1
M  END
>  <meeko>  (10) 
{"free_energy": -7.08, "intermolecular_energy": -9.16, "internal_energy": -2.78, "cluster_size": 18, "cluster_id": 1, "rank_in_cluster": 16}

$$$$

     RDKit          3D

 49 52  0  0  0  0  0  0  0  0999 V2000
  139.2140   74.8800  219.5240 O   0  0  0  0  0  0  0  0  0  0  0  0
  140.1020   75.4240  220.2370 C   0  0  0  0  0  0  0  0  0  0  0  0
  140.0960   75.1460  221.7210 C   0  0  0  0  0  0  0  0  0  0  0  0
  140.5140   73.7720  221.9970 N   0  0  0  0  0  0  0  0  0  0  0  0
  139.7490   72.7180  221.9470 C   0  0  0  0  0  0  0  0  0  0  0  0
  138.8490   72.5130  220.8950 O   0  0  0  0  0  0  0  0  0  0  0  0
  139.8370   71.7160  223.0260 C   0  0  0  0  0  0  0  0  0  0  0  0
  139.4090   70.3940  222.8220 C   0  0  0  0  0  0  0  0  0  0  0  0
  139.5040   69.4670  223.8620 C   0  0  0  0  0  0  0  0  0  0  0  0
  140.0250   69.8590  225.1000 C   0  0  0  0  0  0  0  0  0  0  0  0
  140.1340   68.9520  226.1660 C   0  0  0  0  0  0  0  0  0  0  0  0
  140.6600   69.3760  227.3930 C   0  0  0  0  0  0  0  0  0  0  0  0
  140.7960   68.2420  228.7240 Cl  0  0  0  0  0  0  0  0  0  0  0  0
  141.0760   70.7020  227.5580 C   0  0  0  0  0  0  0  0  0  0  0  0
  140.9690   71.6110  226.5000 C   0  0  0  0  0  0  0  0  0  0  0  0
  140.4450   71.1960  225.2710 C   0  0  0  0  0  0  0  0  0  0  0  0
  140.3410   72.0770  224.2400 N   0  0  0  0  0  0  0  0  0  0  0  0
  141.1210   76.2420  219.6120 N   0  0  0  0  0  0  0  0  0  0  0  0
  141.6490   77.4060  220.3490 C   0  0  0  0  0  0  0  0  0  0  0  0
  141.9480   78.5740  219.4080 C   0  0  0  0  0  0  0  0  0  0  0  0
  142.8360   78.1240  218.2510 C   0  0  0  0  0  0  0  0  0  0  0  0
  142.1500   77.0050  217.4660 C   0  0  0  0  0  0  0  0  0  0  0  0
  141.7770   75.8070  218.3590 C   0  0  1  0  0  0  0  0  0  0  0  0
  142.9770   74.9350  218.6370 C   0  0  0  0  0  0  0  0  0  0  0  0
  143.4950   74.8400  219.8930 N   0  0  0  0  0  0  0  0  0  0  0  0
  144.5840   74.0690  220.1470 C   0  0  0  0  0  0  0  0  0  0  0  0
  145.1940   73.3670  219.1090 C   0  0  0  0  0  0  0  0  0  0  0  0
  146.3070   72.5710  219.3480 O   0  0  0  0  0  0  0  0  0  0  0  0
  144.6630   73.4820  217.8260 C   0  0  0  0  0  0  0  0  0  0  0  0
  143.5720   74.2640  217.6130 N   0  0  0  0  0  0  0  0  0  0  0  0
  140.7882   75.8400  222.2201 H   0  0  0  0  0  0  0  0  0  0  0  0
  139.0727   75.2845  222.1000 H   0  0  0  0  0  0  0  0  0  0  0  0
  138.7100   73.1750  220.1430 H   0  0  0  0  0  0  0  0  0  0  0  0
  139.0006   70.0900  221.8469 H   0  0  0  0  0  0  0  0  0  0  0  0
  139.1698   68.4303  223.7082 H   0  0  0  0  0  0  0  0  0  0  0  0
  139.8067   67.9097  226.0378 H   0  0  0  0  0  0  0  0  0  0  0  0
  141.4887   71.0307  228.5232 H   0  0  0  0  0  0  0  0  0  0  0  0
  141.2969   72.6523  226.6345 H   0  0  0  0  0  0  0  0  0  0  0  0
  140.9042   77.7269  221.0922 H   0  0  0  0  0  0  0  0  0  0  0  0
  142.5873   77.1082  220.8399 H   0  0  0  0  0  0  0  0  0  0  0  0
  141.0016   78.9643  219.0056 H   0  0  0  0  0  0  0  0  0  0  0  0
  142.4752   79.3565  219.9735 H   0  0  0  0  0  0  0  0  0  0  0  0
  143.0215   78.9770  217.5817 H   0  0  0  0  0  0  0  0  0  0  0  0
  143.7889   77.7496  218.6532 H   0  0  0  0  0  0  0  0  0  0  0  0
  141.2326   77.4046  217.0092 H   0  0  0  0  0  0  0  0  0  0  0  0
  142.8569   76.6479  216.7026 H   0  0  0  0  0  0  0  0  0  0  0  0
  141.0467   75.1995  217.8043 H   0  0  0  0  0  0  0  0  0  0  0  0
  144.9835   73.9988  221.1695 H   0  0  0  0  0  0  0  0  0  0  0  0
  145.1257   72.9411  216.9874 H   0  0  0  0  0  0  0  0  0  0  0  0
  1  2  2  0
  2  3  1  0
  3  4  1  0
  4  5  2  0
  5  6  1  0
  5  7  1  0
  7  8  2  0
  8  9  1  0
  9 10  2  0
 10 11  1  0
 11 12  2  0
 12 13  1  0
 12 14  1  0
 14 15  2  0
 15 16  1  0
 16 17  2  0
  2 18  1  0
 18 19  1  0
 19 20  1  0
 20 21  1  0
 21 22  1  0
 22 23  1  0
 23 24  1  0
 24 25  2  0
 25 26  1  0
 26 27  2  0
 27 28  1  0
 27 29  1  0
 29 30  2  0
 17  7  1  0
 23 18  1  0
 30 24  1  0
 16 10  1  0
  3 31  1  0
  3 32  1  0
  6 33  1  0
  8 34  1  0
  9 35  1  0
 11 36  1  0
 14 37  1  0
 15 38  1  0
 19 39  1  0
 19 40  1  0
 20 41  1  0
 20 42  1  0
 21 43  1  0
 21 44  1  0
 22 45  1  0
 22 46  1  0
 23 47  1  6
 26 48  1  0
 29 49  1  0
M  CHG  1  28  -1
M  END
>  <meeko>  (11) 
{"free_energy": -7.77, "intermolecular_energy": -9.85, "internal_energy": -1.83, "cluster_size": 18, "cluster_id": 1, "rank_in_cluster": 6}

$$$$

     RDKit          3D

 49 52  0  0  0  0  0  0  0  0999 V2000
  140.3700   77.0820  222.1450 O   0  0  0  0  0  0  0  0  0  0  0  0
  140.5080   76.3090  221.1580 C   0  0  0  0  0  0  0  0  0  0  0  0
  139.7530   75.0020  221.1630 C   0  0  0  0  0  0  0  0  0  0  0  0
  140.4440   74.0020  221.9760 N   0  0  0  0  0  0  0  0  0  0  0  0
  140.4970   72.7230  221.7300 C   0  0  0  0  0  0  0  0  0  0  0  0
  140.6950   72.2320  220.4350 O   0  0  0  0  0  0  0  0  0  0  0  0
  140.3450   71.7710  222.8470 C   0  0  0  0  0  0  0  0  0  0  0  0
  139.7220   70.5270  222.6550 C   0  0  0  0  0  0  0  0  0  0  0  0
  139.5920   69.6460  223.7310 C   0  0  0  0  0  0  0  0  0  0  0  0
  140.0820   70.0060  224.9910 C   0  0  0  0  0  0  0  0  0  0  0  0
  139.9670   69.1430  226.0930 C   0  0  0  0  0  0  0  0  0  0  0  0
  140.4670   69.5340  227.3410 C   0  0  0  0  0  0  0  0  0  0  0  0
  140.3230   68.4560  228.7170 Cl  0  0  0  0  0  0  0  0  0  0  0  0
  141.0810   70.7830  227.4920 C   0  0  0  0  0  0  0  0  0  0  0  0
  141.1980   71.6470  226.3990 C   0  0  0  0  0  0  0  0  0  0  0  0
  140.7010   71.2650  225.1480 C   0  0  0  0  0  0  0  0  0  0  0  0
  140.8140   72.1030  224.0820 N   0  0  0  0  0  0  0  0  0  0  0  0
  141.3300   76.7180  220.0370 N   0  0  0  0  0  0  0  0  0  0  0  0
  142.1230   77.9570  220.1520 C   0  0  0  0  0  0  0  0  0  0  0  0
  142.1840   78.7060  218.8200 C   0  0  0  0  0  0  0  0  0  0  0  0
  142.6480   77.7800  217.6980 C   0  0  0  0  0  0  0  0  0  0  0  0
  141.6920   76.5940  217.5670 C   0  0  0  0  0  0  0  0  0  0  0  0
  141.5440   75.8120  218.8870 C   0  0  1  0  0  0  0  0  0  0  0  0
  142.7210   74.8960  219.1170 C   0  0  0  0  0  0  0  0  0  0  0  0
  143.7590   75.2770  219.9120 N   0  0  0  0  0  0  0  0  0  0  0  0
  144.8280   74.4630  220.1100 C   0  0  0  0  0  0  0  0  0  0  0  0
  144.8760   73.2180  219.4870 C   0  0  0  0  0  0  0  0  0  0  0  0
  145.9590   72.3690  219.6780 O   0  0  0  0  0  0  0  0  0  0  0  0
  143.8140   72.8440  218.6650 C   0  0  0  0  0  0  0  0  0  0  0  0
  142.7630   73.6870  218.4920 N   0  0  0  0  0  0  0  0  0  0  0  0
  138.7472   75.1689  221.5758 H   0  0  0  0  0  0  0  0  0  0  0  0
  139.6881   74.6303  220.1297 H   0  0  0  0  0  0  0  0  0  0  0  0
  141.3590   72.6300  219.7830 H   0  0  0  0  0  0  0  0  0  0  0  0
  139.3385   70.2480  221.6625 H   0  0  0  0  0  0  0  0  0  0  0  0
  139.1049   68.6702  223.5879 H   0  0  0  0  0  0  0  0  0  0  0  0
  139.4848   68.1613  225.9758 H   0  0  0  0  0  0  0  0  0  0  0  0
  141.4729   71.0858  228.4742 H   0  0  0  0  0  0  0  0  0  0  0  0
  141.6810   72.6275  226.5226 H   0  0  0  0  0  0  0  0  0  0  0  0
  141.6611   78.6087  220.9082 H   0  0  0  0  0  0  0  0  0  0  0  0
  143.1483   77.6860  220.4441 H   0  0  0  0  0  0  0  0  0  0  0  0
  141.1832   79.0929  218.5777 H   0  0  0  0  0  0  0  0  0  0  0  0
  142.9022   79.5339  218.9136 H   0  0  0  0  0  0  0  0  0  0  0  0
  142.6675   78.3381  216.7503 H   0  0  0  0  0  0  0  0  0  0  0  0
  143.6555   77.4063  217.9329 H   0  0  0  0  0  0  0  0  0  0  0  0
  140.7028   76.9689  217.2654 H   0  0  0  0  0  0  0  0  0  0  0  0
  142.1087   75.9080  216.8149 H   0  0  0  0  0  0  0  0  0  0  0  0
  140.6463   75.1827  218.7970 H   0  0  0  0  0  0  0  0  0  0  0  0
  145.6539   74.7861  220.7608 H   0  0  0  0  0  0  0  0  0  0  0  0
  143.8271   71.8682  218.1575 H   0  0  0  0  0  0  0  0  0  0  0  0
  1  2  2  0
  2  3  1  0
  3  4  1  0
  4  5  2  0
  5  6  1  0
  5  7  1  0
  7  8  2  0
  8  9  1  0
  9 10  2  0
 10 11  1  0
 11 12  2  0
 12 13  1  0
 12 14  1  0
 14 15  2  0
 15 16  1  0
 16 17  2  0
  2 18  1  0
 18 19  1  0
 19 20  1  0
 20 21  1  0
 21 22  1  0
 22 23  1  0
 23 24  1  0
 24 25  2  0
 25 26  1  0
 26 27  2  0
 27 28  1  0
 27 29  1  0
 29 30  2  0
 17  7  1  0
 23 18  1  0
 30 24  1  0
 16 10  1  0
  3 31  1  0
  3 32  1  0
  6 33  1  0
  8 34  1  0
  9 35  1  0
 11 36  1  0
 14 37  1  0
 15 38  1  0
 19 39  1  0
 19 40  1  0
 20 41  1  0
 20 42  1  0
 21 43  1  0
 21 44  1  0
 22 45  1  0
 22 46  1  0
 23 47  1  6
 26 48  1  0
 29 49  1  0
M  CHG  1  28  -1
M  END
>  <meeko>  (12) 
{"free_energy": -7.26, "intermolecular_energy": -9.34, "internal_energy": -1.99, "cluster_size": 18, "cluster_id": 1, "rank_in_cluster": 14}

$$$$

     RDKit          3D

 49 52  0  0  0  0  0  0  0  0999 V2000
  140.1350   74.7100  222.3320 O   0  0  0  0  0  0  0  0  0  0  0  0
  140.0700   74.7110  221.0720 C   0  0  0  0  0  0  0  0  0  0  0  0
  139.0470   73.8200  220.4090 C   0  0  0  0  0  0  0  0  0  0  0  0
  139.6560   72.5690  219.9580 N   0  0  0  0  0  0  0  0  0  0  0  0
  140.5830   71.9020  220.5880 C   0  0  0  0  0  0  0  0  0  0  0  0
  141.8760   71.7760  220.0700 O   0  0  0  0  0  0  0  0  0  0  0  0
  140.2570   71.2670  221.8790 C   0  0  0  0  0  0  0  0  0  0  0  0
  139.4280   70.1360  221.9390 C   0  0  0  0  0  0  0  0  0  0  0  0
  139.1370   69.5550  223.1750 C   0  0  0  0  0  0  0  0  0  0  0  0
  139.6720   70.1030  224.3460 C   0  0  0  0  0  0  0  0  0  0  0  0
  139.3980   69.5440  225.6040 C   0  0  0  0  0  0  0  0  0  0  0  0
  139.9490   70.1170  226.7580 C   0  0  0  0  0  0  0  0  0  0  0  0
  139.6070   69.4180  228.3300 Cl  0  0  0  0  0  0  0  0  0  0  0  0
  140.7710   71.2460  226.6580 C   0  0  0  0  0  0  0  0  0  0  0  0
  141.0470   71.8070  225.4070 C   0  0  0  0  0  0  0  0  0  0  0  0
  140.5010   71.2420  224.2490 C   0  0  0  0  0  0  0  0  0  0  0  0
  140.7670   71.7860  223.0320 N   0  0  0  0  0  0  0  0  0  0  0  0
  140.9280   75.5950  220.3100 N   0  0  0  0  0  0  0  0  0  0  0  0
  141.4550   76.8100  220.9630 C   0  0  0  0  0  0  0  0  0  0  0  0
  141.5310   77.9810  219.9820 C   0  0  0  0  0  0  0  0  0  0  0  0
  142.2900   77.5810  218.7190 C   0  0  0  0  0  0  0  0  0  0  0  0
  141.5960   76.4000  218.0400 C   0  0  0  0  0  0  0  0  0  0  0  0
  141.4430   75.1910  218.9830 C   0  0  1  0  0  0  0  0  0  0  0  0
  142.7350   74.4200  219.1030 C   0  0  0  0  0  0  0  0  0  0  0  0
  143.4830   74.4830  220.2400 N   0  0  0  0  0  0  0  0  0  0  0  0
  144.6540   73.8040  220.3480 C   0  0  0  0  0  0  0  0  0  0  0  0
  145.1100   73.0350  219.2800 C   0  0  0  0  0  0  0  0  0  0  0  0
  146.3050   72.3300  219.3710 O   0  0  0  0  0  0  0  0  0  0  0  0
  144.3430   72.9880  218.1170 C   0  0  0  0  0  0  0  0  0  0  0  0
  143.1770   73.6820  218.0480 N   0  0  0  0  0  0  0  0  0  0  0  0
  138.2477   73.5918  221.1294 H   0  0  0  0  0  0  0  0  0  0  0  0
  138.6380   74.3464  219.5340 H   0  0  0  0  0  0  0  0  0  0  0  0
  142.4670   72.5650  219.8470 H   0  0  0  0  0  0  0  0  0  0  0  0
  139.0091   69.7089  221.0159 H   0  0  0  0  0  0  0  0  0  0  0  0
  138.4884   68.6682  223.2280 H   0  0  0  0  0  0  0  0  0  0  0  0
  138.7517   68.6575  225.6839 H   0  0  0  0  0  0  0  0  0  0  0  0
  141.2011   71.6932  227.5663 H   0  0  0  0  0  0  0  0  0  0  0  0
  141.6941   72.6935  225.3332 H   0  0  0  0  0  0  0  0  0  0  0  0
  140.7926   77.0842  221.7973 H   0  0  0  0  0  0  0  0  0  0  0  0
  142.4709   76.5955  221.3262 H   0  0  0  0  0  0  0  0  0  0  0  0
  140.5111   78.2887  219.7078 H   0  0  0  0  0  0  0  0  0  0  0  0
  142.0644   78.8125  220.4658 H   0  0  0  0  0  0  0  0  0  0  0  0
  142.3174   78.4344  218.0255 H   0  0  0  0  0  0  0  0  0  0  0  0
  143.3142   77.2875  218.9926 H   0  0  0  0  0  0  0  0  0  0  0  0
  140.5967   76.7194  217.7093 H   0  0  0  0  0  0  0  0  0  0  0  0
  142.2194   76.0868  217.1896 H   0  0  0  0  0  0  0  0  0  0  0  0
  140.6964   74.5187  218.5351 H   0  0  0  0  0  0  0  0  0  0  0  0
  145.2409   73.8612  221.2766 H   0  0  0  0  0  0  0  0  0  0  0  0
  144.6809   72.3906  217.2574 H   0  0  0  0  0  0  0  0  0  0  0  0
  1  2  2  0
  2  3  1  0
  3  4  1  0
  4  5  2  0
  5  6  1  0
  5  7  1  0
  7  8  2  0
  8  9  1  0
  9 10  2  0
 10 11  1  0
 11 12  2  0
 12 13  1  0
 12 14  1  0
 14 15  2  0
 15 16  1  0
 16 17  2  0
  2 18  1  0
 18 19  1  0
 19 20  1  0
 20 21  1  0
 21 22  1  0
 22 23  1  0
 23 24  1  0
 24 25  2  0
 25 26  1  0
 26 27  2  0
 27 28  1  0
 27 29  1  0
 29 30  2  0
 17  7  1  0
 23 18  1  0
 30 24  1  0
 16 10  1  0
  3 31  1  0
  3 32  1  0
  6 33  1  0
  8 34  1  0
  9 35  1  0
 11 36  1  0
 14 37  1  0
 15 38  1  0
 19 39  1  0
 19 40  1  0
 20 41  1  0
 20 42  1  0
 21 43  1  0
 21 44  1  0
 22 45  1  0
 22 46  1  0
 23 47  1  6
 26 48  1  0
 29 49  1  0
M  CHG  1  28  -1
M  END
>  <meeko>  (13) 
{"free_energy": -6.88, "intermolecular_energy": -8.97, "internal_energy": -2.81, "cluster_size": 18, "cluster_id": 1, "rank_in_cluster": 18}

$$$$

     RDKit          3D

 49 52  0  0  0  0  0  0  0  0999 V2000
  141.0990   76.5270  222.6020 O   0  0  0  0  0  0  0  0  0  0  0  0
  140.8170   76.0420  221.4720 C   0  0  0  0  0  0  0  0  0  0  0  0
  139.7560   74.9710  221.3980 C   0  0  0  0  0  0  0  0  0  0  0  0
  140.1580   73.7850  222.1530 N   0  0  0  0  0  0  0  0  0  0  0  0
  139.7480   72.5670  221.9350 C   0  0  0  0  0  0  0  0  0  0  0  0
  139.2230   72.1800  220.6970 O   0  0  0  0  0  0  0  0  0  0  0  0
  139.8410   71.5730  223.0210 C   0  0  0  0  0  0  0  0  0  0  0  0
  139.4220   70.2470  222.8240 C   0  0  0  0  0  0  0  0  0  0  0  0
  139.5220   69.3270  223.8710 C   0  0  0  0  0  0  0  0  0  0  0  0
  140.0380   69.7310  225.1070 C   0  0  0  0  0  0  0  0  0  0  0  0
  140.1520   68.8320  226.1790 C   0  0  0  0  0  0  0  0  0  0  0  0
  140.6720   69.2670  227.4040 C   0  0  0  0  0  0  0  0  0  0  0  0
  140.8140   68.1440  228.7430 Cl  0  0  0  0  0  0  0  0  0  0  0  0
  141.0790   70.5980  227.5610 C   0  0  0  0  0  0  0  0  0  0  0  0
  140.9670   71.4980  226.4980 C   0  0  0  0  0  0  0  0  0  0  0  0
  140.4490   71.0720  225.2700 C   0  0  0  0  0  0  0  0  0  0  0  0
  140.3400   71.9450  224.2330 N   0  0  0  0  0  0  0  0  0  0  0  0
  141.4710   76.5600  220.2880 N   0  0  0  0  0  0  0  0  0  0  0  0
  142.1690   77.8580  220.3710 C   0  0  0  0  0  0  0  0  0  0  0  0
  142.0170   78.6580  219.0760 C   0  0  0  0  0  0  0  0  0  0  0  0
  142.4220   77.8170  217.8680 C   0  0  0  0  0  0  0  0  0  0  0  0
  141.5560   76.5590  217.7890 C   0  0  0  0  0  0  0  0  0  0  0  0
  141.6240   75.7190  219.0800 C   0  0  1  0  0  0  0  0  0  0  0  0
  142.8890   74.8980  219.1350 C   0  0  0  0  0  0  0  0  0  0  0  0
  143.3900   74.3090  218.0140 N   0  0  0  0  0  0  0  0  0  0  0  0
  144.5190   73.5570  218.0610 C   0  0  0  0  0  0  0  0  0  0  0  0
  145.1790   73.3720  219.2740 C   0  0  0  0  0  0  0  0  0  0  0  0
  146.3380   72.6080  219.3430 O   0  0  0  0  0  0  0  0  0  0  0  0
  144.6510   73.9690  220.4170 C   0  0  0  0  0  0  0  0  0  0  0  0
  143.5180   74.7140  220.3280 N   0  0  0  0  0  0  0  0  0  0  0  0
  138.8179   75.3638  221.8171 H   0  0  0  0  0  0  0  0  0  0  0  0
  139.6168   74.6865  220.3446 H   0  0  0  0  0  0  0  0  0  0  0  0
  139.6880   71.5370  220.0700 H   0  0  0  0  0  0  0  0  0  0  0  0
  139.0171   69.9342  221.8502 H   0  0  0  0  0  0  0  0  0  0  0  0
  139.1956   68.2869  223.7236 H   0  0  0  0  0  0  0  0  0  0  0  0
  139.8330   67.7864  226.0567 H   0  0  0  0  0  0  0  0  0  0  0  0
  141.4882   70.9360  228.5245 H   0  0  0  0  0  0  0  0  0  0  0  0
  141.2864   72.5427  226.6267 H   0  0  0  0  0  0  0  0  0  0  0  0
  141.7450   78.4397  221.2028 H   0  0  0  0  0  0  0  0  0  0  0  0
  143.2395   77.6652  220.5349 H   0  0  0  0  0  0  0  0  0  0  0  0
  140.9673   78.9673  218.9644 H   0  0  0  0  0  0  0  0  0  0  0  0
  142.6728   79.5396  219.1274 H   0  0  0  0  0  0  0  0  0  0  0  0
  142.2876   78.4093  216.9509 H   0  0  0  0  0  0  0  0  0  0  0  0
  143.4766   77.5220  217.9721 H   0  0  0  0  0  0  0  0  0  0  0  0
  140.5117   76.8588  217.6168 H   0  0  0  0  0  0  0  0  0  0  0  0
  141.9377   75.9393  216.9642 H   0  0  0  0  0  0  0  0  0  0  0  0
  140.7751   75.0197  219.0611 H   0  0  0  0  0  0  0  0  0  0  0  0
  144.9120   73.0947  217.1435 H   0  0  0  0  0  0  0  0  0  0  0  0
  145.1499   73.8376  221.3885 H   0  0  0  0  0  0  0  0  0  0  0  0
  1  2  2  0
  2  3  1  0
  3  4  1  0
  4  5  2  0
  5  6  1  0
  5  7  1  0
  7  8  2  0
  8  9  1  0
  9 10  2  0
 10 11  1  0
 11 12  2  0
 12 13  1  0
 12 14  1  0
 14 15  2  0
 15 16  1  0
 16 17  2  0
  2 18  1  0
 18 19  1  0
 19 20  1  0
 20 21  1  0
 21 22  1  0
 22 23  1  0
 23 24  1  0
 24 25  2  0
 25 26  1  0
 26 27  2  0
 27 28  1  0
 27 29  1  0
 29 30  2  0
 17  7  1  0
 23 18  1  0
 30 24  1  0
 16 10  1  0
  3 31  1  0
  3 32  1  0
  6 33  1  0
  8 34  1  0
  9 35  1  0
 11 36  1  0
 14 37  1  0
 15 38  1  0
 19 39  1  0
 19 40  1  0
 20 41  1  0
 20 42  1  0
 21 43  1  0
 21 44  1  0
 22 45  1  0
 22 46  1  0
 23 47  1  6
 26 48  1  0
 29 49  1  0
M  CHG  1  28  -1
M  END
>  <meeko>  (14) 
{"free_energy": -8.25, "intermolecular_energy": -10.33, "internal_energy": -1.14, "cluster_size": 18, "cluster_id": 1, "rank_in_cluster": 1}

$$$$

     RDKit          3D

 49 52  0  0  0  0  0  0  0  0999 V2000
  139.5310   74.0700  218.9320 O   0  0  0  0  0  0  0  0  0  0  0  0
  139.8480   74.9690  219.7570 C   0  0  0  0  0  0  0  0  0  0  0  0
  139.2000   74.9500  221.1210 C   0  0  0  0  0  0  0  0  0  0  0  0
  139.9900   74.1610  222.0650 N   0  0  0  0  0  0  0  0  0  0  0  0
  140.4210   72.9460  221.8700 C   0  0  0  0  0  0  0  0  0  0  0  0
  141.0100   72.5610  220.6600 O   0  0  0  0  0  0  0  0  0  0  0  0
  140.2840   71.9540  222.9530 C   0  0  0  0  0  0  0  0  0  0  0  0
  139.7000   70.7000  222.7150 C   0  0  0  0  0  0  0  0  0  0  0  0
  139.5830   69.7810  223.7590 C   0  0  0  0  0  0  0  0  0  0  0  0
  140.0490   70.1130  225.0370 C   0  0  0  0  0  0  0  0  0  0  0  0
  139.9470   69.2130  226.1080 C   0  0  0  0  0  0  0  0  0  0  0  0
  140.4220   69.5760  227.3740 C   0  0  0  0  0  0  0  0  0  0  0  0
  140.2940   68.4510  228.7130 Cl  0  0  0  0  0  0  0  0  0  0  0  0
  140.9980   70.8370  227.5730 C   0  0  0  0  0  0  0  0  0  0  0  0
  141.1020   71.7380  226.5090 C   0  0  0  0  0  0  0  0  0  0  0  0
  140.6300   71.3840  225.2410 C   0  0  0  0  0  0  0  0  0  0  0  0
  140.7300   72.2590  224.2040 N   0  0  0  0  0  0  0  0  0  0  0  0
  140.8540   75.9480  219.3990 N   0  0  0  0  0  0  0  0  0  0  0  0
  141.2340   76.9730  220.3900 C   0  0  0  0  0  0  0  0  0  0  0  0
  141.5250   78.3170  219.7210 C   0  0  0  0  0  0  0  0  0  0  0  0
  142.5360   78.1510  218.5880 C   0  0  0  0  0  0  0  0  0  0  0  0
  141.9980   77.1720  217.5440 C   0  0  0  0  0  0  0  0  0  0  0  0
  141.6400   75.8030  218.1530 C   0  0  1  0  0  0  0  0  0  0  0  0
  142.8730   74.9610  218.3740 C   0  0  0  0  0  0  0  0  0  0  0  0
  143.7290   74.6940  217.3490 N   0  0  0  0  0  0  0  0  0  0  0  0
  144.8320   73.9240  217.5380 C   0  0  0  0  0  0  0  0  0  0  0  0
  145.0940   73.3850  218.7960 C   0  0  0  0  0  0  0  0  0  0  0  0
  146.2180   72.5970  219.0100 O   0  0  0  0  0  0  0  0  0  0  0  0
  144.2040   73.6540  219.8330 C   0  0  0  0  0  0  0  0  0  0  0  0
  143.1120   74.4290  219.6040 N   0  0  0  0  0  0  0  0  0  0  0  0
  139.1177   75.9813  221.4946 H   0  0  0  0  0  0  0  0  0  0  0  0
  138.2037   74.4928  221.0295 H   0  0  0  0  0  0  0  0  0  0  0  0
  141.2890   73.2160  219.9430 H   0  0  0  0  0  0  0  0  0  0  0  0
  139.3359   70.4425  221.7095 H   0  0  0  0  0  0  0  0  0  0  0  0
  139.1253   68.7972  223.5780 H   0  0  0  0  0  0  0  0  0  0  0  0
  139.4941   68.2226  225.9533 H   0  0  0  0  0  0  0  0  0  0  0  0
  141.3696   71.1193  228.5691 H   0  0  0  0  0  0  0  0  0  0  0  0
  141.5559   72.7271  226.6695 H   0  0  0  0  0  0  0  0  0  0  0  0
  140.4090   77.1012  221.1062 H   0  0  0  0  0  0  0  0  0  0  0  0
  142.1477   76.6368  220.9020 H   0  0  0  0  0  0  0  0  0  0  0  0
  140.5894   78.7266  219.3124 H   0  0  0  0  0  0  0  0  0  0  0  0
  141.9464   79.0011  220.4723 H   0  0  0  0  0  0  0  0  0  0  0  0
  142.7145   79.1272  218.1136 H   0  0  0  0  0  0  0  0  0  0  0  0
  143.4772   77.7576  218.9996 H   0  0  0  0  0  0  0  0  0  0  0  0
  141.0946   77.6030  217.0879 H   0  0  0  0  0  0  0  0  0  0  0  0
  142.7887   77.0104  216.7965 H   0  0  0  0  0  0  0  0  0  0  0  0
  141.0041   75.2770  217.4257 H   0  0  0  0  0  0  0  0  0  0  0  0
  145.5167   73.7264  216.7000 H   0  0  0  0  0  0  0  0  0  0  0  0
  144.3850   73.2396  220.8357 H   0  0  0  0  0  0  0  0  0  0  0  0
  1  2  2  0
  2  3  1  0
  3  4  1  0
  4  5  2  0
  5  6  1  0
  5  7  1  0
  7  8  2  0
  8  9  1  0
  9 10  2  0
 10 11  1  0
 11 12  2  0
 12 13  1  0
 12 14  1  0
 14 15  2  0
 15 16  1  0
 16 17  2  0
  2 18  1  0
 18 19  1  0
 19 20  1  0
 20 21  1  0
 21 22  1  0
 22 23  1  0
 23 24  1  0
 24 25  2  0
 25 26  1  0
 26 27  2  0
 27 28  1  0
 27 29  1  0
 29 30  2  0
 17  7  1  0
 23 18  1  0
 30 24  1  0
 16 10  1  0
  3 31  1  0
  3 32  1  0
  6 33  1  0
  8 34  1  0
  9 35  1  0
 11 36  1  0
 14 37  1  0
 15 38  1  0
 19 39  1  0
 19 40  1  0
 20 41  1  0
 20 42  1  0
 21 43  1  0
 21 44  1  0
 22 45  1  0
 22 46  1  0
 23 47  1  6
 26 48  1  0
 29 49  1  0
M  CHG  1  28  -1
M  END
>  <meeko>  (15) 
{"free_energy": -7.34, "intermolecular_energy": -9.43, "internal_energy": -2.46, "cluster_size": 18, "cluster_id": 1, "rank_in_cluster": 13}

$$$$

     RDKit          3D

 49 52  0  0  0  0  0  0  0  0999 V2000
  143.8710   72.3860  220.9420 O   0  0  0  0  0  0  0  0  0  0  0  0
  142.9600   72.8590  220.2070 C   0  0  0  0  0  0  0  0  0  0  0  0
  141.6030   72.1980  220.2380 C   0  0  0  0  0  0  0  0  0  0  0  0
  140.5380   73.1960  220.3290 N   0  0  0  0  0  0  0  0  0  0  0  0
  140.2600   73.9210  221.3770 C   0  0  0  0  0  0  0  0  0  0  0  0
  139.8480   73.3420  222.5820 O   0  0  0  0  0  0  0  0  0  0  0  0
  140.3870   75.3880  221.2870 C   0  0  0  0  0  0  0  0  0  0  0  0
  140.0190   76.0740  220.1180 C   0  0  0  0  0  0  0  0  0  0  0  0
  140.1490   77.4630  220.0610 C   0  0  0  0  0  0  0  0  0  0  0  0
  140.6440   78.1640  221.1670 C   0  0  0  0  0  0  0  0  0  0  0  0
  140.7880   79.5590  221.1430 C   0  0  0  0  0  0  0  0  0  0  0  0
  141.2870   80.2300  222.2660 C   0  0  0  0  0  0  0  0  0  0  0  0
  141.4670   81.9750  222.2350 Cl  0  0  0  0  0  0  0  0  0  0  0  0
  141.6440   79.5110  223.4130 C   0  0  0  0  0  0  0  0  0  0  0  0
  141.5040   78.1200  223.4430 C   0  0  0  0  0  0  0  0  0  0  0  0
  141.0060   77.4410  222.3250 C   0  0  0  0  0  0  0  0  0  0  0  0
  140.8680   76.0890  222.3520 N   0  0  0  0  0  0  0  0  0  0  0  0
  143.2230   74.0390  219.4100 N   0  0  0  0  0  0  0  0  0  0  0  0
  143.8250   75.2180  220.0620 C   0  0  0  0  0  0  0  0  0  0  0  0
  143.2650   76.5200  219.4870 C   0  0  0  0  0  0  0  0  0  0  0  0
  143.3790   76.5340  217.9650 C   0  0  0  0  0  0  0  0  0  0  0  0
  142.6150   75.3500  217.3700 C   0  0  0  0  0  0  0  0  0  0  0  0
  143.0950   74.0000  217.9360 C   0  0  1  0  0  0  0  0  0  0  0  0
  144.3810   73.5550  217.2820 C   0  0  0  0  0  0  0  0  0  0  0  0
  145.1580   74.4400  216.5970 N   0  0  0  0  0  0  0  0  0  0  0  0
  146.3080   74.0430  215.9940 C   0  0  0  0  0  0  0  0  0  0  0  0
  146.7030   72.7080  216.0630 C   0  0  0  0  0  0  0  0  0  0  0  0
  147.8770   72.2820  215.4540 O   0  0  0  0  0  0  0  0  0  0  0  0
  145.8930   71.8100  216.7560 C   0  0  0  0  0  0  0  0  0  0  0  0
  144.7490   72.2470  217.3460 N   0  0  0  0  0  0  0  0  0  0  0  0
  141.4678   71.6100  219.3183 H   0  0  0  0  0  0  0  0  0  0  0  0
  141.5500   71.5460  221.1224 H   0  0  0  0  0  0  0  0  0  0  0  0
  139.3090   73.8350  223.2810 H   0  0  0  0  0  0  0  0  0  0  0  0
  139.6301   75.5195  219.2512 H   0  0  0  0  0  0  0  0  0  0  0  0
  139.8628   78.0058  219.1481 H   0  0  0  0  0  0  0  0  0  0  0  0
  140.5090   80.1256  220.2424 H   0  0  0  0  0  0  0  0  0  0  0  0
  142.0358   80.0418  224.2932 H   0  0  0  0  0  0  0  0  0  0  0  0
  141.7856   77.5588  224.3462 H   0  0  0  0  0  0  0  0  0  0  0  0
  143.6086   75.1804  221.1398 H   0  0  0  0  0  0  0  0  0  0  0  0
  144.9098   75.1977  219.8809 H   0  0  0  0  0  0  0  0  0  0  0  0
  142.2062   76.6132  219.7701 H   0  0  0  0  0  0  0  0  0  0  0  0
  143.8453   77.3623  219.8916 H   0  0  0  0  0  0  0  0  0  0  0  0
  142.9556   77.4722  217.5770 H   0  0  0  0  0  0  0  0  0  0  0  0
  144.4393   76.4570  217.6826 H   0  0  0  0  0  0  0  0  0  0  0  0
  141.5454   75.4688  217.5978 H   0  0  0  0  0  0  0  0  0  0  0  0
  142.7966   75.3435  216.2851 H   0  0  0  0  0  0  0  0  0  0  0  0
  142.3245   73.2526  217.6959 H   0  0  0  0  0  0  0  0  0  0  0  0
  146.9267   74.7735  215.4521 H   0  0  0  0  0  0  0  0  0  0  0  0
  146.1789   70.7501  216.8253 H   0  0  0  0  0  0  0  0  0  0  0  0
  1  2  2  0
  2  3  1  0
  3  4  1  0
  4  5  2  0
  5  6  1  0
  5  7  1  0
  7  8  2  0
  8  9  1  0
  9 10  2  0
 10 11  1  0
 11 12  2  0
 12 13  1  0
 12 14  1  0
 14 15  2  0
 15 16  1  0
 16 17  2  0
  2 18  1  0
 18 19  1  0
 19 20  1  0
 20 21  1  0
 21 22  1  0
 22 23  1  0
 23 24  1  0
 24 25  2  0
 25 26  1  0
 26 27  2  0
 27 28  1  0
 27 29  1  0
 29 30  2  0
 17  7  1  0
 23 18  1  0
 30 24  1  0
 16 10  1  0
  3 31  1  0
  3 32  1  0
  6 33  1  0
  8 34  1  0
  9 35  1  0
 11 36  1  0
 14 37  1  0
 15 38  1  0
 19 39  1  0
 19 40  1  0
 20 41  1  0
 20 42  1  0
 21 43  1  0
 21 44  1  0
 22 45  1  0
 22 46  1  0
 23 47  1  1
 26 48  1  0
 29 49  1  0
M  CHG  1  28  -1
M  END
>  <meeko>  (16) 
{"free_energy": -6.37, "intermolecular_energy": -8.46, "internal_energy": -2.24, "cluster_size": 1, "cluster_id": 2, "rank_in_cluster": 1}

$$$$

     RDKit          3D

 49 52  0  0  0  0  0  0  0  0999 V2000
  139.3850   74.3590  219.0960 O   0  0  0  0  0  0  0  0  0  0  0  0
  139.9680   75.1670  219.8690 C   0  0  0  0  0  0  0  0  0  0  0  0
  139.5650   75.1810  221.3240 C   0  0  0  0  0  0  0  0  0  0  0  0
  140.3140   74.1800  222.0830 N   0  0  0  0  0  0  0  0  0  0  0  0
  140.3780   72.9070  221.8100 C   0  0  0  0  0  0  0  0  0  0  0  0
  140.5540   72.4450  220.5010 O   0  0  0  0  0  0  0  0  0  0  0  0
  140.2640   71.9310  222.9100 C   0  0  0  0  0  0  0  0  0  0  0  0
  139.6990   70.6630  222.6960 C   0  0  0  0  0  0  0  0  0  0  0  0
  139.6030   69.7600  223.7560 C   0  0  0  0  0  0  0  0  0  0  0  0
  140.0710   70.1210  225.0240 C   0  0  0  0  0  0  0  0  0  0  0  0
  139.9900   69.2360  226.1110 C   0  0  0  0  0  0  0  0  0  0  0  0
  140.4670   69.6280  227.3680 C   0  0  0  0  0  0  0  0  0  0  0  0
  140.3650   68.5220  228.7260 Cl  0  0  0  0  0  0  0  0  0  0  0  0
  141.0240   70.9000  227.5420 C   0  0  0  0  0  0  0  0  0  0  0  0
  141.1070   71.7860  226.4640 C   0  0  0  0  0  0  0  0  0  0  0  0
  140.6330   71.4030  225.2040 C   0  0  0  0  0  0  0  0  0  0  0  0
  140.7130   72.2620  224.1530 N   0  0  0  0  0  0  0  0  0  0  0  0
  141.0310   76.0070  219.3570 N   0  0  0  0  0  0  0  0  0  0  0  0
  141.5530   77.0920  220.2110 C   0  0  0  0  0  0  0  0  0  0  0  0
  141.9180   78.3260  219.3850 C   0  0  0  0  0  0  0  0  0  0  0  0
  142.8450   77.9510  218.2300 C   0  0  0  0  0  0  0  0  0  0  0  0
  142.1670   76.9200  217.3260 C   0  0  0  0  0  0  0  0  0  0  0  0
  141.7290   75.6610  218.0990 C   0  0  1  0  0  0  0  0  0  0  0  0
  142.8960   74.7380  218.3520 C   0  0  0  0  0  0  0  0  0  0  0  0
  143.9060   74.6240  217.4450 N   0  0  0  0  0  0  0  0  0  0  0  0
  144.9500   73.7830  217.6590 C   0  0  0  0  0  0  0  0  0  0  0  0
  144.9950   73.0140  218.8200 C   0  0  0  0  0  0  0  0  0  0  0  0
  146.0560   72.1500  219.0600 O   0  0  0  0  0  0  0  0  0  0  0  0
  143.9500   73.1300  219.7350 C   0  0  0  0  0  0  0  0  0  0  0  0
  142.9220   73.9820  219.4840 N   0  0  0  0  0  0  0  0  0  0  0  0
  139.7675   76.1772  221.7442 H   0  0  0  0  0  0  0  0  0  0  0  0
  138.4929   74.9451  221.3939 H   0  0  0  0  0  0  0  0  0  0  0  0
  140.9590   73.0030  219.7620 H   0  0  0  0  0  0  0  0  0  0  0  0
  139.3336   70.3827  221.6970 H   0  0  0  0  0  0  0  0  0  0  0  0
  139.1601   68.7661  223.5946 H   0  0  0  0  0  0  0  0  0  0  0  0
  139.5524   68.2359  225.9754 H   0  0  0  0  0  0  0  0  0  0  0  0
  141.3979   71.2038  228.5309 H   0  0  0  0  0  0  0  0  0  0  0  0
  141.5451   72.7849  226.6061 H   0  0  0  0  0  0  0  0  0  0  0  0
  140.7843   77.3689  220.9475 H   0  0  0  0  0  0  0  0  0  0  0  0
  142.4624   76.7302  220.7130 H   0  0  0  0  0  0  0  0  0  0  0  0
  140.9986   78.7730  218.9789 H   0  0  0  0  0  0  0  0  0  0  0  0
  142.4382   79.0445  220.0355 H   0  0  0  0  0  0  0  0  0  0  0  0
  143.0783   78.8518  217.6434 H   0  0  0  0  0  0  0  0  0  0  0  0
  143.7713   77.5194  218.6371 H   0  0  0  0  0  0  0  0  0  0  0  0
  141.2791   77.3806  216.8684 H   0  0  0  0  0  0  0  0  0  0  0  0
  142.8970   76.6095  216.5640 H   0  0  0  0  0  0  0  0  0  0  0  0
  141.0098   75.1216  217.4652 H   0  0  0  0  0  0  0  0  0  0  0  0
  145.7588   73.7088  216.9172 H   0  0  0  0  0  0  0  0  0  0  0  0
  143.9576   72.5328  220.6587 H   0  0  0  0  0  0  0  0  0  0  0  0
  1  2  2  0
  2  3  1  0
  3  4  1  0
  4  5  2  0
  5  6  1  0
  5  7  1  0
  7  8  2  0
  8  9  1  0
  9 10  2  0
 10 11  1  0
 11 12  2  0
 12 13  1  0
 12 14  1  0
 14 15  2  0
 15 16  1  0
 16 17  2  0
  2 18  1  0
 18 19  1  0
 19 20  1  0
 20 21  1  0
 21 22  1  0
 22 23  1  0
 23 24  1  0
 24 25  2  0
 25 26  1  0
 26 27  2  0
 27 28  1  0
 27 29  1  0
 29 30  2  0
 17  7  1  0
 23 18  1  0
 30 24  1  0
 16 10  1  0
  3 31  1  0
  3 32  1  0
  6 33  1  0
  8 34  1  0
  9 35  1  0
 11 36  1  0
 14 37  1  0
 15 38  1  0
 19 39  1  0
 19 40  1  0
 20 41  1  0
 20 42  1  0
 21 43  1  0
 21 44  1  0
 22 45  1  0
 22 46  1  0
 23 47  1  6
 26 48  1  0
 29 49  1  0
M  CHG  1  28  -1
M  END
>  <meeko>  (17) 
{"free_energy": -7.19, "intermolecular_energy": -9.28, "internal_energy": -2.51, "cluster_size": 18, "cluster_id": 1, "rank_in_cluster": 15}

$$$$

     RDKit          3D

 49 52  0  0  0  0  0  0  0  0999 V2000
  140.9840   75.4200  222.3190 O   0  0  0  0  0  0  0  0  0  0  0  0
  140.4980   75.5770  221.1660 C   0  0  0  0  0  0  0  0  0  0  0  0
  139.1110   75.0460  220.8970 C   0  0  0  0  0  0  0  0  0  0  0  0
  139.0940   73.5840  220.9350 N   0  0  0  0  0  0  0  0  0  0  0  0
  140.1030   72.8180  221.2420 C   0  0  0  0  0  0  0  0  0  0  0  0
  141.2910   72.8380  220.5030 O   0  0  0  0  0  0  0  0  0  0  0  0
  139.9870   71.9090  222.3980 C   0  0  0  0  0  0  0  0  0  0  0  0
  139.3090   70.6840  222.2880 C   0  0  0  0  0  0  0  0  0  0  0  0
  139.2150   69.8430  223.3990 C   0  0  0  0  0  0  0  0  0  0  0  0
  139.7970   70.2240  224.6140 C   0  0  0  0  0  0  0  0  0  0  0  0
  139.7200   69.4020  225.7490 C   0  0  0  0  0  0  0  0  0  0  0  0
  140.3130   69.8130  226.9500 C   0  0  0  0  0  0  0  0  0  0  0  0
  140.2170   68.7860  228.3680 Cl  0  0  0  0  0  0  0  0  0  0  0  0
  140.9810   71.0410  227.0190 C   0  0  0  0  0  0  0  0  0  0  0  0
  141.0600   71.8650  225.8920 C   0  0  0  0  0  0  0  0  0  0  0  0
  140.4710   71.4630  224.6880 C   0  0  0  0  0  0  0  0  0  0  0  0
  140.5460   72.2610  223.5900 N   0  0  0  0  0  0  0  0  0  0  0  0
  141.2520   76.3010  220.1630 N   0  0  0  0  0  0  0  0  0  0  0  0
  141.8990   77.5730  220.5410 C   0  0  0  0  0  0  0  0  0  0  0  0
  141.8550   78.5830  219.3940 C   0  0  0  0  0  0  0  0  0  0  0  0
  142.4060   77.9700  218.1090 C   0  0  0  0  0  0  0  0  0  0  0  0
  141.5910   76.7350  217.7250 C   0  0  0  0  0  0  0  0  0  0  0  0
  141.5530   75.6850  218.8520 C   0  0  1  0  0  0  0  0  0  0  0  0
  142.8300   74.8820  218.8980 C   0  0  0  0  0  0  0  0  0  0  0  0
  143.3170   74.2780  217.7790 N   0  0  0  0  0  0  0  0  0  0  0  0
  144.4580   73.5420  217.8190 C   0  0  0  0  0  0  0  0  0  0  0  0
  145.1430   73.3890  219.0220 C   0  0  0  0  0  0  0  0  0  0  0  0
  146.3130   72.6420  219.0830 O   0  0  0  0  0  0  0  0  0  0  0  0
  144.6290   74.0020  220.1630 C   0  0  0  0  0  0  0  0  0  0  0  0
  143.4840   74.7290  220.0820 N   0  0  0  0  0  0  0  0  0  0  0  0
  138.4224   75.4339  221.6621 H   0  0  0  0  0  0  0  0  0  0  0  0
  138.7977   75.3746  219.8951 H   0  0  0  0  0  0  0  0  0  0  0  0
  142.0330   73.5070  220.6580 H   0  0  0  0  0  0  0  0  0  0  0  0
  138.8541   70.3883  221.3311 H   0  0  0  0  0  0  0  0  0  0  0  0
  138.6845   68.8827  223.3196 H   0  0  0  0  0  0  0  0  0  0  0  0
  139.1950   68.4368  225.6957 H   0  0  0  0  0  0  0  0  0  0  0  0
  141.4458   71.3593  227.9638 H   0  0  0  0  0  0  0  0  0  0  0  0
  141.5854   72.8296  225.9519 H   0  0  0  0  0  0  0  0  0  0  0  0
  141.3755   77.9962  221.4110 H   0  0  0  0  0  0  0  0  0  0  0  0
  142.9525   77.3677  220.7816 H   0  0  0  0  0  0  0  0  0  0  0  0
  140.8131   78.8938  219.2272 H   0  0  0  0  0  0  0  0  0  0  0  0
  142.4752   79.4503  219.6645 H   0  0  0  0  0  0  0  0  0  0  0  0
  142.3477   78.7110  217.2982 H   0  0  0  0  0  0  0  0  0  0  0  0
  143.4531   77.6745  218.2711 H   0  0  0  0  0  0  0  0  0  0  0  0
  140.5611   77.0476  217.4980 H   0  0  0  0  0  0  0  0  0  0  0  0
  142.0728   76.2727  216.8509 H   0  0  0  0  0  0  0  0  0  0  0  0
  140.7321   74.9891  218.6242 H   0  0  0  0  0  0  0  0  0  0  0  0
  144.8402   73.0677  216.9030 H   0  0  0  0  0  0  0  0  0  0  0  0
  145.1489   73.8976  221.1267 H   0  0  0  0  0  0  0  0  0  0  0  0
  1  2  2  0
  2  3  1  0
  3  4  1  0
  4  5  2  0
  5  6  1  0
  5  7  1  0
  7  8  2  0
  8  9  1  0
  9 10  2  0
 10 11  1  0
 11 12  2  0
 12 13  1  0
 12 14  1  0
 14 15  2  0
 15 16  1  0
 16 17  2  0
  2 18  1  0
 18 19  1  0
 19 20  1  0
 20 21  1  0
 21 22  1  0
 22 23  1  0
 23 24  1  0
 24 25  2  0
 25 26  1  0
 26 27  2  0
 27 28  1  0
 27 29  1  0
 29 30  2  0
 17  7  1  0
 23 18  1  0
 30 24  1  0
 16 10  1  0
  3 31  1  0
  3 32  1  0
  6 33  1  0
  8 34  1  0
  9 35  1  0
 11 36  1  0
 14 37  1  0
 15 38  1  0
 19 39  1  0
 19 40  1  0
 20 41  1  0
 20 42  1  0
 21 43  1  0
 21 44  1  0
 22 45  1  0
 22 46  1  0
 23 47  1  6
 26 48  1  0
 29 49  1  0
M  CHG  1  28  -1
M  END
>  <meeko>  (18) 
{"free_energy": -7.48, "intermolecular_energy": -9.57, "internal_energy": -2.3, "cluster_size": 18, "cluster_id": 1, "rank_in_cluster": 9}

$$$$

     RDKit          3D

 49 52  0  0  0  0  0  0  0  0999 V2000
  139.5810   74.1310  222.3450 O   0  0  0  0  0  0  0  0  0  0  0  0
  139.9320   74.2250  221.1370 C   0  0  0  0  0  0  0  0  0  0  0  0
  139.4170   73.1950  220.1610 C   0  0  0  0  0  0  0  0  0  0  0  0
  139.7890   71.8440  220.5810 N   0  0  0  0  0  0  0  0  0  0  0  0
  139.0860   71.0670  221.3570 C   0  0  0  0  0  0  0  0  0  0  0  0
  137.8690   70.5180  220.9390 O   0  0  0  0  0  0  0  0  0  0  0  0
  139.5890   70.7600  222.7090 C   0  0  0  0  0  0  0  0  0  0  0  0
  140.4560   71.6410  223.3750 C   0  0  0  0  0  0  0  0  0  0  0  0
  140.9170   71.3240  224.6550 C   0  0  0  0  0  0  0  0  0  0  0  0
  140.5120   70.1320  225.2660 C   0  0  0  0  0  0  0  0  0  0  0  0
  140.9570   69.7840  226.5510 C   0  0  0  0  0  0  0  0  0  0  0  0
  140.5340   68.5830  227.1350 C   0  0  0  0  0  0  0  0  0  0  0  0
  141.0900   68.1480  228.7410 Cl  0  0  0  0  0  0  0  0  0  0  0  0
  139.6690   67.7300  226.4390 C   0  0  0  0  0  0  0  0  0  0  0  0
  139.2240   68.0710  225.1590 C   0  0  0  0  0  0  0  0  0  0  0  0
  139.6410   69.2690  224.5670 C   0  0  0  0  0  0  0  0  0  0  0  0
  139.2080   69.6040  223.3220 N   0  0  0  0  0  0  0  0  0  0  0  0
  140.7610   75.3360  220.7170 N   0  0  0  0  0  0  0  0  0  0  0  0
  141.1930   76.3220  221.7260 C   0  0  0  0  0  0  0  0  0  0  0  0
  141.2330   77.7360  221.1440 C   0  0  0  0  0  0  0  0  0  0  0  0
  142.0560   77.7700  219.8580 C   0  0  0  0  0  0  0  0  0  0  0  0
  141.4550   76.8150  218.8250 C   0  0  0  0  0  0  0  0  0  0  0  0
  141.3420   75.3730  219.3560 C   0  0  1  0  0  0  0  0  0  0  0  0
  142.6730   74.6630  219.3050 C   0  0  0  0  0  0  0  0  0  0  0  0
  143.2660   74.3770  218.1130 N   0  0  0  0  0  0  0  0  0  0  0  0
  144.4560   73.7240  218.0600 C   0  0  0  0  0  0  0  0  0  0  0  0
  145.0830   73.3290  219.2400 C   0  0  0  0  0  0  0  0  0  0  0  0
  146.3020   72.6620  219.2080 O   0  0  0  0  0  0  0  0  0  0  0  0
  144.4600   73.6160  220.4530 C   0  0  0  0  0  0  0  0  0  0  0  0
  143.2700   74.2700  220.4630 N   0  0  0  0  0  0  0  0  0  0  0  0
  138.3206   73.2662  220.1077 H   0  0  0  0  0  0  0  0  0  0  0  0
  139.8638   73.3915  219.1752 H   0  0  0  0  0  0  0  0  0  0  0  0
  137.3760   69.7990  221.4510 H   0  0  0  0  0  0  0  0  0  0  0  0
  140.7710   72.5771  222.8908 H   0  0  0  0  0  0  0  0  0  0  0  0
  141.5969   72.0099  225.1815 H   0  0  0  0  0  0  0  0  0  0  0  0
  141.6368   70.4533  227.0986 H   0  0  0  0  0  0  0  0  0  0  0  0
  139.3386   66.7882  226.9013 H   0  0  0  0  0  0  0  0  0  0  0  0
  138.5451   67.3971  224.6159 H   0  0  0  0  0  0  0  0  0  0  0  0
  140.4880   76.3024  222.5702 H   0  0  0  0  0  0  0  0  0  0  0  0
  142.2073   76.0557  222.0579 H   0  0  0  0  0  0  0  0  0  0  0  0
  140.2065   78.0646  220.9241 H   0  0  0  0  0  0  0  0  0  0  0  0
  141.7005   78.4070  221.8797 H   0  0  0  0  0  0  0  0  0  0  0  0
  142.0552   78.7924  219.4523 H   0  0  0  0  0  0  0  0  0  0  0  0
  143.0867   77.4572  220.0813 H   0  0  0  0  0  0  0  0  0  0  0  0
  140.4501   77.1723  218.5558 H   0  0  0  0  0  0  0  0  0  0  0  0
  142.1240   76.8001  217.9520 H   0  0  0  0  0  0  0  0  0  0  0  0
  140.6514   74.8324  218.6920 H   0  0  0  0  0  0  0  0  0  0  0  0
  144.9234   73.5076  217.0880 H   0  0  0  0  0  0  0  0  0  0  0  0
  144.9310   73.3136  221.3999 H   0  0  0  0  0  0  0  0  0  0  0  0
  1  2  2  0
  2  3  1  0
  3  4  1  0
  4  5  2  0
  5  6  1  0
  5  7  1  0
  7  8  2  0
  8  9  1  0
  9 10  2  0
 10 11  1  0
 11 12  2  0
 12 13  1  0
 12 14  1  0
 14 15  2  0
 15 16  1  0
 16 17  2  0
  2 18  1  0
 18 19  1  0
 19 20  1  0
 20 21  1  0
 21 22  1  0
 22 23  1  0
 23 24  1  0
 24 25  2  0
 25 26  1  0
 26 27  2  0
 27 28  1  0
 27 29  1  0
 29 30  2  0
 17  7  1  0
 23 18  1  0
 30 24  1  0
 16 10  1  0
  3 31  1  0
  3 32  1  0
  6 33  1  0
  8 34  1  0
  9 35  1  0
 11 36  1  0
 14 37  1  0
 15 38  1  0
 19 39  1  0
 19 40  1  0
 20 41  1  0
 20 42  1  0
 21 43  1  0
 21 44  1  0
 22 45  1  0
 22 46  1  0
 23 47  1  6
 26 48  1  0
 29 49  1  0
M  CHG  1  28  -1
M  END
>  <meeko>  (19) 
{"free_energy": -7.57, "intermolecular_energy": -9.65, "internal_energy": -1.57, "cluster_size": 18, "cluster_id": 1, "rank_in_cluster": 8}

$$$$

     RDKit          3D

 49 52  0  0  0  0  0  0  0  0999 V2000
  139.8950   74.3860  222.3320 O   0  0  0  0  0  0  0  0  0  0  0  0
  140.0350   74.4510  221.0810 C   0  0  0  0  0  0  0  0  0  0  0  0
  139.2870   73.4570  220.2250 C   0  0  0  0  0  0  0  0  0  0  0  0
  139.4370   72.1000  220.7490 N   0  0  0  0  0  0  0  0  0  0  0  0
  138.6830   71.5460  221.6570 C   0  0  0  0  0  0  0  0  0  0  0  0
  137.3200   71.3150  221.4390 O   0  0  0  0  0  0  0  0  0  0  0  0
  139.2840   71.1520  222.9460 C   0  0  0  0  0  0  0  0  0  0  0  0
  140.2920   71.9290  223.5400 C   0  0  0  0  0  0  0  0  0  0  0  0
  140.8430   71.5320  224.7600 C   0  0  0  0  0  0  0  0  0  0  0  0
  140.3880   70.3640  225.3840 C   0  0  0  0  0  0  0  0  0  0  0  0
  140.9200   69.9380  226.6100 C   0  0  0  0  0  0  0  0  0  0  0  0
  140.4440   68.7650  227.2090 C   0  0  0  0  0  0  0  0  0  0  0  0
  141.1100   68.2320  228.7410 Cl  0  0  0  0  0  0  0  0  0  0  0  0
  139.4380   68.0170  226.5850 C   0  0  0  0  0  0  0  0  0  0  0  0
  138.9040   68.4370  225.3630 C   0  0  0  0  0  0  0  0  0  0  0  0
  139.3740   69.6080  224.7580 C   0  0  0  0  0  0  0  0  0  0  0  0
  138.8560   70.0190  223.5700 N   0  0  0  0  0  0  0  0  0  0  0  0
  140.8530   75.4990  220.5040 N   0  0  0  0  0  0  0  0  0  0  0  0
  141.3350   76.5860  221.3790 C   0  0  0  0  0  0  0  0  0  0  0  0
  141.3610   77.9250  220.6410 C   0  0  0  0  0  0  0  0  0  0  0  0
  142.1280   77.8060  219.3260 C   0  0  0  0  0  0  0  0  0  0  0  0
  141.4780   76.7490  218.4320 C   0  0  0  0  0  0  0  0  0  0  0  0
  141.3770   75.3770  219.1260 C   0  0  1  0  0  0  0  0  0  0  0  0
  142.6990   74.6500  219.0990 C   0  0  0  0  0  0  0  0  0  0  0  0
  143.3030   74.3400  217.9180 N   0  0  0  0  0  0  0  0  0  0  0  0
  144.4850   73.6720  217.8880 C   0  0  0  0  0  0  0  0  0  0  0  0
  145.0930   73.2850  219.0800 C   0  0  0  0  0  0  0  0  0  0  0  0
  146.3040   72.6030  219.0710 O   0  0  0  0  0  0  0  0  0  0  0  0
  144.4600   73.5960  220.2820 C   0  0  0  0  0  0  0  0  0  0  0  0
  143.2780   74.2660  220.2700 N   0  0  0  0  0  0  0  0  0  0  0  0
  138.2197   73.7228  220.2138 H   0  0  0  0  0  0  0  0  0  0  0  0
  139.7015   73.4883  219.2066 H   0  0  0  0  0  0  0  0  0  0  0  0
  136.7790   70.6360  221.9570 H   0  0  0  0  0  0  0  0  0  0  0  0
  140.6458   72.8461  223.0463 H   0  0  0  0  0  0  0  0  0  0  0  0
  141.6332   72.1358  225.2301 H   0  0  0  0  0  0  0  0  0  0  0  0
  141.7105   70.5249  227.1006 H   0  0  0  0  0  0  0  0  0  0  0  0
  139.0666   67.0959  227.0579 H   0  0  0  0  0  0  0  0  0  0  0  0
  138.1137   67.8463  224.8767 H   0  0  0  0  0  0  0  0  0  0  0  0
  140.6661   76.6692  222.2483 H   0  0  0  0  0  0  0  0  0  0  0  0
  142.3601   76.3458  221.6975 H   0  0  0  0  0  0  0  0  0  0  0  0
  140.3285   78.2397  220.4288 H   0  0  0  0  0  0  0  0  0  0  0  0
  141.8653   78.6676  221.2767 H   0  0  0  0  0  0  0  0  0  0  0  0
  142.1164   78.7768  218.8089 H   0  0  0  0  0  0  0  0  0  0  0  0
  143.1651   77.5081  219.5399 H   0  0  0  0  0  0  0  0  0  0  0  0
  140.4654   77.0857  218.1652 H   0  0  0  0  0  0  0  0  0  0  0  0
  142.1099   76.6287  217.5397 H   0  0  0  0  0  0  0  0  0  0  0  0
  140.6549   74.7733  218.5566 H   0  0  0  0  0  0  0  0  0  0  0  0
  144.9612   73.4371  216.9246 H   0  0  0  0  0  0  0  0  0  0  0  0
  144.9162   73.2998  221.2381 H   0  0  0  0  0  0  0  0  0  0  0  0
  1  2  2  0
  2  3  1  0
  3  4  1  0
  4  5  2  0
  5  6  1  0
  5  7  1  0
  7  8  2  0
  8  9  1  0
  9 10  2  0
 10 11  1  0
 11 12  2  0
 12 13  1  0
 12 14  1  0
 14 15  2  0
 15 16  1  0
 16 17  2  0
  2 18  1  0
 18 19  1  0
 19 20  1  0
 20 21  1  0
 21 22  1  0
 22 23  1  0
 23 24  1  0
 24 25  2  0
 25 26  1  0
 26 27  2  0
 27 28  1  0
 27 29  1  0
 29 30  2  0
 17  7  1  0
 23 18  1  0
 30 24  1  0
 16 10  1  0
  3 31  1  0
  3 32  1  0
  6 33  1  0
  8 34  1  0
  9 35  1  0
 11 36  1  0
 14 37  1  0
 15 38  1  0
 19 39  1  0
 19 40  1  0
 20 41  1  0
 20 42  1  0
 21 43  1  0
 21 44  1  0
 22 45  1  0
 22 46  1  0
 23 47  1  6
 26 48  1  0
 29 49  1  0
M  CHG  1  28  -1
M  END
>  <meeko>  (20) 
{"free_energy": -7.61, "intermolecular_energy": -9.7, "internal_energy": -1.44, "cluster_size": 18, "cluster_id": 1, "rank_in_cluster": 7}

$$$$
