
     RDKit          3D

 51 54  0  0  0  0  0  0  0  0999 V2000
  140.3040   71.5760  221.2560 O   0  0  0  0  0  0  0  0  0  0  0  0
  139.9410   72.1090  222.3410 C   0  0  0  0  0  0  0  0  0  0  0  0
  139.5170   73.4830  222.3570 N   0  0  0  0  0  0  0  0  0  0  0  0
  139.2640   74.2460  221.1690 C   0  0  0  0  0  0  0  0  0  0  0  0
  140.0430   74.1690  220.0810 C   0  0  0  0  0  0  0  0  0  0  0  0
  139.8770   73.1180  219.1790 O   0  0  0  0  0  0  0  0  0  0  0  0
  141.0190   75.1950  219.8220 N   0  0  0  0  0  0  0  0  0  0  0  0
  140.8450   76.5160  220.4540 C   0  0  0  0  0  0  0  0  0  0  0  0
  141.2820   77.6460  219.5240 C   0  0  0  0  0  0  0  0  0  0  0  0
  142.6790   77.3860  218.9690 C   0  0  0  0  0  0  0  0  0  0  0  0
  142.7000   76.0810  218.1750 C   0  0  0  0  0  0  0  0  0  0  0  0
  142.1930   74.8660  218.9850 C   0  0  1  0  0  0  0  0  0  0  0  0
  143.3110   74.2040  219.7780 C   0  0  0  0  0  0  0  0  0  0  0  0
  143.1850   72.8480  220.1430 C   0  0  0  0  0  0  0  0  0  0  0  0
  144.1980   72.2060  220.8610 C   0  0  0  0  0  0  0  0  0  0  0  0
  145.3540   72.9030  221.2160 C   0  0  0  0  0  0  0  0  0  0  0  0
  145.5000   74.2420  220.8490 C   0  0  0  0  0  0  0  0  0  0  0  0
  144.4900   74.8890  220.1300 C   0  0  0  0  0  0  0  0  0  0  0  0
  139.9830   71.3260  223.5950 C   0  0  0  0  0  0  0  0  0  0  0  0
  139.5400   69.9930  223.6320 C   0  0  0  0  0  0  0  0  0  0  0  0
  139.5880   69.2810  224.8330 C   0  0  0  0  0  0  0  0  0  0  0  0
  140.0730   69.8980  225.9910 C   0  0  0  0  0  0  0  0  0  0  0  0
  140.1350   69.2120  227.2130 C   0  0  0  0  0  0  0  0  0  0  0  0
  140.6250   69.8580  228.3530 C   0  0  0  0  0  0  0  0  0  0  0  0
  141.0560   71.1870  228.2770 C   0  0  0  0  0  0  0  0  0  0  0  0
  140.9990   71.8770  227.0620 C   0  0  0  0  0  0  0  0  0  0  0  0
  140.5090   71.2390  225.9180 C   0  0  0  0  0  0  0  0  0  0  0  0
  140.4510   71.9070  224.7340 N   0  0  0  0  0  0  0  0  0  0  0  0
  139.5690   74.0110  223.2560 H   0  0  0  0  0  0  0  0  0  0  0  0
  138.3959   74.9214  221.1501 H   0  0  0  0  0  0  0  0  0  0  0  0
  139.8140   72.1560  219.4880 H   0  0  0  0  0  0  0  0  0  0  0  0
  139.7836   76.6531  220.7082 H   0  0  0  0  0  0  0  0  0  0  0  0
  141.4727   76.5510  221.3566 H   0  0  0  0  0  0  0  0  0  0  0  0
  140.5706   77.7198  218.6883 H   0  0  0  0  0  0  0  0  0  0  0  0
  141.3010   78.5848  220.0970 H   0  0  0  0  0  0  0  0  0  0  0  0
  142.9676   78.2171  218.3087 H   0  0  0  0  0  0  0  0  0  0  0  0
  143.3876   77.3065  219.8066 H   0  0  0  0  0  0  0  0  0  0  0  0
  142.0604   76.2012  217.2882 H   0  0  0  0  0  0  0  0  0  0  0  0
  143.7473   75.8796  217.9055 H   0  0  0  0  0  0  0  0  0  0  0  0
  141.8443   74.1214  218.2543 H   0  0  0  0  0  0  0  0  0  0  0  0
  142.2805   72.2897  219.8599 H   0  0  0  0  0  0  0  0  0  0  0  0
  144.0840   71.1499  221.1467 H   0  0  0  0  0  0  0  0  0  0  0  0
  146.1490   72.3979  221.7842 H   0  0  0  0  0  0  0  0  0  0  0  0
  146.4126   74.7900  221.1263 H   0  0  0  0  0  0  0  0  0  0  0  0
  144.6175   75.9416  219.8370 H   0  0  0  0  0  0  0  0  0  0  0  0
  139.1572   69.5124  222.7196 H   0  0  0  0  0  0  0  0  0  0  0  0
  139.2448   68.2365  224.8680 H   0  0  0  0  0  0  0  0  0  0  0  0
  139.7985   68.1666  227.2748 H   0  0  0  0  0  0  0  0  0  0  0  0
  140.6716   69.3199  229.3113 H   0  0  0  0  0  0  0  0  0  0  0  0
  141.4409   71.6907  229.1759 H   0  0  0  0  0  0  0  0  0  0  0  0
  141.3395   72.9215  227.0061 H   0  0  0  0  0  0  0  0  0  0  0  0
  1  2  2  0
  2  3  1  0
  3  4  1  0
  4  5  2  0
  5  6  1  0
  5  7  1  0
  7  8  1  0
  8  9  1  0
  9 10  1  0
 10 11  1  0
 11 12  1  0
 12 13  1  0
 13 14  2  0
 14 15  1  0
 15 16  2  0
 16 17  1  0
 17 18  2  0
  2 19  1  0
 19 20  2  0
 20 21  1  0
 21 22  2  0
 22 23  1  0
 23 24  2  0
 24 25  1  0
 25 26  2  0
 26 27  1  0
 27 28  2  0
 12  7  1  0
 18 13  1  0
 28 19  1  0
 27 22  1  0
  3 29  1  0
  4 30  1  0
  6 31  1  0
  8 32  1  0
  8 33  1  0
  9 34  1  0
  9 35  1  0
 10 36  1  0
 10 37  1  0
 11 38  1  0
 11 39  1  0
 12 40  1  6
 14 41  1  0
 15 42  1  0
 16 43  1  0
 17 44  1  0
 18 45  1  0
 20 46  1  0
 21 47  1  0
 23 48  1  0
 24 49  1  0
 25 50  1  0
 26 51  1  0
M  END
>  <meeko>  (1) 
{"free_energy": -7.79, "intermolecular_energy": -9.58, "internal_energy": -2.26, "cluster_size": 14, "cluster_id": 2, "rank_in_cluster": 14}

$$$$

     RDKit          3D

 51 54  0  0  0  0  0  0  0  0999 V2000
  138.3140   72.3060  222.6430 O   0  0  0  0  0  0  0  0  0  0  0  0
  139.4030   71.6850  222.7920 C   0  0  0  0  0  0  0  0  0  0  0  0
  140.4830   71.9030  221.8670 N   0  0  0  0  0  0  0  0  0  0  0  0
  140.4900   72.9560  220.8940 C   0  0  0  0  0  0  0  0  0  0  0  0
  140.5540   74.2510  221.2320 C   0  0  0  0  0  0  0  0  0  0  0  0
  139.8370   74.7200  222.3320 O   0  0  0  0  0  0  0  0  0  0  0  0
  141.3980   75.1470  220.4850 N   0  0  0  0  0  0  0  0  0  0  0  0
  141.4820   76.5580  220.9040 C   0  0  0  0  0  0  0  0  0  0  0  0
  141.5900   77.4970  219.7040 C   0  0  0  0  0  0  0  0  0  0  0  0
  142.7000   77.0480  218.7590 C   0  0  0  0  0  0  0  0  0  0  0  0
  142.4160   75.6380  218.2390 C   0  0  0  0  0  0  0  0  0  0  0  0
  142.2000   74.6050  219.3670 C   0  0  1  0  0  0  0  0  0  0  0  0
  143.5110   73.9860  219.8320 C   0  0  0  0  0  0  0  0  0  0  0  0
  143.7280   72.6070  219.6340 C   0  0  0  0  0  0  0  0  0  0  0  0
  144.9250   72.0090  220.0380 C   0  0  0  0  0  0  0  0  0  0  0  0
  145.9250   72.7780  220.6360 C   0  0  0  0  0  0  0  0  0  0  0  0
  145.7300   74.1470  220.8260 C   0  0  0  0  0  0  0  0  0  0  0  0
  144.5350   74.7500  220.4220 C   0  0  0  0  0  0  0  0  0  0  0  0
  139.5510   70.7160  223.8990 C   0  0  0  0  0  0  0  0  0  0  0  0
  139.0550   69.4060  223.7870 C   0  0  0  0  0  0  0  0  0  0  0  0
  139.2060   68.5160  224.8530 C   0  0  0  0  0  0  0  0  0  0  0  0
  139.8460   68.9330  226.0250 C   0  0  0  0  0  0  0  0  0  0  0  0
  140.0140   68.0650  227.1140 C   0  0  0  0  0  0  0  0  0  0  0  0
  140.6580   68.5130  228.2720 C   0  0  0  0  0  0  0  0  0  0  0  0
  141.1370   69.8250  228.3470 C   0  0  0  0  0  0  0  0  0  0  0  0
  140.9740   70.6960  227.2660 C   0  0  0  0  0  0  0  0  0  0  0  0
  140.3300   70.2570  226.1040 C   0  0  0  0  0  0  0  0  0  0  0  0
  140.1700   71.1020  225.0500 N   0  0  0  0  0  0  0  0  0  0  0  0
  141.2110   71.1610  221.7680 H   0  0  0  0  0  0  0  0  0  0  0  0
  140.4409   72.6902  219.8277 H   0  0  0  0  0  0  0  0  0  0  0  0
  139.1390   74.1510  222.7940 H   0  0  0  0  0  0  0  0  0  0  0  0
  140.5788   76.8142  221.4773 H   0  0  0  0  0  0  0  0  0  0  0  0
  142.3861   76.6805  221.5184 H   0  0  0  0  0  0  0  0  0  0  0  0
  140.6335   77.4986  219.1608 H   0  0  0  0  0  0  0  0  0  0  0  0
  141.8267   78.5074  220.0688 H   0  0  0  0  0  0  0  0  0  0  0  0
  142.7565   77.7438  217.9089 H   0  0  0  0  0  0  0  0  0  0  0  0
  143.6547   77.0425  219.3053 H   0  0  0  0  0  0  0  0  0  0  0  0
  141.5094   75.6709  217.6169 H   0  0  0  0  0  0  0  0  0  0  0  0
  143.2988   75.3169  217.6666 H   0  0  0  0  0  0  0  0  0  0  0  0
  141.6035   73.7873  218.9362 H   0  0  0  0  0  0  0  0  0  0  0  0
  142.9477   71.9958  219.1570 H   0  0  0  0  0  0  0  0  0  0  0  0
  145.0793   70.9308  219.8845 H   0  0  0  0  0  0  0  0  0  0  0  0
  146.8652   72.3058  220.9570 H   0  0  0  0  0  0  0  0  0  0  0  0
  146.5189   74.7533  221.2950 H   0  0  0  0  0  0  0  0  0  0  0  0
  144.3940   75.8313  220.5666 H   0  0  0  0  0  0  0  0  0  0  0  0
  138.5503   69.0830  222.8645 H   0  0  0  0  0  0  0  0  0  0  0  0
  138.8221   67.4884  224.7710 H   0  0  0  0  0  0  0  0  0  0  0  0
  139.6394   67.0323  227.0573 H   0  0  0  0  0  0  0  0  0  0  0  0
  140.7881   67.8318  229.1259 H   0  0  0  0  0  0  0  0  0  0  0  0
  141.6435   70.1724  229.2595 H   0  0  0  0  0  0  0  0  0  0  0  0
  141.3522   71.7270  227.3289 H   0  0  0  0  0  0  0  0  0  0  0  0
  1  2  2  0
  2  3  1  0
  3  4  1  0
  4  5  2  0
  5  6  1  0
  5  7  1  0
  7  8  1  0
  8  9  1  0
  9 10  1  0
 10 11  1  0
 11 12  1  0
 12 13  1  0
 13 14  2  0
 14 15  1  0
 15 16  2  0
 16 17  1  0
 17 18  2  0
  2 19  1  0
 19 20  2  0
 20 21  1  0
 21 22  2  0
 22 23  1  0
 23 24  2  0
 24 25  1  0
 25 26  2  0
 26 27  1  0
 27 28  2  0
 12  7  1  0
 18 13  1  0
 28 19  1  0
 27 22  1  0
  3 29  1  0
  4 30  1  0
  6 31  1  0
  8 32  1  0
  8 33  1  0
  9 34  1  0
  9 35  1  0
 10 36  1  0
 10 37  1  0
 11 38  1  0
 11 39  1  0
 12 40  1  6
 14 41  1  0
 15 42  1  0
 16 43  1  0
 17 44  1  0
 18 45  1  0
 20 46  1  0
 21 47  1  0
 23 48  1  0
 24 49  1  0
 25 50  1  0
 26 51  1  0
M  END
>  <meeko>  (2) 
{"free_energy": -8.78, "intermolecular_energy": -10.57, "internal_energy": -1.92, "cluster_size": 14, "cluster_id": 2, "rank_in_cluster": 9}

$$$$

     RDKit          3D

 51 54  0  0  0  0  0  0  0  0999 V2000
  138.3400   72.1310  222.6110 O   0  0  0  0  0  0  0  0  0  0  0  0
  139.4530   71.5840  222.8450 C   0  0  0  0  0  0  0  0  0  0  0  0
  140.5800   71.8610  221.9950 N   0  0  0  0  0  0  0  0  0  0  0  0
  140.5880   72.9030  221.0090 C   0  0  0  0  0  0  0  0  0  0  0  0
  140.5040   74.2010  221.3290 C   0  0  0  0  0  0  0  0  0  0  0  0
  139.6330   74.6150  222.3370 O   0  0  0  0  0  0  0  0  0  0  0  0
  141.3460   75.1610  220.6630 N   0  0  0  0  0  0  0  0  0  0  0  0
  141.4370   76.5260  221.2120 C   0  0  0  0  0  0  0  0  0  0  0  0
  141.5390   77.5730  220.1040 C   0  0  0  0  0  0  0  0  0  0  0  0
  142.6400   77.2120  219.1120 C   0  0  0  0  0  0  0  0  0  0  0  0
  142.3480   75.8580  218.4650 C   0  0  0  0  0  0  0  0  0  0  0  0
  142.1370   74.7240  219.4920 C   0  0  1  0  0  0  0  0  0  0  0  0
  143.4490   74.0610  219.8870 C   0  0  0  0  0  0  0  0  0  0  0  0
  144.4710   74.8450  220.4610 C   0  0  0  0  0  0  0  0  0  0  0  0
  145.6840   74.2650  220.8450 C   0  0  0  0  0  0  0  0  0  0  0  0
  145.8910   72.8960  220.6710 C   0  0  0  0  0  0  0  0  0  0  0  0
  144.8840   72.1040  220.1160 C   0  0  0  0  0  0  0  0  0  0  0  0
  143.6690   72.6790  219.7310 C   0  0  0  0  0  0  0  0  0  0  0  0
  139.5840   70.6380  223.9740 C   0  0  0  0  0  0  0  0  0  0  0  0
  139.0290   69.3500  223.9080 C   0  0  0  0  0  0  0  0  0  0  0  0
  139.1650   68.4810  224.9940 C   0  0  0  0  0  0  0  0  0  0  0  0
  139.8500   68.8980  226.1400 C   0  0  0  0  0  0  0  0  0  0  0  0
  140.0050   68.0520  227.2470 C   0  0  0  0  0  0  0  0  0  0  0  0
  140.6960   68.5000  228.3780 C   0  0  0  0  0  0  0  0  0  0  0  0
  141.2340   69.7910  228.4080 C   0  0  0  0  0  0  0  0  0  0  0  0
  141.0840   70.6410  227.3070 C   0  0  0  0  0  0  0  0  0  0  0  0
  140.3940   70.2010  226.1720 C   0  0  0  0  0  0  0  0  0  0  0  0
  140.2470   71.0250  225.1000 N   0  0  0  0  0  0  0  0  0  0  0  0
  141.3590   71.1680  221.9570 H   0  0  0  0  0  0  0  0  0  0  0  0
  140.6662   72.6249  219.9476 H   0  0  0  0  0  0  0  0  0  0  0  0
  138.9720   73.9780  222.7630 H   0  0  0  0  0  0  0  0  0  0  0  0
  140.5387   76.7293  221.8135 H   0  0  0  0  0  0  0  0  0  0  0  0
  142.3457   76.5886  221.8288 H   0  0  0  0  0  0  0  0  0  0  0  0
  140.5783   77.6279  219.5711 H   0  0  0  0  0  0  0  0  0  0  0  0
  141.7821   78.5440  220.5601 H   0  0  0  0  0  0  0  0  0  0  0  0
  142.6916   77.9842  218.3303 H   0  0  0  0  0  0  0  0  0  0  0  0
  143.5990   77.1533  219.6475 H   0  0  0  0  0  0  0  0  0  0  0  0
  141.4370   75.9513  217.8555 H   0  0  0  0  0  0  0  0  0  0  0  0
  143.2260   75.5900  217.8589 H   0  0  0  0  0  0  0  0  0  0  0  0
  141.5346   73.9523  218.9904 H   0  0  0  0  0  0  0  0  0  0  0  0
  144.3124   75.9235  220.6081 H   0  0  0  0  0  0  0  0  0  0  0  0
  146.4762   74.8887  221.2848 H   0  0  0  0  0  0  0  0  0  0  0  0
  146.8467   72.4413  220.9708 H   0  0  0  0  0  0  0  0  0  0  0  0
  145.0469   71.0245  219.9812 H   0  0  0  0  0  0  0  0  0  0  0  0
  142.8780   72.0461  219.3024 H   0  0  0  0  0  0  0  0  0  0  0  0
  138.4896   69.0264  223.0056 H   0  0  0  0  0  0  0  0  0  0  0  0
  138.7338   67.4701  224.9476 H   0  0  0  0  0  0  0  0  0  0  0  0
  139.5834   67.0362  227.2264 H   0  0  0  0  0  0  0  0  0  0  0  0
  140.8166   67.8353  229.2461 H   0  0  0  0  0  0  0  0  0  0  0  0
  141.7764   70.1387  229.2996 H   0  0  0  0  0  0  0  0  0  0  0  0
  141.5086   71.6554  227.3336 H   0  0  0  0  0  0  0  0  0  0  0  0
  1  2  2  0
  2  3  1  0
  3  4  1  0
  4  5  2  0
  5  6  1  0
  5  7  1  0
  7  8  1  0
  8  9  1  0
  9 10  1  0
 10 11  1  0
 11 12  1  0
 12 13  1  0
 13 14  2  0
 14 15  1  0
 15 16  2  0
 16 17  1  0
 17 18  2  0
  2 19  1  0
 19 20  2  0
 20 21  1  0
 21 22  2  0
 22 23  1  0
 23 24  2  0
 24 25  1  0
 25 26  2  0
 26 27  1  0
 27 28  2  0
 12  7  1  0
 18 13  1  0
 28 19  1  0
 27 22  1  0
  3 29  1  0
  4 30  1  0
  6 31  1  0
  8 32  1  0
  8 33  1  0
  9 34  1  0
  9 35  1  0
 10 36  1  0
 10 37  1  0
 11 38  1  0
 11 39  1  0
 12 40  1  6
 14 41  1  0
 15 42  1  0
 16 43  1  0
 17 44  1  0
 18 45  1  0
 20 46  1  0
 21 47  1  0
 23 48  1  0
 24 49  1  0
 25 50  1  0
 26 51  1  0
M  END
>  <meeko>  (3) 
{"free_energy": -8.79, "intermolecular_energy": -10.58, "internal_energy": -1.89, "cluster_size": 14, "cluster_id": 2, "rank_in_cluster": 8}

$$$$

     RDKit          3D

 51 54  0  0  0  0  0  0  0  0999 V2000
  140.1870   71.4970  221.2400 O   0  0  0  0  0  0  0  0  0  0  0  0
  139.8490   72.0420  222.3270 C   0  0  0  0  0  0  0  0  0  0  0  0
  139.4210   73.4140  222.3380 N   0  0  0  0  0  0  0  0  0  0  0  0
  139.1370   74.1630  221.1470 C   0  0  0  0  0  0  0  0  0  0  0  0
  139.9580   74.1750  220.0890 C   0  0  0  0  0  0  0  0  0  0  0  0
  139.8430   73.1910  219.1070 O   0  0  0  0  0  0  0  0  0  0  0  0
  140.9270   75.2300  219.9430 N   0  0  0  0  0  0  0  0  0  0  0  0
  140.7310   76.4820  220.6960 C   0  0  0  0  0  0  0  0  0  0  0  0
  141.1690   77.7010  219.8850 C   0  0  0  0  0  0  0  0  0  0  0  0
  142.5760   77.5080  219.3280 C   0  0  0  0  0  0  0  0  0  0  0  0
  142.6210   76.2840  218.4130 C   0  0  0  0  0  0  0  0  0  0  0  0
  142.1160   74.9930  219.0960 C   0  0  1  0  0  0  0  0  0  0  0  0
  143.2300   74.2670  219.8370 C   0  0  0  0  0  0  0  0  0  0  0  0
  143.0580   72.9100  220.1770 C   0  0  0  0  0  0  0  0  0  0  0  0
  144.0660   72.2110  220.8480 C   0  0  0  0  0  0  0  0  0  0  0  0
  145.2600   72.8520  221.1800 C   0  0  0  0  0  0  0  0  0  0  0  0
  145.4500   74.1920  220.8390 C   0  0  0  0  0  0  0  0  0  0  0  0
  144.4460   74.8950  220.1670 C   0  0  0  0  0  0  0  0  0  0  0  0
  139.9240   71.2720  223.5880 C   0  0  0  0  0  0  0  0  0  0  0  0
  139.5050   69.9330  223.6460 C   0  0  0  0  0  0  0  0  0  0  0  0
  139.5830   69.2350  224.8540 C   0  0  0  0  0  0  0  0  0  0  0  0
  140.0750   69.8720  225.9970 C   0  0  0  0  0  0  0  0  0  0  0  0
  140.1670   69.2010  227.2260 C   0  0  0  0  0  0  0  0  0  0  0  0
  140.6630   69.8680  228.3510 C   0  0  0  0  0  0  0  0  0  0  0  0
  141.0690   71.2030  228.2550 C   0  0  0  0  0  0  0  0  0  0  0  0
  140.9810   71.8790  227.0340 C   0  0  0  0  0  0  0  0  0  0  0  0
  140.4850   71.2200  225.9040 C   0  0  0  0  0  0  0  0  0  0  0  0
  140.3990   71.8750  224.7140 N   0  0  0  0  0  0  0  0  0  0  0  0
  139.4920   73.9520  223.2290 H   0  0  0  0  0  0  0  0  0  0  0  0
  138.2081   74.7505  221.1014 H   0  0  0  0  0  0  0  0  0  0  0  0
  139.9310   72.2070  219.3270 H   0  0  0  0  0  0  0  0  0  0  0  0
  139.6649   76.5845  220.9468 H   0  0  0  0  0  0  0  0  0  0  0  0
  141.3463   76.4356  221.6066 H   0  0  0  0  0  0  0  0  0  0  0  0
  140.4683   77.8486  219.0500 H   0  0  0  0  0  0  0  0  0  0  0  0
  141.1704   78.5804  220.5458 H   0  0  0  0  0  0  0  0  0  0  0  0
  142.8648   78.4009  218.7541 H   0  0  0  0  0  0  0  0  0  0  0  0
  143.2742   77.3555  220.1643 H   0  0  0  0  0  0  0  0  0  0  0  0
  141.9920   76.4825  217.5327 H   0  0  0  0  0  0  0  0  0  0  0  0
  143.6738   76.1187  218.1405 H   0  0  0  0  0  0  0  0  0  0  0  0
  141.7848   74.3183  218.2928 H   0  0  0  0  0  0  0  0  0  0  0  0
  142.1222   72.3962  219.9120 H   0  0  0  0  0  0  0  0  0  0  0  0
  143.9175   71.1542  221.1146 H   0  0  0  0  0  0  0  0  0  0  0  0
  146.0511   72.3016  221.7102 H   0  0  0  0  0  0  0  0  0  0  0  0
  146.3922   74.6962  221.0998 H   0  0  0  0  0  0  0  0  0  0  0  0
  144.6074   75.9482  219.8936 H   0  0  0  0  0  0  0  0  0  0  0  0
  139.1172   69.4359  222.7446 H   0  0  0  0  0  0  0  0  0  0  0  0
  139.2576   68.1855  224.9055 H   0  0  0  0  0  0  0  0  0  0  0  0
  139.8492   68.1508  227.3047 H   0  0  0  0  0  0  0  0  0  0  0  0
  140.7339   69.3411  229.3140 H   0  0  0  0  0  0  0  0  0  0  0  0
  141.4587   71.7228  229.1427 H   0  0  0  0  0  0  0  0  0  0  0  0
  141.3017   72.9287  226.9620 H   0  0  0  0  0  0  0  0  0  0  0  0
  1  2  2  0
  2  3  1  0
  3  4  1  0
  4  5  2  0
  5  6  1  0
  5  7  1  0
  7  8  1  0
  8  9  1  0
  9 10  1  0
 10 11  1  0
 11 12  1  0
 12 13  1  0
 13 14  2  0
 14 15  1  0
 15 16  2  0
 16 17  1  0
 17 18  2  0
  2 19  1  0
 19 20  2  0
 20 21  1  0
 21 22  2  0
 22 23  1  0
 23 24  2  0
 24 25  1  0
 25 26  2  0
 26 27  1  0
 27 28  2  0
 12  7  1  0
 18 13  1  0
 28 19  1  0
 27 22  1  0
  3 29  1  0
  4 30  1  0
  6 31  1  0
  8 32  1  0
  8 33  1  0
  9 34  1  0
  9 35  1  0
 10 36  1  0
 10 37  1  0
 11 38  1  0
 11 39  1  0
 12 40  1  6
 14 41  1  0
 15 42  1  0
 16 43  1  0
 17 44  1  0
 18 45  1  0
 20 46  1  0
 21 47  1  0
 23 48  1  0
 24 49  1  0
 25 50  1  0
 26 51  1  0
M  END
>  <meeko>  (4) 
{"free_energy": -7.84, "intermolecular_energy": -9.63, "internal_energy": -2.29, "cluster_size": 14, "cluster_id": 2, "rank_in_cluster": 13}

$$$$

     RDKit          3D

 51 54  0  0  0  0  0  0  0  0999 V2000
  140.7110   71.0970  221.4380 O   0  0  0  0  0  0  0  0  0  0  0  0
  140.2630   71.5540  222.5270 C   0  0  0  0  0  0  0  0  0  0  0  0
  139.9660   72.9550  222.6480 N   0  0  0  0  0  0  0  0  0  0  0  0
  139.9360   73.8560  221.5320 C   0  0  0  0  0  0  0  0  0  0  0  0
  140.1680   75.1690  221.6570 C   0  0  0  0  0  0  0  0  0  0  0  0
  139.5590   75.8890  222.6850 O   0  0  0  0  0  0  0  0  0  0  0  0
  141.0810   75.8270  220.7580 N   0  0  0  0  0  0  0  0  0  0  0  0
  141.4060   77.2460  220.9880 C   0  0  0  0  0  0  0  0  0  0  0  0
  141.5660   78.0070  219.6740 C   0  0  0  0  0  0  0  0  0  0  0  0
  142.5250   77.2800  218.7360 C   0  0  0  0  0  0  0  0  0  0  0  0
  141.9960   75.8820  218.4160 C   0  0  0  0  0  0  0  0  0  0  0  0
  141.7090   75.0360  219.6770 C   0  0  1  0  0  0  0  0  0  0  0  0
  142.9420   74.2770  220.1460 C   0  0  0  0  0  0  0  0  0  0  0  0
  142.8420   72.8940  220.4030 C   0  0  0  0  0  0  0  0  0  0  0  0
  143.9580   72.1650  220.8240 C   0  0  0  0  0  0  0  0  0  0  0  0
  145.1900   72.8010  220.9860 C   0  0  0  0  0  0  0  0  0  0  0  0
  145.3080   74.1670  220.7230 C   0  0  0  0  0  0  0  0  0  0  0  0
  144.1950   74.9010  220.3010 C   0  0  0  0  0  0  0  0  0  0  0  0
  140.0740   70.6480  223.6810 C   0  0  0  0  0  0  0  0  0  0  0  0
  139.3430   69.4550  223.5540 C   0  0  0  0  0  0  0  0  0  0  0  0
  139.1780   68.6230  224.6640 C   0  0  0  0  0  0  0  0  0  0  0  0
  139.7390   68.9820  225.8950 C   0  0  0  0  0  0  0  0  0  0  0  0
  139.5930   68.1710  227.0290 C   0  0  0  0  0  0  0  0  0  0  0  0
  140.1650   68.5590  228.2450 C   0  0  0  0  0  0  0  0  0  0  0  0
  140.8860   69.7550  228.3330 C   0  0  0  0  0  0  0  0  0  0  0  0
  141.0360   70.5690  227.2060 C   0  0  0  0  0  0  0  0  0  0  0  0
  140.4660   70.1890  225.9860 C   0  0  0  0  0  0  0  0  0  0  0  0
  140.6110   70.9790  224.8890 N   0  0  0  0  0  0  0  0  0  0  0  0
  139.9510   73.3820  223.6000 H   0  0  0  0  0  0  0  0  0  0  0  0
  139.7135   73.4521  220.5333 H   0  0  0  0  0  0  0  0  0  0  0  0
  139.0580   75.4280  223.4330 H   0  0  0  0  0  0  0  0  0  0  0  0
  140.5957   77.7076  221.5713 H   0  0  0  0  0  0  0  0  0  0  0  0
  142.3604   77.2961  221.5326 H   0  0  0  0  0  0  0  0  0  0  0  0
  140.5836   78.0949  219.1870 H   0  0  0  0  0  0  0  0  0  0  0  0
  141.9772   79.0034  219.8932 H   0  0  0  0  0  0  0  0  0  0  0  0
  142.6237   77.8532  217.8023 H   0  0  0  0  0  0  0  0  0  0  0  0
  143.5050   77.1881  219.2270 H   0  0  0  0  0  0  0  0  0  0  0  0
  141.0622   75.9841  217.8436 H   0  0  0  0  0  0  0  0  0  0  0  0
  142.7769   75.3603  217.8433 H   0  0  0  0  0  0  0  0  0  0  0  0
  140.9665   74.2778  219.3874 H   0  0  0  0  0  0  0  0  0  0  0  0
  141.8764   72.3839  220.2709 H   0  0  0  0  0  0  0  0  0  0  0  0
  143.8651   71.0881  221.0280 H   0  0  0  0  0  0  0  0  0  0  0  0
  146.0666   72.2267  221.3204 H   0  0  0  0  0  0  0  0  0  0  0  0
  146.2795   74.6675  220.8481 H   0  0  0  0  0  0  0  0  0  0  0  0
  144.2991   75.9752  220.0882 H   0  0  0  0  0  0  0  0  0  0  0  0
  138.9026   69.1773  222.5850 H   0  0  0  0  0  0  0  0  0  0  0  0
  138.6079   67.6869  224.5707 H   0  0  0  0  0  0  0  0  0  0  0  0
  139.0285   67.2292  226.9625 H   0  0  0  0  0  0  0  0  0  0  0  0
  140.0477   67.9224  229.1343 H   0  0  0  0  0  0  0  0  0  0  0  0
  141.3358   70.0555  229.2908 H   0  0  0  0  0  0  0  0  0  0  0  0
  141.6027   71.5090  227.2786 H   0  0  0  0  0  0  0  0  0  0  0  0
  1  2  2  0
  2  3  1  0
  3  4  1  0
  4  5  2  0
  5  6  1  0
  5  7  1  0
  7  8  1  0
  8  9  1  0
  9 10  1  0
 10 11  1  0
 11 12  1  0
 12 13  1  0
 13 14  2  0
 14 15  1  0
 15 16  2  0
 16 17  1  0
 17 18  2  0
  2 19  1  0
 19 20  2  0
 20 21  1  0
 21 22  2  0
 22 23  1  0
 23 24  2  0
 24 25  1  0
 25 26  2  0
 26 27  1  0
 27 28  2  0
 12  7  1  0
 18 13  1  0
 28 19  1  0
 27 22  1  0
  3 29  1  0
  4 30  1  0
  6 31  1  0
  8 32  1  0
  8 33  1  0
  9 34  1  0
  9 35  1  0
 10 36  1  0
 10 37  1  0
 11 38  1  0
 11 39  1  0
 12 40  1  6
 14 41  1  0
 15 42  1  0
 16 43  1  0
 17 44  1  0
 18 45  1  0
 20 46  1  0
 21 47  1  0
 23 48  1  0
 24 49  1  0
 25 50  1  0
 26 51  1  0
M  END
>  <meeko>  (5) 
{"free_energy": -8.46, "intermolecular_energy": -10.25, "internal_energy": -1.64, "cluster_size": 14, "cluster_id": 2, "rank_in_cluster": 10}

$$$$

     RDKit          3D

 51 54  0  0  0  0  0  0  0  0999 V2000
  138.7070   72.8600  222.2130 O   0  0  0  0  0  0  0  0  0  0  0  0
  139.8290   72.5420  222.6960 C   0  0  0  0  0  0  0  0  0  0  0  0
  141.0270   73.1550  222.1880 N   0  0  0  0  0  0  0  0  0  0  0  0
  141.0220   74.2830  221.3020 C   0  0  0  0  0  0  0  0  0  0  0  0
  140.3500   75.4100  221.5710 C   0  0  0  0  0  0  0  0  0  0  0  0
  139.5680   75.4960  222.7230 O   0  0  0  0  0  0  0  0  0  0  0  0
  140.4730   76.5460  220.6950 N   0  0  0  0  0  0  0  0  0  0  0  0
  139.3120   76.9390  219.8760 C   0  0  0  0  0  0  0  0  0  0  0  0
  139.7390   77.4380  218.4970 C   0  0  0  0  0  0  0  0  0  0  0  0
  140.8240   78.5050  218.6150 C   0  0  0  0  0  0  0  0  0  0  0  0
  142.0550   77.9340  219.3180 C   0  0  0  0  0  0  0  0  0  0  0  0
  141.7360   77.3150  220.6980 C   0  0  1  0  0  0  0  0  0  0  0  0
  141.7900   78.3500  221.8130 C   0  0  0  0  0  0  0  0  0  0  0  0
  142.1610   79.6740  221.5040 C   0  0  0  0  0  0  0  0  0  0  0  0
  142.2100   80.6520  222.5020 C   0  0  0  0  0  0  0  0  0  0  0  0
  141.8800   80.3260  223.8180 C   0  0  0  0  0  0  0  0  0  0  0  0
  141.4970   79.0220  224.1370 C   0  0  0  0  0  0  0  0  0  0  0  0
  141.4470   78.0400  223.1430 C   0  0  0  0  0  0  0  0  0  0  0  0
  139.9070   71.5200  223.7620 C   0  0  0  0  0  0  0  0  0  0  0  0
  139.4710   70.2030  223.5370 C   0  0  0  0  0  0  0  0  0  0  0  0
  139.5530   69.2620  224.5660 C   0  0  0  0  0  0  0  0  0  0  0  0
  140.0650   69.6340  225.8130 C   0  0  0  0  0  0  0  0  0  0  0  0
  140.1610   68.7150  226.8680 C   0  0  0  0  0  0  0  0  0  0  0  0
  140.6780   69.1190  228.1030 C   0  0  0  0  0  0  0  0  0  0  0  0
  141.1000   70.4400  228.2900 C   0  0  0  0  0  0  0  0  0  0  0  0
  141.0080   71.3620  227.2440 C   0  0  0  0  0  0  0  0  0  0  0  0
  140.4920   70.9660  226.0050 C   0  0  0  0  0  0  0  0  0  0  0  0
  140.4010   71.8610  224.9850 N   0  0  0  0  0  0  0  0  0  0  0  0
  141.9350   72.6550  222.3140 H   0  0  0  0  0  0  0  0  0  0  0  0
  141.5930   74.2200  220.3639 H   0  0  0  0  0  0  0  0  0  0  0  0
  139.0360   74.7070  223.0650 H   0  0  0  0  0  0  0  0  0  0  0  0
  138.6518   76.0680  219.7517 H   0  0  0  0  0  0  0  0  0  0  0  0
  138.7892   77.7582  220.3914 H   0  0  0  0  0  0  0  0  0  0  0  0
  140.1286   76.5915  217.9126 H   0  0  0  0  0  0  0  0  0  0  0  0
  138.8645   77.8802  217.9973 H   0  0  0  0  0  0  0  0  0  0  0  0
  141.1070   78.8476  217.6088 H   0  0  0  0  0  0  0  0  0  0  0  0
  140.4342   79.3481  219.2043 H   0  0  0  0  0  0  0  0  0  0  0  0
  142.4928   77.1540  218.6778 H   0  0  0  0  0  0  0  0  0  0  0  0
  142.7512   78.7686  219.4873 H   0  0  0  0  0  0  0  0  0  0  0  0
  142.5324   76.5862  220.9092 H   0  0  0  0  0  0  0  0  0  0  0  0
  142.4145   79.9406  220.4674 H   0  0  0  0  0  0  0  0  0  0  0  0
  142.5092   81.6800  222.2494 H   0  0  0  0  0  0  0  0  0  0  0  0
  141.9216   81.0954  224.6030 H   0  0  0  0  0  0  0  0  0  0  0  0
  141.2336   78.7662  225.1739 H   0  0  0  0  0  0  0  0  0  0  0  0
  141.1372   77.0168  223.4021 H   0  0  0  0  0  0  0  0  0  0  0  0
  139.0671   69.9147  222.5553 H   0  0  0  0  0  0  0  0  0  0  0  0
  139.2151   68.2292  224.3956 H   0  0  0  0  0  0  0  0  0  0  0  0
  139.8295   67.6761  226.7240 H   0  0  0  0  0  0  0  0  0  0  0  0
  140.7531   68.3967  228.9293 H   0  0  0  0  0  0  0  0  0  0  0  0
  141.5054   70.7536  229.2633 H   0  0  0  0  0  0  0  0  0  0  0  0
  141.3413   72.3994  227.3946 H   0  0  0  0  0  0  0  0  0  0  0  0
  1  2  2  0
  2  3  1  0
  3  4  1  0
  4  5  2  0
  5  6  1  0
  5  7  1  0
  7  8  1  0
  8  9  1  0
  9 10  1  0
 10 11  1  0
 11 12  1  0
 12 13  1  0
 13 14  2  0
 14 15  1  0
 15 16  2  0
 16 17  1  0
 17 18  2  0
  2 19  1  0
 19 20  2  0
 20 21  1  0
 21 22  2  0
 22 23  1  0
 23 24  2  0
 24 25  1  0
 25 26  2  0
 26 27  1  0
 27 28  2  0
 12  7  1  0
 18 13  1  0
 28 19  1  0
 27 22  1  0
  3 29  1  0
  4 30  1  0
  6 31  1  0
  8 32  1  0
  8 33  1  0
  9 34  1  0
  9 35  1  0
 10 36  1  0
 10 37  1  0
 11 38  1  0
 11 39  1  0
 12 40  1  1
 14 41  1  0
 15 42  1  0
 16 43  1  0
 17 44  1  0
 18 45  1  0
 20 46  1  0
 21 47  1  0
 23 48  1  0
 24 49  1  0
 25 50  1  0
 26 51  1  0
M  END
>  <meeko>  (6) 
{"free_energy": -8.53, "intermolecular_energy": -10.32, "internal_energy": -1.83, "cluster_size": 5, "cluster_id": 1, "rank_in_cluster": 2}

$$$$

     RDKit          3D

 51 54  0  0  0  0  0  0  0  0999 V2000
  138.8990   72.3520  222.8410 O   0  0  0  0  0  0  0  0  0  0  0  0
  140.0600   71.9620  223.1490 C   0  0  0  0  0  0  0  0  0  0  0  0
  141.1470   72.1530  222.2270 N   0  0  0  0  0  0  0  0  0  0  0  0
  141.0510   72.9650  221.0490 C   0  0  0  0  0  0  0  0  0  0  0  0
  140.9090   74.2970  221.0990 C   0  0  0  0  0  0  0  0  0  0  0  0
  139.9860   74.8660  221.9760 O   0  0  0  0  0  0  0  0  0  0  0  0
  141.7420   75.1390  220.2810 N   0  0  0  0  0  0  0  0  0  0  0  0
  141.8170   76.5780  220.5910 C   0  0  0  0  0  0  0  0  0  0  0  0
  141.9110   77.4230  219.3220 C   0  0  0  0  0  0  0  0  0  0  0  0
  143.0180   76.9110  218.4060 C   0  0  0  0  0  0  0  0  0  0  0  0
  142.7420   75.4650  217.9970 C   0  0  0  0  0  0  0  0  0  0  0  0
  142.5410   74.5190  219.2020 C   0  0  1  0  0  0  0  0  0  0  0  0
  143.8600   73.9460  219.7040 C   0  0  0  0  0  0  0  0  0  0  0  0
  144.2130   72.6270  219.3560 C   0  0  0  0  0  0  0  0  0  0  0  0
  145.4220   72.0750  219.7900 C   0  0  0  0  0  0  0  0  0  0  0  0
  146.2980   72.8330  220.5690 C   0  0  0  0  0  0  0  0  0  0  0  0
  145.9680   74.1450  220.9110 C   0  0  0  0  0  0  0  0  0  0  0  0
  144.7600   74.7020  220.4780 C   0  0  0  0  0  0  0  0  0  0  0  0
  140.2880   71.2840  224.4440 C   0  0  0  0  0  0  0  0  0  0  0  0
  141.0290   71.9030  225.4650 C   0  0  0  0  0  0  0  0  0  0  0  0
  141.2320   71.2340  226.6750 C   0  0  0  0  0  0  0  0  0  0  0  0
  140.7000   69.9540  226.8620 C   0  0  0  0  0  0  0  0  0  0  0  0
  140.8840   69.2550  228.0640 C   0  0  0  0  0  0  0  0  0  0  0  0
  140.3390   67.9760  228.2190 C   0  0  0  0  0  0  0  0  0  0  0  0
  139.6090   67.3920  227.1790 C   0  0  0  0  0  0  0  0  0  0  0  0
  139.4200   68.0830  225.9780 C   0  0  0  0  0  0  0  0  0  0  0  0
  139.9620   69.3620  225.8140 C   0  0  0  0  0  0  0  0  0  0  0  0
  139.7800   70.0370  224.6470 N   0  0  0  0  0  0  0  0  0  0  0  0
  141.9860   71.5360  222.3100 H   0  0  0  0  0  0  0  0  0  0  0  0
  141.0957   72.4753  220.0650 H   0  0  0  0  0  0  0  0  0  0  0  0
  139.4610   74.3040  222.6340 H   0  0  0  0  0  0  0  0  0  0  0  0
  140.9150   76.8704  221.1485 H   0  0  0  0  0  0  0  0  0  0  0  0
  142.7232   76.7541  221.1892 H   0  0  0  0  0  0  0  0  0  0  0  0
  140.9510   77.3767  218.7869 H   0  0  0  0  0  0  0  0  0  0  0  0
  142.1432   78.4597  219.6073 H   0  0  0  0  0  0  0  0  0  0  0  0
  143.0636   77.5405  217.5051 H   0  0  0  0  0  0  0  0  0  0  0  0
  143.9762   76.9537  218.9446 H   0  0  0  0  0  0  0  0  0  0  0  0
  141.8313   75.4439  217.3803 H   0  0  0  0  0  0  0  0  0  0  0  0
  143.6236   75.1077  217.4446 H   0  0  0  0  0  0  0  0  0  0  0  0
  141.9482   73.6666  218.8387 H   0  0  0  0  0  0  0  0  0  0  0  0
  143.5308   72.0258  218.7369 H   0  0  0  0  0  0  0  0  0  0  0  0
  145.6833   71.0419  219.5172 H   0  0  0  0  0  0  0  0  0  0  0  0
  147.2473   72.3965  220.9129 H   0  0  0  0  0  0  0  0  0  0  0  0
  146.6596   74.7429  221.5227 H   0  0  0  0  0  0  0  0  0  0  0  0
  144.5114   75.7398  220.7448 H   0  0  0  0  0  0  0  0  0  0  0  0
  141.4471   72.9090  225.3126 H   0  0  0  0  0  0  0  0  0  0  0  0
  141.8094   71.7134  227.4793 H   0  0  0  0  0  0  0  0  0  0  0  0
  141.4566   69.7123  228.8844 H   0  0  0  0  0  0  0  0  0  0  0  0
  140.4851   67.4281  229.1616 H   0  0  0  0  0  0  0  0  0  0  0  0
  139.1822   66.3862  227.3060 H   0  0  0  0  0  0  0  0  0  0  0  0
  138.8450   67.6206  225.1621 H   0  0  0  0  0  0  0  0  0  0  0  0
  1  2  2  0
  2  3  1  0
  3  4  1  0
  4  5  2  0
  5  6  1  0
  5  7  1  0
  7  8  1  0
  8  9  1  0
  9 10  1  0
 10 11  1  0
 11 12  1  0
 12 13  1  0
 13 14  2  0
 14 15  1  0
 15 16  2  0
 16 17  1  0
 17 18  2  0
  2 19  1  0
 19 20  2  0
 20 21  1  0
 21 22  2  0
 22 23  1  0
 23 24  2  0
 24 25  1  0
 25 26  2  0
 26 27  1  0
 27 28  2  0
 12  7  1  0
 18 13  1  0
 28 19  1  0
 27 22  1  0
  3 29  1  0
  4 30  1  0
  6 31  1  0
  8 32  1  0
  8 33  1  0
  9 34  1  0
  9 35  1  0
 10 36  1  0
 10 37  1  0
 11 38  1  0
 11 39  1  0
 12 40  1  6
 14 41  1  0
 15 42  1  0
 16 43  1  0
 17 44  1  0
 18 45  1  0
 20 46  1  0
 21 47  1  0
 23 48  1  0
 24 49  1  0
 25 50  1  0
 26 51  1  0
M  END
>  <meeko>  (7) 
{"free_energy": -8.21, "intermolecular_energy": -10.0, "internal_energy": -1.92, "cluster_size": 14, "cluster_id": 2, "rank_in_cluster": 12}

$$$$

     RDKit          3D

 51 54  0  0  0  0  0  0  0  0999 V2000
  141.4280   72.0930  221.5650 O   0  0  0  0  0  0  0  0  0  0  0  0
  140.5780   72.4200  222.4400 C   0  0  0  0  0  0  0  0  0  0  0  0
  139.8970   73.6820  222.3410 N   0  0  0  0  0  0  0  0  0  0  0  0
  139.9550   74.5220  221.1790 C   0  0  0  0  0  0  0  0  0  0  0  0
  140.3700   75.7950  221.2280 C   0  0  0  0  0  0  0  0  0  0  0  0
  141.6450   76.1300  220.7720 O   0  0  0  0  0  0  0  0  0  0  0  0
  139.4820   76.8220  221.7090 N   0  0  0  0  0  0  0  0  0  0  0  0
  138.4400   76.4590  222.6860 C   0  0  0  0  0  0  0  0  0  0  0  0
  137.1460   77.2350  222.4430 C   0  0  0  0  0  0  0  0  0  0  0  0
  137.4210   78.7320  222.3340 C   0  0  0  0  0  0  0  0  0  0  0  0
  138.3720   79.0130  221.1700 C   0  0  0  0  0  0  0  0  0  0  0  0
  139.6920   78.2140  221.2550 C   0  0  1  0  0  0  0  0  0  0  0  0
  140.7480   78.9450  222.0730 C   0  0  0  0  0  0  0  0  0  0  0  0
  140.8840   78.6480  223.4440 C   0  0  0  0  0  0  0  0  0  0  0  0
  141.8510   79.2920  224.2210 C   0  0  0  0  0  0  0  0  0  0  0  0
  142.7020   80.2330  223.6390 C   0  0  0  0  0  0  0  0  0  0  0  0
  142.5900   80.5280  222.2800 C   0  0  0  0  0  0  0  0  0  0  0  0
  141.6240   79.8860  221.4980 C   0  0  0  0  0  0  0  0  0  0  0  0
  140.3110   71.5140  223.5780 C   0  0  0  0  0  0  0  0  0  0  0  0
  139.6460   70.2900  223.3890 C   0  0  0  0  0  0  0  0  0  0  0  0
  139.4030   69.4590  224.4850 C   0  0  0  0  0  0  0  0  0  0  0  0
  139.8200   69.8490  225.7630 C   0  0  0  0  0  0  0  0  0  0  0  0
  139.5920   69.0380  226.8850 C   0  0  0  0  0  0  0  0  0  0  0  0
  140.0210   69.4580  228.1480 C   0  0  0  0  0  0  0  0  0  0  0  0
  140.6780   70.6840  228.2970 C   0  0  0  0  0  0  0  0  0  0  0  0
  140.9090   71.4970  227.1830 C   0  0  0  0  0  0  0  0  0  0  0  0
  140.4830   71.0860  225.9160 C   0  0  0  0  0  0  0  0  0  0  0  0
  140.7070   71.8750  224.8310 N   0  0  0  0  0  0  0  0  0  0  0  0
  139.4930   74.1010  223.2080 H   0  0  0  0  0  0  0  0  0  0  0  0
  139.6464   74.1041  220.2094 H   0  0  0  0  0  0  0  0  0  0  0  0
  142.3870   76.3880  221.4090 H   0  0  0  0  0  0  0  0  0  0  0  0
  138.2316   75.3822  222.6021 H   0  0  0  0  0  0  0  0  0  0  0  0
  138.8084   76.7107  223.6914 H   0  0  0  0  0  0  0  0  0  0  0  0
  136.6860   76.8843  221.5073 H   0  0  0  0  0  0  0  0  0  0  0  0
  136.4684   77.0631  223.2923 H   0  0  0  0  0  0  0  0  0  0  0  0
  136.4731   79.2638  222.1648 H   0  0  0  0  0  0  0  0  0  0  0  0
  137.8862   79.0795  223.2683 H   0  0  0  0  0  0  0  0  0  0  0  0
  137.8632   78.7485  220.2313 H   0  0  0  0  0  0  0  0  0  0  0  0
  138.6332   80.0807  221.2121 H   0  0  0  0  0  0  0  0  0  0  0  0
  140.0851   78.1412  220.2302 H   0  0  0  0  0  0  0  0  0  0  0  0
  140.2222   77.9015  223.9074 H   0  0  0  0  0  0  0  0  0  0  0  0
  141.9415   79.0571  225.2918 H   0  0  0  0  0  0  0  0  0  0  0  0
  143.4607   80.7418  224.2517 H   0  0  0  0  0  0  0  0  0  0  0  0
  143.2633   81.2676  221.8221 H   0  0  0  0  0  0  0  0  0  0  0  0
  141.5480   80.1180  220.4254 H   0  0  0  0  0  0  0  0  0  0  0  0
  139.3187   69.9882  222.3831 H   0  0  0  0  0  0  0  0  0  0  0  0
  138.8845   68.4992  224.3440 H   0  0  0  0  0  0  0  0  0  0  0  0
  139.0764   68.0730  226.7713 H   0  0  0  0  0  0  0  0  0  0  0  0
  139.8412   68.8221  229.0274 H   0  0  0  0  0  0  0  0  0  0  0  0
  141.0137   71.0092  229.2928 H   0  0  0  0  0  0  0  0  0  0  0  0
  141.4261   72.4604  227.3033 H   0  0  0  0  0  0  0  0  0  0  0  0
  1  2  2  0
  2  3  1  0
  3  4  1  0
  4  5  2  0
  5  6  1  0
  5  7  1  0
  7  8  1  0
  8  9  1  0
  9 10  1  0
 10 11  1  0
 11 12  1  0
 12 13  1  0
 13 14  2  0
 14 15  1  0
 15 16  2  0
 16 17  1  0
 17 18  2  0
  2 19  1  0
 19 20  2  0
 20 21  1  0
 21 22  2  0
 22 23  1  0
 23 24  2  0
 24 25  1  0
 25 26  2  0
 26 27  1  0
 27 28  2  0
 12  7  1  0
 18 13  1  0
 28 19  1  0
 27 22  1  0
  3 29  1  0
  4 30  1  0
  6 31  1  0
  8 32  1  0
  8 33  1  0
  9 34  1  0
  9 35  1  0
 10 36  1  0
 10 37  1  0
 11 38  1  0
 11 39  1  0
 12 40  1  6
 14 41  1  0
 15 42  1  0
 16 43  1  0
 17 44  1  0
 18 45  1  0
 20 46  1  0
 21 47  1  0
 23 48  1  0
 24 49  1  0
 25 50  1  0
 26 51  1  0
M  END
>  <meeko>  (8) 
{"free_energy": -9.02, "intermolecular_energy": -10.81, "internal_energy": -1.21, "cluster_size": 5, "cluster_id": 1, "rank_in_cluster": 1}

$$$$

     RDKit          3D

 51 54  0  0  0  0  0  0  0  0999 V2000
  138.6250   72.5790  222.2480 O   0  0  0  0  0  0  0  0  0  0  0  0
  139.7370   72.2410  222.7410 C   0  0  0  0  0  0  0  0  0  0  0  0
  140.9520   72.8150  222.2300 N   0  0  0  0  0  0  0  0  0  0  0  0
  140.9800   73.9290  221.3270 C   0  0  0  0  0  0  0  0  0  0  0  0
  140.3150   75.0680  221.5650 C   0  0  0  0  0  0  0  0  0  0  0  0
  139.5200   75.1850  222.7050 O   0  0  0  0  0  0  0  0  0  0  0  0
  140.4590   76.1850  220.6670 N   0  0  0  0  0  0  0  0  0  0  0  0
  139.4330   76.3980  219.6300 C   0  0  0  0  0  0  0  0  0  0  0  0
  140.0460   76.9090  218.3280 C   0  0  0  0  0  0  0  0  0  0  0  0
  140.9490   78.1110  218.5850 C   0  0  0  0  0  0  0  0  0  0  0  0
  142.0870   77.7260  219.5300 C   0  0  0  0  0  0  0  0  0  0  0  0
  141.5950   77.1120  220.8590 C   0  0  1  0  0  0  0  0  0  0  0  0
  141.3110   78.1770  221.9090 C   0  0  0  0  0  0  0  0  0  0  0  0
  142.3120   79.1190  222.2220 C   0  0  0  0  0  0  0  0  0  0  0  0
  142.0800   80.1170  223.1730 C   0  0  0  0  0  0  0  0  0  0  0  0
  140.8450   80.1960  223.8170 C   0  0  0  0  0  0  0  0  0  0  0  0
  139.8390   79.2790  223.5090 C   0  0  0  0  0  0  0  0  0  0  0  0
  140.0650   78.2790  222.5580 C   0  0  0  0  0  0  0  0  0  0  0  0
  139.7840   71.2330  223.8220 C   0  0  0  0  0  0  0  0  0  0  0  0
  139.2450   69.9480  223.6400 C   0  0  0  0  0  0  0  0  0  0  0  0
  139.3010   69.0190  224.6820 C   0  0  0  0  0  0  0  0  0  0  0  0
  139.8890   69.3730  225.9010 C   0  0  0  0  0  0  0  0  0  0  0  0
  139.9610   68.4660  226.9680 C   0  0  0  0  0  0  0  0  0  0  0  0
  140.5550   68.8510  228.1740 C   0  0  0  0  0  0  0  0  0  0  0  0
  141.0790   70.1400  228.3200 C   0  0  0  0  0  0  0  0  0  0  0  0
  141.0120   71.0510  227.2600 C   0  0  0  0  0  0  0  0  0  0  0  0
  140.4180   70.6740  226.0510 C   0  0  0  0  0  0  0  0  0  0  0  0
  140.3510   71.5570  225.0180 N   0  0  0  0  0  0  0  0  0  0  0  0
  141.8460   72.2940  222.3670 H   0  0  0  0  0  0  0  0  0  0  0  0
  141.5705   73.8452  220.4027 H   0  0  0  0  0  0  0  0  0  0  0  0
  138.8210   74.4920  222.9400 H   0  0  0  0  0  0  0  0  0  0  0  0
  138.9212   75.4444  219.4333 H   0  0  0  0  0  0  0  0  0  0  0  0
  138.7253   77.1558  219.9973 H   0  0  0  0  0  0  0  0  0  0  0  0
  140.6396   76.1044  217.8696 H   0  0  0  0  0  0  0  0  0  0  0  0
  139.2328   77.2186  217.6551 H   0  0  0  0  0  0  0  0  0  0  0  0
  141.3714   78.4584  217.6306 H   0  0  0  0  0  0  0  0  0  0  0  0
  140.3549   78.9129  219.0477 H   0  0  0  0  0  0  0  0  0  0  0  0
  142.7292   76.9912  219.0223 H   0  0  0  0  0  0  0  0  0  0  0  0
  142.6309   78.6492  219.7788 H   0  0  0  0  0  0  0  0  0  0  0  0
  142.4219   76.5008  221.2497 H   0  0  0  0  0  0  0  0  0  0  0  0
  143.2856   79.0682  221.7127 H   0  0  0  0  0  0  0  0  0  0  0  0
  142.8723   80.8410  223.4139 H   0  0  0  0  0  0  0  0  0  0  0  0
  140.6643   80.9803  224.5668 H   0  0  0  0  0  0  0  0  0  0  0  0
  138.8650   79.3431  224.0161 H   0  0  0  0  0  0  0  0  0  0  0  0
  139.2632   77.5662  222.3148 H   0  0  0  0  0  0  0  0  0  0  0  0
  138.7808   69.6747  222.6809 H   0  0  0  0  0  0  0  0  0  0  0  0
  138.8834   68.0107  224.5441 H   0  0  0  0  0  0  0  0  0  0  0  0
  139.5502   67.4517  226.8564 H   0  0  0  0  0  0  0  0  0  0  0  0
  140.6104   68.1384  229.0102 H   0  0  0  0  0  0  0  0  0  0  0  0
  141.5450   70.4382  229.2708 H   0  0  0  0  0  0  0  0  0  0  0  0
  141.4263   72.0632  227.3774 H   0  0  0  0  0  0  0  0  0  0  0  0
  1  2  2  0
  2  3  1  0
  3  4  1  0
  4  5  2  0
  5  6  1  0
  5  7  1  0
  7  8  1  0
  8  9  1  0
  9 10  1  0
 10 11  1  0
 11 12  1  0
 12 13  1  0
 13 14  2  0
 14 15  1  0
 15 16  2  0
 16 17  1  0
 17 18  2  0
  2 19  1  0
 19 20  2  0
 20 21  1  0
 21 22  2  0
 22 23  1  0
 23 24  2  0
 24 25  1  0
 25 26  2  0
 26 27  1  0
 27 28  2  0
 12  7  1  0
 18 13  1  0
 28 19  1  0
 27 22  1  0
  3 29  1  0
  4 30  1  0
  6 31  1  0
  8 32  1  0
  8 33  1  0
  9 34  1  0
  9 35  1  0
 10 36  1  0
 10 37  1  0
 11 38  1  0
 11 39  1  0
 12 40  1  1
 14 41  1  0
 15 42  1  0
 16 43  1  0
 17 44  1  0
 18 45  1  0
 20 46  1  0
 21 47  1  0
 23 48  1  0
 24 49  1  0
 25 50  1  0
 26 51  1  0
M  END
>  <meeko>  (9) 
{"free_energy": -8.49, "intermolecular_energy": -10.28, "internal_energy": -1.86, "cluster_size": 5, "cluster_id": 1, "rank_in_cluster": 3}

$$$$

     RDKit          3D

 51 54  0  0  0  0  0  0  0  0999 V2000
  138.2380   72.1840  222.6140 O   0  0  0  0  0  0  0  0  0  0  0  0
  139.3640   71.6510  222.8180 C   0  0  0  0  0  0  0  0  0  0  0  0
  140.4690   71.9570  221.9510 N   0  0  0  0  0  0  0  0  0  0  0  0
  140.4430   73.0130  220.9800 C   0  0  0  0  0  0  0  0  0  0  0  0
  140.4080   74.3080  221.3230 C   0  0  0  0  0  0  0  0  0  0  0  0
  139.5520   74.7380  222.3360 O   0  0  0  0  0  0  0  0  0  0  0  0
  141.2880   75.2460  220.6750 N   0  0  0  0  0  0  0  0  0  0  0  0
  141.3850   76.6150  221.2120 C   0  0  0  0  0  0  0  0  0  0  0  0
  141.5420   77.6480  220.0970 C   0  0  0  0  0  0  0  0  0  0  0  0
  142.6690   77.2570  219.1460 C   0  0  0  0  0  0  0  0  0  0  0  0
  142.3740   75.9010  218.5040 C   0  0  0  0  0  0  0  0  0  0  0  0
  142.1100   74.7820  219.5360 C   0  0  1  0  0  0  0  0  0  0  0  0
  143.3970   74.1010  219.9810 C   0  0  0  0  0  0  0  0  0  0  0  0
  143.5000   72.6990  219.8860 C   0  0  0  0  0  0  0  0  0  0  0  0
  144.6720   72.0420  220.2740 C   0  0  0  0  0  0  0  0  0  0  0  0
  145.7580   72.7760  220.7530 C   0  0  0  0  0  0  0  0  0  0  0  0
  145.6760   74.1660  220.8410 C   0  0  0  0  0  0  0  0  0  0  0  0
  144.5070   74.8270  220.4520 C   0  0  0  0  0  0  0  0  0  0  0  0
  139.5310   70.6900  223.9300 C   0  0  0  0  0  0  0  0  0  0  0  0
  139.0430   69.3760  223.8330 C   0  0  0  0  0  0  0  0  0  0  0  0
  139.2110   68.4940  224.9030 C   0  0  0  0  0  0  0  0  0  0  0  0
  139.8620   68.9230  226.0650 C   0  0  0  0  0  0  0  0  0  0  0  0
  140.0490   68.0640  227.1570 C   0  0  0  0  0  0  0  0  0  0  0  0
  140.7030   68.5240  228.3050 C   0  0  0  0  0  0  0  0  0  0  0  0
  141.1740   69.8400  228.3660 C   0  0  0  0  0  0  0  0  0  0  0  0
  140.9930   70.7030  227.2800 C   0  0  0  0  0  0  0  0  0  0  0  0
  140.3380   70.2510  226.1290 C   0  0  0  0  0  0  0  0  0  0  0  0
  140.1610   71.0870  225.0710 N   0  0  0  0  0  0  0  0  0  0  0  0
  141.2580   71.2760  221.8880 H   0  0  0  0  0  0  0  0  0  0  0  0
  140.4521   72.7493  219.9121 H   0  0  0  0  0  0  0  0  0  0  0  0
  138.9260   74.0990  222.8100 H   0  0  0  0  0  0  0  0  0  0  0  0
  140.4711   76.8405  221.7812 H   0  0  0  0  0  0  0  0  0  0  0  0
  142.2739   76.6686  221.8577 H   0  0  0  0  0  0  0  0  0  0  0  0
  140.6006   77.7135  219.5318 H   0  0  0  0  0  0  0  0  0  0  0  0
  141.7868   78.6197  220.5507 H   0  0  0  0  0  0  0  0  0  0  0  0
  142.7603   78.0194  218.3583 H   0  0  0  0  0  0  0  0  0  0  0  0
  143.6087   77.1877  219.7135 H   0  0  0  0  0  0  0  0  0  0  0  0
  141.4849   76.0033  217.8645 H   0  0  0  0  0  0  0  0  0  0  0  0
  143.2660   75.6111  217.9294 H   0  0  0  0  0  0  0  0  0  0  0  0
  141.5115   74.0143  219.0236 H   0  0  0  0  0  0  0  0  0  0  0  0
  142.6500   72.1153  219.5028 H   0  0  0  0  0  0  0  0  0  0  0  0
  144.7379   70.9464  220.2016 H   0  0  0  0  0  0  0  0  0  0  0  0
  146.6786   72.2587  221.0612 H   0  0  0  0  0  0  0  0  0  0  0  0
  146.5333   74.7434  221.2174 H   0  0  0  0  0  0  0  0  0  0  0  0
  144.4543   75.9240  220.5146 H   0  0  0  0  0  0  0  0  0  0  0  0
  138.5308   69.0432  222.9182 H   0  0  0  0  0  0  0  0  0  0  0  0
  138.8321   67.4637  224.8323 H   0  0  0  0  0  0  0  0  0  0  0  0
  139.6815   67.0282  227.1112 H   0  0  0  0  0  0  0  0  0  0  0  0
  140.8473   67.8494  229.1618 H   0  0  0  0  0  0  0  0  0  0  0  0
  141.6881   70.1971  229.2705 H   0  0  0  0  0  0  0  0  0  0  0  0
  141.3655   71.7368  227.3308 H   0  0  0  0  0  0  0  0  0  0  0  0
  1  2  2  0
  2  3  1  0
  3  4  1  0
  4  5  2  0
  5  6  1  0
  5  7  1  0
  7  8  1  0
  8  9  1  0
  9 10  1  0
 10 11  1  0
 11 12  1  0
 12 13  1  0
 13 14  2  0
 14 15  1  0
 15 16  2  0
 16 17  1  0
 17 18  2  0
  2 19  1  0
 19 20  2  0
 20 21  1  0
 21 22  2  0
 22 23  1  0
 23 24  2  0
 24 25  1  0
 25 26  2  0
 26 27  1  0
 27 28  2  0
 12  7  1  0
 18 13  1  0
 28 19  1  0
 27 22  1  0
  3 29  1  0
  4 30  1  0
  6 31  1  0
  8 32  1  0
  8 33  1  0
  9 34  1  0
  9 35  1  0
 10 36  1  0
 10 37  1  0
 11 38  1  0
 11 39  1  0
 12 40  1  6
 14 41  1  0
 15 42  1  0
 16 43  1  0
 17 44  1  0
 18 45  1  0
 20 46  1  0
 21 47  1  0
 23 48  1  0
 24 49  1  0
 25 50  1  0
 26 51  1  0
M  END
>  <meeko>  (10) 
{"free_energy": -8.8, "intermolecular_energy": -10.59, "internal_energy": -1.9, "cluster_size": 14, "cluster_id": 2, "rank_in_cluster": 6}

$$$$

     RDKit          3D

 51 54  0  0  0  0  0  0  0  0999 V2000
  138.6480   72.7630  222.1810 O   0  0  0  0  0  0  0  0  0  0  0  0
  139.7540   72.4520  222.7050 C   0  0  0  0  0  0  0  0  0  0  0  0
  140.9680   73.0580  222.2300 N   0  0  0  0  0  0  0  0  0  0  0  0
  140.9940   74.1750  221.3300 C   0  0  0  0  0  0  0  0  0  0  0  0
  140.3250   75.3110  221.5690 C   0  0  0  0  0  0  0  0  0  0  0  0
  139.5510   75.4340  222.7230 O   0  0  0  0  0  0  0  0  0  0  0  0
  140.4440   76.4200  220.6590 N   0  0  0  0  0  0  0  0  0  0  0  0
  139.2980   76.7560  219.7950 C   0  0  0  0  0  0  0  0  0  0  0  0
  139.7520   77.2200  218.4120 C   0  0  0  0  0  0  0  0  0  0  0  0
  140.8060   78.3170  218.5240 C   0  0  0  0  0  0  0  0  0  0  0  0
  142.0300   77.8010  219.2800 C   0  0  0  0  0  0  0  0  0  0  0  0
  141.6880   77.2210  220.6700 C   0  0  1  0  0  0  0  0  0  0  0  0
  141.6850   78.2940  221.7510 C   0  0  0  0  0  0  0  0  0  0  0  0
  141.9020   79.6380  221.3850 C   0  0  0  0  0  0  0  0  0  0  0  0
  141.8940   80.6490  222.3510 C   0  0  0  0  0  0  0  0  0  0  0  0
  141.6600   80.3350  223.6900 C   0  0  0  0  0  0  0  0  0  0  0  0
  141.4300   79.0110  224.0660 C   0  0  0  0  0  0  0  0  0  0  0  0
  141.4360   77.9960  223.1040 C   0  0  0  0  0  0  0  0  0  0  0  0
  139.7960   71.4440  223.7870 C   0  0  0  0  0  0  0  0  0  0  0  0
  139.2590   70.1590  223.6000 C   0  0  0  0  0  0  0  0  0  0  0  0
  139.3090   69.2300  224.6420 C   0  0  0  0  0  0  0  0  0  0  0  0
  139.8900   69.5840  225.8650 C   0  0  0  0  0  0  0  0  0  0  0  0
  139.9570   68.6760  226.9320 C   0  0  0  0  0  0  0  0  0  0  0  0
  140.5430   69.0620  228.1420 C   0  0  0  0  0  0  0  0  0  0  0  0
  141.0650   70.3510  228.2910 C   0  0  0  0  0  0  0  0  0  0  0  0
  141.0030   71.2620  227.2310 C   0  0  0  0  0  0  0  0  0  0  0  0
  140.4170   70.8850  226.0180 C   0  0  0  0  0  0  0  0  0  0  0  0
  140.3550   71.7680  224.9860 N   0  0  0  0  0  0  0  0  0  0  0  0
  141.8710   72.5610  222.3930 H   0  0  0  0  0  0  0  0  0  0  0  0
  141.5869   74.0956  220.4069 H   0  0  0  0  0  0  0  0  0  0  0  0
  138.9090   74.7070  223.0130 H   0  0  0  0  0  0  0  0  0  0  0  0
  138.6632   75.8648  219.6817 H   0  0  0  0  0  0  0  0  0  0  0  0
  138.7409   77.5784  220.2676 H   0  0  0  0  0  0  0  0  0  0  0  0
  140.1789   76.3648  217.8675 H   0  0  0  0  0  0  0  0  0  0  0  0
  138.8816   77.6230  217.8735 H   0  0  0  0  0  0  0  0  0  0  0  0
  141.1093   78.6332  217.5150 H   0  0  0  0  0  0  0  0  0  0  0  0
  140.3789   79.1690  219.0733 H   0  0  0  0  0  0  0  0  0  0  0  0
  142.5046   77.0113  218.6790 H   0  0  0  0  0  0  0  0  0  0  0  0
  142.7003   78.6584  219.4400 H   0  0  0  0  0  0  0  0  0  0  0  0
  142.4961   76.5204  220.9271 H   0  0  0  0  0  0  0  0  0  0  0  0
  142.0792   79.8937  220.3299 H   0  0  0  0  0  0  0  0  0  0  0  0
  142.0724   81.6932  222.0547 H   0  0  0  0  0  0  0  0  0  0  0  0
  141.6568   81.1310  224.4492 H   0  0  0  0  0  0  0  0  0  0  0  0
  141.2435   78.7651  225.1218 H   0  0  0  0  0  0  0  0  0  0  0  0
  141.2446   76.9561  223.4072 H   0  0  0  0  0  0  0  0  0  0  0  0
  138.8014   69.8859  222.6377 H   0  0  0  0  0  0  0  0  0  0  0  0
  138.8923   68.2217  224.5015 H   0  0  0  0  0  0  0  0  0  0  0  0
  139.5489   67.6610  226.8173 H   0  0  0  0  0  0  0  0  0  0  0  0
  140.5934   68.3498  228.9788 H   0  0  0  0  0  0  0  0  0  0  0  0
  141.5256   70.6493  229.2443 H   0  0  0  0  0  0  0  0  0  0  0  0
  141.4151   72.2748  227.3514 H   0  0  0  0  0  0  0  0  0  0  0  0
  1  2  2  0
  2  3  1  0
  3  4  1  0
  4  5  2  0
  5  6  1  0
  5  7  1  0
  7  8  1  0
  8  9  1  0
  9 10  1  0
 10 11  1  0
 11 12  1  0
 12 13  1  0
 13 14  2  0
 14 15  1  0
 15 16  2  0
 16 17  1  0
 17 18  2  0
  2 19  1  0
 19 20  2  0
 20 21  1  0
 21 22  2  0
 22 23  1  0
 23 24  2  0
 24 25  1  0
 25 26  2  0
 26 27  1  0
 27 28  2  0
 12  7  1  0
 18 13  1  0
 28 19  1  0
 27 22  1  0
  3 29  1  0
  4 30  1  0
  6 31  1  0
  8 32  1  0
  8 33  1  0
  9 34  1  0
  9 35  1  0
 10 36  1  0
 10 37  1  0
 11 38  1  0
 11 39  1  0
 12 40  1  1
 14 41  1  0
 15 42  1  0
 16 43  1  0
 17 44  1  0
 18 45  1  0
 20 46  1  0
 21 47  1  0
 23 48  1  0
 24 49  1  0
 25 50  1  0
 26 51  1  0
M  END
>  <meeko>  (11) 
{"free_energy": -8.48, "intermolecular_energy": -10.27, "internal_energy": -1.85, "cluster_size": 5, "cluster_id": 1, "rank_in_cluster": 4}

$$$$

     RDKit          3D

 51 54  0  0  0  0  0  0  0  0999 V2000
  138.2570   72.1830  222.5870 O   0  0  0  0  0  0  0  0  0  0  0  0
  139.3770   71.6450  222.8060 C   0  0  0  0  0  0  0  0  0  0  0  0
  140.4940   71.9410  221.9510 N   0  0  0  0  0  0  0  0  0  0  0  0
  140.4850   72.9930  220.9760 C   0  0  0  0  0  0  0  0  0  0  0  0
  140.4720   74.2900  221.3120 C   0  0  0  0  0  0  0  0  0  0  0  0
  139.6430   74.7350  222.3420 O   0  0  0  0  0  0  0  0  0  0  0  0
  141.3490   75.2150  220.6420 N   0  0  0  0  0  0  0  0  0  0  0  0
  141.4500   76.5940  221.1510 C   0  0  0  0  0  0  0  0  0  0  0  0
  141.6010   77.6050  220.0160 C   0  0  0  0  0  0  0  0  0  0  0  0
  142.7220   77.1940  219.0660 C   0  0  0  0  0  0  0  0  0  0  0  0
  142.4230   75.8270  218.4520 C   0  0  0  0  0  0  0  0  0  0  0  0
  142.1640   74.7280  219.5070 C   0  0  1  0  0  0  0  0  0  0  0  0
  143.4530   74.0550  219.9580 C   0  0  0  0  0  0  0  0  0  0  0  0
  143.5620   72.6520  219.8730 C   0  0  0  0  0  0  0  0  0  0  0  0
  144.7350   72.0030  220.2680 C   0  0  0  0  0  0  0  0  0  0  0  0
  145.8190   72.7440  220.7420 C   0  0  0  0  0  0  0  0  0  0  0  0
  145.7320   74.1350  220.8190 C   0  0  0  0  0  0  0  0  0  0  0  0
  144.5600   74.7890  220.4250 C   0  0  0  0  0  0  0  0  0  0  0  0
  139.5260   70.6880  223.9240 C   0  0  0  0  0  0  0  0  0  0  0  0
  139.0060   69.3850  223.8380 C   0  0  0  0  0  0  0  0  0  0  0  0
  139.1590   68.5070  224.9140 C   0  0  0  0  0  0  0  0  0  0  0  0
  139.8240   68.9280  226.0700 C   0  0  0  0  0  0  0  0  0  0  0  0
  139.9950   68.0720  227.1670 C   0  0  0  0  0  0  0  0  0  0  0  0
  140.6650   68.5240  228.3090 C   0  0  0  0  0  0  0  0  0  0  0  0
  141.1670   69.8290  228.3590 C   0  0  0  0  0  0  0  0  0  0  0  0
  141.0020   70.6890  227.2680 C   0  0  0  0  0  0  0  0  0  0  0  0
  140.3320   70.2450  226.1230 C   0  0  0  0  0  0  0  0  0  0  0  0
  140.1700   71.0780  225.0600 N   0  0  0  0  0  0  0  0  0  0  0  0
  141.2800   71.2560  221.9000 H   0  0  0  0  0  0  0  0  0  0  0  0
  140.4889   72.7241  219.9094 H   0  0  0  0  0  0  0  0  0  0  0  0
  138.9760   74.1200  222.7900 H   0  0  0  0  0  0  0  0  0  0  0  0
  140.5396   76.8312  221.7211 H   0  0  0  0  0  0  0  0  0  0  0  0
  142.3431   76.6594  221.7898 H   0  0  0  0  0  0  0  0  0  0  0  0
  140.6562   77.6608  219.4554 H   0  0  0  0  0  0  0  0  0  0  0  0
  141.8493   78.5851  220.4493 H   0  0  0  0  0  0  0  0  0  0  0  0
  142.8094   77.9410  218.2633 H   0  0  0  0  0  0  0  0  0  0  0  0
  143.6646   77.1343  219.6298 H   0  0  0  0  0  0  0  0  0  0  0  0
  141.5305   75.9176  217.8155 H   0  0  0  0  0  0  0  0  0  0  0  0
  143.3117   75.5256  217.8781 H   0  0  0  0  0  0  0  0  0  0  0  0
  141.5621   73.9511  219.0129 H   0  0  0  0  0  0  0  0  0  0  0  0
  142.7153   72.0622  219.4920 H   0  0  0  0  0  0  0  0  0  0  0  0
  144.8042   70.9070  220.2053 H   0  0  0  0  0  0  0  0  0  0  0  0
  146.7411   72.2321  221.0546 H   0  0  0  0  0  0  0  0  0  0  0  0
  146.5873   74.7184  221.1905 H   0  0  0  0  0  0  0  0  0  0  0  0
  144.5027   75.8861  220.4805 H   0  0  0  0  0  0  0  0  0  0  0  0
  138.4812   69.0582  222.9282 H   0  0  0  0  0  0  0  0  0  0  0  0
  138.7566   67.4851  224.8519 H   0  0  0  0  0  0  0  0  0  0  0  0
  139.6024   67.0451  227.1299 H   0  0  0  0  0  0  0  0  0  0  0  0
  140.7974   67.8518  229.1696 H   0  0  0  0  0  0  0  0  0  0  0  0
  141.6931   70.1799  229.2590 H   0  0  0  0  0  0  0  0  0  0  0  0
  141.3989   71.7140  227.3105 H   0  0  0  0  0  0  0  0  0  0  0  0
  1  2  2  0
  2  3  1  0
  3  4  1  0
  4  5  2  0
  5  6  1  0
  5  7  1  0
  7  8  1  0
  8  9  1  0
  9 10  1  0
 10 11  1  0
 11 12  1  0
 12 13  1  0
 13 14  2  0
 14 15  1  0
 15 16  2  0
 16 17  1  0
 17 18  2  0
  2 19  1  0
 19 20  2  0
 20 21  1  0
 21 22  2  0
 22 23  1  0
 23 24  2  0
 24 25  1  0
 25 26  2  0
 26 27  1  0
 27 28  2  0
 12  7  1  0
 18 13  1  0
 28 19  1  0
 27 22  1  0
  3 29  1  0
  4 30  1  0
  6 31  1  0
  8 32  1  0
  8 33  1  0
  9 34  1  0
  9 35  1  0
 10 36  1  0
 10 37  1  0
 11 38  1  0
 11 39  1  0
 12 40  1  6
 14 41  1  0
 15 42  1  0
 16 43  1  0
 17 44  1  0
 18 45  1  0
 20 46  1  0
 21 47  1  0
 23 48  1  0
 24 49  1  0
 25 50  1  0
 26 51  1  0
M  END
>  <meeko>  (12) 
{"free_energy": -8.82, "intermolecular_energy": -10.61, "internal_energy": -1.9, "cluster_size": 14, "cluster_id": 2, "rank_in_cluster": 3}

$$$$

     RDKit          3D

 51 54  0  0  0  0  0  0  0  0999 V2000
  138.2600   72.1510  222.5360 O   0  0  0  0  0  0  0  0  0  0  0  0
  139.3840   71.6280  222.7770 C   0  0  0  0  0  0  0  0  0  0  0  0
  140.5130   71.9380  221.9420 N   0  0  0  0  0  0  0  0  0  0  0  0
  140.5080   72.9880  220.9650 C   0  0  0  0  0  0  0  0  0  0  0  0
  140.4990   74.2860  221.3000 C   0  0  0  0  0  0  0  0  0  0  0  0
  139.6790   74.7320  222.3360 O   0  0  0  0  0  0  0  0  0  0  0  0
  141.3690   75.2090  220.6190 N   0  0  0  0  0  0  0  0  0  0  0  0
  141.4570   76.5960  221.1100 C   0  0  0  0  0  0  0  0  0  0  0  0
  141.6010   77.5920  219.9610 C   0  0  0  0  0  0  0  0  0  0  0  0
  142.7290   77.1790  219.0200 C   0  0  0  0  0  0  0  0  0  0  0  0
  142.4440   75.8010  218.4240 C   0  0  0  0  0  0  0  0  0  0  0  0
  142.1910   74.7140  219.4930 C   0  0  1  0  0  0  0  0  0  0  0  0
  143.4850   74.0590  219.9560 C   0  0  0  0  0  0  0  0  0  0  0  0
  143.6210   72.6590  219.8530 C   0  0  0  0  0  0  0  0  0  0  0  0
  144.8000   72.0260  220.2580 C   0  0  0  0  0  0  0  0  0  0  0  0
  145.8620   72.7800  220.7620 C   0  0  0  0  0  0  0  0  0  0  0  0
  145.7470   74.1680  220.8570 C   0  0  0  0  0  0  0  0  0  0  0  0
  144.5700   74.8060  220.4520 C   0  0  0  0  0  0  0  0  0  0  0  0
  139.5240   70.6750  223.9000 C   0  0  0  0  0  0  0  0  0  0  0  0
  139.0010   69.3740  223.8160 C   0  0  0  0  0  0  0  0  0  0  0  0
  139.1450   68.4990  224.8960 C   0  0  0  0  0  0  0  0  0  0  0  0
  139.8060   68.9230  226.0530 C   0  0  0  0  0  0  0  0  0  0  0  0
  139.9690   68.0700  227.1550 C   0  0  0  0  0  0  0  0  0  0  0  0
  140.6350   68.5250  228.2980 C   0  0  0  0  0  0  0  0  0  0  0  0
  141.1410   69.8280  228.3450 C   0  0  0  0  0  0  0  0  0  0  0  0
  140.9840   70.6840  227.2510 C   0  0  0  0  0  0  0  0  0  0  0  0
  140.3180   70.2380  226.1040 C   0  0  0  0  0  0  0  0  0  0  0  0
  140.1640   71.0670  225.0370 N   0  0  0  0  0  0  0  0  0  0  0  0
  141.3080   71.2630  221.9080 H   0  0  0  0  0  0  0  0  0  0  0  0
  140.5117   72.7176  219.8988 H   0  0  0  0  0  0  0  0  0  0  0  0
  138.9880   74.1300  222.7650 H   0  0  0  0  0  0  0  0  0  0  0  0
  140.5436   76.8330  221.6753 H   0  0  0  0  0  0  0  0  0  0  0  0
  142.3480   76.6782  221.7498 H   0  0  0  0  0  0  0  0  0  0  0  0
  140.6573   77.6300  219.3970 H   0  0  0  0  0  0  0  0  0  0  0  0
  141.8380   78.5807  220.3808 H   0  0  0  0  0  0  0  0  0  0  0  0
  142.8120   77.9158  218.2075 H   0  0  0  0  0  0  0  0  0  0  0  0
  143.6706   77.1361  219.5870 H   0  0  0  0  0  0  0  0  0  0  0  0
  141.5529   75.8750  217.7834 H   0  0  0  0  0  0  0  0  0  0  0  0
  143.3374   75.4996  217.8574 H   0  0  0  0  0  0  0  0  0  0  0  0
  141.5967   73.9254  219.0083 H   0  0  0  0  0  0  0  0  0  0  0  0
  142.7915   72.0593  219.4501 H   0  0  0  0  0  0  0  0  0  0  0  0
  144.8912   70.9326  220.1796 H   0  0  0  0  0  0  0  0  0  0  0  0
  146.7879   72.2808  221.0837 H   0  0  0  0  0  0  0  0  0  0  0  0
  146.5846   74.7618  221.2516 H   0  0  0  0  0  0  0  0  0  0  0  0
  144.4916   75.9010  220.5217 H   0  0  0  0  0  0  0  0  0  0  0  0
  138.4805   69.0455  222.9043 H   0  0  0  0  0  0  0  0  0  0  0  0
  138.7391   67.4784  224.8361 H   0  0  0  0  0  0  0  0  0  0  0  0
  139.5734   67.0442  227.1202 H   0  0  0  0  0  0  0  0  0  0  0  0
  140.7610   67.8561  229.1621 H   0  0  0  0  0  0  0  0  0  0  0  0
  141.6644   70.1805  229.2460 H   0  0  0  0  0  0  0  0  0  0  0  0
  141.3839   71.7079  227.2918 H   0  0  0  0  0  0  0  0  0  0  0  0
  1  2  2  0
  2  3  1  0
  3  4  1  0
  4  5  2  0
  5  6  1  0
  5  7  1  0
  7  8  1  0
  8  9  1  0
  9 10  1  0
 10 11  1  0
 11 12  1  0
 12 13  1  0
 13 14  2  0
 14 15  1  0
 15 16  2  0
 16 17  1  0
 17 18  2  0
  2 19  1  0
 19 20  2  0
 20 21  1  0
 21 22  2  0
 22 23  1  0
 23 24  2  0
 24 25  1  0
 25 26  2  0
 26 27  1  0
 27 28  2  0
 12  7  1  0
 18 13  1  0
 28 19  1  0
 27 22  1  0
  3 29  1  0
  4 30  1  0
  6 31  1  0
  8 32  1  0
  8 33  1  0
  9 34  1  0
  9 35  1  0
 10 36  1  0
 10 37  1  0
 11 38  1  0
 11 39  1  0
 12 40  1  6
 14 41  1  0
 15 42  1  0
 16 43  1  0
 17 44  1  0
 18 45  1  0
 20 46  1  0
 21 47  1  0
 23 48  1  0
 24 49  1  0
 25 50  1  0
 26 51  1  0
M  END
>  <meeko>  (13) 
{"free_energy": -8.82, "intermolecular_energy": -10.61, "internal_energy": -1.9, "cluster_size": 14, "cluster_id": 2, "rank_in_cluster": 1}

$$$$

     RDKit          3D

 51 54  0  0  0  0  0  0  0  0999 V2000
  138.1660   72.2800  222.6500 O   0  0  0  0  0  0  0  0  0  0  0  0
  139.2910   71.7330  222.8180 C   0  0  0  0  0  0  0  0  0  0  0  0
  140.3770   72.0380  221.9260 N   0  0  0  0  0  0  0  0  0  0  0  0
  140.3360   73.1060  220.9690 C   0  0  0  0  0  0  0  0  0  0  0  0
  140.3750   74.3970  221.3250 C   0  0  0  0  0  0  0  0  0  0  0  0
  139.5790   74.8530  222.3760 O   0  0  0  0  0  0  0  0  0  0  0  0
  141.2720   75.3010  220.6530 N   0  0  0  0  0  0  0  0  0  0  0  0
  141.3870   76.6850  221.1480 C   0  0  0  0  0  0  0  0  0  0  0  0
  141.5630   77.6800  220.0020 C   0  0  0  0  0  0  0  0  0  0  0  0
  142.6890   77.2420  219.0690 C   0  0  0  0  0  0  0  0  0  0  0  0
  142.3770   75.8720  218.4680 C   0  0  0  0  0  0  0  0  0  0  0  0
  142.0910   74.7900  219.5330 C   0  0  1  0  0  0  0  0  0  0  0  0
  143.3660   74.1040  220.0050 C   0  0  0  0  0  0  0  0  0  0  0  0
  143.4280   72.6960  220.0070 C   0  0  0  0  0  0  0  0  0  0  0  0
  144.5880   72.0340  220.4230 C   0  0  0  0  0  0  0  0  0  0  0  0
  145.7020   72.7670  220.8330 C   0  0  0  0  0  0  0  0  0  0  0  0
  145.6610   74.1630  220.8240 C   0  0  0  0  0  0  0  0  0  0  0  0
  144.5040   74.8290  220.4080 C   0  0  0  0  0  0  0  0  0  0  0  0
  139.4760   70.7580  223.9150 C   0  0  0  0  0  0  0  0  0  0  0  0
  139.0180   69.4350  223.7930 C   0  0  0  0  0  0  0  0  0  0  0  0
  139.2030   68.5390  224.8490 C   0  0  0  0  0  0  0  0  0  0  0  0
  139.8400   68.9620  226.0200 C   0  0  0  0  0  0  0  0  0  0  0  0
  140.0430   68.0890  227.0990 C   0  0  0  0  0  0  0  0  0  0  0  0
  140.6830   68.5440  228.2560 C   0  0  0  0  0  0  0  0  0  0  0  0
  141.1240   69.8690  228.3410 C   0  0  0  0  0  0  0  0  0  0  0  0
  140.9260   70.7460  227.2700 C   0  0  0  0  0  0  0  0  0  0  0  0
  140.2860   70.2990  226.1090 C   0  0  0  0  0  0  0  0  0  0  0  0
  140.0930   71.1500  225.0650 N   0  0  0  0  0  0  0  0  0  0  0  0
  141.1560   71.3500  221.8350 H   0  0  0  0  0  0  0  0  0  0  0  0
  140.2699   72.8549  219.9001 H   0  0  0  0  0  0  0  0  0  0  0  0
  138.8500   74.2790  222.7790 H   0  0  0  0  0  0  0  0  0  0  0  0
  140.4745   76.9413  221.7062 H   0  0  0  0  0  0  0  0  0  0  0  0
  142.2741   76.7459  221.7955 H   0  0  0  0  0  0  0  0  0  0  0  0
  140.6250   77.7410  219.4307 H   0  0  0  0  0  0  0  0  0  0  0  0
  141.8193   78.6623  220.4255 H   0  0  0  0  0  0  0  0  0  0  0  0
  142.7957   77.9780  218.2585 H   0  0  0  0  0  0  0  0  0  0  0  0
  143.6246   77.1760  219.6437 H   0  0  0  0  0  0  0  0  0  0  0  0
  141.4927   75.9675  217.8207 H   0  0  0  0  0  0  0  0  0  0  0  0
  143.2673   75.5510  217.9074 H   0  0  0  0  0  0  0  0  0  0  0  0
  141.4824   74.0164  219.0419 H   0  0  0  0  0  0  0  0  0  0  0  0
  142.5558   72.1119  219.6783 H   0  0  0  0  0  0  0  0  0  0  0  0
  144.6218   70.9345  220.4269 H   0  0  0  0  0  0  0  0  0  0  0  0
  146.6125   72.2455  221.1633 H   0  0  0  0  0  0  0  0  0  0  0  0
  146.5409   74.7399  221.1449 H   0  0  0  0  0  0  0  0  0  0  0  0
  144.4826   75.9287  220.3954 H   0  0  0  0  0  0  0  0  0  0  0  0
  138.5164   69.1065  222.8708 H   0  0  0  0  0  0  0  0  0  0  0  0
  138.8479   67.5017  224.7594 H   0  0  0  0  0  0  0  0  0  0  0  0
  139.6987   67.0462  227.0350 H   0  0  0  0  0  0  0  0  0  0  0  0
  140.8402   67.8583  229.1016 H   0  0  0  0  0  0  0  0  0  0  0  0
  141.6279   70.2219  229.2529 H   0  0  0  0  0  0  0  0  0  0  0  0
  141.2734   71.7873  227.3403 H   0  0  0  0  0  0  0  0  0  0  0  0
  1  2  2  0
  2  3  1  0
  3  4  1  0
  4  5  2  0
  5  6  1  0
  5  7  1  0
  7  8  1  0
  8  9  1  0
  9 10  1  0
 10 11  1  0
 11 12  1  0
 12 13  1  0
 13 14  2  0
 14 15  1  0
 15 16  2  0
 16 17  1  0
 17 18  2  0
  2 19  1  0
 19 20  2  0
 20 21  1  0
 21 22  2  0
 22 23  1  0
 23 24  2  0
 24 25  1  0
 25 26  2  0
 26 27  1  0
 27 28  2  0
 12  7  1  0
 18 13  1  0
 28 19  1  0
 27 22  1  0
  3 29  1  0
  4 30  1  0
  6 31  1  0
  8 32  1  0
  8 33  1  0
  9 34  1  0
  9 35  1  0
 10 36  1  0
 10 37  1  0
 11 38  1  0
 11 39  1  0
 12 40  1  6
 14 41  1  0
 15 42  1  0
 16 43  1  0
 17 44  1  0
 18 45  1  0
 20 46  1  0
 21 47  1  0
 23 48  1  0
 24 49  1  0
 25 50  1  0
 26 51  1  0
M  END
>  <meeko>  (14) 
{"free_energy": -8.79, "intermolecular_energy": -10.58, "internal_energy": -1.91, "cluster_size": 14, "cluster_id": 2, "rank_in_cluster": 7}

$$$$

     RDKit          3D

 51 54  0  0  0  0  0  0  0  0999 V2000
  141.1070   75.0360  220.9710 O   0  0  0  0  0  0  0  0  0  0  0  0
  140.2660   75.3910  221.8430 C   0  0  0  0  0  0  0  0  0  0  0  0
  139.3080   74.4420  222.3430 N   0  0  0  0  0  0  0  0  0  0  0  0
  139.3780   73.0350  222.0770 C   0  0  0  0  0  0  0  0  0  0  0  0
  138.4430   72.1720  222.4990 C   0  0  0  0  0  0  0  0  0  0  0  0
  137.1520   72.6240  222.7720 O   0  0  0  0  0  0  0  0  0  0  0  0
  138.7610   70.7730  222.6250 N   0  0  0  0  0  0  0  0  0  0  0  0
  139.5730   70.1320  221.5750 C   0  0  0  0  0  0  0  0  0  0  0  0
  139.1180   68.6990  221.3080 C   0  0  0  0  0  0  0  0  0  0  0  0
  139.0210   67.9070  222.6090 C   0  0  0  0  0  0  0  0  0  0  0  0
  138.0120   68.5600  223.5530 C   0  0  0  0  0  0  0  0  0  0  0  0
  138.3150   70.0480  223.8350 C   0  0  1  0  0  0  0  0  0  0  0  0
  139.2700   70.2240  225.0080 C   0  0  0  0  0  0  0  0  0  0  0  0
  140.1890   71.2930  224.9930 C   0  0  0  0  0  0  0  0  0  0  0  0
  141.0710   71.4890  226.0590 C   0  0  0  0  0  0  0  0  0  0  0  0
  141.0430   70.6290  227.1580 C   0  0  0  0  0  0  0  0  0  0  0  0
  140.1300   69.5740  227.1940 C   0  0  0  0  0  0  0  0  0  0  0  0
  139.2450   69.3740  226.1300 C   0  0  0  0  0  0  0  0  0  0  0  0
  140.2530   76.7900  222.3240 C   0  0  0  0  0  0  0  0  0  0  0  0
  139.0430   77.4470  222.6070 C   0  0  0  0  0  0  0  0  0  0  0  0
  139.0630   78.7710  223.0540 C   0  0  0  0  0  0  0  0  0  0  0  0
  140.2840   79.4340  223.2150 C   0  0  0  0  0  0  0  0  0  0  0  0
  140.3410   80.7630  223.6620 C   0  0  0  0  0  0  0  0  0  0  0  0
  141.5780   81.3980  223.8110 C   0  0  0  0  0  0  0  0  0  0  0  0
  142.7610   80.7120  223.5170 C   0  0  0  0  0  0  0  0  0  0  0  0
  142.7130   79.3870  223.0720 C   0  0  0  0  0  0  0  0  0  0  0  0
  141.4800   78.7440  222.9190 C   0  0  0  0  0  0  0  0  0  0  0  0
  141.4300   77.4560  222.4860 N   0  0  0  0  0  0  0  0  0  0  0  0
  138.4220   74.8010  222.7630 H   0  0  0  0  0  0  0  0  0  0  0  0
  140.2333   72.6480  221.5036 H   0  0  0  0  0  0  0  0  0  0  0  0
  136.9530   73.2140  223.5700 H   0  0  0  0  0  0  0  0  0  0  0  0
  139.4803   70.7147  220.6466 H   0  0  0  0  0  0  0  0  0  0  0  0
  140.6177   70.1027  221.9181 H   0  0  0  0  0  0  0  0  0  0  0  0
  138.1304   68.7190  220.8241 H   0  0  0  0  0  0  0  0  0  0  0  0
  139.8564   68.2119  220.6542 H   0  0  0  0  0  0  0  0  0  0  0  0
  138.6968   66.8799  222.3854 H   0  0  0  0  0  0  0  0  0  0  0  0
  140.0081   67.8931  223.0941 H   0  0  0  0  0  0  0  0  0  0  0  0
  137.0121   68.4868  223.1004 H   0  0  0  0  0  0  0  0  0  0  0  0
  138.0717   68.0272  224.5135 H   0  0  0  0  0  0  0  0  0  0  0  0
  137.3638   70.5126  224.1340 H   0  0  0  0  0  0  0  0  0  0  0  0
  140.2120   71.9795  224.1338 H   0  0  0  0  0  0  0  0  0  0  0  0
  141.7885   72.3224  226.0320 H   0  0  0  0  0  0  0  0  0  0  0  0
  141.7399   70.7826  227.9951 H   0  0  0  0  0  0  0  0  0  0  0  0
  140.1066   68.8981  228.0615 H   0  0  0  0  0  0  0  0  0  0  0  0
  138.5229   68.5452  226.1700 H   0  0  0  0  0  0  0  0  0  0  0  0
  138.0853   76.9217  222.4773 H   0  0  0  0  0  0  0  0  0  0  0  0
  138.1200   79.2908  223.2788 H   0  0  0  0  0  0  0  0  0  0  0  0
  139.4128   81.3052  223.8952 H   0  0  0  0  0  0  0  0  0  0  0  0
  141.6208   82.4401  224.1605 H   0  0  0  0  0  0  0  0  0  0  0  0
  143.7315   81.2159  223.6361 H   0  0  0  0  0  0  0  0  0  0  0  0
  143.6452   78.8502  222.8422 H   0  0  0  0  0  0  0  0  0  0  0  0
  1  2  2  0
  2  3  1  0
  3  4  1  0
  4  5  2  0
  5  6  1  0
  5  7  1  0
  7  8  1  0
  8  9  1  0
  9 10  1  0
 10 11  1  0
 11 12  1  0
 12 13  1  0
 13 14  2  0
 14 15  1  0
 15 16  2  0
 16 17  1  0
 17 18  2  0
  2 19  1  0
 19 20  2  0
 20 21  1  0
 21 22  2  0
 22 23  1  0
 23 24  2  0
 24 25  1  0
 25 26  2  0
 26 27  1  0
 27 28  2  0
 12  7  1  0
 18 13  1  0
 28 19  1  0
 27 22  1  0
  3 29  1  0
  4 30  1  0
  6 31  1  0
  8 32  1  0
  8 33  1  0
  9 34  1  0
  9 35  1  0
 10 36  1  0
 10 37  1  0
 11 38  1  0
 11 39  1  0
 12 40  1  1
 14 41  1  0
 15 42  1  0
 16 43  1  0
 17 44  1  0
 18 45  1  0
 20 46  1  0
 21 47  1  0
 23 48  1  0
 24 49  1  0
 25 50  1  0
 26 51  1  0
M  END
>  <meeko>  (15) 
{"free_energy": -8.46, "intermolecular_energy": -10.25, "internal_energy": -1.38, "cluster_size": 1, "cluster_id": 3, "rank_in_cluster": 1}

$$$$

     RDKit          3D

 51 54  0  0  0  0  0  0  0  0999 V2000
  140.6950   71.1000  221.4210 O   0  0  0  0  0  0  0  0  0  0  0  0
  140.2570   71.5580  222.5120 C   0  0  0  0  0  0  0  0  0  0  0  0
  139.9730   72.9620  222.6370 N   0  0  0  0  0  0  0  0  0  0  0  0
  139.9460   73.8650  221.5230 C   0  0  0  0  0  0  0  0  0  0  0  0
  140.2380   75.1680  221.6410 C   0  0  0  0  0  0  0  0  0  0  0  0
  139.7050   75.9080  222.6960 O   0  0  0  0  0  0  0  0  0  0  0  0
  141.1380   75.7900  220.7050 N   0  0  0  0  0  0  0  0  0  0  0  0
  141.4550   77.2200  220.8680 C   0  0  0  0  0  0  0  0  0  0  0  0
  141.5970   77.9230  219.5200 C   0  0  0  0  0  0  0  0  0  0  0  0
  142.5520   77.1610  218.6060 C   0  0  0  0  0  0  0  0  0  0  0  0
  142.0290   75.7470  218.3540 C   0  0  0  0  0  0  0  0  0  0  0  0
  141.7610   74.9560  219.6540 C   0  0  1  0  0  0  0  0  0  0  0  0
  143.0040   74.2260  220.1440 C   0  0  0  0  0  0  0  0  0  0  0  0
  142.9330   72.8420  220.3970 C   0  0  0  0  0  0  0  0  0  0  0  0
  144.0590   72.1390  220.8370 C   0  0  0  0  0  0  0  0  0  0  0  0
  145.2710   72.8050  221.0220 C   0  0  0  0  0  0  0  0  0  0  0  0
  145.3610   74.1740  220.7630 C   0  0  0  0  0  0  0  0  0  0  0  0
  144.2380   74.8810  220.3210 C   0  0  0  0  0  0  0  0  0  0  0  0
  140.0660   70.6520  223.6660 C   0  0  0  0  0  0  0  0  0  0  0  0
  139.3490   69.4510  223.5330 C   0  0  0  0  0  0  0  0  0  0  0  0
  139.1820   68.6190  224.6430 C   0  0  0  0  0  0  0  0  0  0  0  0
  139.7240   68.9860  225.8790 C   0  0  0  0  0  0  0  0  0  0  0  0
  139.5750   68.1750  227.0130 C   0  0  0  0  0  0  0  0  0  0  0  0
  140.1290   68.5710  228.2340 C   0  0  0  0  0  0  0  0  0  0  0  0
  140.8350   69.7760  228.3280 C   0  0  0  0  0  0  0  0  0  0  0  0
  140.9890   70.5900  227.2020 C   0  0  0  0  0  0  0  0  0  0  0  0
  140.4370   70.2020  225.9770 C   0  0  0  0  0  0  0  0  0  0  0  0
  140.5850   70.9910  224.8790 N   0  0  0  0  0  0  0  0  0  0  0  0
  139.9670   73.3880  223.5910 H   0  0  0  0  0  0  0  0  0  0  0  0
  139.6747   73.4725  220.5318 H   0  0  0  0  0  0  0  0  0  0  0  0
  139.1660   75.4710  223.4330 H   0  0  0  0  0  0  0  0  0  0  0  0
  140.6470   77.7017  221.4382 H   0  0  0  0  0  0  0  0  0  0  0  0
  142.4144   77.3006  221.4001 H   0  0  0  0  0  0  0  0  0  0  0  0
  140.6094   77.9828  219.0393 H   0  0  0  0  0  0  0  0  0  0  0  0
  142.0032   78.9309  219.6905 H   0  0  0  0  0  0  0  0  0  0  0  0
  142.6381   77.6925  217.6468 H   0  0  0  0  0  0  0  0  0  0  0  0
  143.5373   77.0973  219.0908 H   0  0  0  0  0  0  0  0  0  0  0  0
  141.0886   75.8179  217.7878 H   0  0  0  0  0  0  0  0  0  0  0  0
  142.8073   75.2053  217.7965 H   0  0  0  0  0  0  0  0  0  0  0  0
  141.0214   74.1806  219.4056 H   0  0  0  0  0  0  0  0  0  0  0  0
  141.9825   72.3090  220.2470 H   0  0  0  0  0  0  0  0  0  0  0  0
  143.9891   71.0597  221.0375 H   0  0  0  0  0  0  0  0  0  0  0  0
  146.1551   72.2518  221.3717 H   0  0  0  0  0  0  0  0  0  0  0  0
  146.3175   74.6979  220.9069 H   0  0  0  0  0  0  0  0  0  0  0  0
  144.3194   75.9575  220.1099 H   0  0  0  0  0  0  0  0  0  0  0  0
  138.9214   69.1672  222.5601 H   0  0  0  0  0  0  0  0  0  0  0  0
  138.6245   67.6758  224.5448 H   0  0  0  0  0  0  0  0  0  0  0  0
  139.0220   67.2268  226.9420 H   0  0  0  0  0  0  0  0  0  0  0  0
  140.0098   67.9341  229.1229 H   0  0  0  0  0  0  0  0  0  0  0  0
  141.2698   70.0833  229.2906 H   0  0  0  0  0  0  0  0  0  0  0  0
  141.5446   71.5362  227.2795 H   0  0  0  0  0  0  0  0  0  0  0  0
  1  2  2  0
  2  3  1  0
  3  4  1  0
  4  5  2  0
  5  6  1  0
  5  7  1  0
  7  8  1  0
  8  9  1  0
  9 10  1  0
 10 11  1  0
 11 12  1  0
 12 13  1  0
 13 14  2  0
 14 15  1  0
 15 16  2  0
 16 17  1  0
 17 18  2  0
  2 19  1  0
 19 20  2  0
 20 21  1  0
 21 22  2  0
 22 23  1  0
 23 24  2  0
 24 25  1  0
 25 26  2  0
 26 27  1  0
 27 28  2  0
 12  7  1  0
 18 13  1  0
 28 19  1  0
 27 22  1  0
  3 29  1  0
  4 30  1  0
  6 31  1  0
  8 32  1  0
  8 33  1  0
  9 34  1  0
  9 35  1  0
 10 36  1  0
 10 37  1  0
 11 38  1  0
 11 39  1  0
 12 40  1  6
 14 41  1  0
 15 42  1  0
 16 43  1  0
 17 44  1  0
 18 45  1  0
 20 46  1  0
 21 47  1  0
 23 48  1  0
 24 49  1  0
 25 50  1  0
 26 51  1  0
M  END
>  <meeko>  (16) 
{"free_energy": -8.42, "intermolecular_energy": -10.21, "internal_energy": -1.68, "cluster_size": 14, "cluster_id": 2, "rank_in_cluster": 11}

$$$$

     RDKit          3D

 51 54  0  0  0  0  0  0  0  0999 V2000
  138.2740   72.2170  222.6550 O   0  0  0  0  0  0  0  0  0  0  0  0
  139.3830   71.6480  222.8540 C   0  0  0  0  0  0  0  0  0  0  0  0
  140.4930   71.9150  221.9800 N   0  0  0  0  0  0  0  0  0  0  0  0
  140.4960   72.9680  221.0060 C   0  0  0  0  0  0  0  0  0  0  0  0
  140.4560   74.2640  221.3440 C   0  0  0  0  0  0  0  0  0  0  0  0
  139.5870   74.6960  222.3460 O   0  0  0  0  0  0  0  0  0  0  0  0
  141.3420   75.2010  220.7030 N   0  0  0  0  0  0  0  0  0  0  0  0
  141.4360   76.5700  221.2420 C   0  0  0  0  0  0  0  0  0  0  0  0
  141.6020   77.6030  220.1290 C   0  0  0  0  0  0  0  0  0  0  0  0
  142.7360   77.2110  219.1860 C   0  0  0  0  0  0  0  0  0  0  0  0
  142.4450   75.8560  218.5410 C   0  0  0  0  0  0  0  0  0  0  0  0
  142.1710   74.7370  219.5710 C   0  0  1  0  0  0  0  0  0  0  0  0
  143.4540   74.0540  220.0250 C   0  0  0  0  0  0  0  0  0  0  0  0
  143.5330   72.6470  219.9910 C   0  0  0  0  0  0  0  0  0  0  0  0
  144.7000   71.9890  220.3900 C   0  0  0  0  0  0  0  0  0  0  0  0
  145.8060   72.7240  220.8190 C   0  0  0  0  0  0  0  0  0  0  0  0
  145.7480   74.1180  220.8450 C   0  0  0  0  0  0  0  0  0  0  0  0
  144.5830   74.7810  220.4460 C   0  0  0  0  0  0  0  0  0  0  0  0
  139.5240   70.6860  223.9690 C   0  0  0  0  0  0  0  0  0  0  0  0
  138.9960   69.3880  223.8780 C   0  0  0  0  0  0  0  0  0  0  0  0
  139.1410   68.5040  224.9500 C   0  0  0  0  0  0  0  0  0  0  0  0
  139.8080   68.9170  226.1080 C   0  0  0  0  0  0  0  0  0  0  0  0
  139.9720   68.0560  227.2030 C   0  0  0  0  0  0  0  0  0  0  0  0
  140.6430   68.4990  228.3470 C   0  0  0  0  0  0  0  0  0  0  0  0
  141.1540   69.8000  228.4020 C   0  0  0  0  0  0  0  0  0  0  0  0
  140.9960   70.6650  227.3150 C   0  0  0  0  0  0  0  0  0  0  0  0
  140.3250   70.2290  226.1670 C   0  0  0  0  0  0  0  0  0  0  0  0
  140.1690   71.0680  225.1070 N   0  0  0  0  0  0  0  0  0  0  0  0
  141.2590   71.2080  221.9160 H   0  0  0  0  0  0  0  0  0  0  0  0
  140.5326   72.7011  219.9395 H   0  0  0  0  0  0  0  0  0  0  0  0
  138.9250   74.0670  222.7830 H   0  0  0  0  0  0  0  0  0  0  0  0
  140.5181   76.7959  221.8045 H   0  0  0  0  0  0  0  0  0  0  0  0
  142.3200   76.6226  221.8945 H   0  0  0  0  0  0  0  0  0  0  0  0
  140.6648   77.6696  219.5569 H   0  0  0  0  0  0  0  0  0  0  0  0
  141.8442   78.5744  220.5847 H   0  0  0  0  0  0  0  0  0  0  0  0
  142.8340   77.9738  218.3995 H   0  0  0  0  0  0  0  0  0  0  0  0
  143.6712   77.1403  219.7609 H   0  0  0  0  0  0  0  0  0  0  0  0
  141.5614   75.9595  217.8940 H   0  0  0  0  0  0  0  0  0  0  0  0
  143.3413   75.5652  217.9735 H   0  0  0  0  0  0  0  0  0  0  0  0
  141.5745   73.9708  219.0542 H   0  0  0  0  0  0  0  0  0  0  0  0
  142.6679   72.0611  219.6471 H   0  0  0  0  0  0  0  0  0  0  0  0
  144.7466   70.8903  220.3658 H   0  0  0  0  0  0  0  0  0  0  0  0
  146.7225   72.2050  221.1363 H   0  0  0  0  0  0  0  0  0  0  0  0
  146.6211   74.6971  221.1803 H   0  0  0  0  0  0  0  0  0  0  0  0
  144.5489   75.8804  220.4614 H   0  0  0  0  0  0  0  0  0  0  0  0
  138.4702   69.0685  222.9661 H   0  0  0  0  0  0  0  0  0  0  0  0
  138.7315   67.4852  224.8835 H   0  0  0  0  0  0  0  0  0  0  0  0
  139.5726   67.0319  227.1618 H   0  0  0  0  0  0  0  0  0  0  0  0
  140.7693   67.8230  229.2055 H   0  0  0  0  0  0  0  0  0  0  0  0
  141.6820   70.1437  229.3037 H   0  0  0  0  0  0  0  0  0  0  0  0
  141.3988   71.6875  227.3622 H   0  0  0  0  0  0  0  0  0  0  0  0
  1  2  2  0
  2  3  1  0
  3  4  1  0
  4  5  2  0
  5  6  1  0
  5  7  1  0
  7  8  1  0
  8  9  1  0
  9 10  1  0
 10 11  1  0
 11 12  1  0
 12 13  1  0
 13 14  2  0
 14 15  1  0
 15 16  2  0
 16 17  1  0
 17 18  2  0
  2 19  1  0
 19 20  2  0
 20 21  1  0
 21 22  2  0
 22 23  1  0
 23 24  2  0
 24 25  1  0
 25 26  2  0
 26 27  1  0
 27 28  2  0
 12  7  1  0
 18 13  1  0
 28 19  1  0
 27 22  1  0
  3 29  1  0
  4 30  1  0
  6 31  1  0
  8 32  1  0
  8 33  1  0
  9 34  1  0
  9 35  1  0
 10 36  1  0
 10 37  1  0
 11 38  1  0
 11 39  1  0
 12 40  1  6
 14 41  1  0
 15 42  1  0
 16 43  1  0
 17 44  1  0
 18 45  1  0
 20 46  1  0
 21 47  1  0
 23 48  1  0
 24 49  1  0
 25 50  1  0
 26 51  1  0
M  END
>  <meeko>  (17) 
{"free_energy": -8.81, "intermolecular_energy": -10.6, "internal_energy": -1.89, "cluster_size": 14, "cluster_id": 2, "rank_in_cluster": 4}

$$$$

     RDKit          3D

 51 54  0  0  0  0  0  0  0  0999 V2000
  138.6180   72.5320  222.2140 O   0  0  0  0  0  0  0  0  0  0  0  0
  139.7260   72.2320  222.7390 C   0  0  0  0  0  0  0  0  0  0  0  0
  140.9360   72.8370  222.2500 N   0  0  0  0  0  0  0  0  0  0  0  0
  140.9540   73.9410  221.3350 C   0  0  0  0  0  0  0  0  0  0  0  0
  140.2980   75.0850  221.5710 C   0  0  0  0  0  0  0  0  0  0  0  0
  139.4960   75.2070  222.7060 O   0  0  0  0  0  0  0  0  0  0  0  0
  140.4580   76.2020  220.6760 N   0  0  0  0  0  0  0  0  0  0  0  0
  139.4390   76.4300  219.6360 C   0  0  0  0  0  0  0  0  0  0  0  0
  140.0630   76.9370  218.3370 C   0  0  0  0  0  0  0  0  0  0  0  0
  140.9780   78.1290  218.6020 C   0  0  0  0  0  0  0  0  0  0  0  0
  142.1080   77.7290  219.5510 C   0  0  0  0  0  0  0  0  0  0  0  0
  141.6030   77.1170  220.8760 C   0  0  1  0  0  0  0  0  0  0  0  0
  141.3250   78.1820  221.9280 C   0  0  0  0  0  0  0  0  0  0  0  0
  142.3420   79.1010  222.2600 C   0  0  0  0  0  0  0  0  0  0  0  0
  142.1170   80.0990  223.2130 C   0  0  0  0  0  0  0  0  0  0  0  0
  140.8730   80.2010  223.8390 C   0  0  0  0  0  0  0  0  0  0  0  0
  139.8530   79.3070  223.5110 C   0  0  0  0  0  0  0  0  0  0  0  0
  140.0730   78.3070  222.5580 C   0  0  0  0  0  0  0  0  0  0  0  0
  139.7760   71.2390  223.8330 C   0  0  0  0  0  0  0  0  0  0  0  0
  139.2350   69.9520  223.6690 C   0  0  0  0  0  0  0  0  0  0  0  0
  139.2930   69.0380  224.7240 C   0  0  0  0  0  0  0  0  0  0  0  0
  139.8850   69.4080  225.9360 C   0  0  0  0  0  0  0  0  0  0  0  0
  139.9600   68.5150  227.0150 C   0  0  0  0  0  0  0  0  0  0  0  0
  140.5580   68.9160  228.2140 C   0  0  0  0  0  0  0  0  0  0  0  0
  141.0840   70.2060  228.3410 C   0  0  0  0  0  0  0  0  0  0  0  0
  141.0140   71.1020  227.2690 C   0  0  0  0  0  0  0  0  0  0  0  0
  140.4170   70.7100  226.0670 C   0  0  0  0  0  0  0  0  0  0  0  0
  140.3470   71.5780  225.0230 N   0  0  0  0  0  0  0  0  0  0  0  0
  141.8420   72.3450  222.4170 H   0  0  0  0  0  0  0  0  0  0  0  0
  141.5292   73.8447  220.4024 H   0  0  0  0  0  0  0  0  0  0  0  0
  138.8270   74.4940  222.9630 H   0  0  0  0  0  0  0  0  0  0  0  0
  138.9164   75.4832  219.4350 H   0  0  0  0  0  0  0  0  0  0  0  0
  138.7393   77.1955  220.0026 H   0  0  0  0  0  0  0  0  0  0  0  0
  140.6499   76.1271  217.8792 H   0  0  0  0  0  0  0  0  0  0  0  0
  139.2564   77.2563  217.6606 H   0  0  0  0  0  0  0  0  0  0  0  0
  141.4083   78.4749  217.6506 H   0  0  0  0  0  0  0  0  0  0  0  0
  140.3904   78.9356  219.0648 H   0  0  0  0  0  0  0  0  0  0  0  0
  142.7443   76.9885  219.0442 H   0  0  0  0  0  0  0  0  0  0  0  0
  142.6612   78.6454  219.8045 H   0  0  0  0  0  0  0  0  0  0  0  0
  142.4218   76.4964  221.2690 H   0  0  0  0  0  0  0  0  0  0  0  0
  143.3216   79.0319  221.7644 H   0  0  0  0  0  0  0  0  0  0  0  0
  142.9208   80.8046  223.4699 H   0  0  0  0  0  0  0  0  0  0  0  0
  140.6973   80.9853  224.5900 H   0  0  0  0  0  0  0  0  0  0  0  0
  138.8728   79.3889  224.0034 H   0  0  0  0  0  0  0  0  0  0  0  0
  139.2604   77.6124  222.2988 H   0  0  0  0  0  0  0  0  0  0  0  0
  138.7683   69.6660  222.7148 H   0  0  0  0  0  0  0  0  0  0  0  0
  138.8736   68.0285  224.6016 H   0  0  0  0  0  0  0  0  0  0  0  0
  139.5486   67.4994  226.9182 H   0  0  0  0  0  0  0  0  0  0  0  0
  140.6149   68.2149  229.0597 H   0  0  0  0  0  0  0  0  0  0  0  0
  141.5537   70.5165  229.2860 H   0  0  0  0  0  0  0  0  0  0  0  0
  141.4289   72.1156  227.3718 H   0  0  0  0  0  0  0  0  0  0  0  0
  1  2  2  0
  2  3  1  0
  3  4  1  0
  4  5  2  0
  5  6  1  0
  5  7  1  0
  7  8  1  0
  8  9  1  0
  9 10  1  0
 10 11  1  0
 11 12  1  0
 12 13  1  0
 13 14  2  0
 14 15  1  0
 15 16  2  0
 16 17  1  0
 17 18  2  0
  2 19  1  0
 19 20  2  0
 20 21  1  0
 21 22  2  0
 22 23  1  0
 23 24  2  0
 24 25  1  0
 25 26  2  0
 26 27  1  0
 27 28  2  0
 12  7  1  0
 18 13  1  0
 28 19  1  0
 27 22  1  0
  3 29  1  0
  4 30  1  0
  6 31  1  0
  8 32  1  0
  8 33  1  0
  9 34  1  0
  9 35  1  0
 10 36  1  0
 10 37  1  0
 11 38  1  0
 11 39  1  0
 12 40  1  1
 14 41  1  0
 15 42  1  0
 16 43  1  0
 17 44  1  0
 18 45  1  0
 20 46  1  0
 21 47  1  0
 23 48  1  0
 24 49  1  0
 25 50  1  0
 26 51  1  0
M  END
>  <meeko>  (18) 
{"free_energy": -8.48, "intermolecular_energy": -10.27, "internal_energy": -1.87, "cluster_size": 5, "cluster_id": 1, "rank_in_cluster": 5}

$$$$

     RDKit          3D

 51 54  0  0  0  0  0  0  0  0999 V2000
  138.2810   72.2620  222.6550 O   0  0  0  0  0  0  0  0  0  0  0  0
  139.3870   71.6820  222.8370 C   0  0  0  0  0  0  0  0  0  0  0  0
  140.4860   71.9390  221.9460 N   0  0  0  0  0  0  0  0  0  0  0  0
  140.4850   72.9940  220.9740 C   0  0  0  0  0  0  0  0  0  0  0  0
  140.4730   74.2900  221.3140 C   0  0  0  0  0  0  0  0  0  0  0  0
  139.6400   74.7330  222.3400 O   0  0  0  0  0  0  0  0  0  0  0  0
  141.3550   75.2150  220.6500 N   0  0  0  0  0  0  0  0  0  0  0  0
  141.4410   76.5980  221.1510 C   0  0  0  0  0  0  0  0  0  0  0  0
  141.6030   77.6010  220.0110 C   0  0  0  0  0  0  0  0  0  0  0  0
  142.7410   77.1900  219.0810 C   0  0  0  0  0  0  0  0  0  0  0  0
  142.4580   75.8170  218.4720 C   0  0  0  0  0  0  0  0  0  0  0  0
  142.1890   74.7250  219.5310 C   0  0  1  0  0  0  0  0  0  0  0  0
  143.4750   74.0610  220.0050 C   0  0  0  0  0  0  0  0  0  0  0  0
  143.5800   72.6560  219.9640 C   0  0  0  0  0  0  0  0  0  0  0  0
  144.7500   72.0160  220.3810 C   0  0  0  0  0  0  0  0  0  0  0  0
  145.8350   72.7680  220.8350 C   0  0  0  0  0  0  0  0  0  0  0  0
  145.7520   74.1610  220.8690 C   0  0  0  0  0  0  0  0  0  0  0  0
  144.5830   74.8060  220.4530 C   0  0  0  0  0  0  0  0  0  0  0  0
  139.5360   70.7170  223.9480 C   0  0  0  0  0  0  0  0  0  0  0  0
  139.0200   69.4140  223.8500 C   0  0  0  0  0  0  0  0  0  0  0  0
  139.1720   68.5270  224.9190 C   0  0  0  0  0  0  0  0  0  0  0  0
  139.8340   68.9410  226.0800 C   0  0  0  0  0  0  0  0  0  0  0  0
  140.0040   68.0770  227.1720 C   0  0  0  0  0  0  0  0  0  0  0  0
  140.6700   68.5230  228.3180 C   0  0  0  0  0  0  0  0  0  0  0  0
  141.1690   69.8280  228.3790 C   0  0  0  0  0  0  0  0  0  0  0  0
  141.0040   70.6960  227.2950 C   0  0  0  0  0  0  0  0  0  0  0  0
  140.3380   70.2590  226.1450 C   0  0  0  0  0  0  0  0  0  0  0  0
  140.1760   71.1000  225.0880 N   0  0  0  0  0  0  0  0  0  0  0  0
  141.2440   71.2250  221.8690 H   0  0  0  0  0  0  0  0  0  0  0  0
  140.4945   72.7284  219.9066 H   0  0  0  0  0  0  0  0  0  0  0  0
  138.9140   74.1440  222.7280 H   0  0  0  0  0  0  0  0  0  0  0  0
  140.5211   76.8342  221.7060 H   0  0  0  0  0  0  0  0  0  0  0  0
  142.3240   76.6730  221.8027 H   0  0  0  0  0  0  0  0  0  0  0  0
  140.6665   77.6466  219.4357 H   0  0  0  0  0  0  0  0  0  0  0  0
  141.8387   78.5859  220.4405 H   0  0  0  0  0  0  0  0  0  0  0  0
  142.8367   77.9320  218.2746 H   0  0  0  0  0  0  0  0  0  0  0  0
  143.6754   77.1395  219.6592 H   0  0  0  0  0  0  0  0  0  0  0  0
  141.5746   75.8984  217.8217 H   0  0  0  0  0  0  0  0  0  0  0  0
  143.3563   75.5160  217.9131 H   0  0  0  0  0  0  0  0  0  0  0  0
  141.5977   73.9419  219.0339 H   0  0  0  0  0  0  0  0  0  0  0  0
  142.7321   72.0572  219.6000 H   0  0  0  0  0  0  0  0  0  0  0  0
  144.8162   70.9184  220.3515 H   0  0  0  0  0  0  0  0  0  0  0  0
  146.7547   72.2632  221.1657 H   0  0  0  0  0  0  0  0  0  0  0  0
  146.6085   74.7530  221.2240 H   0  0  0  0  0  0  0  0  0  0  0  0
  144.5284   75.9044  220.4759 H   0  0  0  0  0  0  0  0  0  0  0  0
  138.4987   69.0935  222.9359 H   0  0  0  0  0  0  0  0  0  0  0  0
  138.7718   67.5049  224.8478 H   0  0  0  0  0  0  0  0  0  0  0  0
  139.6138   67.0495  227.1269 H   0  0  0  0  0  0  0  0  0  0  0  0
  140.8018   67.8451  229.1742 H   0  0  0  0  0  0  0  0  0  0  0  0
  141.6930   70.1729  229.2826 H   0  0  0  0  0  0  0  0  0  0  0  0
  141.3977   71.7218  227.3466 H   0  0  0  0  0  0  0  0  0  0  0  0
  1  2  2  0
  2  3  1  0
  3  4  1  0
  4  5  2  0
  5  6  1  0
  5  7  1  0
  7  8  1  0
  8  9  1  0
  9 10  1  0
 10 11  1  0
 11 12  1  0
 12 13  1  0
 13 14  2  0
 14 15  1  0
 15 16  2  0
 16 17  1  0
 17 18  2  0
  2 19  1  0
 19 20  2  0
 20 21  1  0
 21 22  2  0
 22 23  1  0
 23 24  2  0
 24 25  1  0
 25 26  2  0
 26 27  1  0
 27 28  2  0
 12  7  1  0
 18 13  1  0
 28 19  1  0
 27 22  1  0
  3 29  1  0
  4 30  1  0
  6 31  1  0
  8 32  1  0
  8 33  1  0
  9 34  1  0
  9 35  1  0
 10 36  1  0
 10 37  1  0
 11 38  1  0
 11 39  1  0
 12 40  1  6
 14 41  1  0
 15 42  1  0
 16 43  1  0
 17 44  1  0
 18 45  1  0
 20 46  1  0
 21 47  1  0
 23 48  1  0
 24 49  1  0
 25 50  1  0
 26 51  1  0
M  END
>  <meeko>  (19) 
{"free_energy": -8.82, "intermolecular_energy": -10.61, "internal_energy": -1.91, "cluster_size": 14, "cluster_id": 2, "rank_in_cluster": 2}

$$$$

     RDKit          3D

 51 54  0  0  0  0  0  0  0  0999 V2000
  138.2150   72.2890  222.6590 O   0  0  0  0  0  0  0  0  0  0  0  0
  139.3280   71.7190  222.8260 C   0  0  0  0  0  0  0  0  0  0  0  0
  140.4170   71.9970  221.9290 N   0  0  0  0  0  0  0  0  0  0  0  0
  140.3960   73.0610  220.9670 C   0  0  0  0  0  0  0  0  0  0  0  0
  140.4200   74.3540  221.3190 C   0  0  0  0  0  0  0  0  0  0  0  0
  139.6110   74.8060  222.3620 O   0  0  0  0  0  0  0  0  0  0  0  0
  141.3140   75.2640  220.6520 N   0  0  0  0  0  0  0  0  0  0  0  0
  141.4190   76.6480  221.1490 C   0  0  0  0  0  0  0  0  0  0  0  0
  141.5940   77.6450  220.0050 C   0  0  0  0  0  0  0  0  0  0  0  0
  142.7250   77.2150  219.0750 C   0  0  0  0  0  0  0  0  0  0  0  0
  142.4240   75.8440  218.4710 C   0  0  0  0  0  0  0  0  0  0  0  0
  142.1400   74.7590  219.5340 C   0  0  1  0  0  0  0  0  0  0  0  0
  143.4170   74.0800  220.0100 C   0  0  0  0  0  0  0  0  0  0  0  0
  143.4960   72.6730  219.9900 C   0  0  0  0  0  0  0  0  0  0  0  0
  144.6570   72.0170  220.4090 C   0  0  0  0  0  0  0  0  0  0  0  0
  145.7590   72.7560  220.8440 C   0  0  0  0  0  0  0  0  0  0  0  0
  145.7020   74.1510  220.8570 C   0  0  0  0  0  0  0  0  0  0  0  0
  144.5420   74.8100  220.4380 C   0  0  0  0  0  0  0  0  0  0  0  0
  139.4970   70.7450  223.9260 C   0  0  0  0  0  0  0  0  0  0  0  0
  139.0170   69.4290  223.8100 C   0  0  0  0  0  0  0  0  0  0  0  0
  139.1870   68.5340  224.8690 C   0  0  0  0  0  0  0  0  0  0  0  0
  139.8310   68.9520  226.0380 C   0  0  0  0  0  0  0  0  0  0  0  0
  140.0190   68.0790  227.1200 C   0  0  0  0  0  0  0  0  0  0  0  0
  140.6670   68.5280  228.2760 C   0  0  0  0  0  0  0  0  0  0  0  0
  141.1300   69.8460  228.3560 C   0  0  0  0  0  0  0  0  0  0  0  0
  140.9480   70.7210  227.2810 C   0  0  0  0  0  0  0  0  0  0  0  0
  140.3000   70.2810  226.1220 C   0  0  0  0  0  0  0  0  0  0  0  0
  140.1210   71.1300  225.0750 N   0  0  0  0  0  0  0  0  0  0  0  0
  141.1820   71.2920  221.8380 H   0  0  0  0  0  0  0  0  0  0  0  0
  140.3587   72.8054  219.8977 H   0  0  0  0  0  0  0  0  0  0  0  0
  138.9090   74.2140  222.7860 H   0  0  0  0  0  0  0  0  0  0  0  0
  140.5027   76.8985  221.7037 H   0  0  0  0  0  0  0  0  0  0  0  0
  142.3030   76.7133  221.8003 H   0  0  0  0  0  0  0  0  0  0  0  0
  140.6576   77.7019  219.4306 H   0  0  0  0  0  0  0  0  0  0  0  0
  141.8442   78.6278  220.4310 H   0  0  0  0  0  0  0  0  0  0  0  0
  142.8296   77.9528  218.2658 H   0  0  0  0  0  0  0  0  0  0  0  0
  143.6591   77.1537  219.6528 H   0  0  0  0  0  0  0  0  0  0  0  0
  141.5420   75.9349  217.8200 H   0  0  0  0  0  0  0  0  0  0  0  0
  143.3185   75.5291  217.9136 H   0  0  0  0  0  0  0  0  0  0  0  0
  141.5374   73.9828  219.0396 H   0  0  0  0  0  0  0  0  0  0  0  0
  142.6346   72.0847  219.6409 H   0  0  0  0  0  0  0  0  0  0  0  0
  144.7025   70.9180  220.3960 H   0  0  0  0  0  0  0  0  0  0  0  0
  146.6715   72.2394  221.1763 H   0  0  0  0  0  0  0  0  0  0  0  0
  146.5713   74.7328  221.1975 H   0  0  0  0  0  0  0  0  0  0  0  0
  144.5083   75.9095  220.4429 H   0  0  0  0  0  0  0  0  0  0  0  0
  138.5097   69.1053  222.8892 H   0  0  0  0  0  0  0  0  0  0  0  0
  138.8150   67.5023  224.7836 H   0  0  0  0  0  0  0  0  0  0  0  0
  139.6571   67.0420  227.0596 H   0  0  0  0  0  0  0  0  0  0  0  0
  140.8129   67.8430  229.1242 H   0  0  0  0  0  0  0  0  0  0  0  0
  141.6385   70.1945  229.2670 H   0  0  0  0  0  0  0  0  0  0  0  0
  141.3145   71.7561  227.3466 H   0  0  0  0  0  0  0  0  0  0  0  0
  1  2  2  0
  2  3  1  0
  3  4  1  0
  4  5  2  0
  5  6  1  0
  5  7  1  0
  7  8  1  0
  8  9  1  0
  9 10  1  0
 10 11  1  0
 11 12  1  0
 12 13  1  0
 13 14  2  0
 14 15  1  0
 15 16  2  0
 16 17  1  0
 17 18  2  0
  2 19  1  0
 19 20  2  0
 20 21  1  0
 21 22  2  0
 22 23  1  0
 23 24  2  0
 24 25  1  0
 25 26  2  0
 26 27  1  0
 27 28  2  0
 12  7  1  0
 18 13  1  0
 28 19  1  0
 27 22  1  0
  3 29  1  0
  4 30  1  0
  6 31  1  0
  8 32  1  0
  8 33  1  0
  9 34  1  0
  9 35  1  0
 10 36  1  0
 10 37  1  0
 11 38  1  0
 11 39  1  0
 12 40  1  6
 14 41  1  0
 15 42  1  0
 16 43  1  0
 17 44  1  0
 18 45  1  0
 20 46  1  0
 21 47  1  0
 23 48  1  0
 24 49  1  0
 25 50  1  0
 26 51  1  0
M  END
>  <meeko>  (20) 
{"free_energy": -8.81, "intermolecular_energy": -10.6, "internal_energy": -1.91, "cluster_size": 14, "cluster_id": 2, "rank_in_cluster": 5}

$$$$
