
     RDKit          3D

 51 54  0  0  0  0  0  0  0  0999 V2000
  141.2870   72.4300  221.5210 O   0  0  0  0  0  0  0  0  0  0  0  0
  140.3910   72.6240  222.3890 C   0  0  0  0  0  0  0  0  0  0  0  0
  139.5640   73.7960  222.3160 N   0  0  0  0  0  0  0  0  0  0  0  0
  139.7600   74.8060  221.3130 C   0  0  0  0  0  0  0  0  0  0  0  0
  140.6840   75.7670  221.4390 C   0  0  0  0  0  0  0  0  0  0  0  0
  141.1850   76.0550  222.7060 O   0  0  0  0  0  0  0  0  0  0  0  0
  141.1670   76.5040  220.3000 N   0  0  0  0  0  0  0  0  0  0  0  0
  141.3010   75.7690  219.0290 C   0  0  0  0  0  0  0  0  0  0  0  0
  142.4370   76.3370  218.1710 C   0  0  0  0  0  0  0  0  0  0  0  0
  142.2520   77.8420  217.9330 C   0  0  0  0  0  0  0  0  0  0  0  0
  141.8420   78.6220  219.2000 C   0  0  0  0  0  0  0  0  0  0  0  0
  141.8950   77.7750  220.4920 C   0  0  1  0  0  0  0  0  0  0  0  0
  141.3420   78.5760  221.6600 C   0  0  0  0  0  0  0  0  0  0  0  0
  139.9660   78.8620  221.7560 C   0  0  0  0  0  0  0  0  0  0  0  0
  139.4680   79.5910  222.8410 C   0  0  0  0  0  0  0  0  0  0  0  0
  140.3380   80.0500  223.8330 C   0  0  0  0  0  0  0  0  0  0  0  0
  141.7060   79.7810  223.7420 C   0  0  0  0  0  0  0  0  0  0  0  0
  142.2080   79.0490  222.6620 C   0  0  0  0  0  0  0  0  0  0  0  0
  140.1950   71.6400  223.4760 C   0  0  0  0  0  0  0  0  0  0  0  0
  139.4920   70.4430  223.2540 C   0  0  0  0  0  0  0  0  0  0  0  0
  139.3160   69.5370  224.3030 C   0  0  0  0  0  0  0  0  0  0  0  0
  139.8430   69.8250  225.5690 C   0  0  0  0  0  0  0  0  0  0  0  0
  139.6810   68.9410  226.6470 C   0  0  0  0  0  0  0  0  0  0  0  0
  140.2170   69.2610  227.9020 C   0  0  0  0  0  0  0  0  0  0  0  0
  140.9140   70.4590  228.0830 C   0  0  0  0  0  0  0  0  0  0  0  0
  141.0810   71.3450  227.0120 C   0  0  0  0  0  0  0  0  0  0  0  0
  140.5470   71.0340  225.7560 C   0  0  0  0  0  0  0  0  0  0  0  0
  140.6990   71.8970  224.7170 N   0  0  0  0  0  0  0  0  0  0  0  0
  138.8330   73.9340  223.0460 H   0  0  0  0  0  0  0  0  0  0  0  0
  139.1299   74.7893  220.4115 H   0  0  0  0  0  0  0  0  0  0  0  0
  142.1390   76.3700  222.8300 H   0  0  0  0  0  0  0  0  0  0  0  0
  141.5119   74.7118  219.2476 H   0  0  0  0  0  0  0  0  0  0  0  0
  140.3598   75.8718  218.4690 H   0  0  0  0  0  0  0  0  0  0  0  0
  143.3943   76.1700  218.6865 H   0  0  0  0  0  0  0  0  0  0  0  0
  142.4275   75.8260  217.1969 H   0  0  0  0  0  0  0  0  0  0  0  0
  143.2019   78.2549  217.5626 H   0  0  0  0  0  0  0  0  0  0  0  0
  141.4346   77.9555  217.2056 H   0  0  0  0  0  0  0  0  0  0  0  0
  142.5229   79.4780  219.3171 H   0  0  0  0  0  0  0  0  0  0  0  0
  140.7966   78.9351  219.0620 H   0  0  0  0  0  0  0  0  0  0  0  0
  142.9404   77.5234  220.7239 H   0  0  0  0  0  0  0  0  0  0  0  0
  139.2787   78.5098  220.9727 H   0  0  0  0  0  0  0  0  0  0  0  0
  138.3910   79.8029  222.9132 H   0  0  0  0  0  0  0  0  0  0  0  0
  139.9459   80.6234  224.6859 H   0  0  0  0  0  0  0  0  0  0  0  0
  142.3899   80.1462  224.5223 H   0  0  0  0  0  0  0  0  0  0  0  0
  143.2863   78.8419  222.5956 H   0  0  0  0  0  0  0  0  0  0  0  0
  139.0819   70.2204  222.2579 H   0  0  0  0  0  0  0  0  0  0  0  0
  138.7650   68.5998  224.1354 H   0  0  0  0  0  0  0  0  0  0  0  0
  139.1335   67.9972  226.5070 H   0  0  0  0  0  0  0  0  0  0  0  0
  140.0888   68.5678  228.7464 H   0  0  0  0  0  0  0  0  0  0  0  0
  141.3325   70.7063  229.0697 H   0  0  0  0  0  0  0  0  0  0  0  0
  141.6320   72.2859  227.1575 H   0  0  0  0  0  0  0  0  0  0  0  0
  1  2  2  0
  2  3  1  0
  3  4  1  0
  4  5  2  0
  5  6  1  0
  5  7  1  0
  7  8  1  0
  8  9  1  0
  9 10  1  0
 10 11  1  0
 11 12  1  0
 12 13  1  0
 13 14  2  0
 14 15  1  0
 15 16  2  0
 16 17  1  0
 17 18  2  0
  2 19  1  0
 19 20  2  0
 20 21  1  0
 21 22  2  0
 22 23  1  0
 23 24  2  0
 24 25  1  0
 25 26  2  0
 26 27  1  0
 27 28  2  0
 12  7  1  0
 18 13  1  0
 28 19  1  0
 27 22  1  0
  3 29  1  0
  4 30  1  0
  6 31  1  0
  8 32  1  0
  8 33  1  0
  9 34  1  0
  9 35  1  0
 10 36  1  0
 10 37  1  0
 11 38  1  0
 11 39  1  0
 12 40  1  1
 14 41  1  0
 15 42  1  0
 16 43  1  0
 17 44  1  0
 18 45  1  0
 20 46  1  0
 21 47  1  0
 23 48  1  0
 24 49  1  0
 25 50  1  0
 26 51  1  0
M  END
>  <meeko>  (1) 
{"free_energy": -8.83, "intermolecular_energy": -10.62, "internal_energy": -1.1, "cluster_size": 9, "cluster_id": 1, "rank_in_cluster": 3}

$$$$

     RDKit          3D

 51 54  0  0  0  0  0  0  0  0999 V2000
  140.9200   71.5290  221.2870 O   0  0  0  0  0  0  0  0  0  0  0  0
  140.4210   72.0990  222.2980 C   0  0  0  0  0  0  0  0  0  0  0  0
  140.0560   73.4860  222.2320 N   0  0  0  0  0  0  0  0  0  0  0  0
  140.2970   74.2820  221.0600 C   0  0  0  0  0  0  0  0  0  0  0  0
  140.9780   75.4330  221.1070 C   0  0  0  0  0  0  0  0  0  0  0  0
  141.2380   76.0100  222.3480 O   0  0  0  0  0  0  0  0  0  0  0  0
  141.4440   76.0850  219.9100 N   0  0  0  0  0  0  0  0  0  0  0  0
  140.7130   77.2870  219.4680 C   0  0  0  0  0  0  0  0  0  0  0  0
  140.7580   77.4400  217.9440 C   0  0  0  0  0  0  0  0  0  0  0  0
  142.2040   77.4390  217.4290 C   0  0  0  0  0  0  0  0  0  0  0  0
  143.0890   76.3520  218.0730 C   0  0  0  0  0  0  0  0  0  0  0  0
  142.3020   75.3550  218.9540 C   0  0  1  0  0  0  0  0  0  0  0  0
  143.2650   74.4120  219.6570 C   0  0  0  0  0  0  0  0  0  0  0  0
  142.9790   73.0380  219.7730 C   0  0  0  0  0  0  0  0  0  0  0  0
  143.8770   72.1780  220.4130 C   0  0  0  0  0  0  0  0  0  0  0  0
  145.0630   72.6820  220.9510 C   0  0  0  0  0  0  0  0  0  0  0  0
  145.3520   74.0450  220.8510 C   0  0  0  0  0  0  0  0  0  0  0  0
  144.4600   74.9080  220.2090 C   0  0  0  0  0  0  0  0  0  0  0  0
  140.2130   71.3320  223.5460 C   0  0  0  0  0  0  0  0  0  0  0  0
  139.5590   70.0880  223.5330 C   0  0  0  0  0  0  0  0  0  0  0  0
  139.3700   69.3910  224.7300 C   0  0  0  0  0  0  0  0  0  0  0  0
  139.8350   69.9350  225.9340 C   0  0  0  0  0  0  0  0  0  0  0  0
  139.6590   69.2660  227.1560 C   0  0  0  0  0  0  0  0  0  0  0  0
  140.1320   69.8390  228.3430 C   0  0  0  0  0  0  0  0  0  0  0  0
  140.7820   71.0770  228.3150 C   0  0  0  0  0  0  0  0  0  0  0  0
  140.9640   71.7490  227.1010 C   0  0  0  0  0  0  0  0  0  0  0  0
  140.4920   71.1840  225.9100 C   0  0  0  0  0  0  0  0  0  0  0  0
  140.6580   71.8390  224.7310 N   0  0  0  0  0  0  0  0  0  0  0  0
  139.6490   73.9330  223.0800 H   0  0  0  0  0  0  0  0  0  0  0  0
  139.9086   73.9334  220.0917 H   0  0  0  0  0  0  0  0  0  0  0  0
  142.1470   76.4010  222.5610 H   0  0  0  0  0  0  0  0  0  0  0  0
  139.6639   77.2060  219.7887 H   0  0  0  0  0  0  0  0  0  0  0  0
  141.1920   78.1687  219.9187 H   0  0  0  0  0  0  0  0  0  0  0  0
  140.2123   76.6035  217.4831 H   0  0  0  0  0  0  0  0  0  0  0  0
  140.2933   78.4004  217.6763 H   0  0  0  0  0  0  0  0  0  0  0  0
  142.1856   77.2732  216.3417 H   0  0  0  0  0  0  0  0  0  0  0  0
  142.6421   78.4117  217.6969 H   0  0  0  0  0  0  0  0  0  0  0  0
  143.5872   75.7886  217.2703 H   0  0  0  0  0  0  0  0  0  0  0  0
  143.8057   76.8668  218.7298 H   0  0  0  0  0  0  0  0  0  0  0  0
  141.6416   74.7454  218.3198 H   0  0  0  0  0  0  0  0  0  0  0  0
  142.0424   72.6383  219.3571 H   0  0  0  0  0  0  0  0  0  0  0  0
  143.6492   71.1048  220.4926 H   0  0  0  0  0  0  0  0  0  0  0  0
  145.7699   72.0055  221.4537 H   0  0  0  0  0  0  0  0  0  0  0  0
  146.2850   74.4403  221.2791 H   0  0  0  0  0  0  0  0  0  0  0  0
  144.6934   75.9804  220.1349 H   0  0  0  0  0  0  0  0  0  0  0  0
  139.1972   69.6644  222.5845 H   0  0  0  0  0  0  0  0  0  0  0  0
  138.8574   68.4178  224.7263 H   0  0  0  0  0  0  0  0  0  0  0  0
  139.1494   68.2915  227.1809 H   0  0  0  0  0  0  0  0  0  0  0  0
  139.9920   69.3142  229.2995 H   0  0  0  0  0  0  0  0  0  0  0  0
  141.1512   71.5238  229.2499 H   0  0  0  0  0  0  0  0  0  0  0  0
  141.4780   72.7213  227.0824 H   0  0  0  0  0  0  0  0  0  0  0  0
  1  2  2  0
  2  3  1  0
  3  4  1  0
  4  5  2  0
  5  6  1  0
  5  7  1  0
  7  8  1  0
  8  9  1  0
  9 10  1  0
 10 11  1  0
 11 12  1  0
 12 13  1  0
 13 14  2  0
 14 15  1  0
 15 16  2  0
 16 17  1  0
 17 18  2  0
  2 19  1  0
 19 20  2  0
 20 21  1  0
 21 22  2  0
 22 23  1  0
 23 24  2  0
 24 25  1  0
 25 26  2  0
 26 27  1  0
 27 28  2  0
 12  7  1  0
 18 13  1  0
 28 19  1  0
 27 22  1  0
  3 29  1  0
  4 30  1  0
  6 31  1  0
  8 32  1  0
  8 33  1  0
  9 34  1  0
  9 35  1  0
 10 36  1  0
 10 37  1  0
 11 38  1  0
 11 39  1  0
 12 40  1  6
 14 41  1  0
 15 42  1  0
 16 43  1  0
 17 44  1  0
 18 45  1  0
 20 46  1  0
 21 47  1  0
 23 48  1  0
 24 49  1  0
 25 50  1  0
 26 51  1  0
M  END
>  <meeko>  (2) 
{"free_energy": -8.46, "intermolecular_energy": -10.25, "internal_energy": -1.67, "cluster_size": 7, "cluster_id": 2, "rank_in_cluster": 4}

$$$$

     RDKit          3D

 51 54  0  0  0  0  0  0  0  0999 V2000
  141.0910   71.5890  221.3580 O   0  0  0  0  0  0  0  0  0  0  0  0
  140.4980   72.1390  222.3280 C   0  0  0  0  0  0  0  0  0  0  0  0
  140.0640   73.5040  222.2210 N   0  0  0  0  0  0  0  0  0  0  0  0
  140.3360   74.3020  221.0570 C   0  0  0  0  0  0  0  0  0  0  0  0
  141.0100   75.4560  221.1250 C   0  0  0  0  0  0  0  0  0  0  0  0
  141.2680   76.0110  222.3760 O   0  0  0  0  0  0  0  0  0  0  0  0
  141.4700   76.1330  219.9400 N   0  0  0  0  0  0  0  0  0  0  0  0
  140.7410   77.3480  219.5310 C   0  0  0  0  0  0  0  0  0  0  0  0
  140.7740   77.5360  218.0100 C   0  0  0  0  0  0  0  0  0  0  0  0
  142.2160   77.5410  217.4840 C   0  0  0  0  0  0  0  0  0  0  0  0
  143.1010   76.4360  218.0970 C   0  0  0  0  0  0  0  0  0  0  0  0
  142.3170   75.4220  218.9600 C   0  0  1  0  0  0  0  0  0  0  0  0
  143.2810   74.4590  219.6340 C   0  0  0  0  0  0  0  0  0  0  0  0
  143.0110   73.0780  219.6830 C   0  0  0  0  0  0  0  0  0  0  0  0
  143.9100   72.2000  220.2960 C   0  0  0  0  0  0  0  0  0  0  0  0
  145.0810   72.6930  220.8750 C   0  0  0  0  0  0  0  0  0  0  0  0
  145.3550   74.0620  220.8420 C   0  0  0  0  0  0  0  0  0  0  0  0
  144.4610   74.9430  220.2270 C   0  0  0  0  0  0  0  0  0  0  0  0
  140.2520   71.3740  223.5700 C   0  0  0  0  0  0  0  0  0  0  0  0
  139.5490   70.1570  223.5450 C   0  0  0  0  0  0  0  0  0  0  0  0
  139.3250   69.4620  224.7360 C   0  0  0  0  0  0  0  0  0  0  0  0
  139.8040   69.9780  225.9460 C   0  0  0  0  0  0  0  0  0  0  0  0
  139.5940   69.3090  227.1620 C   0  0  0  0  0  0  0  0  0  0  0  0
  140.0830   69.8560  228.3560 C   0  0  0  0  0  0  0  0  0  0  0  0
  140.7830   71.0660  228.3400 C   0  0  0  0  0  0  0  0  0  0  0  0
  140.9980   71.7380  227.1310 C   0  0  0  0  0  0  0  0  0  0  0  0
  140.5110   71.2000  225.9350 C   0  0  0  0  0  0  0  0  0  0  0  0
  140.7100   71.8560  224.7610 N   0  0  0  0  0  0  0  0  0  0  0  0
  139.5800   73.9370  223.0370 H   0  0  0  0  0  0  0  0  0  0  0  0
  139.9781   73.9524  220.0774 H   0  0  0  0  0  0  0  0  0  0  0  0
  142.1800   76.3910  222.6000 H   0  0  0  0  0  0  0  0  0  0  0  0
  139.6942   77.2643  219.8584 H   0  0  0  0  0  0  0  0  0  0  0  0
  141.2282   78.2170  219.9974 H   0  0  0  0  0  0  0  0  0  0  0  0
  140.2211   76.7126  217.5343 H   0  0  0  0  0  0  0  0  0  0  0  0
  140.3109   78.5039  217.7679 H   0  0  0  0  0  0  0  0  0  0  0  0
  142.1888   77.3997  216.3934 H   0  0  0  0  0  0  0  0  0  0  0  0
  142.6603   78.5058  217.7700 H   0  0  0  0  0  0  0  0  0  0  0  0
  143.5916   75.8894  217.2782 H   0  0  0  0  0  0  0  0  0  0  0  0
  143.8237   76.9332  218.7608 H   0  0  0  0  0  0  0  0  0  0  0  0
  141.6496   74.8302  218.3163 H   0  0  0  0  0  0  0  0  0  0  0  0
  142.0855   72.6868  219.2355 H   0  0  0  0  0  0  0  0  0  0  0  0
  143.6949   71.1216  220.3221 H   0  0  0  0  0  0  0  0  0  0  0  0
  145.7883   72.0025  221.3576 H   0  0  0  0  0  0  0  0  0  0  0  0
  146.2770   74.4480  221.3013 H   0  0  0  0  0  0  0  0  0  0  0  0
  144.6814   76.0205  220.2067 H   0  0  0  0  0  0  0  0  0  0  0  0
  139.1768   69.7536  222.5917 H   0  0  0  0  0  0  0  0  0  0  0  0
  138.7730   68.5106  224.7230 H   0  0  0  0  0  0  0  0  0  0  0  0
  139.0457   68.3555  227.1777 H   0  0  0  0  0  0  0  0  0  0  0  0
  139.9155   69.3318  229.3085 H   0  0  0  0  0  0  0  0  0  0  0  0
  141.1657   71.4910  229.2796 H   0  0  0  0  0  0  0  0  0  0  0  0
  141.5500   72.6894  227.1214 H   0  0  0  0  0  0  0  0  0  0  0  0
  1  2  2  0
  2  3  1  0
  3  4  1  0
  4  5  2  0
  5  6  1  0
  5  7  1  0
  7  8  1  0
  8  9  1  0
  9 10  1  0
 10 11  1  0
 11 12  1  0
 12 13  1  0
 13 14  2  0
 14 15  1  0
 15 16  2  0
 16 17  1  0
 17 18  2  0
  2 19  1  0
 19 20  2  0
 20 21  1  0
 21 22  2  0
 22 23  1  0
 23 24  2  0
 24 25  1  0
 25 26  2  0
 26 27  1  0
 27 28  2  0
 12  7  1  0
 18 13  1  0
 28 19  1  0
 27 22  1  0
  3 29  1  0
  4 30  1  0
  6 31  1  0
  8 32  1  0
  8 33  1  0
  9 34  1  0
  9 35  1  0
 10 36  1  0
 10 37  1  0
 11 38  1  0
 11 39  1  0
 12 40  1  6
 14 41  1  0
 15 42  1  0
 16 43  1  0
 17 44  1  0
 18 45  1  0
 20 46  1  0
 21 47  1  0
 23 48  1  0
 24 49  1  0
 25 50  1  0
 26 51  1  0
M  END
>  <meeko>  (3) 
{"free_energy": -8.49, "intermolecular_energy": -10.28, "internal_energy": -1.63, "cluster_size": 7, "cluster_id": 2, "rank_in_cluster": 1}

$$$$

     RDKit          3D

 51 54  0  0  0  0  0  0  0  0999 V2000
  141.4420   73.1040  221.7950 O   0  0  0  0  0  0  0  0  0  0  0  0
  140.3570   72.9780  222.4280 C   0  0  0  0  0  0  0  0  0  0  0  0
  139.3490   73.9960  222.3320 N   0  0  0  0  0  0  0  0  0  0  0  0
  139.5540   75.2040  221.5810 C   0  0  0  0  0  0  0  0  0  0  0  0
  139.7680   76.3850  222.1740 C   0  0  0  0  0  0  0  0  0  0  0  0
  141.0760   76.7620  222.4660 O   0  0  0  0  0  0  0  0  0  0  0  0
  138.6820   77.2670  222.5130 N   0  0  0  0  0  0  0  0  0  0  0  0
  137.3640   76.6520  222.7560 C   0  0  0  0  0  0  0  0  0  0  0  0
  136.2240   77.6010  222.3690 C   0  0  0  0  0  0  0  0  0  0  0  0
  136.3570   78.9490  223.0910 C   0  0  0  0  0  0  0  0  0  0  0  0
  137.7950   79.5090  223.0950 C   0  0  0  0  0  0  0  0  0  0  0  0
  138.7720   78.7090  222.2040 C   0  0  1  0  0  0  0  0  0  0  0  0
  140.1860   79.2410  222.3790 C   0  0  0  0  0  0  0  0  0  0  0  0
  140.9540   79.6350  221.2660 C   0  0  0  0  0  0  0  0  0  0  0  0
  142.2490   80.1330  221.4390 C   0  0  0  0  0  0  0  0  0  0  0  0
  142.7930   80.2330  222.7210 C   0  0  0  0  0  0  0  0  0  0  0  0
  142.0450   79.8350  223.8310 C   0  0  0  0  0  0  0  0  0  0  0  0
  140.7480   79.3410  223.6640 C   0  0  0  0  0  0  0  0  0  0  0  0
  140.1270   71.7780  223.2630 C   0  0  0  0  0  0  0  0  0  0  0  0
  139.4150   70.6730  222.7660 C   0  0  0  0  0  0  0  0  0  0  0  0
  139.2070   69.5580  223.5820 C   0  0  0  0  0  0  0  0  0  0  0  0
  139.7120   69.5460  224.8890 C   0  0  0  0  0  0  0  0  0  0  0  0
  139.5190   68.4460  225.7380 C   0  0  0  0  0  0  0  0  0  0  0  0
  140.0340   68.4670  227.0410 C   0  0  0  0  0  0  0  0  0  0  0  0
  140.7420   69.5830  227.4980 C   0  0  0  0  0  0  0  0  0  0  0  0
  140.9410   70.6830  226.6560 C   0  0  0  0  0  0  0  0  0  0  0  0
  140.4270   70.6710  225.3540 C   0  0  0  0  0  0  0  0  0  0  0  0
  140.6110   71.7420  224.5380 N   0  0  0  0  0  0  0  0  0  0  0  0
  138.4620   73.8690  222.8660 H   0  0  0  0  0  0  0  0  0  0  0  0
  139.5344   75.1567  220.4822 H   0  0  0  0  0  0  0  0  0  0  0  0
  141.8640   76.2760  222.0560 H   0  0  0  0  0  0  0  0  0  0  0  0
  137.2825   75.7323  222.1581 H   0  0  0  0  0  0  0  0  0  0  0  0
  137.2789   76.4285  223.8297 H   0  0  0  0  0  0  0  0  0  0  0  0
  136.2516   77.7712  221.2826 H   0  0  0  0  0  0  0  0  0  0  0  0
  135.2702   77.1395  222.6643 H   0  0  0  0  0  0  0  0  0  0  0  0
  135.7016   79.6773  222.5910 H   0  0  0  0  0  0  0  0  0  0  0  0
  136.0732   78.7819  224.1405 H   0  0  0  0  0  0  0  0  0  0  0  0
  137.7650   80.5474  222.7333 H   0  0  0  0  0  0  0  0  0  0  0  0
  138.1668   79.4368  224.1277 H   0  0  0  0  0  0  0  0  0  0  0  0
  138.4944   78.8363  221.1472 H   0  0  0  0  0  0  0  0  0  0  0  0
  140.5321   79.5503  220.2537 H   0  0  0  0  0  0  0  0  0  0  0  0
  142.8392   80.4460  220.5651 H   0  0  0  0  0  0  0  0  0  0  0  0
  143.8116   80.6256  222.8567 H   0  0  0  0  0  0  0  0  0  0  0  0
  142.4776   79.9104  224.8396 H   0  0  0  0  0  0  0  0  0  0  0  0
  140.1640   79.0289  224.5424 H   0  0  0  0  0  0  0  0  0  0  0  0
  139.0229   70.6858  221.7384 H   0  0  0  0  0  0  0  0  0  0  0  0
  138.6480   68.6914  223.1992 H   0  0  0  0  0  0  0  0  0  0  0  0
  138.9631   67.5666  225.3807 H   0  0  0  0  0  0  0  0  0  0  0  0
  139.8811   67.6040  227.7057 H   0  0  0  0  0  0  0  0  0  0  0  0
  141.1436   69.5963  228.5220 H   0  0  0  0  0  0  0  0  0  0  0  0
  141.5017   71.5576  227.0176 H   0  0  0  0  0  0  0  0  0  0  0  0
  1  2  2  0
  2  3  1  0
  3  4  1  0
  4  5  2  0
  5  6  1  0
  5  7  1  0
  7  8  1  0
  8  9  1  0
  9 10  1  0
 10 11  1  0
 11 12  1  0
 12 13  1  0
 13 14  2  0
 14 15  1  0
 15 16  2  0
 16 17  1  0
 17 18  2  0
  2 19  1  0
 19 20  2  0
 20 21  1  0
 21 22  2  0
 22 23  1  0
 23 24  2  0
 24 25  1  0
 25 26  2  0
 26 27  1  0
 27 28  2  0
 12  7  1  0
 18 13  1  0
 28 19  1  0
 27 22  1  0
  3 29  1  0
  4 30  1  0
  6 31  1  0
  8 32  1  0
  8 33  1  0
  9 34  1  0
  9 35  1  0
 10 36  1  0
 10 37  1  0
 11 38  1  0
 11 39  1  0
 12 40  1  6
 14 41  1  0
 15 42  1  0
 16 43  1  0
 17 44  1  0
 18 45  1  0
 20 46  1  0
 21 47  1  0
 23 48  1  0
 24 49  1  0
 25 50  1  0
 26 51  1  0
M  END
>  <meeko>  (4) 
{"free_energy": -8.73, "intermolecular_energy": -10.52, "internal_energy": -0.98, "cluster_size": 9, "cluster_id": 1, "rank_in_cluster": 7}

$$$$

     RDKit          3D

 51 54  0  0  0  0  0  0  0  0999 V2000
  141.2300   72.3010  221.4890 O   0  0  0  0  0  0  0  0  0  0  0  0
  140.3770   72.5600  222.3840 C   0  0  0  0  0  0  0  0  0  0  0  0
  139.6110   73.7730  222.3140 N   0  0  0  0  0  0  0  0  0  0  0  0
  139.8240   74.7500  221.2820 C   0  0  0  0  0  0  0  0  0  0  0  0
  140.7080   75.7460  221.4140 C   0  0  0  0  0  0  0  0  0  0  0  0
  141.1820   76.0600  222.6860 O   0  0  0  0  0  0  0  0  0  0  0  0
  141.1780   76.4950  220.2770 N   0  0  0  0  0  0  0  0  0  0  0  0
  141.3220   75.7670  219.0030 C   0  0  0  0  0  0  0  0  0  0  0  0
  142.4470   76.3570  218.1460 C   0  0  0  0  0  0  0  0  0  0  0  0
  142.2370   77.8600  217.9140 C   0  0  0  0  0  0  0  0  0  0  0  0
  141.8160   78.6280  219.1840 C   0  0  0  0  0  0  0  0  0  0  0  0
  141.8850   77.7770  220.4720 C   0  0  1  0  0  0  0  0  0  0  0  0
  141.3210   78.5660  221.6450 C   0  0  0  0  0  0  0  0  0  0  0  0
  139.9420   78.8380  221.7380 C   0  0  0  0  0  0  0  0  0  0  0  0
  139.4340   79.5550  222.8260 C   0  0  0  0  0  0  0  0  0  0  0  0
  140.2960   80.0140  223.8240 C   0  0  0  0  0  0  0  0  0  0  0  0
  141.6660   79.7590  223.7360 C   0  0  0  0  0  0  0  0  0  0  0  0
  142.1790   79.0390  222.6530 C   0  0  0  0  0  0  0  0  0  0  0  0
  140.1690   71.6110  223.4990 C   0  0  0  0  0  0  0  0  0  0  0  0
  139.4400   70.4230  223.3150 C   0  0  0  0  0  0  0  0  0  0  0  0
  139.2530   69.5500  224.3900 C   0  0  0  0  0  0  0  0  0  0  0  0
  139.7950   69.8620  225.6430 C   0  0  0  0  0  0  0  0  0  0  0  0
  139.6240   69.0110  226.7470 C   0  0  0  0  0  0  0  0  0  0  0  0
  140.1750   69.3540  227.9880 C   0  0  0  0  0  0  0  0  0  0  0  0
  140.8990   70.5420  228.1310 C   0  0  0  0  0  0  0  0  0  0  0  0
  141.0750   71.3940  227.0350 C   0  0  0  0  0  0  0  0  0  0  0  0
  140.5260   71.0600  225.7920 C   0  0  0  0  0  0  0  0  0  0  0  0
  140.6880   71.8910  224.7290 N   0  0  0  0  0  0  0  0  0  0  0  0
  138.9150   73.9650  223.0660 H   0  0  0  0  0  0  0  0  0  0  0  0
  139.2408   74.6767  220.3522 H   0  0  0  0  0  0  0  0  0  0  0  0
  142.1360   76.3670  222.8260 H   0  0  0  0  0  0  0  0  0  0  0  0
  141.5507   74.7126  219.2172 H   0  0  0  0  0  0  0  0  0  0  0  0
  140.3784   75.8562  218.4447 H   0  0  0  0  0  0  0  0  0  0  0  0
  143.4076   76.2038  218.6596 H   0  0  0  0  0  0  0  0  0  0  0  0
  142.4444   75.8498  217.1699 H   0  0  0  0  0  0  0  0  0  0  0  0
  143.1796   78.2898  217.5441 H   0  0  0  0  0  0  0  0  0  0  0  0
  141.4170   77.9629  217.1881 H   0  0  0  0  0  0  0  0  0  0  0  0
  142.4827   79.4947  219.3035 H   0  0  0  0  0  0  0  0  0  0  0  0
  140.7654   78.9244  219.0487 H   0  0  0  0  0  0  0  0  0  0  0  0
  142.9347   77.5409  220.7008 H   0  0  0  0  0  0  0  0  0  0  0  0
  139.2606   78.4843  220.9502 H   0  0  0  0  0  0  0  0  0  0  0  0
  138.3550   79.7574  222.8956 H   0  0  0  0  0  0  0  0  0  0  0  0
  139.8955   80.5768  224.6801 H   0  0  0  0  0  0  0  0  0  0  0  0
  142.3436   80.1257  224.5211 H   0  0  0  0  0  0  0  0  0  0  0  0
  143.2593   78.8417  222.5894 H   0  0  0  0  0  0  0  0  0  0  0  0
  139.0183   70.1815  222.3282 H   0  0  0  0  0  0  0  0  0  0  0  0
  138.6816   68.6202  224.2524 H   0  0  0  0  0  0  0  0  0  0  0  0
  139.0571   68.0748  226.6369 H   0  0  0  0  0  0  0  0  0  0  0  0
  140.0380   68.6875  228.8523 H   0  0  0  0  0  0  0  0  0  0  0  0
  141.3311   70.8072  229.1072 H   0  0  0  0  0  0  0  0  0  0  0  0
  141.6455   72.3273  227.1507 H   0  0  0  0  0  0  0  0  0  0  0  0
  1  2  2  0
  2  3  1  0
  3  4  1  0
  4  5  2  0
  5  6  1  0
  5  7  1  0
  7  8  1  0
  8  9  1  0
  9 10  1  0
 10 11  1  0
 11 12  1  0
 12 13  1  0
 13 14  2  0
 14 15  1  0
 15 16  2  0
 16 17  1  0
 17 18  2  0
  2 19  1  0
 19 20  2  0
 20 21  1  0
 21 22  2  0
 22 23  1  0
 23 24  2  0
 24 25  1  0
 25 26  2  0
 26 27  1  0
 27 28  2  0
 12  7  1  0
 18 13  1  0
 28 19  1  0
 27 22  1  0
  3 29  1  0
  4 30  1  0
  6 31  1  0
  8 32  1  0
  8 33  1  0
  9 34  1  0
  9 35  1  0
 10 36  1  0
 10 37  1  0
 11 38  1  0
 11 39  1  0
 12 40  1  1
 14 41  1  0
 15 42  1  0
 16 43  1  0
 17 44  1  0
 18 45  1  0
 20 46  1  0
 21 47  1  0
 23 48  1  0
 24 49  1  0
 25 50  1  0
 26 51  1  0
M  END
>  <meeko>  (5) 
{"free_energy": -8.86, "intermolecular_energy": -10.65, "internal_energy": -1.09, "cluster_size": 9, "cluster_id": 1, "rank_in_cluster": 2}

$$$$

     RDKit          3D

 51 54  0  0  0  0  0  0  0  0999 V2000
  141.3720   72.7490  221.6320 O   0  0  0  0  0  0  0  0  0  0  0  0
  140.3570   72.7900  222.3820 C   0  0  0  0  0  0  0  0  0  0  0  0
  139.4080   73.8590  222.2470 N   0  0  0  0  0  0  0  0  0  0  0  0
  139.6020   74.9360  221.3160 C   0  0  0  0  0  0  0  0  0  0  0  0
  140.6110   75.8080  221.4340 C   0  0  0  0  0  0  0  0  0  0  0  0
  141.1000   76.1020  222.7050 O   0  0  0  0  0  0  0  0  0  0  0  0
  141.1980   76.4440  220.2830 N   0  0  0  0  0  0  0  0  0  0  0  0
  141.3630   75.6230  219.0700 C   0  0  0  0  0  0  0  0  0  0  0  0
  142.5760   76.0740  218.2480 C   0  0  0  0  0  0  0  0  0  0  0  0
  142.4890   77.5690  217.9080 C   0  0  0  0  0  0  0  0  0  0  0  0
  142.0520   78.4490  219.0980 C   0  0  0  0  0  0  0  0  0  0  0  0
  141.9840   77.6850  220.4400 C   0  0  1  0  0  0  0  0  0  0  0  0
  141.4130   78.5880  221.5220 C   0  0  0  0  0  0  0  0  0  0  0  0
  142.2220   79.0600  222.5740 C   0  0  0  0  0  0  0  0  0  0  0  0
  141.6880   79.8980  223.5580 C   0  0  0  0  0  0  0  0  0  0  0  0
  140.3420   80.2640  223.5070 C   0  0  0  0  0  0  0  0  0  0  0  0
  139.5270   79.7940  222.4750 C   0  0  0  0  0  0  0  0  0  0  0  0
  140.0570   78.9590  221.4860 C   0  0  0  0  0  0  0  0  0  0  0  0
  140.1500   71.7330  223.3970 C   0  0  0  0  0  0  0  0  0  0  0  0
  139.4180   70.5720  223.0960 C   0  0  0  0  0  0  0  0  0  0  0  0
  139.2320   69.5950  224.0790 C   0  0  0  0  0  0  0  0  0  0  0  0
  139.7770   69.7780  225.3560 C   0  0  0  0  0  0  0  0  0  0  0  0
  139.6070   68.8210  226.3680 C   0  0  0  0  0  0  0  0  0  0  0  0
  140.1620   69.0370  227.6370 C   0  0  0  0  0  0  0  0  0  0  0  0
  140.8880   70.2030  227.8970 C   0  0  0  0  0  0  0  0  0  0  0  0
  141.0640   71.1610  226.8910 C   0  0  0  0  0  0  0  0  0  0  0  0
  140.5110   70.9540  225.6220 C   0  0  0  0  0  0  0  0  0  0  0  0
  140.6730   71.8870  224.6470 N   0  0  0  0  0  0  0  0  0  0  0  0
  138.5800   73.8710  222.8800 H   0  0  0  0  0  0  0  0  0  0  0  0
  138.8980   75.0478  220.4782 H   0  0  0  0  0  0  0  0  0  0  0  0
  142.0810   76.3020  222.8520 H   0  0  0  0  0  0  0  0  0  0  0  0
  141.5018   74.5725  219.3654 H   0  0  0  0  0  0  0  0  0  0  0  0
  140.4624   75.7391  218.4491 H   0  0  0  0  0  0  0  0  0  0  0  0
  143.4919   75.8905  218.8289 H   0  0  0  0  0  0  0  0  0  0  0  0
  142.5930   75.5026  217.3082 H   0  0  0  0  0  0  0  0  0  0  0  0
  143.4800   77.9072  217.5709 H   0  0  0  0  0  0  0  0  0  0  0  0
  141.7217   77.6781  217.1274 H   0  0  0  0  0  0  0  0  0  0  0  0
  142.7720   79.2739  219.2035 H   0  0  0  0  0  0  0  0  0  0  0  0
  141.0353   78.8069  218.8785 H   0  0  0  0  0  0  0  0  0  0  0  0
  142.9987   77.3935  220.7489 H   0  0  0  0  0  0  0  0  0  0  0  0
  143.2813   78.7674  222.6219 H   0  0  0  0  0  0  0  0  0  0  0  0
  142.3285   80.2686  224.3719 H   0  0  0  0  0  0  0  0  0  0  0  0
  139.9226   80.9237  224.2809 H   0  0  0  0  0  0  0  0  0  0  0  0
  138.4657   80.0811  222.4398 H   0  0  0  0  0  0  0  0  0  0  0  0
  139.4101   78.5907  220.6761 H   0  0  0  0  0  0  0  0  0  0  0  0
  138.9930   70.4322  222.0911 H   0  0  0  0  0  0  0  0  0  0  0  0
  138.6588   68.6846  223.8497 H   0  0  0  0  0  0  0  0  0  0  0  0
  139.0383   67.9014  226.1656 H   0  0  0  0  0  0  0  0  0  0  0  0
  140.0259   68.2871  228.4302 H   0  0  0  0  0  0  0  0  0  0  0  0
  141.3220   70.3683  228.8942 H   0  0  0  0  0  0  0  0  0  0  0  0
  141.6372   72.0767  227.0982 H   0  0  0  0  0  0  0  0  0  0  0  0
  1  2  2  0
  2  3  1  0
  3  4  1  0
  4  5  2  0
  5  6  1  0
  5  7  1  0
  7  8  1  0
  8  9  1  0
  9 10  1  0
 10 11  1  0
 11 12  1  0
 12 13  1  0
 13 14  2  0
 14 15  1  0
 15 16  2  0
 16 17  1  0
 17 18  2  0
  2 19  1  0
 19 20  2  0
 20 21  1  0
 21 22  2  0
 22 23  1  0
 23 24  2  0
 24 25  1  0
 25 26  2  0
 26 27  1  0
 27 28  2  0
 12  7  1  0
 18 13  1  0
 28 19  1  0
 27 22  1  0
  3 29  1  0
  4 30  1  0
  6 31  1  0
  8 32  1  0
  8 33  1  0
  9 34  1  0
  9 35  1  0
 10 36  1  0
 10 37  1  0
 11 38  1  0
 11 39  1  0
 12 40  1  1
 14 41  1  0
 15 42  1  0
 16 43  1  0
 17 44  1  0
 18 45  1  0
 20 46  1  0
 21 47  1  0
 23 48  1  0
 24 49  1  0
 25 50  1  0
 26 51  1  0
M  END
>  <meeko>  (6) 
{"free_energy": -8.66, "intermolecular_energy": -10.45, "internal_energy": -1.15, "cluster_size": 9, "cluster_id": 1, "rank_in_cluster": 8}

$$$$

     RDKit          3D

 51 54  0  0  0  0  0  0  0  0999 V2000
  141.2770   72.4480  221.5210 O   0  0  0  0  0  0  0  0  0  0  0  0
  140.3800   72.6440  222.3870 C   0  0  0  0  0  0  0  0  0  0  0  0
  139.5600   73.8210  222.3170 N   0  0  0  0  0  0  0  0  0  0  0  0
  139.7630   74.8330  221.3180 C   0  0  0  0  0  0  0  0  0  0  0  0
  140.6970   75.7830  221.4450 C   0  0  0  0  0  0  0  0  0  0  0  0
  141.2160   76.0500  222.7090 O   0  0  0  0  0  0  0  0  0  0  0  0
  141.1740   76.5300  220.3100 N   0  0  0  0  0  0  0  0  0  0  0  0
  141.3060   75.8050  219.0320 C   0  0  0  0  0  0  0  0  0  0  0  0
  142.4370   76.3840  218.1750 C   0  0  0  0  0  0  0  0  0  0  0  0
  142.2470   77.8900  217.9500 C   0  0  0  0  0  0  0  0  0  0  0  0
  141.8390   78.6580  219.2240 C   0  0  0  0  0  0  0  0  0  0  0  0
  141.8990   77.8020  220.5090 C   0  0  1  0  0  0  0  0  0  0  0  0
  141.3490   78.5930  221.6850 C   0  0  0  0  0  0  0  0  0  0  0  0
  142.1960   79.0360  222.7200 C   0  0  0  0  0  0  0  0  0  0  0  0
  141.6800   79.7720  223.7920 C   0  0  0  0  0  0  0  0  0  0  0  0
  140.3160   80.0630  223.8470 C   0  0  0  0  0  0  0  0  0  0  0  0
  139.4640   79.6190  222.8320 C   0  0  0  0  0  0  0  0  0  0  0  0
  139.9750   78.8870  221.7560 C   0  0  0  0  0  0  0  0  0  0  0  0
  140.1760   71.6570  223.4710 C   0  0  0  0  0  0  0  0  0  0  0  0
  139.4540   70.4720  223.2470 C   0  0  0  0  0  0  0  0  0  0  0  0
  139.2720   69.5630  224.2930 C   0  0  0  0  0  0  0  0  0  0  0  0
  139.8100   69.8370  225.5570 C   0  0  0  0  0  0  0  0  0  0  0  0
  139.6420   68.9500  226.6320 C   0  0  0  0  0  0  0  0  0  0  0  0
  140.1890   69.2560  227.8840 C   0  0  0  0  0  0  0  0  0  0  0  0
  140.9050   70.4430  228.0670 C   0  0  0  0  0  0  0  0  0  0  0  0
  141.0790   71.3310  227.0000 C   0  0  0  0  0  0  0  0  0  0  0  0
  140.5330   71.0340  225.7460 C   0  0  0  0  0  0  0  0  0  0  0  0
  140.6910   71.9000  224.7100 N   0  0  0  0  0  0  0  0  0  0  0  0
  138.8270   73.9600  223.0460 H   0  0  0  0  0  0  0  0  0  0  0  0
  139.1297   74.8269  220.4186 H   0  0  0  0  0  0  0  0  0  0  0  0
  142.1700   76.3700  222.8250 H   0  0  0  0  0  0  0  0  0  0  0  0
  141.5214   74.7468  219.2414 H   0  0  0  0  0  0  0  0  0  0  0  0
  140.3625   75.9086  218.4761 H   0  0  0  0  0  0  0  0  0  0  0  0
  143.3965   76.2157  218.6859 H   0  0  0  0  0  0  0  0  0  0  0  0
  142.4253   75.8813  217.1967 H   0  0  0  0  0  0  0  0  0  0  0  0
  143.1946   78.3086  217.5800 H   0  0  0  0  0  0  0  0  0  0  0  0
  141.4270   78.0071  217.2262 H   0  0  0  0  0  0  0  0  0  0  0  0
  142.5175   79.5153  219.3454 H   0  0  0  0  0  0  0  0  0  0  0  0
  140.7919   78.9681  219.0919 H   0  0  0  0  0  0  0  0  0  0  0  0
  142.9459   77.5513  220.7354 H   0  0  0  0  0  0  0  0  0  0  0  0
  143.2702   78.8016  222.6850 H   0  0  0  0  0  0  0  0  0  0  0  0
  142.3494   80.1215  224.5918 H   0  0  0  0  0  0  0  0  0  0  0  0
  139.9113   80.6423  224.6900 H   0  0  0  0  0  0  0  0  0  0  0  0
  138.3887   79.8460  222.8798 H   0  0  0  0  0  0  0  0  0  0  0  0
  139.2992   78.5391  220.9608 H   0  0  0  0  0  0  0  0  0  0  0  0
  139.0339   70.2609  222.2525 H   0  0  0  0  0  0  0  0  0  0  0  0
  138.7074   68.6342  224.1240 H   0  0  0  0  0  0  0  0  0  0  0  0
  139.0807   68.0146  226.4908 H   0  0  0  0  0  0  0  0  0  0  0  0
  140.0551   68.5608  228.7259 H   0  0  0  0  0  0  0  0  0  0  0  0
  141.3326   70.6793  229.0526 H   0  0  0  0  0  0  0  0  0  0  0  0
  141.6450   72.2627  227.1467 H   0  0  0  0  0  0  0  0  0  0  0  0
  1  2  2  0
  2  3  1  0
  3  4  1  0
  4  5  2  0
  5  6  1  0
  5  7  1  0
  7  8  1  0
  8  9  1  0
  9 10  1  0
 10 11  1  0
 11 12  1  0
 12 13  1  0
 13 14  2  0
 14 15  1  0
 15 16  2  0
 16 17  1  0
 17 18  2  0
  2 19  1  0
 19 20  2  0
 20 21  1  0
 21 22  2  0
 22 23  1  0
 23 24  2  0
 24 25  1  0
 25 26  2  0
 26 27  1  0
 27 28  2  0
 12  7  1  0
 18 13  1  0
 28 19  1  0
 27 22  1  0
  3 29  1  0
  4 30  1  0
  6 31  1  0
  8 32  1  0
  8 33  1  0
  9 34  1  0
  9 35  1  0
 10 36  1  0
 10 37  1  0
 11 38  1  0
 11 39  1  0
 12 40  1  1
 14 41  1  0
 15 42  1  0
 16 43  1  0
 17 44  1  0
 18 45  1  0
 20 46  1  0
 21 47  1  0
 23 48  1  0
 24 49  1  0
 25 50  1  0
 26 51  1  0
M  END
>  <meeko>  (7) 
{"free_energy": -8.82, "intermolecular_energy": -10.61, "internal_energy": -1.11, "cluster_size": 9, "cluster_id": 1, "rank_in_cluster": 4}

$$$$

     RDKit          3D

 51 54  0  0  0  0  0  0  0  0999 V2000
  141.0780   71.6100  221.3540 O   0  0  0  0  0  0  0  0  0  0  0  0
  140.4670   72.1510  222.3180 C   0  0  0  0  0  0  0  0  0  0  0  0
  140.0040   73.5060  222.2020 N   0  0  0  0  0  0  0  0  0  0  0  0
  140.2660   74.3040  221.0360 C   0  0  0  0  0  0  0  0  0  0  0  0
  140.9670   75.4430  221.0930 C   0  0  0  0  0  0  0  0  0  0  0  0
  141.2640   75.9860  222.3400 O   0  0  0  0  0  0  0  0  0  0  0  0
  141.4170   76.1130  219.9010 N   0  0  0  0  0  0  0  0  0  0  0  0
  140.6650   77.3080  219.4750 C   0  0  0  0  0  0  0  0  0  0  0  0
  140.6990   77.4770  217.9520 C   0  0  0  0  0  0  0  0  0  0  0  0
  142.1420   77.5050  217.4300 C   0  0  0  0  0  0  0  0  0  0  0  0
  143.0480   76.4250  218.0590 C   0  0  0  0  0  0  0  0  0  0  0  0
  142.2810   75.4080  218.9330 C   0  0  1  0  0  0  0  0  0  0  0  0
  143.2630   74.4730  219.6220 C   0  0  0  0  0  0  0  0  0  0  0  0
  144.4490   74.9660  220.1980 C   0  0  0  0  0  0  0  0  0  0  0  0
  145.3400   74.0980  220.8390 C   0  0  0  0  0  0  0  0  0  0  0  0
  145.0600   72.7320  220.9010 C   0  0  0  0  0  0  0  0  0  0  0  0
  143.8910   72.2300  220.3240 C   0  0  0  0  0  0  0  0  0  0  0  0
  142.9960   73.0930  219.6860 C   0  0  0  0  0  0  0  0  0  0  0  0
  140.2300   71.3870  223.5620 C   0  0  0  0  0  0  0  0  0  0  0  0
  139.5280   70.1690  223.5420 C   0  0  0  0  0  0  0  0  0  0  0  0
  139.3130   69.4740  224.7350 C   0  0  0  0  0  0  0  0  0  0  0  0
  139.7990   69.9920  225.9420 C   0  0  0  0  0  0  0  0  0  0  0  0
  139.5970   69.3230  227.1600 C   0  0  0  0  0  0  0  0  0  0  0  0
  140.0930   69.8710  228.3500 C   0  0  0  0  0  0  0  0  0  0  0  0
  140.7920   71.0820  228.3290 C   0  0  0  0  0  0  0  0  0  0  0  0
  140.9980   71.7540  227.1180 C   0  0  0  0  0  0  0  0  0  0  0  0
  140.5040   71.2140  225.9250 C   0  0  0  0  0  0  0  0  0  0  0  0
  140.6950   71.8690  224.7490 N   0  0  0  0  0  0  0  0  0  0  0  0
  139.5050   73.9310  223.0120 H   0  0  0  0  0  0  0  0  0  0  0  0
  139.8773   73.9675  220.0635 H   0  0  0  0  0  0  0  0  0  0  0  0
  142.1800   76.3710  222.5360 H   0  0  0  0  0  0  0  0  0  0  0  0
  139.6191   77.2075  219.8006 H   0  0  0  0  0  0  0  0  0  0  0  0
  141.1330   78.1925  219.9319 H   0  0  0  0  0  0  0  0  0  0  0  0
  140.1647   76.6363  217.4855 H   0  0  0  0  0  0  0  0  0  0  0  0
  140.2169   78.4320  217.6961 H   0  0  0  0  0  0  0  0  0  0  0  0
  142.1209   77.3502  216.3411 H   0  0  0  0  0  0  0  0  0  0  0  0
  142.5658   78.4820  217.7056 H   0  0  0  0  0  0  0  0  0  0  0  0
  143.5510   75.8775  217.2483 H   0  0  0  0  0  0  0  0  0  0  0  0
  143.7602   76.9442  218.7172 H   0  0  0  0  0  0  0  0  0  0  0  0
  141.6265   74.7958  218.2952 H   0  0  0  0  0  0  0  0  0  0  0  0
  144.6769   76.0408  220.1439 H   0  0  0  0  0  0  0  0  0  0  0  0
  146.2607   74.4921  221.2939 H   0  0  0  0  0  0  0  0  0  0  0  0
  145.7607   72.0499  221.4048 H   0  0  0  0  0  0  0  0  0  0  0  0
  143.6744   71.1526  220.3720 H   0  0  0  0  0  0  0  0  0  0  0  0
  142.0782   72.6915  219.2316 H   0  0  0  0  0  0  0  0  0  0  0  0
  139.1497   69.7650  222.5914 H   0  0  0  0  0  0  0  0  0  0  0  0
  138.7629   68.5215  224.7261 H   0  0  0  0  0  0  0  0  0  0  0  0
  139.0496   68.3691  227.1797 H   0  0  0  0  0  0  0  0  0  0  0  0
  139.9322   69.3472  229.3038 H   0  0  0  0  0  0  0  0  0  0  0  0
  141.1809   71.5076  229.2658 H   0  0  0  0  0  0  0  0  0  0  0  0
  141.5482   72.7064  227.1042 H   0  0  0  0  0  0  0  0  0  0  0  0
  1  2  2  0
  2  3  1  0
  3  4  1  0
  4  5  2  0
  5  6  1  0
  5  7  1  0
  7  8  1  0
  8  9  1  0
  9 10  1  0
 10 11  1  0
 11 12  1  0
 12 13  1  0
 13 14  2  0
 14 15  1  0
 15 16  2  0
 16 17  1  0
 17 18  2  0
  2 19  1  0
 19 20  2  0
 20 21  1  0
 21 22  2  0
 22 23  1  0
 23 24  2  0
 24 25  1  0
 25 26  2  0
 26 27  1  0
 27 28  2  0
 12  7  1  0
 18 13  1  0
 28 19  1  0
 27 22  1  0
  3 29  1  0
  4 30  1  0
  6 31  1  0
  8 32  1  0
  8 33  1  0
  9 34  1  0
  9 35  1  0
 10 36  1  0
 10 37  1  0
 11 38  1  0
 11 39  1  0
 12 40  1  6
 14 41  1  0
 15 42  1  0
 16 43  1  0
 17 44  1  0
 18 45  1  0
 20 46  1  0
 21 47  1  0
 23 48  1  0
 24 49  1  0
 25 50  1  0
 26 51  1  0
M  END
>  <meeko>  (8) 
{"free_energy": -8.49, "intermolecular_energy": -10.28, "internal_energy": -1.63, "cluster_size": 7, "cluster_id": 2, "rank_in_cluster": 3}

$$$$

     RDKit          3D

 51 54  0  0  0  0  0  0  0  0999 V2000
  140.9130   71.6060  221.2990 O   0  0  0  0  0  0  0  0  0  0  0  0
  140.3990   72.1570  222.3120 C   0  0  0  0  0  0  0  0  0  0  0  0
  139.9940   73.5340  222.2500 N   0  0  0  0  0  0  0  0  0  0  0  0
  140.2100   74.3400  221.0810 C   0  0  0  0  0  0  0  0  0  0  0  0
  140.9850   75.4320  221.1010 C   0  0  0  0  0  0  0  0  0  0  0  0
  141.3610   75.9670  222.3300 O   0  0  0  0  0  0  0  0  0  0  0  0
  141.4360   76.0590  219.8850 N   0  0  0  0  0  0  0  0  0  0  0  0
  140.6900   77.2430  219.4210 C   0  0  0  0  0  0  0  0  0  0  0  0
  140.7210   77.3610  217.8930 C   0  0  0  0  0  0  0  0  0  0  0  0
  142.1630   77.3630  217.3670 C   0  0  0  0  0  0  0  0  0  0  0  0
  143.0640   76.3000  218.0300 C   0  0  0  0  0  0  0  0  0  0  0  0
  142.2930   75.3160  218.9390 C   0  0  1  0  0  0  0  0  0  0  0  0
  143.2720   74.3990  219.6570 C   0  0  0  0  0  0  0  0  0  0  0  0
  143.0020   73.0240  219.8030 C   0  0  0  0  0  0  0  0  0  0  0  0
  143.9140   72.1890  220.4560 C   0  0  0  0  0  0  0  0  0  0  0  0
  145.0960   72.7180  220.9780 C   0  0  0  0  0  0  0  0  0  0  0  0
  145.3690   74.0820  220.8480 C   0  0  0  0  0  0  0  0  0  0  0  0
  144.4630   74.9210  220.1930 C   0  0  0  0  0  0  0  0  0  0  0  0
  140.2140   71.3810  223.5580 C   0  0  0  0  0  0  0  0  0  0  0  0
  139.5530   70.1410  223.5480 C   0  0  0  0  0  0  0  0  0  0  0  0
  139.3870   69.4350  224.7430 C   0  0  0  0  0  0  0  0  0  0  0  0
  139.8820   69.9650  225.9410 C   0  0  0  0  0  0  0  0  0  0  0  0
  139.7290   69.2860  227.1600 C   0  0  0  0  0  0  0  0  0  0  0  0
  140.2320   69.8460  228.3420 C   0  0  0  0  0  0  0  0  0  0  0  0
  140.8890   71.0800  228.3100 C   0  0  0  0  0  0  0  0  0  0  0  0
  141.0470   71.7620  227.0980 C   0  0  0  0  0  0  0  0  0  0  0  0
  140.5450   71.2110  225.9140 C   0  0  0  0  0  0  0  0  0  0  0  0
  140.6890   71.8750  224.7370 N   0  0  0  0  0  0  0  0  0  0  0  0
  139.5740   73.9660  223.1010 H   0  0  0  0  0  0  0  0  0  0  0  0
  139.7228   74.0508  220.1381 H   0  0  0  0  0  0  0  0  0  0  0  0
  142.1730   76.5660  222.4120 H   0  0  0  0  0  0  0  0  0  0  0  0
  139.6444   77.1595  219.7523 H   0  0  0  0  0  0  0  0  0  0  0  0
  141.1643   78.1395  219.8469 H   0  0  0  0  0  0  0  0  0  0  0  0
  140.1806   76.5084  217.4560 H   0  0  0  0  0  0  0  0  0  0  0  0
  140.2438   78.3098  217.6066 H   0  0  0  0  0  0  0  0  0  0  0  0
  142.1384   77.1715  216.2841 H   0  0  0  0  0  0  0  0  0  0  0  0
  142.5930   78.3463  217.6084 H   0  0  0  0  0  0  0  0  0  0  0  0
  143.5627   75.7232  217.2372 H   0  0  0  0  0  0  0  0  0  0  0  0
  143.7798   76.8371  218.6696 H   0  0  0  0  0  0  0  0  0  0  0  0
  141.6336   74.6860  218.3239 H   0  0  0  0  0  0  0  0  0  0  0  0
  142.0680   72.6047  219.4008 H   0  0  0  0  0  0  0  0  0  0  0  0
  143.7001   71.1149  220.5585 H   0  0  0  0  0  0  0  0  0  0  0  0
  145.8127   72.0605  221.4919 H   0  0  0  0  0  0  0  0  0  0  0  0
  146.2997   74.4969  221.2624 H   0  0  0  0  0  0  0  0  0  0  0  0
  144.6825   75.9945  220.0963 H   0  0  0  0  0  0  0  0  0  0  0  0
  139.1679   69.7278  222.6041 H   0  0  0  0  0  0  0  0  0  0  0  0
  138.8685   68.4649  224.7423 H   0  0  0  0  0  0  0  0  0  0  0  0
  139.2142   68.3143  227.1874 H   0  0  0  0  0  0  0  0  0  0  0  0
  140.1098   69.3138  229.2969 H   0  0  0  0  0  0  0  0  0  0  0  0
  141.2828   71.5159  229.2400 H   0  0  0  0  0  0  0  0  0  0  0  0
  141.5661   72.7316  227.0764 H   0  0  0  0  0  0  0  0  0  0  0  0
  1  2  2  0
  2  3  1  0
  3  4  1  0
  4  5  2  0
  5  6  1  0
  5  7  1  0
  7  8  1  0
  8  9  1  0
  9 10  1  0
 10 11  1  0
 11 12  1  0
 12 13  1  0
 13 14  2  0
 14 15  1  0
 15 16  2  0
 16 17  1  0
 17 18  2  0
  2 19  1  0
 19 20  2  0
 20 21  1  0
 21 22  2  0
 22 23  1  0
 23 24  2  0
 24 25  1  0
 25 26  2  0
 26 27  1  0
 27 28  2  0
 12  7  1  0
 18 13  1  0
 28 19  1  0
 27 22  1  0
  3 29  1  0
  4 30  1  0
  6 31  1  0
  8 32  1  0
  8 33  1  0
  9 34  1  0
  9 35  1  0
 10 36  1  0
 10 37  1  0
 11 38  1  0
 11 39  1  0
 12 40  1  6
 14 41  1  0
 15 42  1  0
 16 43  1  0
 17 44  1  0
 18 45  1  0
 20 46  1  0
 21 47  1  0
 23 48  1  0
 24 49  1  0
 25 50  1  0
 26 51  1  0
M  END
>  <meeko>  (9) 
{"free_energy": -8.49, "intermolecular_energy": -10.28, "internal_energy": -1.67, "cluster_size": 7, "cluster_id": 2, "rank_in_cluster": 2}

$$$$

     RDKit          3D

 51 54  0  0  0  0  0  0  0  0999 V2000
  141.4060   73.1310  221.8280 O   0  0  0  0  0  0  0  0  0  0  0  0
  140.3050   73.0060  222.4330 C   0  0  0  0  0  0  0  0  0  0  0  0
  139.2330   73.9230  222.1660 N   0  0  0  0  0  0  0  0  0  0  0  0
  139.3850   75.0330  221.2670 C   0  0  0  0  0  0  0  0  0  0  0  0
  140.5050   75.7650  221.2210 C   0  0  0  0  0  0  0  0  0  0  0  0
  141.3600   75.7560  222.3210 O   0  0  0  0  0  0  0  0  0  0  0  0
  140.8430   76.5570  220.0660 N   0  0  0  0  0  0  0  0  0  0  0  0
  140.8120   75.8840  218.7540 C   0  0  0  0  0  0  0  0  0  0  0  0
  141.8320   76.4940  217.7870 C   0  0  0  0  0  0  0  0  0  0  0  0
  141.6250   78.0090  217.6470 C   0  0  0  0  0  0  0  0  0  0  0  0
  141.3830   78.7260  218.9920 C   0  0  0  0  0  0  0  0  0  0  0  0
  141.5960   77.8180  220.2240 C   0  0  1  0  0  0  0  0  0  0  0  0
  141.2000   78.5620  221.4900 C   0  0  0  0  0  0  0  0  0  0  0  0
  139.8450   78.7830  221.8080 C   0  0  0  0  0  0  0  0  0  0  0  0
  139.4930   79.4590  222.9800 C   0  0  0  0  0  0  0  0  0  0  0  0
  140.4870   79.9290  223.8400 C   0  0  0  0  0  0  0  0  0  0  0  0
  141.8340   79.7250  223.5310 C   0  0  0  0  0  0  0  0  0  0  0  0
  142.1910   79.0460  222.3620 C   0  0  0  0  0  0  0  0  0  0  0  0
  140.1250   71.9140  223.4150 C   0  0  0  0  0  0  0  0  0  0  0  0
  139.4140   70.7480  223.0790 C   0  0  0  0  0  0  0  0  0  0  0  0
  139.2530   69.7370  224.0310 C   0  0  0  0  0  0  0  0  0  0  0  0
  139.8020   69.8890  225.3100 C   0  0  0  0  0  0  0  0  0  0  0  0
  139.6560   68.8970  226.2920 C   0  0  0  0  0  0  0  0  0  0  0  0
  140.2140   69.0820  227.5640 C   0  0  0  0  0  0  0  0  0  0  0  0
  140.9180   70.2540  227.8580 C   0  0  0  0  0  0  0  0  0  0  0  0
  141.0700   71.2470  226.8840 C   0  0  0  0  0  0  0  0  0  0  0  0
  140.5130   71.0700  225.6110 C   0  0  0  0  0  0  0  0  0  0  0  0
  140.6510   72.0380  224.6670 N   0  0  0  0  0  0  0  0  0  0  0  0
  138.3340   73.8000  222.6800 H   0  0  0  0  0  0  0  0  0  0  0  0
  138.5536   75.2901  220.5941 H   0  0  0  0  0  0  0  0  0  0  0  0
  142.2110   75.2090  222.3150 H   0  0  0  0  0  0  0  0  0  0  0  0
  141.0444   74.8179  218.8933 H   0  0  0  0  0  0  0  0  0  0  0  0
  139.8079   76.0123  218.3234 H   0  0  0  0  0  0  0  0  0  0  0  0
  142.8463   76.3038  218.1679 H   0  0  0  0  0  0  0  0  0  0  0  0
  141.6965   76.0305  216.7987 H   0  0  0  0  0  0  0  0  0  0  0  0
  142.5220   78.4408  217.1791 H   0  0  0  0  0  0  0  0  0  0  0  0
  140.7224   78.1563  217.0358 H   0  0  0  0  0  0  0  0  0  0  0  0
  142.0771   79.5764  219.0626 H   0  0  0  0  0  0  0  0  0  0  0  0
  140.3299   79.0435  219.0034 H   0  0  0  0  0  0  0  0  0  0  0  0
  142.6611   77.5562  220.3083 H   0  0  0  0  0  0  0  0  0  0  0  0
  139.0587   78.4210  221.1292 H   0  0  0  0  0  0  0  0  0  0  0  0
  138.4327   79.6205  223.2245 H   0  0  0  0  0  0  0  0  0  0  0  0
  140.2093   80.4606  224.7621 H   0  0  0  0  0  0  0  0  0  0  0  0
  142.6154   80.0993  224.2087 H   0  0  0  0  0  0  0  0  0  0  0  0
  143.2533   78.8896  222.1232 H   0  0  0  0  0  0  0  0  0  0  0  0
  138.9867   70.6321  222.0720 H   0  0  0  0  0  0  0  0  0  0  0  0
  138.6959   68.8235  223.7757 H   0  0  0  0  0  0  0  0  0  0  0  0
  139.1033   67.9739  226.0631 H   0  0  0  0  0  0  0  0  0  0  0  0
  140.0981   68.3038  228.3328 H   0  0  0  0  0  0  0  0  0  0  0  0
  141.3536   70.3957  228.8581 H   0  0  0  0  0  0  0  0  0  0  0  0
  141.6268   72.1664  227.1179 H   0  0  0  0  0  0  0  0  0  0  0  0
  1  2  2  0
  2  3  1  0
  3  4  1  0
  4  5  2  0
  5  6  1  0
  5  7  1  0
  7  8  1  0
  8  9  1  0
  9 10  1  0
 10 11  1  0
 11 12  1  0
 12 13  1  0
 13 14  2  0
 14 15  1  0
 15 16  2  0
 16 17  1  0
 17 18  2  0
  2 19  1  0
 19 20  2  0
 20 21  1  0
 21 22  2  0
 22 23  1  0
 23 24  2  0
 24 25  1  0
 25 26  2  0
 26 27  1  0
 27 28  2  0
 12  7  1  0
 18 13  1  0
 28 19  1  0
 27 22  1  0
  3 29  1  0
  4 30  1  0
  6 31  1  0
  8 32  1  0
  8 33  1  0
  9 34  1  0
  9 35  1  0
 10 36  1  0
 10 37  1  0
 11 38  1  0
 11 39  1  0
 12 40  1  1
 14 41  1  0
 15 42  1  0
 16 43  1  0
 17 44  1  0
 18 45  1  0
 20 46  1  0
 21 47  1  0
 23 48  1  0
 24 49  1  0
 25 50  1  0
 26 51  1  0
M  END
>  <meeko>  (10) 
{"free_energy": -8.07, "intermolecular_energy": -9.86, "internal_energy": -1.64, "cluster_size": 9, "cluster_id": 1, "rank_in_cluster": 9}

$$$$

     RDKit          3D

 51 54  0  0  0  0  0  0  0  0999 V2000
  139.4570   71.1940  221.2170 O   0  0  0  0  0  0  0  0  0  0  0  0
  139.5850   71.8760  222.2720 C   0  0  0  0  0  0  0  0  0  0  0  0
  139.5120   73.3090  222.2110 N   0  0  0  0  0  0  0  0  0  0  0  0
  139.3570   74.0120  220.9680 C   0  0  0  0  0  0  0  0  0  0  0  0
  140.1650   73.8000  219.9220 C   0  0  0  0  0  0  0  0  0  0  0  0
  139.6300   73.8540  218.6370 O   0  0  0  0  0  0  0  0  0  0  0  0
  141.5670   73.5180  220.0960 N   0  0  0  0  0  0  0  0  0  0  0  0
  141.9920   72.1120  219.9710 C   0  0  0  0  0  0  0  0  0  0  0  0
  143.2110   71.8160  220.8520 C   0  0  0  0  0  0  0  0  0  0  0  0
  144.3640   72.7820  220.5460 C   0  0  0  0  0  0  0  0  0  0  0  0
  143.9160   74.2520  220.4000 C   0  0  0  0  0  0  0  0  0  0  0  0
  142.4390   74.4890  220.7870 C   0  0  1  0  0  0  0  0  0  0  0  0
  142.0470   75.9260  220.4790 C   0  0  0  0  0  0  0  0  0  0  0  0
  142.5390   76.5820  219.3340 C   0  0  0  0  0  0  0  0  0  0  0  0
  142.1640   77.9000  219.0550 C   0  0  0  0  0  0  0  0  0  0  0  0
  141.3040   78.5790  219.9210 C   0  0  0  0  0  0  0  0  0  0  0  0
  140.8180   77.9420  221.0660 C   0  0  0  0  0  0  0  0  0  0  0  0
  141.1870   76.6230  221.3470 C   0  0  0  0  0  0  0  0  0  0  0  0
  139.8090   71.1960  223.5660 C   0  0  0  0  0  0  0  0  0  0  0  0
  139.4840   69.8390  223.7380 C   0  0  0  0  0  0  0  0  0  0  0  0
  139.6990   69.2260  224.9760 C   0  0  0  0  0  0  0  0  0  0  0  0
  140.2400   69.9660  226.0360 C   0  0  0  0  0  0  0  0  0  0  0  0
  140.4650   69.3840  227.2930 C   0  0  0  0  0  0  0  0  0  0  0  0
  141.0030   70.1530  228.3340 C   0  0  0  0  0  0  0  0  0  0  0  0
  141.3190   71.4990  228.1230 C   0  0  0  0  0  0  0  0  0  0  0  0
  141.0990   72.0840  226.8710 C   0  0  0  0  0  0  0  0  0  0  0  0
  140.5590   71.3240  225.8270 C   0  0  0  0  0  0  0  0  0  0  0  0
  140.3360   71.8940  224.6130 N   0  0  0  0  0  0  0  0  0  0  0  0
  139.6230   73.8500  223.0950 H   0  0  0  0  0  0  0  0  0  0  0  0
  138.5467   74.7497  220.8724 H   0  0  0  0  0  0  0  0  0  0  0  0
  139.0120   73.1270  218.2990 H   0  0  0  0  0  0  0  0  0  0  0  0
  141.1618   71.4585  220.2773 H   0  0  0  0  0  0  0  0  0  0  0  0
  142.2689   71.9258  218.9228 H   0  0  0  0  0  0  0  0  0  0  0  0
  142.9245   71.9224  221.9087 H   0  0  0  0  0  0  0  0  0  0  0  0
  143.5507   70.7907  220.6439 H   0  0  0  0  0  0  0  0  0  0  0  0
  145.0955   72.7211  221.3653 H   0  0  0  0  0  0  0  0  0  0  0  0
  144.7921   72.4776  219.5795 H   0  0  0  0  0  0  0  0  0  0  0  0
  144.5498   74.8749  221.0483 H   0  0  0  0  0  0  0  0  0  0  0  0
  144.0178   74.5166  219.3372 H   0  0  0  0  0  0  0  0  0  0  0  0
  142.3125   74.3318  221.8683 H   0  0  0  0  0  0  0  0  0  0  0  0
  143.2234   76.0536  218.6540 H   0  0  0  0  0  0  0  0  0  0  0  0
  142.5462   78.4018  218.1538 H   0  0  0  0  0  0  0  0  0  0  0  0
  141.0090   79.6158  219.7017 H   0  0  0  0  0  0  0  0  0  0  0  0
  140.1432   78.4799  221.7481 H   0  0  0  0  0  0  0  0  0  0  0  0
  140.8030   76.1280  222.2511 H   0  0  0  0  0  0  0  0  0  0  0  0
  139.0622   69.2619  222.9019 H   0  0  0  0  0  0  0  0  0  0  0  0
  139.4441   68.1654  225.1177 H   0  0  0  0  0  0  0  0  0  0  0  0
  140.2193   68.3251  227.4612 H   0  0  0  0  0  0  0  0  0  0  0  0
  141.1772   69.6967  229.3196 H   0  0  0  0  0  0  0  0  0  0  0  0
  141.7412   72.0988  228.9427 H   0  0  0  0  0  0  0  0  0  0  0  0
  141.3507   73.1422  226.7071 H   0  0  0  0  0  0  0  0  0  0  0  0
  1  2  2  0
  2  3  1  0
  3  4  1  0
  4  5  2  0
  5  6  1  0
  5  7  1  0
  7  8  1  0
  8  9  1  0
  9 10  1  0
 10 11  1  0
 11 12  1  0
 12 13  1  0
 13 14  2  0
 14 15  1  0
 15 16  2  0
 16 17  1  0
 17 18  2  0
  2 19  1  0
 19 20  2  0
 20 21  1  0
 21 22  2  0
 22 23  1  0
 23 24  2  0
 24 25  1  0
 25 26  2  0
 26 27  1  0
 27 28  2  0
 12  7  1  0
 18 13  1  0
 28 19  1  0
 27 22  1  0
  3 29  1  0
  4 30  1  0
  6 31  1  0
  8 32  1  0
  8 33  1  0
  9 34  1  0
  9 35  1  0
 10 36  1  0
 10 37  1  0
 11 38  1  0
 11 39  1  0
 12 40  1  1
 14 41  1  0
 15 42  1  0
 16 43  1  0
 17 44  1  0
 18 45  1  0
 20 46  1  0
 21 47  1  0
 23 48  1  0
 24 49  1  0
 25 50  1  0
 26 51  1  0
M  END
>  <meeko>  (11) 
{"free_energy": -7.35, "intermolecular_energy": -9.14, "internal_energy": -1.84, "cluster_size": 3, "cluster_id": 4, "rank_in_cluster": 1}

$$$$

     RDKit          3D

 51 54  0  0  0  0  0  0  0  0999 V2000
  139.2710   71.0980  221.2510 O   0  0  0  0  0  0  0  0  0  0  0  0
  139.4460   71.7960  222.2880 C   0  0  0  0  0  0  0  0  0  0  0  0
  139.3730   73.2280  222.2100 N   0  0  0  0  0  0  0  0  0  0  0  0
  139.1660   73.9130  220.9640 C   0  0  0  0  0  0  0  0  0  0  0  0
  139.9660   73.7300  219.9070 C   0  0  0  0  0  0  0  0  0  0  0  0
  139.4250   73.8350  218.6280 O   0  0  0  0  0  0  0  0  0  0  0  0
  141.3660   73.4280  220.0630 N   0  0  0  0  0  0  0  0  0  0  0  0
  141.8050   72.0640  219.7160 C   0  0  0  0  0  0  0  0  0  0  0  0
  143.0070   71.6300  220.5630 C   0  0  0  0  0  0  0  0  0  0  0  0
  144.1590   72.6390  220.4480 C   0  0  0  0  0  0  0  0  0  0  0  0
  143.7030   74.1100  220.5380 C   0  0  0  0  0  0  0  0  0  0  0  0
  142.2160   74.2740  220.9260 C   0  0  1  0  0  0  0  0  0  0  0  0
  141.8210   75.7410  220.8530 C   0  0  0  0  0  0  0  0  0  0  0  0
  142.1960   76.5380  219.7540 C   0  0  0  0  0  0  0  0  0  0  0  0
  141.8170   77.8830  219.6920 C   0  0  0  0  0  0  0  0  0  0  0  0
  141.0710   78.4470  220.7290 C   0  0  0  0  0  0  0  0  0  0  0  0
  140.7020   77.6680  221.8290 C   0  0  0  0  0  0  0  0  0  0  0  0
  141.0740   76.3220  221.8930 C   0  0  0  0  0  0  0  0  0  0  0  0
  139.7240   71.1340  223.5820 C   0  0  0  0  0  0  0  0  0  0  0  0
  139.4460   69.7690  223.7730 C   0  0  0  0  0  0  0  0  0  0  0  0
  139.7120   69.1740  225.0090 C   0  0  0  0  0  0  0  0  0  0  0  0
  140.2560   69.9390  226.0490 C   0  0  0  0  0  0  0  0  0  0  0  0
  140.5310   69.3760  227.3050 C   0  0  0  0  0  0  0  0  0  0  0  0
  141.0710   70.1700  228.3260 C   0  0  0  0  0  0  0  0  0  0  0  0
  141.3380   71.5230  228.0960 C   0  0  0  0  0  0  0  0  0  0  0  0
  141.0680   72.0910  226.8460 C   0  0  0  0  0  0  0  0  0  0  0  0
  140.5270   71.3050  225.8220 C   0  0  0  0  0  0  0  0  0  0  0  0
  140.2550   71.8570  224.6090 N   0  0  0  0  0  0  0  0  0  0  0  0
  139.5230   73.7820  223.0800 H   0  0  0  0  0  0  0  0  0  0  0  0
  138.3210   74.6117  220.8760 H   0  0  0  0  0  0  0  0  0  0  0  0
  138.5590   73.3680  218.3890 H   0  0  0  0  0  0  0  0  0  0  0  0
  140.9735   71.3653  219.8904 H   0  0  0  0  0  0  0  0  0  0  0  0
  142.1064   72.0563  218.6581 H   0  0  0  0  0  0  0  0  0  0  0  0
  142.6969   71.5576  221.6159 H   0  0  0  0  0  0  0  0  0  0  0  0
  143.3592   70.6550  220.1952 H   0  0  0  0  0  0  0  0  0  0  0  0
  144.8730   72.4458  221.2622 H   0  0  0  0  0  0  0  0  0  0  0  0
  144.6103   72.5014  219.4543 H   0  0  0  0  0  0  0  0  0  0  0  0
  144.3181   74.6191  221.2946 H   0  0  0  0  0  0  0  0  0  0  0  0
  143.8252   74.5475  219.5362 H   0  0  0  0  0  0  0  0  0  0  0  0
  142.0667   73.9385  221.9629 H   0  0  0  0  0  0  0  0  0  0  0  0
  142.7909   76.0999  218.9390 H   0  0  0  0  0  0  0  0  0  0  0  0
  142.1067   78.4966  218.8262 H   0  0  0  0  0  0  0  0  0  0  0  0
  140.7737   79.5049  220.6800 H   0  0  0  0  0  0  0  0  0  0  0  0
  140.1174   78.1151  222.6465 H   0  0  0  0  0  0  0  0  0  0  0  0
  140.7808   75.7141  222.7616 H   0  0  0  0  0  0  0  0  0  0  0  0
  139.0208   69.1720  222.9528 H   0  0  0  0  0  0  0  0  0  0  0  0
  139.4947   68.1070  225.1651 H   0  0  0  0  0  0  0  0  0  0  0  0
  140.3227   68.3115  227.4880 H   0  0  0  0  0  0  0  0  0  0  0  0
  141.2851   69.7278  229.3102 H   0  0  0  0  0  0  0  0  0  0  0  0
  141.7616   72.1428  228.9000 H   0  0  0  0  0  0  0  0  0  0  0  0
  141.2810   73.1554  226.6681 H   0  0  0  0  0  0  0  0  0  0  0  0
  1  2  2  0
  2  3  1  0
  3  4  1  0
  4  5  2  0
  5  6  1  0
  5  7  1  0
  7  8  1  0
  8  9  1  0
  9 10  1  0
 10 11  1  0
 11 12  1  0
 12 13  1  0
 13 14  2  0
 14 15  1  0
 15 16  2  0
 16 17  1  0
 17 18  2  0
  2 19  1  0
 19 20  2  0
 20 21  1  0
 21 22  2  0
 22 23  1  0
 23 24  2  0
 24 25  1  0
 25 26  2  0
 26 27  1  0
 27 28  2  0
 12  7  1  0
 18 13  1  0
 28 19  1  0
 27 22  1  0
  3 29  1  0
  4 30  1  0
  6 31  1  0
  8 32  1  0
  8 33  1  0
  9 34  1  0
  9 35  1  0
 10 36  1  0
 10 37  1  0
 11 38  1  0
 11 39  1  0
 12 40  1  1
 14 41  1  0
 15 42  1  0
 16 43  1  0
 17 44  1  0
 18 45  1  0
 20 46  1  0
 21 47  1  0
 23 48  1  0
 24 49  1  0
 25 50  1  0
 26 51  1  0
M  END
>  <meeko>  (12) 
{"free_energy": -7.28, "intermolecular_energy": -9.07, "internal_energy": -1.94, "cluster_size": 3, "cluster_id": 4, "rank_in_cluster": 3}

$$$$

     RDKit          3D

 51 54  0  0  0  0  0  0  0  0999 V2000
  141.4630   72.8490  221.8030 O   0  0  0  0  0  0  0  0  0  0  0  0
  140.3880   72.7690  222.4600 C   0  0  0  0  0  0  0  0  0  0  0  0
  139.4110   73.8170  222.3670 N   0  0  0  0  0  0  0  0  0  0  0  0
  139.6380   75.0040  221.5900 C   0  0  0  0  0  0  0  0  0  0  0  0
  139.8140   76.2040  222.1550 C   0  0  0  0  0  0  0  0  0  0  0  0
  141.1100   76.6420  222.4130 O   0  0  0  0  0  0  0  0  0  0  0  0
  138.6980   77.0480  222.4990 N   0  0  0  0  0  0  0  0  0  0  0  0
  137.4000   76.3870  222.7320 C   0  0  0  0  0  0  0  0  0  0  0  0
  136.2310   77.3020  222.3510 C   0  0  0  0  0  0  0  0  0  0  0  0
  136.3170   78.6470  223.0860 C   0  0  0  0  0  0  0  0  0  0  0  0
  137.7360   79.2530  223.1000 C   0  0  0  0  0  0  0  0  0  0  0  0
  138.7420   78.4940  222.2050 C   0  0  1  0  0  0  0  0  0  0  0  0
  140.1370   79.0710  222.3880 C   0  0  0  0  0  0  0  0  0  0  0  0
  140.9120   79.4590  221.2780 C   0  0  0  0  0  0  0  0  0  0  0  0
  142.1900   79.9970  221.4590 C   0  0  0  0  0  0  0  0  0  0  0  0
  142.7090   80.1450  222.7470 C   0  0  0  0  0  0  0  0  0  0  0  0
  141.9530   79.7550  223.8550 C   0  0  0  0  0  0  0  0  0  0  0  0
  140.6740   79.2190  223.6790 C   0  0  0  0  0  0  0  0  0  0  0  0
  140.1390   71.5930  223.3230 C   0  0  0  0  0  0  0  0  0  0  0  0
  139.4140   70.4850  222.8480 C   0  0  0  0  0  0  0  0  0  0  0  0
  139.1880   69.3930  223.6900 C   0  0  0  0  0  0  0  0  0  0  0  0
  139.6860   69.4060  224.9990 C   0  0  0  0  0  0  0  0  0  0  0  0
  139.4750   68.3280  225.8730 C   0  0  0  0  0  0  0  0  0  0  0  0
  139.9830   68.3740  227.1780 C   0  0  0  0  0  0  0  0  0  0  0  0
  140.7040   69.4920  227.6120 C   0  0  0  0  0  0  0  0  0  0  0  0
  140.9200   70.5690  226.7450 C   0  0  0  0  0  0  0  0  0  0  0  0
  140.4140   70.5320  225.4410 C   0  0  0  0  0  0  0  0  0  0  0  0
  140.6150   71.5810  224.6010 N   0  0  0  0  0  0  0  0  0  0  0  0
  138.5320   73.7280  222.9220 H   0  0  0  0  0  0  0  0  0  0  0  0
  139.6681   74.9235  220.4934 H   0  0  0  0  0  0  0  0  0  0  0  0
  141.9120   76.1160  222.0890 H   0  0  0  0  0  0  0  0  0  0  0  0
  137.3505   75.4712  222.1247 H   0  0  0  0  0  0  0  0  0  0  0  0
  137.3194   76.1495  223.8030 H   0  0  0  0  0  0  0  0  0  0  0  0
  136.2560   77.4835  221.2664 H   0  0  0  0  0  0  0  0  0  0  0  0
  135.2922   76.8066  222.6395 H   0  0  0  0  0  0  0  0  0  0  0  0
  135.6399   79.3582  222.5903 H   0  0  0  0  0  0  0  0  0  0  0  0
  136.0349   78.4614  224.1329 H   0  0  0  0  0  0  0  0  0  0  0  0
  137.6733   80.2933  222.7479 H   0  0  0  0  0  0  0  0  0  0  0  0
  138.1066   79.1825  224.1333 H   0  0  0  0  0  0  0  0  0  0  0  0
  138.4637   78.6222  221.1485 H   0  0  0  0  0  0  0  0  0  0  0  0
  140.5093   79.3380  220.2616 H   0  0  0  0  0  0  0  0  0  0  0  0
  142.7864   80.3036  220.5870 H   0  0  0  0  0  0  0  0  0  0  0  0
  143.7140   80.5690  222.8891 H   0  0  0  0  0  0  0  0  0  0  0  0
  142.3651   79.8699  224.8684 H   0  0  0  0  0  0  0  0  0  0  0  0
  140.0845   78.9114  224.5553 H   0  0  0  0  0  0  0  0  0  0  0  0
  139.0268   70.4783  221.8184 H   0  0  0  0  0  0  0  0  0  0  0  0
  138.6199   68.5245  223.3254 H   0  0  0  0  0  0  0  0  0  0  0  0
  138.9107   67.4470  225.5333 H   0  0  0  0  0  0  0  0  0  0  0  0
  139.8147   67.5297  227.8627 H   0  0  0  0  0  0  0  0  0  0  0  0
  141.1019   69.5243  228.6370 H   0  0  0  0  0  0  0  0  0  0  0  0
  141.4883   71.4458  227.0890 H   0  0  0  0  0  0  0  0  0  0  0  0
  1  2  2  0
  2  3  1  0
  3  4  1  0
  4  5  2  0
  5  6  1  0
  5  7  1  0
  7  8  1  0
  8  9  1  0
  9 10  1  0
 10 11  1  0
 11 12  1  0
 12 13  1  0
 13 14  2  0
 14 15  1  0
 15 16  2  0
 16 17  1  0
 17 18  2  0
  2 19  1  0
 19 20  2  0
 20 21  1  0
 21 22  2  0
 22 23  1  0
 23 24  2  0
 24 25  1  0
 25 26  2  0
 26 27  1  0
 27 28  2  0
 12  7  1  0
 18 13  1  0
 28 19  1  0
 27 22  1  0
  3 29  1  0
  4 30  1  0
  6 31  1  0
  8 32  1  0
  8 33  1  0
  9 34  1  0
  9 35  1  0
 10 36  1  0
 10 37  1  0
 11 38  1  0
 11 39  1  0
 12 40  1  6
 14 41  1  0
 15 42  1  0
 16 43  1  0
 17 44  1  0
 18 45  1  0
 20 46  1  0
 21 47  1  0
 23 48  1  0
 24 49  1  0
 25 50  1  0
 26 51  1  0
M  END
>  <meeko>  (13) 
{"free_energy": -8.76, "intermolecular_energy": -10.55, "internal_energy": -0.95, "cluster_size": 9, "cluster_id": 1, "rank_in_cluster": 6}

$$$$

     RDKit          3D

 51 54  0  0  0  0  0  0  0  0999 V2000
  141.2430   72.4460  221.5030 O   0  0  0  0  0  0  0  0  0  0  0  0
  140.3540   72.6370  222.3790 C   0  0  0  0  0  0  0  0  0  0  0  0
  139.5330   73.8140  222.3220 N   0  0  0  0  0  0  0  0  0  0  0  0
  139.7270   74.8310  221.3260 C   0  0  0  0  0  0  0  0  0  0  0  0
  140.6750   75.7690  221.4400 C   0  0  0  0  0  0  0  0  0  0  0  0
  141.2090   76.0360  222.6980 O   0  0  0  0  0  0  0  0  0  0  0  0
  141.1520   76.5030  220.2960 N   0  0  0  0  0  0  0  0  0  0  0  0
  141.2770   75.7660  219.0260 C   0  0  0  0  0  0  0  0  0  0  0  0
  142.4090   76.3310  218.1600 C   0  0  0  0  0  0  0  0  0  0  0  0
  142.2240   77.8360  217.9210 C   0  0  0  0  0  0  0  0  0  0  0  0
  141.8230   78.6180  219.1890 C   0  0  0  0  0  0  0  0  0  0  0  0
  141.8830   77.7740  220.4810 C   0  0  1  0  0  0  0  0  0  0  0  0
  141.3390   78.5780  221.6520 C   0  0  0  0  0  0  0  0  0  0  0  0
  139.9660   78.8800  221.7480 C   0  0  0  0  0  0  0  0  0  0  0  0
  139.4760   79.6120  222.8340 C   0  0  0  0  0  0  0  0  0  0  0  0
  140.3500   80.0570  223.8280 C   0  0  0  0  0  0  0  0  0  0  0  0
  141.7140   79.7720  223.7380 C   0  0  0  0  0  0  0  0  0  0  0  0
  142.2090   79.0370  222.6570 C   0  0  0  0  0  0  0  0  0  0  0  0
  140.1610   71.6450  223.4590 C   0  0  0  0  0  0  0  0  0  0  0  0
  139.4550   70.4510  223.2300 C   0  0  0  0  0  0  0  0  0  0  0  0
  139.2820   69.5370  224.2730 C   0  0  0  0  0  0  0  0  0  0  0  0
  139.8140   69.8140  225.5390 C   0  0  0  0  0  0  0  0  0  0  0  0
  139.6560   68.9210  226.6110 C   0  0  0  0  0  0  0  0  0  0  0  0
  140.1970   69.2300  227.8660 C   0  0  0  0  0  0  0  0  0  0  0  0
  140.8980   70.4260  228.0530 C   0  0  0  0  0  0  0  0  0  0  0  0
  141.0610   71.3200  226.9890 C   0  0  0  0  0  0  0  0  0  0  0  0
  140.5210   71.0200  225.7330 C   0  0  0  0  0  0  0  0  0  0  0  0
  140.6710   71.8900  224.7000 N   0  0  0  0  0  0  0  0  0  0  0  0
  138.8070   73.9490  223.0590 H   0  0  0  0  0  0  0  0  0  0  0  0
  139.0748   74.8391  220.4403 H   0  0  0  0  0  0  0  0  0  0  0  0
  142.1590   76.3690  222.8020 H   0  0  0  0  0  0  0  0  0  0  0  0
  141.4876   74.7088  219.2450 H   0  0  0  0  0  0  0  0  0  0  0  0
  140.3326   75.8693  218.4715 H   0  0  0  0  0  0  0  0  0  0  0  0
  143.3692   76.1637  218.6700 H   0  0  0  0  0  0  0  0  0  0  0  0
  142.3934   75.8184  217.1869 H   0  0  0  0  0  0  0  0  0  0  0  0
  143.1720   78.2474  217.5440 H   0  0  0  0  0  0  0  0  0  0  0  0
  141.4021   77.9493  217.1987 H   0  0  0  0  0  0  0  0  0  0  0  0
  142.5056   79.4734  219.3004 H   0  0  0  0  0  0  0  0  0  0  0  0
  140.7770   78.9318  219.0571 H   0  0  0  0  0  0  0  0  0  0  0  0
  142.9296   77.5214  220.7064 H   0  0  0  0  0  0  0  0  0  0  0  0
  139.2751   78.5377  220.9635 H   0  0  0  0  0  0  0  0  0  0  0  0
  138.4017   79.8374  222.9053 H   0  0  0  0  0  0  0  0  0  0  0  0
  139.9638   80.6323  224.6823 H   0  0  0  0  0  0  0  0  0  0  0  0
  142.4011   80.1270  224.5202 H   0  0  0  0  0  0  0  0  0  0  0  0
  143.2847   78.8165  222.5921 H   0  0  0  0  0  0  0  0  0  0  0  0
  139.0404   70.2370  222.2338 H   0  0  0  0  0  0  0  0  0  0  0  0
  138.7291   68.6019  224.1002 H   0  0  0  0  0  0  0  0  0  0  0  0
  139.1074   67.9787  226.4655 H   0  0  0  0  0  0  0  0  0  0  0  0
  140.0703   68.5309  228.7057 H   0  0  0  0  0  0  0  0  0  0  0  0
  141.3224   70.6644  229.0394 H   0  0  0  0  0  0  0  0  0  0  0  0
  141.6138   72.2590  227.1397 H   0  0  0  0  0  0  0  0  0  0  0  0
  1  2  2  0
  2  3  1  0
  3  4  1  0
  4  5  2  0
  5  6  1  0
  5  7  1  0
  7  8  1  0
  8  9  1  0
  9 10  1  0
 10 11  1  0
 11 12  1  0
 12 13  1  0
 13 14  2  0
 14 15  1  0
 15 16  2  0
 16 17  1  0
 17 18  2  0
  2 19  1  0
 19 20  2  0
 20 21  1  0
 21 22  2  0
 22 23  1  0
 23 24  2  0
 24 25  1  0
 25 26  2  0
 26 27  1  0
 27 28  2  0
 12  7  1  0
 18 13  1  0
 28 19  1  0
 27 22  1  0
  3 29  1  0
  4 30  1  0
  6 31  1  0
  8 32  1  0
  8 33  1  0
  9 34  1  0
  9 35  1  0
 10 36  1  0
 10 37  1  0
 11 38  1  0
 11 39  1  0
 12 40  1  1
 14 41  1  0
 15 42  1  0
 16 43  1  0
 17 44  1  0
 18 45  1  0
 20 46  1  0
 21 47  1  0
 23 48  1  0
 24 49  1  0
 25 50  1  0
 26 51  1  0
M  END
>  <meeko>  (14) 
{"free_energy": -8.81, "intermolecular_energy": -10.6, "internal_energy": -1.12, "cluster_size": 9, "cluster_id": 1, "rank_in_cluster": 5}

$$$$

     RDKit          3D

 51 54  0  0  0  0  0  0  0  0999 V2000
  139.3300   71.1230  221.2450 O   0  0  0  0  0  0  0  0  0  0  0  0
  139.4870   71.8150  222.2890 C   0  0  0  0  0  0  0  0  0  0  0  0
  139.4000   73.2470  222.2200 N   0  0  0  0  0  0  0  0  0  0  0  0
  139.1980   73.9390  220.9770 C   0  0  0  0  0  0  0  0  0  0  0  0
  139.9700   73.7220  219.9060 C   0  0  0  0  0  0  0  0  0  0  0  0
  139.3940   73.7780  218.6390 O   0  0  0  0  0  0  0  0  0  0  0  0
  141.3750   73.4330  220.0340 N   0  0  0  0  0  0  0  0  0  0  0  0
  141.8210   72.0770  219.6650 C   0  0  0  0  0  0  0  0  0  0  0  0
  143.0420   71.6460  220.4860 C   0  0  0  0  0  0  0  0  0  0  0  0
  144.1820   72.6670  220.3610 C   0  0  0  0  0  0  0  0  0  0  0  0
  143.7140   74.1320  220.4740 C   0  0  0  0  0  0  0  0  0  0  0  0
  142.2320   74.2780  220.8900 C   0  0  1  0  0  0  0  0  0  0  0  0
  141.8210   75.7420  220.8380 C   0  0  0  0  0  0  0  0  0  0  0  0
  141.0660   76.3190  221.8780 C   0  0  0  0  0  0  0  0  0  0  0  0
  140.7030   77.6680  221.8250 C   0  0  0  0  0  0  0  0  0  0  0  0
  141.0800   78.4510  220.7310 C   0  0  0  0  0  0  0  0  0  0  0  0
  141.8200   77.8860  219.6900 C   0  0  0  0  0  0  0  0  0  0  0  0
  142.1890   76.5390  219.7400 C   0  0  0  0  0  0  0  0  0  0  0  0
  139.7580   71.1470  223.5810 C   0  0  0  0  0  0  0  0  0  0  0  0
  139.4760   69.7820  223.7640 C   0  0  0  0  0  0  0  0  0  0  0  0
  139.7360   69.1800  224.9990 C   0  0  0  0  0  0  0  0  0  0  0  0
  140.2780   69.9390  226.0440 C   0  0  0  0  0  0  0  0  0  0  0  0
  140.5480   69.3700  227.2990 C   0  0  0  0  0  0  0  0  0  0  0  0
  141.0860   70.1580  228.3240 C   0  0  0  0  0  0  0  0  0  0  0  0
  141.3580   71.5110  228.1020 C   0  0  0  0  0  0  0  0  0  0  0  0
  141.0940   72.0850  226.8530 C   0  0  0  0  0  0  0  0  0  0  0  0
  140.5540   71.3060  225.8240 C   0  0  0  0  0  0  0  0  0  0  0  0
  140.2870   71.8640  224.6130 N   0  0  0  0  0  0  0  0  0  0  0  0
  139.5350   73.7960  223.0960 H   0  0  0  0  0  0  0  0  0  0  0  0
  138.3810   74.6719  220.9035 H   0  0  0  0  0  0  0  0  0  0  0  0
  138.4900   73.3600  218.4590 H   0  0  0  0  0  0  0  0  0  0  0  0
  140.9995   71.3684  219.8467 H   0  0  0  0  0  0  0  0  0  0  0  0
  142.1037   72.0833  218.6020 H   0  0  0  0  0  0  0  0  0  0  0  0
  142.7515   71.5599  221.5434 H   0  0  0  0  0  0  0  0  0  0  0  0
  143.3967   70.6782  220.1019 H   0  0  0  0  0  0  0  0  0  0  0  0
  144.9122   72.4726  221.1604 H   0  0  0  0  0  0  0  0  0  0  0  0
  144.6168   72.5438  219.3581 H   0  0  0  0  0  0  0  0  0  0  0  0
  144.3376   74.6393  221.2248 H   0  0  0  0  0  0  0  0  0  0  0  0
  143.8143   74.5807  219.4747 H   0  0  0  0  0  0  0  0  0  0  0  0
  142.1051   73.9310  221.9261 H   0  0  0  0  0  0  0  0  0  0  0  0
  140.7601   75.7041  222.7373 H   0  0  0  0  0  0  0  0  0  0  0  0
  140.1203   78.1132  222.6449 H   0  0  0  0  0  0  0  0  0  0  0  0
  140.7940   79.5124  220.6896 H   0  0  0  0  0  0  0  0  0  0  0  0
  142.1133   78.5032  218.8280 H   0  0  0  0  0  0  0  0  0  0  0  0
  142.7705   76.1001  218.9158 H   0  0  0  0  0  0  0  0  0  0  0  0
  139.0526   69.1900  222.9392 H   0  0  0  0  0  0  0  0  0  0  0  0
  139.5154   68.1129  225.1495 H   0  0  0  0  0  0  0  0  0  0  0  0
  140.3369   68.3052  227.4770 H   0  0  0  0  0  0  0  0  0  0  0  0
  141.2952   69.7108  229.3070 H   0  0  0  0  0  0  0  0  0  0  0  0
  141.7804   72.1258  228.9104 H   0  0  0  0  0  0  0  0  0  0  0  0
  141.3113   73.1494  226.6804 H   0  0  0  0  0  0  0  0  0  0  0  0
  1  2  2  0
  2  3  1  0
  3  4  1  0
  4  5  2  0
  5  6  1  0
  5  7  1  0
  7  8  1  0
  8  9  1  0
  9 10  1  0
 10 11  1  0
 11 12  1  0
 12 13  1  0
 13 14  2  0
 14 15  1  0
 15 16  2  0
 16 17  1  0
 17 18  2  0
  2 19  1  0
 19 20  2  0
 20 21  1  0
 21 22  2  0
 22 23  1  0
 23 24  2  0
 24 25  1  0
 25 26  2  0
 26 27  1  0
 27 28  2  0
 12  7  1  0
 18 13  1  0
 28 19  1  0
 27 22  1  0
  3 29  1  0
  4 30  1  0
  6 31  1  0
  8 32  1  0
  8 33  1  0
  9 34  1  0
  9 35  1  0
 10 36  1  0
 10 37  1  0
 11 38  1  0
 11 39  1  0
 12 40  1  1
 14 41  1  0
 15 42  1  0
 16 43  1  0
 17 44  1  0
 18 45  1  0
 20 46  1  0
 21 47  1  0
 23 48  1  0
 24 49  1  0
 25 50  1  0
 26 51  1  0
M  END
>  <meeko>  (15) 
{"free_energy": -7.34, "intermolecular_energy": -9.13, "internal_energy": -1.89, "cluster_size": 3, "cluster_id": 4, "rank_in_cluster": 2}

$$$$

     RDKit          3D

 51 54  0  0  0  0  0  0  0  0999 V2000
  141.4600   72.5290  221.5740 O   0  0  0  0  0  0  0  0  0  0  0  0
  140.5250   72.7030  222.4050 C   0  0  0  0  0  0  0  0  0  0  0  0
  139.7220   73.8910  222.3410 N   0  0  0  0  0  0  0  0  0  0  0  0
  139.9820   74.9380  221.3920 C   0  0  0  0  0  0  0  0  0  0  0  0
  140.0820   76.2220  221.7560 C   0  0  0  0  0  0  0  0  0  0  0  0
  141.3270   76.8430  221.6910 O   0  0  0  0  0  0  0  0  0  0  0  0
  138.9380   76.9700  222.2090 N   0  0  0  0  0  0  0  0  0  0  0  0
  137.6700   76.2340  222.3650 C   0  0  0  0  0  0  0  0  0  0  0  0
  136.4610   77.1410  222.1080 C   0  0  0  0  0  0  0  0  0  0  0  0
  136.5030   78.3860  223.0040 C   0  0  0  0  0  0  0  0  0  0  0  0
  137.8970   79.0430  223.0850 C   0  0  0  0  0  0  0  0  0  0  0  0
  138.9220   78.4430  222.0970 C   0  0  1  0  0  0  0  0  0  0  0  0
  140.2950   79.0480  222.3430 C   0  0  0  0  0  0  0  0  0  0  0  0
  140.8910   78.9970  223.6180 C   0  0  0  0  0  0  0  0  0  0  0  0
  142.1590   79.5470  223.8300 C   0  0  0  0  0  0  0  0  0  0  0  0
  142.8390   80.1620  222.7770 C   0  0  0  0  0  0  0  0  0  0  0  0
  142.2530   80.2280  221.5100 C   0  0  0  0  0  0  0  0  0  0  0  0
  140.9870   79.6760  221.2920 C   0  0  0  0  0  0  0  0  0  0  0  0
  140.2610   71.6790  223.4390 C   0  0  0  0  0  0  0  0  0  0  0  0
  139.5700   70.4950  223.1280 C   0  0  0  0  0  0  0  0  0  0  0  0
  139.3280   69.5500  224.1290 C   0  0  0  0  0  0  0  0  0  0  0  0
  139.7780   69.7860  225.4340 C   0  0  0  0  0  0  0  0  0  0  0  0
  139.5490   68.8610  226.4660 C   0  0  0  0  0  0  0  0  0  0  0  0
  140.0080   69.1300  227.7620 C   0  0  0  0  0  0  0  0  0  0  0  0
  140.6960   70.3170  228.0310 C   0  0  0  0  0  0  0  0  0  0  0  0
  140.9300   71.2420  227.0080 C   0  0  0  0  0  0  0  0  0  0  0  0
  140.4720   70.9830  225.7110 C   0  0  0  0  0  0  0  0  0  0  0  0
  140.6900   71.8840  224.7170 N   0  0  0  0  0  0  0  0  0  0  0  0
  138.9570   74.0120  223.0400 H   0  0  0  0  0  0  0  0  0  0  0  0
  140.1029   74.6754  220.3307 H   0  0  0  0  0  0  0  0  0  0  0  0
  142.1590   76.3820  222.0390 H   0  0  0  0  0  0  0  0  0  0  0  0
  137.6501   75.3996  221.6485 H   0  0  0  0  0  0  0  0  0  0  0  0
  137.6104   75.8626  223.3987 H   0  0  0  0  0  0  0  0  0  0  0  0
  136.4664   77.4566  221.0543 H   0  0  0  0  0  0  0  0  0  0  0  0
  135.5456   76.5761  222.3382 H   0  0  0  0  0  0  0  0  0  0  0  0
  135.7929   79.1254  222.6052 H   0  0  0  0  0  0  0  0  0  0  0  0
  136.2408   78.0599  224.0213 H   0  0  0  0  0  0  0  0  0  0  0  0
  137.7892   80.1155  222.8656 H   0  0  0  0  0  0  0  0  0  0  0  0
  138.2814   78.8599  224.0993 H   0  0  0  0  0  0  0  0  0  0  0  0
  138.6278   78.6907  221.0664 H   0  0  0  0  0  0  0  0  0  0  0  0
  140.3554   78.5213  224.4527 H   0  0  0  0  0  0  0  0  0  0  0  0
  142.6210   79.4951  224.8269 H   0  0  0  0  0  0  0  0  0  0  0  0
  143.8363   80.5947  222.9447 H   0  0  0  0  0  0  0  0  0  0  0  0
  142.7890   80.7154  220.6823 H   0  0  0  0  0  0  0  0  0  0  0  0
  140.5298   79.7332  220.2931 H   0  0  0  0  0  0  0  0  0  0  0  0
  139.2211   70.3129  222.1008 H   0  0  0  0  0  0  0  0  0  0  0  0
  138.7853   68.6230  223.8923 H   0  0  0  0  0  0  0  0  0  0  0  0
  139.0094   67.9256  226.2566 H   0  0  0  0  0  0  0  0  0  0  0  0
  139.8267   68.4057  228.5698 H   0  0  0  0  0  0  0  0  0  0  0  0
  141.0544   70.5242  229.0501 H   0  0  0  0  0  0  0  0  0  0  0  0
  141.4742   72.1734  227.2230 H   0  0  0  0  0  0  0  0  0  0  0  0
  1  2  2  0
  2  3  1  0
  3  4  1  0
  4  5  2  0
  5  6  1  0
  5  7  1  0
  7  8  1  0
  8  9  1  0
  9 10  1  0
 10 11  1  0
 11 12  1  0
 12 13  1  0
 13 14  2  0
 14 15  1  0
 15 16  2  0
 16 17  1  0
 17 18  2  0
  2 19  1  0
 19 20  2  0
 20 21  1  0
 21 22  2  0
 22 23  1  0
 23 24  2  0
 24 25  1  0
 25 26  2  0
 26 27  1  0
 27 28  2  0
 12  7  1  0
 18 13  1  0
 28 19  1  0
 27 22  1  0
  3 29  1  0
  4 30  1  0
  6 31  1  0
  8 32  1  0
  8 33  1  0
  9 34  1  0
  9 35  1  0
 10 36  1  0
 10 37  1  0
 11 38  1  0
 11 39  1  0
 12 40  1  6
 14 41  1  0
 15 42  1  0
 16 43  1  0
 17 44  1  0
 18 45  1  0
 20 46  1  0
 21 47  1  0
 23 48  1  0
 24 49  1  0
 25 50  1  0
 26 51  1  0
M  END
>  <meeko>  (16) 
{"free_energy": -8.97, "intermolecular_energy": -10.76, "internal_energy": -0.72, "cluster_size": 9, "cluster_id": 1, "rank_in_cluster": 1}

$$$$

     RDKit          3D

 51 54  0  0  0  0  0  0  0  0999 V2000
  140.8650   71.3600  221.3950 O   0  0  0  0  0  0  0  0  0  0  0  0
  140.3060   71.8790  222.4010 C   0  0  0  0  0  0  0  0  0  0  0  0
  139.9190   73.2620  222.3720 N   0  0  0  0  0  0  0  0  0  0  0  0
  140.2010   74.1090  221.2470 C   0  0  0  0  0  0  0  0  0  0  0  0
  141.4490   74.3380  220.8210 C   0  0  0  0  0  0  0  0  0  0  0  0
  142.4550   73.4430  221.1780 O   0  0  0  0  0  0  0  0  0  0  0  0
  141.7720   75.4830  220.0090 N   0  0  0  0  0  0  0  0  0  0  0  0
  140.7750   76.5670  219.9450 C   0  0  0  0  0  0  0  0  0  0  0  0
  140.8260   77.2950  218.5970 C   0  0  0  0  0  0  0  0  0  0  0  0
  142.2400   77.8130  218.3000 C   0  0  0  0  0  0  0  0  0  0  0  0
  143.3510   76.7890  218.6120 C   0  0  0  0  0  0  0  0  0  0  0  0
  142.8150   75.3840  218.9670 C   0  0  1  0  0  0  0  0  0  0  0  0
  143.9640   74.4830  219.3950 C   0  0  0  0  0  0  0  0  0  0  0  0
  144.2130   73.2640  218.7350 C   0  0  0  0  0  0  0  0  0  0  0  0
  145.2790   72.4500  219.1310 C   0  0  0  0  0  0  0  0  0  0  0  0
  146.0980   72.8380  220.1930 C   0  0  0  0  0  0  0  0  0  0  0  0
  145.8530   74.0400  220.8620 C   0  0  0  0  0  0  0  0  0  0  0  0
  144.7920   74.8600  220.4680 C   0  0  0  0  0  0  0  0  0  0  0  0
  140.0520   71.0590  223.6070 C   0  0  0  0  0  0  0  0  0  0  0  0
  139.2890   69.8810  223.5340 C   0  0  0  0  0  0  0  0  0  0  0  0
  139.0590   69.1320  224.6920 C   0  0  0  0  0  0  0  0  0  0  0  0
  139.5920   69.5580  225.9150 C   0  0  0  0  0  0  0  0  0  0  0  0
  139.3780   68.8330  227.0980 C   0  0  0  0  0  0  0  0  0  0  0  0
  139.9220   69.2880  228.3070 C   0  0  0  0  0  0  0  0  0  0  0  0
  140.6800   70.4630  228.3370 C   0  0  0  0  0  0  0  0  0  0  0  0
  140.9000   71.1890  227.1610 C   0  0  0  0  0  0  0  0  0  0  0  0
  140.3580   70.7430  225.9510 C   0  0  0  0  0  0  0  0  0  0  0  0
  140.5620   71.4510  224.8090 N   0  0  0  0  0  0  0  0  0  0  0  0
  139.4610   73.6670  223.2170 H   0  0  0  0  0  0  0  0  0  0  0  0
  139.3629   74.5857  220.7175 H   0  0  0  0  0  0  0  0  0  0  0  0
  142.3200   72.4440  221.0890 H   0  0  0  0  0  0  0  0  0  0  0  0
  139.7712   76.1386  220.0826 H   0  0  0  0  0  0  0  0  0  0  0  0
  141.0018   77.2932  220.7394 H   0  0  0  0  0  0  0  0  0  0  0  0
  140.5245   76.5982  217.8011 H   0  0  0  0  0  0  0  0  0  0  0  0
  140.1413   78.1549  218.6390 H   0  0  0  0  0  0  0  0  0  0  0  0
  142.2976   78.0744  217.2331 H   0  0  0  0  0  0  0  0  0  0  0  0
  142.4092   78.6817  218.9533 H   0  0  0  0  0  0  0  0  0  0  0  0
  144.0005   76.7005  217.7286 H   0  0  0  0  0  0  0  0  0  0  0  0
  143.8932   77.1599  219.4943 H   0  0  0  0  0  0  0  0  0  0  0  0
  142.3497   74.9328  218.0782 H   0  0  0  0  0  0  0  0  0  0  0  0
  143.5652   72.9503  217.9032 H   0  0  0  0  0  0  0  0  0  0  0  0
  145.4723   71.5033  218.6053 H   0  0  0  0  0  0  0  0  0  0  0  0
  146.9365   72.1972  220.5032 H   0  0  0  0  0  0  0  0  0  0  0  0
  146.4970   74.3417  221.7012 H   0  0  0  0  0  0  0  0  0  0  0  0
  144.6035   75.8045  220.9994 H   0  0  0  0  0  0  0  0  0  0  0  0
  138.8747   69.5498  222.5703 H   0  0  0  0  0  0  0  0  0  0  0  0
  138.4608   68.2102  224.6426 H   0  0  0  0  0  0  0  0  0  0  0  0
  138.7834   67.9078  227.0761 H   0  0  0  0  0  0  0  0  0  0  0  0
  139.7525   68.7201  229.2337 H   0  0  0  0  0  0  0  0  0  0  0  0
  141.1045   70.8176  229.2878 H   0  0  0  0  0  0  0  0  0  0  0  0
  141.4995   72.1109  227.1881 H   0  0  0  0  0  0  0  0  0  0  0  0
  1  2  2  0
  2  3  1  0
  3  4  1  0
  4  5  2  0
  5  6  1  0
  5  7  1  0
  7  8  1  0
  8  9  1  0
  9 10  1  0
 10 11  1  0
 11 12  1  0
 12 13  1  0
 13 14  2  0
 14 15  1  0
 15 16  2  0
 16 17  1  0
 17 18  2  0
  2 19  1  0
 19 20  2  0
 20 21  1  0
 21 22  2  0
 22 23  1  0
 23 24  2  0
 24 25  1  0
 25 26  2  0
 26 27  1  0
 27 28  2  0
 12  7  1  0
 18 13  1  0
 28 19  1  0
 27 22  1  0
  3 29  1  0
  4 30  1  0
  6 31  1  0
  8 32  1  0
  8 33  1  0
  9 34  1  0
  9 35  1  0
 10 36  1  0
 10 37  1  0
 11 38  1  0
 11 39  1  0
 12 40  1  6
 14 41  1  0
 15 42  1  0
 16 43  1  0
 17 44  1  0
 18 45  1  0
 20 46  1  0
 21 47  1  0
 23 48  1  0
 24 49  1  0
 25 50  1  0
 26 51  1  0
M  END
>  <meeko>  (17) 
{"free_energy": -7.79, "intermolecular_energy": -9.58, "internal_energy": -1.58, "cluster_size": 7, "cluster_id": 2, "rank_in_cluster": 7}

$$$$

     RDKit          3D

 51 54  0  0  0  0  0  0  0  0999 V2000
  140.8010   71.5670  221.2690 O   0  0  0  0  0  0  0  0  0  0  0  0
  140.3380   72.1350  222.2970 C   0  0  0  0  0  0  0  0  0  0  0  0
  139.9670   73.5210  222.2430 N   0  0  0  0  0  0  0  0  0  0  0  0
  140.1620   74.3180  221.0630 C   0  0  0  0  0  0  0  0  0  0  0  0
  140.9160   75.4240  221.0650 C   0  0  0  0  0  0  0  0  0  0  0  0
  141.2590   76.0000  222.2860 O   0  0  0  0  0  0  0  0  0  0  0  0
  141.3760   76.0260  219.8410 N   0  0  0  0  0  0  0  0  0  0  0  0
  140.6180   77.1830  219.3310 C   0  0  0  0  0  0  0  0  0  0  0  0
  140.6730   77.2590  217.8020 C   0  0  0  0  0  0  0  0  0  0  0  0
  142.1240   77.2730  217.3000 C   0  0  0  0  0  0  0  0  0  0  0  0
  143.0320   76.2450  218.0070 C   0  0  0  0  0  0  0  0  0  0  0  0
  142.2630   75.2730  218.9300 C   0  0  1  0  0  0  0  0  0  0  0  0
  143.2450   74.3940  219.6900 C   0  0  0  0  0  0  0  0  0  0  0  0
  142.9570   73.0380  219.9430 C   0  0  0  0  0  0  0  0  0  0  0  0
  143.8720   72.2370  220.6330 C   0  0  0  0  0  0  0  0  0  0  0  0
  145.0750   72.7810  221.0850 C   0  0  0  0  0  0  0  0  0  0  0  0
  145.3660   74.1270  220.8500 C   0  0  0  0  0  0  0  0  0  0  0  0
  144.4570   74.9320  220.1570 C   0  0  0  0  0  0  0  0  0  0  0  0
  140.1780   71.3690  223.5520 C   0  0  0  0  0  0  0  0  0  0  0  0
  139.5540   70.1090  223.5590 C   0  0  0  0  0  0  0  0  0  0  0  0
  139.4100   69.4130  224.7620 C   0  0  0  0  0  0  0  0  0  0  0  0
  139.8910   69.9720  225.9530 C   0  0  0  0  0  0  0  0  0  0  0  0
  139.7600   69.3040  227.1800 C   0  0  0  0  0  0  0  0  0  0  0  0
  140.2490   69.8920  228.3540 C   0  0  0  0  0  0  0  0  0  0  0  0
  140.8690   71.1450  228.3070 C   0  0  0  0  0  0  0  0  0  0  0  0
  141.0050   71.8160  227.0860 C   0  0  0  0  0  0  0  0  0  0  0  0
  140.5180   71.2360  225.9090 C   0  0  0  0  0  0  0  0  0  0  0  0
  140.6400   71.8910  224.7240 N   0  0  0  0  0  0  0  0  0  0  0  0
  139.5890   73.9680  223.1060 H   0  0  0  0  0  0  0  0  0  0  0  0
  139.6751   74.0086  220.1264 H   0  0  0  0  0  0  0  0  0  0  0  0
  142.1490   76.4670  222.4100 H   0  0  0  0  0  0  0  0  0  0  0  0
  139.5684   77.0903  219.6469 H   0  0  0  0  0  0  0  0  0  0  0  0
  141.0698   78.0992  219.7390 H   0  0  0  0  0  0  0  0  0  0  0  0
  140.1556   76.3847  217.3802 H   0  0  0  0  0  0  0  0  0  0  0  0
  140.1838   78.1905  217.4811 H   0  0  0  0  0  0  0  0  0  0  0  0
  142.1214   77.0517  216.2225 H   0  0  0  0  0  0  0  0  0  0  0  0
  142.5323   78.2702  217.5212 H   0  0  0  0  0  0  0  0  0  0  0  0
  143.5541   75.6556  217.2388 H   0  0  0  0  0  0  0  0  0  0  0  0
  143.7275   76.8121  218.6431 H   0  0  0  0  0  0  0  0  0  0  0  0
  141.6258   74.6148  218.3211 H   0  0  0  0  0  0  0  0  0  0  0  0
  142.0065   72.6070  219.5955 H   0  0  0  0  0  0  0  0  0  0  0  0
  143.6434   71.1773  220.8197 H   0  0  0  0  0  0  0  0  0  0  0  0
  145.7946   72.1495  221.6267 H   0  0  0  0  0  0  0  0  0  0  0  0
  146.3129   74.5546  221.2112 H   0  0  0  0  0  0  0  0  0  0  0  0
  144.6912   75.9915  219.9762 H   0  0  0  0  0  0  0  0  0  0  0  0
  139.1805   69.6728  222.6208 H   0  0  0  0  0  0  0  0  0  0  0  0
  138.9200   68.4282  224.7738 H   0  0  0  0  0  0  0  0  0  0  0  0
  139.2732   68.3184  227.2202 H   0  0  0  0  0  0  0  0  0  0  0  0
  140.1451   69.3670  229.3150 H   0  0  0  0  0  0  0  0  0  0  0  0
  141.2504   71.6039  229.2311 H   0  0  0  0  0  0  0  0  0  0  0  0
  141.4951   72.8002  227.0515 H   0  0  0  0  0  0  0  0  0  0  0  0
  1  2  2  0
  2  3  1  0
  3  4  1  0
  4  5  2  0
  5  6  1  0
  5  7  1  0
  7  8  1  0
  8  9  1  0
  9 10  1  0
 10 11  1  0
 11 12  1  0
 12 13  1  0
 13 14  2  0
 14 15  1  0
 15 16  2  0
 16 17  1  0
 17 18  2  0
  2 19  1  0
 19 20  2  0
 20 21  1  0
 21 22  2  0
 22 23  1  0
 23 24  2  0
 24 25  1  0
 25 26  2  0
 26 27  1  0
 27 28  2  0
 12  7  1  0
 18 13  1  0
 28 19  1  0
 27 22  1  0
  3 29  1  0
  4 30  1  0
  6 31  1  0
  8 32  1  0
  8 33  1  0
  9 34  1  0
  9 35  1  0
 10 36  1  0
 10 37  1  0
 11 38  1  0
 11 39  1  0
 12 40  1  6
 14 41  1  0
 15 42  1  0
 16 43  1  0
 17 44  1  0
 18 45  1  0
 20 46  1  0
 21 47  1  0
 23 48  1  0
 24 49  1  0
 25 50  1  0
 26 51  1  0
M  END
>  <meeko>  (18) 
{"free_energy": -8.46, "intermolecular_energy": -10.25, "internal_energy": -1.68, "cluster_size": 7, "cluster_id": 2, "rank_in_cluster": 5}

$$$$

     RDKit          3D

 51 54  0  0  0  0  0  0  0  0999 V2000
  134.0570   69.2560  226.4440 O   0  0  0  0  0  0  0  0  0  0  0  0
  134.4230   70.3810  226.0020 C   0  0  0  0  0  0  0  0  0  0  0  0
  135.5190   70.4660  225.0780 N   0  0  0  0  0  0  0  0  0  0  0  0
  136.2680   69.3070  224.6760 C   0  0  0  0  0  0  0  0  0  0  0  0
  137.5950   69.2250  224.8360 C   0  0  0  0  0  0  0  0  0  0  0  0
  138.1200   68.1490  225.5470 O   0  0  0  0  0  0  0  0  0  0  0  0
  138.4840   70.2180  224.2910 N   0  0  0  0  0  0  0  0  0  0  0  0
  137.9830   71.0280  223.1650 C   0  0  0  0  0  0  0  0  0  0  0  0
  139.1210   71.4550  222.2320 C   0  0  0  0  0  0  0  0  0  0  0  0
  140.2250   72.1890  223.0050 C   0  0  0  0  0  0  0  0  0  0  0  0
  140.5990   71.5120  224.3400 C   0  0  0  0  0  0  0  0  0  0  0  0
  139.9370   70.1300  224.5400 C   0  0  1  0  0  0  0  0  0  0  0  0
  140.2460   69.6040  225.9330 C   0  0  0  0  0  0  0  0  0  0  0  0
  139.9470   70.3680  227.0780 C   0  0  0  0  0  0  0  0  0  0  0  0
  140.2260   69.8700  228.3550 C   0  0  0  0  0  0  0  0  0  0  0  0
  140.8120   68.6110  228.5010 C   0  0  0  0  0  0  0  0  0  0  0  0
  141.1220   67.8490  227.3720 C   0  0  0  0  0  0  0  0  0  0  0  0
  140.8420   68.3410  226.0930 C   0  0  0  0  0  0  0  0  0  0  0  0
  133.7190   71.6070  226.4380 C   0  0  0  0  0  0  0  0  0  0  0  0
  132.5330   71.5340  227.1890 C   0  0  0  0  0  0  0  0  0  0  0  0
  131.8870   72.7100  227.5790 C   0  0  0  0  0  0  0  0  0  0  0  0
  132.4240   73.9530  227.2210 C   0  0  0  0  0  0  0  0  0  0  0  0
  131.8000   75.1550  227.5920 C   0  0  0  0  0  0  0  0  0  0  0  0
  132.3610   76.3820  227.2140 C   0  0  0  0  0  0  0  0  0  0  0  0
  133.5450   76.4130  226.4710 C   0  0  0  0  0  0  0  0  0  0  0  0
  134.1750   75.2190  226.1000 C   0  0  0  0  0  0  0  0  0  0  0  0
  133.6190   73.9900  226.4710 C   0  0  0  0  0  0  0  0  0  0  0  0
  134.2240   72.8290  226.1040 N   0  0  0  0  0  0  0  0  0  0  0  0
  135.8030   71.4060  224.7290 H   0  0  0  0  0  0  0  0  0  0  0  0
  135.7336   68.4595  224.2220 H   0  0  0  0  0  0  0  0  0  0  0  0
  138.3740   68.2430  226.5230 H   0  0  0  0  0  0  0  0  0  0  0  0
  137.2553   70.4338  222.5928 H   0  0  0  0  0  0  0  0  0  0  0  0
  137.5125   71.9344  223.5736 H   0  0  0  0  0  0  0  0  0  0  0  0
  139.5497   70.5608  221.7560 H   0  0  0  0  0  0  0  0  0  0  0  0
  138.7123   72.1390  221.4737 H   0  0  0  0  0  0  0  0  0  0  0  0
  141.1239   72.2304  222.3723 H   0  0  0  0  0  0  0  0  0  0  0  0
  139.8380   73.1896  223.2481 H   0  0  0  0  0  0  0  0  0  0  0  0
  141.6909   71.3821  224.3701 H   0  0  0  0  0  0  0  0  0  0  0  0
  140.2328   72.1646  225.1462 H   0  0  0  0  0  0  0  0  0  0  0  0
  140.3511   69.4153  223.8136 H   0  0  0  0  0  0  0  0  0  0  0  0
  139.4911   71.3629  226.9672 H   0  0  0  0  0  0  0  0  0  0  0  0
  139.9837   70.4703  229.2444 H   0  0  0  0  0  0  0  0  0  0  0  0
  141.0296   68.2191  229.5055 H   0  0  0  0  0  0  0  0  0  0  0  0
  141.5876   66.8593  227.4892 H   0  0  0  0  0  0  0  0  0  0  0  0
  141.0894   67.7366  225.2079 H   0  0  0  0  0  0  0  0  0  0  0  0
  132.1154   70.5555  227.4684 H   0  0  0  0  0  0  0  0  0  0  0  0
  130.9582   72.6596  228.1662 H   0  0  0  0  0  0  0  0  0  0  0  0
  130.8704   75.1333  228.1796 H   0  0  0  0  0  0  0  0  0  0  0  0
  131.8690   77.3227  227.5023 H   0  0  0  0  0  0  0  0  0  0  0  0
  133.9828   77.3784  226.1770 H   0  0  0  0  0  0  0  0  0  0  0  0
  135.1072   75.2472  225.5168 H   0  0  0  0  0  0  0  0  0  0  0  0
  1  2  2  0
  2  3  1  0
  3  4  1  0
  4  5  2  0
  5  6  1  0
  5  7  1  0
  7  8  1  0
  8  9  1  0
  9 10  1  0
 10 11  1  0
 11 12  1  0
 12 13  1  0
 13 14  2  0
 14 15  1  0
 15 16  2  0
 16 17  1  0
 17 18  2  0
  2 19  1  0
 19 20  2  0
 20 21  1  0
 21 22  2  0
 22 23  1  0
 23 24  2  0
 24 25  1  0
 25 26  2  0
 26 27  1  0
 27 28  2  0
 12  7  1  0
 18 13  1  0
 28 19  1  0
 27 22  1  0
  3 29  1  0
  4 30  1  0
  6 31  1  0
  8 32  1  0
  8 33  1  0
  9 34  1  0
  9 35  1  0
 10 36  1  0
 10 37  1  0
 11 38  1  0
 11 39  1  0
 12 40  1  6
 14 41  1  0
 15 42  1  0
 16 43  1  0
 17 44  1  0
 18 45  1  0
 20 46  1  0
 21 47  1  0
 23 48  1  0
 24 49  1  0
 25 50  1  0
 26 51  1  0
M  END
>  <meeko>  (19) 
{"free_energy": -8.26, "intermolecular_energy": -10.05, "internal_energy": -1.17, "cluster_size": 1, "cluster_id": 3, "rank_in_cluster": 1}

$$$$

     RDKit          3D

 51 54  0  0  0  0  0  0  0  0999 V2000
  140.7540   71.5670  221.2710 O   0  0  0  0  0  0  0  0  0  0  0  0
  140.3050   72.1080  222.3200 C   0  0  0  0  0  0  0  0  0  0  0  0
  139.9120   73.4890  222.3020 N   0  0  0  0  0  0  0  0  0  0  0  0
  140.0700   74.3110  221.1350 C   0  0  0  0  0  0  0  0  0  0  0  0
  140.9390   75.3290  221.0910 C   0  0  0  0  0  0  0  0  0  0  0  0
  141.4410   75.8350  222.2870 O   0  0  0  0  0  0  0  0  0  0  0  0
  141.3620   75.9070  219.8420 N   0  0  0  0  0  0  0  0  0  0  0  0
  140.5610   77.0260  219.3110 C   0  0  0  0  0  0  0  0  0  0  0  0
  140.5900   77.0590  217.7790 C   0  0  0  0  0  0  0  0  0  0  0  0
  142.0320   77.0990  217.2530 C   0  0  0  0  0  0  0  0  0  0  0  0
  142.9800   76.1190  217.9750 C   0  0  0  0  0  0  0  0  0  0  0  0
  142.2550   75.1530  218.9390 C   0  0  1  0  0  0  0  0  0  0  0  0
  143.2740   74.3260  219.7070 C   0  0  0  0  0  0  0  0  0  0  0  0
  143.0290   72.9710  220.0070 C   0  0  0  0  0  0  0  0  0  0  0  0
  143.9780   72.2170  220.7050 C   0  0  0  0  0  0  0  0  0  0  0  0
  145.1740   72.8090  221.1180 C   0  0  0  0  0  0  0  0  0  0  0  0
  145.4230   74.1540  220.8350 C   0  0  0  0  0  0  0  0  0  0  0  0
  144.4790   74.9110  220.1350 C   0  0  0  0  0  0  0  0  0  0  0  0
  140.1830   71.3140  223.5620 C   0  0  0  0  0  0  0  0  0  0  0  0
  139.5820   70.0430  223.5550 C   0  0  0  0  0  0  0  0  0  0  0  0
  139.4750   69.3210  224.7470 C   0  0  0  0  0  0  0  0  0  0  0  0
  139.9680   69.8650  225.9400 C   0  0  0  0  0  0  0  0  0  0  0  0
  139.8730   69.1700  227.1560 C   0  0  0  0  0  0  0  0  0  0  0  0
  140.3730   69.7450  228.3320 C   0  0  0  0  0  0  0  0  0  0  0  0
  140.9690   71.0100  228.2970 C   0  0  0  0  0  0  0  0  0  0  0  0
  141.0690   71.7070  227.0880 C   0  0  0  0  0  0  0  0  0  0  0  0
  140.5700   71.1410  225.9090 C   0  0  0  0  0  0  0  0  0  0  0  0
  140.6580   71.8210  224.7360 N   0  0  0  0  0  0  0  0  0  0  0  0
  139.5460   73.9120  223.1820 H   0  0  0  0  0  0  0  0  0  0  0  0
  139.4565   74.0972  220.2473 H   0  0  0  0  0  0  0  0  0  0  0  0
  142.1920   76.5140  222.2910 H   0  0  0  0  0  0  0  0  0  0  0  0
  139.5197   76.9113  219.6466 H   0  0  0  0  0  0  0  0  0  0  0  0
  140.9911   77.9668  219.6851 H   0  0  0  0  0  0  0  0  0  0  0  0
  140.0911   76.1587  217.3910 H   0  0  0  0  0  0  0  0  0  0  0  0
  140.0695   77.9667  217.4397 H   0  0  0  0  0  0  0  0  0  0  0  0
  142.0190   76.8454  216.1827 H   0  0  0  0  0  0  0  0  0  0  0  0
  142.4149   78.1135  217.4378 H   0  0  0  0  0  0  0  0  0  0  0  0
  143.5069   75.5222  217.2160 H   0  0  0  0  0  0  0  0  0  0  0  0
  143.6680   76.7249  218.5829 H   0  0  0  0  0  0  0  0  0  0  0  0
  141.6276   74.4586  218.3609 H   0  0  0  0  0  0  0  0  0  0  0  0
  142.0852   72.5033  219.6901 H   0  0  0  0  0  0  0  0  0  0  0  0
  143.7826   71.1579  220.9287 H   0  0  0  0  0  0  0  0  0  0  0  0
  145.9203   72.2155  221.6665 H   0  0  0  0  0  0  0  0  0  0  0  0
  146.3643   74.6187  221.1638 H   0  0  0  0  0  0  0  0  0  0  0  0
  144.6800   75.9704  219.9177 H   0  0  0  0  0  0  0  0  0  0  0  0
  139.1977   69.6187  222.6157 H   0  0  0  0  0  0  0  0  0  0  0  0
  139.0042   68.3268  224.7483 H   0  0  0  0  0  0  0  0  0  0  0  0
  139.4062   68.1744  227.1857 H   0  0  0  0  0  0  0  0  0  0  0  0
  140.2967   69.2004  229.2847 H   0  0  0  0  0  0  0  0  0  0  0  0
  141.3601   71.4580  229.2224 H   0  0  0  0  0  0  0  0  0  0  0  0
  141.5402   72.7007  227.0639 H   0  0  0  0  0  0  0  0  0  0  0  0
  1  2  2  0
  2  3  1  0
  3  4  1  0
  4  5  2  0
  5  6  1  0
  5  7  1  0
  7  8  1  0
  8  9  1  0
  9 10  1  0
 10 11  1  0
 11 12  1  0
 12 13  1  0
 13 14  2  0
 14 15  1  0
 15 16  2  0
 16 17  1  0
 17 18  2  0
  2 19  1  0
 19 20  2  0
 20 21  1  0
 21 22  2  0
 22 23  1  0
 23 24  2  0
 24 25  1  0
 25 26  2  0
 26 27  1  0
 27 28  2  0
 12  7  1  0
 18 13  1  0
 28 19  1  0
 27 22  1  0
  3 29  1  0
  4 30  1  0
  6 31  1  0
  8 32  1  0
  8 33  1  0
  9 34  1  0
  9 35  1  0
 10 36  1  0
 10 37  1  0
 11 38  1  0
 11 39  1  0
 12 40  1  6
 14 41  1  0
 15 42  1  0
 16 43  1  0
 17 44  1  0
 18 45  1  0
 20 46  1  0
 21 47  1  0
 23 48  1  0
 24 49  1  0
 25 50  1  0
 26 51  1  0
M  END
>  <meeko>  (20) 
{"free_energy": -8.4, "intermolecular_energy": -10.19, "internal_energy": -1.69, "cluster_size": 7, "cluster_id": 2, "rank_in_cluster": 6}

$$$$
