
     RDKit          3D

 57 60  0  0  0  0  0  0  0  0999 V2000
  142.3580   71.4800  221.3290 O   0  0  0  0  0  0  0  0  0  0  0  0
  141.7040   72.0150  220.3930 C   0  0  0  0  0  0  0  0  0  0  0  0
  140.3520   71.4670  220.0570 C   0  0  0  0  0  0  0  0  0  0  0  0
  139.4080   71.8140  221.1110 N   0  0  0  0  0  0  0  0  0  0  0  0
  139.7250   72.2950  222.2780 C   0  0  0  0  0  0  0  0  0  0  0  0
  139.9580   73.6610  222.4680 O   0  0  0  0  0  0  0  0  0  0  0  0
  139.8510   71.3690  223.4190 C   0  0  0  0  0  0  0  0  0  0  0  0
  139.4450   70.0290  223.3130 C   0  0  0  0  0  0  0  0  0  0  0  0
  139.5600   69.1840  224.4190 C   0  0  0  0  0  0  0  0  0  0  0  0
  140.0760   69.6750  225.6230 C   0  0  0  0  0  0  0  0  0  0  0  0
  140.2030   68.8530  226.7530 C   0  0  0  0  0  0  0  0  0  0  0  0
  140.7200   69.3770  227.9440 C   0  0  0  0  0  0  0  0  0  0  0  0
  140.8430   68.5830  229.0360 F   0  0  0  0  0  0  0  0  0  0  0  0
  141.1130   70.7180  228.0100 C   0  0  0  0  0  0  0  0  0  0  0  0
  140.9890   71.5440  226.8880 C   0  0  0  0  0  0  0  0  0  0  0  0
  140.4740   71.0280  225.6930 C   0  0  0  0  0  0  0  0  0  0  0  0
  140.3520   71.8280  224.6010 N   0  0  0  0  0  0  0  0  0  0  0  0
  142.2770   73.1240  219.6660 N   0  0  0  0  0  0  0  0  0  0  0  0
  143.0750   72.7680  218.4830 C   0  0  0  0  0  0  0  0  0  0  0  0
  144.5740   72.6460  218.8310 C   0  0  0  0  0  0  0  0  0  0  0  0
  144.9340   73.2540  220.1980 C   0  0  0  0  0  0  0  0  0  0  0  0
  144.1810   74.5660  220.4360 C   0  0  0  0  0  0  0  0  0  0  0  0
  142.6420   74.3530  220.4180 C   0  0  1  0  0  0  0  0  0  0  0  0
  141.8820   75.6420  219.9550 C   0  0  0  0  0  0  0  0  0  0  0  0
  142.8560   76.7990  219.6180 C   0  0  0  0  0  0  0  0  0  0  0  0
  142.1160   78.1310  219.4810 C   0  0  0  0  0  0  0  0  0  0  0  0
  141.4470   78.5440  220.8090 C   0  0  0  0  0  0  0  0  0  0  0  0
  141.0900   77.3450  221.7110 C   0  0  0  0  0  0  0  0  0  0  0  0
  140.7160   76.1110  220.8780 C   0  0  0  0  0  0  0  0  0  0  0  0
  140.0099   71.8957  219.1035 H   0  0  0  0  0  0  0  0  0  0  0  0
  140.4135   70.3724  219.9677 H   0  0  0  0  0  0  0  0  0  0  0  0
  139.4380   74.2240  223.1280 H   0  0  0  0  0  0  0  0  0  0  0  0
  139.0389   69.6472  222.3647 H   0  0  0  0  0  0  0  0  0  0  0  0
  139.2449   68.1328  224.3434 H   0  0  0  0  0  0  0  0  0  0  0  0
  139.8966   67.7977  226.7032 H   0  0  0  0  0  0  0  0  0  0  0  0
  141.5209   71.1242  228.9473 H   0  0  0  0  0  0  0  0  0  0  0  0
  141.2961   72.5987  226.9447 H   0  0  0  0  0  0  0  0  0  0  0  0
  142.7197   71.8048  218.0882 H   0  0  0  0  0  0  0  0  0  0  0  0
  142.9572   73.5643  217.7334 H   0  0  0  0  0  0  0  0  0  0  0  0
  144.8442   71.5798  218.8413 H   0  0  0  0  0  0  0  0  0  0  0  0
  145.1320   73.2082  218.0677 H   0  0  0  0  0  0  0  0  0  0  0  0
  144.6678   72.5387  220.9902 H   0  0  0  0  0  0  0  0  0  0  0  0
  146.0136   73.4644  220.2123 H   0  0  0  0  0  0  0  0  0  0  0  0
  144.4737   74.9731  221.4151 H   0  0  0  0  0  0  0  0  0  0  0  0
  144.4414   75.2641  219.6268 H   0  0  0  0  0  0  0  0  0  0  0  0
  142.3028   74.1791  221.4498 H   0  0  0  0  0  0  0  0  0  0  0  0
  141.3761   75.3316  219.0289 H   0  0  0  0  0  0  0  0  0  0  0  0
  143.6013   76.8850  220.4225 H   0  0  0  0  0  0  0  0  0  0  0  0
  143.3420   76.5731  218.6574 H   0  0  0  0  0  0  0  0  0  0  0  0
  142.8337   78.9101  219.1846 H   0  0  0  0  0  0  0  0  0  0  0  0
  141.3304   78.0133  218.7201 H   0  0  0  0  0  0  0  0  0  0  0  0
  142.1376   79.2008  221.3584 H   0  0  0  0  0  0  0  0  0  0  0  0
  140.5052   79.0524  220.5550 H   0  0  0  0  0  0  0  0  0  0  0  0
  141.9570   77.1014  222.3427 H   0  0  0  0  0  0  0  0  0  0  0  0
  140.2232   77.6219  222.3290 H   0  0  0  0  0  0  0  0  0  0  0  0
  140.4539   75.2897  221.5612 H   0  0  0  0  0  0  0  0  0  0  0  0
  139.8676   76.3854  220.2339 H   0  0  0  0  0  0  0  0  0  0  0  0
  1  2  2  0
  2  3  1  0
  3  4  1  0
  4  5  2  0
  5  6  1  0
  5  7  1  0
  7  8  2  0
  8  9  1  0
  9 10  2  0
 10 11  1  0
 11 12  2  0
 12 13  1  0
 12 14  1  0
 14 15  2  0
 15 16  1  0
 16 17  2  0
  2 18  1  0
 18 19  1  0
 19 20  1  0
 20 21  1  0
 21 22  1  0
 22 23  1  0
 23 24  1  0
 24 25  1  0
 25 26  1  0
 26 27  1  0
 27 28  1  0
 28 29  1  0
 17  7  1  0
 23 18  1  0
 29 24  1  0
 16 10  1  0
  3 30  1  0
  3 31  1  0
  6 32  1  0
  8 33  1  0
  9 34  1  0
 11 35  1  0
 14 36  1  0
 15 37  1  0
 19 38  1  0
 19 39  1  0
 20 40  1  0
 20 41  1  0
 21 42  1  0
 21 43  1  0
 22 44  1  0
 22 45  1  0
 23 46  1  1
 24 47  1  0
 25 48  1  0
 25 49  1  0
 26 50  1  0
 26 51  1  0
 27 52  1  0
 27 53  1  0
 28 54  1  0
 28 55  1  0
 29 56  1  0
 29 57  1  0
M  END
>  <meeko>  (1) 
{"free_energy": -7.73, "intermolecular_energy": -9.82, "internal_energy": -1.66, "cluster_size": 5, "cluster_id": 3, "rank_in_cluster": 5}

$$$$

     RDKit          3D

 57 60  0  0  0  0  0  0  0  0999 V2000
  140.2920   71.4100  220.7050 O   0  0  0  0  0  0  0  0  0  0  0  0
  139.7530   71.5910  221.8300 C   0  0  0  0  0  0  0  0  0  0  0  0
  139.2140   72.9490  222.1580 C   0  0  0  0  0  0  0  0  0  0  0  0
  140.3160   73.8890  222.3060 N   0  0  0  0  0  0  0  0  0  0  0  0
  141.0070   74.4010  221.3290 C   0  0  0  0  0  0  0  0  0  0  0  0
  141.5550   73.6010  220.3220 O   0  0  0  0  0  0  0  0  0  0  0  0
  141.2230   75.8600  221.2970 C   0  0  0  0  0  0  0  0  0  0  0  0
  141.6150   76.5080  220.1150 C   0  0  0  0  0  0  0  0  0  0  0  0
  141.8290   77.8880  220.1230 C   0  0  0  0  0  0  0  0  0  0  0  0
  141.6550   78.6150  221.3060 C   0  0  0  0  0  0  0  0  0  0  0  0
  141.8650   80.0020  221.3490 C   0  0  0  0  0  0  0  0  0  0  0  0
  141.6840   80.6990  222.5490 C   0  0  0  0  0  0  0  0  0  0  0  0
  141.8870   82.0390  222.5910 F   0  0  0  0  0  0  0  0  0  0  0  0
  141.2940   80.0170  223.7070 C   0  0  0  0  0  0  0  0  0  0  0  0
  141.0830   78.6340  223.6720 C   0  0  0  0  0  0  0  0  0  0  0  0
  141.2610   77.9300  222.4760 C   0  0  0  0  0  0  0  0  0  0  0  0
  141.0580   76.5860  222.4380 N   0  0  0  0  0  0  0  0  0  0  0  0
  139.6820   70.4970  222.7710 N   0  0  0  0  0  0  0  0  0  0  0  0
  139.2180   69.2140  222.2220 C   0  0  0  0  0  0  0  0  0  0  0  0
  137.6950   69.0410  222.4050 C   0  0  0  0  0  0  0  0  0  0  0  0
  137.0830   70.0400  223.4020 C   0  0  0  0  0  0  0  0  0  0  0  0
  137.9970   70.2450  224.6130 C   0  0  0  0  0  0  0  0  0  0  0  0
  139.3850   70.8040  224.1950 C   0  0  1  0  0  0  0  0  0  0  0  0
  140.5100   70.3730  225.1950 C   0  0  0  0  0  0  0  0  0  0  0  0
  140.0820   69.1650  226.0650 C   0  0  0  0  0  0  0  0  0  0  0  0
  141.0380   68.9570  227.2420 C   0  0  0  0  0  0  0  0  0  0  0  0
  141.0270   70.1660  228.1990 C   0  0  0  0  0  0  0  0  0  0  0  0
  140.6460   71.4900  227.5060 C   0  0  0  0  0  0  0  0  0  0  0  0
  141.1320   71.5190  226.0510 C   0  0  0  0  0  0  0  0  0  0  0  0
  138.5519   73.2859  221.3468 H   0  0  0  0  0  0  0  0  0  0  0  0
  138.6470   72.8995  223.0993 H   0  0  0  0  0  0  0  0  0  0  0  0
  141.1720   72.7010  220.0610 H   0  0  0  0  0  0  0  0  0  0  0  0
  141.7528   75.9322  219.1880 H   0  0  0  0  0  0  0  0  0  0  0  0
  142.1341   78.4031  219.2002 H   0  0  0  0  0  0  0  0  0  0  0  0
  142.1716   80.5408  220.4403 H   0  0  0  0  0  0  0  0  0  0  0  0
  141.1529   80.5696  224.6476 H   0  0  0  0  0  0  0  0  0  0  0  0
  140.7774   78.1007  224.5842 H   0  0  0  0  0  0  0  0  0  0  0  0
  139.4560   69.1769  221.1487 H   0  0  0  0  0  0  0  0  0  0  0  0
  139.7262   68.4020  222.7627 H   0  0  0  0  0  0  0  0  0  0  0  0
  137.2083   69.1802  221.4284 H   0  0  0  0  0  0  0  0  0  0  0  0
  137.5289   68.0326  222.8118 H   0  0  0  0  0  0  0  0  0  0  0  0
  136.9350   71.0058  222.8968 H   0  0  0  0  0  0  0  0  0  0  0  0
  136.1230   69.6354  223.7551 H   0  0  0  0  0  0  0  0  0  0  0  0
  137.5197   70.9553  225.3041 H   0  0  0  0  0  0  0  0  0  0  0  0
  138.1510   69.2690  225.0965 H   0  0  0  0  0  0  0  0  0  0  0  0
  139.3525   71.9016  224.2603 H   0  0  0  0  0  0  0  0  0  0  0  0
  141.3355   70.0543  224.5416 H   0  0  0  0  0  0  0  0  0  0  0  0
  139.0692   69.3455  226.4543 H   0  0  0  0  0  0  0  0  0  0  0  0
  140.1042   68.2618  225.4376 H   0  0  0  0  0  0  0  0  0  0  0  0
  140.7310   68.0586  227.7975 H   0  0  0  0  0  0  0  0  0  0  0  0
  142.0566   68.8416  226.8432 H   0  0  0  0  0  0  0  0  0  0  0  0
  140.2998   69.9699  229.0008 H   0  0  0  0  0  0  0  0  0  0  0  0
  142.0498   70.2839  228.5863 H   0  0  0  0  0  0  0  0  0  0  0  0
  139.5516   71.5996  227.5202 H   0  0  0  0  0  0  0  0  0  0  0  0
  141.1276   72.3166  228.0489 H   0  0  0  0  0  0  0  0  0  0  0  0
  140.8535   72.4849  225.6044 H   0  0  0  0  0  0  0  0  0  0  0  0
  142.2230   71.3788  226.0583 H   0  0  0  0  0  0  0  0  0  0  0  0
  1  2  2  0
  2  3  1  0
  3  4  1  0
  4  5  2  0
  5  6  1  0
  5  7  1  0
  7  8  2  0
  8  9  1  0
  9 10  2  0
 10 11  1  0
 11 12  2  0
 12 13  1  0
 12 14  1  0
 14 15  2  0
 15 16  1  0
 16 17  2  0
  2 18  1  0
 18 19  1  0
 19 20  1  0
 20 21  1  0
 21 22  1  0
 22 23  1  0
 23 24  1  0
 24 25  1  0
 25 26  1  0
 26 27  1  0
 27 28  1  0
 28 29  1  0
 17  7  1  0
 23 18  1  0
 29 24  1  0
 16 10  1  0
  3 30  1  0
  3 31  1  0
  6 32  1  0
  8 33  1  0
  9 34  1  0
 11 35  1  0
 14 36  1  0
 15 37  1  0
 19 38  1  0
 19 39  1  0
 20 40  1  0
 20 41  1  0
 21 42  1  0
 21 43  1  0
 22 44  1  0
 22 45  1  0
 23 46  1  6
 24 47  1  0
 25 48  1  0
 25 49  1  0
 26 50  1  0
 26 51  1  0
 27 52  1  0
 27 53  1  0
 28 54  1  0
 28 55  1  0
 29 56  1  0
 29 57  1  0
M  END
>  <meeko>  (2) 
{"free_energy": -7.86, "intermolecular_energy": -9.95, "internal_energy": -1.8, "cluster_size": 7, "cluster_id": 2, "rank_in_cluster": 4}

$$$$

     RDKit          3D

 57 60  0  0  0  0  0  0  0  0999 V2000
  139.6840   71.4030  220.7990 O   0  0  0  0  0  0  0  0  0  0  0  0
  139.6470   71.5730  222.0470 C   0  0  0  0  0  0  0  0  0  0  0  0
  139.6100   72.9720  222.5810 C   0  0  0  0  0  0  0  0  0  0  0  0
  140.6760   73.7560  221.9710 N   0  0  0  0  0  0  0  0  0  0  0  0
  140.5370   74.5550  220.9540 C   0  0  0  0  0  0  0  0  0  0  0  0
  140.0000   74.1100  219.7420 O   0  0  0  0  0  0  0  0  0  0  0  0
  140.9700   75.9580  221.0860 C   0  0  0  0  0  0  0  0  0  0  0  0
  141.7710   76.5640  220.1050 C   0  0  0  0  0  0  0  0  0  0  0  0
  142.1800   77.8900  220.2690 C   0  0  0  0  0  0  0  0  0  0  0  0
  141.7930   78.6040  221.4090 C   0  0  0  0  0  0  0  0  0  0  0  0
  142.1880   79.9350  221.6060 C   0  0  0  0  0  0  0  0  0  0  0  0
  141.7860   80.6210  222.7580 C   0  0  0  0  0  0  0  0  0  0  0  0
  142.1690   81.9070  222.9490 F   0  0  0  0  0  0  0  0  0  0  0  0
  140.9900   79.9810  223.7140 C   0  0  0  0  0  0  0  0  0  0  0  0
  140.5910   78.6540  223.5250 C   0  0  0  0  0  0  0  0  0  0  0  0
  140.9880   77.9620  222.3750 C   0  0  0  0  0  0  0  0  0  0  0  0
  140.6030   76.6710  222.1880 N   0  0  0  0  0  0  0  0  0  0  0  0
  139.6550   70.4250  222.9240 N   0  0  0  0  0  0  0  0  0  0  0  0
  139.2990   69.1420  222.2980 C   0  0  0  0  0  0  0  0  0  0  0  0
  137.7930   68.8400  222.4510 C   0  0  0  0  0  0  0  0  0  0  0  0
  137.0960   69.7290  223.4950 C   0  0  0  0  0  0  0  0  0  0  0  0
  137.9810   69.9350  224.7280 C   0  0  0  0  0  0  0  0  0  0  0  0
  139.3240   70.6250  224.3590 C   0  0  1  0  0  0  0  0  0  0  0  0
  140.4710   70.2280  225.3480 C   0  0  0  0  0  0  0  0  0  0  0  0
  140.0430   69.0880  226.3050 C   0  0  0  0  0  0  0  0  0  0  0  0
  141.0330   68.9280  227.4610 C   0  0  0  0  0  0  0  0  0  0  0  0
  141.0840   70.1940  228.3410 C   0  0  0  0  0  0  0  0  0  0  0  0
  140.7110   71.4820  227.5790 C   0  0  0  0  0  0  0  0  0  0  0  0
  141.1490   71.4080  226.1100 C   0  0  0  0  0  0  0  0  0  0  0  0
  138.6378   73.4288  222.3439 H   0  0  0  0  0  0  0  0  0  0  0  0
  139.7504   72.9507  223.6718 H   0  0  0  0  0  0  0  0  0  0  0  0
  139.7230   73.1510  219.5790 H   0  0  0  0  0  0  0  0  0  0  0  0
  142.0749   75.9980  219.2121 H   0  0  0  0  0  0  0  0  0  0  0  0
  142.8053   78.3721  219.5032 H   0  0  0  0  0  0  0  0  0  0  0  0
  142.8137   80.4399  220.8553 H   0  0  0  0  0  0  0  0  0  0  0  0
  140.6767   80.5237  224.6180 H   0  0  0  0  0  0  0  0  0  0  0  0
  139.9656   78.1545  224.2796 H   0  0  0  0  0  0  0  0  0  0  0  0
  139.5486   69.1845  221.2276 H   0  0  0  0  0  0  0  0  0  0  0  0
  139.8652   68.3431  222.7992 H   0  0  0  0  0  0  0  0  0  0  0  0
  137.3051   68.9967  221.4777 H   0  0  0  0  0  0  0  0  0  0  0  0
  137.7034   67.7999  222.7976 H   0  0  0  0  0  0  0  0  0  0  0  0
  136.8766   70.7078  223.0435 H   0  0  0  0  0  0  0  0  0  0  0  0
  136.1680   69.2308  223.8122 H   0  0  0  0  0  0  0  0  0  0  0  0
  137.4433   70.5645  225.4523 H   0  0  0  0  0  0  0  0  0  0  0  0
  138.2077   68.9481  225.1578 H   0  0  0  0  0  0  0  0  0  0  0  0
  139.2049   71.7113  224.4849 H   0  0  0  0  0  0  0  0  0  0  0  0
  141.2667   69.8483  224.6902 H   0  0  0  0  0  0  0  0  0  0  0  0
  139.0487   69.3191  226.7148 H   0  0  0  0  0  0  0  0  0  0  0  0
  140.0214   68.1474  225.7351 H   0  0  0  0  0  0  0  0  0  0  0  0
  140.7234   68.0739  228.0811 H   0  0  0  0  0  0  0  0  0  0  0  0
  142.0344   68.7617  227.0373 H   0  0  0  0  0  0  0  0  0  0  0  0
  140.3804   70.0667  229.1769 H   0  0  0  0  0  0  0  0  0  0  0  0
  142.1219   70.3089  228.6867 H   0  0  0  0  0  0  0  0  0  0  0  0
  139.6205   71.6201  227.6212 H   0  0  0  0  0  0  0  0  0  0  0  0
  141.2293   72.3283  228.0534 H   0  0  0  0  0  0  0  0  0  0  0  0
  140.8794   72.3514  225.6127 H   0  0  0  0  0  0  0  0  0  0  0  0
  142.2359   71.2398  226.0914 H   0  0  0  0  0  0  0  0  0  0  0  0
  1  2  2  0
  2  3  1  0
  3  4  1  0
  4  5  2  0
  5  6  1  0
  5  7  1  0
  7  8  2  0
  8  9  1  0
  9 10  2  0
 10 11  1  0
 11 12  2  0
 12 13  1  0
 12 14  1  0
 14 15  2  0
 15 16  1  0
 16 17  2  0
  2 18  1  0
 18 19  1  0
 19 20  1  0
 20 21  1  0
 21 22  1  0
 22 23  1  0
 23 24  1  0
 24 25  1  0
 25 26  1  0
 26 27  1  0
 27 28  1  0
 28 29  1  0
 17  7  1  0
 23 18  1  0
 29 24  1  0
 16 10  1  0
  3 30  1  0
  3 31  1  0
  6 32  1  0
  8 33  1  0
  9 34  1  0
 11 35  1  0
 14 36  1  0
 15 37  1  0
 19 38  1  0
 19 39  1  0
 20 40  1  0
 20 41  1  0
 21 42  1  0
 21 43  1  0
 22 44  1  0
 22 45  1  0
 23 46  1  6
 24 47  1  0
 25 48  1  0
 25 49  1  0
 26 50  1  0
 26 51  1  0
 27 52  1  0
 27 53  1  0
 28 54  1  0
 28 55  1  0
 29 56  1  0
 29 57  1  0
M  END
>  <meeko>  (3) 
{"free_energy": -7.62, "intermolecular_energy": -9.71, "internal_energy": -1.74, "cluster_size": 7, "cluster_id": 2, "rank_in_cluster": 6}

$$$$

     RDKit          3D

 57 60  0  0  0  0  0  0  0  0999 V2000
  138.3220   74.9510  221.8380 O   0  0  0  0  0  0  0  0  0  0  0  0
  139.4570   75.3720  221.4820 C   0  0  0  0  0  0  0  0  0  0  0  0
  140.5680   74.3840  221.3100 C   0  0  0  0  0  0  0  0  0  0  0  0
  140.4970   73.3810  222.3630 N   0  0  0  0  0  0  0  0  0  0  0  0
  139.6560   72.3890  222.4040 C   0  0  0  0  0  0  0  0  0  0  0  0
  138.6770   72.2180  221.4200 O   0  0  0  0  0  0  0  0  0  0  0  0
  139.7360   71.4330  223.5240 C   0  0  0  0  0  0  0  0  0  0  0  0
  139.2230   70.1320  223.4040 C   0  0  0  0  0  0  0  0  0  0  0  0
  139.2970   69.2570  224.4900 C   0  0  0  0  0  0  0  0  0  0  0  0
  139.8790   69.6820  225.6900 C   0  0  0  0  0  0  0  0  0  0  0  0
  139.9680   68.8290  226.8010 C   0  0  0  0  0  0  0  0  0  0  0  0
  140.5530   69.2860  227.9870 C   0  0  0  0  0  0  0  0  0  0  0  0
  140.6380   68.4630  229.0610 F   0  0  0  0  0  0  0  0  0  0  0  0
  141.0510   70.5910  228.0690 C   0  0  0  0  0  0  0  0  0  0  0  0
  140.9670   71.4470  226.9650 C   0  0  0  0  0  0  0  0  0  0  0  0
  140.3840   70.9970  225.7750 C   0  0  0  0  0  0  0  0  0  0  0  0
  140.2990   71.8270  224.7010 N   0  0  0  0  0  0  0  0  0  0  0  0
  139.6560   76.7870  221.2650 N   0  0  0  0  0  0  0  0  0  0  0  0
  139.0440   77.3370  220.0460 C   0  0  0  0  0  0  0  0  0  0  0  0
  140.0440   77.3480  218.8700 C   0  0  0  0  0  0  0  0  0  0  0  0
  141.5030   77.1310  219.3080 C   0  0  0  0  0  0  0  0  0  0  0  0
  141.8120   77.8870  220.6030 C   0  0  0  0  0  0  0  0  0  0  0  0
  140.9050   77.4140  221.7720 C   0  0  1  0  0  0  0  0  0  0  0  0
  140.6740   78.5490  222.8260 C   0  0  0  0  0  0  0  0  0  0  0  0
  140.1640   79.8560  222.1680 C   0  0  0  0  0  0  0  0  0  0  0  0
  140.2490   81.0390  223.1350 C   0  0  0  0  0  0  0  0  0  0  0  0
  141.7080   81.3350  223.5380 C   0  0  0  0  0  0  0  0  0  0  0  0
  142.6240   80.0970  223.4670 C   0  0  0  0  0  0  0  0  0  0  0  0
  141.8560   78.8130  223.8080 C   0  0  0  0  0  0  0  0  0  0  0  0
  140.4731   73.8934  220.3301 H   0  0  0  0  0  0  0  0  0  0  0  0
  141.5341   74.9068  221.3680 H   0  0  0  0  0  0  0  0  0  0  0  0
  137.9720   72.9140  221.2150 H   0  0  0  0  0  0  0  0  0  0  0  0
  138.7651   69.8033  222.4594 H   0  0  0  0  0  0  0  0  0  0  0  0
  138.8985   68.2355  224.4025 H   0  0  0  0  0  0  0  0  0  0  0  0
  139.5782   67.8022  226.7394 H   0  0  0  0  0  0  0  0  0  0  0  0
  141.5098   70.9452  229.0039 H   0  0  0  0  0  0  0  0  0  0  0  0
  141.3589   72.4726  227.0326 H   0  0  0  0  0  0  0  0  0  0  0  0
  138.1756   76.7200  219.7717 H   0  0  0  0  0  0  0  0  0  0  0  0
  138.7374   78.3736  220.2497 H   0  0  0  0  0  0  0  0  0  0  0  0
  139.7672   76.5466  218.1692 H   0  0  0  0  0  0  0  0  0  0  0  0
  139.9886   78.3434  218.4052 H   0  0  0  0  0  0  0  0  0  0  0  0
  141.6724   76.0564  219.4710 H   0  0  0  0  0  0  0  0  0  0  0  0
  142.1642   77.5128  218.5162 H   0  0  0  0  0  0  0  0  0  0  0  0
  142.8638   77.7142  220.8749 H   0  0  0  0  0  0  0  0  0  0  0  0
  141.6212   78.9565  220.4307 H   0  0  0  0  0  0  0  0  0  0  0  0
  141.4325   76.6203  222.3214 H   0  0  0  0  0  0  0  0  0  0  0  0
  139.8777   78.1512  223.4723 H   0  0  0  0  0  0  0  0  0  0  0  0
  140.7781   80.0736  221.2817 H   0  0  0  0  0  0  0  0  0  0  0  0
  139.1099   79.7136  221.8876 H   0  0  0  0  0  0  0  0  0  0  0  0
  139.8247   81.9297  222.6485 H   0  0  0  0  0  0  0  0  0  0  0  0
  139.6846   80.7834  224.0439 H   0  0  0  0  0  0  0  0  0  0  0  0
  142.1079   82.1043  222.8611 H   0  0  0  0  0  0  0  0  0  0  0  0
  141.6947   81.6705  224.5855 H   0  0  0  0  0  0  0  0  0  0  0  0
  143.0313   80.0109  222.4488 H   0  0  0  0  0  0  0  0  0  0  0  0
  143.4333   80.2221  224.2014 H   0  0  0  0  0  0  0  0  0  0  0  0
  142.5515   77.9621  223.7605 H   0  0  0  0  0  0  0  0  0  0  0  0
  141.4338   78.9325  224.8167 H   0  0  0  0  0  0  0  0  0  0  0  0
  1  2  2  0
  2  3  1  0
  3  4  1  0
  4  5  2  0
  5  6  1  0
  5  7  1  0
  7  8  2  0
  8  9  1  0
  9 10  2  0
 10 11  1  0
 11 12  2  0
 12 13  1  0
 12 14  1  0
 14 15  2  0
 15 16  1  0
 16 17  2  0
  2 18  1  0
 18 19  1  0
 19 20  1  0
 20 21  1  0
 21 22  1  0
 22 23  1  0
 23 24  1  0
 24 25  1  0
 25 26  1  0
 26 27  1  0
 27 28  1  0
 28 29  1  0
 17  7  1  0
 23 18  1  0
 29 24  1  0
 16 10  1  0
  3 30  1  0
  3 31  1  0
  6 32  1  0
  8 33  1  0
  9 34  1  0
 11 35  1  0
 14 36  1  0
 15 37  1  0
 19 38  1  0
 19 39  1  0
 20 40  1  0
 20 41  1  0
 21 42  1  0
 21 43  1  0
 22 44  1  0
 22 45  1  0
 23 46  1  1
 24 47  1  0
 25 48  1  0
 25 49  1  0
 26 50  1  0
 26 51  1  0
 27 52  1  0
 27 53  1  0
 28 54  1  0
 28 55  1  0
 29 56  1  0
 29 57  1  0
M  END
>  <meeko>  (4) 
{"free_energy": -8.19, "intermolecular_energy": -10.27, "internal_energy": -1.72, "cluster_size": 5, "cluster_id": 1, "rank_in_cluster": 2}

$$$$

     RDKit          3D

 57 60  0  0  0  0  0  0  0  0999 V2000
  140.1960   71.4310  220.7710 O   0  0  0  0  0  0  0  0  0  0  0  0
  139.7580   71.6220  221.9380 C   0  0  0  0  0  0  0  0  0  0  0  0
  139.3700   73.0100  222.3420 C   0  0  0  0  0  0  0  0  0  0  0  0
  140.5140   73.8990  222.1960 N   0  0  0  0  0  0  0  0  0  0  0  0
  140.8560   74.5150  221.1020 C   0  0  0  0  0  0  0  0  0  0  0  0
  140.9620   73.8380  219.8830 O   0  0  0  0  0  0  0  0  0  0  0  0
  141.1500   75.9590  221.1600 C   0  0  0  0  0  0  0  0  0  0  0  0
  141.5410   76.6650  220.0110 C   0  0  0  0  0  0  0  0  0  0  0  0
  141.8300   78.0290  220.1040 C   0  0  0  0  0  0  0  0  0  0  0  0
  141.7310   78.6820  221.3370 C   0  0  0  0  0  0  0  0  0  0  0  0
  142.0160   80.0490  221.4650 C   0  0  0  0  0  0  0  0  0  0  0  0
  141.9090   80.6720  222.7140 C   0  0  0  0  0  0  0  0  0  0  0  0
  142.1850   81.9930  222.8380 F   0  0  0  0  0  0  0  0  0  0  0  0
  141.5180   79.9340  223.8360 C   0  0  0  0  0  0  0  0  0  0  0  0
  141.2310   78.5700  223.7170 C   0  0  0  0  0  0  0  0  0  0  0  0
  141.3340   77.9400  222.4710 C   0  0  0  0  0  0  0  0  0  0  0  0
  141.0580   76.6140  222.3520 N   0  0  0  0  0  0  0  0  0  0  0  0
  139.6550   70.5070  222.8520 N   0  0  0  0  0  0  0  0  0  0  0  0
  139.2560   69.2250  222.2510 C   0  0  0  0  0  0  0  0  0  0  0  0
  137.7290   69.0150  222.3370 C   0  0  0  0  0  0  0  0  0  0  0  0
  137.0350   69.9800  223.3140 C   0  0  0  0  0  0  0  0  0  0  0  0
  137.8680   70.1790  224.5820 C   0  0  0  0  0  0  0  0  0  0  0  0
  139.2660   70.7770  224.2600 C   0  0  1  0  0  0  0  0  0  0  0  0
  140.3380   70.3510  225.3190 C   0  0  0  0  0  0  0  0  0  0  0  0
  139.7480   69.4020  226.3910 C   0  0  0  0  0  0  0  0  0  0  0  0
  140.6950   69.2490  227.5850 C   0  0  0  0  0  0  0  0  0  0  0  0
  140.9080   70.5940  228.3110 C   0  0  0  0  0  0  0  0  0  0  0  0
  140.7220   71.8190  227.3940 C   0  0  0  0  0  0  0  0  0  0  0  0
  141.1610   71.5120  225.9560 C   0  0  0  0  0  0  0  0  0  0  0  0
  138.5487   73.3619  221.7004 H   0  0  0  0  0  0  0  0  0  0  0  0
  139.0416   73.0066  223.3918 H   0  0  0  0  0  0  0  0  0  0  0  0
  140.6740   72.8760  219.7580 H   0  0  0  0  0  0  0  0  0  0  0  0
  141.6193   76.1475  219.0435 H   0  0  0  0  0  0  0  0  0  0  0  0
  142.1353   78.5890  219.2078 H   0  0  0  0  0  0  0  0  0  0  0  0
  142.3236   80.6317  220.5841 H   0  0  0  0  0  0  0  0  0  0  0  0
  141.4359   80.4279  224.8154 H   0  0  0  0  0  0  0  0  0  0  0  0
  140.9246   77.9928  224.6019 H   0  0  0  0  0  0  0  0  0  0  0  0
  139.5599   69.2151  221.1939 H   0  0  0  0  0  0  0  0  0  0  0  0
  139.7494   68.4135  222.8060 H   0  0  0  0  0  0  0  0  0  0  0  0
  137.2994   69.1637  221.3354 H   0  0  0  0  0  0  0  0  0  0  0  0
  137.5615   67.9950  222.7132 H   0  0  0  0  0  0  0  0  0  0  0  0
  136.8965   70.9528  222.8195 H   0  0  0  0  0  0  0  0  0  0  0  0
  136.0646   69.5478  223.5995 H   0  0  0  0  0  0  0  0  0  0  0  0
  137.3334   70.8641  225.2565 H   0  0  0  0  0  0  0  0  0  0  0  0
  138.0145   69.1968  225.0551 H   0  0  0  0  0  0  0  0  0  0  0  0
  139.2047   71.8721  224.3441 H   0  0  0  0  0  0  0  0  0  0  0  0
  141.0818   69.7924  224.7318 H   0  0  0  0  0  0  0  0  0  0  0  0
  138.7905   69.8124  226.7441 H   0  0  0  0  0  0  0  0  0  0  0  0
  139.6040   68.4116  225.9346 H   0  0  0  0  0  0  0  0  0  0  0  0
  140.2649   68.5247  228.2924 H   0  0  0  0  0  0  0  0  0  0  0  0
  141.6688   68.8992  227.2118 H   0  0  0  0  0  0  0  0  0  0  0  0
  140.1846   70.6632  229.1368 H   0  0  0  0  0  0  0  0  0  0  0  0
  141.9483   70.6098  228.6682 H   0  0  0  0  0  0  0  0  0  0  0  0
  139.6601   72.1060  227.3907 H   0  0  0  0  0  0  0  0  0  0  0  0
  141.3460   72.6387  227.7796 H   0  0  0  0  0  0  0  0  0  0  0  0
  141.0271   72.4168  225.3449 H   0  0  0  0  0  0  0  0  0  0  0  0
  142.2150   71.1989  225.9864 H   0  0  0  0  0  0  0  0  0  0  0  0
  1  2  2  0
  2  3  1  0
  3  4  1  0
  4  5  2  0
  5  6  1  0
  5  7  1  0
  7  8  2  0
  8  9  1  0
  9 10  2  0
 10 11  1  0
 11 12  2  0
 12 13  1  0
 12 14  1  0
 14 15  2  0
 15 16  1  0
 16 17  2  0
  2 18  1  0
 18 19  1  0
 19 20  1  0
 20 21  1  0
 21 22  1  0
 22 23  1  0
 23 24  1  0
 24 25  1  0
 25 26  1  0
 26 27  1  0
 27 28  1  0
 28 29  1  0
 17  7  1  0
 23 18  1  0
 29 24  1  0
 16 10  1  0
  3 30  1  0
  3 31  1  0
  6 32  1  0
  8 33  1  0
  9 34  1  0
 11 35  1  0
 14 36  1  0
 15 37  1  0
 19 38  1  0
 19 39  1  0
 20 40  1  0
 20 41  1  0
 21 42  1  0
 21 43  1  0
 22 44  1  0
 22 45  1  0
 23 46  1  6
 24 47  1  0
 25 48  1  0
 25 49  1  0
 26 50  1  0
 26 51  1  0
 27 52  1  0
 27 53  1  0
 28 54  1  0
 28 55  1  0
 29 56  1  0
 29 57  1  0
M  END
>  <meeko>  (5) 
{"free_energy": -7.84, "intermolecular_energy": -9.92, "internal_energy": -1.78, "cluster_size": 7, "cluster_id": 2, "rank_in_cluster": 5}

$$$$

     RDKit          3D

 57 60  0  0  0  0  0  0  0  0999 V2000
  139.3010   74.9470  219.8550 O   0  0  0  0  0  0  0  0  0  0  0  0
  140.0870   75.1240  220.8250 C   0  0  0  0  0  0  0  0  0  0  0  0
  141.1230   74.0810  221.1100 C   0  0  0  0  0  0  0  0  0  0  0  0
  140.7730   73.3630  222.3270 N   0  0  0  0  0  0  0  0  0  0  0  0
  139.7780   72.5350  222.4540 C   0  0  0  0  0  0  0  0  0  0  0  0
  138.6860   72.5620  221.5790 O   0  0  0  0  0  0  0  0  0  0  0  0
  139.8020   71.5540  223.5560 C   0  0  0  0  0  0  0  0  0  0  0  0
  139.2200   70.2850  223.4090 C   0  0  0  0  0  0  0  0  0  0  0  0
  139.2450   69.3870  224.4780 C   0  0  0  0  0  0  0  0  0  0  0  0
  139.8450   69.7560  225.6870 C   0  0  0  0  0  0  0  0  0  0  0  0
  139.8850   68.8790  226.7810 C   0  0  0  0  0  0  0  0  0  0  0  0
  140.4920   69.2800  227.9770 C   0  0  0  0  0  0  0  0  0  0  0  0
  140.5300   68.4320  229.0340 F   0  0  0  0  0  0  0  0  0  0  0  0
  141.0600   70.5540  228.0840 C   0  0  0  0  0  0  0  0  0  0  0  0
  141.0250   71.4340  226.9980 C   0  0  0  0  0  0  0  0  0  0  0  0
  140.4210   71.0400  225.7980 C   0  0  0  0  0  0  0  0  0  0  0  0
  140.3840   71.8940  224.7400 N   0  0  0  0  0  0  0  0  0  0  0  0
  139.9590   76.3110  221.6390 N   0  0  0  0  0  0  0  0  0  0  0  0
  138.9390   76.2520  222.6970 C   0  0  0  0  0  0  0  0  0  0  0  0
  137.5930   76.8340  222.2140 C   0  0  0  0  0  0  0  0  0  0  0  0
  137.7120   77.6450  220.9120 C   0  0  0  0  0  0  0  0  0  0  0  0
  138.9800   78.5020  220.9070 C   0  0  0  0  0  0  0  0  0  0  0  0
  140.2610   77.6300  221.0240 C   0  0  1  0  0  0  0  0  0  0  0  0
  141.4340   78.4080  221.7090 C   0  0  0  0  0  0  0  0  0  0  0  0
  141.2180   78.5540  223.2360 C   0  0  0  0  0  0  0  0  0  0  0  0
  142.1840   79.5760  223.8420 C   0  0  0  0  0  0  0  0  0  0  0  0
  141.9470   80.9870  223.2650 C   0  0  0  0  0  0  0  0  0  0  0  0
  141.3430   80.9730  221.8460 C   0  0  0  0  0  0  0  0  0  0  0  0
  141.8320   79.7600  221.0430 C   0  0  0  0  0  0  0  0  0  0  0  0
  141.1711   73.3737  220.2689 H   0  0  0  0  0  0  0  0  0  0  0  0
  142.1019   74.5654  221.2410 H   0  0  0  0  0  0  0  0  0  0  0  0
  138.5670   73.2690  220.8650 H   0  0  0  0  0  0  0  0  0  0  0  0
  138.7472   69.9998  222.4576 H   0  0  0  0  0  0  0  0  0  0  0  0
  138.7932   68.3899  224.3697 H   0  0  0  0  0  0  0  0  0  0  0  0
  139.4396   67.8766  226.6992 H   0  0  0  0  0  0  0  0  0  0  0  0
  141.5358   70.8645  229.0259 H   0  0  0  0  0  0  0  0  0  0  0  0
  141.4718   72.4353  227.0864 H   0  0  0  0  0  0  0  0  0  0  0  0
  138.7900   75.2030  222.9926 H   0  0  0  0  0  0  0  0  0  0  0  0
  139.2895   76.8515  223.5501 H   0  0  0  0  0  0  0  0  0  0  0  0
  136.8938   76.0019  222.0442 H   0  0  0  0  0  0  0  0  0  0  0  0
  137.2371   77.5223  222.9948 H   0  0  0  0  0  0  0  0  0  0  0  0
  137.7446   76.9512  220.0590 H   0  0  0  0  0  0  0  0  0  0  0  0
  136.8407   78.3122  220.8366 H   0  0  0  0  0  0  0  0  0  0  0  0
  139.0213   79.0727  219.9675 H   0  0  0  0  0  0  0  0  0  0  0  0
  138.9426   79.1763  221.7753 H   0  0  0  0  0  0  0  0  0  0  0  0
  140.6244   77.4070  220.0100 H   0  0  0  0  0  0  0  0  0  0  0  0
  142.3107   77.7650  221.5417 H   0  0  0  0  0  0  0  0  0  0  0  0
  140.1852   78.8841  223.4214 H   0  0  0  0  0  0  0  0  0  0  0  0
  141.4065   77.5780  223.7071 H   0  0  0  0  0  0  0  0  0  0  0  0
  142.0362   79.6056  224.9316 H   0  0  0  0  0  0  0  0  0  0  0  0
  143.2112   79.2695  223.5952 H   0  0  0  0  0  0  0  0  0  0  0  0
  141.2581   81.5257  223.9322 H   0  0  0  0  0  0  0  0  0  0  0  0
  142.9281   81.4796  223.1963 H   0  0  0  0  0  0  0  0  0  0  0  0
  140.2465   80.9326  221.9238 H   0  0  0  0  0  0  0  0  0  0  0  0
  141.6631   81.8867  221.3237 H   0  0  0  0  0  0  0  0  0  0  0  0
  141.3908   79.8014  220.0362 H   0  0  0  0  0  0  0  0  0  0  0  0
  142.9304   79.8042  221.0033 H   0  0  0  0  0  0  0  0  0  0  0  0
  1  2  2  0
  2  3  1  0
  3  4  1  0
  4  5  2  0
  5  6  1  0
  5  7  1  0
  7  8  2  0
  8  9  1  0
  9 10  2  0
 10 11  1  0
 11 12  2  0
 12 13  1  0
 12 14  1  0
 14 15  2  0
 15 16  1  0
 16 17  2  0
  2 18  1  0
 18 19  1  0
 19 20  1  0
 20 21  1  0
 21 22  1  0
 22 23  1  0
 23 24  1  0
 24 25  1  0
 25 26  1  0
 26 27  1  0
 27 28  1  0
 28 29  1  0
 17  7  1  0
 23 18  1  0
 29 24  1  0
 16 10  1  0
  3 30  1  0
  3 31  1  0
  6 32  1  0
  8 33  1  0
  9 34  1  0
 11 35  1  0
 14 36  1  0
 15 37  1  0
 19 38  1  0
 19 39  1  0
 20 40  1  0
 20 41  1  0
 21 42  1  0
 21 43  1  0
 22 44  1  0
 22 45  1  0
 23 46  1  6
 24 47  1  0
 25 48  1  0
 25 49  1  0
 26 50  1  0
 26 51  1  0
 27 52  1  0
 27 53  1  0
 28 54  1  0
 28 55  1  0
 29 56  1  0
 29 57  1  0
M  END
>  <meeko>  (6) 
{"free_energy": -7.8, "intermolecular_energy": -9.89, "internal_energy": -1.86, "cluster_size": 5, "cluster_id": 1, "rank_in_cluster": 4}

$$$$

     RDKit          3D

 57 60  0  0  0  0  0  0  0  0999 V2000
  137.8690   72.1060  222.2780 O   0  0  0  0  0  0  0  0  0  0  0  0
  139.0410   71.6420  222.3250 C   0  0  0  0  0  0  0  0  0  0  0  0
  140.1210   72.3400  221.5590 C   0  0  0  0  0  0  0  0  0  0  0  0
  140.3790   73.6430  222.1550 N   0  0  0  0  0  0  0  0  0  0  0  0
  139.6200   74.6920  222.0310 C   0  0  0  0  0  0  0  0  0  0  0  0
  138.2250   74.5900  222.0240 O   0  0  0  0  0  0  0  0  0  0  0  0
  140.2530   76.0160  221.8840 C   0  0  0  0  0  0  0  0  0  0  0  0
  141.2320   76.2450  220.9040 C   0  0  0  0  0  0  0  0  0  0  0  0
  141.8250   77.5060  220.8020 C   0  0  0  0  0  0  0  0  0  0  0  0
  141.4430   78.5300  221.6760 C   0  0  0  0  0  0  0  0  0  0  0  0
  142.0210   79.8060  221.6020 C   0  0  0  0  0  0  0  0  0  0  0  0
  141.6190   80.8080  222.4940 C   0  0  0  0  0  0  0  0  0  0  0  0
  142.1770   82.0410  222.4230 F   0  0  0  0  0  0  0  0  0  0  0  0
  140.6410   80.5400  223.4580 C   0  0  0  0  0  0  0  0  0  0  0  0
  140.0600   79.2700  223.5370 C   0  0  0  0  0  0  0  0  0  0  0  0
  140.4560   78.2630  222.6490 C   0  0  0  0  0  0  0  0  0  0  0  0
  139.8940   77.0270  222.7240 N   0  0  0  0  0  0  0  0  0  0  0  0
  139.3050   70.4510  223.0990 N   0  0  0  0  0  0  0  0  0  0  0  0
  139.2140   69.1800  222.3640 C   0  0  0  0  0  0  0  0  0  0  0  0
  137.8080   68.5550  222.4910 C   0  0  0  0  0  0  0  0  0  0  0  0
  136.9590   69.1870  223.6090 C   0  0  0  0  0  0  0  0  0  0  0  0
  137.8040   69.4690  224.8540 C   0  0  0  0  0  0  0  0  0  0  0  0
  138.9660   70.4540  224.5460 C   0  0  1  0  0  0  0  0  0  0  0  0
  140.1890   70.2250  225.4960 C   0  0  0  0  0  0  0  0  0  0  0  0
  139.8100   69.3760  226.7350 C   0  0  0  0  0  0  0  0  0  0  0  0
  140.9050   69.4260  227.8030 C   0  0  0  0  0  0  0  0  0  0  0  0
  141.1020   70.8580  228.3420 C   0  0  0  0  0  0  0  0  0  0  0  0
  140.7120   71.9510  227.3270 C   0  0  0  0  0  0  0  0  0  0  0  0
  140.9930   71.5020  225.8870 C   0  0  0  0  0  0  0  0  0  0  0  0
  141.0397   71.7357  221.5884 H   0  0  0  0  0  0  0  0  0  0  0  0
  139.8007   72.4729  220.5151 H   0  0  0  0  0  0  0  0  0  0  0  0
  137.6990   74.1520  222.7690 H   0  0  0  0  0  0  0  0  0  0  0  0
  141.5304   75.4364  220.2205 H   0  0  0  0  0  0  0  0  0  0  0  0
  142.5913   77.6937  220.0355 H   0  0  0  0  0  0  0  0  0  0  0  0
  142.7892   80.0193  220.8441 H   0  0  0  0  0  0  0  0  0  0  0  0
  140.3280   81.3305  224.1560 H   0  0  0  0  0  0  0  0  0  0  0  0
  139.2921   79.0627  224.2968 H   0  0  0  0  0  0  0  0  0  0  0  0
  139.4287   69.3651  221.3011 H   0  0  0  0  0  0  0  0  0  0  0  0
  139.9446   68.4787  222.7935 H   0  0  0  0  0  0  0  0  0  0  0  0
  137.2799   68.6864  221.5350 H   0  0  0  0  0  0  0  0  0  0  0  0
  137.9452   67.4939  222.7465 H   0  0  0  0  0  0  0  0  0  0  0  0
  136.5315   70.1325  223.2439 H   0  0  0  0  0  0  0  0  0  0  0  0
  136.1614   68.4804  223.8822 H   0  0  0  0  0  0  0  0  0  0  0  0
  137.1602   69.9081  225.6304 H   0  0  0  0  0  0  0  0  0  0  0  0
  138.2401   68.5189  225.1962 H   0  0  0  0  0  0  0  0  0  0  0  0
  138.6241   71.4760  224.7663 H   0  0  0  0  0  0  0  0  0  0  0  0
  140.8952   69.6472  224.8816 H   0  0  0  0  0  0  0  0  0  0  0  0
  138.8746   69.7655  227.1631 H   0  0  0  0  0  0  0  0  0  0  0  0
  139.6873   68.3311  226.4140 H   0  0  0  0  0  0  0  0  0  0  0  0
  140.6224   68.7659  228.6363 H   0  0  0  0  0  0  0  0  0  0  0  0
  141.8493   69.0957  227.3457 H   0  0  0  0  0  0  0  0  0  0  0  0
  140.4820   70.9805  229.2423 H   0  0  0  0  0  0  0  0  0  0  0  0
  142.1738   70.9805  228.5568 H   0  0  0  0  0  0  0  0  0  0  0  0
  139.6390   72.1698  227.4310 H   0  0  0  0  0  0  0  0  0  0  0  0
  141.3145   72.8476  227.5344 H   0  0  0  0  0  0  0  0  0  0  0  0
  140.7164   72.3172  225.2023 H   0  0  0  0  0  0  0  0  0  0  0  0
  142.0636   71.2603  225.8135 H   0  0  0  0  0  0  0  0  0  0  0  0
  1  2  2  0
  2  3  1  0
  3  4  1  0
  4  5  2  0
  5  6  1  0
  5  7  1  0
  7  8  2  0
  8  9  1  0
  9 10  2  0
 10 11  1  0
 11 12  2  0
 12 13  1  0
 12 14  1  0
 14 15  2  0
 15 16  1  0
 16 17  2  0
  2 18  1  0
 18 19  1  0
 19 20  1  0
 20 21  1  0
 21 22  1  0
 22 23  1  0
 23 24  1  0
 24 25  1  0
 25 26  1  0
 26 27  1  0
 27 28  1  0
 28 29  1  0
 17  7  1  0
 23 18  1  0
 29 24  1  0
 16 10  1  0
  3 30  1  0
  3 31  1  0
  6 32  1  0
  8 33  1  0
  9 34  1  0
 11 35  1  0
 14 36  1  0
 15 37  1  0
 19 38  1  0
 19 39  1  0
 20 40  1  0
 20 41  1  0
 21 42  1  0
 21 43  1  0
 22 44  1  0
 22 45  1  0
 23 46  1  1
 24 47  1  0
 25 48  1  0
 25 49  1  0
 26 50  1  0
 26 51  1  0
 27 52  1  0
 27 53  1  0
 28 54  1  0
 28 55  1  0
 29 56  1  0
 29 57  1  0
M  END
>  <meeko>  (7) 
{"free_energy": -8.42, "intermolecular_energy": -10.51, "internal_energy": -1.7, "cluster_size": 7, "cluster_id": 2, "rank_in_cluster": 1}

$$$$

     RDKit          3D

 57 60  0  0  0  0  0  0  0  0999 V2000
  139.8550   73.0050  222.7070 O   0  0  0  0  0  0  0  0  0  0  0  0
  139.2200   71.9860  222.3210 C   0  0  0  0  0  0  0  0  0  0  0  0
  138.3260   72.1050  221.1270 C   0  0  0  0  0  0  0  0  0  0  0  0
  137.1150   72.8260  221.4940 N   0  0  0  0  0  0  0  0  0  0  0  0
  137.0460   73.7940  222.3600 C   0  0  0  0  0  0  0  0  0  0  0  0
  137.9290   74.8780  222.3180 O   0  0  0  0  0  0  0  0  0  0  0  0
  136.0190   73.7340  223.4160 C   0  0  0  0  0  0  0  0  0  0  0  0
  135.4000   74.9010  223.8920 C   0  0  0  0  0  0  0  0  0  0  0  0
  134.4430   74.8110  224.9060 C   0  0  0  0  0  0  0  0  0  0  0  0
  134.1110   73.5620  225.4430 C   0  0  0  0  0  0  0  0  0  0  0  0
  133.1570   73.4370  226.4640 C   0  0  0  0  0  0  0  0  0  0  0  0
  132.8480   72.1740  226.9820 C   0  0  0  0  0  0  0  0  0  0  0  0
  131.9270   72.0530  227.9680 F   0  0  0  0  0  0  0  0  0  0  0  0
  133.4880   71.0340  226.4820 C   0  0  0  0  0  0  0  0  0  0  0  0
  134.4400   71.1500  225.4640 C   0  0  0  0  0  0  0  0  0  0  0  0
  134.7530   72.4100  224.9410 C   0  0  0  0  0  0  0  0  0  0  0  0
  135.6790   72.5270  223.9520 N   0  0  0  0  0  0  0  0  0  0  0  0
  139.3610   70.7430  223.0440 N   0  0  0  0  0  0  0  0  0  0  0  0
  139.1860   69.5180  222.2480 C   0  0  0  0  0  0  0  0  0  0  0  0
  137.7290   69.0110  222.3100 C   0  0  0  0  0  0  0  0  0  0  0  0
  136.9040   69.6610  223.4340 C   0  0  0  0  0  0  0  0  0  0  0  0
  137.7330   69.8140  224.7120 C   0  0  0  0  0  0  0  0  0  0  0  0
  138.9820   70.7090  224.4810 C   0  0  1  0  0  0  0  0  0  0  0  0
  140.1540   70.3340  225.4490 C   0  0  0  0  0  0  0  0  0  0  0  0
  139.6660   69.4810  226.6470 C   0  0  0  0  0  0  0  0  0  0  0  0
  140.7320   69.3920  227.7410 C   0  0  0  0  0  0  0  0  0  0  0  0
  141.0470   70.7800  228.3370 C   0  0  0  0  0  0  0  0  0  0  0  0
  140.7860   71.9390  227.3550 C   0  0  0  0  0  0  0  0  0  0  0  0
  141.0620   71.5170  225.9060 C   0  0  0  0  0  0  0  0  0  0  0  0
  138.8506   72.6522  220.3299 H   0  0  0  0  0  0  0  0  0  0  0  0
  138.0587   71.0999  220.7689 H   0  0  0  0  0  0  0  0  0  0  0  0
  138.8090   74.8940  222.8160 H   0  0  0  0  0  0  0  0  0  0  0  0
  135.6670   75.8806  223.4689 H   0  0  0  0  0  0  0  0  0  0  0  0
  133.9513   75.7204  225.2817 H   0  0  0  0  0  0  0  0  0  0  0  0
  132.6519   74.3315  226.8574 H   0  0  0  0  0  0  0  0  0  0  0  0
  133.2413   70.0432  226.8912 H   0  0  0  0  0  0  0  0  0  0  0  0
  134.9422   70.2520  225.0748 H   0  0  0  0  0  0  0  0  0  0  0  0
  139.4469   69.7310  221.2008 H   0  0  0  0  0  0  0  0  0  0  0  0
  139.8424   68.7385  222.6622 H   0  0  0  0  0  0  0  0  0  0  0  0
  137.2421   69.2304  221.3483 H   0  0  0  0  0  0  0  0  0  0  0  0
  137.7690   67.9317  222.5186 H   0  0  0  0  0  0  0  0  0  0  0  0
  136.5676   70.6548  223.1034 H   0  0  0  0  0  0  0  0  0  0  0  0
  136.0426   69.0129  223.6532 H   0  0  0  0  0  0  0  0  0  0  0  0
  137.1058   70.2710  225.4916 H   0  0  0  0  0  0  0  0  0  0  0  0
  138.0777   68.8157  225.0196 H   0  0  0  0  0  0  0  0  0  0  0  0
  138.7209   71.7452  224.7421 H   0  0  0  0  0  0  0  0  0  0  0  0
  140.8198   69.7151  224.8296 H   0  0  0  0  0  0  0  0  0  0  0  0
  138.7593   69.9405  227.0675 H   0  0  0  0  0  0  0  0  0  0  0  0
  139.4565   68.4637  226.2847 H   0  0  0  0  0  0  0  0  0  0  0  0
  140.3674   68.7330  228.5427 H   0  0  0  0  0  0  0  0  0  0  0  0
  141.6534   68.9910  227.2936 H   0  0  0  0  0  0  0  0  0  0  0  0
  140.4182   70.9285  229.2273 H   0  0  0  0  0  0  0  0  0  0  0  0
  142.1197   70.7943  228.5799 H   0  0  0  0  0  0  0  0  0  0  0  0
  139.7353   72.2527  227.4426 H   0  0  0  0  0  0  0  0  0  0  0  0
  141.4630   72.7678  227.6094 H   0  0  0  0  0  0  0  0  0  0  0  0
  140.8794   72.3780  225.2462 H   0  0  0  0  0  0  0  0  0  0  0  0
  142.1074   71.1798  225.8478 H   0  0  0  0  0  0  0  0  0  0  0  0
  1  2  2  0
  2  3  1  0
  3  4  1  0
  4  5  2  0
  5  6  1  0
  5  7  1  0
  7  8  2  0
  8  9  1  0
  9 10  2  0
 10 11  1  0
 11 12  2  0
 12 13  1  0
 12 14  1  0
 14 15  2  0
 15 16  1  0
 16 17  2  0
  2 18  1  0
 18 19  1  0
 19 20  1  0
 20 21  1  0
 21 22  1  0
 22 23  1  0
 23 24  1  0
 24 25  1  0
 25 26  1  0
 26 27  1  0
 27 28  1  0
 28 29  1  0
 17  7  1  0
 23 18  1  0
 29 24  1  0
 16 10  1  0
  3 30  1  0
  3 31  1  0
  6 32  1  0
  8 33  1  0
  9 34  1  0
 11 35  1  0
 14 36  1  0
 15 37  1  0
 19 38  1  0
 19 39  1  0
 20 40  1  0
 20 41  1  0
 21 42  1  0
 21 43  1  0
 22 44  1  0
 22 45  1  0
 23 46  1  1
 24 47  1  0
 25 48  1  0
 25 49  1  0
 26 50  1  0
 26 51  1  0
 27 52  1  0
 27 53  1  0
 28 54  1  0
 28 55  1  0
 29 56  1  0
 29 57  1  0
M  END
>  <meeko>  (8) 
{"free_energy": -6.92, "intermolecular_energy": -9.01, "internal_energy": -2.67, "cluster_size": 2, "cluster_id": 4, "rank_in_cluster": 2}

$$$$

     RDKit          3D

 57 60  0  0  0  0  0  0  0  0999 V2000
  138.8670   72.0910  221.4590 O   0  0  0  0  0  0  0  0  0  0  0  0
  139.7970   71.7320  222.2310 C   0  0  0  0  0  0  0  0  0  0  0  0
  141.0250   72.5840  222.3230 C   0  0  0  0  0  0  0  0  0  0  0  0
  140.8370   73.7970  221.5390 N   0  0  0  0  0  0  0  0  0  0  0  0
  140.0570   74.7880  221.8590 C   0  0  0  0  0  0  0  0  0  0  0  0
  138.7490   74.5760  222.3050 O   0  0  0  0  0  0  0  0  0  0  0  0
  140.5690   76.1660  221.7330 C   0  0  0  0  0  0  0  0  0  0  0  0
  141.3420   76.5530  220.6270 C   0  0  0  0  0  0  0  0  0  0  0  0
  141.8270   77.8610  220.5470 C   0  0  0  0  0  0  0  0  0  0  0  0
  141.5420   78.7740  221.5680 C   0  0  0  0  0  0  0  0  0  0  0  0
  142.0150   80.0940  221.5200 C   0  0  0  0  0  0  0  0  0  0  0  0
  141.7150   80.9830  222.5590 C   0  0  0  0  0  0  0  0  0  0  0  0
  142.1730   82.2580  222.5130 F   0  0  0  0  0  0  0  0  0  0  0  0
  140.9420   80.5580  223.6460 C   0  0  0  0  0  0  0  0  0  0  0  0
  140.4660   79.2440  223.7010 C   0  0  0  0  0  0  0  0  0  0  0  0
  140.7620   78.3500  222.6650 C   0  0  0  0  0  0  0  0  0  0  0  0
  140.3020   77.0710  222.7160 N   0  0  0  0  0  0  0  0  0  0  0  0
  139.6610   70.5100  222.9910 N   0  0  0  0  0  0  0  0  0  0  0  0
  139.2030   69.3360  222.2330 C   0  0  0  0  0  0  0  0  0  0  0  0
  137.6700   69.1740  222.3180 C   0  0  0  0  0  0  0  0  0  0  0  0
  137.0280   70.0270  223.4270 C   0  0  0  0  0  0  0  0  0  0  0  0
  137.8850   70.0240  224.6950 C   0  0  0  0  0  0  0  0  0  0  0  0
  139.3020   70.6050  224.4300 C   0  0  1  0  0  0  0  0  0  0  0  0
  140.3690   70.0020  225.4030 C   0  0  0  0  0  0  0  0  0  0  0  0
  139.9190   68.6380  225.9840 C   0  0  0  0  0  0  0  0  0  0  0  0
  140.8000   68.2140  227.1620 C   0  0  0  0  0  0  0  0  0  0  0  0
  140.6900   69.2080  228.3360 C   0  0  0  0  0  0  0  0  0  0  0  0
  140.3170   70.6370  227.8930 C   0  0  0  0  0  0  0  0  0  0  0  0
  140.8980   70.9630  226.5110 C   0  0  0  0  0  0  0  0  0  0  0  0
  141.2069   72.8519  223.3742 H   0  0  0  0  0  0  0  0  0  0  0  0
  141.8878   72.0254  221.9311 H   0  0  0  0  0  0  0  0  0  0  0  0
  138.4600   73.7380  222.7930 H   0  0  0  0  0  0  0  0  0  0  0  0
  141.5647   75.8307  219.8278 H   0  0  0  0  0  0  0  0  0  0  0  0
  142.4319   78.1723  219.6826 H   0  0  0  0  0  0  0  0  0  0  0  0
  142.6215   80.4303  220.6661 H   0  0  0  0  0  0  0  0  0  0  0  0
  140.7081   81.2601  224.4599 H   0  0  0  0  0  0  0  0  0  0  0  0
  139.8598   78.9134  224.5573 H   0  0  0  0  0  0  0  0  0  0  0  0
  139.4924   69.4556  221.1785 H   0  0  0  0  0  0  0  0  0  0  0  0
  139.6706   68.4397  222.6667 H   0  0  0  0  0  0  0  0  0  0  0  0
  137.2336   69.4704  221.3528 H   0  0  0  0  0  0  0  0  0  0  0  0
  137.4667   68.1201  222.5587 H   0  0  0  0  0  0  0  0  0  0  0  0
  136.9223   71.0614  223.0680 H   0  0  0  0  0  0  0  0  0  0  0  0
  136.0448   69.5981  223.6706 H   0  0  0  0  0  0  0  0  0  0  0  0
  137.3873   70.6337  225.4635 H   0  0  0  0  0  0  0  0  0  0  0  0
  137.9977   68.9828  225.0313 H   0  0  0  0  0  0  0  0  0  0  0  0
  139.2867   71.6806  224.6600 H   0  0  0  0  0  0  0  0  0  0  0  0
  141.2459   69.8339  224.7605 H   0  0  0  0  0  0  0  0  0  0  0  0
  138.8776   68.7217  226.3280 H   0  0  0  0  0  0  0  0  0  0  0  0
  140.0094   67.8785  225.1934 H   0  0  0  0  0  0  0  0  0  0  0  0
  140.4827   67.2184  227.5056 H   0  0  0  0  0  0  0  0  0  0  0  0
  141.8460   68.1957  226.8219 H   0  0  0  0  0  0  0  0  0  0  0  0
  139.9174   68.8448  229.0297 H   0  0  0  0  0  0  0  0  0  0  0  0
  141.6809   69.2624  228.8104 H   0  0  0  0  0  0  0  0  0  0  0  0
  139.2213   70.7242  227.8505 H   0  0  0  0  0  0  0  0  0  0  0  0
  140.7365   71.3464  228.6216 H   0  0  0  0  0  0  0  0  0  0  0  0
  140.6218   71.9942  226.2458 H   0  0  0  0  0  0  0  0  0  0  0  0
  141.9897   70.8406  226.5684 H   0  0  0  0  0  0  0  0  0  0  0  0
  1  2  2  0
  2  3  1  0
  3  4  1  0
  4  5  2  0
  5  6  1  0
  5  7  1  0
  7  8  2  0
  8  9  1  0
  9 10  2  0
 10 11  1  0
 11 12  2  0
 12 13  1  0
 12 14  1  0
 14 15  2  0
 15 16  1  0
 16 17  2  0
  2 18  1  0
 18 19  1  0
 19 20  1  0
 20 21  1  0
 21 22  1  0
 22 23  1  0
 23 24  1  0
 24 25  1  0
 25 26  1  0
 26 27  1  0
 27 28  1  0
 28 29  1  0
 17  7  1  0
 23 18  1  0
 29 24  1  0
 16 10  1  0
  3 30  1  0
  3 31  1  0
  6 32  1  0
  8 33  1  0
  9 34  1  0
 11 35  1  0
 14 36  1  0
 15 37  1  0
 19 38  1  0
 19 39  1  0
 20 40  1  0
 20 41  1  0
 21 42  1  0
 21 43  1  0
 22 44  1  0
 22 45  1  0
 23 46  1  1
 24 47  1  0
 25 48  1  0
 25 49  1  0
 26 50  1  0
 26 51  1  0
 27 52  1  0
 27 53  1  0
 28 54  1  0
 28 55  1  0
 29 56  1  0
 29 57  1  0
M  END
>  <meeko>  (9) 
{"free_energy": -8.18, "intermolecular_energy": -10.27, "internal_energy": -1.64, "cluster_size": 7, "cluster_id": 2, "rank_in_cluster": 2}

$$$$

     RDKit          3D

 57 60  0  0  0  0  0  0  0  0999 V2000
  143.2510   71.5220  221.5880 O   0  0  0  0  0  0  0  0  0  0  0  0
  142.5550   71.9410  220.6240 C   0  0  0  0  0  0  0  0  0  0  0  0
  141.2180   71.3150  220.3780 C   0  0  0  0  0  0  0  0  0  0  0  0
  140.1660   72.2150  220.8300 N   0  0  0  0  0  0  0  0  0  0  0  0
  140.0070   72.6370  222.0510 C   0  0  0  0  0  0  0  0  0  0  0  0
  139.8690   73.9970  222.3430 O   0  0  0  0  0  0  0  0  0  0  0  0
  139.9870   71.6510  223.1480 C   0  0  0  0  0  0  0  0  0  0  0  0
  139.4130   70.3820  222.9700 C   0  0  0  0  0  0  0  0  0  0  0  0
  139.3930   69.4780  224.0350 C   0  0  0  0  0  0  0  0  0  0  0  0
  139.9410   69.8420  225.2700 C   0  0  0  0  0  0  0  0  0  0  0  0
  139.9360   68.9590  226.3600 C   0  0  0  0  0  0  0  0  0  0  0  0
  140.4900   69.3540  227.5820 C   0  0  0  0  0  0  0  0  0  0  0  0
  140.4850   68.5010  228.6360 F   0  0  0  0  0  0  0  0  0  0  0  0
  141.0520   70.6280  227.7200 C   0  0  0  0  0  0  0  0  0  0  0  0
  141.0620   71.5140  226.6380 C   0  0  0  0  0  0  0  0  0  0  0  0
  140.5100   71.1260  225.4120 C   0  0  0  0  0  0  0  0  0  0  0  0
  140.5170   71.9850  224.3580 N   0  0  0  0  0  0  0  0  0  0  0  0
  143.0670   72.9970  219.7810 N   0  0  0  0  0  0  0  0  0  0  0  0
  143.9770   72.5710  218.7070 C   0  0  0  0  0  0  0  0  0  0  0  0
  145.4530   72.6560  219.1520 C   0  0  0  0  0  0  0  0  0  0  0  0
  145.6550   73.4780  220.4370 C   0  0  0  0  0  0  0  0  0  0  0  0
  144.7630   74.7230  220.4450 C   0  0  0  0  0  0  0  0  0  0  0  0
  143.2570   74.3480  220.3710 C   0  0  1  0  0  0  0  0  0  0  0  0
  142.4110   75.4750  219.6890 C   0  0  0  0  0  0  0  0  0  0  0  0
  143.2980   76.6370  219.1770 C   0  0  0  0  0  0  0  0  0  0  0  0
  142.4570   77.8620  218.8100 C   0  0  0  0  0  0  0  0  0  0  0  0
  141.7210   78.4300  220.0400 C   0  0  0  0  0  0  0  0  0  0  0  0
  141.4360   77.3710  221.1240 C   0  0  0  0  0  0  0  0  0  0  0  0
  141.1850   75.9900  220.5030 C   0  0  0  0  0  0  0  0  0  0  0  0
  141.0969   71.1216  219.3019 H   0  0  0  0  0  0  0  0  0  0  0  0
  141.1510   70.3674  220.9326 H   0  0  0  0  0  0  0  0  0  0  0  0
  139.2660   74.3460  223.0780 H   0  0  0  0  0  0  0  0  0  0  0  0
  138.9816   70.1013  221.9978 H   0  0  0  0  0  0  0  0  0  0  0  0
  138.9470   68.4812  223.9028 H   0  0  0  0  0  0  0  0  0  0  0  0
  139.4965   67.9562  226.2537 H   0  0  0  0  0  0  0  0  0  0  0  0
  141.4874   70.9337  228.6828 H   0  0  0  0  0  0  0  0  0  0  0  0
  141.5035   72.5152  226.7506 H   0  0  0  0  0  0  0  0  0  0  0  0
  143.7452   71.5312  218.4330 H   0  0  0  0  0  0  0  0  0  0  0  0
  143.8356   73.2422  217.8471 H   0  0  0  0  0  0  0  0  0  0  0  0
  145.8238   71.6355  219.3284 H   0  0  0  0  0  0  0  0  0  0  0  0
  146.0065   73.1651  218.3492 H   0  0  0  0  0  0  0  0  0  0  0  0
  145.4049   72.8520  221.3062 H   0  0  0  0  0  0  0  0  0  0  0  0
  146.7052   73.8021  220.4813 H   0  0  0  0  0  0  0  0  0  0  0  0
  144.9454   75.2869  221.3717 H   0  0  0  0  0  0  0  0  0  0  0  0
  145.0105   75.3293  219.5612 H   0  0  0  0  0  0  0  0  0  0  0  0
  142.8638   74.2797  221.3961 H   0  0  0  0  0  0  0  0  0  0  0  0
  141.9583   74.9753  218.8199 H   0  0  0  0  0  0  0  0  0  0  0  0
  144.0121   76.9164  219.9657 H   0  0  0  0  0  0  0  0  0  0  0  0
  143.8266   76.2970  218.2742 H   0  0  0  0  0  0  0  0  0  0  0  0
  143.1178   78.6391  218.3983 H   0  0  0  0  0  0  0  0  0  0  0  0
  141.7047   77.5551  218.0684 H   0  0  0  0  0  0  0  0  0  0  0  0
  142.3411   79.2237  220.4820 H   0  0  0  0  0  0  0  0  0  0  0  0
  140.7489   78.8087  219.6914 H   0  0  0  0  0  0  0  0  0  0  0  0
  142.3018   77.3080  221.7996 H   0  0  0  0  0  0  0  0  0  0  0  0
  140.5331   77.6729  221.6751 H   0  0  0  0  0  0  0  0  0  0  0  0
  140.9697   75.2735  221.3094 H   0  0  0  0  0  0  0  0  0  0  0  0
  140.3359   76.0822  219.8099 H   0  0  0  0  0  0  0  0  0  0  0  0
  1  2  2  0
  2  3  1  0
  3  4  1  0
  4  5  2  0
  5  6  1  0
  5  7  1  0
  7  8  2  0
  8  9  1  0
  9 10  2  0
 10 11  1  0
 11 12  2  0
 12 13  1  0
 12 14  1  0
 14 15  2  0
 15 16  1  0
 16 17  2  0
  2 18  1  0
 18 19  1  0
 19 20  1  0
 20 21  1  0
 21 22  1  0
 22 23  1  0
 23 24  1  0
 24 25  1  0
 25 26  1  0
 26 27  1  0
 27 28  1  0
 28 29  1  0
 17  7  1  0
 23 18  1  0
 29 24  1  0
 16 10  1  0
  3 30  1  0
  3 31  1  0
  6 32  1  0
  8 33  1  0
  9 34  1  0
 11 35  1  0
 14 36  1  0
 15 37  1  0
 19 38  1  0
 19 39  1  0
 20 40  1  0
 20 41  1  0
 21 42  1  0
 21 43  1  0
 22 44  1  0
 22 45  1  0
 23 46  1  1
 24 47  1  0
 25 48  1  0
 25 49  1  0
 26 50  1  0
 26 51  1  0
 27 52  1  0
 27 53  1  0
 28 54  1  0
 28 55  1  0
 29 56  1  0
 29 57  1  0
M  END
>  <meeko>  (10) 
{"free_energy": -7.83, "intermolecular_energy": -9.92, "internal_energy": -1.71, "cluster_size": 5, "cluster_id": 3, "rank_in_cluster": 3}

$$$$

     RDKit          3D

 57 60  0  0  0  0  0  0  0  0999 V2000
  139.7910   73.0030  222.7280 O   0  0  0  0  0  0  0  0  0  0  0  0
  139.1910   71.9560  222.3660 C   0  0  0  0  0  0  0  0  0  0  0  0
  138.2640   72.0280  221.1920 C   0  0  0  0  0  0  0  0  0  0  0  0
  136.9990   72.6200  221.6050 N   0  0  0  0  0  0  0  0  0  0  0  0
  136.8650   73.6080  222.4400 C   0  0  0  0  0  0  0  0  0  0  0  0
  137.6680   74.7500  222.3570 O   0  0  0  0  0  0  0  0  0  0  0  0
  135.8490   73.5100  223.5040 C   0  0  0  0  0  0  0  0  0  0  0  0
  135.2020   72.2940  223.7770 C   0  0  0  0  0  0  0  0  0  0  0  0
  134.2310   72.2380  224.7800 C   0  0  0  0  0  0  0  0  0  0  0  0
  133.9060   73.3920  225.5020 C   0  0  0  0  0  0  0  0  0  0  0  0
  132.9340   73.3710  226.5130 C   0  0  0  0  0  0  0  0  0  0  0  0
  132.6310   74.5430  227.2160 C   0  0  0  0  0  0  0  0  0  0  0  0
  131.6910   74.5230  228.1920 F   0  0  0  0  0  0  0  0  0  0  0  0
  133.2960   75.7360  226.9130 C   0  0  0  0  0  0  0  0  0  0  0  0
  134.2670   75.7650  225.9060 C   0  0  0  0  0  0  0  0  0  0  0  0
  134.5760   74.5970  225.2000 C   0  0  0  0  0  0  0  0  0  0  0  0
  135.5190   74.6210  224.2200 N   0  0  0  0  0  0  0  0  0  0  0  0
  139.4000   70.7260  223.0940 N   0  0  0  0  0  0  0  0  0  0  0  0
  139.3410   69.4930  222.2940 C   0  0  0  0  0  0  0  0  0  0  0  0
  137.9250   68.8790  222.3100 C   0  0  0  0  0  0  0  0  0  0  0  0
  137.0190   69.4640  223.4070 C   0  0  0  0  0  0  0  0  0  0  0  0
  137.7940   69.6760  224.7100 C   0  0  0  0  0  0  0  0  0  0  0  0
  138.9790   70.6620  224.5180 C   0  0  1  0  0  0  0  0  0  0  0  0
  140.1440   70.3740  225.5230 C   0  0  0  0  0  0  0  0  0  0  0  0
  139.6320   69.7220  226.8320 C   0  0  0  0  0  0  0  0  0  0  0  0
  140.7060   69.7390  227.9220 C   0  0  0  0  0  0  0  0  0  0  0  0
  141.0900   71.1810  228.3140 C   0  0  0  0  0  0  0  0  0  0  0  0
  140.8710   72.2010  227.1790 C   0  0  0  0  0  0  0  0  0  0  0  0
  141.1100   71.5650  225.8030 C   0  0  0  0  0  0  0  0  0  0  0  0
  138.7181   72.6470  220.4042 H   0  0  0  0  0  0  0  0  0  0  0  0
  138.0843   71.0140  220.8053 H   0  0  0  0  0  0  0  0  0  0  0  0
  138.5740   74.8220  222.8020 H   0  0  0  0  0  0  0  0  0  0  0  0
  135.4582   71.3905  223.2043 H   0  0  0  0  0  0  0  0  0  0  0  0
  133.7226   71.2881  225.0019 H   0  0  0  0  0  0  0  0  0  0  0  0
  132.4101   72.4341  226.7533 H   0  0  0  0  0  0  0  0  0  0  0  0
  133.0547   76.6544  227.4683 H   0  0  0  0  0  0  0  0  0  0  0  0
  134.7870   76.7051  225.6695 H   0  0  0  0  0  0  0  0  0  0  0  0
  139.6182   69.7265  221.2554 H   0  0  0  0  0  0  0  0  0  0  0  0
  140.0397   68.7637  222.7297 H   0  0  0  0  0  0  0  0  0  0  0  0
  137.4538   69.0633  221.3333 H   0  0  0  0  0  0  0  0  0  0  0  0
  138.0385   67.8053  222.5203 H   0  0  0  0  0  0  0  0  0  0  0  0
  136.6202   70.4305  223.0654 H   0  0  0  0  0  0  0  0  0  0  0  0
  136.2016   68.7534  223.5994 H   0  0  0  0  0  0  0  0  0  0  0  0
  137.1104   70.0834  225.4694 H   0  0  0  0  0  0  0  0  0  0  0  0
  138.2026   68.7056  225.0285 H   0  0  0  0  0  0  0  0  0  0  0  0
  138.6331   71.6755  224.7695 H   0  0  0  0  0  0  0  0  0  0  0  0
  140.7740   69.6441  224.9935 H   0  0  0  0  0  0  0  0  0  0  0  0
  138.7520   70.2777  227.1881 H   0  0  0  0  0  0  0  0  0  0  0  0
  139.3724   68.6746  226.6183 H   0  0  0  0  0  0  0  0  0  0  0  0
  140.3217   69.2171  228.8108 H   0  0  0  0  0  0  0  0  0  0  0  0
  141.6031   69.2368  227.5309 H   0  0  0  0  0  0  0  0  0  0  0  0
  140.4784   71.4827  229.1771 H   0  0  0  0  0  0  0  0  0  0  0  0
  142.1649   71.1796  228.5474 H   0  0  0  0  0  0  0  0  0  0  0  0
  139.8371   72.5735  227.2267 H   0  0  0  0  0  0  0  0  0  0  0  0
  141.5882   73.0247  227.3097 H   0  0  0  0  0  0  0  0  0  0  0  0
  140.9595   72.3315  225.0286 H   0  0  0  0  0  0  0  0  0  0  0  0
  142.1379   71.1737  225.7883 H   0  0  0  0  0  0  0  0  0  0  0  0
  1  2  2  0
  2  3  1  0
  3  4  1  0
  4  5  2  0
  5  6  1  0
  5  7  1  0
  7  8  2  0
  8  9  1  0
  9 10  2  0
 10 11  1  0
 11 12  2  0
 12 13  1  0
 12 14  1  0
 14 15  2  0
 15 16  1  0
 16 17  2  0
  2 18  1  0
 18 19  1  0
 19 20  1  0
 20 21  1  0
 21 22  1  0
 22 23  1  0
 23 24  1  0
 24 25  1  0
 25 26  1  0
 26 27  1  0
 27 28  1  0
 28 29  1  0
 17  7  1  0
 23 18  1  0
 29 24  1  0
 16 10  1  0
  3 30  1  0
  3 31  1  0
  6 32  1  0
  8 33  1  0
  9 34  1  0
 11 35  1  0
 14 36  1  0
 15 37  1  0
 19 38  1  0
 19 39  1  0
 20 40  1  0
 20 41  1  0
 21 42  1  0
 21 43  1  0
 22 44  1  0
 22 45  1  0
 23 46  1  1
 24 47  1  0
 25 48  1  0
 25 49  1  0
 26 50  1  0
 26 51  1  0
 27 52  1  0
 27 53  1  0
 28 54  1  0
 28 55  1  0
 29 56  1  0
 29 57  1  0
M  END
>  <meeko>  (11) 
{"free_energy": -7.14, "intermolecular_energy": -9.23, "internal_energy": -2.43, "cluster_size": 2, "cluster_id": 4, "rank_in_cluster": 1}

$$$$

     RDKit          3D

 57 60  0  0  0  0  0  0  0  0999 V2000
  139.0850   71.0440  220.6820 O   0  0  0  0  0  0  0  0  0  0  0  0
  139.7920   71.1300  221.7230 C   0  0  0  0  0  0  0  0  0  0  0  0
  140.8330   72.2030  221.7980 C   0  0  0  0  0  0  0  0  0  0  0  0
  140.2670   73.3910  222.4210 N   0  0  0  0  0  0  0  0  0  0  0  0
  139.2980   74.1090  221.9330 C   0  0  0  0  0  0  0  0  0  0  0  0
  138.3150   73.5510  221.1100 O   0  0  0  0  0  0  0  0  0  0  0  0
  139.2490   75.5490  222.2500 C   0  0  0  0  0  0  0  0  0  0  0  0
  138.0230   76.2130  222.4160 C   0  0  0  0  0  0  0  0  0  0  0  0
  138.0110   77.5810  222.6970 C   0  0  0  0  0  0  0  0  0  0  0  0
  139.2170   78.2810  222.8090 C   0  0  0  0  0  0  0  0  0  0  0  0
  139.2400   79.6560  223.0890 C   0  0  0  0  0  0  0  0  0  0  0  0
  140.4630   80.3280  223.1930 C   0  0  0  0  0  0  0  0  0  0  0  0
  140.4860   81.6560  223.4620 F   0  0  0  0  0  0  0  0  0  0  0  0
  141.6650   79.6310  223.0190 C   0  0  0  0  0  0  0  0  0  0  0  0
  141.6500   78.2600  222.7410 C   0  0  0  0  0  0  0  0  0  0  0  0
  140.4310   77.5820  222.6370 C   0  0  0  0  0  0  0  0  0  0  0  0
  140.4120   76.2490  222.3650 N   0  0  0  0  0  0  0  0  0  0  0  0
  139.5890   70.1910  222.8020 N   0  0  0  0  0  0  0  0  0  0  0  0
  139.0240   68.8890  222.4160 C   0  0  0  0  0  0  0  0  0  0  0  0
  137.4860   68.8790  222.5540 C   0  0  0  0  0  0  0  0  0  0  0  0
  136.9400   70.0600  223.3760 C   0  0  0  0  0  0  0  0  0  0  0  0
  137.8310   70.3520  224.5860 C   0  0  0  0  0  0  0  0  0  0  0  0
  139.2780   70.7210  224.1550 C   0  0  1  0  0  0  0  0  0  0  0  0
  140.3260   70.3390  225.2540 C   0  0  0  0  0  0  0  0  0  0  0  0
  139.7140   69.4290  226.3480 C   0  0  0  0  0  0  0  0  0  0  0  0
  140.6330   69.3250  227.5680 C   0  0  0  0  0  0  0  0  0  0  0  0
  140.8270   70.6960  228.2470 C   0  0  0  0  0  0  0  0  0  0  0  0
  140.6600   71.8850  227.2800 C   0  0  0  0  0  0  0  0  0  0  0  0
  141.1330   71.5250  225.8650 C   0  0  0  0  0  0  0  0  0  0  0  0
  141.6840   71.8460  222.3966 H   0  0  0  0  0  0  0  0  0  0  0  0
  141.1750   72.4513  220.7824 H   0  0  0  0  0  0  0  0  0  0  0  0
  138.4250   72.6590  220.6440 H   0  0  0  0  0  0  0  0  0  0  0  0
  137.0772   75.6588  222.3252 H   0  0  0  0  0  0  0  0  0  0  0  0
  137.0544   78.1074  222.8301 H   0  0  0  0  0  0  0  0  0  0  0  0
  138.2970   80.2053  223.2267 H   0  0  0  0  0  0  0  0  0  0  0  0
  142.6242   80.1632  223.1012 H   0  0  0  0  0  0  0  0  0  0  0  0
  142.5960   77.7157  222.6043 H   0  0  0  0  0  0  0  0  0  0  0  0
  139.2908   68.6791  221.3697 H   0  0  0  0  0  0  0  0  0  0  0  0
  139.4367   68.1202  223.0858 H   0  0  0  0  0  0  0  0  0  0  0  0
  137.0450   68.9211  221.5472 H   0  0  0  0  0  0  0  0  0  0  0  0
  137.2132   67.9570  223.0882 H   0  0  0  0  0  0  0  0  0  0  0  0
  136.8995   70.9539  222.7363 H   0  0  0  0  0  0  0  0  0  0  0  0
  135.9356   69.7966  223.7389 H   0  0  0  0  0  0  0  0  0  0  0  0
  137.4015   71.1924  225.1511 H   0  0  0  0  0  0  0  0  0  0  0  0
  137.8774   69.4447  225.2061 H   0  0  0  0  0  0  0  0  0  0  0  0
  139.3465   71.8152  224.0654 H   0  0  0  0  0  0  0  0  0  0  0  0
  141.0838   69.7609  224.7048 H   0  0  0  0  0  0  0  0  0  0  0  0
  138.7474   69.8490  226.6631 H   0  0  0  0  0  0  0  0  0  0  0  0
  139.5836   68.4214  225.9265 H   0  0  0  0  0  0  0  0  0  0  0  0
  140.1880   68.6270  228.2924 H   0  0  0  0  0  0  0  0  0  0  0  0
  141.6159   68.9645  227.2304 H   0  0  0  0  0  0  0  0  0  0  0  0
  140.0848   70.7946  229.0528 H   0  0  0  0  0  0  0  0  0  0  0  0
  141.8587   70.7280  228.6272 H   0  0  0  0  0  0  0  0  0  0  0  0
  139.5979   72.1687  227.2413 H   0  0  0  0  0  0  0  0  0  0  0  0
  141.2733   72.7205  227.6486 H   0  0  0  0  0  0  0  0  0  0  0  0
  141.0123   72.4057  225.2171 H   0  0  0  0  0  0  0  0  0  0  0  0
  142.1865   71.2158  225.9313 H   0  0  0  0  0  0  0  0  0  0  0  0
  1  2  2  0
  2  3  1  0
  3  4  1  0
  4  5  2  0
  5  6  1  0
  5  7  1  0
  7  8  2  0
  8  9  1  0
  9 10  2  0
 10 11  1  0
 11 12  2  0
 12 13  1  0
 12 14  1  0
 14 15  2  0
 15 16  1  0
 16 17  2  0
  2 18  1  0
 18 19  1  0
 19 20  1  0
 20 21  1  0
 21 22  1  0
 22 23  1  0
 23 24  1  0
 24 25  1  0
 25 26  1  0
 26 27  1  0
 27 28  1  0
 28 29  1  0
 17  7  1  0
 23 18  1  0
 29 24  1  0
 16 10  1  0
  3 30  1  0
  3 31  1  0
  6 32  1  0
  8 33  1  0
  9 34  1  0
 11 35  1  0
 14 36  1  0
 15 37  1  0
 19 38  1  0
 19 39  1  0
 20 40  1  0
 20 41  1  0
 21 42  1  0
 21 43  1  0
 22 44  1  0
 22 45  1  0
 23 46  1  6
 24 47  1  0
 25 48  1  0
 25 49  1  0
 26 50  1  0
 26 51  1  0
 27 52  1  0
 27 53  1  0
 28 54  1  0
 28 55  1  0
 29 56  1  0
 29 57  1  0
M  END
>  <meeko>  (12) 
{"free_energy": -7.41, "intermolecular_energy": -9.5, "internal_energy": -1.99, "cluster_size": 7, "cluster_id": 2, "rank_in_cluster": 7}

$$$$

     RDKit          3D

 57 60  0  0  0  0  0  0  0  0999 V2000
  139.3690   75.2510  222.7030 O   0  0  0  0  0  0  0  0  0  0  0  0
  140.0740   75.2980  221.6590 C   0  0  0  0  0  0  0  0  0  0  0  0
  140.8020   74.0630  221.2280 C   0  0  0  0  0  0  0  0  0  0  0  0
  140.7620   73.0740  222.2960 N   0  0  0  0  0  0  0  0  0  0  0  0
  139.6850   72.5160  222.7670 C   0  0  0  0  0  0  0  0  0  0  0  0
  138.4130   72.8850  222.3180 O   0  0  0  0  0  0  0  0  0  0  0  0
  139.8170   71.4790  223.8070 C   0  0  0  0  0  0  0  0  0  0  0  0
  139.4220   70.1540  223.5640 C   0  0  0  0  0  0  0  0  0  0  0  0
  139.5420   69.2000  224.5770 C   0  0  0  0  0  0  0  0  0  0  0  0
  140.0530   69.5690  225.8260 C   0  0  0  0  0  0  0  0  0  0  0  0
  140.1850   68.6360  226.8660 C   0  0  0  0  0  0  0  0  0  0  0  0
  140.6970   69.0380  228.1050 C   0  0  0  0  0  0  0  0  0  0  0  0
  140.8240   68.1370  229.1090 F   0  0  0  0  0  0  0  0  0  0  0  0
  141.0790   70.3690  228.3090 C   0  0  0  0  0  0  0  0  0  0  0  0
  140.9510   71.3050  227.2780 C   0  0  0  0  0  0  0  0  0  0  0  0
  140.4410   70.9100  226.0360 C   0  0  0  0  0  0  0  0  0  0  0  0
  140.3130   71.8170  225.0310 N   0  0  0  0  0  0  0  0  0  0  0  0
  140.1710   76.5350  220.9190 N   0  0  0  0  0  0  0  0  0  0  0  0
  139.5890   76.5180  219.5690 C   0  0  0  0  0  0  0  0  0  0  0  0
  140.6510   76.1770  218.5020 C   0  0  0  0  0  0  0  0  0  0  0  0
  142.0940   76.2840  219.0220 C   0  0  0  0  0  0  0  0  0  0  0  0
  142.2660   77.5030  219.9330 C   0  0  0  0  0  0  0  0  0  0  0  0
  141.3340   77.4250  221.1740 C   0  0  1  0  0  0  0  0  0  0  0  0
  140.9530   78.8480  221.7040 C   0  0  0  0  0  0  0  0  0  0  0  0
  141.7920   79.9620  221.0300 C   0  0  0  0  0  0  0  0  0  0  0  0
  141.6490   81.2950  221.7700 C   0  0  0  0  0  0  0  0  0  0  0  0
  142.1890   81.2010  223.2120 C   0  0  0  0  0  0  0  0  0  0  0  0
  142.1220   79.7760  223.7970 C   0  0  0  0  0  0  0  0  0  0  0  0
  140.9100   79.0060  223.2550 C   0  0  0  0  0  0  0  0  0  0  0  0
  140.3217   73.6501  220.3287 H   0  0  0  0  0  0  0  0  0  0  0  0
  141.8488   74.3158  221.0036 H   0  0  0  0  0  0  0  0  0  0  0  0
  137.8910   73.6570  222.7120 H   0  0  0  0  0  0  0  0  0  0  0  0
  139.0200   69.8686  222.5807 H   0  0  0  0  0  0  0  0  0  0  0  0
  139.2351   68.1598  224.3930 H   0  0  0  0  0  0  0  0  0  0  0  0
  139.8862   67.5893  226.7075 H   0  0  0  0  0  0  0  0  0  0  0  0
  141.4815   70.6800  229.2843 H   0  0  0  0  0  0  0  0  0  0  0  0
  141.2508   72.3504  227.4430 H   0  0  0  0  0  0  0  0  0  0  0  0
  138.7902   75.7626  219.5331 H   0  0  0  0  0  0  0  0  0  0  0  0
  139.1892   77.5195  219.3518 H   0  0  0  0  0  0  0  0  0  0  0  0
  140.4802   75.1467  218.1566 H   0  0  0  0  0  0  0  0  0  0  0  0
  140.5429   76.9107  217.6896 H   0  0  0  0  0  0  0  0  0  0  0  0
  142.3390   75.3744  219.5899 H   0  0  0  0  0  0  0  0  0  0  0  0
  142.7674   76.3962  218.1595 H   0  0  0  0  0  0  0  0  0  0  0  0
  143.3109   77.5497  220.2735 H   0  0  0  0  0  0  0  0  0  0  0  0
  141.9998   78.4025  219.3585 H   0  0  0  0  0  0  0  0  0  0  0  0
  141.8900   76.9546  221.9984 H   0  0  0  0  0  0  0  0  0  0  0  0
  139.9035   78.9705  221.3981 H   0  0  0  0  0  0  0  0  0  0  0  0
  142.8507   79.6634  221.0321 H   0  0  0  0  0  0  0  0  0  0  0  0
  141.4261   80.0963  220.0014 H   0  0  0  0  0  0  0  0  0  0  0  0
  142.2126   82.0678  221.2268 H   0  0  0  0  0  0  0  0  0  0  0  0
  140.5802   81.5509  221.8173 H   0  0  0  0  0  0  0  0  0  0  0  0
  143.2386   81.5301  223.2139 H   0  0  0  0  0  0  0  0  0  0  0  0
  141.5525   81.8413  223.8405 H   0  0  0  0  0  0  0  0  0  0  0  0
  143.0405   79.2344  223.5268 H   0  0  0  0  0  0  0  0  0  0  0  0
  142.0228   79.8541  224.8897 H   0  0  0  0  0  0  0  0  0  0  0  0
  140.8936   78.0055  223.7120 H   0  0  0  0  0  0  0  0  0  0  0  0
  140.0064   79.5794  223.5094 H   0  0  0  0  0  0  0  0  0  0  0  0
  1  2  2  0
  2  3  1  0
  3  4  1  0
  4  5  2  0
  5  6  1  0
  5  7  1  0
  7  8  2  0
  8  9  1  0
  9 10  2  0
 10 11  1  0
 11 12  2  0
 12 13  1  0
 12 14  1  0
 14 15  2  0
 15 16  1  0
 16 17  2  0
  2 18  1  0
 18 19  1  0
 19 20  1  0
 20 21  1  0
 21 22  1  0
 22 23  1  0
 23 24  1  0
 24 25  1  0
 25 26  1  0
 26 27  1  0
 27 28  1  0
 28 29  1  0
 17  7  1  0
 23 18  1  0
 29 24  1  0
 16 10  1  0
  3 30  1  0
  3 31  1  0
  6 32  1  0
  8 33  1  0
  9 34  1  0
 11 35  1  0
 14 36  1  0
 15 37  1  0
 19 38  1  0
 19 39  1  0
 20 40  1  0
 20 41  1  0
 21 42  1  0
 21 43  1  0
 22 44  1  0
 22 45  1  0
 23 46  1  1
 24 47  1  0
 25 48  1  0
 25 49  1  0
 26 50  1  0
 26 51  1  0
 27 52  1  0
 27 53  1  0
 28 54  1  0
 28 55  1  0
 29 56  1  0
 29 57  1  0
M  END
>  <meeko>  (13) 
{"free_energy": -8.86, "intermolecular_energy": -10.94, "internal_energy": -1.57, "cluster_size": 5, "cluster_id": 1, "rank_in_cluster": 1}

$$$$

     RDKit          3D

 57 60  0  0  0  0  0  0  0  0999 V2000
  141.0400   73.7240  222.1910 O   0  0  0  0  0  0  0  0  0  0  0  0
  140.4480   74.0810  221.1370 C   0  0  0  0  0  0  0  0  0  0  0  0
  138.9520   74.0420  221.1040 C   0  0  0  0  0  0  0  0  0  0  0  0
  138.4280   75.4000  221.1120 N   0  0  0  0  0  0  0  0  0  0  0  0
  137.9690   76.0250  222.1570 C   0  0  0  0  0  0  0  0  0  0  0  0
  136.9080   75.5110  222.9100 O   0  0  0  0  0  0  0  0  0  0  0  0
  138.5790   77.3110  222.5440 C   0  0  0  0  0  0  0  0  0  0  0  0
  137.7920   78.4590  222.7280 C   0  0  0  0  0  0  0  0  0  0  0  0
  138.4030   79.6660  223.0760 C   0  0  0  0  0  0  0  0  0  0  0  0
  139.7910   79.7250  223.2360 C   0  0  0  0  0  0  0  0  0  0  0  0
  140.4360   80.9210  223.5830 C   0  0  0  0  0  0  0  0  0  0  0  0
  141.8280   80.9470  223.7340 C   0  0  0  0  0  0  0  0  0  0  0  0
  142.4510   82.1040  224.0690 F   0  0  0  0  0  0  0  0  0  0  0  0
  142.5770   79.7820  223.5410 C   0  0  0  0  0  0  0  0  0  0  0  0
  141.9420   78.5850  223.1950 C   0  0  0  0  0  0  0  0  0  0  0  0
  140.5510   78.5510  223.0440 C   0  0  0  0  0  0  0  0  0  0  0  0
  139.9290   77.3890  222.7070 N   0  0  0  0  0  0  0  0  0  0  0  0
  141.2230   74.5020  219.9920 N   0  0  0  0  0  0  0  0  0  0  0  0
  141.6830   73.4250  219.1020 C   0  0  0  0  0  0  0  0  0  0  0  0
  143.1030   72.9500  219.4780 C   0  0  0  0  0  0  0  0  0  0  0  0
  143.8360   73.9140  220.4270 C   0  0  0  0  0  0  0  0  0  0  0  0
  143.5760   75.3740  220.0440 C   0  0  0  0  0  0  0  0  0  0  0  0
  142.0630   75.7220  220.1130 C   0  0  1  0  0  0  0  0  0  0  0  0
  141.6840   76.8680  219.1150 C   0  0  0  0  0  0  0  0  0  0  0  0
  142.9290   77.4430  218.3930 C   0  0  0  0  0  0  0  0  0  0  0  0
  142.6020   78.7540  217.6750 C   0  0  0  0  0  0  0  0  0  0  0  0
  142.1720   79.8510  218.6700 C   0  0  0  0  0  0  0  0  0  0  0  0
  141.5420   79.2910  219.9610 C   0  0  0  0  0  0  0  0  0  0  0  0
  140.7700   77.9930  219.6880 C   0  0  0  0  0  0  0  0  0  0  0  0
  138.6192   73.5265  220.1910 H   0  0  0  0  0  0  0  0  0  0  0  0
  138.5810   73.5020  221.9876 H   0  0  0  0  0  0  0  0  0  0  0  0
  137.0030   74.7160  223.5290 H   0  0  0  0  0  0  0  0  0  0  0  0
  136.7008   78.4083  222.5989 H   0  0  0  0  0  0  0  0  0  0  0  0
  137.7929   80.5692  223.2241 H   0  0  0  0  0  0  0  0  0  0  0  0
  139.8487   81.8383  223.7365 H   0  0  0  0  0  0  0  0  0  0  0  0
  143.6700   79.8072  223.6618 H   0  0  0  0  0  0  0  0  0  0  0  0
  142.5351   77.6713  223.0417 H   0  0  0  0  0  0  0  0  0  0  0  0
  140.9890   72.5752  219.1806 H   0  0  0  0  0  0  0  0  0  0  0  0
  141.7096   73.8141  218.0735 H   0  0  0  0  0  0  0  0  0  0  0  0
  143.0243   71.9690  219.9693 H   0  0  0  0  0  0  0  0  0  0  0  0
  143.6875   72.9019  218.5474 H   0  0  0  0  0  0  0  0  0  0  0  0
  143.4818   73.7442  221.4545 H   0  0  0  0  0  0  0  0  0  0  0  0
  144.9165   73.7217  220.3520 H   0  0  0  0  0  0  0  0  0  0  0  0
  144.1249   76.0283  220.7373 H   0  0  0  0  0  0  0  0  0  0  0  0
  143.9172   75.5246  219.0091 H   0  0  0  0  0  0  0  0  0  0  0  0
  141.8455   76.1314  221.1106 H   0  0  0  0  0  0  0  0  0  0  0  0
  141.0488   76.3682  218.3689 H   0  0  0  0  0  0  0  0  0  0  0  0
  143.7192   77.6289  219.1354 H   0  0  0  0  0  0  0  0  0  0  0  0
  143.2628   76.7112  217.6426 H   0  0  0  0  0  0  0  0  0  0  0  0
  143.4945   79.0955  217.1302 H   0  0  0  0  0  0  0  0  0  0  0  0
  141.7674   78.5695  216.9826 H   0  0  0  0  0  0  0  0  0  0  0  0
  143.0587   80.4423  218.9423 H   0  0  0  0  0  0  0  0  0  0  0  0
  141.4043   80.4605  218.1709 H   0  0  0  0  0  0  0  0  0  0  0  0
  142.3403   79.0865  220.6896 H   0  0  0  0  0  0  0  0  0  0  0  0
  140.8369   80.0377  220.3551 H   0  0  0  0  0  0  0  0  0  0  0  0
  140.3255   77.6413  220.6307 H   0  0  0  0  0  0  0  0  0  0  0  0
  139.9979   78.2135  218.9362 H   0  0  0  0  0  0  0  0  0  0  0  0
  1  2  2  0
  2  3  1  0
  3  4  1  0
  4  5  2  0
  5  6  1  0
  5  7  1  0
  7  8  2  0
  8  9  1  0
  9 10  2  0
 10 11  1  0
 11 12  2  0
 12 13  1  0
 12 14  1  0
 14 15  2  0
 15 16  1  0
 16 17  2  0
  2 18  1  0
 18 19  1  0
 19 20  1  0
 20 21  1  0
 21 22  1  0
 22 23  1  0
 23 24  1  0
 24 25  1  0
 25 26  1  0
 26 27  1  0
 27 28  1  0
 28 29  1  0
 17  7  1  0
 23 18  1  0
 29 24  1  0
 16 10  1  0
  3 30  1  0
  3 31  1  0
  6 32  1  0
  8 33  1  0
  9 34  1  0
 11 35  1  0
 14 36  1  0
 15 37  1  0
 19 38  1  0
 19 39  1  0
 20 40  1  0
 20 41  1  0
 21 42  1  0
 21 43  1  0
 22 44  1  0
 22 45  1  0
 23 46  1  1
 24 47  1  0
 25 48  1  0
 25 49  1  0
 26 50  1  0
 26 51  1  0
 27 52  1  0
 27 53  1  0
 28 54  1  0
 28 55  1  0
 29 56  1  0
 29 57  1  0
M  END
>  <meeko>  (14) 
{"free_energy": -6.5, "intermolecular_energy": -8.59, "internal_energy": -2.44, "cluster_size": 1, "cluster_id": 5, "rank_in_cluster": 1}

$$$$

     RDKit          3D

 57 60  0  0  0  0  0  0  0  0999 V2000
  142.8290   71.5440  221.5950 O   0  0  0  0  0  0  0  0  0  0  0  0
  142.1420   71.9330  220.6120 C   0  0  0  0  0  0  0  0  0  0  0  0
  140.8510   71.2350  220.3170 C   0  0  0  0  0  0  0  0  0  0  0  0
  139.7660   71.8900  221.0330 N   0  0  0  0  0  0  0  0  0  0  0  0
  139.8410   72.3720  222.2390 C   0  0  0  0  0  0  0  0  0  0  0  0
  139.8940   73.7500  222.4760 O   0  0  0  0  0  0  0  0  0  0  0  0
  139.8850   71.4360  223.3790 C   0  0  0  0  0  0  0  0  0  0  0  0
  139.3840   70.1300  223.2620 C   0  0  0  0  0  0  0  0  0  0  0  0
  139.4240   69.2740  224.3660 C   0  0  0  0  0  0  0  0  0  0  0  0
  139.9590   69.7240  225.5790 C   0  0  0  0  0  0  0  0  0  0  0  0
  140.0110   68.8910  226.7060 C   0  0  0  0  0  0  0  0  0  0  0  0
  140.5500   69.3710  227.9050 C   0  0  0  0  0  0  0  0  0  0  0  0
  140.6010   68.5670  228.9950 F   0  0  0  0  0  0  0  0  0  0  0  0
  141.0380   70.6800  227.9820 C   0  0  0  0  0  0  0  0  0  0  0  0
  140.9900   71.5170  226.8620 C   0  0  0  0  0  0  0  0  0  0  0  0
  140.4530   71.0430  225.6590 C   0  0  0  0  0  0  0  0  0  0  0  0
  140.4030   71.8540  224.5680 N   0  0  0  0  0  0  0  0  0  0  0  0
  142.6200   73.0240  219.7950 N   0  0  0  0  0  0  0  0  0  0  0  0
  143.4070   72.6390  218.6130 C   0  0  0  0  0  0  0  0  0  0  0  0
  144.9200   72.6380  218.9210 C   0  0  0  0  0  0  0  0  0  0  0  0
  145.2760   73.3610  220.2320 C   0  0  0  0  0  0  0  0  0  0  0  0
  144.4450   74.6350  220.4060 C   0  0  0  0  0  0  0  0  0  0  0  0
  142.9230   74.3230  220.4510 C   0  0  1  0  0  0  0  0  0  0  0  0
  142.0680   75.5260  219.9270 C   0  0  0  0  0  0  0  0  0  0  0  0
  142.9470   76.7490  219.5670 C   0  0  0  0  0  0  0  0  0  0  0  0
  142.1000   78.0080  219.3680 C   0  0  0  0  0  0  0  0  0  0  0  0
  141.3690   78.4070  220.6670 C   0  0  0  0  0  0  0  0  0  0  0  0
  141.0950   77.2140  221.6040 C   0  0  0  0  0  0  0  0  0  0  0  0
  140.8460   75.9250  220.8100 C   0  0  0  0  0  0  0  0  0  0  0  0
  140.6523   71.2746  219.2358 H   0  0  0  0  0  0  0  0  0  0  0  0
  140.9210   70.1861  220.6408 H   0  0  0  0  0  0  0  0  0  0  0  0
  139.2490   74.2300  223.0900 H   0  0  0  0  0  0  0  0  0  0  0  0
  138.9625   69.7824  222.3072 H   0  0  0  0  0  0  0  0  0  0  0  0
  139.0357   68.2482  224.2820 H   0  0  0  0  0  0  0  0  0  0  0  0
  139.6285   67.8613  226.6476 H   0  0  0  0  0  0  0  0  0  0  0  0
  141.4610   71.0524  228.9267 H   0  0  0  0  0  0  0  0  0  0  0  0
  141.3736   72.5459  226.9264 H   0  0  0  0  0  0  0  0  0  0  0  0
  143.1056   71.6300  218.2952 H   0  0  0  0  0  0  0  0  0  0  0  0
  143.2160   73.3721  217.8155 H   0  0  0  0  0  0  0  0  0  0  0  0
  145.2604   71.5946  218.9944 H   0  0  0  0  0  0  0  0  0  0  0  0
  145.4185   73.1808  218.1044 H   0  0  0  0  0  0  0  0  0  0  0  0
  145.0797   72.6864  221.0783 H   0  0  0  0  0  0  0  0  0  0  0  0
  146.3392   73.6411  220.1972 H   0  0  0  0  0  0  0  0  0  0  0  0
  144.7368   75.1260  221.3461 H   0  0  0  0  0  0  0  0  0  0  0  0
  144.6366   75.2914  219.5443 H   0  0  0  0  0  0  0  0  0  0  0  0
  142.6234   74.1990  221.5021 H   0  0  0  0  0  0  0  0  0  0  0  0
  141.6116   75.1422  219.0027 H   0  0  0  0  0  0  0  0  0  0  0  0
  143.6646   76.9258  220.3817 H   0  0  0  0  0  0  0  0  0  0  0  0
  143.4710   76.5325  218.6244 H   0  0  0  0  0  0  0  0  0  0  0  0
  142.7558   78.8350  219.0581 H   0  0  0  0  0  0  0  0  0  0  0  0
  141.3445   77.7981  218.5965 H   0  0  0  0  0  0  0  0  0  0  0  0
  141.9889   79.1388  221.2057 H   0  0  0  0  0  0  0  0  0  0  0  0
  140.3933   78.8239  220.3767 H   0  0  0  0  0  0  0  0  0  0  0  0
  141.9651   77.0674  222.2608 H   0  0  0  0  0  0  0  0  0  0  0  0
  140.1939   77.4369  222.1942 H   0  0  0  0  0  0  0  0  0  0  0  0
  140.6396   75.1084  221.5175 H   0  0  0  0  0  0  0  0  0  0  0  0
  139.9918   76.1031  220.1402 H   0  0  0  0  0  0  0  0  0  0  0  0
  1  2  2  0
  2  3  1  0
  3  4  1  0
  4  5  2  0
  5  6  1  0
  5  7  1  0
  7  8  2  0
  8  9  1  0
  9 10  2  0
 10 11  1  0
 11 12  2  0
 12 13  1  0
 12 14  1  0
 14 15  2  0
 15 16  1  0
 16 17  2  0
  2 18  1  0
 18 19  1  0
 19 20  1  0
 20 21  1  0
 21 22  1  0
 22 23  1  0
 23 24  1  0
 24 25  1  0
 25 26  1  0
 26 27  1  0
 27 28  1  0
 28 29  1  0
 17  7  1  0
 23 18  1  0
 29 24  1  0
 16 10  1  0
  3 30  1  0
  3 31  1  0
  6 32  1  0
  8 33  1  0
  9 34  1  0
 11 35  1  0
 14 36  1  0
 15 37  1  0
 19 38  1  0
 19 39  1  0
 20 40  1  0
 20 41  1  0
 21 42  1  0
 21 43  1  0
 22 44  1  0
 22 45  1  0
 23 46  1  1
 24 47  1  0
 25 48  1  0
 25 49  1  0
 26 50  1  0
 26 51  1  0
 27 52  1  0
 27 53  1  0
 28 54  1  0
 28 55  1  0
 29 56  1  0
 29 57  1  0
M  END
>  <meeko>  (15) 
{"free_energy": -7.94, "intermolecular_energy": -10.03, "internal_energy": -1.67, "cluster_size": 5, "cluster_id": 3, "rank_in_cluster": 2}

$$$$

     RDKit          3D

 57 60  0  0  0  0  0  0  0  0999 V2000
  139.1750   74.5050  222.3600 O   0  0  0  0  0  0  0  0  0  0  0  0
  139.9610   73.9840  221.5230 C   0  0  0  0  0  0  0  0  0  0  0  0
  139.5270   72.7430  220.8060 C   0  0  0  0  0  0  0  0  0  0  0  0
  139.4880   71.6270  221.7410 N   0  0  0  0  0  0  0  0  0  0  0  0
  138.7280   71.5520  222.7940 C   0  0  0  0  0  0  0  0  0  0  0  0
  137.5690   72.3240  222.9170 O   0  0  0  0  0  0  0  0  0  0  0  0
  139.1120   70.6370  223.8850 C   0  0  0  0  0  0  0  0  0  0  0  0
  138.8590   69.2580  223.7970 C   0  0  0  0  0  0  0  0  0  0  0  0
  139.2190   68.4210  224.8560 C   0  0  0  0  0  0  0  0  0  0  0  0
  139.8240   68.9590  225.9970 C   0  0  0  0  0  0  0  0  0  0  0  0
  140.1950   68.1470  227.0790 C   0  0  0  0  0  0  0  0  0  0  0  0
  140.7960   68.7170  228.2070 C   0  0  0  0  0  0  0  0  0  0  0  0
  141.1540   67.9320  229.2530 F   0  0  0  0  0  0  0  0  0  0  0  0
  141.0300   70.0950  228.2580 C   0  0  0  0  0  0  0  0  0  0  0  0
  140.6630   70.9120  227.1830 C   0  0  0  0  0  0  0  0  0  0  0  0
  140.0630   70.3490  226.0510 C   0  0  0  0  0  0  0  0  0  0  0  0
  139.7040   71.1400  225.0050 N   0  0  0  0  0  0  0  0  0  0  0  0
  141.2530   74.5850  221.2890 N   0  0  0  0  0  0  0  0  0  0  0  0
  141.3260   76.0400  221.4920 C   0  0  0  0  0  0  0  0  0  0  0  0
  141.0950   76.8060  220.1720 C   0  0  0  0  0  0  0  0  0  0  0  0
  141.1980   75.9120  218.9240 C   0  0  0  0  0  0  0  0  0  0  0  0
  142.3460   74.9080  219.0530 C   0  0  0  0  0  0  0  0  0  0  0  0
  142.1500   73.9690  220.2760 C   0  0  1  0  0  0  0  0  0  0  0  0
  143.5180   73.4650  220.8470 C   0  0  0  0  0  0  0  0  0  0  0  0
  144.6930   74.3870  220.4360 C   0  0  0  0  0  0  0  0  0  0  0  0
  146.0460   73.7280  220.7160 C   0  0  0  0  0  0  0  0  0  0  0  0
  146.2310   72.4440  219.8810 C   0  0  0  0  0  0  0  0  0  0  0  0
  144.9000   71.7620  219.5060 C   0  0  0  0  0  0  0  0  0  0  0  0
  143.8430   71.9600  220.6000 C   0  0  0  0  0  0  0  0  0  0  0  0
  138.5251   72.8982  220.3792 H   0  0  0  0  0  0  0  0  0  0  0  0
  140.2402   72.5189  219.9991 H   0  0  0  0  0  0  0  0  0  0  0  0
  137.5820   73.3040  223.1720 H   0  0  0  0  0  0  0  0  0  0  0  0
  138.3802   68.8396  222.8994 H   0  0  0  0  0  0  0  0  0  0  0  0
  139.0269   67.3397  224.7928 H   0  0  0  0  0  0  0  0  0  0  0  0
  140.0136   67.0627  227.0409 H   0  0  0  0  0  0  0  0  0  0  0  0
  141.5042   70.5380  229.1462 H   0  0  0  0  0  0  0  0  0  0  0  0
  140.8459   71.9958  227.2276 H   0  0  0  0  0  0  0  0  0  0  0  0
  140.5560   76.3389  222.2185 H   0  0  0  0  0  0  0  0  0  0  0  0
  142.3312   76.2873  221.8640 H   0  0  0  0  0  0  0  0  0  0  0  0
  140.0905   77.2535  220.1991 H   0  0  0  0  0  0  0  0  0  0  0  0
  141.8855   77.5669  220.0940 H   0  0  0  0  0  0  0  0  0  0  0  0
  140.2536   75.3623  218.7979 H   0  0  0  0  0  0  0  0  0  0  0  0
  141.3939   76.5536  218.0522 H   0  0  0  0  0  0  0  0  0  0  0  0
  142.3915   74.2984  218.1385 H   0  0  0  0  0  0  0  0  0  0  0  0
  143.2804   75.4703  219.1971 H   0  0  0  0  0  0  0  0  0  0  0  0
  141.6323   73.0594  219.9375 H   0  0  0  0  0  0  0  0  0  0  0  0
  143.3891   73.5314  221.9374 H   0  0  0  0  0  0  0  0  0  0  0  0
  144.6172   74.6052  219.3605 H   0  0  0  0  0  0  0  0  0  0  0  0
  144.6299   75.3120  221.0280 H   0  0  0  0  0  0  0  0  0  0  0  0
  146.8483   74.4372  220.4643 H   0  0  0  0  0  0  0  0  0  0  0  0
  146.0847   73.4564  221.7813 H   0  0  0  0  0  0  0  0  0  0  0  0
  146.7630   72.7042  218.9541 H   0  0  0  0  0  0  0  0  0  0  0  0
  146.7981   71.7327  220.4994 H   0  0  0  0  0  0  0  0  0  0  0  0
  144.5279   72.1955  218.5660 H   0  0  0  0  0  0  0  0  0  0  0  0
  145.0832   70.6834  219.3923 H   0  0  0  0  0  0  0  0  0  0  0  0
  142.9199   71.4444  220.2968 H   0  0  0  0  0  0  0  0  0  0  0  0
  144.2471   71.5461  221.5357 H   0  0  0  0  0  0  0  0  0  0  0  0
  1  2  2  0
  2  3  1  0
  3  4  1  0
  4  5  2  0
  5  6  1  0
  5  7  1  0
  7  8  2  0
  8  9  1  0
  9 10  2  0
 10 11  1  0
 11 12  2  0
 12 13  1  0
 12 14  1  0
 14 15  2  0
 15 16  1  0
 16 17  2  0
  2 18  1  0
 18 19  1  0
 19 20  1  0
 20 21  1  0
 21 22  1  0
 22 23  1  0
 23 24  1  0
 24 25  1  0
 25 26  1  0
 26 27  1  0
 27 28  1  0
 28 29  1  0
 17  7  1  0
 23 18  1  0
 29 24  1  0
 16 10  1  0
  3 30  1  0
  3 31  1  0
  6 32  1  0
  8 33  1  0
  9 34  1  0
 11 35  1  0
 14 36  1  0
 15 37  1  0
 19 38  1  0
 19 39  1  0
 20 40  1  0
 20 41  1  0
 21 42  1  0
 21 43  1  0
 22 44  1  0
 22 45  1  0
 23 46  1  6
 24 47  1  0
 25 48  1  0
 25 49  1  0
 26 50  1  0
 26 51  1  0
 27 52  1  0
 27 53  1  0
 28 54  1  0
 28 55  1  0
 29 56  1  0
 29 57  1  0
M  END
>  <meeko>  (16) 
{"free_energy": -7.75, "intermolecular_energy": -9.84, "internal_energy": -1.9, "cluster_size": 5, "cluster_id": 3, "rank_in_cluster": 4}

$$$$

     RDKit          3D

 57 60  0  0  0  0  0  0  0  0999 V2000
  141.5200   72.0540  221.8400 O   0  0  0  0  0  0  0  0  0  0  0  0
  140.3500   71.8900  222.2790 C   0  0  0  0  0  0  0  0  0  0  0  0
  139.3300   72.9550  222.0220 C   0  0  0  0  0  0  0  0  0  0  0  0
  139.9670   74.2630  222.0670 N   0  0  0  0  0  0  0  0  0  0  0  0
  140.6910   74.7830  221.1190 C   0  0  0  0  0  0  0  0  0  0  0  0
  141.1600   74.0120  220.0500 O   0  0  0  0  0  0  0  0  0  0  0  0
  141.0310   76.2160  221.1870 C   0  0  0  0  0  0  0  0  0  0  0  0
  141.5060   76.9020  220.0570 C   0  0  0  0  0  0  0  0  0  0  0  0
  141.8360   78.2550  220.1590 C   0  0  0  0  0  0  0  0  0  0  0  0
  141.6950   78.9180  221.3830 C   0  0  0  0  0  0  0  0  0  0  0  0
  142.0210   80.2760  221.5200 C   0  0  0  0  0  0  0  0  0  0  0  0
  141.8700   80.9090  222.7600 C   0  0  0  0  0  0  0  0  0  0  0  0
  142.1850   82.2200  222.8930 F   0  0  0  0  0  0  0  0  0  0  0  0
  141.3950   80.1910  223.8630 C   0  0  0  0  0  0  0  0  0  0  0  0
  141.0680   78.8370  223.7340 C   0  0  0  0  0  0  0  0  0  0  0  0
  141.2150   78.1970  222.4980 C   0  0  0  0  0  0  0  0  0  0  0  0
  140.8990   76.8810  222.3690 N   0  0  0  0  0  0  0  0  0  0  0  0
  140.0290   70.6940  223.0240 N   0  0  0  0  0  0  0  0  0  0  0  0
  139.5060   69.5710  222.2310 C   0  0  0  0  0  0  0  0  0  0  0  0
  137.9620   69.5730  222.2030 C   0  0  0  0  0  0  0  0  0  0  0  0
  137.3350   70.4950  223.2630 C   0  0  0  0  0  0  0  0  0  0  0  0
  138.0910   70.4070  224.5910 C   0  0  0  0  0  0  0  0  0  0  0  0
  139.5770   70.8340  224.4320 C   0  0  1  0  0  0  0  0  0  0  0  0
  140.5000   70.1250  225.4800 C   0  0  0  0  0  0  0  0  0  0  0  0
  139.9750   68.7180  225.8580 C   0  0  0  0  0  0  0  0  0  0  0  0
  140.6840   68.1700  227.0980 C   0  0  0  0  0  0  0  0  0  0  0  0
  140.4120   69.0470  228.3380 C   0  0  0  0  0  0  0  0  0  0  0  0
  140.1030   70.5170  227.9890 C   0  0  0  0  0  0  0  0  0  0  0  0
  140.8700   70.9680  226.7390 C   0  0  0  0  0  0  0  0  0  0  0  0
  138.8815   72.8003  221.0296 H   0  0  0  0  0  0  0  0  0  0  0  0
  138.5466   72.9038  222.7925 H   0  0  0  0  0  0  0  0  0  0  0  0
  141.7260   73.1830  220.1730 H   0  0  0  0  0  0  0  0  0  0  0  0
  141.6174   76.3764  219.0972 H   0  0  0  0  0  0  0  0  0  0  0  0
  142.2065   78.7991  219.2777 H   0  0  0  0  0  0  0  0  0  0  0  0
  142.3947   80.8426  220.6544 H   0  0  0  0  0  0  0  0  0  0  0  0
  141.2783   80.6929  224.8348 H   0  0  0  0  0  0  0  0  0  0  0  0
  140.6955   78.2756  224.6035 H   0  0  0  0  0  0  0  0  0  0  0  0
  139.8829   69.6539  221.2009 H   0  0  0  0  0  0  0  0  0  0  0  0
  139.8430   68.6324  222.6952 H   0  0  0  0  0  0  0  0  0  0  0  0
  137.6313   69.9085  221.2090 H   0  0  0  0  0  0  0  0  0  0  0  0
  137.6309   68.5480  222.4261 H   0  0  0  0  0  0  0  0  0  0  0  0
  137.3673   71.5329  222.9000 H   0  0  0  0  0  0  0  0  0  0  0  0
  136.2962   70.1751  223.4320 H   0  0  0  0  0  0  0  0  0  0  0  0
  137.6055   71.0693  225.3229 H   0  0  0  0  0  0  0  0  0  0  0  0
  138.0677   69.3614  224.9318 H   0  0  0  0  0  0  0  0  0  0  0  0
  139.6585   71.9065  224.6623 H   0  0  0  0  0  0  0  0  0  0  0  0
  141.4572   70.0078  224.9507 H   0  0  0  0  0  0  0  0  0  0  0  0
  138.8960   68.7819  226.0621 H   0  0  0  0  0  0  0  0  0  0  0  0
  140.1746   68.0375  225.0171 H   0  0  0  0  0  0  0  0  0  0  0  0
  140.3224   67.1500  227.2952 H   0  0  0  0  0  0  0  0  0  0  0  0
  141.7670   68.1707  226.9053 H   0  0  0  0  0  0  0  0  0  0  0  0
  139.5511   68.6283  228.8798 H   0  0  0  0  0  0  0  0  0  0  0  0
  141.3275   69.0422  228.9478 H   0  0  0  0  0  0  0  0  0  0  0  0
  139.0237   70.6218  227.8040 H   0  0  0  0  0  0  0  0  0  0  0  0
  140.4168   71.1471  228.8342 H   0  0  0  0  0  0  0  0  0  0  0  0
  140.6325   72.0235  226.5401 H   0  0  0  0  0  0  0  0  0  0  0  0
  141.9433   70.8271  226.9342 H   0  0  0  0  0  0  0  0  0  0  0  0
  1  2  2  0
  2  3  1  0
  3  4  1  0
  4  5  2  0
  5  6  1  0
  5  7  1  0
  7  8  2  0
  8  9  1  0
  9 10  2  0
 10 11  1  0
 11 12  2  0
 12 13  1  0
 12 14  1  0
 14 15  2  0
 15 16  1  0
 16 17  2  0
  2 18  1  0
 18 19  1  0
 19 20  1  0
 20 21  1  0
 21 22  1  0
 22 23  1  0
 23 24  1  0
 24 25  1  0
 25 26  1  0
 26 27  1  0
 27 28  1  0
 28 29  1  0
 17  7  1  0
 23 18  1  0
 29 24  1  0
 16 10  1  0
  3 30  1  0
  3 31  1  0
  6 32  1  0
  8 33  1  0
  9 34  1  0
 11 35  1  0
 14 36  1  0
 15 37  1  0
 19 38  1  0
 19 39  1  0
 20 40  1  0
 20 41  1  0
 21 42  1  0
 21 43  1  0
 22 44  1  0
 22 45  1  0
 23 46  1  1
 24 47  1  0
 25 48  1  0
 25 49  1  0
 26 50  1  0
 26 51  1  0
 27 52  1  0
 27 53  1  0
 28 54  1  0
 28 55  1  0
 29 56  1  0
 29 57  1  0
M  END
>  <meeko>  (17) 
{"free_energy": -8.09, "intermolecular_energy": -10.18, "internal_energy": -1.69, "cluster_size": 7, "cluster_id": 2, "rank_in_cluster": 3}

$$$$

     RDKit          3D

 57 60  0  0  0  0  0  0  0  0999 V2000
  139.3020   74.2120  219.6680 O   0  0  0  0  0  0  0  0  0  0  0  0
  139.6090   75.0770  220.5330 C   0  0  0  0  0  0  0  0  0  0  0  0
  139.4040   74.7500  221.9800 C   0  0  0  0  0  0  0  0  0  0  0  0
  140.1850   73.5710  222.3290 N   0  0  0  0  0  0  0  0  0  0  0  0
  139.7940   72.3390  222.1890 C   0  0  0  0  0  0  0  0  0  0  0  0
  139.3000   71.8610  220.9710 O   0  0  0  0  0  0  0  0  0  0  0  0
  139.8630   71.4330  223.3510 C   0  0  0  0  0  0  0  0  0  0  0  0
  139.4160   70.1050  223.2620 C   0  0  0  0  0  0  0  0  0  0  0  0
  139.4780   69.2780  224.3860 C   0  0  0  0  0  0  0  0  0  0  0  0
  139.9820   69.7770  225.5920 C   0  0  0  0  0  0  0  0  0  0  0  0
  140.0560   68.9740  226.7400 C   0  0  0  0  0  0  0  0  0  0  0  0
  140.5630   69.5040  227.9320 C   0  0  0  0  0  0  0  0  0  0  0  0
  140.6340   68.7290  229.0420 F   0  0  0  0  0  0  0  0  0  0  0  0
  140.9980   70.8340  227.9820 C   0  0  0  0  0  0  0  0  0  0  0  0
  140.9270   71.6400  226.8410 C   0  0  0  0  0  0  0  0  0  0  0  0
  140.4230   71.1170  225.6460 C   0  0  0  0  0  0  0  0  0  0  0  0
  140.3510   71.8990  224.5350 N   0  0  0  0  0  0  0  0  0  0  0  0
  140.1330   76.3550  220.1090 N   0  0  0  0  0  0  0  0  0  0  0  0
  140.0800   76.6180  218.6630 C   0  0  0  0  0  0  0  0  0  0  0  0
  141.3980   76.2140  217.9680 C   0  0  0  0  0  0  0  0  0  0  0  0
  142.5570   75.9780  218.9520 C   0  0  0  0  0  0  0  0  0  0  0  0
  142.5530   77.0180  220.0750 C   0  0  0  0  0  0  0  0  0  0  0  0
  141.2350   76.9670  220.8970 C   0  0  1  0  0  0  0  0  0  0  0  0
  140.8840   78.3600  221.5210 C   0  0  0  0  0  0  0  0  0  0  0  0
  141.8210   79.4790  221.0020 C   0  0  0  0  0  0  0  0  0  0  0  0
  141.6890   80.7520  221.8420 C   0  0  0  0  0  0  0  0  0  0  0  0
  142.1220   80.5110  223.3030 C   0  0  0  0  0  0  0  0  0  0  0  0
  141.9460   79.0480  223.7580 C   0  0  0  0  0  0  0  0  0  0  0  0
  140.7410   78.3910  223.0730 C   0  0  0  0  0  0  0  0  0  0  0  0
  139.7290   75.6005  222.5973 H   0  0  0  0  0  0  0  0  0  0  0  0
  138.3379   74.5495  222.1621 H   0  0  0  0  0  0  0  0  0  0  0  0
  139.2800   72.4170  220.1260 H   0  0  0  0  0  0  0  0  0  0  0  0
  139.0190   69.7178  222.3120 H   0  0  0  0  0  0  0  0  0  0  0  0
  139.1311   68.2360  224.3231 H   0  0  0  0  0  0  0  0  0  0  0  0
  139.7158   67.9286  226.7033 H   0  0  0  0  0  0  0  0  0  0  0  0
  141.3965   71.2460  228.9208 H   0  0  0  0  0  0  0  0  0  0  0  0
  141.2676   72.6851  226.8837 H   0  0  0  0  0  0  0  0  0  0  0  0
  139.2527   76.0408  218.2244 H   0  0  0  0  0  0  0  0  0  0  0  0
  139.9262   77.6968  218.5129 H   0  0  0  0  0  0  0  0  0  0  0  0
  141.2248   75.2860  217.4034 H   0  0  0  0  0  0  0  0  0  0  0  0
  141.6906   77.0485  217.3138 H   0  0  0  0  0  0  0  0  0  0  0  0
  142.4550   74.9750  219.3920 H   0  0  0  0  0  0  0  0  0  0  0  0
  143.5045   76.0661  218.4003 H   0  0  0  0  0  0  0  0  0  0  0  0
  143.4009   76.8207  220.7473 H   0  0  0  0  0  0  0  0  0  0  0  0
  142.6365   78.0160  219.6201 H   0  0  0  0  0  0  0  0  0  0  0  0
  141.3881   76.3009  221.7589 H   0  0  0  0  0  0  0  0  0  0  0  0
  139.8654   78.5633  221.1588 H   0  0  0  0  0  0  0  0  0  0  0  0
  142.8615   79.1252  221.0493 H   0  0  0  0  0  0  0  0  0  0  0  0
  141.5363   79.7164  219.9663 H   0  0  0  0  0  0  0  0  0  0  0  0
  142.3247   81.5363  221.4052 H   0  0  0  0  0  0  0  0  0  0  0  0
  140.6328   81.0592  221.8406 H   0  0  0  0  0  0  0  0  0  0  0  0
  143.1835   80.7821  223.4018 H   0  0  0  0  0  0  0  0  0  0  0  0
  141.4748   81.1307  223.9410 H   0  0  0  0  0  0  0  0  0  0  0  0
  142.8546   78.4823  223.5041 H   0  0  0  0  0  0  0  0  0  0  0  0
  141.7734   79.0412  224.8443 H   0  0  0  0  0  0  0  0  0  0  0  0
  140.6458   77.3583  223.4397 H   0  0  0  0  0  0  0  0  0  0  0  0
  139.8500   78.9886  223.3159 H   0  0  0  0  0  0  0  0  0  0  0  0
  1  2  2  0
  2  3  1  0
  3  4  1  0
  4  5  2  0
  5  6  1  0
  5  7  1  0
  7  8  2  0
  8  9  1  0
  9 10  2  0
 10 11  1  0
 11 12  2  0
 12 13  1  0
 12 14  1  0
 14 15  2  0
 15 16  1  0
 16 17  2  0
  2 18  1  0
 18 19  1  0
 19 20  1  0
 20 21  1  0
 21 22  1  0
 22 23  1  0
 23 24  1  0
 24 25  1  0
 25 26  1  0
 26 27  1  0
 27 28  1  0
 28 29  1  0
 17  7  1  0
 23 18  1  0
 29 24  1  0
 16 10  1  0
  3 30  1  0
  3 31  1  0
  6 32  1  0
  8 33  1  0
  9 34  1  0
 11 35  1  0
 14 36  1  0
 15 37  1  0
 19 38  1  0
 19 39  1  0
 20 40  1  0
 20 41  1  0
 21 42  1  0
 21 43  1  0
 22 44  1  0
 22 45  1  0
 23 46  1  1
 24 47  1  0
 25 48  1  0
 25 49  1  0
 26 50  1  0
 26 51  1  0
 27 52  1  0
 27 53  1  0
 28 54  1  0
 28 55  1  0
 29 56  1  0
 29 57  1  0
M  END
>  <meeko>  (18) 
{"free_energy": -7.71, "intermolecular_energy": -9.8, "internal_energy": -1.81, "cluster_size": 5, "cluster_id": 1, "rank_in_cluster": 5}

$$$$

     RDKit          3D

 57 60  0  0  0  0  0  0  0  0999 V2000
  143.6460   70.4380  220.1680 O   0  0  0  0  0  0  0  0  0  0  0  0
  142.9360   71.4800  220.1390 C   0  0  0  0  0  0  0  0  0  0  0  0
  141.5540   71.4230  220.7110 C   0  0  0  0  0  0  0  0  0  0  0  0
  141.3990   72.4630  221.7190 N   0  0  0  0  0  0  0  0  0  0  0  0
  140.3800   72.5940  222.5170 C   0  0  0  0  0  0  0  0  0  0  0  0
  139.4690   73.6450  222.3740 O   0  0  0  0  0  0  0  0  0  0  0  0
  140.1950   71.6140  223.6040 C   0  0  0  0  0  0  0  0  0  0  0  0
  139.4850   70.4220  223.3910 C   0  0  0  0  0  0  0  0  0  0  0  0
  139.3120   69.5230  224.4460 C   0  0  0  0  0  0  0  0  0  0  0  0
  139.8440   69.8160  225.7060 C   0  0  0  0  0  0  0  0  0  0  0  0
  139.6870   68.9360  226.7880 C   0  0  0  0  0  0  0  0  0  0  0  0
  140.2290   69.2590  228.0370 C   0  0  0  0  0  0  0  0  0  0  0  0
  140.0760   68.4100  229.0820 F   0  0  0  0  0  0  0  0  0  0  0  0
  140.9300   70.4580  228.2100 C   0  0  0  0  0  0  0  0  0  0  0  0
  141.0910   71.3400  227.1360 C   0  0  0  0  0  0  0  0  0  0  0  0
  140.5530   71.0230  225.8840 C   0  0  0  0  0  0  0  0  0  0  0  0
  140.7070   71.8790  224.8390 N   0  0  0  0  0  0  0  0  0  0  0  0
  143.4650   72.6870  219.5480 N   0  0  0  0  0  0  0  0  0  0  0  0
  144.5950   72.5030  218.6240 C   0  0  0  0  0  0  0  0  0  0  0  0
  145.9480   72.6550  219.3510 C   0  0  0  0  0  0  0  0  0  0  0  0
  145.8230   73.2990  220.7430 C   0  0  0  0  0  0  0  0  0  0  0  0
  144.8070   74.4450  220.7340 C   0  0  0  0  0  0  0  0  0  0  0  0
  143.3910   73.9510  220.3270 C   0  0  1  0  0  0  0  0  0  0  0  0
  142.5560   75.0840  219.6400 C   0  0  0  0  0  0  0  0  0  0  0  0
  143.4080   76.3490  219.3680 C   0  0  0  0  0  0  0  0  0  0  0  0
  142.5290   77.5470  219.0020 C   0  0  0  0  0  0  0  0  0  0  0  0
  141.5920   77.9350  220.1650 C   0  0  0  0  0  0  0  0  0  0  0  0
  141.2500   76.7540  221.0940 C   0  0  0  0  0  0  0  0  0  0  0  0
  141.1960   75.4300  220.3190 C   0  0  0  0  0  0  0  0  0  0  0  0
  140.8187   71.5791  219.9079 H   0  0  0  0  0  0  0  0  0  0  0  0
  141.3905   70.4385  221.1737 H   0  0  0  0  0  0  0  0  0  0  0  0
  138.7780   73.8770  223.0760 H   0  0  0  0  0  0  0  0  0  0  0  0
  139.0671   70.1971  222.3987 H   0  0  0  0  0  0  0  0  0  0  0  0
  138.7582   68.5861  224.2862 H   0  0  0  0  0  0  0  0  0  0  0  0
  139.1378   67.9923  226.6542 H   0  0  0  0  0  0  0  0  0  0  0  0
  141.3555   70.7076  229.1932 H   0  0  0  0  0  0  0  0  0  0  0  0
  141.6405   72.2826  227.2759 H   0  0  0  0  0  0  0  0  0  0  0  0
  144.5367   71.4968  218.1833 H   0  0  0  0  0  0  0  0  0  0  0  0
  144.5330   73.2755  217.8434 H   0  0  0  0  0  0  0  0  0  0  0  0
  146.3958   71.6570  219.4671 H   0  0  0  0  0  0  0  0  0  0  0  0
  146.5732   73.3217  218.7389 H   0  0  0  0  0  0  0  0  0  0  0  0
  145.4958   72.5351  221.4637 H   0  0  0  0  0  0  0  0  0  0  0  0
  146.8045   73.7059  221.0279 H   0  0  0  0  0  0  0  0  0  0  0  0
  144.7559   74.8847  221.7410 H   0  0  0  0  0  0  0  0  0  0  0  0
  145.1364   75.1910  219.9958 H   0  0  0  0  0  0  0  0  0  0  0  0
  142.8327   73.7017  221.2414 H   0  0  0  0  0  0  0  0  0  0  0  0
  142.2644   74.6480  218.6731 H   0  0  0  0  0  0  0  0  0  0  0  0
  143.9860   76.5922  220.2718 H   0  0  0  0  0  0  0  0  0  0  0  0
  144.0775   76.1395  218.5207 H   0  0  0  0  0  0  0  0  0  0  0  0
  143.1748   78.4044  218.7616 H   0  0  0  0  0  0  0  0  0  0  0  0
  141.9094   77.2697  218.1364 H   0  0  0  0  0  0  0  0  0  0  0  0
  142.0826   78.7178  220.7620 H   0  0  0  0  0  0  0  0  0  0  0  0
  140.6480   78.2826  219.7200 H   0  0  0  0  0  0  0  0  0  0  0  0
  142.0194   76.6796  221.8766 H   0  0  0  0  0  0  0  0  0  0  0  0
  140.2598   76.9369  221.5367 H   0  0  0  0  0  0  0  0  0  0  0  0
  140.9342   74.6219  221.0178 H   0  0  0  0  0  0  0  0  0  0  0  0
  140.4418   75.5360  219.5253 H   0  0  0  0  0  0  0  0  0  0  0  0
  1  2  2  0
  2  3  1  0
  3  4  1  0
  4  5  2  0
  5  6  1  0
  5  7  1  0
  7  8  2  0
  8  9  1  0
  9 10  2  0
 10 11  1  0
 11 12  2  0
 12 13  1  0
 12 14  1  0
 14 15  2  0
 15 16  1  0
 16 17  2  0
  2 18  1  0
 18 19  1  0
 19 20  1  0
 20 21  1  0
 21 22  1  0
 22 23  1  0
 23 24  1  0
 24 25  1  0
 25 26  1  0
 26 27  1  0
 27 28  1  0
 28 29  1  0
 17  7  1  0
 23 18  1  0
 29 24  1  0
 16 10  1  0
  3 30  1  0
  3 31  1  0
  6 32  1  0
  8 33  1  0
  9 34  1  0
 11 35  1  0
 14 36  1  0
 15 37  1  0
 19 38  1  0
 19 39  1  0
 20 40  1  0
 20 41  1  0
 21 42  1  0
 21 43  1  0
 22 44  1  0
 22 45  1  0
 23 46  1  1
 24 47  1  0
 25 48  1  0
 25 49  1  0
 26 50  1  0
 26 51  1  0
 27 52  1  0
 27 53  1  0
 28 54  1  0
 28 55  1  0
 29 56  1  0
 29 57  1  0
M  END
>  <meeko>  (19) 
{"free_energy": -8.14, "intermolecular_energy": -10.23, "internal_energy": -1.41, "cluster_size": 5, "cluster_id": 3, "rank_in_cluster": 1}

$$$$

     RDKit          3D

 57 60  0  0  0  0  0  0  0  0999 V2000
  137.5480   75.9810  223.1990 O   0  0  0  0  0  0  0  0  0  0  0  0
  138.4290   75.8560  222.3060 C   0  0  0  0  0  0  0  0  0  0  0  0
  138.6950   74.4940  221.7440 C   0  0  0  0  0  0  0  0  0  0  0  0
  139.9040   73.9460  222.3440 N   0  0  0  0  0  0  0  0  0  0  0  0
  140.3170   72.7180  222.2220 C   0  0  0  0  0  0  0  0  0  0  0  0
  140.9330   72.2660  221.0510 O   0  0  0  0  0  0  0  0  0  0  0  0
  140.1150   71.7840  223.3450 C   0  0  0  0  0  0  0  0  0  0  0  0
  139.3420   70.6210  223.1900 C   0  0  0  0  0  0  0  0  0  0  0  0
  139.1550   69.7660  224.2780 C   0  0  0  0  0  0  0  0  0  0  0  0
  139.7340   70.0730  225.5140 C   0  0  0  0  0  0  0  0  0  0  0  0
  139.5640   69.2370  226.6280 C   0  0  0  0  0  0  0  0  0  0  0  0
  140.1550   69.5730  227.8510 C   0  0  0  0  0  0  0  0  0  0  0  0
  139.9900   68.7660  228.9280 F   0  0  0  0  0  0  0  0  0  0  0  0
  140.9170   70.7410  227.9670 C   0  0  0  0  0  0  0  0  0  0  0  0
  141.0920   71.5800  226.8610 C   0  0  0  0  0  0  0  0  0  0  0  0
  140.5050   71.2500  225.6340 C   0  0  0  0  0  0  0  0  0  0  0  0
  140.6710   72.0630  224.5570 N   0  0  0  0  0  0  0  0  0  0  0  0
  139.1620   77.0190  221.8600 N   0  0  0  0  0  0  0  0  0  0  0  0
  138.7070   77.6110  220.5920 C   0  0  0  0  0  0  0  0  0  0  0  0
  139.5040   77.0540  219.3930 C   0  0  0  0  0  0  0  0  0  0  0  0
  140.7850   76.3090  219.8060 C   0  0  0  0  0  0  0  0  0  0  0  0
  141.5010   77.0290  220.9510 C   0  0  0  0  0  0  0  0  0  0  0  0
  140.6010   77.1300  222.2140 C   0  0  1  0  0  0  0  0  0  0  0  0
  140.9560   78.3840  223.0820 C   0  0  0  0  0  0  0  0  0  0  0  0
  139.7950   79.4090  223.1220 C   0  0  0  0  0  0  0  0  0  0  0  0
  140.2560   80.7540  223.6910 C   0  0  0  0  0  0  0  0  0  0  0  0
  141.3350   81.4030  222.8000 C   0  0  0  0  0  0  0  0  0  0  0  0
  142.1580   80.3790  221.9930 C   0  0  0  0  0  0  0  0  0  0  0  0
  142.3240   79.0630  222.7660 C   0  0  0  0  0  0  0  0  0  0  0  0
  137.8440   73.8335  221.9664 H   0  0  0  0  0  0  0  0  0  0  0  0
  138.8286   74.5678  220.6546 H   0  0  0  0  0  0  0  0  0  0  0  0
  141.2330   72.8860  220.3090 H   0  0  0  0  0  0  0  0  0  0  0  0
  138.8866   70.3853  222.2168 H   0  0  0  0  0  0  0  0  0  0  0  0
  138.5533   68.8523  224.1634 H   0  0  0  0  0  0  0  0  0  0  0  0
  138.9663   68.3178  226.5399 H   0  0  0  0  0  0  0  0  0  0  0  0
  141.3798   71.0003  228.9306 H   0  0  0  0  0  0  0  0  0  0  0  0
  141.6904   72.4981  226.9557 H   0  0  0  0  0  0  0  0  0  0  0  0
  137.6407   77.3802  220.4514 H   0  0  0  0  0  0  0  0  0  0  0  0
  138.8677   78.6981  220.6398 H   0  0  0  0  0  0  0  0  0  0  0  0
  138.8585   76.3571  218.8383 H   0  0  0  0  0  0  0  0  0  0  0  0
  139.8110   77.9134  218.7789 H   0  0  0  0  0  0  0  0  0  0  0  0
  140.5193   75.2926  220.1321 H   0  0  0  0  0  0  0  0  0  0  0  0
  141.4619   76.2747  218.9396 H   0  0  0  0  0  0  0  0  0  0  0  0
  142.4145   76.4723  221.2071 H   0  0  0  0  0  0  0  0  0  0  0  0
  141.7433   78.0491  220.6183 H   0  0  0  0  0  0  0  0  0  0  0  0
  140.8132   76.2670  222.8622 H   0  0  0  0  0  0  0  0  0  0  0  0
  141.0929   77.9742  224.0936 H   0  0  0  0  0  0  0  0  0  0  0  0
  139.4183   79.5630  222.1001 H   0  0  0  0  0  0  0  0  0  0  0  0
  139.0037   79.0104  223.7739 H   0  0  0  0  0  0  0  0  0  0  0  0
  139.3910   81.4305  223.7555 H   0  0  0  0  0  0  0  0  0  0  0  0
  140.6896   80.5780  224.6865 H   0  0  0  0  0  0  0  0  0  0  0  0
  140.8401   82.0866  222.0945 H   0  0  0  0  0  0  0  0  0  0  0  0
  142.0340   81.9292  223.4667 H   0  0  0  0  0  0  0  0  0  0  0  0
  141.6426   80.1740  221.0431 H   0  0  0  0  0  0  0  0  0  0  0  0
  143.1566   80.8027  221.8106 H   0  0  0  0  0  0  0  0  0  0  0  0
  142.9303   78.3722  222.1618 H   0  0  0  0  0  0  0  0  0  0  0  0
  142.8129   79.2953  223.7236 H   0  0  0  0  0  0  0  0  0  0  0  0
  1  2  2  0
  2  3  1  0
  3  4  1  0
  4  5  2  0
  5  6  1  0
  5  7  1  0
  7  8  2  0
  8  9  1  0
  9 10  2  0
 10 11  1  0
 11 12  2  0
 12 13  1  0
 12 14  1  0
 14 15  2  0
 15 16  1  0
 16 17  2  0
  2 18  1  0
 18 19  1  0
 19 20  1  0
 20 21  1  0
 21 22  1  0
 22 23  1  0
 23 24  1  0
 24 25  1  0
 25 26  1  0
 26 27  1  0
 27 28  1  0
 28 29  1  0
 17  7  1  0
 23 18  1  0
 29 24  1  0
 16 10  1  0
  3 30  1  0
  3 31  1  0
  6 32  1  0
  8 33  1  0
  9 34  1  0
 11 35  1  0
 14 36  1  0
 15 37  1  0
 19 38  1  0
 19 39  1  0
 20 40  1  0
 20 41  1  0
 21 42  1  0
 21 43  1  0
 22 44  1  0
 22 45  1  0
 23 46  1  1
 24 47  1  0
 25 48  1  0
 25 49  1  0
 26 50  1  0
 26 51  1  0
 27 52  1  0
 27 53  1  0
 28 54  1  0
 28 55  1  0
 29 56  1  0
 29 57  1  0
M  END
>  <meeko>  (20) 
{"free_energy": -7.9, "intermolecular_energy": -9.99, "internal_energy": -1.32, "cluster_size": 5, "cluster_id": 1, "rank_in_cluster": 3}

$$$$
