
     RDKit          3D

 43 45  0  0  0  0  0  0  0  0999 V2000
  141.7130   77.2350  220.4590 C   0  0  0  0  0  0  0  0  0  0  0  0
  141.1170   77.3150  221.8710 C   0  0  2  0  0  0  0  0  0  0  0  0
  139.7190   76.8800  221.8700 N   0  0  0  0  0  0  0  0  0  0  0  0
  139.2670   75.5260  221.9940 C   0  0  0  0  0  0  0  0  0  0  0  0
  138.0170   75.2560  222.5540 O   0  0  0  0  0  0  0  0  0  0  0  0
  140.0640   74.5430  221.5700 C   0  0  0  0  0  0  0  0  0  0  0  0
  140.2630   73.3620  222.3600 N   0  0  0  0  0  0  0  0  0  0  0  0
  139.3570   72.4820  222.6820 C   0  0  0  0  0  0  0  0  0  0  0  0
  138.1460   72.4820  221.9950 O   0  0  0  0  0  0  0  0  0  0  0  0
  139.5500   71.4690  223.7390 C   0  0  0  0  0  0  0  0  0  0  0  0
  139.2990   70.1080  223.5010 C   0  0  0  0  0  0  0  0  0  0  0  0
  139.5380   69.1740  224.5110 C   0  0  0  0  0  0  0  0  0  0  0  0
  140.0460   69.5980  225.7440 C   0  0  0  0  0  0  0  0  0  0  0  0
  140.3000   68.6870  226.7810 C   0  0  0  0  0  0  0  0  0  0  0  0
  140.8180   69.1400  227.9980 C   0  0  0  0  0  0  0  0  0  0  0  0
  141.0630   68.2580  228.9990 F   0  0  0  0  0  0  0  0  0  0  0  0
  141.0840   70.5010  228.1870 C   0  0  0  0  0  0  0  0  0  0  0  0
  140.8340   71.4150  227.1590 C   0  0  0  0  0  0  0  0  0  0  0  0
  140.3140   70.9710  225.9380 C   0  0  0  0  0  0  0  0  0  0  0  0
  140.0690   71.8580  224.9360 N   0  0  0  0  0  0  0  0  0  0  0  0
  141.2590   78.6660  222.5540 C   0  0  0  0  0  0  0  0  0  0  0  0
  140.1800   79.3180  223.1900 C   0  0  0  0  0  0  0  0  0  0  0  0
  140.3720   80.5440  223.8310 C   0  0  0  0  0  0  0  0  0  0  0  0
  141.6380   81.1330  223.8560 C   0  0  0  0  0  0  0  0  0  0  0  0
  142.7170   80.4940  223.2430 C   0  0  0  0  0  0  0  0  0  0  0  0
  142.5310   79.2660  222.6000 C   0  0  0  0  0  0  0  0  0  0  0  0
  142.8011   77.0889  220.5280 H   0  0  0  0  0  0  0  0  0  0  0  0
  141.2631   76.3892  219.9185 H   0  0  0  0  0  0  0  0  0  0  0  0
  141.5020   78.1695  219.9185 H   0  0  0  0  0  0  0  0  0  0  0  0
  141.7232   76.6240  222.4752 H   0  0  0  0  0  0  0  0  0  0  0  0
  137.7930   74.3760  223.0030 H   0  0  0  0  0  0  0  0  0  0  0  0
  140.5756   74.6397  220.6010 H   0  0  0  0  0  0  0  0  0  0  0  0
  137.7590   73.3380  221.6150 H   0  0  0  0  0  0  0  0  0  0  0  0
  138.9160   69.7793  222.5236 H   0  0  0  0  0  0  0  0  0  0  0  0
  139.3276   68.1083  224.3380 H   0  0  0  0  0  0  0  0  0  0  0  0
  140.0915   67.6167  226.6362 H   0  0  0  0  0  0  0  0  0  0  0  0
  141.4908   70.8524  229.1467 H   0  0  0  0  0  0  0  0  0  0  0  0
  141.0462   72.4837  227.3100 H   0  0  0  0  0  0  0  0  0  0  0  0
  139.1812   78.8571  223.1806 H   0  0  0  0  0  0  0  0  0  0  0  0
  139.5234   81.0471  224.3176 H   0  0  0  0  0  0  0  0  0  0  0  0
  141.7848   82.1003  224.3587 H   0  0  0  0  0  0  0  0  0  0  0  0
  143.7147   80.9568  223.2657 H   0  0  0  0  0  0  0  0  0  0  0  0
  143.3874   78.7643  222.1257 H   0  0  0  0  0  0  0  0  0  0  0  0
  1  2  1  0
  2  3  1  0
  3  4  1  0
  4  5  1  0
  4  6  2  0
  6  7  1  0
  7  8  2  0
  8  9  1  0
  8 10  1  0
 10 11  2  0
 11 12  1  0
 12 13  2  0
 13 14  1  0
 14 15  2  0
 15 16  1  0
 15 17  1  0
 17 18  2  0
 18 19  1  0
 19 20  2  0
  2 21  1  0
 21 22  2  0
 22 23  1  0
 23 24  2  0
 24 25  1  0
 25 26  2  0
 20 10  1  0
 26 21  1  0
 19 13  1  0
  1 27  1  0
  1 28  1  0
  1 29  1  0
  2 30  1  1
  5 31  1  0
  6 32  1  0
  9 33  1  0
 11 34  1  0
 12 35  1  0
 14 36  1  0
 17 37  1  0
 18 38  1  0
 22 39  1  0
 23 40  1  0
 24 41  1  0
 25 42  1  0
 26 43  1  0
M  CHG  1   3  -1
M  END
>  <meeko>  (1) 
{"free_energy": -7.3, "intermolecular_energy": -9.99, "internal_energy": -1.97, "cluster_size": 9, "cluster_id": 1, "rank_in_cluster": 8}

$$$$

     RDKit          3D

 43 45  0  0  0  0  0  0  0  0999 V2000
  139.0690   68.8630  224.3890 C   0  0  0  0  0  0  0  0  0  0  0  0
  139.4470   70.3470  224.4960 C   0  0  2  0  0  0  0  0  0  0  0  0
  140.3150   70.7430  223.3860 N   0  0  0  0  0  0  0  0  0  0  0  0
  140.0480   71.7970  222.4530 C   0  0  0  0  0  0  0  0  0  0  0  0
  138.7370   72.0590  222.0520 O   0  0  0  0  0  0  0  0  0  0  0  0
  141.0730   72.5090  221.9800 C   0  0  0  0  0  0  0  0  0  0  0  0
  140.8560   73.7510  221.2960 N   0  0  0  0  0  0  0  0  0  0  0  0
  140.2130   74.7880  221.7560 C   0  0  0  0  0  0  0  0  0  0  0  0
  138.9670   74.5990  222.3480 O   0  0  0  0  0  0  0  0  0  0  0  0
  140.7460   76.1640  221.6940 C   0  0  0  0  0  0  0  0  0  0  0  0
  141.4400   76.6280  220.5650 C   0  0  0  0  0  0  0  0  0  0  0  0
  141.8890   77.9500  220.5250 C   0  0  0  0  0  0  0  0  0  0  0  0
  141.6260   78.8070  221.5990 C   0  0  0  0  0  0  0  0  0  0  0  0
  142.0600   80.1410  221.5920 C   0  0  0  0  0  0  0  0  0  0  0  0
  141.7730   80.9760  222.6760 C   0  0  0  0  0  0  0  0  0  0  0  0
  142.1930   82.2650  222.6680 F   0  0  0  0  0  0  0  0  0  0  0  0
  141.0530   80.4840  223.7710 C   0  0  0  0  0  0  0  0  0  0  0  0
  140.6160   79.1560  223.7860 C   0  0  0  0  0  0  0  0  0  0  0  0
  140.9010   78.3130  222.7060 C   0  0  0  0  0  0  0  0  0  0  0  0
  140.4780   77.0200  222.7180 N   0  0  0  0  0  0  0  0  0  0  0  0
  140.0540   70.7620  225.8270 C   0  0  0  0  0  0  0  0  0  0  0  0
  140.9010   71.8820  225.9650 C   0  0  0  0  0  0  0  0  0  0  0  0
  141.4060   72.2390  227.2180 C   0  0  0  0  0  0  0  0  0  0  0  0
  141.0700   71.4920  228.3490 C   0  0  0  0  0  0  0  0  0  0  0  0
  140.2220   70.3890  228.2300 C   0  0  0  0  0  0  0  0  0  0  0  0
  139.7130   70.0280  226.9790 C   0  0  0  0  0  0  0  0  0  0  0  0
  138.9609   68.4385  225.3980 H   0  0  0  0  0  0  0  0  0  0  0  0
  138.1173   68.7653  223.8462 H   0  0  0  0  0  0  0  0  0  0  0  0
  139.8580   68.3219  223.8462 H   0  0  0  0  0  0  0  0  0  0  0  0
  138.4917   70.8890  224.4355 H   0  0  0  0  0  0  0  0  0  0  0  0
  138.4830   72.8630  221.4910 H   0  0  0  0  0  0  0  0  0  0  0  0
  142.0994   72.1379  222.1167 H   0  0  0  0  0  0  0  0  0  0  0  0
  138.8260   73.8880  223.0550 H   0  0  0  0  0  0  0  0  0  0  0  0
  141.6291   75.9539  219.7165 H   0  0  0  0  0  0  0  0  0  0  0  0
  142.4480   78.3163  219.6513 H   0  0  0  0  0  0  0  0  0  0  0  0
  142.6264   80.5303  220.7331 H   0  0  0  0  0  0  0  0  0  0  0  0
  140.8303   81.1442  224.6222 H   0  0  0  0  0  0  0  0  0  0  0  0
  140.0480   78.7737  224.6470 H   0  0  0  0  0  0  0  0  0  0  0  0
  141.1658   72.4786  225.0796 H   0  0  0  0  0  0  0  0  0  0  0  0
  142.0700   73.1108  227.3137 H   0  0  0  0  0  0  0  0  0  0  0  0
  141.4732   71.7724  229.3333 H   0  0  0  0  0  0  0  0  0  0  0  0
  139.9541   69.8034  229.1218 H   0  0  0  0  0  0  0  0  0  0  0  0
  139.0397   69.1623  226.8939 H   0  0  0  0  0  0  0  0  0  0  0  0
  1  2  1  0
  2  3  1  0
  3  4  1  0
  4  5  1  0
  4  6  2  0
  6  7  1  0
  7  8  2  0
  8  9  1  0
  8 10  1  0
 10 11  2  0
 11 12  1  0
 12 13  2  0
 13 14  1  0
 14 15  2  0
 15 16  1  0
 15 17  1  0
 17 18  2  0
 18 19  1  0
 19 20  2  0
  2 21  1  0
 21 22  2  0
 22 23  1  0
 23 24  2  0
 24 25  1  0
 25 26  2  0
 20 10  1  0
 26 21  1  0
 19 13  1  0
  1 27  1  0
  1 28  1  0
  1 29  1  0
  2 30  1  6
  5 31  1  0
  6 32  1  0
  9 33  1  0
 11 34  1  0
 12 35  1  0
 14 36  1  0
 17 37  1  0
 18 38  1  0
 22 39  1  0
 23 40  1  0
 24 41  1  0
 25 42  1  0
 26 43  1  0
M  CHG  1   3  -1
M  END
>  <meeko>  (2) 
{"free_energy": -7.2, "intermolecular_energy": -9.89, "internal_energy": -2.27, "cluster_size": 6, "cluster_id": 2, "rank_in_cluster": 4}

$$$$

     RDKit          3D

 43 45  0  0  0  0  0  0  0  0999 V2000
  141.7890   77.8220  219.1560 C   0  0  0  0  0  0  0  0  0  0  0  0
  141.6430   77.3200  220.5990 C   0  0  2  0  0  0  0  0  0  0  0  0
  140.4380   76.5020  220.7450 N   0  0  0  0  0  0  0  0  0  0  0  0
  140.2980   75.3690  221.6100 C   0  0  0  0  0  0  0  0  0  0  0  0
  139.4580   75.4390  222.7230 O   0  0  0  0  0  0  0  0  0  0  0  0
  140.9870   74.2600  221.3310 C   0  0  0  0  0  0  0  0  0  0  0  0
  140.9180   73.1130  222.1890 N   0  0  0  0  0  0  0  0  0  0  0  0
  139.8390   72.5880  222.6970 C   0  0  0  0  0  0  0  0  0  0  0  0
  138.5990   73.0130  222.2270 O   0  0  0  0  0  0  0  0  0  0  0  0
  139.8590   71.5510  223.7470 C   0  0  0  0  0  0  0  0  0  0  0  0
  139.4630   70.2310  223.4780 C   0  0  0  0  0  0  0  0  0  0  0  0
  139.5400   69.2660  224.4850 C   0  0  0  0  0  0  0  0  0  0  0  0
  140.0320   69.6170  225.7470 C   0  0  0  0  0  0  0  0  0  0  0  0
  140.1250   68.6730  226.7820 C   0  0  0  0  0  0  0  0  0  0  0  0
  140.6310   69.0510  228.0300 C   0  0  0  0  0  0  0  0  0  0  0  0
  140.7210   68.1380  229.0280 F   0  0  0  0  0  0  0  0  0  0  0  0
  141.0450   70.3700  228.2500 C   0  0  0  0  0  0  0  0  0  0  0  0
  140.9550   71.3160  227.2250 C   0  0  0  0  0  0  0  0  0  0  0  0
  140.4490   70.9470  225.9730 C   0  0  0  0  0  0  0  0  0  0  0  0
  140.3590   71.8650  224.9740 N   0  0  0  0  0  0  0  0  0  0  0  0
  141.6910   78.4020  221.6660 C   0  0  0  0  0  0  0  0  0  0  0  0
  141.9250   79.7610  221.3650 C   0  0  0  0  0  0  0  0  0  0  0  0
  141.9260   80.7210  222.3810 C   0  0  0  0  0  0  0  0  0  0  0  0
  141.6870   80.3440  223.7040 C   0  0  0  0  0  0  0  0  0  0  0  0
  141.4410   79.0060  224.0140 C   0  0  0  0  0  0  0  0  0  0  0  0
  141.4380   78.0410  223.0020 C   0  0  0  0  0  0  0  0  0  0  0  0
  142.0962   78.8782  219.1645 H   0  0  0  0  0  0  0  0  0  0  0  0
  142.5501   77.2230  218.6346 H   0  0  0  0  0  0  0  0  0  0  0  0
  140.8253   77.7246  218.6346 H   0  0  0  0  0  0  0  0  0  0  0  0
  142.5369   76.7041  220.7769 H   0  0  0  0  0  0  0  0  0  0  0  0
  139.2050   74.6280  223.2750 H   0  0  0  0  0  0  0  0  0  0  0  0
  141.6168   74.2256  220.4298 H   0  0  0  0  0  0  0  0  0  0  0  0
  138.0880   73.7540  222.6920 H   0  0  0  0  0  0  0  0  0  0  0  0
  139.0937   69.9580  222.4785 H   0  0  0  0  0  0  0  0  0  0  0  0
  139.2151   68.2340  224.2866 H   0  0  0  0  0  0  0  0  0  0  0  0
  139.7999   67.6361  226.6115 H   0  0  0  0  0  0  0  0  0  0  0  0
  141.4425   70.6630  229.2329 H   0  0  0  0  0  0  0  0  0  0  0  0
  141.2820   72.3512  227.4023 H   0  0  0  0  0  0  0  0  0  0  0  0
  142.1078   80.0666  220.3242 H   0  0  0  0  0  0  0  0  0  0  0  0
  142.1157   81.7768  222.1375 H   0  0  0  0  0  0  0  0  0  0  0  0
  141.6926   81.1015  224.5016 H   0  0  0  0  0  0  0  0  0  0  0  0
  141.2492   78.7099  225.0559 H   0  0  0  0  0  0  0  0  0  0  0  0
  141.2358   76.9893  223.2530 H   0  0  0  0  0  0  0  0  0  0  0  0
  1  2  1  0
  2  3  1  0
  3  4  1  0
  4  5  1  0
  4  6  2  0
  6  7  1  0
  7  8  2  0
  8  9  1  0
  8 10  1  0
 10 11  2  0
 11 12  1  0
 12 13  2  0
 13 14  1  0
 14 15  2  0
 15 16  1  0
 15 17  1  0
 17 18  2  0
 18 19  1  0
 19 20  2  0
  2 21  1  0
 21 22  2  0
 22 23  1  0
 23 24  2  0
 24 25  1  0
 25 26  2  0
 20 10  1  0
 26 21  1  0
 19 13  1  0
  1 27  1  0
  1 28  1  0
  1 29  1  0
  2 30  1  1
  5 31  1  0
  6 32  1  0
  9 33  1  0
 11 34  1  0
 12 35  1  0
 14 36  1  0
 17 37  1  0
 18 38  1  0
 22 39  1  0
 23 40  1  0
 24 41  1  0
 25 42  1  0
 26 43  1  0
M  CHG  1   3  -1
M  END
>  <meeko>  (3) 
{"free_energy": -7.9, "intermolecular_energy": -10.58, "internal_energy": -1.93, "cluster_size": 9, "cluster_id": 1, "rank_in_cluster": 1}

$$$$

     RDKit          3D

 43 45  0  0  0  0  0  0  0  0999 V2000
  138.8360   69.0320  224.3380 C   0  0  0  0  0  0  0  0  0  0  0  0
  139.3970   70.4560  224.4560 C   0  0  2  0  0  0  0  0  0  0  0  0
  140.3230   70.7410  223.3590 N   0  0  0  0  0  0  0  0  0  0  0  0
  140.1530   71.7640  222.3690 C   0  0  0  0  0  0  0  0  0  0  0  0
  138.8840   72.0330  221.8530 O   0  0  0  0  0  0  0  0  0  0  0  0
  141.2270   72.4410  221.9560 C   0  0  0  0  0  0  0  0  0  0  0  0
  141.0940   73.7180  221.3170 N   0  0  0  0  0  0  0  0  0  0  0  0
  140.4100   74.7380  221.7570 C   0  0  0  0  0  0  0  0  0  0  0  0
  139.1720   74.5110  222.3520 O   0  0  0  0  0  0  0  0  0  0  0  0
  140.8880   76.1320  221.6680 C   0  0  0  0  0  0  0  0  0  0  0  0
  141.4730   76.6300  220.4930 C   0  0  0  0  0  0  0  0  0  0  0  0
  141.8710   77.9670  220.4310 C   0  0  0  0  0  0  0  0  0  0  0  0
  141.6640   78.8050  221.5320 C   0  0  0  0  0  0  0  0  0  0  0  0
  142.0500   80.1550  221.5040 C   0  0  0  0  0  0  0  0  0  0  0  0
  141.8200   80.9700  222.6170 C   0  0  0  0  0  0  0  0  0  0  0  0
  142.1920   82.2740  222.5890 F   0  0  0  0  0  0  0  0  0  0  0  0
  141.2060   80.4450  223.7600 C   0  0  0  0  0  0  0  0  0  0  0  0
  140.8190   79.1010  223.7950 C   0  0  0  0  0  0  0  0  0  0  0  0
  141.0460   78.2770  222.6870 C   0  0  0  0  0  0  0  0  0  0  0  0
  140.6720   76.9700  222.7180 N   0  0  0  0  0  0  0  0  0  0  0  0
  140.0350   70.7870  225.7960 C   0  0  0  0  0  0  0  0  0  0  0  0
  140.8940   71.8910  225.9810 C   0  0  0  0  0  0  0  0  0  0  0  0
  141.4280   72.1690  227.2420 C   0  0  0  0  0  0  0  0  0  0  0  0
  141.1090   71.3600  228.3350 C   0  0  0  0  0  0  0  0  0  0  0  0
  140.2500   70.2720  228.1690 C   0  0  0  0  0  0  0  0  0  0  0  0
  139.7120   69.9890  226.9100 C   0  0  0  0  0  0  0  0  0  0  0  0
  138.6728   68.6177  225.3438 H   0  0  0  0  0  0  0  0  0  0  0  0
  137.8810   69.0582  223.7928 H   0  0  0  0  0  0  0  0  0  0  0  0
  139.5522   68.3997  223.7928 H   0  0  0  0  0  0  0  0  0  0  0  0
  138.5189   71.1148  224.3859 H   0  0  0  0  0  0  0  0  0  0  0  0
  138.6690   72.8720  221.3280 H   0  0  0  0  0  0  0  0  0  0  0  0
  142.2288   72.0130  222.1081 H   0  0  0  0  0  0  0  0  0  0  0  0
  139.0560   73.8010  223.0650 H   0  0  0  0  0  0  0  0  0  0  0  0
  141.6172   75.9699  219.6250 H   0  0  0  0  0  0  0  0  0  0  0  0
  142.3456   78.3600  219.5198 H   0  0  0  0  0  0  0  0  0  0  0  0
  142.5328   80.5710  220.6074 H   0  0  0  0  0  0  0  0  0  0  0  0
  141.0273   81.0905  224.6326 H   0  0  0  0  0  0  0  0  0  0  0  0
  140.3358   78.6916  224.6944 H   0  0  0  0  0  0  0  0  0  0  0  0
  141.1450   72.5371  225.1269 H   0  0  0  0  0  0  0  0  0  0  0  0
  142.1021   73.0281  227.3744 H   0  0  0  0  0  0  0  0  0  0  0  0
  141.5341   71.5799  229.3254 H   0  0  0  0  0  0  0  0  0  0  0  0
  139.9961   69.6364  229.0302 H   0  0  0  0  0  0  0  0  0  0  0  0
  139.0298   69.1347  226.7886 H   0  0  0  0  0  0  0  0  0  0  0  0
  1  2  1  0
  2  3  1  0
  3  4  1  0
  4  5  1  0
  4  6  2  0
  6  7  1  0
  7  8  2  0
  8  9  1  0
  8 10  1  0
 10 11  2  0
 11 12  1  0
 12 13  2  0
 13 14  1  0
 14 15  2  0
 15 16  1  0
 15 17  1  0
 17 18  2  0
 18 19  1  0
 19 20  2  0
  2 21  1  0
 21 22  2  0
 22 23  1  0
 23 24  2  0
 24 25  1  0
 25 26  2  0
 20 10  1  0
 26 21  1  0
 19 13  1  0
  1 27  1  0
  1 28  1  0
  1 29  1  0
  2 30  1  6
  5 31  1  0
  6 32  1  0
  9 33  1  0
 11 34  1  0
 12 35  1  0
 14 36  1  0
 17 37  1  0
 18 38  1  0
 22 39  1  0
 23 40  1  0
 24 41  1  0
 25 42  1  0
 26 43  1  0
M  CHG  1   3  -1
M  END
>  <meeko>  (4) 
{"free_energy": -7.25, "intermolecular_energy": -9.94, "internal_energy": -2.22, "cluster_size": 6, "cluster_id": 2, "rank_in_cluster": 3}

$$$$

     RDKit          3D

 43 45  0  0  0  0  0  0  0  0999 V2000
  141.4620   75.8340  221.2180 C   0  0  0  0  0  0  0  0  0  0  0  0
  141.7740   74.7750  220.1520 C   0  0  2  0  0  0  0  0  0  0  0  0
  140.7010   73.7810  220.0770 N   0  0  0  0  0  0  0  0  0  0  0  0
  140.1560   73.0580  221.1870 C   0  0  0  0  0  0  0  0  0  0  0  0
  139.7500   73.7410  222.3350 O   0  0  0  0  0  0  0  0  0  0  0  0
  140.0520   71.7300  221.0980 C   0  0  0  0  0  0  0  0  0  0  0  0
  138.9470   71.0340  221.6910 N   0  0  0  0  0  0  0  0  0  0  0  0
  138.4910   71.1920  222.9020 C   0  0  0  0  0  0  0  0  0  0  0  0
  137.5470   72.1870  223.1420 O   0  0  0  0  0  0  0  0  0  0  0  0
  138.9180   70.3570  224.0430 C   0  0  0  0  0  0  0  0  0  0  0  0
  138.7650   68.9610  224.0240 C   0  0  0  0  0  0  0  0  0  0  0  0
  139.2220   68.2010  225.1030 C   0  0  0  0  0  0  0  0  0  0  0  0
  139.8490   68.8320  226.1820 C   0  0  0  0  0  0  0  0  0  0  0  0
  140.3240   68.0990  227.2810 C   0  0  0  0  0  0  0  0  0  0  0  0
  140.9550   68.7580  228.3410 C   0  0  0  0  0  0  0  0  0  0  0  0
  141.4130   68.0490  229.4020 F   0  0  0  0  0  0  0  0  0  0  0  0
  141.1170   70.1480  228.3090 C   0  0  0  0  0  0  0  0  0  0  0  0
  140.6480   70.8860  227.2170 C   0  0  0  0  0  0  0  0  0  0  0  0
  140.0120   70.2350  226.1530 C   0  0  0  0  0  0  0  0  0  0  0  0
  139.5540   70.9490  225.0900 N   0  0  0  0  0  0  0  0  0  0  0  0
  143.1270   74.0950  220.2960 C   0  0  0  0  0  0  0  0  0  0  0  0
  144.3310   74.8150  220.4450 C   0  0  0  0  0  0  0  0  0  0  0  0
  145.5440   74.1400  220.6060 C   0  0  0  0  0  0  0  0  0  0  0  0
  145.5740   72.7450  220.6300 C   0  0  0  0  0  0  0  0  0  0  0  0
  144.3880   72.0200  220.4970 C   0  0  0  0  0  0  0  0  0  0  0  0
  143.1710   72.6890  220.3360 C   0  0  0  0  0  0  0  0  0  0  0  0
  141.5910   75.3960  222.2188 H   0  0  0  0  0  0  0  0  0  0  0  0
  142.1472   76.6864  221.0997 H   0  0  0  0  0  0  0  0  0  0  0  0
  140.4241   76.1787  221.0997 H   0  0  0  0  0  0  0  0  0  0  0  0
  141.8335   75.3334  219.2061 H   0  0  0  0  0  0  0  0  0  0  0  0
  139.3440   73.2760  223.1380 H   0  0  0  0  0  0  0  0  0  0  0  0
  140.8256   71.1609  220.5617 H   0  0  0  0  0  0  0  0  0  0  0  0
  137.7930   73.1680  223.0820 H   0  0  0  0  0  0  0  0  0  0  0  0
  138.2877   68.4688  223.1638 H   0  0  0  0  0  0  0  0  0  0  0  0
  139.0891   67.1091  225.1040 H   0  0  0  0  0  0  0  0  0  0  0  0
  140.1999   67.0064  227.3085 H   0  0  0  0  0  0  0  0  0  0  0  0
  141.6145   70.6615  229.1449 H   0  0  0  0  0  0  0  0  0  0  0  0
  140.7789   71.9779  227.1943 H   0  0  0  0  0  0  0  0  0  0  0  0
  144.3149   75.9148  220.4344 H   0  0  0  0  0  0  0  0  0  0  0  0
  146.4784   74.7102  220.7142 H   0  0  0  0  0  0  0  0  0  0  0  0
  146.5311   72.2170  220.7536 H   0  0  0  0  0  0  0  0  0  0  0  0
  144.4113   70.9205  220.5189 H   0  0  0  0  0  0  0  0  0  0  0  0
  142.2398   72.1114  220.2398 H   0  0  0  0  0  0  0  0  0  0  0  0
  1  2  1  0
  2  3  1  0
  3  4  1  0
  4  5  1  0
  4  6  2  0
  6  7  1  0
  7  8  2  0
  8  9  1  0
  8 10  1  0
 10 11  2  0
 11 12  1  0
 12 13  2  0
 13 14  1  0
 14 15  2  0
 15 16  1  0
 15 17  1  0
 17 18  2  0
 18 19  1  0
 19 20  2  0
  2 21  1  0
 21 22  2  0
 22 23  1  0
 23 24  2  0
 24 25  1  0
 25 26  2  0
 20 10  1  0
 26 21  1  0
 19 13  1  0
  1 27  1  0
  1 28  1  0
  1 29  1  0
  2 30  1  6
  5 31  1  0
  6 32  1  0
  9 33  1  0
 11 34  1  0
 12 35  1  0
 14 36  1  0
 17 37  1  0
 18 38  1  0
 22 39  1  0
 23 40  1  0
 24 41  1  0
 25 42  1  0
 26 43  1  0
M  CHG  1   3  -1
M  END
>  <meeko>  (5) 
{"free_energy": -7.03, "intermolecular_energy": -9.71, "internal_energy": -2.08, "cluster_size": 3, "cluster_id": 3, "rank_in_cluster": 1}

$$$$

     RDKit          3D

 43 45  0  0  0  0  0  0  0  0999 V2000
  141.9740   77.7730  219.2850 C   0  0  0  0  0  0  0  0  0  0  0  0
  141.7190   77.3110  220.7260 C   0  0  2  0  0  0  0  0  0  0  0  0
  140.4450   76.5980  220.8240 N   0  0  0  0  0  0  0  0  0  0  0  0
  140.1970   75.4400  221.6320 C   0  0  0  0  0  0  0  0  0  0  0  0
  139.3340   75.5230  222.7260 O   0  0  0  0  0  0  0  0  0  0  0  0
  140.8100   74.2960  221.3180 C   0  0  0  0  0  0  0  0  0  0  0  0
  140.7990   73.1810  222.2190 N   0  0  0  0  0  0  0  0  0  0  0  0
  139.7460   72.6160  222.7410 C   0  0  0  0  0  0  0  0  0  0  0  0
  138.4840   73.0170  222.3100 O   0  0  0  0  0  0  0  0  0  0  0  0
  139.8200   71.5550  223.7650 C   0  0  0  0  0  0  0  0  0  0  0  0
  139.4670   70.2280  223.4700 C   0  0  0  0  0  0  0  0  0  0  0  0
  139.5940   69.2440  224.4520 C   0  0  0  0  0  0  0  0  0  0  0  0
  140.0920   69.5820  225.7150 C   0  0  0  0  0  0  0  0  0  0  0  0
  140.2350   68.6180  226.7260 C   0  0  0  0  0  0  0  0  0  0  0  0
  140.7450   68.9860  227.9750 C   0  0  0  0  0  0  0  0  0  0  0  0
  140.8830   68.0540  228.9500 F   0  0  0  0  0  0  0  0  0  0  0  0
  141.1150   70.3130  228.2210 C   0  0  0  0  0  0  0  0  0  0  0  0
  140.9760   71.2790  227.2200 C   0  0  0  0  0  0  0  0  0  0  0  0
  140.4640   70.9210  225.9670 C   0  0  0  0  0  0  0  0  0  0  0  0
  140.3270   71.8590  224.9910 N   0  0  0  0  0  0  0  0  0  0  0  0
  141.8040   78.4070  221.7780 C   0  0  0  0  0  0  0  0  0  0  0  0
  142.1750   79.7330  221.4710 C   0  0  0  0  0  0  0  0  0  0  0  0
  142.2060   80.7090  222.4700 C   0  0  0  0  0  0  0  0  0  0  0  0
  141.8610   80.3820  223.7830 C   0  0  0  0  0  0  0  0  0  0  0  0
  141.4780   79.0770  224.0980 C   0  0  0  0  0  0  0  0  0  0  0  0
  141.4450   78.0960  223.1020 C   0  0  0  0  0  0  0  0  0  0  0  0
  142.5055   78.7360  219.2973 H   0  0  0  0  0  0  0  0  0  0  0  0
  142.5860   77.0231  218.7624 H   0  0  0  0  0  0  0  0  0  0  0  0
  141.0133   77.8911  218.7624 H   0  0  0  0  0  0  0  0  0  0  0  0
  142.5492   76.6274  220.9572 H   0  0  0  0  0  0  0  0  0  0  0  0
  139.2090   74.7660  223.3880 H   0  0  0  0  0  0  0  0  0  0  0  0
  141.3313   74.2078  220.3534 H   0  0  0  0  0  0  0  0  0  0  0  0
  138.0120   73.8060  222.7350 H   0  0  0  0  0  0  0  0  0  0  0  0
  139.0922   69.9653  222.4698 H   0  0  0  0  0  0  0  0  0  0  0  0
  139.3034   68.2059  224.2334 H   0  0  0  0  0  0  0  0  0  0  0  0
  139.9460   67.5739  226.5356 H   0  0  0  0  0  0  0  0  0  0  0  0
  141.5165   70.5969  229.2050 H   0  0  0  0  0  0  0  0  0  0  0  0
  141.2690   72.3208  227.4169 H   0  0  0  0  0  0  0  0  0  0  0  0
  142.4417   80.0003  220.4378 H   0  0  0  0  0  0  0  0  0  0  0  0
  142.5032   81.7385  222.2215 H   0  0  0  0  0  0  0  0  0  0  0  0
  141.8910   81.1518  224.5682 H   0  0  0  0  0  0  0  0  0  0  0  0
  141.2017   78.8200  225.1313 H   0  0  0  0  0  0  0  0  0  0  0  0
  141.1354   77.0716  223.3563 H   0  0  0  0  0  0  0  0  0  0  0  0
  1  2  1  0
  2  3  1  0
  3  4  1  0
  4  5  1  0
  4  6  2  0
  6  7  1  0
  7  8  2  0
  8  9  1  0
  8 10  1  0
 10 11  2  0
 11 12  1  0
 12 13  2  0
 13 14  1  0
 14 15  2  0
 15 16  1  0
 15 17  1  0
 17 18  2  0
 18 19  1  0
 19 20  2  0
  2 21  1  0
 21 22  2  0
 22 23  1  0
 23 24  2  0
 24 25  1  0
 25 26  2  0
 20 10  1  0
 26 21  1  0
 19 13  1  0
  1 27  1  0
  1 28  1  0
  1 29  1  0
  2 30  1  1
  5 31  1  0
  6 32  1  0
  9 33  1  0
 11 34  1  0
 12 35  1  0
 14 36  1  0
 17 37  1  0
 18 38  1  0
 22 39  1  0
 23 40  1  0
 24 41  1  0
 25 42  1  0
 26 43  1  0
M  CHG  1   3  -1
M  END
>  <meeko>  (6) 
{"free_energy": -7.86, "intermolecular_energy": -10.55, "internal_energy": -2.03, "cluster_size": 9, "cluster_id": 1, "rank_in_cluster": 3}

$$$$

     RDKit          3D

 43 45  0  0  0  0  0  0  0  0999 V2000
  138.9740   68.7400  224.5120 C   0  0  0  0  0  0  0  0  0  0  0  0
  139.2750   70.2410  224.6210 C   0  0  2  0  0  0  0  0  0  0  0  0
  140.0550   70.6990  223.4700 N   0  0  0  0  0  0  0  0  0  0  0  0
  139.7920   71.8790  222.7010 C   0  0  0  0  0  0  0  0  0  0  0  0
  138.5150   72.4420  222.7000 O   0  0  0  0  0  0  0  0  0  0  0  0
  140.7870   72.4150  221.9900 C   0  0  0  0  0  0  0  0  0  0  0  0
  141.0100   73.8320  221.9840 N   0  0  0  0  0  0  0  0  0  0  0  0
  140.1820   74.7460  221.5600 C   0  0  0  0  0  0  0  0  0  0  0  0
  138.9110   74.3610  221.1440 O   0  0  0  0  0  0  0  0  0  0  0  0
  140.5200   76.1820  221.5090 C   0  0  0  0  0  0  0  0  0  0  0  0
  140.2600   76.9530  220.3640 C   0  0  0  0  0  0  0  0  0  0  0  0
  140.5500   78.3190  220.3690 C   0  0  0  0  0  0  0  0  0  0  0  0
  141.0780   78.9130  221.5210 C   0  0  0  0  0  0  0  0  0  0  0  0
  141.3800   80.2830  221.5620 C   0  0  0  0  0  0  0  0  0  0  0  0
  141.8960   80.8500  222.7320 C   0  0  0  0  0  0  0  0  0  0  0  0
  142.1880   82.1740  222.7710 F   0  0  0  0  0  0  0  0  0  0  0  0
  142.1130   80.0540  223.8630 C   0  0  0  0  0  0  0  0  0  0  0  0
  141.8150   78.6890  223.8300 C   0  0  0  0  0  0  0  0  0  0  0  0
  141.2990   78.1120  222.6630 C   0  0  0  0  0  0  0  0  0  0  0  0
  141.0090   76.7840  222.6270 N   0  0  0  0  0  0  0  0  0  0  0  0
  139.9340   70.6720  225.9220 C   0  0  0  0  0  0  0  0  0  0  0  0
  139.8270   69.9280  227.1160 C   0  0  0  0  0  0  0  0  0  0  0  0
  140.4800   70.3530  228.2760 C   0  0  0  0  0  0  0  0  0  0  0  0
  141.2520   71.5170  228.2620 C   0  0  0  0  0  0  0  0  0  0  0  0
  141.3770   72.2560  227.0840 C   0  0  0  0  0  0  0  0  0  0  0  0
  140.7270   71.8350  225.9200 C   0  0  0  0  0  0  0  0  0  0  0  0
  138.8876   68.3092  225.5204 H   0  0  0  0  0  0  0  0  0  0  0  0
  138.0287   68.5941  223.9687 H   0  0  0  0  0  0  0  0  0  0  0  0
  139.7899   68.2409  223.9687 H   0  0  0  0  0  0  0  0  0  0  0  0
  138.2894   70.7295  224.6233 H   0  0  0  0  0  0  0  0  0  0  0  0
  138.3350   73.4000  222.9780 H   0  0  0  0  0  0  0  0  0  0  0  0
  141.4454   71.7603  221.4002 H   0  0  0  0  0  0  0  0  0  0  0  0
  138.5360   73.4490  221.3800 H   0  0  0  0  0  0  0  0  0  0  0  0
  139.8298   76.4829  219.4674 H   0  0  0  0  0  0  0  0  0  0  0  0
  140.3641   78.9260  219.4707 H   0  0  0  0  0  0  0  0  0  0  0  0
  141.2110   80.9105  220.6745 H   0  0  0  0  0  0  0  0  0  0  0  0
  142.5194   80.5044  224.7806 H   0  0  0  0  0  0  0  0  0  0  0  0
  141.9859   78.0674  224.7213 H   0  0  0  0  0  0  0  0  0  0  0  0
  139.2255   69.0072  227.1339 H   0  0  0  0  0  0  0  0  0  0  0  0
  140.3858   69.7689  229.2033 H   0  0  0  0  0  0  0  0  0  0  0  0
  141.7610   71.8511  229.1781 H   0  0  0  0  0  0  0  0  0  0  0  0
  141.9878   73.1708  227.0717 H   0  0  0  0  0  0  0  0  0  0  0  0
  140.8363   72.4182  224.9937 H   0  0  0  0  0  0  0  0  0  0  0  0
  1  2  1  0
  2  3  1  0
  3  4  1  0
  4  5  1  0
  4  6  2  0
  6  7  1  0
  7  8  2  0
  8  9  1  0
  8 10  1  0
 10 11  2  0
 11 12  1  0
 12 13  2  0
 13 14  1  0
 14 15  2  0
 15 16  1  0
 15 17  1  0
 17 18  2  0
 18 19  1  0
 19 20  2  0
  2 21  1  0
 21 22  2  0
 22 23  1  0
 23 24  2  0
 24 25  1  0
 25 26  2  0
 20 10  1  0
 26 21  1  0
 19 13  1  0
  1 27  1  0
  1 28  1  0
  1 29  1  0
  2 30  1  6
  5 31  1  0
  6 32  1  0
  9 33  1  0
 11 34  1  0
 12 35  1  0
 14 36  1  0
 17 37  1  0
 18 38  1  0
 22 39  1  0
 23 40  1  0
 24 41  1  0
 25 42  1  0
 26 43  1  0
M  CHG  1   3  -1
M  END
>  <meeko>  (7) 
{"free_energy": -7.2, "intermolecular_energy": -9.88, "internal_energy": -2.04, "cluster_size": 6, "cluster_id": 2, "rank_in_cluster": 5}

$$$$

     RDKit          3D

 43 45  0  0  0  0  0  0  0  0999 V2000
  142.0400   75.6840  218.7350 C   0  0  0  0  0  0  0  0  0  0  0  0
  142.0350   74.4000  219.5750 C   0  0  2  0  0  0  0  0  0  0  0  0
  141.2280   74.5730  220.7840 N   0  0  0  0  0  0  0  0  0  0  0  0
  140.4610   73.5490  221.4290 C   0  0  0  0  0  0  0  0  0  0  0  0
  139.9520   73.7610  222.7120 O   0  0  0  0  0  0  0  0  0  0  0  0
  140.2540   72.4000  220.7820 C   0  0  0  0  0  0  0  0  0  0  0  0
  139.3920   71.3920  221.3270 N   0  0  0  0  0  0  0  0  0  0  0  0
  138.7410   71.4540  222.4550 C   0  0  0  0  0  0  0  0  0  0  0  0
  137.6840   72.3520  222.5730 O   0  0  0  0  0  0  0  0  0  0  0  0
  139.0600   70.6070  223.6210 C   0  0  0  0  0  0  0  0  0  0  0  0
  138.8010   69.2270  223.6160 C   0  0  0  0  0  0  0  0  0  0  0  0
  139.1590   68.4520  224.7200 C   0  0  0  0  0  0  0  0  0  0  0  0
  139.7930   69.0510  225.8140 C   0  0  0  0  0  0  0  0  0  0  0  0
  140.1690   68.3010  226.9400 C   0  0  0  0  0  0  0  0  0  0  0  0
  140.8100   68.9270  228.0140 C   0  0  0  0  0  0  0  0  0  0  0  0
  141.1730   68.2020  229.1010 F   0  0  0  0  0  0  0  0  0  0  0  0
  141.0790   70.3000  227.9700 C   0  0  0  0  0  0  0  0  0  0  0  0
  140.7080   71.0540  226.8510 C   0  0  0  0  0  0  0  0  0  0  0  0
  140.0640   70.4360  225.7730 C   0  0  0  0  0  0  0  0  0  0  0  0
  139.7010   71.1660  224.6840 N   0  0  0  0  0  0  0  0  0  0  0  0
  143.4110   73.8520  219.9220 C   0  0  0  0  0  0  0  0  0  0  0  0
  144.4450   74.6580  220.4440 C   0  0  0  0  0  0  0  0  0  0  0  0
  145.6810   74.0980  220.7760 C   0  0  0  0  0  0  0  0  0  0  0  0
  145.9020   72.7300  220.6010 C   0  0  0  0  0  0  0  0  0  0  0  0
  144.8840   71.9180  220.0980 C   0  0  0  0  0  0  0  0  0  0  0  0
  143.6440   72.4730  219.7640 C   0  0  0  0  0  0  0  0  0  0  0  0
  142.0434   76.5586  219.4021 H   0  0  0  0  0  0  0  0  0  0  0  0
  142.9382   75.7035  218.1003 H   0  0  0  0  0  0  0  0  0  0  0  0
  141.1419   75.7104  218.1003 H   0  0  0  0  0  0  0  0  0  0  0  0
  141.5783   73.6381  218.9261 H   0  0  0  0  0  0  0  0  0  0  0  0
  139.6330   73.0080  223.3090 H   0  0  0  0  0  0  0  0  0  0  0  0
  140.7517   72.2239  219.8170 H   0  0  0  0  0  0  0  0  0  0  0  0
  137.8430   73.3150  222.8460 H   0  0  0  0  0  0  0  0  0  0  0  0
  138.3180   68.7588  222.7457 H   0  0  0  0  0  0  0  0  0  0  0  0
  138.9434   67.3734  224.7301 H   0  0  0  0  0  0  0  0  0  0  0  0
  139.9596   67.2218  226.9774 H   0  0  0  0  0  0  0  0  0  0  0  0
  141.5834   70.7876  228.8173 H   0  0  0  0  0  0  0  0  0  0  0  0
  140.9225   72.1324  226.8187 H   0  0  0  0  0  0  0  0  0  0  0  0
  144.2766   75.7351  220.5906 H   0  0  0  0  0  0  0  0  0  0  0  0
  146.4825   74.7362  221.1764 H   0  0  0  0  0  0  0  0  0  0  0  0
  146.8777   72.2927  220.8594 H   0  0  0  0  0  0  0  0  0  0  0  0
  145.0571   70.8400  219.9640 H   0  0  0  0  0  0  0  0  0  0  0  0
  142.8442   71.8260  219.3745 H   0  0  0  0  0  0  0  0  0  0  0  0
  1  2  1  0
  2  3  1  0
  3  4  1  0
  4  5  1  0
  4  6  2  0
  6  7  1  0
  7  8  2  0
  8  9  1  0
  8 10  1  0
 10 11  2  0
 11 12  1  0
 12 13  2  0
 13 14  1  0
 14 15  2  0
 15 16  1  0
 15 17  1  0
 17 18  2  0
 18 19  1  0
 19 20  2  0
  2 21  1  0
 21 22  2  0
 22 23  1  0
 23 24  2  0
 24 25  1  0
 25 26  2  0
 20 10  1  0
 26 21  1  0
 19 13  1  0
  1 27  1  0
  1 28  1  0
  1 29  1  0
  2 30  1  6
  5 31  1  0
  6 32  1  0
  9 33  1  0
 11 34  1  0
 12 35  1  0
 14 36  1  0
 17 37  1  0
 18 38  1  0
 22 39  1  0
 23 40  1  0
 24 41  1  0
 25 42  1  0
 26 43  1  0
M  CHG  1   3  -1
M  END
>  <meeko>  (8) 
{"free_energy": -6.79, "intermolecular_energy": -9.48, "internal_energy": -2.38, "cluster_size": 3, "cluster_id": 3, "rank_in_cluster": 2}

$$$$

     RDKit          3D

 43 45  0  0  0  0  0  0  0  0999 V2000
  141.9510   77.6680  219.2490 C   0  0  0  0  0  0  0  0  0  0  0  0
  141.6270   77.2760  220.6970 C   0  0  2  0  0  0  0  0  0  0  0  0
  140.3850   76.5030  220.7600 N   0  0  0  0  0  0  0  0  0  0  0  0
  140.1630   75.3460  221.5750 C   0  0  0  0  0  0  0  0  0  0  0  0
  139.3850   75.4450  222.7310 O   0  0  0  0  0  0  0  0  0  0  0  0
  140.7160   74.1880  221.2080 C   0  0  0  0  0  0  0  0  0  0  0  0
  140.6960   73.0510  222.0830 N   0  0  0  0  0  0  0  0  0  0  0  0
  139.6520   72.5510  222.6810 C   0  0  0  0  0  0  0  0  0  0  0  0
  138.3850   72.9890  222.3020 O   0  0  0  0  0  0  0  0  0  0  0  0
  139.7390   71.5270  223.7420 C   0  0  0  0  0  0  0  0  0  0  0  0
  139.3910   70.1890  223.4960 C   0  0  0  0  0  0  0  0  0  0  0  0
  139.5300   69.2410  224.5110 C   0  0  0  0  0  0  0  0  0  0  0  0
  140.0360   69.6260  225.7580 C   0  0  0  0  0  0  0  0  0  0  0  0
  140.1910   68.6980  226.8000 C   0  0  0  0  0  0  0  0  0  0  0  0
  140.7090   69.1120  228.0310 C   0  0  0  0  0  0  0  0  0  0  0  0
  140.8590   68.2150  229.0380 F   0  0  0  0  0  0  0  0  0  0  0  0
  141.0740   70.4490  228.2280 C   0  0  0  0  0  0  0  0  0  0  0  0
  140.9220   71.3780  227.1950 C   0  0  0  0  0  0  0  0  0  0  0  0
  140.4030   70.9740  225.9600 C   0  0  0  0  0  0  0  0  0  0  0  0
  140.2530   71.8760  224.9520 N   0  0  0  0  0  0  0  0  0  0  0  0
  141.5920   78.4310  221.6840 C   0  0  0  0  0  0  0  0  0  0  0  0
  141.3980   78.2470  223.0700 C   0  0  0  0  0  0  0  0  0  0  0  0
  141.4060   79.3410  223.9390 C   0  0  0  0  0  0  0  0  0  0  0  0
  141.6150   80.6300  223.4430 C   0  0  0  0  0  0  0  0  0  0  0  0
  141.8210   80.8260  222.0760 C   0  0  0  0  0  0  0  0  0  0  0  0
  141.8140   79.7340  221.2020 C   0  0  0  0  0  0  0  0  0  0  0  0
  142.6518   78.5159  219.2467 H   0  0  0  0  0  0  0  0  0  0  0  0
  142.4090   76.8123  218.7312 H   0  0  0  0  0  0  0  0  0  0  0  0
  141.0244   77.9567  218.7312 H   0  0  0  0  0  0  0  0  0  0  0  0
  142.4731   76.6511  221.0187 H   0  0  0  0  0  0  0  0  0  0  0  0
  139.2060   74.6580  223.3420 H   0  0  0  0  0  0  0  0  0  0  0  0
  141.1939   74.1041  220.2208 H   0  0  0  0  0  0  0  0  0  0  0  0
  137.9670   73.8090  222.7250 H   0  0  0  0  0  0  0  0  0  0  0  0
  139.0107   69.8895  222.5082 H   0  0  0  0  0  0  0  0  0  0  0  0
  139.2427   68.1945  224.3315 H   0  0  0  0  0  0  0  0  0  0  0  0
  139.9053   67.6466  226.6482 H   0  0  0  0  0  0  0  0  0  0  0  0
  141.4815   70.7692  229.1983 H   0  0  0  0  0  0  0  0  0  0  0  0
  141.2106   72.4276  227.3530 H   0  0  0  0  0  0  0  0  0  0  0  0
  141.2393   77.2343  223.4691 H   0  0  0  0  0  0  0  0  0  0  0  0
  141.2473   79.1869  225.0165 H   0  0  0  0  0  0  0  0  0  0  0  0
  141.6173   81.4900  224.1288 H   0  0  0  0  0  0  0  0  0  0  0  0
  141.9890   81.8407  221.6858 H   0  0  0  0  0  0  0  0  0  0  0  0
  141.9837   79.8955  220.1272 H   0  0  0  0  0  0  0  0  0  0  0  0
  1  2  1  0
  2  3  1  0
  3  4  1  0
  4  5  1  0
  4  6  2  0
  6  7  1  0
  7  8  2  0
  8  9  1  0
  8 10  1  0
 10 11  2  0
 11 12  1  0
 12 13  2  0
 13 14  1  0
 14 15  2  0
 15 16  1  0
 15 17  1  0
 17 18  2  0
 18 19  1  0
 19 20  2  0
  2 21  1  0
 21 22  2  0
 22 23  1  0
 23 24  2  0
 24 25  1  0
 25 26  2  0
 20 10  1  0
 26 21  1  0
 19 13  1  0
  1 27  1  0
  1 28  1  0
  1 29  1  0
  2 30  1  1
  5 31  1  0
  6 32  1  0
  9 33  1  0
 11 34  1  0
 12 35  1  0
 14 36  1  0
 17 37  1  0
 18 38  1  0
 22 39  1  0
 23 40  1  0
 24 41  1  0
 25 42  1  0
 26 43  1  0
M  CHG  1   3  -1
M  END
>  <meeko>  (9) 
{"free_energy": -7.82, "intermolecular_energy": -10.51, "internal_energy": -2.02, "cluster_size": 9, "cluster_id": 1, "rank_in_cluster": 4}

$$$$

     RDKit          3D

 43 45  0  0  0  0  0  0  0  0999 V2000
  139.2170   68.7200  224.5050 C   0  0  0  0  0  0  0  0  0  0  0  0
  139.3710   70.2400  224.6520 C   0  0  2  0  0  0  0  0  0  0  0  0
  140.0250   70.8110  223.4730 N   0  0  0  0  0  0  0  0  0  0  0  0
  139.5150   71.8870  222.6750 C   0  0  0  0  0  0  0  0  0  0  0  0
  138.1920   72.3050  222.8300 O   0  0  0  0  0  0  0  0  0  0  0  0
  140.3260   72.4670  221.7880 C   0  0  0  0  0  0  0  0  0  0  0  0
  140.7660   73.8210  221.9650 N   0  0  0  0  0  0  0  0  0  0  0  0
  140.0150   74.8860  221.9720 C   0  0  0  0  0  0  0  0  0  0  0  0
  138.6390   74.7380  222.1280 O   0  0  0  0  0  0  0  0  0  0  0  0
  140.5500   76.2550  221.8320 C   0  0  0  0  0  0  0  0  0  0  0  0
  141.3680   76.6130  220.7480 C   0  0  0  0  0  0  0  0  0  0  0  0
  141.8180   77.9290  220.6260 C   0  0  0  0  0  0  0  0  0  0  0  0
  141.4320   78.8860  221.5710 C   0  0  0  0  0  0  0  0  0  0  0  0
  141.8630   80.2190  221.4780 C   0  0  0  0  0  0  0  0  0  0  0  0
  141.4510   81.1550  222.4320 C   0  0  0  0  0  0  0  0  0  0  0  0
  141.8680   82.4420  222.3420 F   0  0  0  0  0  0  0  0  0  0  0  0
  140.6100   80.7660  223.4810 C   0  0  0  0  0  0  0  0  0  0  0  0
  140.1760   79.4410  223.5810 C   0  0  0  0  0  0  0  0  0  0  0  0
  140.5840   78.4970  222.6320 C   0  0  0  0  0  0  0  0  0  0  0  0
  140.1640   77.2060  222.7260 N   0  0  0  0  0  0  0  0  0  0  0  0
  140.0650   70.6970  225.9250 C   0  0  0  0  0  0  0  0  0  0  0  0
  140.8170   71.8890  226.0000 C   0  0  0  0  0  0  0  0  0  0  0  0
  141.4080   72.2790  227.2050 C   0  0  0  0  0  0  0  0  0  0  0  0
  141.2540   71.4950  228.3500 C   0  0  0  0  0  0  0  0  0  0  0  0
  140.5020   70.3200  228.2940 C   0  0  0  0  0  0  0  0  0  0  0  0
  139.9070   69.9250  227.0910 C   0  0  0  0  0  0  0  0  0  0  0  0
  139.1702   68.2581  225.5022 H   0  0  0  0  0  0  0  0  0  0  0  0
  138.2916   68.4968  223.9537 H   0  0  0  0  0  0  0  0  0  0  0  0
  140.0788   68.3157  223.9537 H   0  0  0  0  0  0  0  0  0  0  0  0
  138.3433   70.6237  224.7334 H   0  0  0  0  0  0  0  0  0  0  0  0
  137.9170   73.2790  222.8170 H   0  0  0  0  0  0  0  0  0  0  0  0
  140.6621   71.8986  220.9082 H   0  0  0  0  0  0  0  0  0  0  0  0
  138.2360   74.5120  223.0300 H   0  0  0  0  0  0  0  0  0  0  0  0
  141.6529   75.8600  219.9985 H   0  0  0  0  0  0  0  0  0  0  0  0
  142.4739   78.2126  219.7897 H   0  0  0  0  0  0  0  0  0  0  0  0
  142.5246   80.5271  220.6550 H   0  0  0  0  0  0  0  0  0  0  0  0
  140.2894   81.5056  224.2294 H   0  0  0  0  0  0  0  0  0  0  0  0
  139.5135   79.1403  224.4060 H   0  0  0  0  0  0  0  0  0  0  0  0
  140.9388   72.5153  225.1040 H   0  0  0  0  0  0  0  0  0  0  0  0
  141.9967   73.2071  227.2515 H   0  0  0  0  0  0  0  0  0  0  0  0
  141.7247   71.8028  229.2954 H   0  0  0  0  0  0  0  0  0  0  0  0
  140.3772   69.7041  229.1968 H   0  0  0  0  0  0  0  0  0  0  0  0
  139.3098   69.0019  227.0562 H   0  0  0  0  0  0  0  0  0  0  0  0
  1  2  1  0
  2  3  1  0
  3  4  1  0
  4  5  1  0
  4  6  2  0
  6  7  1  0
  7  8  2  0
  8  9  1  0
  8 10  1  0
 10 11  2  0
 11 12  1  0
 12 13  2  0
 13 14  1  0
 14 15  2  0
 15 16  1  0
 15 17  1  0
 17 18  2  0
 18 19  1  0
 19 20  2  0
  2 21  1  0
 21 22  2  0
 22 23  1  0
 23 24  2  0
 24 25  1  0
 25 26  2  0
 20 10  1  0
 26 21  1  0
 19 13  1  0
  1 27  1  0
  1 28  1  0
  1 29  1  0
  2 30  1  1
  5 31  1  0
  6 32  1  0
  9 33  1  0
 11 34  1  0
 12 35  1  0
 14 36  1  0
 17 37  1  0
 18 38  1  0
 22 39  1  0
 23 40  1  0
 24 41  1  0
 25 42  1  0
 26 43  1  0
M  CHG  1   3  -1
M  END
>  <meeko>  (10) 
{"free_energy": -7.85, "intermolecular_energy": -10.54, "internal_energy": -1.72, "cluster_size": 6, "cluster_id": 2, "rank_in_cluster": 1}

$$$$

     RDKit          3D

 43 45  0  0  0  0  0  0  0  0999 V2000
  138.7330   77.7530  221.2760 C   0  0  0  0  0  0  0  0  0  0  0  0
  140.2290   77.8020  220.9360 C   0  0  2  0  0  0  0  0  0  0  0  0
  140.7760   76.4510  220.8040 N   0  0  0  0  0  0  0  0  0  0  0  0
  140.4000   75.3180  221.5970 C   0  0  0  0  0  0  0  0  0  0  0  0
  139.5290   75.4780  222.6760 O   0  0  0  0  0  0  0  0  0  0  0  0
  140.9010   74.1210  221.2820 C   0  0  0  0  0  0  0  0  0  0  0  0
  140.8540   73.0330  222.2160 N   0  0  0  0  0  0  0  0  0  0  0  0
  139.7840   72.5250  222.7620 C   0  0  0  0  0  0  0  0  0  0  0  0
  138.5360   72.9690  222.3350 O   0  0  0  0  0  0  0  0  0  0  0  0
  139.8260   71.4870  223.8110 C   0  0  0  0  0  0  0  0  0  0  0  0
  139.4270   70.1660  223.5480 C   0  0  0  0  0  0  0  0  0  0  0  0
  139.5230   69.2010  224.5520 C   0  0  0  0  0  0  0  0  0  0  0  0
  140.0370   69.5520  225.8060 C   0  0  0  0  0  0  0  0  0  0  0  0
  140.1510   68.6070  226.8380 C   0  0  0  0  0  0  0  0  0  0  0  0
  140.6780   68.9860  228.0760 C   0  0  0  0  0  0  0  0  0  0  0  0
  140.7880   68.0730  229.0730 F   0  0  0  0  0  0  0  0  0  0  0  0
  141.0940   70.3050  228.2910 C   0  0  0  0  0  0  0  0  0  0  0  0
  140.9840   71.2520  227.2670 C   0  0  0  0  0  0  0  0  0  0  0  0
  140.4560   70.8830  226.0250 C   0  0  0  0  0  0  0  0  0  0  0  0
  140.3470   71.8010  225.0280 N   0  0  0  0  0  0  0  0  0  0  0  0
  141.0770   78.6350  221.8840 C   0  0  0  0  0  0  0  0  0  0  0  0
  141.8250   79.7530  221.4580 C   0  0  0  0  0  0  0  0  0  0  0  0
  142.5620   80.5040  222.3770 C   0  0  0  0  0  0  0  0  0  0  0  0
  142.5600   80.1590  223.7300 C   0  0  0  0  0  0  0  0  0  0  0  0
  141.8140   79.0620  224.1680 C   0  0  0  0  0  0  0  0  0  0  0  0
  141.0730   78.3080  223.2530 C   0  0  0  0  0  0  0  0  0  0  0  0
  138.6052   77.7488  222.3685 H   0  0  0  0  0  0  0  0  0  0  0  0
  138.2314   78.6352  220.8516 H   0  0  0  0  0  0  0  0  0  0  0  0
  138.2902   76.8399  220.8516 H   0  0  0  0  0  0  0  0  0  0  0  0
  140.2843   78.3236  219.9691 H   0  0  0  0  0  0  0  0  0  0  0  0
  139.2840   74.7210  223.3030 H   0  0  0  0  0  0  0  0  0  0  0  0
  141.3561   73.9670  220.2925 H   0  0  0  0  0  0  0  0  0  0  0  0
  138.1260   73.8180  222.7090 H   0  0  0  0  0  0  0  0  0  0  0  0
  139.0405   69.8932  222.5549 H   0  0  0  0  0  0  0  0  0  0  0  0
  139.1960   68.1687  224.3586 H   0  0  0  0  0  0  0  0  0  0  0  0
  139.8259   67.5693  226.6725 H   0  0  0  0  0  0  0  0  0  0  0  0
  141.5083   70.5977  229.2671 H   0  0  0  0  0  0  0  0  0  0  0  0
  141.3129   72.2876  227.4385 H   0  0  0  0  0  0  0  0  0  0  0  0
  141.8279   80.0352  220.3948 H   0  0  0  0  0  0  0  0  0  0  0  0
  143.1461   81.3704  222.0334 H   0  0  0  0  0  0  0  0  0  0  0  0
  143.1450   80.7501  224.4500 H   0  0  0  0  0  0  0  0  0  0  0  0
  141.8096   78.7911  225.2341 H   0  0  0  0  0  0  0  0  0  0  0  0
  140.4811   77.4508  223.6065 H   0  0  0  0  0  0  0  0  0  0  0  0
  1  2  1  0
  2  3  1  0
  3  4  1  0
  4  5  1  0
  4  6  2  0
  6  7  1  0
  7  8  2  0
  8  9  1  0
  8 10  1  0
 10 11  2  0
 11 12  1  0
 12 13  2  0
 13 14  1  0
 14 15  2  0
 15 16  1  0
 15 17  1  0
 17 18  2  0
 18 19  1  0
 19 20  2  0
  2 21  1  0
 21 22  2  0
 22 23  1  0
 23 24  2  0
 24 25  1  0
 25 26  2  0
 20 10  1  0
 26 21  1  0
 19 13  1  0
  1 27  1  0
  1 28  1  0
  1 29  1  0
  2 30  1  6
  5 31  1  0
  6 32  1  0
  9 33  1  0
 11 34  1  0
 12 35  1  0
 14 36  1  0
 17 37  1  0
 18 38  1  0
 22 39  1  0
 23 40  1  0
 24 41  1  0
 25 42  1  0
 26 43  1  0
M  CHG  1   3  -1
M  END
>  <meeko>  (11) 
{"free_energy": -7.88, "intermolecular_energy": -10.57, "internal_energy": -1.95, "cluster_size": 9, "cluster_id": 1, "rank_in_cluster": 2}

$$$$

     RDKit          3D

 43 45  0  0  0  0  0  0  0  0999 V2000
  139.2070   68.7090  224.5030 C   0  0  0  0  0  0  0  0  0  0  0  0
  139.3790   70.2250  224.6710 C   0  0  2  0  0  0  0  0  0  0  0  0
  140.0970   70.7960  223.5310 N   0  0  0  0  0  0  0  0  0  0  0  0
  139.6330   71.8720  222.7060 C   0  0  0  0  0  0  0  0  0  0  0  0
  138.3210   72.3320  222.8310 O   0  0  0  0  0  0  0  0  0  0  0  0
  140.4750   72.4110  221.8220 C   0  0  0  0  0  0  0  0  0  0  0  0
  140.9120   73.7710  221.9530 N   0  0  0  0  0  0  0  0  0  0  0  0
  140.1540   74.8320  221.9600 C   0  0  0  0  0  0  0  0  0  0  0  0
  138.7830   74.6780  222.1480 O   0  0  0  0  0  0  0  0  0  0  0  0
  140.6770   76.2020  221.7890 C   0  0  0  0  0  0  0  0  0  0  0  0
  141.4050   76.5690  220.6460 C   0  0  0  0  0  0  0  0  0  0  0  0
  141.8440   77.8860  220.4990 C   0  0  0  0  0  0  0  0  0  0  0  0
  141.5370   78.8350  221.4800 C   0  0  0  0  0  0  0  0  0  0  0  0
  141.9600   80.1680  221.3640 C   0  0  0  0  0  0  0  0  0  0  0  0
  141.6290   81.0960  222.3570 C   0  0  0  0  0  0  0  0  0  0  0  0
  142.0380   82.3830  222.2430 F   0  0  0  0  0  0  0  0  0  0  0  0
  140.8750   80.6990  223.4670 C   0  0  0  0  0  0  0  0  0  0  0  0
  140.4490   79.3720  223.5900 C   0  0  0  0  0  0  0  0  0  0  0  0
  140.7780   78.4370  222.6030 C   0  0  0  0  0  0  0  0  0  0  0  0
  140.3660   77.1450  222.7200 N   0  0  0  0  0  0  0  0  0  0  0  0
  140.0170   70.6590  225.9810 C   0  0  0  0  0  0  0  0  0  0  0  0
  139.9360   69.8910  227.1620 C   0  0  0  0  0  0  0  0  0  0  0  0
  140.5690   70.3210  228.3310 C   0  0  0  0  0  0  0  0  0  0  0  0
  141.2960   71.5130  228.3400 C   0  0  0  0  0  0  0  0  0  0  0  0
  141.3950   72.2770  227.1750 C   0  0  0  0  0  0  0  0  0  0  0  0
  140.7650   71.8520  226.0020 C   0  0  0  0  0  0  0  0  0  0  0  0
  139.1531   68.2341  225.4937 H   0  0  0  0  0  0  0  0  0  0  0  0
  138.2799   68.5045  223.9474 H   0  0  0  0  0  0  0  0  0  0  0  0
  140.0647   68.3020  223.9474 H   0  0  0  0  0  0  0  0  0  0  0  0
  138.3550   70.6252  224.7055 H   0  0  0  0  0  0  0  0  0  0  0  0
  138.0650   73.3050  222.7160 H   0  0  0  0  0  0  0  0  0  0  0  0
  140.8393   71.8034  220.9805 H   0  0  0  0  0  0  0  0  0  0  0  0
  138.3960   74.5200  223.0710 H   0  0  0  0  0  0  0  0  0  0  0  0
  141.6284   75.8222  219.8699 H   0  0  0  0  0  0  0  0  0  0  0  0
  142.4296   78.1767  219.6144 H   0  0  0  0  0  0  0  0  0  0  0  0
  142.5520   80.4832  220.4921 H   0  0  0  0  0  0  0  0  0  0  0  0
  140.6165   81.4323  224.2451 H   0  0  0  0  0  0  0  0  0  0  0  0
  139.8552   79.0639  224.4632 H   0  0  0  0  0  0  0  0  0  0  0  0
  139.3707   68.9474  227.1623 H   0  0  0  0  0  0  0  0  0  0  0  0
  140.4943   69.7180  229.2480 H   0  0  0  0  0  0  0  0  0  0  0  0
  141.7901   71.8499  229.2633 H   0  0  0  0  0  0  0  0  0  0  0  0
  141.9698   73.2148  227.1807 H   0  0  0  0  0  0  0  0  0  0  0  0
  140.8543   72.4551  225.0864 H   0  0  0  0  0  0  0  0  0  0  0  0
  1  2  1  0
  2  3  1  0
  3  4  1  0
  4  5  1  0
  4  6  2  0
  6  7  1  0
  7  8  2  0
  8  9  1  0
  8 10  1  0
 10 11  2  0
 11 12  1  0
 12 13  2  0
 13 14  1  0
 14 15  2  0
 15 16  1  0
 15 17  1  0
 17 18  2  0
 18 19  1  0
 19 20  2  0
  2 21  1  0
 21 22  2  0
 22 23  1  0
 23 24  2  0
 24 25  1  0
 25 26  2  0
 20 10  1  0
 26 21  1  0
 19 13  1  0
  1 27  1  0
  1 28  1  0
  1 29  1  0
  2 30  1  1
  5 31  1  0
  6 32  1  0
  9 33  1  0
 11 34  1  0
 12 35  1  0
 14 36  1  0
 17 37  1  0
 18 38  1  0
 22 39  1  0
 23 40  1  0
 24 41  1  0
 25 42  1  0
 26 43  1  0
M  CHG  1   3  -1
M  END
>  <meeko>  (12) 
{"free_energy": -7.83, "intermolecular_energy": -10.51, "internal_energy": -1.78, "cluster_size": 6, "cluster_id": 2, "rank_in_cluster": 2}

$$$$

     RDKit          3D

 43 45  0  0  0  0  0  0  0  0999 V2000
  144.0740   73.6110  220.5790 C   0  0  0  0  0  0  0  0  0  0  0  0
  142.8210   74.4900  220.7020 C   0  0  2  0  0  0  0  0  0  0  0  0
  141.6070   73.6840  220.5700 N   0  0  0  0  0  0  0  0  0  0  0  0
  140.3150   74.0300  221.0860 C   0  0  0  0  0  0  0  0  0  0  0  0
  140.0040   73.7700  222.4220 O   0  0  0  0  0  0  0  0  0  0  0  0
  139.4280   74.5960  220.2650 C   0  0  0  0  0  0  0  0  0  0  0  0
  138.7520   75.8080  220.6300 N   0  0  0  0  0  0  0  0  0  0  0  0
  138.5490   76.2480  221.8400 C   0  0  0  0  0  0  0  0  0  0  0  0
  137.8120   75.4660  222.7250 O   0  0  0  0  0  0  0  0  0  0  0  0
  139.0720   77.5380  222.3310 C   0  0  0  0  0  0  0  0  0  0  0  0
  138.2130   78.5400  222.8120 C   0  0  0  0  0  0  0  0  0  0  0  0
  138.7490   79.7290  223.3110 C   0  0  0  0  0  0  0  0  0  0  0  0
  140.1360   79.9050  223.3480 C   0  0  0  0  0  0  0  0  0  0  0  0
  140.7090   81.0860  223.8440 C   0  0  0  0  0  0  0  0  0  0  0  0
  142.1000   81.2290  223.8780 C   0  0  0  0  0  0  0  0  0  0  0  0
  142.6520   82.3700  224.3580 F   0  0  0  0  0  0  0  0  0  0  0  0
  142.9240   80.1950  223.4170 C   0  0  0  0  0  0  0  0  0  0  0  0
  142.3610   79.0150  222.9210 C   0  0  0  0  0  0  0  0  0  0  0  0
  140.9700   78.8650  222.8820 C   0  0  0  0  0  0  0  0  0  0  0  0
  140.4190   77.7180  222.3990 N   0  0  0  0  0  0  0  0  0  0  0  0
  142.7790   75.6850  219.7620 C   0  0  0  0  0  0  0  0  0  0  0  0
  143.3170   75.6510  218.4580 C   0  0  0  0  0  0  0  0  0  0  0  0
  143.2220   76.7670  217.6230 C   0  0  0  0  0  0  0  0  0  0  0  0
  142.5860   77.9270  218.0710 C   0  0  0  0  0  0  0  0  0  0  0  0
  142.0370   77.9700  219.3540 C   0  0  0  0  0  0  0  0  0  0  0  0
  142.1280   76.8560  220.1930 C   0  0  0  0  0  0  0  0  0  0  0  0
  144.4412   73.3534  221.5834 H   0  0  0  0  0  0  0  0  0  0  0  0
  143.8234   72.6897  220.0327 H   0  0  0  0  0  0  0  0  0  0  0  0
  144.8550   74.1602  220.0327 H   0  0  0  0  0  0  0  0  0  0  0  0
  142.8739   74.9226  221.7120 H   0  0  0  0  0  0  0  0  0  0  0  0
  139.4930   74.4210  223.0050 H   0  0  0  0  0  0  0  0  0  0  0  0
  139.2119   74.1264  219.2940 H   0  0  0  0  0  0  0  0  0  0  0  0
  138.0120   74.4790  222.8440 H   0  0  0  0  0  0  0  0  0  0  0  0
  137.1236   78.3888  222.7957 H   0  0  0  0  0  0  0  0  0  0  0  0
  138.0822   80.5250  223.6740 H   0  0  0  0  0  0  0  0  0  0  0  0
  140.0638   81.8999  224.2063 H   0  0  0  0  0  0  0  0  0  0  0  0
  144.0175   80.3113  223.4451 H   0  0  0  0  0  0  0  0  0  0  0  0
  143.0116   78.2043  222.5613 H   0  0  0  0  0  0  0  0  0  0  0  0
  143.8148   74.7392  218.0963 H   0  0  0  0  0  0  0  0  0  0  0  0
  143.6492   76.7320  216.6100 H   0  0  0  0  0  0  0  0  0  0  0  0
  142.5177   78.8062  217.4134 H   0  0  0  0  0  0  0  0  0  0  0  0
  141.5321   78.8821  219.7050 H   0  0  0  0  0  0  0  0  0  0  0  0
  141.6866   76.8948  221.1998 H   0  0  0  0  0  0  0  0  0  0  0  0
  1  2  1  0
  2  3  1  0
  3  4  1  0
  4  5  1  0
  4  6  2  0
  6  7  1  0
  7  8  2  0
  8  9  1  0
  8 10  1  0
 10 11  2  0
 11 12  1  0
 12 13  2  0
 13 14  1  0
 14 15  2  0
 15 16  1  0
 15 17  1  0
 17 18  2  0
 18 19  1  0
 19 20  2  0
  2 21  1  0
 21 22  2  0
 22 23  1  0
 23 24  2  0
 24 25  1  0
 25 26  2  0
 20 10  1  0
 26 21  1  0
 19 13  1  0
  1 27  1  0
  1 28  1  0
  1 29  1  0
  2 30  1  1
  5 31  1  0
  6 32  1  0
  9 33  1  0
 11 34  1  0
 12 35  1  0
 14 36  1  0
 17 37  1  0
 18 38  1  0
 22 39  1  0
 23 40  1  0
 24 41  1  0
 25 42  1  0
 26 43  1  0
M  CHG  1   3  -1
M  END
>  <meeko>  (13) 
{"free_energy": -5.88, "intermolecular_energy": -8.57, "internal_energy": -2.78, "cluster_size": 1, "cluster_id": 5, "rank_in_cluster": 1}

$$$$

     RDKit          3D

 43 45  0  0  0  0  0  0  0  0999 V2000
  141.9550   77.6930  219.4800 C   0  0  0  0  0  0  0  0  0  0  0  0
  141.5090   77.1810  220.8570 C   0  0  2  0  0  0  0  0  0  0  0  0
  140.3550   76.2890  220.7290 N   0  0  0  0  0  0  0  0  0  0  0  0
  140.1530   75.0760  221.4650 C   0  0  0  0  0  0  0  0  0  0  0  0
  139.5470   75.1140  222.7220 O   0  0  0  0  0  0  0  0  0  0  0  0
  140.5600   73.9240  220.9250 C   0  0  0  0  0  0  0  0  0  0  0  0
  140.3820   72.6810  221.6180 N   0  0  0  0  0  0  0  0  0  0  0  0
  139.3990   72.3730  222.4180 C   0  0  0  0  0  0  0  0  0  0  0  0
  138.1520   72.9530  222.2060 O   0  0  0  0  0  0  0  0  0  0  0  0
  139.5360   71.4240  223.5410 C   0  0  0  0  0  0  0  0  0  0  0  0
  139.1880   70.0710  223.4000 C   0  0  0  0  0  0  0  0  0  0  0  0
  139.3750   69.1930  224.4700 C   0  0  0  0  0  0  0  0  0  0  0  0
  139.9270   69.6640  225.6660 C   0  0  0  0  0  0  0  0  0  0  0  0
  140.1310   68.8100  226.7610 C   0  0  0  0  0  0  0  0  0  0  0  0
  140.6960   69.3080  227.9400 C   0  0  0  0  0  0  0  0  0  0  0  0
  140.8920   68.4820  228.9980 F   0  0  0  0  0  0  0  0  0  0  0  0
  141.0580   70.6570  228.0320 C   0  0  0  0  0  0  0  0  0  0  0  0
  140.8590   71.5140  226.9450 C   0  0  0  0  0  0  0  0  0  0  0  0
  140.2930   71.0250  225.7620 C   0  0  0  0  0  0  0  0  0  0  0  0
  140.0960   71.8560  224.7030 N   0  0  0  0  0  0  0  0  0  0  0  0
  141.2400   78.2630  221.8900 C   0  0  0  0  0  0  0  0  0  0  0  0
  140.0590   78.3060  222.6610 C   0  0  0  0  0  0  0  0  0  0  0  0
  139.8760   79.3050  223.6220 C   0  0  0  0  0  0  0  0  0  0  0  0
  140.8670   80.2660  223.8330 C   0  0  0  0  0  0  0  0  0  0  0  0
  142.0460   80.2280  223.0870 C   0  0  0  0  0  0  0  0  0  0  0  0
  142.2350   79.2300  222.1250 C   0  0  0  0  0  0  0  0  0  0  0  0
  142.6725   78.5166  219.6098 H   0  0  0  0  0  0  0  0  0  0  0  0
  142.4333   76.8747  218.9218 H   0  0  0  0  0  0  0  0  0  0  0  0
  141.0788   78.0545  218.9218 H   0  0  0  0  0  0  0  0  0  0  0  0
  142.3728   76.6226  221.2470 H   0  0  0  0  0  0  0  0  0  0  0  0
  139.4200   74.2900  223.2970 H   0  0  0  0  0  0  0  0  0  0  0  0
  141.0386   73.9288  219.9346 H   0  0  0  0  0  0  0  0  0  0  0  0
  137.8550   73.7660  222.7340 H   0  0  0  0  0  0  0  0  0  0  0  0
  138.7699   69.7041  222.4510 H   0  0  0  0  0  0  0  0  0  0  0  0
  139.0893   68.1352  224.3726 H   0  0  0  0  0  0  0  0  0  0  0  0
  139.8468   67.7496  226.6922 H   0  0  0  0  0  0  0  0  0  0  0  0
  141.5002   71.0441  228.9619 H   0  0  0  0  0  0  0  0  0  0  0  0
  141.1474   72.5729  227.0198 H   0  0  0  0  0  0  0  0  0  0  0  0
  139.2769   77.5484  222.5049 H   0  0  0  0  0  0  0  0  0  0  0  0
  138.9490   79.3340  224.2134 H   0  0  0  0  0  0  0  0  0  0  0  0
  140.7184   81.0529  224.5871 H   0  0  0  0  0  0  0  0  0  0  0  0
  142.8275   80.9836  223.2557 H   0  0  0  0  0  0  0  0  0  0  0  0
  143.1703   79.2009  221.5468 H   0  0  0  0  0  0  0  0  0  0  0  0
  1  2  1  0
  2  3  1  0
  3  4  1  0
  4  5  1  0
  4  6  2  0
  6  7  1  0
  7  8  2  0
  8  9  1  0
  8 10  1  0
 10 11  2  0
 11 12  1  0
 12 13  2  0
 13 14  1  0
 14 15  2  0
 15 16  1  0
 15 17  1  0
 17 18  2  0
 18 19  1  0
 19 20  2  0
  2 21  1  0
 21 22  2  0
 22 23  1  0
 23 24  2  0
 24 25  1  0
 25 26  2  0
 20 10  1  0
 26 21  1  0
 19 13  1  0
  1 27  1  0
  1 28  1  0
  1 29  1  0
  2 30  1  1
  5 31  1  0
  6 32  1  0
  9 33  1  0
 11 34  1  0
 12 35  1  0
 14 36  1  0
 17 37  1  0
 18 38  1  0
 22 39  1  0
 23 40  1  0
 24 41  1  0
 25 42  1  0
 26 43  1  0
M  CHG  1   3  -1
M  END
>  <meeko>  (14) 
{"free_energy": -7.24, "intermolecular_energy": -9.93, "internal_energy": -2.01, "cluster_size": 9, "cluster_id": 1, "rank_in_cluster": 9}

$$$$

     RDKit          3D

 43 45  0  0  0  0  0  0  0  0999 V2000
  138.9070   68.9420  224.2690 C   0  0  0  0  0  0  0  0  0  0  0  0
  139.3890   70.3940  224.3940 C   0  0  2  0  0  0  0  0  0  0  0  0
  140.3310   70.7230  223.3230 N   0  0  0  0  0  0  0  0  0  0  0  0
  140.1480   71.7450  222.3360 C   0  0  0  0  0  0  0  0  0  0  0  0
  138.8860   71.9610  221.7790 O   0  0  0  0  0  0  0  0  0  0  0  0
  141.2040   72.4730  221.9640 C   0  0  0  0  0  0  0  0  0  0  0  0
  141.0350   73.7340  221.3020 N   0  0  0  0  0  0  0  0  0  0  0  0
  140.3630   74.7600  221.7470 C   0  0  0  0  0  0  0  0  0  0  0  0
  139.1290   74.5440  222.3530 O   0  0  0  0  0  0  0  0  0  0  0  0
  140.8520   76.1500  221.6520 C   0  0  0  0  0  0  0  0  0  0  0  0
  141.4780   76.6270  220.4890 C   0  0  0  0  0  0  0  0  0  0  0  0
  141.8850   77.9610  220.4200 C   0  0  0  0  0  0  0  0  0  0  0  0
  141.6480   78.8170  221.5010 C   0  0  0  0  0  0  0  0  0  0  0  0
  142.0420   80.1640  221.4650 C   0  0  0  0  0  0  0  0  0  0  0  0
  141.7810   80.9970  222.5570 C   0  0  0  0  0  0  0  0  0  0  0  0
  142.1620   82.2980  222.5220 F   0  0  0  0  0  0  0  0  0  0  0  0
  141.1270   80.4920  223.6870 C   0  0  0  0  0  0  0  0  0  0  0  0
  140.7310   79.1520  223.7310 C   0  0  0  0  0  0  0  0  0  0  0  0
  140.9900   78.3100  222.6430 C   0  0  0  0  0  0  0  0  0  0  0  0
  140.6070   77.0050  222.6820 N   0  0  0  0  0  0  0  0  0  0  0  0
  139.9680   70.7660  225.7510 C   0  0  0  0  0  0  0  0  0  0  0  0
  139.7100   70.0200  226.9210 C   0  0  0  0  0  0  0  0  0  0  0  0
  140.2940   70.3870  228.1370 C   0  0  0  0  0  0  0  0  0  0  0  0
  141.1450   71.4920  228.2030 C   0  0  0  0  0  0  0  0  0  0  0  0
  141.4190   72.2310  227.0500 C   0  0  0  0  0  0  0  0  0  0  0  0
  140.8390   71.8680  225.8310 C   0  0  0  0  0  0  0  0  0  0  0  0
  138.7653   68.5150  225.2728 H   0  0  0  0  0  0  0  0  0  0  0  0
  137.9528   68.9182  223.7223 H   0  0  0  0  0  0  0  0  0  0  0  0
  139.6576   68.3523  223.7223 H   0  0  0  0  0  0  0  0  0  0  0  0
  138.4796   71.0045  224.2931 H   0  0  0  0  0  0  0  0  0  0  0  0
  138.6600   72.7800  221.2290 H   0  0  0  0  0  0  0  0  0  0  0  0
  142.2184   72.1000  222.1684 H   0  0  0  0  0  0  0  0  0  0  0  0
  138.9770   73.7500  222.9640 H   0  0  0  0  0  0  0  0  0  0  0  0
  141.6470   75.9529  219.6363 H   0  0  0  0  0  0  0  0  0  0  0  0
  142.3904   78.3377  219.5185 H   0  0  0  0  0  0  0  0  0  0  0  0
  142.5557   80.5637  220.5782 H   0  0  0  0  0  0  0  0  0  0  0  0
  140.9240   81.1519  224.5433 H   0  0  0  0  0  0  0  0  0  0  0  0
  140.2161   78.7594  224.6202 H   0  0  0  0  0  0  0  0  0  0  0  0
  139.0455   69.1446  226.8758 H   0  0  0  0  0  0  0  0  0  0  0  0
  140.0824   69.8032  229.0450 H   0  0  0  0  0  0  0  0  0  0  0  0
  141.5993   71.7803  229.1624 H   0  0  0  0  0  0  0  0  0  0  0  0
  142.0919   73.0996  227.1012 H   0  0  0  0  0  0  0  0  0  0  0  0
  141.0658   72.4497  224.9254 H   0  0  0  0  0  0  0  0  0  0  0  0
  1  2  1  0
  2  3  1  0
  3  4  1  0
  4  5  1  0
  4  6  2  0
  6  7  1  0
  7  8  2  0
  8  9  1  0
  8 10  1  0
 10 11  2  0
 11 12  1  0
 12 13  2  0
 13 14  1  0
 14 15  2  0
 15 16  1  0
 15 17  1  0
 17 18  2  0
 18 19  1  0
 19 20  2  0
  2 21  1  0
 21 22  2  0
 22 23  1  0
 23 24  2  0
 24 25  1  0
 25 26  2  0
 20 10  1  0
 26 21  1  0
 19 13  1  0
  1 27  1  0
  1 28  1  0
  1 29  1  0
  2 30  1  6
  5 31  1  0
  6 32  1  0
  9 33  1  0
 11 34  1  0
 12 35  1  0
 14 36  1  0
 17 37  1  0
 18 38  1  0
 22 39  1  0
 23 40  1  0
 24 41  1  0
 25 42  1  0
 26 43  1  0
M  CHG  1   3  -1
M  END
>  <meeko>  (15) 
{"free_energy": -7.11, "intermolecular_energy": -9.79, "internal_energy": -2.28, "cluster_size": 6, "cluster_id": 2, "rank_in_cluster": 6}

$$$$

     RDKit          3D

 43 45  0  0  0  0  0  0  0  0999 V2000
  141.7660   75.6080  218.5640 C   0  0  0  0  0  0  0  0  0  0  0  0
  141.7130   74.3620  219.4590 C   0  0  2  0  0  0  0  0  0  0  0  0
  140.7430   74.5400  220.5400 N   0  0  0  0  0  0  0  0  0  0  0  0
  140.1990   73.4940  221.3540 C   0  0  0  0  0  0  0  0  0  0  0  0
  139.9380   73.7240  222.7060 O   0  0  0  0  0  0  0  0  0  0  0  0
  139.9570   72.3060  220.7940 C   0  0  0  0  0  0  0  0  0  0  0  0
  139.0710   71.3650  221.4130 N   0  0  0  0  0  0  0  0  0  0  0  0
  138.5400   71.4640  222.6000 C   0  0  0  0  0  0  0  0  0  0  0  0
  137.5460   72.4150  222.8150 O   0  0  0  0  0  0  0  0  0  0  0  0
  138.9320   70.6070  223.7370 C   0  0  0  0  0  0  0  0  0  0  0  0
  138.7420   69.2160  223.7020 C   0  0  0  0  0  0  0  0  0  0  0  0
  139.1670   68.4330  224.7780 C   0  0  0  0  0  0  0  0  0  0  0  0
  139.7990   69.0370  225.8710 C   0  0  0  0  0  0  0  0  0  0  0  0
  140.2410   68.2810  226.9670 C   0  0  0  0  0  0  0  0  0  0  0  0
  140.8780   68.9120  228.0400 C   0  0  0  0  0  0  0  0  0  0  0  0
  141.3050   68.1810  229.0990 F   0  0  0  0  0  0  0  0  0  0  0  0
  141.0770   70.2980  228.0240 C   0  0  0  0  0  0  0  0  0  0  0  0
  140.6390   71.0580  226.9350 C   0  0  0  0  0  0  0  0  0  0  0  0
  139.9990   70.4350  225.8580 C   0  0  0  0  0  0  0  0  0  0  0  0
  139.5710   71.1720  224.7970 N   0  0  0  0  0  0  0  0  0  0  0  0
  143.0560   73.9090  220.0110 C   0  0  0  0  0  0  0  0  0  0  0  0
  143.3200   72.5700  220.3720 C   0  0  0  0  0  0  0  0  0  0  0  0
  144.5830   72.2000  220.8440 C   0  0  0  0  0  0  0  0  0  0  0  0
  145.5980   73.1530  220.9560 C   0  0  0  0  0  0  0  0  0  0  0  0
  145.3540   74.4780  220.5900 C   0  0  0  0  0  0  0  0  0  0  0  0
  144.0930   74.8540  220.1160 C   0  0  0  0  0  0  0  0  0  0  0  0
  141.8044   76.5098  219.1928 H   0  0  0  0  0  0  0  0  0  0  0  0
  142.6632   75.5654  217.9289 H   0  0  0  0  0  0  0  0  0  0  0  0
  140.8685   75.6417  217.9289 H   0  0  0  0  0  0  0  0  0  0  0  0
  141.3869   73.5481  218.7948 H   0  0  0  0  0  0  0  0  0  0  0  0
  139.5880   73.0070  223.3290 H   0  0  0  0  0  0  0  0  0  0  0  0
  140.4452   72.0458  219.8432 H   0  0  0  0  0  0  0  0  0  0  0  0
  137.7800   73.3780  223.0280 H   0  0  0  0  0  0  0  0  0  0  0  0
  138.2610   68.7455  222.8318 H   0  0  0  0  0  0  0  0  0  0  0  0
  139.0054   67.3450  224.7663 H   0  0  0  0  0  0  0  0  0  0  0  0
  140.0865   67.1920  226.9823 H   0  0  0  0  0  0  0  0  0  0  0  0
  141.5790   70.7901  228.8701 H   0  0  0  0  0  0  0  0  0  0  0  0
  140.7978   72.1464  226.9250 H   0  0  0  0  0  0  0  0  0  0  0  0
  142.5271   71.8130  220.2814 H   0  0  0  0  0  0  0  0  0  0  0  0
  144.7779   71.1553  221.1280 H   0  0  0  0  0  0  0  0  0  0  0  0
  146.5891   72.8597  221.3324 H   0  0  0  0  0  0  0  0  0  0  0  0
  146.1548   75.2274  220.6745 H   0  0  0  0  0  0  0  0  0  0  0  0
  143.9103   75.8983  219.8226 H   0  0  0  0  0  0  0  0  0  0  0  0
  1  2  1  0
  2  3  1  0
  3  4  1  0
  4  5  1  0
  4  6  2  0
  6  7  1  0
  7  8  2  0
  8  9  1  0
  8 10  1  0
 10 11  2  0
 11 12  1  0
 12 13  2  0
 13 14  1  0
 14 15  2  0
 15 16  1  0
 15 17  1  0
 17 18  2  0
 18 19  1  0
 19 20  2  0
  2 21  1  0
 21 22  2  0
 22 23  1  0
 23 24  2  0
 24 25  1  0
 25 26  2  0
 20 10  1  0
 26 21  1  0
 19 13  1  0
  1 27  1  0
  1 28  1  0
  1 29  1  0
  2 30  1  6
  5 31  1  0
  6 32  1  0
  9 33  1  0
 11 34  1  0
 12 35  1  0
 14 36  1  0
 17 37  1  0
 18 38  1  0
 22 39  1  0
 23 40  1  0
 24 41  1  0
 25 42  1  0
 26 43  1  0
M  CHG  1   3  -1
M  END
>  <meeko>  (16) 
{"free_energy": -6.59, "intermolecular_energy": -9.28, "internal_energy": -2.36, "cluster_size": 3, "cluster_id": 3, "rank_in_cluster": 3}

$$$$

     RDKit          3D

 43 45  0  0  0  0  0  0  0  0999 V2000
  141.8920   77.7950  219.3520 C   0  0  0  0  0  0  0  0  0  0  0  0
  141.6130   77.2080  220.7430 C   0  0  2  0  0  0  0  0  0  0  0  0
  140.5920   76.1610  220.6690 N   0  0  0  0  0  0  0  0  0  0  0  0
  140.3780   75.1350  221.6450 C   0  0  0  0  0  0  0  0  0  0  0  0
  139.4080   75.3030  222.6340 O   0  0  0  0  0  0  0  0  0  0  0  0
  141.1250   74.0290  221.5870 C   0  0  0  0  0  0  0  0  0  0  0  0
  140.5310   72.7300  221.7110 N   0  0  0  0  0  0  0  0  0  0  0  0
  139.5310   72.4050  222.4820 C   0  0  0  0  0  0  0  0  0  0  0  0
  138.2830   72.9730  222.2400 O   0  0  0  0  0  0  0  0  0  0  0  0
  139.6480   71.4490  223.6010 C   0  0  0  0  0  0  0  0  0  0  0  0
  139.3080   70.0950  223.4440 C   0  0  0  0  0  0  0  0  0  0  0  0
  139.4760   69.2120  224.5120 C   0  0  0  0  0  0  0  0  0  0  0  0
  140.0010   69.6760  225.7230 C   0  0  0  0  0  0  0  0  0  0  0  0
  140.1850   68.8160  226.8170 C   0  0  0  0  0  0  0  0  0  0  0  0
  140.7220   69.3080  228.0100 C   0  0  0  0  0  0  0  0  0  0  0  0
  140.9000   68.4760  229.0660 F   0  0  0  0  0  0  0  0  0  0  0  0
  141.0780   70.6580  228.1180 C   0  0  0  0  0  0  0  0  0  0  0  0
  140.8980   71.5210  227.0330 C   0  0  0  0  0  0  0  0  0  0  0  0
  140.3590   71.0380  225.8350 C   0  0  0  0  0  0  0  0  0  0  0  0
  140.1820   71.8760  224.7780 N   0  0  0  0  0  0  0  0  0  0  0  0
  141.2600   78.2280  221.8140 C   0  0  0  0  0  0  0  0  0  0  0  0
  139.9810   78.3030  222.4050 C   0  0  0  0  0  0  0  0  0  0  0  0
  139.7190   79.2390  223.4090 C   0  0  0  0  0  0  0  0  0  0  0  0
  140.7250   80.1050  223.8420 C   0  0  0  0  0  0  0  0  0  0  0  0
  141.9990   80.0330  223.2760 C   0  0  0  0  0  0  0  0  0  0  0  0
  142.2670   79.0980  222.2710 C   0  0  0  0  0  0  0  0  0  0  0  0
  142.3620   78.7838  219.4588 H   0  0  0  0  0  0  0  0  0  0  0  0
  142.5681   77.1253  218.8003 H   0  0  0  0  0  0  0  0  0  0  0  0
  140.9458   77.8964  218.8003 H   0  0  0  0  0  0  0  0  0  0  0  0
  142.5711   76.7748  221.0661 H   0  0  0  0  0  0  0  0  0  0  0  0
  139.2020   74.5960  223.3300 H   0  0  0  0  0  0  0  0  0  0  0  0
  142.2119   74.1162  221.4420 H   0  0  0  0  0  0  0  0  0  0  0  0
  137.9520   73.7610  222.7840 H   0  0  0  0  0  0  0  0  0  0  0  0
  138.9113   69.7324  222.4842 H   0  0  0  0  0  0  0  0  0  0  0  0
  139.1963   68.1539  224.4017 H   0  0  0  0  0  0  0  0  0  0  0  0
  139.9066   67.7549  226.7355 H   0  0  0  0  0  0  0  0  0  0  0  0
  141.5004   71.0404  229.0589 H   0  0  0  0  0  0  0  0  0  0  0  0
  141.1802   72.5805  227.1209 H   0  0  0  0  0  0  0  0  0  0  0  0
  139.1849   77.6202  222.0733 H   0  0  0  0  0  0  0  0  0  0  0  0
  138.7170   79.2937  223.8596 H   0  0  0  0  0  0  0  0  0  0  0  0
  140.5137   80.8439  224.6290 H   0  0  0  0  0  0  0  0  0  0  0  0
  142.7927   80.7121  223.6207 H   0  0  0  0  0  0  0  0  0  0  0  0
  143.2748   79.0422  221.8336 H   0  0  0  0  0  0  0  0  0  0  0  0
  1  2  1  0
  2  3  1  0
  3  4  1  0
  4  5  1  0
  4  6  2  0
  6  7  1  0
  7  8  2  0
  8  9  1  0
  8 10  1  0
 10 11  2  0
 11 12  1  0
 12 13  2  0
 13 14  1  0
 14 15  2  0
 15 16  1  0
 15 17  1  0
 17 18  2  0
 18 19  1  0
 19 20  2  0
  2 21  1  0
 21 22  2  0
 22 23  1  0
 23 24  2  0
 24 25  1  0
 25 26  2  0
 20 10  1  0
 26 21  1  0
 19 13  1  0
  1 27  1  0
  1 28  1  0
  1 29  1  0
  2 30  1  1
  5 31  1  0
  6 32  1  0
  9 33  1  0
 11 34  1  0
 12 35  1  0
 14 36  1  0
 17 37  1  0
 18 38  1  0
 22 39  1  0
 23 40  1  0
 24 41  1  0
 25 42  1  0
 26 43  1  0
M  CHG  1   3  -1
M  END
>  <meeko>  (17) 
{"free_energy": -7.33, "intermolecular_energy": -10.02, "internal_energy": -1.91, "cluster_size": 9, "cluster_id": 1, "rank_in_cluster": 7}

$$$$

     RDKit          3D

 43 45  0  0  0  0  0  0  0  0999 V2000
  140.6910   67.2840  226.1890 C   0  0  0  0  0  0  0  0  0  0  0  0
  139.5950   68.2570  226.6440 C   0  0  2  0  0  0  0  0  0  0  0  0
  138.4900   68.2790  225.6840 N   0  0  0  0  0  0  0  0  0  0  0  0
  138.3560   69.1910  224.5870 C   0  0  0  0  0  0  0  0  0  0  0  0
  137.3510   70.1610  224.6030 O   0  0  0  0  0  0  0  0  0  0  0  0
  139.2020   69.0870  223.5590 C   0  0  0  0  0  0  0  0  0  0  0  0
  139.4780   70.2120  222.7130 N   0  0  0  0  0  0  0  0  0  0  0  0
  139.7450   71.4270  223.1020 C   0  0  0  0  0  0  0  0  0  0  0  0
  139.2560   71.8640  224.3300 O   0  0  0  0  0  0  0  0  0  0  0  0
  140.5560   72.3710  222.3070 C   0  0  0  0  0  0  0  0  0  0  0  0
  141.5970   71.9220  221.4780 C   0  0  0  0  0  0  0  0  0  0  0  0
  142.3120   72.8400  220.7060 C   0  0  0  0  0  0  0  0  0  0  0  0
  141.9720   74.1970  220.7480 C   0  0  0  0  0  0  0  0  0  0  0  0
  142.6670   75.1470  219.9840 C   0  0  0  0  0  0  0  0  0  0  0  0
  142.2970   76.4950  220.0390 C   0  0  0  0  0  0  0  0  0  0  0  0
  142.9690   77.4120  219.3000 F   0  0  0  0  0  0  0  0  0  0  0  0
  141.2340   76.8990  220.8540 C   0  0  0  0  0  0  0  0  0  0  0  0
  140.5360   75.9590  221.6180 C   0  0  0  0  0  0  0  0  0  0  0  0
  140.9000   74.6080  221.5710 C   0  0  0  0  0  0  0  0  0  0  0  0
  140.2240   73.6910  222.3130 N   0  0  0  0  0  0  0  0  0  0  0  0
  140.0710   69.6690  226.9460 C   0  0  0  0  0  0  0  0  0  0  0  0
  139.6690   70.3820  228.0960 C   0  0  0  0  0  0  0  0  0  0  0  0
  140.1630   71.6650  228.3430 C   0  0  0  0  0  0  0  0  0  0  0  0
  141.0670   72.2530  227.4560 C   0  0  0  0  0  0  0  0  0  0  0  0
  141.4840   71.5540  226.3210 C   0  0  0  0  0  0  0  0  0  0  0  0
  140.9940   70.2690  226.0690 C   0  0  0  0  0  0  0  0  0  0  0  0
  141.1828   66.8474  227.0707 H   0  0  0  0  0  0  0  0  0  0  0  0
  140.2416   66.4819  225.5851 H   0  0  0  0  0  0  0  0  0  0  0  0
  141.4342   67.8252  225.5851 H   0  0  0  0  0  0  0  0  0  0  0  0
  139.2462   67.8605  227.6089 H   0  0  0  0  0  0  0  0  0  0  0  0
  137.3310   70.9430  223.9600 H   0  0  0  0  0  0  0  0  0  0  0  0
  139.6946   68.1242  223.3580 H   0  0  0  0  0  0  0  0  0  0  0  0
  138.2800   72.1080  224.4480 H   0  0  0  0  0  0  0  0  0  0  0  0
  141.8480   70.8518  221.4370 H   0  0  0  0  0  0  0  0  0  0  0  0
  143.1395   72.4978  220.0671 H   0  0  0  0  0  0  0  0  0  0  0  0
  143.5027   74.8318  219.3419 H   0  0  0  0  0  0  0  0  0  0  0  0
  140.9464   77.9600  220.8938 H   0  0  0  0  0  0  0  0  0  0  0  0
  139.7002   76.2811  222.2565 H   0  0  0  0  0  0  0  0  0  0  0  0
  138.9615   69.9239  228.8028 H   0  0  0  0  0  0  0  0  0  0  0  0
  139.8387   72.2140  229.2393 H   0  0  0  0  0  0  0  0  0  0  0  0
  141.4503   73.2655  227.6509 H   0  0  0  0  0  0  0  0  0  0  0  0
  142.1992   72.0153  225.6241 H   0  0  0  0  0  0  0  0  0  0  0  0
  141.3330   69.7218  225.1770 H   0  0  0  0  0  0  0  0  0  0  0  0
  1  2  1  0
  2  3  1  0
  3  4  1  0
  4  5  1  0
  4  6  2  0
  6  7  1  0
  7  8  2  0
  8  9  1  0
  8 10  1  0
 10 11  2  0
 11 12  1  0
 12 13  2  0
 13 14  1  0
 14 15  2  0
 15 16  1  0
 15 17  1  0
 17 18  2  0
 18 19  1  0
 19 20  2  0
  2 21  1  0
 21 22  2  0
 22 23  1  0
 23 24  2  0
 24 25  1  0
 25 26  2  0
 20 10  1  0
 26 21  1  0
 19 13  1  0
  1 27  1  0
  1 28  1  0
  1 29  1  0
  2 30  1  1
  5 31  1  0
  6 32  1  0
  9 33  1  0
 11 34  1  0
 12 35  1  0
 14 36  1  0
 17 37  1  0
 18 38  1  0
 22 39  1  0
 23 40  1  0
 24 41  1  0
 25 42  1  0
 26 43  1  0
M  CHG  1   3  -1
M  END
>  <meeko>  (18) 
{"free_energy": -6.77, "intermolecular_energy": -9.46, "internal_energy": -2.4, "cluster_size": 1, "cluster_id": 4, "rank_in_cluster": 1}

$$$$

     RDKit          3D

 43 45  0  0  0  0  0  0  0  0999 V2000
  141.4410   77.7300  219.4360 C   0  0  0  0  0  0  0  0  0  0  0  0
  141.3040   77.3810  220.9240 C   0  0  2  0  0  0  0  0  0  0  0  0
  139.9900   76.7990  221.2020 N   0  0  0  0  0  0  0  0  0  0  0  0
  139.7530   75.4770  221.7020 C   0  0  0  0  0  0  0  0  0  0  0  0
  138.5570   75.1840  222.3610 O   0  0  0  0  0  0  0  0  0  0  0  0
  140.6940   74.5470  221.5280 C   0  0  0  0  0  0  0  0  0  0  0  0
  140.7330   73.3730  222.3510 N   0  0  0  0  0  0  0  0  0  0  0  0
  139.7570   72.5320  222.5490 C   0  0  0  0  0  0  0  0  0  0  0  0
  138.6660   72.5510  221.6830 O   0  0  0  0  0  0  0  0  0  0  0  0
  139.7500   71.5430  223.6460 C   0  0  0  0  0  0  0  0  0  0  0  0
  139.2430   70.2470  223.4570 C   0  0  0  0  0  0  0  0  0  0  0  0
  139.2950   69.3250  224.5050 C   0  0  0  0  0  0  0  0  0  0  0  0
  139.8710   69.6920  225.7260 C   0  0  0  0  0  0  0  0  0  0  0  0
  139.9430   68.7910  226.7990 C   0  0  0  0  0  0  0  0  0  0  0  0
  140.5340   69.1840  228.0040 C   0  0  0  0  0  0  0  0  0  0  0  0
  140.6020   68.3120  229.0400 F   0  0  0  0  0  0  0  0  0  0  0  0
  141.0560   70.4750  228.1430 C   0  0  0  0  0  0  0  0  0  0  0  0
  140.9890   71.3790  227.0780 C   0  0  0  0  0  0  0  0  0  0  0  0
  140.3970   70.9950  225.8700 C   0  0  0  0  0  0  0  0  0  0  0  0
  140.3290   71.8720  224.8320 N   0  0  0  0  0  0  0  0  0  0  0  0
  141.5990   78.5240  221.8830 C   0  0  0  0  0  0  0  0  0  0  0  0
  141.9390   79.8210  221.4440 C   0  0  0  0  0  0  0  0  0  0  0  0
  142.1680   80.8440  222.3680 C   0  0  0  0  0  0  0  0  0  0  0  0
  142.0560   80.5930  223.7370 C   0  0  0  0  0  0  0  0  0  0  0  0
  141.7080   79.3170  224.1850 C   0  0  0  0  0  0  0  0  0  0  0  0
  141.4760   78.2900  223.2650 C   0  0  0  0  0  0  0  0  0  0  0  0
  141.8412   78.7495  219.3339 H   0  0  0  0  0  0  0  0  0  0  0  0
  142.1260   77.0172  218.9538 H   0  0  0  0  0  0  0  0  0  0  0  0
  140.4540   77.6735  218.9538 H   0  0  0  0  0  0  0  0  0  0  0  0
  142.0909   76.6365  221.1151 H   0  0  0  0  0  0  0  0  0  0  0  0
  138.4110   74.3280  222.8820 H   0  0  0  0  0  0  0  0  0  0  0  0
  141.4511   74.6828  220.7416 H   0  0  0  0  0  0  0  0  0  0  0  0
  138.3540   73.4140  221.2540 H   0  0  0  0  0  0  0  0  0  0  0  0
  138.8072   69.9595  222.4888 H   0  0  0  0  0  0  0  0  0  0  0  0
  138.8843   68.3134  224.3707 H   0  0  0  0  0  0  0  0  0  0  0  0
  139.5345   67.7752  226.6924 H   0  0  0  0  0  0  0  0  0  0  0  0
  141.5203   70.7796  229.0926 H   0  0  0  0  0  0  0  0  0  0  0  0
  141.4019   72.3924  227.1902 H   0  0  0  0  0  0  0  0  0  0  0  0
  142.0244   80.0283  220.3671 H   0  0  0  0  0  0  0  0  0  0  0  0
  142.4375   81.8506  222.0156 H   0  0  0  0  0  0  0  0  0  0  0  0
  142.2417   81.3994  224.4617 H   0  0  0  0  0  0  0  0  0  0  0  0
  141.6162   79.1195  225.2632 H   0  0  0  0  0  0  0  0  0  0  0  0
  141.1946   77.2894  223.6251 H   0  0  0  0  0  0  0  0  0  0  0  0
  1  2  1  0
  2  3  1  0
  3  4  1  0
  4  5  1  0
  4  6  2  0
  6  7  1  0
  7  8  2  0
  8  9  1  0
  8 10  1  0
 10 11  2  0
 11 12  1  0
 12 13  2  0
 13 14  1  0
 14 15  2  0
 15 16  1  0
 15 17  1  0
 17 18  2  0
 18 19  1  0
 19 20  2  0
  2 21  1  0
 21 22  2  0
 22 23  1  0
 23 24  2  0
 24 25  1  0
 25 26  2  0
 20 10  1  0
 26 21  1  0
 19 13  1  0
  1 27  1  0
  1 28  1  0
  1 29  1  0
  2 30  1  1
  5 31  1  0
  6 32  1  0
  9 33  1  0
 11 34  1  0
 12 35  1  0
 14 36  1  0
 17 37  1  0
 18 38  1  0
 22 39  1  0
 23 40  1  0
 24 41  1  0
 25 42  1  0
 26 43  1  0
M  CHG  1   3  -1
M  END
>  <meeko>  (19) 
{"free_energy": -7.4, "intermolecular_energy": -10.09, "internal_energy": -2.12, "cluster_size": 9, "cluster_id": 1, "rank_in_cluster": 6}

$$$$

     RDKit          3D

 43 45  0  0  0  0  0  0  0  0999 V2000
  142.0020   77.8050  219.4510 C   0  0  0  0  0  0  0  0  0  0  0  0
  141.6780   77.3770  220.8890 C   0  0  2  0  0  0  0  0  0  0  0  0
  140.3970   76.6710  220.9440 N   0  0  0  0  0  0  0  0  0  0  0  0
  140.1460   75.4510  221.6530 C   0  0  0  0  0  0  0  0  0  0  0  0
  139.2240   75.4290  222.7000 O   0  0  0  0  0  0  0  0  0  0  0  0
  140.8140   74.3520  221.2930 C   0  0  0  0  0  0  0  0  0  0  0  0
  140.7520   73.1590  222.0860 N   0  0  0  0  0  0  0  0  0  0  0  0
  139.6720   72.5540  222.4940 C   0  0  0  0  0  0  0  0  0  0  0  0
  138.4620   72.8430  221.8690 O   0  0  0  0  0  0  0  0  0  0  0  0
  139.6640   71.5590  223.5860 C   0  0  0  0  0  0  0  0  0  0  0  0
  139.1210   70.2780  223.4020 C   0  0  0  0  0  0  0  0  0  0  0  0
  139.1720   69.3490  224.4440 C   0  0  0  0  0  0  0  0  0  0  0  0
  139.7840   69.6950  225.6540 C   0  0  0  0  0  0  0  0  0  0  0  0
  139.8560   68.7860  226.7210 C   0  0  0  0  0  0  0  0  0  0  0  0
  140.4830   69.1580  227.9150 C   0  0  0  0  0  0  0  0  0  0  0  0
  140.5520   68.2800  228.9450 F   0  0  0  0  0  0  0  0  0  0  0  0
  141.0400   70.4360  228.0490 C   0  0  0  0  0  0  0  0  0  0  0  0
  140.9720   71.3470  226.9900 C   0  0  0  0  0  0  0  0  0  0  0  0
  140.3450   70.9840  225.7930 C   0  0  0  0  0  0  0  0  0  0  0  0
  140.2770   71.8680  224.7610 N   0  0  0  0  0  0  0  0  0  0  0  0
  141.7210   78.4940  221.9190 C   0  0  0  0  0  0  0  0  0  0  0  0
  141.4800   78.2770  223.2920 C   0  0  0  0  0  0  0  0  0  0  0  0
  141.5640   79.3350  224.2020 C   0  0  0  0  0  0  0  0  0  0  0  0
  141.8940   80.6170  223.7600 C   0  0  0  0  0  0  0  0  0  0  0  0
  142.1480   80.8440  222.4060 C   0  0  0  0  0  0  0  0  0  0  0  0
  142.0660   79.7900  221.4910 C   0  0  0  0  0  0  0  0  0  0  0  0
  142.6658   78.6819  219.4702 H   0  0  0  0  0  0  0  0  0  0  0  0
  142.5023   76.9778  218.9261 H   0  0  0  0  0  0  0  0  0  0  0  0
  141.0701   78.0620  218.9261 H   0  0  0  0  0  0  0  0  0  0  0  0
  142.4934   76.6956  221.1733 H   0  0  0  0  0  0  0  0  0  0  0  0
  138.8590   74.5700  223.0950 H   0  0  0  0  0  0  0  0  0  0  0  0
  141.4203   74.3622  220.3752 H   0  0  0  0  0  0  0  0  0  0  0  0
  138.1230   73.7960  221.8010 H   0  0  0  0  0  0  0  0  0  0  0  0
  138.6575   70.0068  222.4420 H   0  0  0  0  0  0  0  0  0  0  0  0
  138.7326   68.3490  224.3139 H   0  0  0  0  0  0  0  0  0  0  0  0
  139.4196   67.7815  226.6184 H   0  0  0  0  0  0  0  0  0  0  0  0
  141.5322   70.7240  228.9896 H   0  0  0  0  0  0  0  0  0  0  0  0
  141.4117   72.3495  227.0982 H   0  0  0  0  0  0  0  0  0  0  0  0
  141.2242   77.2685  223.6490 H   0  0  0  0  0  0  0  0  0  0  0  0
  141.3694   79.1564  225.2698 H   0  0  0  0  0  0  0  0  0  0  0  0
  141.9540   81.4482  224.4780 H   0  0  0  0  0  0  0  0  0  0  0  0
  142.4130   81.8535  222.0586 H   0  0  0  0  0  0  0  0  0  0  0  0
  142.2730   79.9752  220.4266 H   0  0  0  0  0  0  0  0  0  0  0  0
  1  2  1  0
  2  3  1  0
  3  4  1  0
  4  5  1  0
  4  6  2  0
  6  7  1  0
  7  8  2  0
  8  9  1  0
  8 10  1  0
 10 11  2  0
 11 12  1  0
 12 13  2  0
 13 14  1  0
 14 15  2  0
 15 16  1  0
 15 17  1  0
 17 18  2  0
 18 19  1  0
 19 20  2  0
  2 21  1  0
 21 22  2  0
 22 23  1  0
 23 24  2  0
 24 25  1  0
 25 26  2  0
 20 10  1  0
 26 21  1  0
 19 13  1  0
  1 27  1  0
  1 28  1  0
  1 29  1  0
  2 30  1  1
  5 31  1  0
  6 32  1  0
  9 33  1  0
 11 34  1  0
 12 35  1  0
 14 36  1  0
 17 37  1  0
 18 38  1  0
 22 39  1  0
 23 40  1  0
 24 41  1  0
 25 42  1  0
 26 43  1  0
M  CHG  1   3  -1
M  END
>  <meeko>  (20) 
{"free_energy": -7.4, "intermolecular_energy": -10.09, "internal_energy": -2.08, "cluster_size": 9, "cluster_id": 1, "rank_in_cluster": 5}

$$$$
