
     RDKit          3D

 43 45  0  0  0  0  0  0  0  0999 V2000
  140.3590   67.3600  226.1590 C   0  0  0  0  0  0  0  0  0  0  0  0
  139.3210   68.4670  226.3290 C   0  0  2  0  0  0  0  0  0  0  0  0
  138.5680   68.6200  225.0850 N   0  0  0  0  0  0  0  0  0  0  0  0
  137.7300   69.7390  224.7640 C   0  0  0  0  0  0  0  0  0  0  0  0
  138.2600   70.9060  224.2080 O   0  0  0  0  0  0  0  0  0  0  0  0
  136.4230   69.6570  224.9980 C   0  0  0  0  0  0  0  0  0  0  0  0
  135.5150   70.5090  224.2900 N   0  0  0  0  0  0  0  0  0  0  0  0
  135.4810   71.8120  224.3040 C   0  0  0  0  0  0  0  0  0  0  0  0
  136.3100   72.5900  223.4890 O   0  0  0  0  0  0  0  0  0  0  0  0
  134.5440   72.5100  225.2070 C   0  0  0  0  0  0  0  0  0  0  0  0
  133.5730   71.8110  225.9470 C   0  0  0  0  0  0  0  0  0  0  0  0
  132.7080   72.5120  226.7900 C   0  0  0  0  0  0  0  0  0  0  0  0
  132.8120   73.9040  226.8960 C   0  0  0  0  0  0  0  0  0  0  0  0
  131.9610   74.6370  227.7350 C   0  0  0  0  0  0  0  0  0  0  0  0
  132.0930   76.0270  227.8200 C   0  0  0  0  0  0  0  0  0  0  0  0
  131.2700   76.7370  228.6310 F   0  0  0  0  0  0  0  0  0  0  0  0
  133.0710   76.6890  227.0690 C   0  0  0  0  0  0  0  0  0  0  0  0
  133.9230   75.9630  226.2300 C   0  0  0  0  0  0  0  0  0  0  0  0
  133.7980   74.5730  226.1390 C   0  0  0  0  0  0  0  0  0  0  0  0
  134.6270   73.8640  225.3270 N   0  0  0  0  0  0  0  0  0  0  0  0
  139.9990   69.7660  226.7080 C   0  0  0  0  0  0  0  0  0  0  0  0
  140.8260   70.4420  225.7900 C   0  0  0  0  0  0  0  0  0  0  0  0
  141.4650   71.6300  226.1580 C   0  0  0  0  0  0  0  0  0  0  0  0
  141.2930   72.1500  227.4420 C   0  0  0  0  0  0  0  0  0  0  0  0
  140.4840   71.4800  228.3640 C   0  0  0  0  0  0  0  0  0  0  0  0
  139.8430   70.2910  228.0020 C   0  0  0  0  0  0  0  0  0  0  0  0
  140.6872   67.0100  227.1488 H   0  0  0  0  0  0  0  0  0  0  0  0
  139.9136   66.5220  225.6029 H   0  0  0  0  0  0  0  0  0  0  0  0
  141.2239   67.7506  225.6029 H   0  0  0  0  0  0  0  0  0  0  0  0
  138.6253   68.1968  227.1371 H   0  0  0  0  0  0  0  0  0  0  0  0
  138.0150   71.8270  224.5450 H   0  0  0  0  0  0  0  0  0  0  0  0
  136.0399   68.9355  225.7346 H   0  0  0  0  0  0  0  0  0  0  0  0
  137.2850   72.7720  223.6770 H   0  0  0  0  0  0  0  0  0  0  0  0
  133.4954   70.7170  225.8620 H   0  0  0  0  0  0  0  0  0  0  0  0
  131.9458   71.9710  227.3700 H   0  0  0  0  0  0  0  0  0  0  0  0
  131.1905   74.1198  228.3257 H   0  0  0  0  0  0  0  0  0  0  0  0
  133.1699   77.7823  227.1386 H   0  0  0  0  0  0  0  0  0  0  0  0
  134.6916   76.4856  225.6416 H   0  0  0  0  0  0  0  0  0  0  0  0
  140.9699   70.0335  224.7788 H   0  0  0  0  0  0  0  0  0  0  0  0
  142.1047   72.1560  225.4341 H   0  0  0  0  0  0  0  0  0  0  0  0
  141.7939   73.0866  227.7280 H   0  0  0  0  0  0  0  0  0  0  0  0
  140.3512   71.8888  229.3765 H   0  0  0  0  0  0  0  0  0  0  0  0
  139.2134   69.7640  228.7341 H   0  0  0  0  0  0  0  0  0  0  0  0
  1  2  1  0
  2  3  1  0
  3  4  1  0
  4  5  1  0
  4  6  2  0
  6  7  1  0
  7  8  2  0
  8  9  1  0
  8 10  1  0
 10 11  2  0
 11 12  1  0
 12 13  2  0
 13 14  1  0
 14 15  2  0
 15 16  1  0
 15 17  1  0
 17 18  2  0
 18 19  1  0
 19 20  2  0
  2 21  1  0
 21 22  2  0
 22 23  1  0
 23 24  2  0
 24 25  1  0
 25 26  2  0
 20 10  1  0
 26 21  1  0
 19 13  1  0
  1 27  1  0
  1 28  1  0
  1 29  1  0
  2 30  1  1
  5 31  1  0
  6 32  1  0
  9 33  1  0
 11 34  1  0
 12 35  1  0
 14 36  1  0
 17 37  1  0
 18 38  1  0
 22 39  1  0
 23 40  1  0
 24 41  1  0
 25 42  1  0
 26 43  1  0
M  CHG  1   3  -1
M  END
>  <meeko>  (1) 
{"free_energy": -7.22, "intermolecular_energy": -9.9, "internal_energy": -2.03, "cluster_size": 3, "cluster_id": 3, "rank_in_cluster": 1}

$$$$

     RDKit          3D

 43 45  0  0  0  0  0  0  0  0999 V2000
  139.1830   68.5630  224.7330 C   0  0  0  0  0  0  0  0  0  0  0  0
  139.2330   70.0900  224.7440 C   0  0  2  0  0  0  0  0  0  0  0  0
  139.9040   70.5610  223.5340 N   0  0  0  0  0  0  0  0  0  0  0  0
  139.4770   71.6760  222.7390 C   0  0  0  0  0  0  0  0  0  0  0  0
  138.1870   72.1990  222.8550 O   0  0  0  0  0  0  0  0  0  0  0  0
  140.3310   72.2200  221.8760 C   0  0  0  0  0  0  0  0  0  0  0  0
  140.6880   73.6030  221.9990 N   0  0  0  0  0  0  0  0  0  0  0  0
  139.8940   74.6330  221.9160 C   0  0  0  0  0  0  0  0  0  0  0  0
  138.5020   74.5080  221.9470 O   0  0  0  0  0  0  0  0  0  0  0  0
  140.4670   75.9880  221.7810 C   0  0  0  0  0  0  0  0  0  0  0  0
  141.3160   76.3280  220.7130 C   0  0  0  0  0  0  0  0  0  0  0  0
  141.8340   77.6220  220.6240 C   0  0  0  0  0  0  0  0  0  0  0  0
  141.5050   78.5730  221.5970 C   0  0  0  0  0  0  0  0  0  0  0  0
  142.0060   79.8810  221.5360 C   0  0  0  0  0  0  0  0  0  0  0  0
  141.6570   80.8090  222.5230 C   0  0  0  0  0  0  0  0  0  0  0  0
  142.1400   82.0740  222.4640 F   0  0  0  0  0  0  0  0  0  0  0  0
  140.8090   80.4350  223.5720 C   0  0  0  0  0  0  0  0  0  0  0  0
  140.3060   79.1320  223.6390 C   0  0  0  0  0  0  0  0  0  0  0  0
  140.6500   78.1980  222.6550 C   0  0  0  0  0  0  0  0  0  0  0  0
  140.1600   76.9310  222.7160 N   0  0  0  0  0  0  0  0  0  0  0  0
  139.9520   70.5810  225.9810 C   0  0  0  0  0  0  0  0  0  0  0  0
  139.8480   69.8840  227.2000 C   0  0  0  0  0  0  0  0  0  0  0  0
  140.4990   70.3590  228.3430 C   0  0  0  0  0  0  0  0  0  0  0  0
  141.2510   71.5330  228.2830 C   0  0  0  0  0  0  0  0  0  0  0  0
  141.3510   72.2400  227.0820 C   0  0  0  0  0  0  0  0  0  0  0  0
  140.7010   71.7690  225.9360 C   0  0  0  0  0  0  0  0  0  0  0  0
  139.1708   68.1891  225.7674 H   0  0  0  0  0  0  0  0  0  0  0  0
  138.2735   68.2297  224.2118 H   0  0  0  0  0  0  0  0  0  0  0  0
  140.0688   68.1709  224.2118 H   0  0  0  0  0  0  0  0  0  0  0  0
  138.2087   70.4905  224.7637 H   0  0  0  0  0  0  0  0  0  0  0  0
  137.9790   73.0080  223.4240 H   0  0  0  0  0  0  0  0  0  0  0  0
  140.7626   71.6094  221.0692 H   0  0  0  0  0  0  0  0  0  0  0  0
  137.9620   74.3440  222.7840 H   0  0  0  0  0  0  0  0  0  0  0  0
  141.5713   75.5776  219.9503 H   0  0  0  0  0  0  0  0  0  0  0  0
  142.4992   77.8933  219.7909 H   0  0  0  0  0  0  0  0  0  0  0  0
  142.6728   80.1773  220.7129 H   0  0  0  0  0  0  0  0  0  0  0  0
  140.5376   81.1682  224.3458 H   0  0  0  0  0  0  0  0  0  0  0  0
  139.6401   78.8411  224.4648 H   0  0  0  0  0  0  0  0  0  0  0  0
  139.2517   68.9612  227.2536 H   0  0  0  0  0  0  0  0  0  0  0  0
  140.4181   69.8064  229.2907 H   0  0  0  0  0  0  0  0  0  0  0  0
  141.7657   71.9022  229.1823 H   0  0  0  0  0  0  0  0  0  0  0  0
  141.9410   73.1673  227.0374 H   0  0  0  0  0  0  0  0  0  0  0  0
  140.7768   72.3321  224.9941 H   0  0  0  0  0  0  0  0  0  0  0  0
  1  2  1  0
  2  3  1  0
  3  4  1  0
  4  5  1  0
  4  6  2  0
  6  7  1  0
  7  8  2  0
  8  9  1  0
  8 10  1  0
 10 11  2  0
 11 12  1  0
 12 13  2  0
 13 14  1  0
 14 15  2  0
 15 16  1  0
 15 17  1  0
 17 18  2  0
 18 19  1  0
 19 20  2  0
  2 21  1  0
 21 22  2  0
 22 23  1  0
 23 24  2  0
 24 25  1  0
 25 26  2  0
 20 10  1  0
 26 21  1  0
 19 13  1  0
  1 27  1  0
  1 28  1  0
  1 29  1  0
  2 30  1  1
  5 31  1  0
  6 32  1  0
  9 33  1  0
 11 34  1  0
 12 35  1  0
 14 36  1  0
 17 37  1  0
 18 38  1  0
 22 39  1  0
 23 40  1  0
 24 41  1  0
 25 42  1  0
 26 43  1  0
M  CHG  1   3  -1
M  END
>  <meeko>  (2) 
{"free_energy": -7.85, "intermolecular_energy": -10.53, "internal_energy": -1.76, "cluster_size": 8, "cluster_id": 1, "rank_in_cluster": 1}

$$$$

     RDKit          3D

 43 45  0  0  0  0  0  0  0  0999 V2000
  142.5470   76.5400  219.7330 C   0  0  0  0  0  0  0  0  0  0  0  0
  142.3050   75.0470  219.9390 C   0  0  2  0  0  0  0  0  0  0  0  0
  141.7400   74.8260  221.2690 N   0  0  0  0  0  0  0  0  0  0  0  0
  140.7180   73.8700  221.5810 C   0  0  0  0  0  0  0  0  0  0  0  0
  139.5800   74.2340  222.3050 O   0  0  0  0  0  0  0  0  0  0  0  0
  140.8590   72.6140  221.1670 C   0  0  0  0  0  0  0  0  0  0  0  0
  140.0510   71.5770  221.7390 N   0  0  0  0  0  0  0  0  0  0  0  0
  139.2940   71.6600  222.7970 C   0  0  0  0  0  0  0  0  0  0  0  0
  138.0230   72.2410  222.7630 O   0  0  0  0  0  0  0  0  0  0  0  0
  139.7810   71.1300  224.0870 C   0  0  0  0  0  0  0  0  0  0  0  0
  140.6450   71.8720  224.9110 C   0  0  0  0  0  0  0  0  0  0  0  0
  141.0790   71.3310  226.1240 C   0  0  0  0  0  0  0  0  0  0  0  0
  140.6520   70.0560  226.5120 C   0  0  0  0  0  0  0  0  0  0  0  0
  141.0680   69.4850  227.7230 C   0  0  0  0  0  0  0  0  0  0  0  0
  140.6210   68.2100  228.0830 C   0  0  0  0  0  0  0  0  0  0  0  0
  141.0220   67.6580  229.2550 F   0  0  0  0  0  0  0  0  0  0  0  0
  139.7610   67.5000  227.2380 C   0  0  0  0  0  0  0  0  0  0  0  0
  139.3430   68.0640  226.0270 C   0  0  0  0  0  0  0  0  0  0  0  0
  139.7850   69.3390  225.6600 C   0  0  0  0  0  0  0  0  0  0  0  0
  139.3780   69.8910  224.4860 N   0  0  0  0  0  0  0  0  0  0  0  0
  143.5980   74.2790  219.7720 C   0  0  0  0  0  0  0  0  0  0  0  0
  143.9970   73.8070  218.5070 C   0  0  0  0  0  0  0  0  0  0  0  0
  145.1840   73.0800  218.3670 C   0  0  0  0  0  0  0  0  0  0  0  0
  145.9760   72.8100  219.4840 C   0  0  0  0  0  0  0  0  0  0  0  0
  145.5820   73.2630  220.7460 C   0  0  0  0  0  0  0  0  0  0  0  0
  144.3960   73.9910  220.8920 C   0  0  0  0  0  0  0  0  0  0  0  0
  142.6275   77.0368  220.7111 H   0  0  0  0  0  0  0  0  0  0  0  0
  143.4805   76.6859  219.1697 H   0  0  0  0  0  0  0  0  0  0  0  0
  141.7074   76.9733  219.1697 H   0  0  0  0  0  0  0  0  0  0  0  0
  141.5926   74.6839  219.1835 H   0  0  0  0  0  0  0  0  0  0  0  0
  139.2750   73.7310  223.1270 H   0  0  0  0  0  0  0  0  0  0  0  0
  141.5949   72.3710  220.3864 H   0  0  0  0  0  0  0  0  0  0  0  0
  137.8290   73.2020  223.0060 H   0  0  0  0  0  0  0  0  0  0  0  0
  140.9779   72.8739  224.6023 H   0  0  0  0  0  0  0  0  0  0  0  0
  141.7554   71.9065  226.7731 H   0  0  0  0  0  0  0  0  0  0  0  0
  141.7453   70.0395  228.3892 H   0  0  0  0  0  0  0  0  0  0  0  0
  139.4128   66.4970  227.5258 H   0  0  0  0  0  0  0  0  0  0  0  0
  138.6668   67.5043  225.3640 H   0  0  0  0  0  0  0  0  0  0  0  0
  143.3725   74.0108  217.6247 H   0  0  0  0  0  0  0  0  0  0  0  0
  145.4937   72.7205  217.3746 H   0  0  0  0  0  0  0  0  0  0  0  0
  146.9104   72.2406  219.3710 H   0  0  0  0  0  0  0  0  0  0  0  0
  146.2054   73.0469  221.6262 H   0  0  0  0  0  0  0  0  0  0  0  0
  144.0869   74.3395  221.8885 H   0  0  0  0  0  0  0  0  0  0  0  0
  1  2  1  0
  2  3  1  0
  3  4  1  0
  4  5  1  0
  4  6  2  0
  6  7  1  0
  7  8  2  0
  8  9  1  0
  8 10  1  0
 10 11  2  0
 11 12  1  0
 12 13  2  0
 13 14  1  0
 14 15  2  0
 15 16  1  0
 15 17  1  0
 17 18  2  0
 18 19  1  0
 19 20  2  0
  2 21  1  0
 21 22  2  0
 22 23  1  0
 23 24  2  0
 24 25  1  0
 25 26  2  0
 20 10  1  0
 26 21  1  0
 19 13  1  0
  1 27  1  0
  1 28  1  0
  1 29  1  0
  2 30  1  6
  5 31  1  0
  6 32  1  0
  9 33  1  0
 11 34  1  0
 12 35  1  0
 14 36  1  0
 17 37  1  0
 18 38  1  0
 22 39  1  0
 23 40  1  0
 24 41  1  0
 25 42  1  0
 26 43  1  0
M  CHG  1   3  -1
M  END
>  <meeko>  (3) 
{"free_energy": -6.99, "intermolecular_energy": -9.67, "internal_energy": -1.86, "cluster_size": 2, "cluster_id": 4, "rank_in_cluster": 2}

$$$$

     RDKit          3D

 43 45  0  0  0  0  0  0  0  0999 V2000
  141.7800   77.8870  219.3330 C   0  0  0  0  0  0  0  0  0  0  0  0
  141.6400   77.2580  220.7180 C   0  0  2  0  0  0  0  0  0  0  0  0
  140.3960   76.4910  220.7780 N   0  0  0  0  0  0  0  0  0  0  0  0
  140.1710   75.3550  221.6230 C   0  0  0  0  0  0  0  0  0  0  0  0
  139.3010   75.4220  222.7130 O   0  0  0  0  0  0  0  0  0  0  0  0
  140.8040   74.2150  221.3570 C   0  0  0  0  0  0  0  0  0  0  0  0
  140.7380   73.1260  222.2860 N   0  0  0  0  0  0  0  0  0  0  0  0
  139.6650   72.5680  222.7720 C   0  0  0  0  0  0  0  0  0  0  0  0
  138.3790   72.9390  222.3650 O   0  0  0  0  0  0  0  0  0  0  0  0
  139.7900   71.5080  223.7930 C   0  0  0  0  0  0  0  0  0  0  0  0
  139.4230   70.1770  223.5250 C   0  0  0  0  0  0  0  0  0  0  0  0
  139.5600   69.2070  224.5210 C   0  0  0  0  0  0  0  0  0  0  0  0
  140.0620   69.5640  225.7770 C   0  0  0  0  0  0  0  0  0  0  0  0
  140.2140   68.6140  226.7980 C   0  0  0  0  0  0  0  0  0  0  0  0
  140.7200   69.0020  228.0430 C   0  0  0  0  0  0  0  0  0  0  0  0
  140.8680   68.0840  229.0290 F   0  0  0  0  0  0  0  0  0  0  0  0
  141.0750   70.3360  228.2730 C   0  0  0  0  0  0  0  0  0  0  0  0
  140.9260   71.2880  227.2600 C   0  0  0  0  0  0  0  0  0  0  0  0
  140.4200   70.9080  226.0120 C   0  0  0  0  0  0  0  0  0  0  0  0
  140.2770   71.8310  225.0240 N   0  0  0  0  0  0  0  0  0  0  0  0
  141.6590   78.3310  221.7840 C   0  0  0  0  0  0  0  0  0  0  0  0
  141.4000   78.0140  223.1310 C   0  0  0  0  0  0  0  0  0  0  0  0
  141.3990   79.0170  224.1050 C   0  0  0  0  0  0  0  0  0  0  0  0
  141.6470   80.3430  223.7460 C   0  0  0  0  0  0  0  0  0  0  0  0
  141.8920   80.6700  222.4100 C   0  0  0  0  0  0  0  0  0  0  0  0
  141.8940   79.6710  221.4310 C   0  0  0  0  0  0  0  0  0  0  0  0
  142.0179   78.9558  219.4380 H   0  0  0  0  0  0  0  0  0  0  0  0
  142.5882   77.3839  218.7818 H   0  0  0  0  0  0  0  0  0  0  0  0
  140.8348   77.7742  218.7818 H   0  0  0  0  0  0  0  0  0  0  0  0
  142.4872   76.5806  220.9007 H   0  0  0  0  0  0  0  0  0  0  0  0
  139.1940   74.6610  223.3700 H   0  0  0  0  0  0  0  0  0  0  0  0
  141.3776   74.1087  220.4244 H   0  0  0  0  0  0  0  0  0  0  0  0
  137.8900   73.7570  222.6960 H   0  0  0  0  0  0  0  0  0  0  0  0
  139.0298   69.9010  222.5354 H   0  0  0  0  0  0  0  0  0  0  0  0
  139.2737   68.1645  224.3180 H   0  0  0  0  0  0  0  0  0  0  0  0
  139.9355   67.5649  226.6197 H   0  0  0  0  0  0  0  0  0  0  0  0
  141.4724   70.6364  229.2537 H   0  0  0  0  0  0  0  0  0  0  0  0
  141.2065   72.3356  227.4440 H   0  0  0  0  0  0  0  0  0  0  0  0
  141.1974   76.9718  223.4186 H   0  0  0  0  0  0  0  0  0  0  0  0
  141.2024   78.7607  225.1565 H   0  0  0  0  0  0  0  0  0  0  0  0
  141.6495   81.1300  224.5146 H   0  0  0  0  0  0  0  0  0  0  0  0
  142.0838   81.7156  222.1273 H   0  0  0  0  0  0  0  0  0  0  0  0
  142.0804   79.9354  220.3796 H   0  0  0  0  0  0  0  0  0  0  0  0
  1  2  1  0
  2  3  1  0
  3  4  1  0
  4  5  1  0
  4  6  2  0
  6  7  1  0
  7  8  2  0
  8  9  1  0
  8 10  1  0
 10 11  2  0
 11 12  1  0
 12 13  2  0
 13 14  1  0
 14 15  2  0
 15 16  1  0
 15 17  1  0
 17 18  2  0
 18 19  1  0
 19 20  2  0
  2 21  1  0
 21 22  2  0
 22 23  1  0
 23 24  2  0
 24 25  1  0
 25 26  2  0
 20 10  1  0
 26 21  1  0
 19 13  1  0
  1 27  1  0
  1 28  1  0
  1 29  1  0
  2 30  1  1
  5 31  1  0
  6 32  1  0
  9 33  1  0
 11 34  1  0
 12 35  1  0
 14 36  1  0
 17 37  1  0
 18 38  1  0
 22 39  1  0
 23 40  1  0
 24 41  1  0
 25 42  1  0
 26 43  1  0
M  CHG  1   3  -1
M  END
>  <meeko>  (4) 
{"free_energy": -7.8, "intermolecular_energy": -10.49, "internal_energy": -2.14, "cluster_size": 7, "cluster_id": 2, "rank_in_cluster": 2}

$$$$

     RDKit          3D

 43 45  0  0  0  0  0  0  0  0999 V2000
  139.1500   68.3840  224.7020 C   0  0  0  0  0  0  0  0  0  0  0  0
  139.1400   69.9100  224.6730 C   0  0  2  0  0  0  0  0  0  0  0  0
  139.7840   70.3760  223.4450 N   0  0  0  0  0  0  0  0  0  0  0  0
  139.5160   71.6280  222.8010 C   0  0  0  0  0  0  0  0  0  0  0  0
  138.2510   72.2180  222.8580 O   0  0  0  0  0  0  0  0  0  0  0  0
  140.4960   72.2370  222.1380 C   0  0  0  0  0  0  0  0  0  0  0  0
  140.7010   73.6460  222.3010 N   0  0  0  0  0  0  0  0  0  0  0  0
  139.9630   74.6120  221.8290 C   0  0  0  0  0  0  0  0  0  0  0  0
  138.6480   74.4050  221.4010 O   0  0  0  0  0  0  0  0  0  0  0  0
  140.5180   75.9760  221.7310 C   0  0  0  0  0  0  0  0  0  0  0  0
  141.3220   76.3700  220.6460 C   0  0  0  0  0  0  0  0  0  0  0  0
  141.8260   77.6720  220.5950 C   0  0  0  0  0  0  0  0  0  0  0  0
  141.5270   78.5770  221.6200 C   0  0  0  0  0  0  0  0  0  0  0  0
  142.0150   79.8910  221.5970 C   0  0  0  0  0  0  0  0  0  0  0  0
  141.6970   80.7720  222.6370 C   0  0  0  0  0  0  0  0  0  0  0  0
  142.1680   82.0430  222.6150 F   0  0  0  0  0  0  0  0  0  0  0  0
  140.8940   80.3440  223.7000 C   0  0  0  0  0  0  0  0  0  0  0  0
  140.4050   79.0340  223.7290 C   0  0  0  0  0  0  0  0  0  0  0  0
  140.7180   78.1480  222.6930 C   0  0  0  0  0  0  0  0  0  0  0  0
  140.2410   76.8740  222.7170 N   0  0  0  0  0  0  0  0  0  0  0  0
  139.8470   70.4620  225.8910 C   0  0  0  0  0  0  0  0  0  0  0  0
  139.5940   69.9350  227.1720 C   0  0  0  0  0  0  0  0  0  0  0  0
  140.2370   70.4660  228.2940 C   0  0  0  0  0  0  0  0  0  0  0  0
  141.1290   71.5300  228.1520 C   0  0  0  0  0  0  0  0  0  0  0  0
  141.3780   72.0690  226.8870 C   0  0  0  0  0  0  0  0  0  0  0  0
  140.7370   71.5420  225.7600 C   0  0  0  0  0  0  0  0  0  0  0  0
  139.1523   68.0371  225.7459 H   0  0  0  0  0  0  0  0  0  0  0  0
  138.2543   68.0017  224.1905 H   0  0  0  0  0  0  0  0  0  0  0  0
  140.0506   68.0134  224.1905 H   0  0  0  0  0  0  0  0  0  0  0  0
  138.1006   70.2696  224.6904 H   0  0  0  0  0  0  0  0  0  0  0  0
  138.1180   73.1950  223.0830 H   0  0  0  0  0  0  0  0  0  0  0  0
  141.1478   71.6597  221.4658 H   0  0  0  0  0  0  0  0  0  0  0  0
  138.1970   73.5030  221.3580 H   0  0  0  0  0  0  0  0  0  0  0  0
  141.5528   75.6563  219.8414 H   0  0  0  0  0  0  0  0  0  0  0  0
  142.4571   77.9855  219.7503 H   0  0  0  0  0  0  0  0  0  0  0  0
  142.6470   80.2292  220.7626 H   0  0  0  0  0  0  0  0  0  0  0  0
  140.6466   81.0399  224.5152 H   0  0  0  0  0  0  0  0  0  0  0  0
  139.7744   78.7006  224.5664 H   0  0  0  0  0  0  0  0  0  0  0  0
  138.8866   69.1010  227.2905 H   0  0  0  0  0  0  0  0  0  0  0  0
  140.0396   70.0445  229.2907 H   0  0  0  0  0  0  0  0  0  0  0  0
  141.6360   71.9443  229.0359 H   0  0  0  0  0  0  0  0  0  0  0  0
  142.0793   72.9093  226.7768 H   0  0  0  0  0  0  0  0  0  0  0  0
  140.9305   71.9749  224.7674 H   0  0  0  0  0  0  0  0  0  0  0  0
  1  2  1  0
  2  3  1  0
  3  4  1  0
  4  5  1  0
  4  6  2  0
  6  7  1  0
  7  8  2  0
  8  9  1  0
  8 10  1  0
 10 11  2  0
 11 12  1  0
 12 13  2  0
 13 14  1  0
 14 15  2  0
 15 16  1  0
 15 17  1  0
 17 18  2  0
 18 19  1  0
 19 20  2  0
  2 21  1  0
 21 22  2  0
 22 23  1  0
 23 24  2  0
 24 25  1  0
 25 26  2  0
 20 10  1  0
 26 21  1  0
 19 13  1  0
  1 27  1  0
  1 28  1  0
  1 29  1  0
  2 30  1  6
  5 31  1  0
  6 32  1  0
  9 33  1  0
 11 34  1  0
 12 35  1  0
 14 36  1  0
 17 37  1  0
 18 38  1  0
 22 39  1  0
 23 40  1  0
 24 41  1  0
 25 42  1  0
 26 43  1  0
M  CHG  1   3  -1
M  END
>  <meeko>  (5) 
{"free_energy": -7.21, "intermolecular_energy": -9.9, "internal_energy": -2.12, "cluster_size": 8, "cluster_id": 1, "rank_in_cluster": 3}

$$$$

     RDKit          3D

 43 45  0  0  0  0  0  0  0  0999 V2000
  141.8710   77.8020  219.3290 C   0  0  0  0  0  0  0  0  0  0  0  0
  141.6530   77.2820  220.7480 C   0  0  2  0  0  0  0  0  0  0  0  0
  140.3960   76.5370  220.8040 N   0  0  0  0  0  0  0  0  0  0  0  0
  140.1570   75.3890  221.6280 C   0  0  0  0  0  0  0  0  0  0  0  0
  139.2770   75.4430  222.7120 O   0  0  0  0  0  0  0  0  0  0  0  0
  140.7870   74.2500  221.3500 C   0  0  0  0  0  0  0  0  0  0  0  0
  140.7200   73.1520  222.2690 N   0  0  0  0  0  0  0  0  0  0  0  0
  139.6470   72.6040  222.7670 C   0  0  0  0  0  0  0  0  0  0  0  0
  138.3610   72.9830  222.3700 O   0  0  0  0  0  0  0  0  0  0  0  0
  139.7740   71.5480  223.7920 C   0  0  0  0  0  0  0  0  0  0  0  0
  139.4050   70.2160  223.5290 C   0  0  0  0  0  0  0  0  0  0  0  0
  139.5430   69.2500  224.5280 C   0  0  0  0  0  0  0  0  0  0  0  0
  140.0480   69.6100  225.7820 C   0  0  0  0  0  0  0  0  0  0  0  0
  140.2010   68.6630  226.8050 C   0  0  0  0  0  0  0  0  0  0  0  0
  140.7110   69.0550  228.0480 C   0  0  0  0  0  0  0  0  0  0  0  0
  140.8600   68.1400  229.0370 F   0  0  0  0  0  0  0  0  0  0  0  0
  141.0680   70.3900  228.2730 C   0  0  0  0  0  0  0  0  0  0  0  0
  140.9170   71.3390  227.2570 C   0  0  0  0  0  0  0  0  0  0  0  0
  140.4090   70.9550  226.0110 C   0  0  0  0  0  0  0  0  0  0  0  0
  140.2640   71.8750  225.0200 N   0  0  0  0  0  0  0  0  0  0  0  0
  141.6390   78.4320  221.7300 C   0  0  0  0  0  0  0  0  0  0  0  0
  141.3750   78.2110  223.0950 C   0  0  0  0  0  0  0  0  0  0  0  0
  141.3430   79.2850  223.9910 C   0  0  0  0  0  0  0  0  0  0  0  0
  141.5630   80.5850  223.5340 C   0  0  0  0  0  0  0  0  0  0  0  0
  141.8120   80.8170  222.1790 C   0  0  0  0  0  0  0  0  0  0  0  0
  141.8460   79.7470  221.2780 C   0  0  0  0  0  0  0  0  0  0  0  0
  142.2960   78.8157  219.3712 H   0  0  0  0  0  0  0  0  0  0  0  0
  142.5653   77.1352  218.7968 H   0  0  0  0  0  0  0  0  0  0  0  0
  140.9087   77.8297  218.7968 H   0  0  0  0  0  0  0  0  0  0  0  0
  142.4788   76.6093  221.0229 H   0  0  0  0  0  0  0  0  0  0  0  0
  139.1870   74.6870  223.3770 H   0  0  0  0  0  0  0  0  0  0  0  0
  141.3588   74.1513  220.4155 H   0  0  0  0  0  0  0  0  0  0  0  0
  137.8710   73.7920  222.7200 H   0  0  0  0  0  0  0  0  0  0  0  0
  139.0097   69.9368  222.5412 H   0  0  0  0  0  0  0  0  0  0  0  0
  139.2549   68.2072  224.3291 H   0  0  0  0  0  0  0  0  0  0  0  0
  139.9206   67.6137  226.6307 H   0  0  0  0  0  0  0  0  0  0  0  0
  141.4683   70.6932  229.2517 H   0  0  0  0  0  0  0  0  0  0  0  0
  141.1976   72.3872  227.4373 H   0  0  0  0  0  0  0  0  0  0  0  0
  141.1930   77.1890  223.4589 H   0  0  0  0  0  0  0  0  0  0  0  0
  141.1441   79.1043  225.0577 H   0  0  0  0  0  0  0  0  0  0  0  0
  141.5404   81.4275  224.2409 H   0  0  0  0  0  0  0  0  0  0  0  0
  141.9816   81.8428  221.8198 H   0  0  0  0  0  0  0  0  0  0  0  0
  142.0356   79.9356  220.2110 H   0  0  0  0  0  0  0  0  0  0  0  0
  1  2  1  0
  2  3  1  0
  3  4  1  0
  4  5  1  0
  4  6  2  0
  6  7  1  0
  7  8  2  0
  8  9  1  0
  8 10  1  0
 10 11  2  0
 11 12  1  0
 12 13  2  0
 13 14  1  0
 14 15  2  0
 15 16  1  0
 15 17  1  0
 17 18  2  0
 18 19  1  0
 19 20  2  0
  2 21  1  0
 21 22  2  0
 22 23  1  0
 23 24  2  0
 24 25  1  0
 25 26  2  0
 20 10  1  0
 26 21  1  0
 19 13  1  0
  1 27  1  0
  1 28  1  0
  1 29  1  0
  2 30  1  1
  5 31  1  0
  6 32  1  0
  9 33  1  0
 11 34  1  0
 12 35  1  0
 14 36  1  0
 17 37  1  0
 18 38  1  0
 22 39  1  0
 23 40  1  0
 24 41  1  0
 25 42  1  0
 26 43  1  0
M  CHG  1   3  -1
M  END
>  <meeko>  (6) 
{"free_energy": -7.79, "intermolecular_energy": -10.48, "internal_energy": -2.12, "cluster_size": 7, "cluster_id": 2, "rank_in_cluster": 3}

$$$$

     RDKit          3D

 43 45  0  0  0  0  0  0  0  0999 V2000
  138.4840   77.6860  222.7120 C   0  0  0  0  0  0  0  0  0  0  0  0
  139.4560   77.9790  221.5710 C   0  0  2  0  0  0  0  0  0  0  0  0
  139.9060   76.7180  220.9830 N   0  0  0  0  0  0  0  0  0  0  0  0
  139.7410   75.4260  221.5830 C   0  0  0  0  0  0  0  0  0  0  0  0
  138.5520   75.0690  222.2210 O   0  0  0  0  0  0  0  0  0  0  0  0
  140.7440   74.5530  221.5240 C   0  0  0  0  0  0  0  0  0  0  0  0
  140.7350   73.3970  222.3710 N   0  0  0  0  0  0  0  0  0  0  0  0
  139.7910   72.5040  222.4790 C   0  0  0  0  0  0  0  0  0  0  0  0
  138.7060   72.4530  221.5970 O   0  0  0  0  0  0  0  0  0  0  0  0
  139.8480   71.5070  223.5670 C   0  0  0  0  0  0  0  0  0  0  0  0
  139.3880   70.1900  223.3860 C   0  0  0  0  0  0  0  0  0  0  0  0
  139.4620   69.2800  224.4430 C   0  0  0  0  0  0  0  0  0  0  0  0
  139.9950   69.6810  225.6730 C   0  0  0  0  0  0  0  0  0  0  0  0
  140.0870   68.7910  226.7530 C   0  0  0  0  0  0  0  0  0  0  0  0
  140.6270   69.2230  227.9690 C   0  0  0  0  0  0  0  0  0  0  0  0
  140.7160   68.3630  229.0140 F   0  0  0  0  0  0  0  0  0  0  0  0
  141.0760   70.5410  228.1120 C   0  0  0  0  0  0  0  0  0  0  0  0
  140.9870   71.4340  227.0390 C   0  0  0  0  0  0  0  0  0  0  0  0
  140.4490   71.0100  225.8190 C   0  0  0  0  0  0  0  0  0  0  0  0
  140.3640   71.8750  224.7730 N   0  0  0  0  0  0  0  0  0  0  0  0
  140.6320   78.7830  222.0790 C   0  0  0  0  0  0  0  0  0  0  0  0
  141.1200   78.5980  223.3870 C   0  0  0  0  0  0  0  0  0  0  0  0
  142.1950   79.3620  223.8540 C   0  0  0  0  0  0  0  0  0  0  0  0
  142.7850   80.3200  223.0280 C   0  0  0  0  0  0  0  0  0  0  0  0
  142.3000   80.5190  221.7330 C   0  0  0  0  0  0  0  0  0  0  0  0
  141.2260   79.7590  221.2600 C   0  0  0  0  0  0  0  0  0  0  0  0
  138.9925   77.8393  223.6753 H   0  0  0  0  0  0  0  0  0  0  0  0
  137.6205   78.3638  222.6413 H   0  0  0  0  0  0  0  0  0  0  0  0
  138.1389   76.6439  222.6413 H   0  0  0  0  0  0  0  0  0  0  0  0
  138.9462   78.5725  220.7978 H   0  0  0  0  0  0  0  0  0  0  0  0
  138.4700   74.2400  222.7940 H   0  0  0  0  0  0  0  0  0  0  0  0
  141.5783   74.7185  220.8264 H   0  0  0  0  0  0  0  0  0  0  0  0
  138.3070   73.2580  221.1370 H   0  0  0  0  0  0  0  0  0  0  0  0
  138.9720   69.8783  222.4166 H   0  0  0  0  0  0  0  0  0  0  0  0
  139.1017   68.2494  224.3086 H   0  0  0  0  0  0  0  0  0  0  0  0
  139.7350   67.7546  226.6440 H   0  0  0  0  0  0  0  0  0  0  0  0
  141.4999   70.8753  229.0704 H   0  0  0  0  0  0  0  0  0  0  0  0
  141.3399   72.4694  227.1544 H   0  0  0  0  0  0  0  0  0  0  0  0
  140.6538   77.8494  224.0445 H   0  0  0  0  0  0  0  0  0  0  0  0
  142.5760   79.2074  224.8743 H   0  0  0  0  0  0  0  0  0  0  0  0
  143.6315   80.9181  223.3965 H   0  0  0  0  0  0  0  0  0  0  0  0
  142.7644   81.2758  221.0837 H   0  0  0  0  0  0  0  0  0  0  0  0
  140.8439   79.9256  220.2420 H   0  0  0  0  0  0  0  0  0  0  0  0
  1  2  1  0
  2  3  1  0
  3  4  1  0
  4  5  1  0
  4  6  2  0
  6  7  1  0
  7  8  2  0
  8  9  1  0
  8 10  1  0
 10 11  2  0
 11 12  1  0
 12 13  2  0
 13 14  1  0
 14 15  2  0
 15 16  1  0
 15 17  1  0
 17 18  2  0
 18 19  1  0
 19 20  2  0
  2 21  1  0
 21 22  2  0
 22 23  1  0
 23 24  2  0
 24 25  1  0
 25 26  2  0
 20 10  1  0
 26 21  1  0
 19 13  1  0
  1 27  1  0
  1 28  1  0
  1 29  1  0
  2 30  1  6
  5 31  1  0
  6 32  1  0
  9 33  1  0
 11 34  1  0
 12 35  1  0
 14 36  1  0
 17 37  1  0
 18 38  1  0
 22 39  1  0
 23 40  1  0
 24 41  1  0
 25 42  1  0
 26 43  1  0
M  CHG  1   3  -1
M  END
>  <meeko>  (7) 
{"free_energy": -7.22, "intermolecular_energy": -9.91, "internal_energy": -2.04, "cluster_size": 7, "cluster_id": 2, "rank_in_cluster": 6}

$$$$

     RDKit          3D

 43 45  0  0  0  0  0  0  0  0999 V2000
  141.7650   77.7910  219.3230 C   0  0  0  0  0  0  0  0  0  0  0  0
  141.6140   77.2640  220.7480 C   0  0  2  0  0  0  0  0  0  0  0  0
  140.3660   76.5090  220.8550 N   0  0  0  0  0  0  0  0  0  0  0  0
  140.1750   75.3490  221.6750 C   0  0  0  0  0  0  0  0  0  0  0  0
  139.2470   75.3430  222.7200 O   0  0  0  0  0  0  0  0  0  0  0  0
  140.8960   74.2570  221.4310 C   0  0  0  0  0  0  0  0  0  0  0  0
  140.8030   73.1280  222.3080 N   0  0  0  0  0  0  0  0  0  0  0  0
  139.7170   72.5650  222.7580 C   0  0  0  0  0  0  0  0  0  0  0  0
  138.4450   72.9250  222.3020 O   0  0  0  0  0  0  0  0  0  0  0  0
  139.8120   71.5120  223.7900 C   0  0  0  0  0  0  0  0  0  0  0  0
  139.4170   70.1870  223.5310 C   0  0  0  0  0  0  0  0  0  0  0  0
  139.5260   69.2240  224.5370 C   0  0  0  0  0  0  0  0  0  0  0  0
  140.0280   69.5800  225.7930 C   0  0  0  0  0  0  0  0  0  0  0  0
  140.1520   68.6370  226.8230 C   0  0  0  0  0  0  0  0  0  0  0  0
  140.6600   69.0250  228.0680 C   0  0  0  0  0  0  0  0  0  0  0  0
  140.7800   68.1130  229.0640 F   0  0  0  0  0  0  0  0  0  0  0  0
  141.0430   70.3530  228.2880 C   0  0  0  0  0  0  0  0  0  0  0  0
  140.9220   71.2990  227.2650 C   0  0  0  0  0  0  0  0  0  0  0  0
  140.4150   70.9190  226.0180 C   0  0  0  0  0  0  0  0  0  0  0  0
  140.2990   71.8360  225.0200 N   0  0  0  0  0  0  0  0  0  0  0  0
  141.6320   78.4100  221.7340 C   0  0  0  0  0  0  0  0  0  0  0  0
  141.3780   78.1890  223.1020 C   0  0  0  0  0  0  0  0  0  0  0  0
  141.3760   79.2590  224.0020 C   0  0  0  0  0  0  0  0  0  0  0  0
  141.6190   80.5570  223.5480 C   0  0  0  0  0  0  0  0  0  0  0  0
  141.8600   80.7890  222.1920 C   0  0  0  0  0  0  0  0  0  0  0  0
  141.8620   79.7220  221.2860 C   0  0  0  0  0  0  0  0  0  0  0  0
  142.0679   78.8481  219.3532 H   0  0  0  0  0  0  0  0  0  0  0  0
  142.5314   77.2049  218.7946 H   0  0  0  0  0  0  0  0  0  0  0  0
  140.8046   77.6997  218.7946 H   0  0  0  0  0  0  0  0  0  0  0  0
  142.4568   76.5978  220.9841 H   0  0  0  0  0  0  0  0  0  0  0  0
  139.2030   74.5990  223.4030 H   0  0  0  0  0  0  0  0  0  0  0  0
  141.5626   74.2215  220.5567 H   0  0  0  0  0  0  0  0  0  0  0  0
  137.8860   73.6670  222.6960 H   0  0  0  0  0  0  0  0  0  0  0  0
  139.0243   69.9106  222.5414 H   0  0  0  0  0  0  0  0  0  0  0  0
  139.2173   68.1865  224.3415 H   0  0  0  0  0  0  0  0  0  0  0  0
  139.8502   67.5930  226.6527 H   0  0  0  0  0  0  0  0  0  0  0  0
  141.4405   70.6537  229.2686 H   0  0  0  0  0  0  0  0  0  0  0  0
  141.2255   72.3416  227.4410 H   0  0  0  0  0  0  0  0  0  0  0  0
  141.1802   77.1693  223.4640 H   0  0  0  0  0  0  0  0  0  0  0  0
  141.1827   79.0780  225.0696 H   0  0  0  0  0  0  0  0  0  0  0  0
  141.6206   81.3968  224.2584 H   0  0  0  0  0  0  0  0  0  0  0  0
  142.0486   81.8123  221.8353 H   0  0  0  0  0  0  0  0  0  0  0  0
  142.0445   79.9114  220.2179 H   0  0  0  0  0  0  0  0  0  0  0  0
  1  2  1  0
  2  3  1  0
  3  4  1  0
  4  5  1  0
  4  6  2  0
  6  7  1  0
  7  8  2  0
  8  9  1  0
  8 10  1  0
 10 11  2  0
 11 12  1  0
 12 13  2  0
 13 14  1  0
 14 15  2  0
 15 16  1  0
 15 17  1  0
 17 18  2  0
 18 19  1  0
 19 20  2  0
  2 21  1  0
 21 22  2  0
 22 23  1  0
 23 24  2  0
 24 25  1  0
 25 26  2  0
 20 10  1  0
 26 21  1  0
 19 13  1  0
  1 27  1  0
  1 28  1  0
  1 29  1  0
  2 30  1  1
  5 31  1  0
  6 32  1  0
  9 33  1  0
 11 34  1  0
 12 35  1  0
 14 36  1  0
 17 37  1  0
 18 38  1  0
 22 39  1  0
 23 40  1  0
 24 41  1  0
 25 42  1  0
 26 43  1  0
M  CHG  1   3  -1
M  END
>  <meeko>  (8) 
{"free_energy": -7.85, "intermolecular_energy": -10.53, "internal_energy": -2.08, "cluster_size": 7, "cluster_id": 2, "rank_in_cluster": 1}

$$$$

     RDKit          3D

 43 45  0  0  0  0  0  0  0  0999 V2000
  138.9230   68.7260  224.8510 C   0  0  0  0  0  0  0  0  0  0  0  0
  139.1960   70.2270  224.7900 C   0  0  2  0  0  0  0  0  0  0  0  0
  139.9330   70.5370  223.5660 N   0  0  0  0  0  0  0  0  0  0  0  0
  139.7310   71.7040  222.7580 C   0  0  0  0  0  0  0  0  0  0  0  0
  138.5450   71.8960  222.0450 O   0  0  0  0  0  0  0  0  0  0  0  0
  140.6930   72.6200  222.6910 C   0  0  0  0  0  0  0  0  0  0  0  0
  140.5220   73.7790  221.8660 N   0  0  0  0  0  0  0  0  0  0  0  0
  139.5980   74.6930  221.9720 C   0  0  0  0  0  0  0  0  0  0  0  0
  138.2620   74.3780  222.2410 O   0  0  0  0  0  0  0  0  0  0  0  0
  139.9550   76.1160  221.8010 C   0  0  0  0  0  0  0  0  0  0  0  0
  139.5540   76.8470  220.6680 C   0  0  0  0  0  0  0  0  0  0  0  0
  139.9140   78.1910  220.5490 C   0  0  0  0  0  0  0  0  0  0  0  0
  140.6690   78.8030  221.5550 C   0  0  0  0  0  0  0  0  0  0  0  0
  141.0450   80.1520  221.4670 C   0  0  0  0  0  0  0  0  0  0  0  0
  141.7980   80.7350  222.4910 C   0  0  0  0  0  0  0  0  0  0  0  0
  142.1610   82.0380  222.4070 F   0  0  0  0  0  0  0  0  0  0  0  0
  142.1790   79.9760  223.6040 C   0  0  0  0  0  0  0  0  0  0  0  0
  141.8080   78.6310  223.6980 C   0  0  0  0  0  0  0  0  0  0  0  0
  141.0540   78.0400  222.6780 C   0  0  0  0  0  0  0  0  0  0  0  0
  140.6900   76.7330  222.7680 N   0  0  0  0  0  0  0  0  0  0  0  0
  139.9750   70.6670  226.0100 C   0  0  0  0  0  0  0  0  0  0  0  0
  139.9210   69.9250  227.2060 C   0  0  0  0  0  0  0  0  0  0  0  0
  140.6290   70.3520  228.3340 C   0  0  0  0  0  0  0  0  0  0  0  0
  141.3870   71.5230  228.2840 C   0  0  0  0  0  0  0  0  0  0  0  0
  141.4370   72.2730  227.1060 C   0  0  0  0  0  0  0  0  0  0  0  0
  140.7310   71.8510  225.9740 C   0  0  0  0  0  0  0  0  0  0  0  0
  138.8649   68.4063  225.9019 H   0  0  0  0  0  0  0  0  0  0  0  0
  137.9701   68.5059  224.3475 H   0  0  0  0  0  0  0  0  0  0  0  0
  139.7374   68.1844  224.3475 H   0  0  0  0  0  0  0  0  0  0  0  0
  138.2410   70.7728  224.7796 H   0  0  0  0  0  0  0  0  0  0  0  0
  138.3750   72.7210  221.4860 H   0  0  0  0  0  0  0  0  0  0  0  0
  141.6197   72.4879  223.2688 H   0  0  0  0  0  0  0  0  0  0  0  0
  137.9600   73.7520  222.9720 H   0  0  0  0  0  0  0  0  0  0  0  0
  138.9597   76.3622  219.8795 H   0  0  0  0  0  0  0  0  0  0  0  0
  139.6042   78.7678  219.6651 H   0  0  0  0  0  0  0  0  0  0  0  0
  140.7477   80.7504  220.5932 H   0  0  0  0  0  0  0  0  0  0  0  0
  142.7718   80.4389  224.4067 H   0  0  0  0  0  0  0  0  0  0  0  0
  142.1089   78.0375  224.5739 H   0  0  0  0  0  0  0  0  0  0  0  0
  139.3192   69.0054  227.2530 H   0  0  0  0  0  0  0  0  0  0  0  0
  140.5884   69.7637  229.2626 H   0  0  0  0  0  0  0  0  0  0  0  0
  141.9449   71.8554  229.1718 H   0  0  0  0  0  0  0  0  0  0  0  0
  142.0326   73.1971  227.0685 H   0  0  0  0  0  0  0  0  0  0  0  0
  140.7680   72.4490  225.0515 H   0  0  0  0  0  0  0  0  0  0  0  0
  1  2  1  0
  2  3  1  0
  3  4  1  0
  4  5  1  0
  4  6  2  0
  6  7  1  0
  7  8  2  0
  8  9  1  0
  8 10  1  0
 10 11  2  0
 11 12  1  0
 12 13  2  0
 13 14  1  0
 14 15  2  0
 15 16  1  0
 15 17  1  0
 17 18  2  0
 18 19  1  0
 19 20  2  0
  2 21  1  0
 21 22  2  0
 22 23  1  0
 23 24  2  0
 24 25  1  0
 25 26  2  0
 20 10  1  0
 26 21  1  0
 19 13  1  0
  1 27  1  0
  1 28  1  0
  1 29  1  0
  2 30  1  6
  5 31  1  0
  6 32  1  0
  9 33  1  0
 11 34  1  0
 12 35  1  0
 14 36  1  0
 17 37  1  0
 18 38  1  0
 22 39  1  0
 23 40  1  0
 24 41  1  0
 25 42  1  0
 26 43  1  0
M  CHG  1   3  -1
M  END
>  <meeko>  (9) 
{"free_energy": -6.99, "intermolecular_energy": -9.68, "internal_energy": -2.33, "cluster_size": 8, "cluster_id": 1, "rank_in_cluster": 7}

$$$$

     RDKit          3D

 43 45  0  0  0  0  0  0  0  0999 V2000
  139.1660   68.5540  224.7470 C   0  0  0  0  0  0  0  0  0  0  0  0
  139.2080   70.0800  224.7220 C   0  0  2  0  0  0  0  0  0  0  0  0
  139.8720   70.5260  223.4980 N   0  0  0  0  0  0  0  0  0  0  0  0
  139.6190   71.7710  222.8320 C   0  0  0  0  0  0  0  0  0  0  0  0
  138.3610   72.0670  222.3000 O   0  0  0  0  0  0  0  0  0  0  0  0
  140.6040   72.6590  222.7230 C   0  0  0  0  0  0  0  0  0  0  0  0
  140.4730   73.7650  221.8220 N   0  0  0  0  0  0  0  0  0  0  0  0
  139.7100   74.8130  221.9640 C   0  0  0  0  0  0  0  0  0  0  0  0
  138.3360   74.7100  222.2060 O   0  0  0  0  0  0  0  0  0  0  0  0
  140.2980   76.1640  221.8650 C   0  0  0  0  0  0  0  0  0  0  0  0
  141.2870   76.4710  220.9140 C   0  0  0  0  0  0  0  0  0  0  0  0
  141.8150   77.7630  220.8560 C   0  0  0  0  0  0  0  0  0  0  0  0
  141.3560   78.7440  221.7420 C   0  0  0  0  0  0  0  0  0  0  0  0
  141.8630   80.0510  221.7090 C   0  0  0  0  0  0  0  0  0  0  0  0
  141.3820   81.0100  222.6070 C   0  0  0  0  0  0  0  0  0  0  0  0
  141.8720   82.2740  222.5740 F   0  0  0  0  0  0  0  0  0  0  0  0
  140.3970   80.6680  223.5400 C   0  0  0  0  0  0  0  0  0  0  0  0
  139.8870   79.3660  223.5790 C   0  0  0  0  0  0  0  0  0  0  0  0
  140.3620   78.4010  222.6840 C   0  0  0  0  0  0  0  0  0  0  0  0
  139.8670   77.1350  222.7170 N   0  0  0  0  0  0  0  0  0  0  0  0
  139.9290   70.6040  225.9440 C   0  0  0  0  0  0  0  0  0  0  0  0
  140.7030   71.7780  225.8770 C   0  0  0  0  0  0  0  0  0  0  0  0
  141.3830   72.2420  227.0070 C   0  0  0  0  0  0  0  0  0  0  0  0
  141.3060   71.5360  228.2090 C   0  0  0  0  0  0  0  0  0  0  0  0
  140.5520   70.3620  228.2830 C   0  0  0  0  0  0  0  0  0  0  0  0
  139.8700   69.8940  227.1560 C   0  0  0  0  0  0  0  0  0  0  0  0
  139.1564   68.2045  225.7899 H   0  0  0  0  0  0  0  0  0  0  0  0
  138.2579   68.2037  224.2345 H   0  0  0  0  0  0  0  0  0  0  0  0
  140.0535   68.1543  224.2345 H   0  0  0  0  0  0  0  0  0  0  0  0
  138.1816   70.4754  224.7366 H   0  0  0  0  0  0  0  0  0  0  0  0
  138.1970   72.8710  221.7110 H   0  0  0  0  0  0  0  0  0  0  0  0
  141.5180   72.5439  223.3242 H   0  0  0  0  0  0  0  0  0  0  0  0
  137.9220   74.0940  222.8890 H   0  0  0  0  0  0  0  0  0  0  0  0
  141.6435   75.6970  220.2185 H   0  0  0  0  0  0  0  0  0  0  0  0
  142.5901   78.0087  220.1152 H   0  0  0  0  0  0  0  0  0  0  0  0
  142.6385   80.3221  220.9775 H   0  0  0  0  0  0  0  0  0  0  0  0
  140.0226   81.4250  224.2448 H   0  0  0  0  0  0  0  0  0  0  0  0
  139.1123   79.1007  224.3135 H   0  0  0  0  0  0  0  0  0  0  0  0
  140.7732   72.3334  224.9301 H   0  0  0  0  0  0  0  0  0  0  0  0
  141.9794   73.1645  226.9490 H   0  0  0  0  0  0  0  0  0  0  0  0
  141.8391   71.9041  229.0980 H   0  0  0  0  0  0  0  0  0  0  0  0
  140.4949   69.8050  229.2298 H   0  0  0  0  0  0  0  0  0  0  0  0
  139.2840   68.9651  227.2178 H   0  0  0  0  0  0  0  0  0  0  0  0
  1  2  1  0
  2  3  1  0
  3  4  1  0
  4  5  1  0
  4  6  2  0
  6  7  1  0
  7  8  2  0
  8  9  1  0
  8 10  1  0
 10 11  2  0
 11 12  1  0
 12 13  2  0
 13 14  1  0
 14 15  2  0
 15 16  1  0
 15 17  1  0
 17 18  2  0
 18 19  1  0
 19 20  2  0
  2 21  1  0
 21 22  2  0
 22 23  1  0
 23 24  2  0
 24 25  1  0
 25 26  2  0
 20 10  1  0
 26 21  1  0
 19 13  1  0
  1 27  1  0
  1 28  1  0
  1 29  1  0
  2 30  1  6
  5 31  1  0
  6 32  1  0
  9 33  1  0
 11 34  1  0
 12 35  1  0
 14 36  1  0
 17 37  1  0
 18 38  1  0
 22 39  1  0
 23 40  1  0
 24 41  1  0
 25 42  1  0
 26 43  1  0
M  CHG  1   3  -1
M  END
>  <meeko>  (10) 
{"free_energy": -7.07, "intermolecular_energy": -9.75, "internal_energy": -2.31, "cluster_size": 8, "cluster_id": 1, "rank_in_cluster": 5}

$$$$

     RDKit          3D

 43 45  0  0  0  0  0  0  0  0999 V2000
  138.9200   77.7890  221.9600 C   0  0  0  0  0  0  0  0  0  0  0  0
  140.3880   77.9350  221.5650 C   0  0  2  0  0  0  0  0  0  0  0  0
  141.0820   76.6700  221.8010 N   0  0  0  0  0  0  0  0  0  0  0  0
  140.4380   75.4030  221.9930 C   0  0  0  0  0  0  0  0  0  0  0  0
  139.2230   75.3020  222.6750 O   0  0  0  0  0  0  0  0  0  0  0  0
  141.0120   74.3050  221.5080 C   0  0  0  0  0  0  0  0  0  0  0  0
  140.8630   73.0560  222.1950 N   0  0  0  0  0  0  0  0  0  0  0  0
  139.7490   72.4740  222.5420 C   0  0  0  0  0  0  0  0  0  0  0  0
  138.5350   72.7440  221.9020 O   0  0  0  0  0  0  0  0  0  0  0  0
  139.7480   71.4970  223.6490 C   0  0  0  0  0  0  0  0  0  0  0  0
  139.1380   70.2360  223.5200 C   0  0  0  0  0  0  0  0  0  0  0  0
  139.1630   69.3430  224.5940 C   0  0  0  0  0  0  0  0  0  0  0  0
  139.7940   69.7050  225.7890 C   0  0  0  0  0  0  0  0  0  0  0  0
  139.8380   68.8310  226.8840 C   0  0  0  0  0  0  0  0  0  0  0  0
  140.4800   69.2230  228.0640 C   0  0  0  0  0  0  0  0  0  0  0  0
  140.5230   68.3770  229.1230 F   0  0  0  0  0  0  0  0  0  0  0  0
  141.0760   70.4850  228.1550 C   0  0  0  0  0  0  0  0  0  0  0  0
  141.0350   71.3620  227.0670 C   0  0  0  0  0  0  0  0  0  0  0  0
  140.3960   70.9780  225.8830 C   0  0  0  0  0  0  0  0  0  0  0  0
  140.3570   71.8280  224.8210 N   0  0  0  0  0  0  0  0  0  0  0  0
  141.0330   79.0540  222.3520 C   0  0  0  0  0  0  0  0  0  0  0  0
  142.4340   79.1800  222.4110 C   0  0  0  0  0  0  0  0  0  0  0  0
  143.0200   80.2060  223.1600 C   0  0  0  0  0  0  0  0  0  0  0  0
  142.2170   81.1080  223.8610 C   0  0  0  0  0  0  0  0  0  0  0  0
  140.8260   80.9840  223.8200 C   0  0  0  0  0  0  0  0  0  0  0  0
  140.2340   79.9590  223.0730 C   0  0  0  0  0  0  0  0  0  0  0  0
  138.8345   77.7805  223.0566 H   0  0  0  0  0  0  0  0  0  0  0  0
  138.3452   78.6344  221.5539 H   0  0  0  0  0  0  0  0  0  0  0  0
  138.5230   76.8469  221.5539 H   0  0  0  0  0  0  0  0  0  0  0  0
  140.4563   78.1861  220.4962 H   0  0  0  0  0  0  0  0  0  0  0  0
  138.9020   74.4370  223.0870 H   0  0  0  0  0  0  0  0  0  0  0  0
  141.6006   74.3558  220.5801 H   0  0  0  0  0  0  0  0  0  0  0  0
  138.1260   73.6630  221.8190 H   0  0  0  0  0  0  0  0  0  0  0  0
  138.6439   69.9546  222.5784 H   0  0  0  0  0  0  0  0  0  0  0  0
  138.6868   68.3558  224.5001 H   0  0  0  0  0  0  0  0  0  0  0  0
  139.3686   67.8385  226.8158 H   0  0  0  0  0  0  0  0  0  0  0  0
  141.5785   70.7884  229.0853 H   0  0  0  0  0  0  0  0  0  0  0  0
  141.5050   72.3537  227.1418 H   0  0  0  0  0  0  0  0  0  0  0  0
  143.0710   78.4682  221.8655 H   0  0  0  0  0  0  0  0  0  0  0  0
  144.1152   80.3023  223.1968 H   0  0  0  0  0  0  0  0  0  0  0  0
  142.6798   81.9166  224.4458 H   0  0  0  0  0  0  0  0  0  0  0  0
  140.1950   81.6932  224.3758 H   0  0  0  0  0  0  0  0  0  0  0  0
  139.1386   79.8610  223.0498 H   0  0  0  0  0  0  0  0  0  0  0  0
  1  2  1  0
  2  3  1  0
  3  4  1  0
  4  5  1  0
  4  6  2  0
  6  7  1  0
  7  8  2  0
  8  9  1  0
  8 10  1  0
 10 11  2  0
 11 12  1  0
 12 13  2  0
 13 14  1  0
 14 15  2  0
 15 16  1  0
 15 17  1  0
 17 18  2  0
 18 19  1  0
 19 20  2  0
  2 21  1  0
 21 22  2  0
 22 23  1  0
 23 24  2  0
 24 25  1  0
 25 26  2  0
 20 10  1  0
 26 21  1  0
 19 13  1  0
  1 27  1  0
  1 28  1  0
  1 29  1  0
  2 30  1  6
  5 31  1  0
  6 32  1  0
  9 33  1  0
 11 34  1  0
 12 35  1  0
 14 36  1  0
 17 37  1  0
 18 38  1  0
 22 39  1  0
 23 40  1  0
 24 41  1  0
 25 42  1  0
 26 43  1  0
M  CHG  1   3  -1
M  END
>  <meeko>  (11) 
{"free_energy": -7.44, "intermolecular_energy": -10.13, "internal_energy": -1.78, "cluster_size": 7, "cluster_id": 2, "rank_in_cluster": 5}

$$$$

     RDKit          3D

 43 45  0  0  0  0  0  0  0  0999 V2000
  139.0880   77.0120  220.6610 C   0  0  0  0  0  0  0  0  0  0  0  0
  140.6010   77.2140  220.7040 C   0  0  2  0  0  0  0  0  0  0  0  0
  141.2530   75.9330  220.9740 N   0  0  0  0  0  0  0  0  0  0  0  0
  140.6410   74.8260  221.6480 C   0  0  0  0  0  0  0  0  0  0  0  0
  139.6010   75.0160  222.5600 O   0  0  0  0  0  0  0  0  0  0  0  0
  141.0760   73.5940  221.3950 C   0  0  0  0  0  0  0  0  0  0  0  0
  140.1700   72.4860  221.4710 N   0  0  0  0  0  0  0  0  0  0  0  0
  139.2440   72.2830  222.3660 C   0  0  0  0  0  0  0  0  0  0  0  0
  137.9980   72.9170  222.3090 O   0  0  0  0  0  0  0  0  0  0  0  0
  139.5010   71.3590  223.4880 C   0  0  0  0  0  0  0  0  0  0  0  0
  139.2310   69.9830  223.3890 C   0  0  0  0  0  0  0  0  0  0  0  0
  139.4920   69.1460  224.4760 C   0  0  0  0  0  0  0  0  0  0  0  0
  140.0200   69.6790  225.6560 C   0  0  0  0  0  0  0  0  0  0  0  0
  140.2950   68.8660  226.7650 C   0  0  0  0  0  0  0  0  0  0  0  0
  140.8260   69.4310  227.9300 C   0  0  0  0  0  0  0  0  0  0  0  0
  141.0930   68.6440  229.0020 F   0  0  0  0  0  0  0  0  0  0  0  0
  141.0830   70.8050  227.9930 C   0  0  0  0  0  0  0  0  0  0  0  0
  140.8100   71.6220  226.8910 C   0  0  0  0  0  0  0  0  0  0  0  0
  140.2800   71.0650  225.7210 C   0  0  0  0  0  0  0  0  0  0  0  0
  140.0170   71.8560  224.6470 N   0  0  0  0  0  0  0  0  0  0  0  0
  140.9620   78.2320  221.7630 C   0  0  0  0  0  0  0  0  0  0  0  0
  142.1840   78.9290  221.7060 C   0  0  0  0  0  0  0  0  0  0  0  0
  142.5180   79.8530  222.7010 C   0  0  0  0  0  0  0  0  0  0  0  0
  141.6430   80.0830  223.7650 C   0  0  0  0  0  0  0  0  0  0  0  0
  140.4340   79.3870  223.8380 C   0  0  0  0  0  0  0  0  0  0  0  0
  140.0950   78.4620  222.8450 C   0  0  0  0  0  0  0  0  0  0  0  0
  138.6958   76.9596  221.6874 H   0  0  0  0  0  0  0  0  0  0  0  0
  138.6203   77.8557  220.1323 H   0  0  0  0  0  0  0  0  0  0  0  0
  138.8580   76.0752  220.1323 H   0  0  0  0  0  0  0  0  0  0  0  0
  140.9486   77.5943  219.7321 H   0  0  0  0  0  0  0  0  0  0  0  0
  139.2260   74.2630  223.1220 H   0  0  0  0  0  0  0  0  0  0  0  0
  142.1298   73.4262  221.1278 H   0  0  0  0  0  0  0  0  0  0  0  0
  137.7980   73.8190  222.7150 H   0  0  0  0  0  0  0  0  0  0  0  0
  138.8158   69.5672  222.4591 H   0  0  0  0  0  0  0  0  0  0  0  0
  139.2825   68.0686  224.4040 H   0  0  0  0  0  0  0  0  0  0  0  0
  140.0936   67.7856  226.7193 H   0  0  0  0  0  0  0  0  0  0  0  0
  141.5007   71.2436  228.9112 H   0  0  0  0  0  0  0  0  0  0  0  0
  141.0117   72.7021  226.9436 H   0  0  0  0  0  0  0  0  0  0  0  0
  142.8799   78.7457  220.8741 H   0  0  0  0  0  0  0  0  0  0  0  0
  143.4711   80.3994  222.6456 H   0  0  0  0  0  0  0  0  0  0  0  0
  141.9059   80.8122  224.5455 H   0  0  0  0  0  0  0  0  0  0  0  0
  139.7471   79.5667  224.6782 H   0  0  0  0  0  0  0  0  0  0  0  0
  139.1449   77.9117  222.9113 H   0  0  0  0  0  0  0  0  0  0  0  0
  1  2  1  0
  2  3  1  0
  3  4  1  0
  4  5  1  0
  4  6  2  0
  6  7  1  0
  7  8  2  0
  8  9  1  0
  8 10  1  0
 10 11  2  0
 11 12  1  0
 12 13  2  0
 13 14  1  0
 14 15  2  0
 15 16  1  0
 15 17  1  0
 17 18  2  0
 18 19  1  0
 19 20  2  0
  2 21  1  0
 21 22  2  0
 22 23  1  0
 23 24  2  0
 24 25  1  0
 25 26  2  0
 20 10  1  0
 26 21  1  0
 19 13  1  0
  1 27  1  0
  1 28  1  0
  1 29  1  0
  2 30  1  6
  5 31  1  0
  6 32  1  0
  9 33  1  0
 11 34  1  0
 12 35  1  0
 14 36  1  0
 17 37  1  0
 18 38  1  0
 22 39  1  0
 23 40  1  0
 24 41  1  0
 25 42  1  0
 26 43  1  0
M  CHG  1   3  -1
M  END
>  <meeko>  (12) 
{"free_energy": -7.14, "intermolecular_energy": -9.83, "internal_energy": -1.96, "cluster_size": 7, "cluster_id": 2, "rank_in_cluster": 7}

$$$$

     RDKit          3D

 43 45  0  0  0  0  0  0  0  0999 V2000
  139.1780   68.5180  224.6930 C   0  0  0  0  0  0  0  0  0  0  0  0
  139.2250   70.0450  224.6980 C   0  0  2  0  0  0  0  0  0  0  0  0
  139.9150   70.5130  223.4970 N   0  0  0  0  0  0  0  0  0  0  0  0
  139.6750   71.7680  222.8470 C   0  0  0  0  0  0  0  0  0  0  0  0
  138.4150   72.0940  222.3400 O   0  0  0  0  0  0  0  0  0  0  0  0
  140.6750   72.6380  222.7300 C   0  0  0  0  0  0  0  0  0  0  0  0
  140.5560   73.7490  221.8320 N   0  0  0  0  0  0  0  0  0  0  0  0
  139.7740   74.7840  221.9580 C   0  0  0  0  0  0  0  0  0  0  0  0
  138.4010   74.6590  222.1980 O   0  0  0  0  0  0  0  0  0  0  0  0
  140.3370   76.1440  221.8420 C   0  0  0  0  0  0  0  0  0  0  0  0
  141.2940   76.4660  220.8630 C   0  0  0  0  0  0  0  0  0  0  0  0
  141.8000   77.7660  220.7900 C   0  0  0  0  0  0  0  0  0  0  0  0
  141.3510   78.7410  221.6880 C   0  0  0  0  0  0  0  0  0  0  0  0
  141.8360   80.0560  221.6400 C   0  0  0  0  0  0  0  0  0  0  0  0
  141.3650   81.0070  222.5510 C   0  0  0  0  0  0  0  0  0  0  0  0
  141.8330   82.2780  222.5040 F   0  0  0  0  0  0  0  0  0  0  0  0
  140.4110   80.6500  223.5110 C   0  0  0  0  0  0  0  0  0  0  0  0
  139.9240   79.3400  223.5650 C   0  0  0  0  0  0  0  0  0  0  0  0
  140.3890   78.3830  222.6580 C   0  0  0  0  0  0  0  0  0  0  0  0
  139.9150   77.1090  222.7060 N   0  0  0  0  0  0  0  0  0  0  0  0
  139.9220   70.5420  225.9450 C   0  0  0  0  0  0  0  0  0  0  0  0
  139.7210   69.9070  227.1850 C   0  0  0  0  0  0  0  0  0  0  0  0
  140.3530   70.3890  228.3360 C   0  0  0  0  0  0  0  0  0  0  0  0
  141.1830   71.5090  228.2630 C   0  0  0  0  0  0  0  0  0  0  0  0
  141.3790   72.1540  227.0390 C   0  0  0  0  0  0  0  0  0  0  0  0
  140.7480   71.6770  225.8850 C   0  0  0  0  0  0  0  0  0  0  0  0
  139.1666   68.1481  225.7289 H   0  0  0  0  0  0  0  0  0  0  0  0
  138.2690   68.1808  224.1732 H   0  0  0  0  0  0  0  0  0  0  0  0
  140.0645   68.1256  224.1732 H   0  0  0  0  0  0  0  0  0  0  0  0
  138.1998   70.4438  224.6983 H   0  0  0  0  0  0  0  0  0  0  0  0
  138.2520   72.9190  221.7800 H   0  0  0  0  0  0  0  0  0  0  0  0
  141.5925   72.5047  223.3220 H   0  0  0  0  0  0  0  0  0  0  0  0
  138.0010   74.1170  222.9490 H   0  0  0  0  0  0  0  0  0  0  0  0
  141.6427   75.6973  220.1577 H   0  0  0  0  0  0  0  0  0  0  0  0
  142.5503   78.0230  220.0278 H   0  0  0  0  0  0  0  0  0  0  0  0
  142.5860   80.3392  220.8868 H   0  0  0  0  0  0  0  0  0  0  0  0
  140.0433   81.4018  224.2249 H   0  0  0  0  0  0  0  0  0  0  0  0
  139.1749   79.0626  224.3213 H   0  0  0  0  0  0  0  0  0  0  0  0
  139.0637   69.0274  227.2492 H   0  0  0  0  0  0  0  0  0  0  0  0
  140.1956   69.8844  229.3007 H   0  0  0  0  0  0  0  0  0  0  0  0
  141.6825   71.8837  229.1686 H   0  0  0  0  0  0  0  0  0  0  0  0
  142.0306   73.0384  226.9827 H   0  0  0  0  0  0  0  0  0  0  0  0
  140.8994   72.1933  224.9256 H   0  0  0  0  0  0  0  0  0  0  0  0
  1  2  1  0
  2  3  1  0
  3  4  1  0
  4  5  1  0
  4  6  2  0
  6  7  1  0
  7  8  2  0
  8  9  1  0
  8 10  1  0
 10 11  2  0
 11 12  1  0
 12 13  2  0
 13 14  1  0
 14 15  2  0
 15 16  1  0
 15 17  1  0
 17 18  2  0
 18 19  1  0
 19 20  2  0
  2 21  1  0
 21 22  2  0
 22 23  1  0
 23 24  2  0
 24 25  1  0
 25 26  2  0
 20 10  1  0
 26 21  1  0
 19 13  1  0
  1 27  1  0
  1 28  1  0
  1 29  1  0
  2 30  1  6
  5 31  1  0
  6 32  1  0
  9 33  1  0
 11 34  1  0
 12 35  1  0
 14 36  1  0
 17 37  1  0
 18 38  1  0
 22 39  1  0
 23 40  1  0
 24 41  1  0
 25 42  1  0
 26 43  1  0
M  CHG  1   3  -1
M  END
>  <meeko>  (13) 
{"free_energy": -7.12, "intermolecular_energy": -9.8, "internal_energy": -2.29, "cluster_size": 8, "cluster_id": 1, "rank_in_cluster": 4}

$$$$

     RDKit          3D

 43 45  0  0  0  0  0  0  0  0999 V2000
  139.5650   67.7100  225.3700 C   0  0  0  0  0  0  0  0  0  0  0  0
  138.6910   68.8710  225.8400 C   0  0  2  0  0  0  0  0  0  0  0  0
  137.8950   69.3640  224.7180 N   0  0  0  0  0  0  0  0  0  0  0  0
  136.4840   69.6200  224.7600 C   0  0  0  0  0  0  0  0  0  0  0  0
  135.5670   68.5910  224.9840 O   0  0  0  0  0  0  0  0  0  0  0  0
  136.0460   70.8640  224.5830 C   0  0  0  0  0  0  0  0  0  0  0  0
  134.6740   71.1830  224.8450 N   0  0  0  0  0  0  0  0  0  0  0  0
  134.0460   71.0940  225.9840 C   0  0  0  0  0  0  0  0  0  0  0  0
  134.0270   69.9150  226.7370 O   0  0  0  0  0  0  0  0  0  0  0  0
  133.3210   72.2660  226.5130 C   0  0  0  0  0  0  0  0  0  0  0  0
  132.0770   72.1370  227.1560 C   0  0  0  0  0  0  0  0  0  0  0  0
  131.4260   73.2740  227.6410 C   0  0  0  0  0  0  0  0  0  0  0  0
  132.0160   74.5340  227.4860 C   0  0  0  0  0  0  0  0  0  0  0  0
  131.3910   75.6950  227.9640 C   0  0  0  0  0  0  0  0  0  0  0  0
  132.0080   76.9390  227.7960 C   0  0  0  0  0  0  0  0  0  0  0  0
  131.4040   78.0620  228.2580 F   0  0  0  0  0  0  0  0  0  0  0  0
  133.2460   77.0290  227.1520 C   0  0  0  0  0  0  0  0  0  0  0  0
  133.8750   75.8750  226.6720 C   0  0  0  0  0  0  0  0  0  0  0  0
  133.2650   74.6270  226.8370 C   0  0  0  0  0  0  0  0  0  0  0  0
  133.8760   73.5030  226.3750 N   0  0  0  0  0  0  0  0  0  0  0  0
  139.5520   69.9750  226.4120 C   0  0  0  0  0  0  0  0  0  0  0  0
  139.6070   70.2020  227.8010 C   0  0  0  0  0  0  0  0  0  0  0  0
  140.3900   71.2390  228.3170 C   0  0  0  0  0  0  0  0  0  0  0  0
  141.1160   72.0640  227.4560 C   0  0  0  0  0  0  0  0  0  0  0  0
  141.0590   71.8560  226.0760 C   0  0  0  0  0  0  0  0  0  0  0  0
  140.2770   70.8200  225.5530 C   0  0  0  0  0  0  0  0  0  0  0  0
  139.9668   67.1763  226.2439 H   0  0  0  0  0  0  0  0  0  0  0  0
  138.9613   67.0186  224.7638 H   0  0  0  0  0  0  0  0  0  0  0  0
  140.3964   68.0989  224.7638 H   0  0  0  0  0  0  0  0  0  0  0  0
  138.0127   68.5219  226.6325 H   0  0  0  0  0  0  0  0  0  0  0  0
  134.5690   68.7500  225.0160 H   0  0  0  0  0  0  0  0  0  0  0  0
  136.7366   71.6467  224.2359 H   0  0  0  0  0  0  0  0  0  0  0  0
  134.7340   69.1960  226.6890 H   0  0  0  0  0  0  0  0  0  0  0  0
  131.6182   71.1445  227.2766 H   0  0  0  0  0  0  0  0  0  0  0  0
  130.4521   73.1794  228.1435 H   0  0  0  0  0  0  0  0  0  0  0  0
  130.4168   75.6273  228.4704 H   0  0  0  0  0  0  0  0  0  0  0  0
  133.7267   78.0099  227.0224 H   0  0  0  0  0  0  0  0  0  0  0  0
  134.8485   75.9491  226.1652 H   0  0  0  0  0  0  0  0  0  0  0  0
  139.0308   69.5599  228.4835 H   0  0  0  0  0  0  0  0  0  0  0  0
  140.4341   71.4052  229.4035 H   0  0  0  0  0  0  0  0  0  0  0  0
  141.7330   72.8779  227.8644 H   0  0  0  0  0  0  0  0  0  0  0  0
  141.6301   72.5080  225.3987 H   0  0  0  0  0  0  0  0  0  0  0  0
  140.2292   70.6659  224.4649 H   0  0  0  0  0  0  0  0  0  0  0  0
  1  2  1  0
  2  3  1  0
  3  4  1  0
  4  5  1  0
  4  6  2  0
  6  7  1  0
  7  8  2  0
  8  9  1  0
  8 10  1  0
 10 11  2  0
 11 12  1  0
 12 13  2  0
 13 14  1  0
 14 15  2  0
 15 16  1  0
 15 17  1  0
 17 18  2  0
 18 19  1  0
 19 20  2  0
  2 21  1  0
 21 22  2  0
 22 23  1  0
 23 24  2  0
 24 25  1  0
 25 26  2  0
 20 10  1  0
 26 21  1  0
 19 13  1  0
  1 27  1  0
  1 28  1  0
  1 29  1  0
  2 30  1  1
  5 31  1  0
  6 32  1  0
  9 33  1  0
 11 34  1  0
 12 35  1  0
 14 36  1  0
 17 37  1  0
 18 38  1  0
 22 39  1  0
 23 40  1  0
 24 41  1  0
 25 42  1  0
 26 43  1  0
M  CHG  1   3  -1
M  END
>  <meeko>  (14) 
{"free_energy": -6.69, "intermolecular_energy": -9.38, "internal_energy": -2.38, "cluster_size": 3, "cluster_id": 3, "rank_in_cluster": 2}

$$$$

     RDKit          3D

 43 45  0  0  0  0  0  0  0  0999 V2000
  142.7990   76.3080  218.9240 C   0  0  0  0  0  0  0  0  0  0  0  0
  142.3570   74.9860  219.5480 C   0  0  2  0  0  0  0  0  0  0  0  0
  141.4470   75.2560  220.6600 N   0  0  0  0  0  0  0  0  0  0  0  0
  140.5220   74.3100  221.2140 C   0  0  0  0  0  0  0  0  0  0  0  0
  139.7980   74.5960  222.3740 O   0  0  0  0  0  0  0  0  0  0  0  0
  140.3530   73.1390  220.6060 C   0  0  0  0  0  0  0  0  0  0  0  0
  139.9810   71.9840  221.3690 N   0  0  0  0  0  0  0  0  0  0  0  0
  139.1260   71.9290  222.3520 C   0  0  0  0  0  0  0  0  0  0  0  0
  137.9530   72.6900  222.3650 O   0  0  0  0  0  0  0  0  0  0  0  0
  139.3900   71.0420  223.5020 C   0  0  0  0  0  0  0  0  0  0  0  0
  139.0740   69.6720  223.4660 C   0  0  0  0  0  0  0  0  0  0  0  0
  139.3420   68.8700  224.5780 C   0  0  0  0  0  0  0  0  0  0  0  0
  139.9250   69.4320  225.7190 C   0  0  0  0  0  0  0  0  0  0  0  0
  140.2100   68.6540  226.8510 C   0  0  0  0  0  0  0  0  0  0  0  0
  140.7950   69.2460  227.9750 C   0  0  0  0  0  0  0  0  0  0  0  0
  141.0710   68.4940  229.0690 F   0  0  0  0  0  0  0  0  0  0  0  0
  141.0960   70.6120  227.9750 C   0  0  0  0  0  0  0  0  0  0  0  0
  140.8140   71.3940  226.8500 C   0  0  0  0  0  0  0  0  0  0  0  0
  140.2300   70.8100  225.7210 C   0  0  0  0  0  0  0  0  0  0  0  0
  139.9580   71.5670  224.6240 N   0  0  0  0  0  0  0  0  0  0  0  0
  143.5610   74.2020  220.0200 C   0  0  0  0  0  0  0  0  0  0  0  0
  144.7360   74.8620  220.4290 C   0  0  0  0  0  0  0  0  0  0  0  0
  145.8510   74.1260  220.8430 C   0  0  0  0  0  0  0  0  0  0  0  0
  145.8090   72.7310  220.8450 C   0  0  0  0  0  0  0  0  0  0  0  0
  144.6520   72.0660  220.4290 C   0  0  0  0  0  0  0  0  0  0  0  0
  143.5340   72.7970  220.0140 C   0  0  0  0  0  0  0  0  0  0  0  0
  143.0395   77.0273  219.7208 H   0  0  0  0  0  0  0  0  0  0  0  0
  143.6897   76.1397  218.3009 H   0  0  0  0  0  0  0  0  0  0  0  0
  141.9861   76.7092  218.3009 H   0  0  0  0  0  0  0  0  0  0  0  0
  141.8311   74.3820  218.7939 H   0  0  0  0  0  0  0  0  0  0  0  0
  139.5770   73.8920  223.0640 H   0  0  0  0  0  0  0  0  0  0  0  0
  140.4986   73.0571  219.5188 H   0  0  0  0  0  0  0  0  0  0  0  0
  137.8880   73.6330  222.7210 H   0  0  0  0  0  0  0  0  0  0  0  0
  138.6178   69.2339  222.5661 H   0  0  0  0  0  0  0  0  0  0  0  0
  139.0950   67.7983  224.5566 H   0  0  0  0  0  0  0  0  0  0  0  0
  139.9737   67.5797  226.8546 H   0  0  0  0  0  0  0  0  0  0  0  0
  141.5556   71.0725  228.8620 H   0  0  0  0  0  0  0  0  0  0  0  0
  141.0514   72.4681  226.8531 H   0  0  0  0  0  0  0  0  0  0  0  0
  144.7770   75.9612  220.4228 H   0  0  0  0  0  0  0  0  0  0  0  0
  146.7632   74.6479  221.1678 H   0  0  0  0  0  0  0  0  0  0  0  0
  146.6864   72.1548  221.1739 H   0  0  0  0  0  0  0  0  0  0  0  0
  144.6207   70.9664  220.4280 H   0  0  0  0  0  0  0  0  0  0  0  0
  142.6283   72.2690  219.6810 H   0  0  0  0  0  0  0  0  0  0  0  0
  1  2  1  0
  2  3  1  0
  3  4  1  0
  4  5  1  0
  4  6  2  0
  6  7  1  0
  7  8  2  0
  8  9  1  0
  8 10  1  0
 10 11  2  0
 11 12  1  0
 12 13  2  0
 13 14  1  0
 14 15  2  0
 15 16  1  0
 15 17  1  0
 17 18  2  0
 18 19  1  0
 19 20  2  0
  2 21  1  0
 21 22  2  0
 22 23  1  0
 23 24  2  0
 24 25  1  0
 25 26  2  0
 20 10  1  0
 26 21  1  0
 19 13  1  0
  1 27  1  0
  1 28  1  0
  1 29  1  0
  2 30  1  6
  5 31  1  0
  6 32  1  0
  9 33  1  0
 11 34  1  0
 12 35  1  0
 14 36  1  0
 17 37  1  0
 18 38  1  0
 22 39  1  0
 23 40  1  0
 24 41  1  0
 25 42  1  0
 26 43  1  0
M  CHG  1   3  -1
M  END
>  <meeko>  (15) 
{"free_energy": -7.07, "intermolecular_energy": -9.76, "internal_energy": -2.18, "cluster_size": 2, "cluster_id": 4, "rank_in_cluster": 1}

$$$$

     RDKit          3D

 43 45  0  0  0  0  0  0  0  0999 V2000
  139.5450   67.7720  225.3480 C   0  0  0  0  0  0  0  0  0  0  0  0
  138.7150   68.9640  225.8160 C   0  0  2  0  0  0  0  0  0  0  0  0
  137.9540   69.4970  224.6870 N   0  0  0  0  0  0  0  0  0  0  0  0
  136.5270   69.6370  224.6490 C   0  0  0  0  0  0  0  0  0  0  0  0
  135.6850   68.5700  224.9750 O   0  0  0  0  0  0  0  0  0  0  0  0
  136.0000   70.8070  224.3000 C   0  0  0  0  0  0  0  0  0  0  0  0
  134.6230   71.0850  224.5850 N   0  0  0  0  0  0  0  0  0  0  0  0
  134.0250   71.0100  225.7410 C   0  0  0  0  0  0  0  0  0  0  0  0
  133.9630   69.8200  226.4740 O   0  0  0  0  0  0  0  0  0  0  0  0
  133.3810   72.2110  226.3110 C   0  0  0  0  0  0  0  0  0  0  0  0
  132.1930   72.1270  227.0580 C   0  0  0  0  0  0  0  0  0  0  0  0
  131.6200   73.2890  227.5790 C   0  0  0  0  0  0  0  0  0  0  0  0
  132.2300   74.5290  227.3560 C   0  0  0  0  0  0  0  0  0  0  0  0
  131.6810   75.7140  227.8670 C   0  0  0  0  0  0  0  0  0  0  0  0
  132.3170   76.9370  227.6280 C   0  0  0  0  0  0  0  0  0  0  0  0
  131.7880   78.0830  228.1220 F   0  0  0  0  0  0  0  0  0  0  0  0
  133.4990   76.9810  226.8790 C   0  0  0  0  0  0  0  0  0  0  0  0
  134.0510   75.8030  226.3660 C   0  0  0  0  0  0  0  0  0  0  0  0
  133.4220   74.5760  226.6010 C   0  0  0  0  0  0  0  0  0  0  0  0
  133.9580   73.4280  226.1070 N   0  0  0  0  0  0  0  0  0  0  0  0
  139.6130   70.0280  226.4060 C   0  0  0  0  0  0  0  0  0  0  0  0
  140.3100   70.9260  225.5740 C   0  0  0  0  0  0  0  0  0  0  0  0
  141.1550   71.8920  226.1290 C   0  0  0  0  0  0  0  0  0  0  0  0
  141.3200   71.9670  227.5130 C   0  0  0  0  0  0  0  0  0  0  0  0
  140.6430   71.0730  228.3470 C   0  0  0  0  0  0  0  0  0  0  0  0
  139.7970   70.1040  227.7970 C   0  0  0  0  0  0  0  0  0  0  0  0
  139.9262   67.2246  226.2227 H   0  0  0  0  0  0  0  0  0  0  0  0
  138.9165   67.1029  224.7420 H   0  0  0  0  0  0  0  0  0  0  0  0
  140.3906   68.1293  224.7420 H   0  0  0  0  0  0  0  0  0  0  0  0
  138.0138   68.6379  226.5983 H   0  0  0  0  0  0  0  0  0  0  0  0
  134.6780   68.6560  224.9790 H   0  0  0  0  0  0  0  0  0  0  0  0
  136.6203   71.5608  223.7930 H   0  0  0  0  0  0  0  0  0  0  0  0
  134.7530   69.2180  226.6520 H   0  0  0  0  0  0  0  0  0  0  0  0
  131.7171   71.1505  227.2313 H   0  0  0  0  0  0  0  0  0  0  0  0
  130.6903   73.2300  228.1640 H   0  0  0  0  0  0  0  0  0  0  0  0
  130.7518   75.6819  228.4548 H   0  0  0  0  0  0  0  0  0  0  0  0
  133.9950   77.9451  226.6935 H   0  0  0  0  0  0  0  0  0  0  0  0
  134.9797   75.8413  225.7778 H   0  0  0  0  0  0  0  0  0  0  0  0
  140.1889   70.8670  224.4823 H   0  0  0  0  0  0  0  0  0  0  0  0
  141.6908   72.5943  225.4735 H   0  0  0  0  0  0  0  0  0  0  0  0
  141.9830   72.7298  227.9473 H   0  0  0  0  0  0  0  0  0  0  0  0
  140.7755   71.1313  229.4374 H   0  0  0  0  0  0  0  0  0  0  0  0
  139.2728   69.3975  228.4573 H   0  0  0  0  0  0  0  0  0  0  0  0
  1  2  1  0
  2  3  1  0
  3  4  1  0
  4  5  1  0
  4  6  2  0
  6  7  1  0
  7  8  2  0
  8  9  1  0
  8 10  1  0
 10 11  2  0
 11 12  1  0
 12 13  2  0
 13 14  1  0
 14 15  2  0
 15 16  1  0
 15 17  1  0
 17 18  2  0
 18 19  1  0
 19 20  2  0
  2 21  1  0
 21 22  2  0
 22 23  1  0
 23 24  2  0
 24 25  1  0
 25 26  2  0
 20 10  1  0
 26 21  1  0
 19 13  1  0
  1 27  1  0
  1 28  1  0
  1 29  1  0
  2 30  1  1
  5 31  1  0
  6 32  1  0
  9 33  1  0
 11 34  1  0
 12 35  1  0
 14 36  1  0
 17 37  1  0
 18 38  1  0
 22 39  1  0
 23 40  1  0
 24 41  1  0
 25 42  1  0
 26 43  1  0
M  CHG  1   3  -1
M  END
>  <meeko>  (16) 
{"free_energy": -6.69, "intermolecular_energy": -9.37, "internal_energy": -2.34, "cluster_size": 3, "cluster_id": 3, "rank_in_cluster": 3}

$$$$

     RDKit          3D

 43 45  0  0  0  0  0  0  0  0999 V2000
  139.1820   69.5360  223.7210 C   0  0  0  0  0  0  0  0  0  0  0  0
  139.4310   70.9150  224.3280 C   0  0  2  0  0  0  0  0  0  0  0  0
  140.3470   71.6640  223.4690 N   0  0  0  0  0  0  0  0  0  0  0  0
  139.9480   72.5250  222.3940 C   0  0  0  0  0  0  0  0  0  0  0  0
  138.6830   72.4190  221.8110 O   0  0  0  0  0  0  0  0  0  0  0  0
  140.8020   73.4420  221.9470 C   0  0  0  0  0  0  0  0  0  0  0  0
  140.3190   74.7210  221.5180 N   0  0  0  0  0  0  0  0  0  0  0  0
  139.3670   75.4270  222.0600 C   0  0  0  0  0  0  0  0  0  0  0  0
  138.0830   74.9140  222.2720 O   0  0  0  0  0  0  0  0  0  0  0  0
  139.6320   76.8220  222.4670 C   0  0  0  0  0  0  0  0  0  0  0  0
  138.5870   77.7230  222.7410 C   0  0  0  0  0  0  0  0  0  0  0  0
  138.8850   79.0320  223.1240 C   0  0  0  0  0  0  0  0  0  0  0  0
  140.2190   79.4410  223.2330 C   0  0  0  0  0  0  0  0  0  0  0  0
  140.5520   80.7480  223.6170 C   0  0  0  0  0  0  0  0  0  0  0  0
  141.8960   81.1250  223.7200 C   0  0  0  0  0  0  0  0  0  0  0  0
  142.2180   82.3880  224.0910 F   0  0  0  0  0  0  0  0  0  0  0  0
  142.9090   80.2010  223.4390 C   0  0  0  0  0  0  0  0  0  0  0  0
  142.5830   78.8960  223.0550 C   0  0  0  0  0  0  0  0  0  0  0  0
  141.2420   78.5110  222.9510 C   0  0  0  0  0  0  0  0  0  0  0  0
  140.9230   77.2420  222.5810 N   0  0  0  0  0  0  0  0  0  0  0  0
  139.9960   70.7780  225.7240 C   0  0  0  0  0  0  0  0  0  0  0  0
  140.6560   71.8560  226.3440 C   0  0  0  0  0  0  0  0  0  0  0  0
  141.1940   71.7120  227.6260 C   0  0  0  0  0  0  0  0  0  0  0  0
  141.0870   70.4930  228.2980 C   0  0  0  0  0  0  0  0  0  0  0  0
  140.4450   69.4120  227.6870 C   0  0  0  0  0  0  0  0  0  0  0  0
  139.9060   69.5510  226.4030 C   0  0  0  0  0  0  0  0  0  0  0  0
  139.0490   68.7992  224.5269 H   0  0  0  0  0  0  0  0  0  0  0  0
  138.2750   69.5673  223.0994 H   0  0  0  0  0  0  0  0  0  0  0  0
  140.0427   69.2481  223.0994 H   0  0  0  0  0  0  0  0  0  0  0  0
  138.4794   71.4622  224.3983 H   0  0  0  0  0  0  0  0  0  0  0  0
  138.2820   73.1550  221.2470 H   0  0  0  0  0  0  0  0  0  0  0  0
  141.8783   73.2184  221.9068 H   0  0  0  0  0  0  0  0  0  0  0  0
  137.8780   74.1160  222.8560 H   0  0  0  0  0  0  0  0  0  0  0  0
  137.5398   77.3976  222.6539 H   0  0  0  0  0  0  0  0  0  0  0  0
  138.0722   79.7411  223.3398 H   0  0  0  0  0  0  0  0  0  0  0  0
  139.7576   81.4763  223.8371 H   0  0  0  0  0  0  0  0  0  0  0  0
  143.9640   80.5017  223.5203 H   0  0  0  0  0  0  0  0  0  0  0  0
  143.3814   78.1721  222.8347 H   0  0  0  0  0  0  0  0  0  0  0  0
  140.7488   72.8169  225.8166 H   0  0  0  0  0  0  0  0  0  0  0  0
  141.7027   72.5608  228.1064 H   0  0  0  0  0  0  0  0  0  0  0  0
  141.5079   70.3832  229.3083 H   0  0  0  0  0  0  0  0  0  0  0  0
  140.3634   68.4510  228.2160 H   0  0  0  0  0  0  0  0  0  0  0  0
  139.4092   68.6952  225.9227 H   0  0  0  0  0  0  0  0  0  0  0  0
  1  2  1  0
  2  3  1  0
  3  4  1  0
  4  5  1  0
  4  6  2  0
  6  7  1  0
  7  8  2  0
  8  9  1  0
  8 10  1  0
 10 11  2  0
 11 12  1  0
 12 13  2  0
 13 14  1  0
 14 15  2  0
 15 16  1  0
 15 17  1  0
 17 18  2  0
 18 19  1  0
 19 20  2  0
  2 21  1  0
 21 22  2  0
 22 23  1  0
 23 24  2  0
 24 25  1  0
 25 26  2  0
 20 10  1  0
 26 21  1  0
 19 13  1  0
  1 27  1  0
  1 28  1  0
  1 29  1  0
  2 30  1  1
  5 31  1  0
  6 32  1  0
  9 33  1  0
 11 34  1  0
 12 35  1  0
 14 36  1  0
 17 37  1  0
 18 38  1  0
 22 39  1  0
 23 40  1  0
 24 41  1  0
 25 42  1  0
 26 43  1  0
M  CHG  1   3  -1
M  END
>  <meeko>  (17) 
{"free_energy": -7.05, "intermolecular_energy": -9.73, "internal_energy": -2.21, "cluster_size": 8, "cluster_id": 1, "rank_in_cluster": 6}

$$$$

     RDKit          3D

 43 45  0  0  0  0  0  0  0  0999 V2000
  138.9740   68.4650  225.0200 C   0  0  0  0  0  0  0  0  0  0  0  0
  139.1250   69.9810  224.9150 C   0  0  2  0  0  0  0  0  0  0  0  0
  139.7840   70.3160  223.6530 N   0  0  0  0  0  0  0  0  0  0  0  0
  139.6400   71.5600  222.9550 C   0  0  0  0  0  0  0  0  0  0  0  0
  138.4030   72.2040  222.8670 O   0  0  0  0  0  0  0  0  0  0  0  0
  140.7090   72.1090  222.3840 C   0  0  0  0  0  0  0  0  0  0  0  0
  140.7030   73.5020  222.0450 N   0  0  0  0  0  0  0  0  0  0  0  0
  139.6890   74.2090  221.6300 C   0  0  0  0  0  0  0  0  0  0  0  0
  138.7100   73.6840  220.7800 O   0  0  0  0  0  0  0  0  0  0  0  0
  139.5550   75.6160  222.0570 C   0  0  0  0  0  0  0  0  0  0  0  0
  138.2970   76.2040  222.2790 C   0  0  0  0  0  0  0  0  0  0  0  0
  138.2190   77.5390  222.6830 C   0  0  0  0  0  0  0  0  0  0  0  0
  139.3900   78.2820  222.8660 C   0  0  0  0  0  0  0  0  0  0  0  0
  139.3450   79.6240  223.2740 C   0  0  0  0  0  0  0  0  0  0  0  0
  140.5350   80.3390  223.4510 C   0  0  0  0  0  0  0  0  0  0  0  0
  140.4920   81.6350  223.8450 F   0  0  0  0  0  0  0  0  0  0  0  0
  141.7690   79.7200  223.2210 C   0  0  0  0  0  0  0  0  0  0  0  0
  141.8200   78.3830  222.8140 C   0  0  0  0  0  0  0  0  0  0  0  0
  140.6350   77.6600  222.6350 C   0  0  0  0  0  0  0  0  0  0  0  0
  140.6820   76.3590  222.2420 N   0  0  0  0  0  0  0  0  0  0  0  0
  139.9180   70.5110  226.0890 C   0  0  0  0  0  0  0  0  0  0  0  0
  140.5840   71.7490  226.0100 C   0  0  0  0  0  0  0  0  0  0  0  0
  141.3310   72.2190  227.0940 C   0  0  0  0  0  0  0  0  0  0  0  0
  141.4290   71.4580  228.2610 C   0  0  0  0  0  0  0  0  0  0  0  0
  140.7830   70.2220  228.3450 C   0  0  0  0  0  0  0  0  0  0  0  0
  140.0330   69.7470  227.2630 C   0  0  0  0  0  0  0  0  0  0  0  0
  138.9448   68.1720  226.0799 H   0  0  0  0  0  0  0  0  0  0  0  0
  138.0405   68.1545  224.5279 H   0  0  0  0  0  0  0  0  0  0  0  0
  139.8279   67.9765  224.5279 H   0  0  0  0  0  0  0  0  0  0  0  0
  138.1303   70.4503  224.9354 H   0  0  0  0  0  0  0  0  0  0  0  0
  138.3150   73.2110  222.8590 H   0  0  0  0  0  0  0  0  0  0  0  0
  141.5966   71.4947  222.1722 H   0  0  0  0  0  0  0  0  0  0  0  0
  138.2050   72.8270  220.9530 H   0  0  0  0  0  0  0  0  0  0  0  0
  137.3788   75.6156  222.1352 H   0  0  0  0  0  0  0  0  0  0  0  0
  137.2380   78.0053  222.8570 H   0  0  0  0  0  0  0  0  0  0  0  0
  138.3763   80.1130  223.4543 H   0  0  0  0  0  0  0  0  0  0  0  0
  142.7014   80.2867  223.3607 H   0  0  0  0  0  0  0  0  0  0  0  0
  142.7916   77.8995  222.6345 H   0  0  0  0  0  0  0  0  0  0  0  0
  140.5162   72.3493  225.0907 H   0  0  0  0  0  0  0  0  0  0  0  0
  141.8428   73.1904  227.0277 H   0  0  0  0  0  0  0  0  0  0  0  0
  142.0147   71.8317  229.1138 H   0  0  0  0  0  0  0  0  0  0  0  0
  140.8640   69.6213  229.2629 H   0  0  0  0  0  0  0  0  0  0  0  0
  139.5310   68.7707  227.3318 H   0  0  0  0  0  0  0  0  0  0  0  0
  1  2  1  0
  2  3  1  0
  3  4  1  0
  4  5  1  0
  4  6  2  0
  6  7  1  0
  7  8  2  0
  8  9  1  0
  8 10  1  0
 10 11  2  0
 11 12  1  0
 12 13  2  0
 13 14  1  0
 14 15  2  0
 15 16  1  0
 15 17  1  0
 17 18  2  0
 18 19  1  0
 19 20  2  0
  2 21  1  0
 21 22  2  0
 22 23  1  0
 23 24  2  0
 24 25  1  0
 25 26  2  0
 20 10  1  0
 26 21  1  0
 19 13  1  0
  1 27  1  0
  1 28  1  0
  1 29  1  0
  2 30  1  6
  5 31  1  0
  6 32  1  0
  9 33  1  0
 11 34  1  0
 12 35  1  0
 14 36  1  0
 17 37  1  0
 18 38  1  0
 22 39  1  0
 23 40  1  0
 24 41  1  0
 25 42  1  0
 26 43  1  0
M  CHG  1   3  -1
M  END
>  <meeko>  (18) 
{"free_energy": -6.86, "intermolecular_energy": -9.54, "internal_energy": -2.03, "cluster_size": 8, "cluster_id": 1, "rank_in_cluster": 8}

$$$$

     RDKit          3D

 43 45  0  0  0  0  0  0  0  0999 V2000
  138.6620   69.8200  223.8770 C   0  0  0  0  0  0  0  0  0  0  0  0
  139.4540   70.9680  224.4970 C   0  0  2  0  0  0  0  0  0  0  0  0
  140.5320   71.3580  223.5900 N   0  0  0  0  0  0  0  0  0  0  0  0
  140.3450   71.9300  222.2880 C   0  0  0  0  0  0  0  0  0  0  0  0
  139.0920   71.9350  221.6710 O   0  0  0  0  0  0  0  0  0  0  0  0
  141.3880   72.4670  221.6610 C   0  0  0  0  0  0  0  0  0  0  0  0
  141.3700   73.8540  221.3010 N   0  0  0  0  0  0  0  0  0  0  0  0
  140.5650   74.7760  221.7510 C   0  0  0  0  0  0  0  0  0  0  0  0
  139.3320   74.4700  222.3360 O   0  0  0  0  0  0  0  0  0  0  0  0
  140.9490   76.1980  221.6440 C   0  0  0  0  0  0  0  0  0  0  0  0
  141.4630   76.7360  220.4500 C   0  0  0  0  0  0  0  0  0  0  0  0
  141.8120   78.0870  220.3940 C   0  0  0  0  0  0  0  0  0  0  0  0
  141.6490   78.8970  221.5240 C   0  0  0  0  0  0  0  0  0  0  0  0
  141.9880   80.2580  221.5000 C   0  0  0  0  0  0  0  0  0  0  0  0
  141.8100   81.0410  222.6450 C   0  0  0  0  0  0  0  0  0  0  0  0
  142.1370   82.3570  222.6230 F   0  0  0  0  0  0  0  0  0  0  0  0
  141.2960   80.4710  223.8150 C   0  0  0  0  0  0  0  0  0  0  0  0
  140.9560   79.1140  223.8460 C   0  0  0  0  0  0  0  0  0  0  0  0
  141.1300   78.3240  222.7040 C   0  0  0  0  0  0  0  0  0  0  0  0
  140.7980   77.0060  222.7300 N   0  0  0  0  0  0  0  0  0  0  0  0
  140.0090   70.5550  225.8420 C   0  0  0  0  0  0  0  0  0  0  0  0
  140.5240   71.5140  226.7350 C   0  0  0  0  0  0  0  0  0  0  0  0
  141.0540   71.1190  227.9670 C   0  0  0  0  0  0  0  0  0  0  0  0
  141.0840   69.7670  228.3160 C   0  0  0  0  0  0  0  0  0  0  0  0
  140.5870   68.8060  227.4320 C   0  0  0  0  0  0  0  0  0  0  0  0
  140.0560   69.1960  226.1980 C   0  0  0  0  0  0  0  0  0  0  0  0
  138.2325   69.1974  224.6757 H   0  0  0  0  0  0  0  0  0  0  0  0
  137.8521   70.2276  223.2542 H   0  0  0  0  0  0  0  0  0  0  0  0
  139.3306   69.2076  223.2542 H   0  0  0  0  0  0  0  0  0  0  0  0
  138.7886   71.8299  224.6532 H   0  0  0  0  0  0  0  0  0  0  0  0
  138.7290   72.7440  221.1860 H   0  0  0  0  0  0  0  0  0  0  0  0
  142.2637   71.8469  221.4190 H   0  0  0  0  0  0  0  0  0  0  0  0
  139.1710   73.6840  222.9480 H   0  0  0  0  0  0  0  0  0  0  0  0
  141.5894   76.0955  219.5647 H   0  0  0  0  0  0  0  0  0  0  0  0
  142.2143   78.5140  219.4635 H   0  0  0  0  0  0  0  0  0  0  0  0
  142.3932   80.7087  220.5820 H   0  0  0  0  0  0  0  0  0  0  0  0
  141.1588   81.0914  224.7129 H   0  0  0  0  0  0  0  0  0  0  0  0
  140.5523   78.6686  224.7672 H   0  0  0  0  0  0  0  0  0  0  0  0
  140.5093   72.5795  226.4620 H   0  0  0  0  0  0  0  0  0  0  0  0
  141.4481   71.8745  228.6627 H   0  0  0  0  0  0  0  0  0  0  0  0
  141.4990   69.4587  229.2870 H   0  0  0  0  0  0  0  0  0  0  0  0
  140.6133   67.7412  227.7068 H   0  0  0  0  0  0  0  0  0  0  0  0
  139.6731   68.4349  225.5023 H   0  0  0  0  0  0  0  0  0  0  0  0
  1  2  1  0
  2  3  1  0
  3  4  1  0
  4  5  1  0
  4  6  2  0
  6  7  1  0
  7  8  2  0
  8  9  1  0
  8 10  1  0
 10 11  2  0
 11 12  1  0
 12 13  2  0
 13 14  1  0
 14 15  2  0
 15 16  1  0
 15 17  1  0
 17 18  2  0
 18 19  1  0
 19 20  2  0
  2 21  1  0
 21 22  2  0
 22 23  1  0
 23 24  2  0
 24 25  1  0
 25 26  2  0
 20 10  1  0
 26 21  1  0
 19 13  1  0
  1 27  1  0
  1 28  1  0
  1 29  1  0
  2 30  1  1
  5 31  1  0
  6 32  1  0
  9 33  1  0
 11 34  1  0
 12 35  1  0
 14 36  1  0
 17 37  1  0
 18 38  1  0
 22 39  1  0
 23 40  1  0
 24 41  1  0
 25 42  1  0
 26 43  1  0
M  CHG  1   3  -1
M  END
>  <meeko>  (19) 
{"free_energy": -7.28, "intermolecular_energy": -9.96, "internal_energy": -2.04, "cluster_size": 8, "cluster_id": 1, "rank_in_cluster": 2}

$$$$

     RDKit          3D

 43 45  0  0  0  0  0  0  0  0999 V2000
  141.6430   78.0050  219.4160 C   0  0  0  0  0  0  0  0  0  0  0  0
  141.5490   77.4110  220.8200 C   0  0  2  0  0  0  0  0  0  0  0  0
  140.2710   76.7170  220.9680 N   0  0  0  0  0  0  0  0  0  0  0  0
  140.0750   75.5020  221.7040 C   0  0  0  0  0  0  0  0  0  0  0  0
  139.0300   75.3690  222.6210 O   0  0  0  0  0  0  0  0  0  0  0  0
  140.9070   74.4830  221.5030 C   0  0  0  0  0  0  0  0  0  0  0  0
  140.8400   73.3280  222.3490 N   0  0  0  0  0  0  0  0  0  0  0  0
  139.7950   72.5890  222.5950 C   0  0  0  0  0  0  0  0  0  0  0  0
  138.5920   72.7400  221.8960 O   0  0  0  0  0  0  0  0  0  0  0  0
  139.8610   71.5540  223.6470 C   0  0  0  0  0  0  0  0  0  0  0  0
  139.4200   70.2390  223.4180 C   0  0  0  0  0  0  0  0  0  0  0  0
  139.5030   69.2930  224.4420 C   0  0  0  0  0  0  0  0  0  0  0  0
  140.0250   69.6580  225.6880 C   0  0  0  0  0  0  0  0  0  0  0  0
  140.1240   68.7320  226.7360 C   0  0  0  0  0  0  0  0  0  0  0  0
  140.6530   69.1270  227.9690 C   0  0  0  0  0  0  0  0  0  0  0  0
  140.7490   68.2320  228.9830 F   0  0  0  0  0  0  0  0  0  0  0  0
  141.0820   70.4460  228.1610 C   0  0  0  0  0  0  0  0  0  0  0  0
  140.9860   71.3740  227.1190 C   0  0  0  0  0  0  0  0  0  0  0  0
  140.4590   70.9870  225.8830 C   0  0  0  0  0  0  0  0  0  0  0  0
  140.3660   71.8870  224.8670 N   0  0  0  0  0  0  0  0  0  0  0  0
  141.6920   78.5000  221.8600 C   0  0  0  0  0  0  0  0  0  0  0  0
  142.1070   79.7950  221.4950 C   0  0  0  0  0  0  0  0  0  0  0  0
  142.2560   80.7890  222.4670 C   0  0  0  0  0  0  0  0  0  0  0  0
  142.0010   80.5000  223.8090 C   0  0  0  0  0  0  0  0  0  0  0  0
  141.6010   79.2150  224.1830 C   0  0  0  0  0  0  0  0  0  0  0  0
  141.4510   78.2160  223.2150 C   0  0  0  0  0  0  0  0  0  0  0  0
  141.8146   79.0892  219.4873 H   0  0  0  0  0  0  0  0  0  0  0  0
  142.4782   77.5364  218.8748 H   0  0  0  0  0  0  0  0  0  0  0  0
  140.7040   77.8172  218.8748 H   0  0  0  0  0  0  0  0  0  0  0  0
  142.3661   76.6896  220.9684 H   0  0  0  0  0  0  0  0  0  0  0  0
  138.8320   74.4990  223.0950 H   0  0  0  0  0  0  0  0  0  0  0  0
  141.6452   74.5271  220.6887 H   0  0  0  0  0  0  0  0  0  0  0  0
  138.1330   73.6240  221.7360 H   0  0  0  0  0  0  0  0  0  0  0  0
  139.0114   69.9564  222.4366 H   0  0  0  0  0  0  0  0  0  0  0  0
  139.1586   68.2627  224.2694 H   0  0  0  0  0  0  0  0  0  0  0  0
  139.7859   67.6957  226.5886 H   0  0  0  0  0  0  0  0  0  0  0  0
  141.4953   70.7529  229.1331 H   0  0  0  0  0  0  0  0  0  0  0  0
  141.3253   72.4091  227.2719 H   0  0  0  0  0  0  0  0  0  0  0  0
  142.3150   80.0259  220.4398 H   0  0  0  0  0  0  0  0  0  0  0  0
  142.5746   81.8002  222.1740 H   0  0  0  0  0  0  0  0  0  0  0  0
  142.1151   81.2843  224.5718 H   0  0  0  0  0  0  0  0  0  0  0  0
  141.4035   78.9879  225.2410 H   0  0  0  0  0  0  0  0  0  0  0  0
  141.1431   77.2038  223.5159 H   0  0  0  0  0  0  0  0  0  0  0  0
  1  2  1  0
  2  3  1  0
  3  4  1  0
  4  5  1  0
  4  6  2  0
  6  7  1  0
  7  8  2  0
  8  9  1  0
  8 10  1  0
 10 11  2  0
 11 12  1  0
 12 13  2  0
 13 14  1  0
 14 15  2  0
 15 16  1  0
 15 17  1  0
 17 18  2  0
 18 19  1  0
 19 20  2  0
  2 21  1  0
 21 22  2  0
 22 23  1  0
 23 24  2  0
 24 25  1  0
 25 26  2  0
 20 10  1  0
 26 21  1  0
 19 13  1  0
  1 27  1  0
  1 28  1  0
  1 29  1  0
  2 30  1  1
  5 31  1  0
  6 32  1  0
  9 33  1  0
 11 34  1  0
 12 35  1  0
 14 36  1  0
 17 37  1  0
 18 38  1  0
 22 39  1  0
 23 40  1  0
 24 41  1  0
 25 42  1  0
 26 43  1  0
M  CHG  1   3  -1
M  END
>  <meeko>  (20) 
{"free_energy": -7.48, "intermolecular_energy": -10.17, "internal_energy": -2.2, "cluster_size": 7, "cluster_id": 2, "rank_in_cluster": 4}

$$$$
