
     RDKit          3D

 42 44  0  0  0  0  0  0  0  0999 V2000
  141.3550   78.2590  219.3810 C   0  0  0  0  0  0  0  0  0  0  0  0
  141.4350   77.5930  220.7550 C   0  0  2  0  0  0  0  0  0  0  0  0
  140.1950   76.8760  221.0410 N   0  0  0  0  0  0  0  0  0  0  0  0
  140.1420   75.6490  221.7720 C   0  0  0  0  0  0  0  0  0  0  0  0
  139.1260   75.4580  222.7110 O   0  0  0  0  0  0  0  0  0  0  0  0
  141.0510   74.6860  221.5680 C   0  0  0  0  0  0  0  0  0  0  0  0
  141.0380   73.4160  222.2410 N   0  0  0  0  0  0  0  0  0  0  0  0
  139.9130   72.5940  222.5890 C   0  0  0  0  0  0  0  0  0  0  0  0
  138.8570   72.7160  221.9140 O   0  0  0  0  0  0  0  0  0  0  0  0
  139.9730   71.5730  223.6620 C   0  0  0  0  0  0  0  0  0  0  0  0
  139.4570   70.2830  223.4530 C   0  0  0  0  0  0  0  0  0  0  0  0
  139.4780   69.3500  224.4920 C   0  0  0  0  0  0  0  0  0  0  0  0
  140.0090   69.7060  225.7360 C   0  0  0  0  0  0  0  0  0  0  0  0
  140.0130   68.8060  226.8120 C   0  0  0  0  0  0  0  0  0  0  0  0
  140.5410   69.1960  228.0470 C   0  0  0  0  0  0  0  0  0  0  0  0
  140.5420   68.3270  229.0880 F   0  0  0  0  0  0  0  0  0  0  0  0
  141.0660   70.4830  228.2120 C   0  0  0  0  0  0  0  0  0  0  0  0
  141.0650   71.3850  227.1450 C   0  0  0  0  0  0  0  0  0  0  0  0
  140.5370   71.0040  225.9070 C   0  0  0  0  0  0  0  0  0  0  0  0
  140.5120   71.8870  224.8740 N   0  0  0  0  0  0  0  0  0  0  0  0
  141.6820   78.6160  221.8390 C   0  0  0  0  0  0  0  0  0  0  0  0
  141.4630   78.2860  223.1880 C   0  0  0  0  0  0  0  0  0  0  0  0
  141.6740   79.2370  224.1910 C   0  0  0  0  0  0  0  0  0  0  0  0
  142.1090   80.5230  223.8600 C   0  0  0  0  0  0  0  0  0  0  0  0
  142.3350   80.8600  222.5230 C   0  0  0  0  0  0  0  0  0  0  0  0
  142.1240   79.9130  221.5160 C   0  0  0  0  0  0  0  0  0  0  0  0
  141.2247   79.3440  219.5065 H   0  0  0  0  0  0  0  0  0  0  0  0
  142.2831   78.0632  218.8240 H   0  0  0  0  0  0  0  0  0  0  0  0
  140.4997   77.8489  218.8240 H   0  0  0  0  0  0  0  0  0  0  0  0
  142.2760   76.8842  220.7383 H   0  0  0  0  0  0  0  0  0  0  0  0
  138.8860   74.5370  223.0640 H   0  0  0  0  0  0  0  0  0  0  0  0
  141.8549   74.8788  220.8424 H   0  0  0  0  0  0  0  0  0  0  0  0
  139.0377   70.0087  222.4738 H   0  0  0  0  0  0  0  0  0  0  0  0
  139.0780   68.3378  224.3324 H   0  0  0  0  0  0  0  0  0  0  0  0
  139.6011   67.7940  226.6845 H   0  0  0  0  0  0  0  0  0  0  0  0
  141.4807   70.7853  229.1850 H   0  0  0  0  0  0  0  0  0  0  0  0
  141.4796   72.3951  227.2786 H   0  0  0  0  0  0  0  0  0  0  0  0
  141.1239   77.2744  223.4557 H   0  0  0  0  0  0  0  0  0  0  0  0
  141.4970   78.9720  225.2438 H   0  0  0  0  0  0  0  0  0  0  0  0
  142.2733   81.2693  224.6512 H   0  0  0  0  0  0  0  0  0  0  0  0
  142.6794   81.8716  222.2622 H   0  0  0  0  0  0  0  0  0  0  0  0
  142.3045   80.1831  220.4651 H   0  0  0  0  0  0  0  0  0  0  0  0
  1  2  1  0
  2  3  1  0
  3  4  1  0
  4  5  1  0
  4  6  2  0
  6  7  1  0
  7  8  1  0
  8  9  2  0
  8 10  1  0
 10 11  2  0
 11 12  1  0
 12 13  2  0
 13 14  1  0
 14 15  2  0
 15 16  1  0
 15 17  1  0
 17 18  2  0
 18 19  1  0
 19 20  2  0
  2 21  1  0
 21 22  2  0
 22 23  1  0
 23 24  2  0
 24 25  1  0
 25 26  2  0
 20 10  1  0
 26 21  1  0
 19 13  1  0
  1 27  1  0
  1 28  1  0
  1 29  1  0
  2 30  1  6
  5 31  1  0
  6 32  1  0
 11 33  1  0
 12 34  1  0
 14 35  1  0
 17 36  1  0
 18 37  1  0
 22 38  1  0
 23 39  1  0
 24 40  1  0
 25 41  1  0
 26 42  1  0
M  CHG  2   3  -1   7  -1
M  END
>  <meeko>  (1) 
{"free_energy": -7.69, "intermolecular_energy": -10.08, "internal_energy": -1.54, "cluster_size": 12, "cluster_id": 1, "rank_in_cluster": 3}

$$$$

     RDKit          3D

 42 44  0  0  0  0  0  0  0  0999 V2000
  141.4800   78.1160  219.4490 C   0  0  0  0  0  0  0  0  0  0  0  0
  141.4390   77.5510  220.8690 C   0  0  2  0  0  0  0  0  0  0  0  0
  140.1500   76.9130  221.1210 N   0  0  0  0  0  0  0  0  0  0  0  0
  140.0070   75.6450  221.7650 C   0  0  0  0  0  0  0  0  0  0  0  0
  138.9900   75.4670  222.7060 O   0  0  0  0  0  0  0  0  0  0  0  0
  140.8340   74.6300  221.4780 C   0  0  0  0  0  0  0  0  0  0  0  0
  140.8590   73.3870  222.2000 N   0  0  0  0  0  0  0  0  0  0  0  0
  139.7550   72.5670  222.6160 C   0  0  0  0  0  0  0  0  0  0  0  0
  138.6600   72.6920  222.0080 O   0  0  0  0  0  0  0  0  0  0  0  0
  139.8790   71.5450  223.6830 C   0  0  0  0  0  0  0  0  0  0  0  0
  139.4330   70.2300  223.4700 C   0  0  0  0  0  0  0  0  0  0  0  0
  139.5130   69.2940  224.5020 C   0  0  0  0  0  0  0  0  0  0  0  0
  140.0340   69.6710  225.7440 C   0  0  0  0  0  0  0  0  0  0  0  0
  140.0970   68.7660  226.8140 C   0  0  0  0  0  0  0  0  0  0  0  0
  140.6130   69.1770  228.0480 C   0  0  0  0  0  0  0  0  0  0  0  0
  140.6700   68.3030  229.0830 F   0  0  0  0  0  0  0  0  0  0  0  0
  141.0690   70.4890  228.2160 C   0  0  0  0  0  0  0  0  0  0  0  0
  141.0100   71.3970  227.1540 C   0  0  0  0  0  0  0  0  0  0  0  0
  140.4930   70.9940  225.9190 C   0  0  0  0  0  0  0  0  0  0  0  0
  140.4110   71.8810  224.8910 N   0  0  0  0  0  0  0  0  0  0  0  0
  141.6660   78.6400  221.8910 C   0  0  0  0  0  0  0  0  0  0  0  0
  141.5150   78.3680  223.2630 C   0  0  0  0  0  0  0  0  0  0  0  0
  141.7080   79.3780  224.2090 C   0  0  0  0  0  0  0  0  0  0  0  0
  142.0570   80.6680  223.7980 C   0  0  0  0  0  0  0  0  0  0  0  0
  142.2150   80.9480  222.4390 C   0  0  0  0  0  0  0  0  0  0  0  0
  142.0210   79.9410  221.4880 C   0  0  0  0  0  0  0  0  0  0  0  0
  141.5595   79.2122  219.4927 H   0  0  0  0  0  0  0  0  0  0  0  0
  142.3508   77.7061  218.9163 H   0  0  0  0  0  0  0  0  0  0  0  0
  140.5592   77.8361  218.9163 H   0  0  0  0  0  0  0  0  0  0  0  0
  142.2433   76.8061  220.9598 H   0  0  0  0  0  0  0  0  0  0  0  0
  138.7630   74.5550  223.0870 H   0  0  0  0  0  0  0  0  0  0  0  0
  141.5355   74.7555  220.6400 H   0  0  0  0  0  0  0  0  0  0  0  0
  139.0217   69.9388  222.4922 H   0  0  0  0  0  0  0  0  0  0  0  0
  139.1673   68.2625  224.3391 H   0  0  0  0  0  0  0  0  0  0  0  0
  139.7409   67.7335  226.6830 H   0  0  0  0  0  0  0  0  0  0  0  0
  141.4755   70.8076  229.1872 H   0  0  0  0  0  0  0  0  0  0  0  0
  141.3700   72.4274  227.2902 H   0  0  0  0  0  0  0  0  0  0  0  0
  141.2434   77.3544  223.5929 H   0  0  0  0  0  0  0  0  0  0  0  0
  141.5850   79.1577  225.2797 H   0  0  0  0  0  0  0  0  0  0  0  0
  142.2070   81.4618  224.5446 H   0  0  0  0  0  0  0  0  0  0  0  0
  142.4925   81.9622  222.1160 H   0  0  0  0  0  0  0  0  0  0  0  0
  142.1466   80.1671  220.4188 H   0  0  0  0  0  0  0  0  0  0  0  0
  1  2  1  0
  2  3  1  0
  3  4  1  0
  4  5  1  0
  4  6  2  0
  6  7  1  0
  7  8  1  0
  8  9  2  0
  8 10  1  0
 10 11  2  0
 11 12  1  0
 12 13  2  0
 13 14  1  0
 14 15  2  0
 15 16  1  0
 15 17  1  0
 17 18  2  0
 18 19  1  0
 19 20  2  0
  2 21  1  0
 21 22  2  0
 22 23  1  0
 23 24  2  0
 24 25  1  0
 25 26  2  0
 20 10  1  0
 26 21  1  0
 19 13  1  0
  1 27  1  0
  1 28  1  0
  1 29  1  0
  2 30  1  6
  5 31  1  0
  6 32  1  0
 11 33  1  0
 12 34  1  0
 14 35  1  0
 17 36  1  0
 18 37  1  0
 22 38  1  0
 23 39  1  0
 24 40  1  0
 25 41  1  0
 26 42  1  0
M  CHG  2   3  -1   7  -1
M  END
>  <meeko>  (2) 
{"free_energy": -7.71, "intermolecular_energy": -10.09, "internal_energy": -1.56, "cluster_size": 12, "cluster_id": 1, "rank_in_cluster": 1}

$$$$

     RDKit          3D

 42 44  0  0  0  0  0  0  0  0999 V2000
  141.2230   78.2260  219.4350 C   0  0  0  0  0  0  0  0  0  0  0  0
  141.3570   77.5780  220.8130 C   0  0  2  0  0  0  0  0  0  0  0  0
  140.1340   76.8570  221.1530 N   0  0  0  0  0  0  0  0  0  0  0  0
  140.1210   75.5880  221.8130 C   0  0  0  0  0  0  0  0  0  0  0  0
  139.0760   75.2840  222.6880 O   0  0  0  0  0  0  0  0  0  0  0  0
  141.0970   74.6940  221.6030 C   0  0  0  0  0  0  0  0  0  0  0  0
  141.0330   73.3220  222.0310 N   0  0  0  0  0  0  0  0  0  0  0  0
  139.8800   72.5460  222.3930 C   0  0  0  0  0  0  0  0  0  0  0  0
  138.8350   72.6770  221.7020 O   0  0  0  0  0  0  0  0  0  0  0  0
  139.8970   71.5610  223.5000 C   0  0  0  0  0  0  0  0  0  0  0  0
  139.2690   70.3120  223.3570 C   0  0  0  0  0  0  0  0  0  0  0  0
  139.2530   69.4170  224.4280 C   0  0  0  0  0  0  0  0  0  0  0  0
  139.8610   69.7680  225.6380 C   0  0  0  0  0  0  0  0  0  0  0  0
  139.8330   68.9070  226.7450 C   0  0  0  0  0  0  0  0  0  0  0  0
  140.4400   69.2930  227.9450 C   0  0  0  0  0  0  0  0  0  0  0  0
  140.4100   68.4620  229.0160 F   0  0  0  0  0  0  0  0  0  0  0  0
  141.0760   70.5350  228.0430 C   0  0  0  0  0  0  0  0  0  0  0  0
  141.1080   71.3990  226.9440 C   0  0  0  0  0  0  0  0  0  0  0  0
  140.5010   71.0220  225.7410 C   0  0  0  0  0  0  0  0  0  0  0  0
  140.5080   71.8690  224.6780 N   0  0  0  0  0  0  0  0  0  0  0  0
  141.6360   78.6170  221.8740 C   0  0  0  0  0  0  0  0  0  0  0  0
  142.0070   79.9230  221.5080 C   0  0  0  0  0  0  0  0  0  0  0  0
  142.2820   80.8810  222.4880 C   0  0  0  0  0  0  0  0  0  0  0  0
  142.1870   80.5480  223.8420 C   0  0  0  0  0  0  0  0  0  0  0  0
  141.8140   79.2550  224.2170 C   0  0  0  0  0  0  0  0  0  0  0  0
  141.5390   78.2930  223.2410 C   0  0  0  0  0  0  0  0  0  0  0  0
  141.0016   79.2970  219.5534 H   0  0  0  0  0  0  0  0  0  0  0  0
  142.1651   78.1055  218.8800 H   0  0  0  0  0  0  0  0  0  0  0  0
  140.4060   77.7418  218.8800 H   0  0  0  0  0  0  0  0  0  0  0  0
  142.2013   76.8740  220.7747 H   0  0  0  0  0  0  0  0  0  0  0  0
  138.9310   74.3460  223.0460 H   0  0  0  0  0  0  0  0  0  0  0  0
  142.0003   75.0290  221.0721 H   0  0  0  0  0  0  0  0  0  0  0  0
  138.7915   70.0405  222.4040 H   0  0  0  0  0  0  0  0  0  0  0  0
  138.7634   68.4378  224.3208 H   0  0  0  0  0  0  0  0  0  0  0  0
  139.3343   67.9294  226.6697 H   0  0  0  0  0  0  0  0  0  0  0  0
  141.5529   70.8332  228.9883 H   0  0  0  0  0  0  0  0  0  0  0  0
  141.6100   72.3744  227.0252 H   0  0  0  0  0  0  0  0  0  0  0  0
  142.0813   80.1924  220.4441 H   0  0  0  0  0  0  0  0  0  0  0  0
  142.5739   81.8996  222.1928 H   0  0  0  0  0  0  0  0  0  0  0  0
  142.4057   81.3031  224.6115 H   0  0  0  0  0  0  0  0  0  0  0  0
  141.7365   78.9934  225.2826 H   0  0  0  0  0  0  0  0  0  0  0  0
  141.2451   77.2768  223.5425 H   0  0  0  0  0  0  0  0  0  0  0  0
  1  2  1  0
  2  3  1  0
  3  4  1  0
  4  5  1  0
  4  6  2  0
  6  7  1  0
  7  8  1  0
  8  9  2  0
  8 10  1  0
 10 11  2  0
 11 12  1  0
 12 13  2  0
 13 14  1  0
 14 15  2  0
 15 16  1  0
 15 17  1  0
 17 18  2  0
 18 19  1  0
 19 20  2  0
  2 21  1  0
 21 22  2  0
 22 23  1  0
 23 24  2  0
 24 25  1  0
 25 26  2  0
 20 10  1  0
 26 21  1  0
 19 13  1  0
  1 27  1  0
  1 28  1  0
  1 29  1  0
  2 30  1  6
  5 31  1  0
  6 32  1  0
 11 33  1  0
 12 34  1  0
 14 35  1  0
 17 36  1  0
 18 37  1  0
 22 38  1  0
 23 39  1  0
 24 40  1  0
 25 41  1  0
 26 42  1  0
M  CHG  2   3  -1   7  -1
M  END
>  <meeko>  (3) 
{"free_energy": -7.63, "intermolecular_energy": -10.02, "internal_energy": -1.5, "cluster_size": 12, "cluster_id": 1, "rank_in_cluster": 5}

$$$$

     RDKit          3D

 42 44  0  0  0  0  0  0  0  0999 V2000
  138.8840   77.6610  221.3520 C   0  0  0  0  0  0  0  0  0  0  0  0
  140.3410   77.8080  220.9130 C   0  0  2  0  0  0  0  0  0  0  0  0
  140.9570   76.4930  220.7610 N   0  0  0  0  0  0  0  0  0  0  0  0
  140.6060   75.3590  221.5560 C   0  0  0  0  0  0  0  0  0  0  0  0
  139.7430   75.5260  222.6420 O   0  0  0  0  0  0  0  0  0  0  0  0
  141.0940   74.1420  221.2740 C   0  0  0  0  0  0  0  0  0  0  0  0
  140.9890   73.0120  222.1570 N   0  0  0  0  0  0  0  0  0  0  0  0
  139.8140   72.4500  222.7630 C   0  0  0  0  0  0  0  0  0  0  0  0
  138.6900   72.8160  222.3310 O   0  0  0  0  0  0  0  0  0  0  0  0
  139.8810   71.4170  223.8240 C   0  0  0  0  0  0  0  0  0  0  0  0
  139.3320   70.1400  223.6160 C   0  0  0  0  0  0  0  0  0  0  0  0
  139.3600   69.1960  224.6440 C   0  0  0  0  0  0  0  0  0  0  0  0
  139.9340   69.5270  225.8760 C   0  0  0  0  0  0  0  0  0  0  0  0
  139.9480   68.6150  226.9420 C   0  0  0  0  0  0  0  0  0  0  0  0
  140.5190   68.9800  228.1660 C   0  0  0  0  0  0  0  0  0  0  0  0
  140.5290   68.1000  229.1970 F   0  0  0  0  0  0  0  0  0  0  0  0
  141.0770   70.2530  228.3290 C   0  0  0  0  0  0  0  0  0  0  0  0
  141.0660   71.1670  227.2710 C   0  0  0  0  0  0  0  0  0  0  0  0
  140.4950   70.8100  226.0450 C   0  0  0  0  0  0  0  0  0  0  0  0
  140.4610   71.7060  225.0220 N   0  0  0  0  0  0  0  0  0  0  0  0
  141.1290   78.6170  221.9170 C   0  0  0  0  0  0  0  0  0  0  0  0
  141.1200   78.2620  223.2780 C   0  0  0  0  0  0  0  0  0  0  0  0
  141.8350   79.0180  224.2100 C   0  0  0  0  0  0  0  0  0  0  0  0
  142.5680   80.1330  223.7960 C   0  0  0  0  0  0  0  0  0  0  0  0
  142.5880   80.4930  222.4460 C   0  0  0  0  0  0  0  0  0  0  0  0
  141.8740   79.7400  221.5090 C   0  0  0  0  0  0  0  0  0  0  0  0
  138.8309   77.6556  222.4507 H   0  0  0  0  0  0  0  0  0  0  0  0
  138.2962   78.5044  220.9606 H   0  0  0  0  0  0  0  0  0  0  0  0
  138.4766   76.7172  220.9606 H   0  0  0  0  0  0  0  0  0  0  0  0
  140.3520   78.3340  219.9470 H   0  0  0  0  0  0  0  0  0  0  0  0
  139.3000   74.7390  223.1040 H   0  0  0  0  0  0  0  0  0  0  0  0
  141.6048   73.9999  220.3102 H   0  0  0  0  0  0  0  0  0  0  0  0
  138.8813   69.8850  222.6455 H   0  0  0  0  0  0  0  0  0  0  0  0
  138.9321   68.1951  224.4858 H   0  0  0  0  0  0  0  0  0  0  0  0
  139.5104   67.6137  226.8156 H   0  0  0  0  0  0  0  0  0  0  0  0
  141.5258   70.5355  229.2927 H   0  0  0  0  0  0  0  0  0  0  0  0
  141.5062   72.1664  227.4027 H   0  0  0  0  0  0  0  0  0  0  0  0
  140.5466   77.3840  223.6104 H   0  0  0  0  0  0  0  0  0  0  0  0
  141.8209   78.7346  225.2728 H   0  0  0  0  0  0  0  0  0  0  0  0
  143.1290   80.7272  224.5324 H   0  0  0  0  0  0  0  0  0  0  0  0
  143.1663   81.3701  222.1200 H   0  0  0  0  0  0  0  0  0  0  0  0
  141.8944   80.0265  220.4472 H   0  0  0  0  0  0  0  0  0  0  0  0
  1  2  1  0
  2  3  1  0
  3  4  1  0
  4  5  1  0
  4  6  2  0
  6  7  1  0
  7  8  1  0
  8  9  2  0
  8 10  1  0
 10 11  2  0
 11 12  1  0
 12 13  2  0
 13 14  1  0
 14 15  2  0
 15 16  1  0
 15 17  1  0
 17 18  2  0
 18 19  1  0
 19 20  2  0
  2 21  1  0
 21 22  2  0
 22 23  1  0
 23 24  2  0
 24 25  1  0
 25 26  2  0
 20 10  1  0
 26 21  1  0
 19 13  1  0
  1 27  1  0
  1 28  1  0
  1 29  1  0
  2 30  1  6
  5 31  1  0
  6 32  1  0
 11 33  1  0
 12 34  1  0
 14 35  1  0
 17 36  1  0
 18 37  1  0
 22 38  1  0
 23 39  1  0
 24 40  1  0
 25 41  1  0
 26 42  1  0
M  CHG  2   3  -1   7  -1
M  END
>  <meeko>  (4) 
{"free_energy": -7.47, "intermolecular_energy": -9.85, "internal_energy": -1.37, "cluster_size": 12, "cluster_id": 1, "rank_in_cluster": 6}

$$$$

     RDKit          3D

 42 44  0  0  0  0  0  0  0  0999 V2000
  140.2960   67.3960  226.1900 C   0  0  0  0  0  0  0  0  0  0  0  0
  139.2670   68.5250  226.2380 C   0  0  2  0  0  0  0  0  0  0  0  0
  138.6350   68.6890  224.9320 N   0  0  0  0  0  0  0  0  0  0  0  0
  137.6050   69.6440  224.6660 C   0  0  0  0  0  0  0  0  0  0  0  0
  137.8360   70.6550  223.7310 O   0  0  0  0  0  0  0  0  0  0  0  0
  136.4270   69.5800  225.3020 C   0  0  0  0  0  0  0  0  0  0  0  0
  135.2680   70.3410  224.9200 N   0  0  0  0  0  0  0  0  0  0  0  0
  135.1420   71.7620  224.7490 C   0  0  0  0  0  0  0  0  0  0  0  0
  135.7670   72.3040  223.8010 O   0  0  0  0  0  0  0  0  0  0  0  0
  134.2590   72.5920  225.6030 C   0  0  0  0  0  0  0  0  0  0  0  0
  133.1870   72.0120  226.3020 C   0  0  0  0  0  0  0  0  0  0  0  0
  132.3370   72.8180  227.0620 C   0  0  0  0  0  0  0  0  0  0  0  0
  132.5560   74.1980  227.1220 C   0  0  0  0  0  0  0  0  0  0  0  0
  131.7010   75.0420  227.8470 C   0  0  0  0  0  0  0  0  0  0  0  0
  131.9400   76.4200  227.8780 C   0  0  0  0  0  0  0  0  0  0  0  0
  131.1120   77.2350  228.5750 F   0  0  0  0  0  0  0  0  0  0  0  0
  133.0320   76.9580  227.1870 C   0  0  0  0  0  0  0  0  0  0  0  0
  133.8880   76.1240  226.4620 C   0  0  0  0  0  0  0  0  0  0  0  0
  133.6540   74.7460  226.4250 C   0  0  0  0  0  0  0  0  0  0  0  0
  134.4700   73.9350  225.7000 N   0  0  0  0  0  0  0  0  0  0  0  0
  139.9130   69.8290  226.6470 C   0  0  0  0  0  0  0  0  0  0  0  0
  139.7630   70.3140  227.9590 C   0  0  0  0  0  0  0  0  0  0  0  0
  140.3460   71.5280  228.3340 C   0  0  0  0  0  0  0  0  0  0  0  0
  141.0860   72.2670  227.4080 C   0  0  0  0  0  0  0  0  0  0  0  0
  141.2460   71.7930  226.1040 C   0  0  0  0  0  0  0  0  0  0  0  0
  140.6640   70.5800  225.7230 C   0  0  0  0  0  0  0  0  0  0  0  0
  140.5648   67.1011  227.2151 H   0  0  0  0  0  0  0  0  0  0  0  0
  139.8681   66.5322  225.6602 H   0  0  0  0  0  0  0  0  0  0  0  0
  141.1957   67.7422  225.6602 H   0  0  0  0  0  0  0  0  0  0  0  0
  138.5058   68.2557  226.9850 H   0  0  0  0  0  0  0  0  0  0  0  0
  137.1500   71.3770  223.5380 H   0  0  0  0  0  0  0  0  0  0  0  0
  136.3416   68.9058  226.1670 H   0  0  0  0  0  0  0  0  0  0  0  0
  133.0179   70.9263  226.2507 H   0  0  0  0  0  0  0  0  0  0  0  0
  131.4972   72.3686  227.6122 H   0  0  0  0  0  0  0  0  0  0  0  0
  130.8430   74.6201  228.3909 H   0  0  0  0  0  0  0  0  0  0  0  0
  133.2173   78.0419  227.2146 H   0  0  0  0  0  0  0  0  0  0  0  0
  134.7451   76.5515  225.9210 H   0  0  0  0  0  0  0  0  0  0  0  0
  139.1840   69.7350  228.6936 H   0  0  0  0  0  0  0  0  0  0  0  0
  140.2217   71.9022  229.3609 H   0  0  0  0  0  0  0  0  0  0  0  0
  141.5428   73.2223  227.7058 H   0  0  0  0  0  0  0  0  0  0  0  0
  141.8305   72.3746  225.3759 H   0  0  0  0  0  0  0  0  0  0  0  0
  140.7938   70.2104  224.6951 H   0  0  0  0  0  0  0  0  0  0  0  0
  1  2  1  0
  2  3  1  0
  3  4  1  0
  4  5  1  0
  4  6  2  0
  6  7  1  0
  7  8  1  0
  8  9  2  0
  8 10  1  0
 10 11  2  0
 11 12  1  0
 12 13  2  0
 13 14  1  0
 14 15  2  0
 15 16  1  0
 15 17  1  0
 17 18  2  0
 18 19  1  0
 19 20  2  0
  2 21  1  0
 21 22  2  0
 22 23  1  0
 23 24  2  0
 24 25  1  0
 25 26  2  0
 20 10  1  0
 26 21  1  0
 19 13  1  0
  1 27  1  0
  1 28  1  0
  1 29  1  0
  2 30  1  1
  5 31  1  0
  6 32  1  0
 11 33  1  0
 12 34  1  0
 14 35  1  0
 17 36  1  0
 18 37  1  0
 22 38  1  0
 23 39  1  0
 24 40  1  0
 25 41  1  0
 26 42  1  0
M  CHG  2   3  -1   7  -1
M  END
>  <meeko>  (5) 
{"free_energy": -6.55, "intermolecular_energy": -8.93, "internal_energy": -1.82, "cluster_size": 1, "cluster_id": 4, "rank_in_cluster": 1}

$$$$

     RDKit          3D

 42 44  0  0  0  0  0  0  0  0999 V2000
  141.5230   78.1160  219.4260 C   0  0  0  0  0  0  0  0  0  0  0  0
  141.4560   77.5340  220.8380 C   0  0  2  0  0  0  0  0  0  0  0  0
  140.1690   76.8800  221.0540 N   0  0  0  0  0  0  0  0  0  0  0  0
  140.0190   75.6360  221.7420 C   0  0  0  0  0  0  0  0  0  0  0  0
  139.0040   75.4980  222.6910 O   0  0  0  0  0  0  0  0  0  0  0  0
  140.8390   74.6060  221.4880 C   0  0  0  0  0  0  0  0  0  0  0  0
  140.8650   73.3940  222.2610 N   0  0  0  0  0  0  0  0  0  0  0  0
  139.7660   72.5650  222.6710 C   0  0  0  0  0  0  0  0  0  0  0  0
  138.6690   72.6910  222.0670 O   0  0  0  0  0  0  0  0  0  0  0  0
  139.8960   71.5350  223.7290 C   0  0  0  0  0  0  0  0  0  0  0  0
  139.4590   70.2180  223.5030 C   0  0  0  0  0  0  0  0  0  0  0  0
  139.5450   69.2730  224.5270 C   0  0  0  0  0  0  0  0  0  0  0  0
  140.0630   69.6420  225.7730 C   0  0  0  0  0  0  0  0  0  0  0  0
  140.1300   68.7280  226.8350 C   0  0  0  0  0  0  0  0  0  0  0  0
  140.6430   69.1310  228.0720 C   0  0  0  0  0  0  0  0  0  0  0  0
  140.7050   68.2490  229.0990 F   0  0  0  0  0  0  0  0  0  0  0  0
  141.0900   70.4450  228.2530 C   0  0  0  0  0  0  0  0  0  0  0  0
  141.0250   71.3620  227.2000 C   0  0  0  0  0  0  0  0  0  0  0  0
  140.5120   70.9670  225.9600 C   0  0  0  0  0  0  0  0  0  0  0  0
  140.4250   71.8630  224.9410 N   0  0  0  0  0  0  0  0  0  0  0  0
  141.6490   78.6140  221.8770 C   0  0  0  0  0  0  0  0  0  0  0  0
  142.0080   79.9170  221.4880 C   0  0  0  0  0  0  0  0  0  0  0  0
  142.2040   80.9120  222.4500 C   0  0  0  0  0  0  0  0  0  0  0  0
  142.0400   80.6210  223.8060 C   0  0  0  0  0  0  0  0  0  0  0  0
  141.6790   79.3310  224.2040 C   0  0  0  0  0  0  0  0  0  0  0  0
  141.4830   78.3310  223.2470 C   0  0  0  0  0  0  0  0  0  0  0  0
  141.6486   79.2072  219.4848 H   0  0  0  0  0  0  0  0  0  0  0  0
  142.3765   77.6771  218.8886 H   0  0  0  0  0  0  0  0  0  0  0  0
  140.5920   77.8825  218.8886 H   0  0  0  0  0  0  0  0  0  0  0  0
  142.2655   76.7960  220.9384 H   0  0  0  0  0  0  0  0  0  0  0  0
  138.7380   74.5940  223.0670 H   0  0  0  0  0  0  0  0  0  0  0  0
  141.5324   74.6934  220.6385 H   0  0  0  0  0  0  0  0  0  0  0  0
  139.0505   69.9330  222.5222 H   0  0  0  0  0  0  0  0  0  0  0  0
  139.2063   68.2408  224.3545 H   0  0  0  0  0  0  0  0  0  0  0  0
  139.7792   67.6949  226.6949 H   0  0  0  0  0  0  0  0  0  0  0  0
  141.4939   70.7572  229.2274 H   0  0  0  0  0  0  0  0  0  0  0  0
  141.3771   72.3938  227.3464 H   0  0  0  0  0  0  0  0  0  0  0  0
  142.1352   80.1543  220.4215 H   0  0  0  0  0  0  0  0  0  0  0  0
  142.4884   81.9277  222.1379 H   0  0  0  0  0  0  0  0  0  0  0  0
  142.1949   81.4066  224.5602 H   0  0  0  0  0  0  0  0  0  0  0  0
  141.5489   79.1021  225.2720 H   0  0  0  0  0  0  0  0  0  0  0  0
  141.1976   77.3175  223.5655 H   0  0  0  0  0  0  0  0  0  0  0  0
  1  2  1  0
  2  3  1  0
  3  4  1  0
  4  5  1  0
  4  6  2  0
  6  7  1  0
  7  8  1  0
  8  9  2  0
  8 10  1  0
 10 11  2  0
 11 12  1  0
 12 13  2  0
 13 14  1  0
 14 15  2  0
 15 16  1  0
 15 17  1  0
 17 18  2  0
 18 19  1  0
 19 20  2  0
  2 21  1  0
 21 22  2  0
 22 23  1  0
 23 24  2  0
 24 25  1  0
 25 26  2  0
 20 10  1  0
 26 21  1  0
 19 13  1  0
  1 27  1  0
  1 28  1  0
  1 29  1  0
  2 30  1  6
  5 31  1  0
  6 32  1  0
 11 33  1  0
 12 34  1  0
 14 35  1  0
 17 36  1  0
 18 37  1  0
 22 38  1  0
 23 39  1  0
 24 40  1  0
 25 41  1  0
 26 42  1  0
M  CHG  2   3  -1   7  -1
M  END
>  <meeko>  (6) 
{"free_energy": -7.71, "intermolecular_energy": -10.09, "internal_energy": -1.56, "cluster_size": 12, "cluster_id": 1, "rank_in_cluster": 2}

$$$$

     RDKit          3D

 42 44  0  0  0  0  0  0  0  0999 V2000
  140.6950   78.1010  219.5810 C   0  0  0  0  0  0  0  0  0  0  0  0
  141.1700   77.4070  220.8580 C   0  0  2  0  0  0  0  0  0  0  0  0
  140.1110   76.5550  221.3920 N   0  0  0  0  0  0  0  0  0  0  0  0
  140.2810   75.1630  221.6690 C   0  0  0  0  0  0  0  0  0  0  0  0
  139.5430   74.5760  222.6990 O   0  0  0  0  0  0  0  0  0  0  0  0
  141.1370   74.4190  220.9540 C   0  0  0  0  0  0  0  0  0  0  0  0
  141.3710   73.0190  221.1890 N   0  0  0  0  0  0  0  0  0  0  0  0
  140.4130   71.9620  221.3520 C   0  0  0  0  0  0  0  0  0  0  0  0
  139.8060   71.5470  220.3300 O   0  0  0  0  0  0  0  0  0  0  0  0
  140.1640   71.3060  222.6580 C   0  0  0  0  0  0  0  0  0  0  0  0
  139.3510   70.1630  222.7410 C   0  0  0  0  0  0  0  0  0  0  0  0
  139.0880   69.5880  223.9860 C   0  0  0  0  0  0  0  0  0  0  0  0
  139.6330   70.1550  225.1430 C   0  0  0  0  0  0  0  0  0  0  0  0
  139.3600   69.6240  226.4130 C   0  0  0  0  0  0  0  0  0  0  0  0
  139.9110   70.2210  227.5520 C   0  0  0  0  0  0  0  0  0  0  0  0
  139.6450   69.7100  228.7800 F   0  0  0  0  0  0  0  0  0  0  0  0
  140.7350   71.3450  227.4280 C   0  0  0  0  0  0  0  0  0  0  0  0
  141.0110   71.8800  226.1660 C   0  0  0  0  0  0  0  0  0  0  0  0
  140.4620   71.2910  225.0220 C   0  0  0  0  0  0  0  0  0  0  0  0
  140.7080   71.8230  223.7950 N   0  0  0  0  0  0  0  0  0  0  0  0
  141.5730   78.4200  221.9050 C   0  0  0  0  0  0  0  0  0  0  0  0
  142.1190   79.6570  221.5220 C   0  0  0  0  0  0  0  0  0  0  0  0
  142.5080   80.5880  222.4900 C   0  0  0  0  0  0  0  0  0  0  0  0
  142.3540   80.2960  223.8470 C   0  0  0  0  0  0  0  0  0  0  0  0
  141.8080   79.0710  224.2390 C   0  0  0  0  0  0  0  0  0  0  0  0
  141.4180   78.1360  223.2760 C   0  0  0  0  0  0  0  0  0  0  0  0
  140.0919   78.9822  219.8452 H   0  0  0  0  0  0  0  0  0  0  0  0
  141.5669   78.4173  218.9896 H   0  0  0  0  0  0  0  0  0  0  0  0
  140.0845   77.4028  218.9896 H   0  0  0  0  0  0  0  0  0  0  0  0
  142.0456   76.7916  220.6040 H   0  0  0  0  0  0  0  0  0  0  0  0
  139.7290   73.6330  223.0250 H   0  0  0  0  0  0  0  0  0  0  0  0
  141.6929   74.9075  220.1401 H   0  0  0  0  0  0  0  0  0  0  0  0
  138.9232   69.7226  221.8283 H   0  0  0  0  0  0  0  0  0  0  0  0
  138.4541   68.6918  224.0568 H   0  0  0  0  0  0  0  0  0  0  0  0
  138.7136   68.7395  226.5128 H   0  0  0  0  0  0  0  0  0  0  0  0
  141.1672   71.8094  228.3266 H   0  0  0  0  0  0  0  0  0  0  0  0
  141.6595   72.7636  226.0728 H   0  0  0  0  0  0  0  0  0  0  0  0
  142.2410   79.8941  220.4548 H   0  0  0  0  0  0  0  0  0  0  0  0
  142.9365   81.5531  222.1818 H   0  0  0  0  0  0  0  0  0  0  0  0
  142.6622   81.0296  224.6065 H   0  0  0  0  0  0  0  0  0  0  0  0
  141.6848   78.8420  225.3078 H   0  0  0  0  0  0  0  0  0  0  0  0
  140.9879   77.1736  223.5903 H   0  0  0  0  0  0  0  0  0  0  0  0
  1  2  1  0
  2  3  1  0
  3  4  1  0
  4  5  1  0
  4  6  2  0
  6  7  1  0
  7  8  1  0
  8  9  2  0
  8 10  1  0
 10 11  2  0
 11 12  1  0
 12 13  2  0
 13 14  1  0
 14 15  2  0
 15 16  1  0
 15 17  1  0
 17 18  2  0
 18 19  1  0
 19 20  2  0
  2 21  1  0
 21 22  2  0
 22 23  1  0
 23 24  2  0
 24 25  1  0
 25 26  2  0
 20 10  1  0
 26 21  1  0
 19 13  1  0
  1 27  1  0
  1 28  1  0
  1 29  1  0
  2 30  1  6
  5 31  1  0
  6 32  1  0
 11 33  1  0
 12 34  1  0
 14 35  1  0
 17 36  1  0
 18 37  1  0
 22 38  1  0
 23 39  1  0
 24 40  1  0
 25 41  1  0
 26 42  1  0
M  CHG  2   3  -1   7  -1
M  END
>  <meeko>  (7) 
{"free_energy": -6.54, "intermolecular_energy": -8.93, "internal_energy": -1.73, "cluster_size": 12, "cluster_id": 1, "rank_in_cluster": 12}

$$$$

     RDKit          3D

 42 44  0  0  0  0  0  0  0  0999 V2000
  138.7520   68.8240  224.6760 C   0  0  0  0  0  0  0  0  0  0  0  0
  139.1620   70.2950  224.5910 C   0  0  2  0  0  0  0  0  0  0  0  0
  140.0140   70.5150  223.4270 N   0  0  0  0  0  0  0  0  0  0  0  0
  139.9160   71.6640  222.5810 C   0  0  0  0  0  0  0  0  0  0  0  0
  138.7050   71.9410  221.9430 O   0  0  0  0  0  0  0  0  0  0  0  0
  140.9680   72.4730  222.3940 C   0  0  0  0  0  0  0  0  0  0  0  0
  140.8990   73.7300  221.6990 N   0  0  0  0  0  0  0  0  0  0  0  0
  140.0290   74.8470  221.9460 C   0  0  0  0  0  0  0  0  0  0  0  0
  138.8530   74.6110  222.3280 O   0  0  0  0  0  0  0  0  0  0  0  0
  140.4840   76.2520  221.8280 C   0  0  0  0  0  0  0  0  0  0  0  0
  141.3900   76.6300  220.8230 C   0  0  0  0  0  0  0  0  0  0  0  0
  141.8460   77.9480  220.7580 C   0  0  0  0  0  0  0  0  0  0  0  0
  141.4000   78.8850  221.6960 C   0  0  0  0  0  0  0  0  0  0  0  0
  141.8640   80.2090  221.6820 C   0  0  0  0  0  0  0  0  0  0  0  0
  141.4070   81.1190  222.6410 C   0  0  0  0  0  0  0  0  0  0  0  0
  141.8590   82.3980  222.6300 F   0  0  0  0  0  0  0  0  0  0  0  0
  140.4870   80.7120  223.6140 C   0  0  0  0  0  0  0  0  0  0  0  0
  140.0210   79.3950  223.6340 C   0  0  0  0  0  0  0  0  0  0  0  0
  140.4740   78.4780  222.6800 C   0  0  0  0  0  0  0  0  0  0  0  0
  140.0410   77.1890  222.7120 N   0  0  0  0  0  0  0  0  0  0  0  0
  139.9000   70.7220  225.8390 C   0  0  0  0  0  0  0  0  0  0  0  0
  139.7480   70.0000  227.0360 C   0  0  0  0  0  0  0  0  0  0  0  0
  140.4160   70.4040  228.1950 C   0  0  0  0  0  0  0  0  0  0  0  0
  141.2440   71.5290  228.1720 C   0  0  0  0  0  0  0  0  0  0  0  0
  141.4070   72.2520  226.9870 C   0  0  0  0  0  0  0  0  0  0  0  0
  140.7390   71.8520  225.8250 C   0  0  0  0  0  0  0  0  0  0  0  0
  138.6692   68.5269  225.7319 H   0  0  0  0  0  0  0  0  0  0  0  0
  137.7808   68.6847  224.1786 H   0  0  0  0  0  0  0  0  0  0  0  0
  139.5111   68.2024  224.1786 H   0  0  0  0  0  0  0  0  0  0  0  0
  138.2462   70.8969  224.4958 H   0  0  0  0  0  0  0  0  0  0  0  0
  138.5130   72.8420  221.5190 H   0  0  0  0  0  0  0  0  0  0  0  0
  141.9419   72.1567  222.7959 H   0  0  0  0  0  0  0  0  0  0  0  0
  141.7394   75.8891  220.0888 H   0  0  0  0  0  0  0  0  0  0  0  0
  142.5538   78.2487  219.9715 H   0  0  0  0  0  0  0  0  0  0  0  0
  142.5865   80.5311  220.9176 H   0  0  0  0  0  0  0  0  0  0  0  0
  140.1296   81.4314  224.3655 H   0  0  0  0  0  0  0  0  0  0  0  0
  139.2977   79.0792  224.4002 H   0  0  0  0  0  0  0  0  0  0  0  0
  139.0994   69.1119  227.0602 H   0  0  0  0  0  0  0  0  0  0  0  0
  140.2896   69.8348  229.1278 H   0  0  0  0  0  0  0  0  0  0  0  0
  141.7675   71.8457  229.0862 H   0  0  0  0  0  0  0  0  0  0  0  0
  142.0611   73.1362  226.9682 H   0  0  0  0  0  0  0  0  0  0  0  0
  140.8702   72.4240  224.8946 H   0  0  0  0  0  0  0  0  0  0  0  0
  1  2  1  0
  2  3  1  0
  3  4  1  0
  4  5  1  0
  4  6  2  0
  6  7  1  0
  7  8  1  0
  8  9  2  0
  8 10  1  0
 10 11  2  0
 11 12  1  0
 12 13  2  0
 13 14  1  0
 14 15  2  0
 15 16  1  0
 15 17  1  0
 17 18  2  0
 18 19  1  0
 19 20  2  0
  2 21  1  0
 21 22  2  0
 22 23  1  0
 23 24  2  0
 24 25  1  0
 25 26  2  0
 20 10  1  0
 26 21  1  0
 19 13  1  0
  1 27  1  0
  1 28  1  0
  1 29  1  0
  2 30  1  6
  5 31  1  0
  6 32  1  0
 11 33  1  0
 12 34  1  0
 14 35  1  0
 17 36  1  0
 18 37  1  0
 22 38  1  0
 23 39  1  0
 24 40  1  0
 25 41  1  0
 26 42  1  0
M  CHG  2   3  -1   7  -1
M  END
>  <meeko>  (8) 
{"free_energy": -6.61, "intermolecular_energy": -8.99, "internal_energy": -1.67, "cluster_size": 5, "cluster_id": 2, "rank_in_cluster": 4}

$$$$

     RDKit          3D

 42 44  0  0  0  0  0  0  0  0999 V2000
  141.4880   78.1150  219.4330 C   0  0  0  0  0  0  0  0  0  0  0  0
  141.4550   77.5170  220.8390 C   0  0  2  0  0  0  0  0  0  0  0  0
  140.1730   76.8600  221.0780 N   0  0  0  0  0  0  0  0  0  0  0  0
  140.0380   75.6170  221.7710 C   0  0  0  0  0  0  0  0  0  0  0  0
  138.9860   75.4490  222.6740 O   0  0  0  0  0  0  0  0  0  0  0  0
  140.9070   74.6170  221.5650 C   0  0  0  0  0  0  0  0  0  0  0  0
  140.9090   73.3900  222.3160 N   0  0  0  0  0  0  0  0  0  0  0  0
  139.7980   72.5520  222.6720 C   0  0  0  0  0  0  0  0  0  0  0  0
  138.7290   72.6740  222.0180 O   0  0  0  0  0  0  0  0  0  0  0  0
  139.8880   71.5160  223.7270 C   0  0  0  0  0  0  0  0  0  0  0  0
  139.3710   70.2270  223.5120 C   0  0  0  0  0  0  0  0  0  0  0  0
  139.4200   69.2790  224.5350 C   0  0  0  0  0  0  0  0  0  0  0  0
  139.9820   69.6170  225.7710 C   0  0  0  0  0  0  0  0  0  0  0  0
  140.0150   68.7010  226.8320 C   0  0  0  0  0  0  0  0  0  0  0  0
  140.5740   69.0740  228.0600 C   0  0  0  0  0  0  0  0  0  0  0  0
  140.6030   68.1890  229.0870 F   0  0  0  0  0  0  0  0  0  0  0  0
  141.0990   70.3590  228.2300 C   0  0  0  0  0  0  0  0  0  0  0  0
  141.0690   71.2780  227.1770 C   0  0  0  0  0  0  0  0  0  0  0  0
  140.5100   70.9140  225.9480 C   0  0  0  0  0  0  0  0  0  0  0  0
  140.4570   71.8130  224.9290 N   0  0  0  0  0  0  0  0  0  0  0  0
  141.6720   78.5850  221.8860 C   0  0  0  0  0  0  0  0  0  0  0  0
  141.4810   78.2920  223.2480 C   0  0  0  0  0  0  0  0  0  0  0  0
  141.6650   79.2830  224.2170 C   0  0  0  0  0  0  0  0  0  0  0  0
  142.0430   80.5740  223.8380 C   0  0  0  0  0  0  0  0  0  0  0  0
  142.2400   80.8750  222.4880 C   0  0  0  0  0  0  0  0  0  0  0  0
  142.0560   79.8870  221.5150 C   0  0  0  0  0  0  0  0  0  0  0  0
  141.5485   79.2112  219.5021 H   0  0  0  0  0  0  0  0  0  0  0  0
  142.3664   77.7326  218.8924 H   0  0  0  0  0  0  0  0  0  0  0  0
  140.5729   77.8316  218.8924 H   0  0  0  0  0  0  0  0  0  0  0  0
  142.2671   76.7786  220.9114 H   0  0  0  0  0  0  0  0  0  0  0  0
  138.7630   74.5450  223.0770 H   0  0  0  0  0  0  0  0  0  0  0  0
  141.6627   74.7421  220.7755 H   0  0  0  0  0  0  0  0  0  0  0  0
  138.9286   69.9658  222.5393 H   0  0  0  0  0  0  0  0  0  0  0  0
  139.0178   68.2685  224.3701 H   0  0  0  0  0  0  0  0  0  0  0  0
  139.6020   67.6901  226.6996 H   0  0  0  0  0  0  0  0  0  0  0  0
  141.5375   70.6479  229.1966 H   0  0  0  0  0  0  0  0  0  0  0  0
  141.4849   72.2869  227.3151 H   0  0  0  0  0  0  0  0  0  0  0  0
  141.1851   77.2773  223.5528 H   0  0  0  0  0  0  0  0  0  0  0  0
  141.5119   79.0460  225.2802 H   0  0  0  0  0  0  0  0  0  0  0  0
  142.1853   81.3525  224.6020 H   0  0  0  0  0  0  0  0  0  0  0  0
  142.5402   81.8904  222.1898 H   0  0  0  0  0  0  0  0  0  0  0  0
  142.2124   80.1293  220.4535 H   0  0  0  0  0  0  0  0  0  0  0  0
  1  2  1  0
  2  3  1  0
  3  4  1  0
  4  5  1  0
  4  6  2  0
  6  7  1  0
  7  8  1  0
  8  9  2  0
  8 10  1  0
 10 11  2  0
 11 12  1  0
 12 13  2  0
 13 14  1  0
 14 15  2  0
 15 16  1  0
 15 17  1  0
 17 18  2  0
 18 19  1  0
 19 20  2  0
  2 21  1  0
 21 22  2  0
 22 23  1  0
 23 24  2  0
 24 25  1  0
 25 26  2  0
 20 10  1  0
 26 21  1  0
 19 13  1  0
  1 27  1  0
  1 28  1  0
  1 29  1  0
  2 30  1  6
  5 31  1  0
  6 32  1  0
 11 33  1  0
 12 34  1  0
 14 35  1  0
 17 36  1  0
 18 37  1  0
 22 38  1  0
 23 39  1  0
 24 40  1  0
 25 41  1  0
 26 42  1  0
M  CHG  2   3  -1   7  -1
M  END
>  <meeko>  (9) 
{"free_energy": -7.69, "intermolecular_energy": -10.07, "internal_energy": -1.57, "cluster_size": 12, "cluster_id": 1, "rank_in_cluster": 4}

$$$$

     RDKit          3D

 42 44  0  0  0  0  0  0  0  0999 V2000
  139.0910   68.7120  224.1360 C   0  0  0  0  0  0  0  0  0  0  0  0
  139.1820   70.2210  224.3590 C   0  0  2  0  0  0  0  0  0  0  0  0
  139.9250   70.8480  223.2700 N   0  0  0  0  0  0  0  0  0  0  0  0
  139.6100   72.1360  222.7360 C   0  0  0  0  0  0  0  0  0  0  0  0
  138.2740   72.4690  222.4980 O   0  0  0  0  0  0  0  0  0  0  0  0
  140.5770   73.0230  222.4600 C   0  0  0  0  0  0  0  0  0  0  0  0
  140.3430   74.2950  221.8310 N   0  0  0  0  0  0  0  0  0  0  0  0
  139.3030   75.2500  222.0950 C   0  0  0  0  0  0  0  0  0  0  0  0
  138.1070   74.8620  222.0270 O   0  0  0  0  0  0  0  0  0  0  0  0
  139.5890   76.6460  222.5020 C   0  0  0  0  0  0  0  0  0  0  0  0
  138.5410   77.5560  222.7240 C   0  0  0  0  0  0  0  0  0  0  0  0
  138.8300   78.8800  223.0590 C   0  0  0  0  0  0  0  0  0  0  0  0
  140.1620   79.2950  223.1690 C   0  0  0  0  0  0  0  0  0  0  0  0
  140.4890   80.6260  223.4690 C   0  0  0  0  0  0  0  0  0  0  0  0
  141.8310   81.0120  223.5600 C   0  0  0  0  0  0  0  0  0  0  0  0
  142.1460   82.2990  223.8470 F   0  0  0  0  0  0  0  0  0  0  0  0
  142.8470   80.0720  223.3540 C   0  0  0  0  0  0  0  0  0  0  0  0
  142.5290   78.7450  223.0550 C   0  0  0  0  0  0  0  0  0  0  0  0
  141.1900   78.3510  222.9590 C   0  0  0  0  0  0  0  0  0  0  0  0
  140.8770   77.0660  222.6440 N   0  0  0  0  0  0  0  0  0  0  0  0
  139.8600   70.5350  225.6720 C   0  0  0  0  0  0  0  0  0  0  0  0
  139.6720   69.6960  226.7850 C   0  0  0  0  0  0  0  0  0  0  0  0
  140.2850   69.9930  228.0060 C   0  0  0  0  0  0  0  0  0  0  0  0
  141.0930   71.1270  228.1280 C   0  0  0  0  0  0  0  0  0  0  0  0
  141.2910   71.9640  227.0280 C   0  0  0  0  0  0  0  0  0  0  0  0
  140.6790   71.6720  225.8050 C   0  0  0  0  0  0  0  0  0  0  0  0
  139.0601   68.1989  225.1085 H   0  0  0  0  0  0  0  0  0  0  0  0
  138.1772   68.4795  223.5695 H   0  0  0  0  0  0  0  0  0  0  0  0
  139.9702   68.3714  223.5695 H   0  0  0  0  0  0  0  0  0  0  0  0
  138.1574   70.6204  224.3850 H   0  0  0  0  0  0  0  0  0  0  0  0
  137.9010   73.3850  222.7200 H   0  0  0  0  0  0  0  0  0  0  0  0
  141.6108   72.7622  222.7308 H   0  0  0  0  0  0  0  0  0  0  0  0
  137.4956   77.2257  222.6340 H   0  0  0  0  0  0  0  0  0  0  0  0
  138.0131   79.5951  223.2360 H   0  0  0  0  0  0  0  0  0  0  0  0
  139.6912   81.3654  223.6325 H   0  0  0  0  0  0  0  0  0  0  0  0
  143.9006   80.3794  223.4279 H   0  0  0  0  0  0  0  0  0  0  0  0
  143.3314   78.0098  222.8950 H   0  0  0  0  0  0  0  0  0  0  0  0
  139.0390   68.8010  226.6944 H   0  0  0  0  0  0  0  0  0  0  0  0
  140.1311   69.3329  228.8724 H   0  0  0  0  0  0  0  0  0  0  0  0
  141.5727   71.3600  229.0901 H   0  0  0  0  0  0  0  0  0  0  0  0
  141.9295   72.8546  227.1236 H   0  0  0  0  0  0  0  0  0  0  0  0
  140.8386   72.3348  224.9417 H   0  0  0  0  0  0  0  0  0  0  0  0
  1  2  1  0
  2  3  1  0
  3  4  1  0
  4  5  1  0
  4  6  2  0
  6  7  1  0
  7  8  1  0
  8  9  2  0
  8 10  1  0
 10 11  2  0
 11 12  1  0
 12 13  2  0
 13 14  1  0
 14 15  2  0
 15 16  1  0
 15 17  1  0
 17 18  2  0
 18 19  1  0
 19 20  2  0
  2 21  1  0
 21 22  2  0
 22 23  1  0
 23 24  2  0
 24 25  1  0
 25 26  2  0
 20 10  1  0
 26 21  1  0
 19 13  1  0
  1 27  1  0
  1 28  1  0
  1 29  1  0
  2 30  1  1
  5 31  1  0
  6 32  1  0
 11 33  1  0
 12 34  1  0
 14 35  1  0
 17 36  1  0
 18 37  1  0
 22 38  1  0
 23 39  1  0
 24 40  1  0
 25 41  1  0
 26 42  1  0
M  CHG  2   3  -1   7  -1
M  END
>  <meeko>  (10) 
{"free_energy": -7.04, "intermolecular_energy": -9.43, "internal_energy": -1.44, "cluster_size": 5, "cluster_id": 2, "rank_in_cluster": 2}

$$$$

     RDKit          3D

 42 44  0  0  0  0  0  0  0  0999 V2000
  141.4260   76.8900  220.6010 C   0  0  0  0  0  0  0  0  0  0  0  0
  141.0570   76.8160  222.0830 C   0  0  2  0  0  0  0  0  0  0  0  0
  139.7500   76.1870  222.2480 N   0  0  0  0  0  0  0  0  0  0  0  0
  139.5150   74.7910  222.0490 C   0  0  0  0  0  0  0  0  0  0  0  0
  138.2480   74.2670  222.3180 O   0  0  0  0  0  0  0  0  0  0  0  0
  140.4910   73.9830  221.6110 C   0  0  0  0  0  0  0  0  0  0  0  0
  140.6380   72.6110  222.0160 N   0  0  0  0  0  0  0  0  0  0  0  0
  139.7050   71.7770  222.7210 C   0  0  0  0  0  0  0  0  0  0  0  0
  138.6430   71.4430  222.1320 O   0  0  0  0  0  0  0  0  0  0  0  0
  139.9760   71.2500  224.0800 C   0  0  0  0  0  0  0  0  0  0  0  0
  140.7480   71.9880  224.9930 C   0  0  0  0  0  0  0  0  0  0  0  0
  141.0340   71.4540  226.2510 C   0  0  0  0  0  0  0  0  0  0  0  0
  140.5540   70.1850  226.5940 C   0  0  0  0  0  0  0  0  0  0  0  0
  140.8520   69.6030  227.8350 C   0  0  0  0  0  0  0  0  0  0  0  0
  140.3660   68.3280  228.1430 C   0  0  0  0  0  0  0  0  0  0  0  0
  140.6570   67.7640  229.3410 F   0  0  0  0  0  0  0  0  0  0  0  0
  139.5820   67.6320  227.2160 C   0  0  0  0  0  0  0  0  0  0  0  0
  139.2810   68.2060  225.9780 C   0  0  0  0  0  0  0  0  0  0  0  0
  139.7650   69.4790  225.6610 C   0  0  0  0  0  0  0  0  0  0  0  0
  139.4950   70.0300  224.4470 N   0  0  0  0  0  0  0  0  0  0  0  0
  141.0290   78.1950  222.7030 C   0  0  0  0  0  0  0  0  0  0  0  0
  139.8100   78.7640  223.1110 C   0  0  0  0  0  0  0  0  0  0  0  0
  139.7800   80.0450  223.6690 C   0  0  0  0  0  0  0  0  0  0  0  0
  140.9640   80.7700  223.8270 C   0  0  0  0  0  0  0  0  0  0  0  0
  142.1820   80.2120  223.4300 C   0  0  0  0  0  0  0  0  0  0  0  0
  142.2180   78.9310  222.8700 C   0  0  0  0  0  0  0  0  0  0  0  0
  142.5000   77.1054  220.5009 H   0  0  0  0  0  0  0  0  0  0  0  0
  141.1983   75.9283  220.1180 H   0  0  0  0  0  0  0  0  0  0  0  0
  140.8451   77.6895  220.1180 H   0  0  0  0  0  0  0  0  0  0  0  0
  141.8234   76.2127  222.5915 H   0  0  0  0  0  0  0  0  0  0  0  0
  138.1220   73.3870  222.8060 H   0  0  0  0  0  0  0  0  0  0  0  0
  141.2227   74.3938  220.8997 H   0  0  0  0  0  0  0  0  0  0  0  0
  141.1260   72.9836  224.7175 H   0  0  0  0  0  0  0  0  0  0  0  0
  141.6350   72.0293  226.9706 H   0  0  0  0  0  0  0  0  0  0  0  0
  141.4674   70.1488  228.5654 H   0  0  0  0  0  0  0  0  0  0  0  0
  139.2015   66.6298  227.4627 H   0  0  0  0  0  0  0  0  0  0  0  0
  138.6632   67.6563  225.2527 H   0  0  0  0  0  0  0  0  0  0  0  0
  138.8746   78.1979  222.9904 H   0  0  0  0  0  0  0  0  0  0  0  0
  138.8219   80.4836  223.9846 H   0  0  0  0  0  0  0  0  0  0  0  0
  140.9373   81.7793  224.2636 H   0  0  0  0  0  0  0  0  0  0  0  0
  143.1144   80.7814  223.5582 H   0  0  0  0  0  0  0  0  0  0  0  0
  143.1793   78.4964  222.5586 H   0  0  0  0  0  0  0  0  0  0  0  0
  1  2  1  0
  2  3  1  0
  3  4  1  0
  4  5  1  0
  4  6  2  0
  6  7  1  0
  7  8  1  0
  8  9  2  0
  8 10  1  0
 10 11  2  0
 11 12  1  0
 12 13  2  0
 13 14  1  0
 14 15  2  0
 15 16  1  0
 15 17  1  0
 17 18  2  0
 18 19  1  0
 19 20  2  0
  2 21  1  0
 21 22  2  0
 22 23  1  0
 23 24  2  0
 24 25  1  0
 25 26  2  0
 20 10  1  0
 26 21  1  0
 19 13  1  0
  1 27  1  0
  1 28  1  0
  1 29  1  0
  2 30  1  1
  5 31  1  0
  6 32  1  0
 11 33  1  0
 12 34  1  0
 14 35  1  0
 17 36  1  0
 18 37  1  0
 22 38  1  0
 23 39  1  0
 24 40  1  0
 25 41  1  0
 26 42  1  0
M  CHG  2   3  -1   7  -1
M  END
>  <meeko>  (11) 
{"free_energy": -6.91, "intermolecular_energy": -9.29, "internal_energy": -1.43, "cluster_size": 12, "cluster_id": 1, "rank_in_cluster": 10}

$$$$

     RDKit          3D

 42 44  0  0  0  0  0  0  0  0999 V2000
  140.2820   78.3510  220.4510 C   0  0  0  0  0  0  0  0  0  0  0  0
  141.3930   78.0070  221.4430 C   0  0  2  0  0  0  0  0  0  0  0  0
  141.0180   76.8400  222.2360 N   0  0  0  0  0  0  0  0  0  0  0  0
  140.7910   75.5440  221.6780 C   0  0  0  0  0  0  0  0  0  0  0  0
  141.8370   74.8900  221.0240 O   0  0  0  0  0  0  0  0  0  0  0  0
  139.5920   74.9540  221.7740 C   0  0  0  0  0  0  0  0  0  0  0  0
  139.3860   73.6430  222.3280 N   0  0  0  0  0  0  0  0  0  0  0  0
  140.3320   72.5730  222.4830 C   0  0  0  0  0  0  0  0  0  0  0  0
  141.3020   72.5170  221.6820 O   0  0  0  0  0  0  0  0  0  0  0  0
  140.2410   71.5810  223.5810 C   0  0  0  0  0  0  0  0  0  0  0  0
  139.6360   70.3310  223.3690 C   0  0  0  0  0  0  0  0  0  0  0  0
  139.5150   69.4290  224.4270 C   0  0  0  0  0  0  0  0  0  0  0  0
  139.9960   69.7760  225.6950 C   0  0  0  0  0  0  0  0  0  0  0  0
  139.8600   68.9090  226.7890 C   0  0  0  0  0  0  0  0  0  0  0  0
  140.3410   69.2900  228.0460 C   0  0  0  0  0  0  0  0  0  0  0  0
  140.2060   68.4530  229.1040 F   0  0  0  0  0  0  0  0  0  0  0  0
  140.9590   70.5340  228.2140 C   0  0  0  0  0  0  0  0  0  0  0  0
  141.0980   71.4040  227.1290 C   0  0  0  0  0  0  0  0  0  0  0  0
  140.6170   71.0310  225.8690 C   0  0  0  0  0  0  0  0  0  0  0  0
  140.7290   71.8850  224.8160 N   0  0  0  0  0  0  0  0  0  0  0  0
  141.6730   79.1700  222.3660 C   0  0  0  0  0  0  0  0  0  0  0  0
  142.9950   79.4860  222.7290 C   0  0  0  0  0  0  0  0  0  0  0  0
  143.2540   80.5510  223.5960 C   0  0  0  0  0  0  0  0  0  0  0  0
  142.2010   81.3130  224.1070 C   0  0  0  0  0  0  0  0  0  0  0  0
  140.8840   81.0120  223.7490 C   0  0  0  0  0  0  0  0  0  0  0  0
  140.6190   79.9470  222.8830 C   0  0  0  0  0  0  0  0  0  0  0  0
  139.3726   78.6326  221.0021 H   0  0  0  0  0  0  0  0  0  0  0  0
  140.6026   79.1919  219.8185 H   0  0  0  0  0  0  0  0  0  0  0  0
  140.0713   77.4760  219.8185 H   0  0  0  0  0  0  0  0  0  0  0  0
  142.3033   77.7842  220.8670 H   0  0  0  0  0  0  0  0  0  0  0  0
  141.8870   73.8780  220.9670 H   0  0  0  0  0  0  0  0  0  0  0  0
  138.7133   75.5049  221.4074 H   0  0  0  0  0  0  0  0  0  0  0  0
  139.2584   70.0637  222.3710 H   0  0  0  0  0  0  0  0  0  0  0  0
  139.0432   68.4486  224.2651 H   0  0  0  0  0  0  0  0  0  0  0  0
  139.3754   67.9301  226.6586 H   0  0  0  0  0  0  0  0  0  0  0  0
  141.3370   70.8285  229.2041 H   0  0  0  0  0  0  0  0  0  0  0  0
  141.5850   72.3809  227.2654 H   0  0  0  0  0  0  0  0  0  0  0  0
  143.8293   78.8916  222.3282 H   0  0  0  0  0  0  0  0  0  0  0  0
  144.2904   80.7899  223.8768 H   0  0  0  0  0  0  0  0  0  0  0  0
  142.4081   82.1494  224.7907 H   0  0  0  0  0  0  0  0  0  0  0  0
  140.0548   81.6139  224.1492 H   0  0  0  0  0  0  0  0  0  0  0  0
  139.5807   79.7147  222.6039 H   0  0  0  0  0  0  0  0  0  0  0  0
  1  2  1  0
  2  3  1  0
  3  4  1  0
  4  5  1  0
  4  6  2  0
  6  7  1  0
  7  8  1  0
  8  9  2  0
  8 10  1  0
 10 11  2  0
 11 12  1  0
 12 13  2  0
 13 14  1  0
 14 15  2  0
 15 16  1  0
 15 17  1  0
 17 18  2  0
 18 19  1  0
 19 20  2  0
  2 21  1  0
 21 22  2  0
 22 23  1  0
 23 24  2  0
 24 25  1  0
 25 26  2  0
 20 10  1  0
 26 21  1  0
 19 13  1  0
  1 27  1  0
  1 28  1  0
  1 29  1  0
  2 30  1  6
  5 31  1  0
  6 32  1  0
 11 33  1  0
 12 34  1  0
 14 35  1  0
 17 36  1  0
 18 37  1  0
 22 38  1  0
 23 39  1  0
 24 40  1  0
 25 41  1  0
 26 42  1  0
M  CHG  2   3  -1   7  -1
M  END
>  <meeko>  (12) 
{"free_energy": -6.84, "intermolecular_energy": -9.23, "internal_energy": -1.34, "cluster_size": 12, "cluster_id": 1, "rank_in_cluster": 11}

$$$$

     RDKit          3D

 42 44  0  0  0  0  0  0  0  0999 V2000
  142.5720   76.0900  219.5260 C   0  0  0  0  0  0  0  0  0  0  0  0
  142.3460   74.6480  219.9790 C   0  0  2  0  0  0  0  0  0  0  0  0
  141.7230   74.6240  221.2990 N   0  0  0  0  0  0  0  0  0  0  0  0
  140.6000   73.8030  221.6280 C   0  0  0  0  0  0  0  0  0  0  0  0
  139.5360   74.3570  222.3450 O   0  0  0  0  0  0  0  0  0  0  0  0
  140.5570   72.5150  221.2600 C   0  0  0  0  0  0  0  0  0  0  0  0
  139.4850   71.6190  221.6010 N   0  0  0  0  0  0  0  0  0  0  0  0
  138.7590   71.5140  222.8360 C   0  0  0  0  0  0  0  0  0  0  0  0
  137.7090   72.1970  222.9670 O   0  0  0  0  0  0  0  0  0  0  0  0
  139.1640   70.5930  223.9230 C   0  0  0  0  0  0  0  0  0  0  0  0
  138.8850   69.2180  223.8380 C   0  0  0  0  0  0  0  0  0  0  0  0
  139.2300   68.3720  224.8940 C   0  0  0  0  0  0  0  0  0  0  0  0
  139.8500   68.8990  226.0320 C   0  0  0  0  0  0  0  0  0  0  0  0
  140.1780   68.0840  227.1260 C   0  0  0  0  0  0  0  0  0  0  0  0
  140.7870   68.6430  228.2550 C   0  0  0  0  0  0  0  0  0  0  0  0
  141.1010   67.8570  229.3140 F   0  0  0  0  0  0  0  0  0  0  0  0
  141.0700   70.0130  228.2950 C   0  0  0  0  0  0  0  0  0  0  0  0
  140.7450   70.8310  227.2090 C   0  0  0  0  0  0  0  0  0  0  0  0
  140.1340   70.2800  226.0770 C   0  0  0  0  0  0  0  0  0  0  0  0
  139.7950   71.0770  225.0290 N   0  0  0  0  0  0  0  0  0  0  0  0
  143.6510   73.8870  220.0290 C   0  0  0  0  0  0  0  0  0  0  0  0
  143.6990   72.5360  219.6430 C   0  0  0  0  0  0  0  0  0  0  0  0
  144.9020   71.8250  219.7050 C   0  0  0  0  0  0  0  0  0  0  0  0
  146.0670   72.4550  220.1490 C   0  0  0  0  0  0  0  0  0  0  0  0
  146.0320   73.7990  220.5310 C   0  0  0  0  0  0  0  0  0  0  0  0
  144.8320   74.5130  220.4720 C   0  0  0  0  0  0  0  0  0  0  0  0
  142.6738   76.7397  220.4078 H   0  0  0  0  0  0  0  0  0  0  0  0
  143.4897   76.1450  218.9221 H   0  0  0  0  0  0  0  0  0  0  0  0
  141.7151   76.4232  218.9221 H   0  0  0  0  0  0  0  0  0  0  0  0
  141.6799   74.1653  219.2487 H   0  0  0  0  0  0  0  0  0  0  0  0
  138.7920   73.7850  222.7300 H   0  0  0  0  0  0  0  0  0  0  0  0
  141.3911   72.1198  220.6616 H   0  0  0  0  0  0  0  0  0  0  0  0
  138.3959   68.8092  222.9415 H   0  0  0  0  0  0  0  0  0  0  0  0
  139.0150   67.2950  224.8313 H   0  0  0  0  0  0  0  0  0  0  0  0
  139.9566   67.0069  227.0962 H   0  0  0  0  0  0  0  0  0  0  0  0
  141.5499   70.4477  229.1842 H   0  0  0  0  0  0  0  0  0  0  0  0
  140.9694   71.9073  227.2442 H   0  0  0  0  0  0  0  0  0  0  0  0
  142.7853   72.0352  219.2902 H   0  0  0  0  0  0  0  0  0  0  0  0
  144.9307   70.7675  219.4035 H   0  0  0  0  0  0  0  0  0  0  0  0
  147.0116   71.8935  220.1980 H   0  0  0  0  0  0  0  0  0  0  0  0
  146.9501   74.2954  220.8785 H   0  0  0  0  0  0  0  0  0  0  0  0
  144.8099   75.5706  220.7735 H   0  0  0  0  0  0  0  0  0  0  0  0
  1  2  1  0
  2  3  1  0
  3  4  1  0
  4  5  1  0
  4  6  2  0
  6  7  1  0
  7  8  1  0
  8  9  2  0
  8 10  1  0
 10 11  2  0
 11 12  1  0
 12 13  2  0
 13 14  1  0
 14 15  2  0
 15 16  1  0
 15 17  1  0
 17 18  2  0
 18 19  1  0
 19 20  2  0
  2 21  1  0
 21 22  2  0
 22 23  1  0
 23 24  2  0
 24 25  1  0
 25 26  2  0
 20 10  1  0
 26 21  1  0
 19 13  1  0
  1 27  1  0
  1 28  1  0
  1 29  1  0
  2 30  1  6
  5 31  1  0
  6 32  1  0
 11 33  1  0
 12 34  1  0
 14 35  1  0
 17 36  1  0
 18 37  1  0
 22 38  1  0
 23 39  1  0
 24 40  1  0
 25 41  1  0
 26 42  1  0
M  CHG  2   3  -1   7  -1
M  END
>  <meeko>  (13) 
{"free_energy": -7.04, "intermolecular_energy": -9.43, "internal_energy": -1.73, "cluster_size": 2, "cluster_id": 3, "rank_in_cluster": 2}

$$$$

     RDKit          3D

 42 44  0  0  0  0  0  0  0  0999 V2000
  138.7490   68.8920  224.6760 C   0  0  0  0  0  0  0  0  0  0  0  0
  139.3400   70.2990  224.5920 C   0  0  2  0  0  0  0  0  0  0  0  0
  140.3240   70.3700  223.5150 N   0  0  0  0  0  0  0  0  0  0  0  0
  140.3890   71.4420  222.5730 C   0  0  0  0  0  0  0  0  0  0  0  0
  140.9570   71.2150  221.3170 O   0  0  0  0  0  0  0  0  0  0  0  0
  139.9140   72.6580  222.8790 C   0  0  0  0  0  0  0  0  0  0  0  0
  139.9380   73.7780  221.9780 N   0  0  0  0  0  0  0  0  0  0  0  0
  141.0690   74.4060  221.3540 C   0  0  0  0  0  0  0  0  0  0  0  0
  141.9010   73.6740  220.7560 O   0  0  0  0  0  0  0  0  0  0  0  0
  141.2550   75.8770  221.3350 C   0  0  0  0  0  0  0  0  0  0  0  0
  141.6590   76.5330  220.1600 C   0  0  0  0  0  0  0  0  0  0  0  0
  141.8770   77.9110  220.1740 C   0  0  0  0  0  0  0  0  0  0  0  0
  141.6930   78.6330  221.3590 C   0  0  0  0  0  0  0  0  0  0  0  0
  141.9360   80.0130  221.4170 C   0  0  0  0  0  0  0  0  0  0  0  0
  141.7540   80.7040  222.6210 C   0  0  0  0  0  0  0  0  0  0  0  0
  141.9930   82.0370  222.6780 F   0  0  0  0  0  0  0  0  0  0  0  0
  141.3290   80.0200  223.7650 C   0  0  0  0  0  0  0  0  0  0  0  0
  141.0840   78.6450  223.7140 C   0  0  0  0  0  0  0  0  0  0  0  0
  141.2660   77.9470  222.5160 C   0  0  0  0  0  0  0  0  0  0  0  0
  141.0530   76.6050  222.4690 N   0  0  0  0  0  0  0  0  0  0  0  0
  139.9970   70.6890  225.8960 C   0  0  0  0  0  0  0  0  0  0  0  0
  139.7630   69.9370  227.0600 C   0  0  0  0  0  0  0  0  0  0  0  0
  140.3560   70.3060  228.2710 C   0  0  0  0  0  0  0  0  0  0  0  0
  141.1890   71.4260  228.3320 C   0  0  0  0  0  0  0  0  0  0  0  0
  141.4320   72.1780  227.1800 C   0  0  0  0  0  0  0  0  0  0  0  0
  140.8410   71.8140  225.9670 C   0  0  0  0  0  0  0  0  0  0  0  0
  138.6293   68.6070  225.7317 H   0  0  0  0  0  0  0  0  0  0  0  0
  137.7681   68.8760  224.1784 H   0  0  0  0  0  0  0  0  0  0  0  0
  139.4242   68.1804  224.1784 H   0  0  0  0  0  0  0  0  0  0  0  0
  138.5169   70.9991  224.3863 H   0  0  0  0  0  0  0  0  0  0  0  0
  141.1050   71.9640  220.6500 H   0  0  0  0  0  0  0  0  0  0  0  0
  139.4802   72.8075  223.8787 H   0  0  0  0  0  0  0  0  0  0  0  0
  141.8031   75.9615  219.2312 H   0  0  0  0  0  0  0  0  0  0  0  0
  142.1926   78.4287  219.2562 H   0  0  0  0  0  0  0  0  0  0  0  0
  142.2692   80.5518  220.5177 H   0  0  0  0  0  0  0  0  0  0  0  0
  141.1870   80.5668  224.7088 H   0  0  0  0  0  0  0  0  0  0  0  0
  140.7482   78.1121  224.6158 H   0  0  0  0  0  0  0  0  0  0  0  0
  139.1096   69.0531  227.0179 H   0  0  0  0  0  0  0  0  0  0  0  0
  140.1663   69.7132  229.1780 H   0  0  0  0  0  0  0  0  0  0  0  0
  141.6531   71.7155  229.2864 H   0  0  0  0  0  0  0  0  0  0  0  0
  142.0898   73.0583  227.2278 H   0  0  0  0  0  0  0  0  0  0  0  0
  141.0362   72.4094  225.0629 H   0  0  0  0  0  0  0  0  0  0  0  0
  1  2  1  0
  2  3  1  0
  3  4  1  0
  4  5  1  0
  4  6  2  0
  6  7  1  0
  7  8  1  0
  8  9  2  0
  8 10  1  0
 10 11  2  0
 11 12  1  0
 12 13  2  0
 13 14  1  0
 14 15  2  0
 15 16  1  0
 15 17  1  0
 17 18  2  0
 18 19  1  0
 19 20  2  0
  2 21  1  0
 21 22  2  0
 22 23  1  0
 23 24  2  0
 24 25  1  0
 25 26  2  0
 20 10  1  0
 26 21  1  0
 19 13  1  0
  1 27  1  0
  1 28  1  0
  1 29  1  0
  2 30  1  6
  5 31  1  0
  6 32  1  0
 11 33  1  0
 12 34  1  0
 14 35  1  0
 17 36  1  0
 18 37  1  0
 22 38  1  0
 23 39  1  0
 24 40  1  0
 25 41  1  0
 26 42  1  0
M  CHG  2   3  -1   7  -1
M  END
>  <meeko>  (14) 
{"free_energy": -6.72, "intermolecular_energy": -9.11, "internal_energy": -1.66, "cluster_size": 5, "cluster_id": 2, "rank_in_cluster": 3}

$$$$

     RDKit          3D

 42 44  0  0  0  0  0  0  0  0999 V2000
  141.2400   78.0230  219.9980 C   0  0  0  0  0  0  0  0  0  0  0  0
  141.2720   77.6940  221.4910 C   0  0  2  0  0  0  0  0  0  0  0  0
  140.0240   77.0520  221.8930 N   0  0  0  0  0  0  0  0  0  0  0  0
  139.8720   75.6380  222.0370 C   0  0  0  0  0  0  0  0  0  0  0  0
  138.6150   75.1130  222.3450 O   0  0  0  0  0  0  0  0  0  0  0  0
  140.9190   74.8140  221.8820 C   0  0  0  0  0  0  0  0  0  0  0  0
  140.8300   73.3810  221.9660 N   0  0  0  0  0  0  0  0  0  0  0  0
  139.7050   72.5700  222.3410 C   0  0  0  0  0  0  0  0  0  0  0  0
  138.6520   72.6610  221.6560 O   0  0  0  0  0  0  0  0  0  0  0  0
  139.7620   71.5940  223.4550 C   0  0  0  0  0  0  0  0  0  0  0  0
  139.1560   70.3330  223.3330 C   0  0  0  0  0  0  0  0  0  0  0  0
  139.1770   69.4450  224.4100 C   0  0  0  0  0  0  0  0  0  0  0  0
  139.8000   69.8180  225.6060 C   0  0  0  0  0  0  0  0  0  0  0  0
  139.8090   68.9650  226.7200 C   0  0  0  0  0  0  0  0  0  0  0  0
  140.4310   69.3710  227.9060 C   0  0  0  0  0  0  0  0  0  0  0  0
  140.4360   68.5490  228.9840 F   0  0  0  0  0  0  0  0  0  0  0  0
  141.0440   70.6270  227.9830 C   0  0  0  0  0  0  0  0  0  0  0  0
  141.0390   71.4820  226.8770 C   0  0  0  0  0  0  0  0  0  0  0  0
  140.4170   71.0840  225.6890 C   0  0  0  0  0  0  0  0  0  0  0  0
  140.3890   71.9230  224.6190 N   0  0  0  0  0  0  0  0  0  0  0  0
  141.4800   78.9430  222.3160 C   0  0  0  0  0  0  0  0  0  0  0  0
  142.7760   79.3330  222.6970 C   0  0  0  0  0  0  0  0  0  0  0  0
  142.9690   80.4780  223.4750 C   0  0  0  0  0  0  0  0  0  0  0  0
  141.8740   81.2470  223.8770 C   0  0  0  0  0  0  0  0  0  0  0  0
  140.5820   80.8720  223.4990 C   0  0  0  0  0  0  0  0  0  0  0  0
  140.3830   79.7260  222.7220 C   0  0  0  0  0  0  0  0  0  0  0  0
  141.1343   79.1097  219.8642 H   0  0  0  0  0  0  0  0  0  0  0  0
  142.1753   77.6849  219.5279 H   0  0  0  0  0  0  0  0  0  0  0  0
  140.3874   77.5110  219.5279 H   0  0  0  0  0  0  0  0  0  0  0  0
  142.1135   77.0079  221.6678 H   0  0  0  0  0  0  0  0  0  0  0  0
  138.5040   74.2090  222.7920 H   0  0  0  0  0  0  0  0  0  0  0  0
  141.9035   75.2605  221.6787 H   0  0  0  0  0  0  0  0  0  0  0  0
  138.6660   70.0457  222.3910 H   0  0  0  0  0  0  0  0  0  0  0  0
  138.7054   68.4554  224.3187 H   0  0  0  0  0  0  0  0  0  0  0  0
  139.3275   67.9778  226.6611 H   0  0  0  0  0  0  0  0  0  0  0  0
  141.5315   70.9425  228.9173 H   0  0  0  0  0  0  0  0  0  0  0  0
  141.5240   72.4673  226.9409 H   0  0  0  0  0  0  0  0  0  0  0  0
  143.6427   78.7338  222.3811 H   0  0  0  0  0  0  0  0  0  0  0  0
  143.9859   80.7745  223.7716 H   0  0  0  0  0  0  0  0  0  0  0  0
  142.0287   82.1468  224.4905 H   0  0  0  0  0  0  0  0  0  0  0  0
  139.7201   81.4790  223.8130 H   0  0  0  0  0  0  0  0  0  0  0  0
  139.3640   79.4352  222.4268 H   0  0  0  0  0  0  0  0  0  0  0  0
  1  2  1  0
  2  3  1  0
  3  4  1  0
  4  5  1  0
  4  6  2  0
  6  7  1  0
  7  8  1  0
  8  9  2  0
  8 10  1  0
 10 11  2  0
 11 12  1  0
 12 13  2  0
 13 14  1  0
 14 15  2  0
 15 16  1  0
 15 17  1  0
 17 18  2  0
 18 19  1  0
 19 20  2  0
  2 21  1  0
 21 22  2  0
 22 23  1  0
 23 24  2  0
 24 25  1  0
 25 26  2  0
 20 10  1  0
 26 21  1  0
 19 13  1  0
  1 27  1  0
  1 28  1  0
  1 29  1  0
  2 30  1  6
  5 31  1  0
  6 32  1  0
 11 33  1  0
 12 34  1  0
 14 35  1  0
 17 36  1  0
 18 37  1  0
 22 38  1  0
 23 39  1  0
 24 40  1  0
 25 41  1  0
 26 42  1  0
M  CHG  2   3  -1   7  -1
M  END
>  <meeko>  (15) 
{"free_energy": -7.44, "intermolecular_energy": -9.83, "internal_energy": -1.3, "cluster_size": 12, "cluster_id": 1, "rank_in_cluster": 7}

$$$$

     RDKit          3D

 42 44  0  0  0  0  0  0  0  0999 V2000
  138.8190   68.3710  224.5150 C   0  0  0  0  0  0  0  0  0  0  0  0
  138.9500   69.8940  224.4980 C   0  0  2  0  0  0  0  0  0  0  0  0
  139.6530   70.3260  223.2930 N   0  0  0  0  0  0  0  0  0  0  0  0
  139.5790   71.6540  222.7690 C   0  0  0  0  0  0  0  0  0  0  0  0
  138.3510   72.3190  222.7610 O   0  0  0  0  0  0  0  0  0  0  0  0
  140.6710   72.2650  222.2860 C   0  0  0  0  0  0  0  0  0  0  0  0
  140.8770   73.6880  222.3280 N   0  0  0  0  0  0  0  0  0  0  0  0
  140.1360   74.7240  221.6650 C   0  0  0  0  0  0  0  0  0  0  0  0
  139.0300   74.4230  221.1430 O   0  0  0  0  0  0  0  0  0  0  0  0
  140.5940   76.1330  221.6300 C   0  0  0  0  0  0  0  0  0  0  0  0
  141.3650   76.6090  220.5560 C   0  0  0  0  0  0  0  0  0  0  0  0
  141.8290   77.9260  220.5640 C   0  0  0  0  0  0  0  0  0  0  0  0
  141.5250   78.7640  221.6420 C   0  0  0  0  0  0  0  0  0  0  0  0
  142.0030   80.0810  221.6990 C   0  0  0  0  0  0  0  0  0  0  0  0
  141.6920   80.8910  222.7970 C   0  0  0  0  0  0  0  0  0  0  0  0
  142.1570   82.1630  222.8540 F   0  0  0  0  0  0  0  0  0  0  0  0
  140.9020   80.3890  223.8380 C   0  0  0  0  0  0  0  0  0  0  0  0
  140.4210   79.0770  223.7880 C   0  0  0  0  0  0  0  0  0  0  0  0
  140.7310   78.2610  222.6950 C   0  0  0  0  0  0  0  0  0  0  0  0
  140.2860   76.9770  222.6540 N   0  0  0  0  0  0  0  0  0  0  0  0
  139.6980   70.3860  225.7160 C   0  0  0  0  0  0  0  0  0  0  0  0
  139.5660   69.7190  226.9470 C   0  0  0  0  0  0  0  0  0  0  0  0
  140.2430   70.1830  228.0780 C   0  0  0  0  0  0  0  0  0  0  0  0
  141.0600   71.3130  227.9930 C   0  0  0  0  0  0  0  0  0  0  0  0
  141.2030   71.9800  226.7740 C   0  0  0  0  0  0  0  0  0  0  0  0
  140.5270   71.5210  225.6400 C   0  0  0  0  0  0  0  0  0  0  0  0
  138.7886   68.0172  225.5561 H   0  0  0  0  0  0  0  0  0  0  0  0
  137.8922   68.0769  224.0006 H   0  0  0  0  0  0  0  0  0  0  0  0
  139.6819   67.9230  224.0006 H   0  0  0  0  0  0  0  0  0  0  0  0
  137.9363   70.3209  224.5074 H   0  0  0  0  0  0  0  0  0  0  0  0
  138.2860   73.3310  222.7450 H   0  0  0  0  0  0  0  0  0  0  0  0
  141.4548   71.6415  221.8312 H   0  0  0  0  0  0  0  0  0  0  0  0
  141.6024   75.9458  219.7111 H   0  0  0  0  0  0  0  0  0  0  0  0
  142.4319   78.3035  219.7249 H   0  0  0  0  0  0  0  0  0  0  0  0
  142.6223   80.4774  220.8809 H   0  0  0  0  0  0  0  0  0  0  0  0
  140.6587   81.0292  224.6987 H   0  0  0  0  0  0  0  0  0  0  0  0
  139.7994   78.6869  224.6074 H   0  0  0  0  0  0  0  0  0  0  0  0
  138.9263   68.8271  227.0200 H   0  0  0  0  0  0  0  0  0  0  0  0
  140.1323   69.6571  229.0378 H   0  0  0  0  0  0  0  0  0  0  0  0
  141.5903   71.6772  228.8853 H   0  0  0  0  0  0  0  0  0  0  0  0
  141.8487   72.8680  226.7064 H   0  0  0  0  0  0  0  0  0  0  0  0
  140.6435   72.0499  224.6825 H   0  0  0  0  0  0  0  0  0  0  0  0
  1  2  1  0
  2  3  1  0
  3  4  1  0
  4  5  1  0
  4  6  2  0
  6  7  1  0
  7  8  1  0
  8  9  2  0
  8 10  1  0
 10 11  2  0
 11 12  1  0
 12 13  2  0
 13 14  1  0
 14 15  2  0
 15 16  1  0
 15 17  1  0
 17 18  2  0
 18 19  1  0
 19 20  2  0
  2 21  1  0
 21 22  2  0
 22 23  1  0
 23 24  2  0
 24 25  1  0
 25 26  2  0
 20 10  1  0
 26 21  1  0
 19 13  1  0
  1 27  1  0
  1 28  1  0
  1 29  1  0
  2 30  1  6
  5 31  1  0
  6 32  1  0
 11 33  1  0
 12 34  1  0
 14 35  1  0
 17 36  1  0
 18 37  1  0
 22 38  1  0
 23 39  1  0
 24 40  1  0
 25 41  1  0
 26 42  1  0
M  CHG  2   3  -1   7  -1
M  END
>  <meeko>  (16) 
{"free_energy": -7.22, "intermolecular_energy": -9.61, "internal_energy": -1.46, "cluster_size": 5, "cluster_id": 2, "rank_in_cluster": 1}

$$$$

     RDKit          3D

 42 44  0  0  0  0  0  0  0  0999 V2000
  141.7900   78.0230  219.5550 C   0  0  0  0  0  0  0  0  0  0  0  0
  141.5510   77.4780  220.9630 C   0  0  2  0  0  0  0  0  0  0  0  0
  140.3460   76.6540  220.9870 N   0  0  0  0  0  0  0  0  0  0  0  0
  140.1880   75.5090  221.8280 C   0  0  0  0  0  0  0  0  0  0  0  0
  139.1040   75.4500  222.7060 O   0  0  0  0  0  0  0  0  0  0  0  0
  141.0660   74.4960  221.7840 C   0  0  0  0  0  0  0  0  0  0  0  0
  140.6940   73.1090  221.8620 N   0  0  0  0  0  0  0  0  0  0  0  0
  139.5910   72.5120  222.5620 C   0  0  0  0  0  0  0  0  0  0  0  0
  138.4240   72.8200  222.2050 O   0  0  0  0  0  0  0  0  0  0  0  0
  139.7790   71.5080  223.6360 C   0  0  0  0  0  0  0  0  0  0  0  0
  139.3990   70.1700  223.4400 C   0  0  0  0  0  0  0  0  0  0  0  0
  139.5370   69.2490  224.4800 C   0  0  0  0  0  0  0  0  0  0  0  0
  140.0520   69.6640  225.7120 C   0  0  0  0  0  0  0  0  0  0  0  0
  140.1710   68.7730  226.7900 C   0  0  0  0  0  0  0  0  0  0  0  0
  140.6790   69.2220  228.0140 C   0  0  0  0  0  0  0  0  0  0  0  0
  140.7910   68.3620  229.0560 F   0  0  0  0  0  0  0  0  0  0  0  0
  141.0690   70.5580  228.1660 C   0  0  0  0  0  0  0  0  0  0  0  0
  140.9520   71.4510  227.0970 C   0  0  0  0  0  0  0  0  0  0  0  0
  140.4430   71.0110  225.8700 C   0  0  0  0  0  0  0  0  0  0  0  0
  140.3050   71.8820  224.8360 N   0  0  0  0  0  0  0  0  0  0  0  0
  141.4060   78.6040  221.9610 C   0  0  0  0  0  0  0  0  0  0  0  0
  142.5120   79.4110  222.2840 C   0  0  0  0  0  0  0  0  0  0  0  0
  142.3840   80.4420  223.2200 C   0  0  0  0  0  0  0  0  0  0  0  0
  141.1540   80.6800  223.8390 C   0  0  0  0  0  0  0  0  0  0  0  0
  140.0480   79.8870  223.5220 C   0  0  0  0  0  0  0  0  0  0  0  0
  140.1710   78.8540  222.5870 C   0  0  0  0  0  0  0  0  0  0  0  0
  142.2310   79.0286  219.6210 H   0  0  0  0  0  0  0  0  0  0  0  0
  142.4780   77.3556  219.0154 H   0  0  0  0  0  0  0  0  0  0  0  0
  140.8330   78.0770  219.0154 H   0  0  0  0  0  0  0  0  0  0  0  0
  142.4220   76.8665  221.2413 H   0  0  0  0  0  0  0  0  0  0  0  0
  138.7260   74.5690  223.0360 H   0  0  0  0  0  0  0  0  0  0  0  0
  142.1336   74.7405  221.6822 H   0  0  0  0  0  0  0  0  0  0  0  0
  138.9936   69.8486  222.4692 H   0  0  0  0  0  0  0  0  0  0  0  0
  139.2415   68.2000  224.3307 H   0  0  0  0  0  0  0  0  0  0  0  0
  139.8652   67.7229  226.6727 H   0  0  0  0  0  0  0  0  0  0  0  0
  141.4688   70.9061  229.1298 H   0  0  0  0  0  0  0  0  0  0  0  0
  141.2601   72.4998  227.2203 H   0  0  0  0  0  0  0  0  0  0  0  0
  143.4821   79.2302  221.7980 H   0  0  0  0  0  0  0  0  0  0  0  0
  143.2539   81.0673  223.4697 H   0  0  0  0  0  0  0  0  0  0  0  0
  141.0565   81.4912  224.5755 H   0  0  0  0  0  0  0  0  0  0  0  0
  139.0795   80.0753  224.0083 H   0  0  0  0  0  0  0  0  0  0  0  0
  139.2971   78.2334  222.3397 H   0  0  0  0  0  0  0  0  0  0  0  0
  1  2  1  0
  2  3  1  0
  3  4  1  0
  4  5  1  0
  4  6  2  0
  6  7  1  0
  7  8  1  0
  8  9  2  0
  8 10  1  0
 10 11  2  0
 11 12  1  0
 12 13  2  0
 13 14  1  0
 14 15  2  0
 15 16  1  0
 15 17  1  0
 17 18  2  0
 18 19  1  0
 19 20  2  0
  2 21  1  0
 21 22  2  0
 22 23  1  0
 23 24  2  0
 24 25  1  0
 25 26  2  0
 20 10  1  0
 26 21  1  0
 19 13  1  0
  1 27  1  0
  1 28  1  0
  1 29  1  0
  2 30  1  1
  5 31  1  0
  6 32  1  0
 11 33  1  0
 12 34  1  0
 14 35  1  0
 17 36  1  0
 18 37  1  0
 22 38  1  0
 23 39  1  0
 24 40  1  0
 25 41  1  0
 26 42  1  0
M  CHG  2   3  -1   7  -1
M  END
>  <meeko>  (17) 
{"free_energy": -7.12, "intermolecular_energy": -9.5, "internal_energy": -1.48, "cluster_size": 12, "cluster_id": 1, "rank_in_cluster": 8}

$$$$

     RDKit          3D

 42 44  0  0  0  0  0  0  0  0999 V2000
  138.7180   78.3100  222.6760 C   0  0  0  0  0  0  0  0  0  0  0  0
  140.1640   78.1010  222.2260 C   0  0  2  0  0  0  0  0  0  0  0  0
  140.6540   76.8060  222.6880 N   0  0  0  0  0  0  0  0  0  0  0  0
  140.6960   75.6370  221.8650 C   0  0  0  0  0  0  0  0  0  0  0  0
  141.8910   75.2940  221.2280 O   0  0  0  0  0  0  0  0  0  0  0  0
  139.6080   74.8730  221.6980 C   0  0  0  0  0  0  0  0  0  0  0  0
  139.4140   73.6030  222.3440 N   0  0  0  0  0  0  0  0  0  0  0  0
  140.3560   72.5350  222.5280 C   0  0  0  0  0  0  0  0  0  0  0  0
  141.3400   72.4690  221.7450 O   0  0  0  0  0  0  0  0  0  0  0  0
  140.2450   71.5560  223.6350 C   0  0  0  0  0  0  0  0  0  0  0  0
  139.6430   70.3030  223.4260 C   0  0  0  0  0  0  0  0  0  0  0  0
  139.5020   69.4140  224.4920 C   0  0  0  0  0  0  0  0  0  0  0  0
  139.9600   69.7750  225.7640 C   0  0  0  0  0  0  0  0  0  0  0  0
  139.8030   68.9200  226.8660 C   0  0  0  0  0  0  0  0  0  0  0  0
  140.2600   69.3150  228.1280 C   0  0  0  0  0  0  0  0  0  0  0  0
  140.1050   68.4900  229.1920 F   0  0  0  0  0  0  0  0  0  0  0  0
  140.8750   70.5610  228.2930 C   0  0  0  0  0  0  0  0  0  0  0  0
  141.0340   71.4180  227.2000 C   0  0  0  0  0  0  0  0  0  0  0  0
  140.5780   71.0320  225.9360 C   0  0  0  0  0  0  0  0  0  0  0  0
  140.7090   71.8730  224.8760 N   0  0  0  0  0  0  0  0  0  0  0  0
  141.0600   79.1940  222.7610 C   0  0  0  0  0  0  0  0  0  0  0  0
  142.4530   79.1210  222.5820 C   0  0  0  0  0  0  0  0  0  0  0  0
  143.2840   80.1220  223.0910 C   0  0  0  0  0  0  0  0  0  0  0  0
  142.7360   81.2070  223.7800 C   0  0  0  0  0  0  0  0  0  0  0  0
  141.3540   81.2930  223.9600 C   0  0  0  0  0  0  0  0  0  0  0  0
  140.5170   80.2930  223.4530 C   0  0  0  0  0  0  0  0  0  0  0  0
  138.6733   78.3165  223.7751 H   0  0  0  0  0  0  0  0  0  0  0  0
  138.3486   79.2709  222.2884 H   0  0  0  0  0  0  0  0  0  0  0  0
  138.0916   77.4931  222.2884 H   0  0  0  0  0  0  0  0  0  0  0  0
  140.1837   78.1320  221.1266 H   0  0  0  0  0  0  0  0  0  0  0  0
  142.1460   74.3290  221.0470 H   0  0  0  0  0  0  0  0  0  0  0  0
  138.8166   75.2388  221.0273 H   0  0  0  0  0  0  0  0  0  0  0  0
  139.2840   70.0241  222.4244 H   0  0  0  0  0  0  0  0  0  0  0  0
  139.0322   68.4322  224.3330 H   0  0  0  0  0  0  0  0  0  0  0  0
  139.3208   67.9397  226.7375 H   0  0  0  0  0  0  0  0  0  0  0  0
  141.2347   70.8673  229.2864 H   0  0  0  0  0  0  0  0  0  0  0  0
  141.5181   72.3965  227.3346 H   0  0  0  0  0  0  0  0  0  0  0  0
  142.8907   78.2709  222.0381 H   0  0  0  0  0  0  0  0  0  0  0  0
  144.3728   80.0558  222.9490 H   0  0  0  0  0  0  0  0  0  0  0  0
  143.3930   81.9931  224.1805 H   0  0  0  0  0  0  0  0  0  0  0  0
  140.9228   82.1481  224.5011 H   0  0  0  0  0  0  0  0  0  0  0  0
  139.4288   80.3660  223.5959 H   0  0  0  0  0  0  0  0  0  0  0  0
  1  2  1  0
  2  3  1  0
  3  4  1  0
  4  5  1  0
  4  6  2  0
  6  7  1  0
  7  8  1  0
  8  9  2  0
  8 10  1  0
 10 11  2  0
 11 12  1  0
 12 13  2  0
 13 14  1  0
 14 15  2  0
 15 16  1  0
 15 17  1  0
 17 18  2  0
 18 19  1  0
 19 20  2  0
  2 21  1  0
 21 22  2  0
 22 23  1  0
 23 24  2  0
 24 25  1  0
 25 26  2  0
 20 10  1  0
 26 21  1  0
 19 13  1  0
  1 27  1  0
  1 28  1  0
  1 29  1  0
  2 30  1  6
  5 31  1  0
  6 32  1  0
 11 33  1  0
 12 34  1  0
 14 35  1  0
 17 36  1  0
 18 37  1  0
 22 38  1  0
 23 39  1  0
 24 40  1  0
 25 41  1  0
 26 42  1  0
M  CHG  2   3  -1   7  -1
M  END
>  <meeko>  (18) 
{"free_energy": -6.98, "intermolecular_energy": -9.37, "internal_energy": -1.29, "cluster_size": 12, "cluster_id": 1, "rank_in_cluster": 9}

$$$$

     RDKit          3D

 42 44  0  0  0  0  0  0  0  0999 V2000
  139.2100   69.5380  223.4010 C   0  0  0  0  0  0  0  0  0  0  0  0
  139.3650   70.9530  223.9580 C   0  0  2  0  0  0  0  0  0  0  0  0
  140.2390   71.7420  223.0950 N   0  0  0  0  0  0  0  0  0  0  0  0
  139.8310   72.9500  222.4480 C   0  0  0  0  0  0  0  0  0  0  0  0
  140.7370   74.0080  222.3420 O   0  0  0  0  0  0  0  0  0  0  0  0
  138.5940   73.0780  221.9470 C   0  0  0  0  0  0  0  0  0  0  0  0
  138.1150   74.2650  221.2920 N   0  0  0  0  0  0  0  0  0  0  0  0
  137.3750   75.3640  221.8480 C   0  0  0  0  0  0  0  0  0  0  0  0
  136.1300   75.2340  221.9850 O   0  0  0  0  0  0  0  0  0  0  0  0
  138.0300   76.6070  222.3190 C   0  0  0  0  0  0  0  0  0  0  0  0
  137.2610   77.7160  222.7110 C   0  0  0  0  0  0  0  0  0  0  0  0
  137.8950   78.8960  223.1060 C   0  0  0  0  0  0  0  0  0  0  0  0
  139.2920   78.9680  223.1070 C   0  0  0  0  0  0  0  0  0  0  0  0
  139.9610   80.1480  223.4630 C   0  0  0  0  0  0  0  0  0  0  0  0
  141.3600   80.1920  223.4420 C   0  0  0  0  0  0  0  0  0  0  0  0
  142.0060   81.3340  223.7830 F   0  0  0  0  0  0  0  0  0  0  0  0
  142.0920   79.0600  223.0680 C   0  0  0  0  0  0  0  0  0  0  0  0
  141.4320   77.8810  222.7110 C   0  0  0  0  0  0  0  0  0  0  0  0
  140.0350   77.8300  222.7270 C   0  0  0  0  0  0  0  0  0  0  0  0
  139.3890   76.6910  222.3570 N   0  0  0  0  0  0  0  0  0  0  0  0
  139.9370   70.9240  225.3560 C   0  0  0  0  0  0  0  0  0  0  0  0
  140.8660   71.8990  225.7630 C   0  0  0  0  0  0  0  0  0  0  0  0
  141.4090   71.8630  227.0500 C   0  0  0  0  0  0  0  0  0  0  0  0
  141.0300   70.8600  227.9450 C   0  0  0  0  0  0  0  0  0  0  0  0
  140.1050   69.8890  227.5540 C   0  0  0  0  0  0  0  0  0  0  0  0
  139.5590   69.9190  226.2670 C   0  0  0  0  0  0  0  0  0  0  0  0
  139.1317   68.8229  224.2332 H   0  0  0  0  0  0  0  0  0  0  0  0
  138.3006   69.4842  222.7845 H   0  0  0  0  0  0  0  0  0  0  0  0
  140.0862   69.2886  222.7845 H   0  0  0  0  0  0  0  0  0  0  0  0
  138.3668   71.4139  223.9924 H   0  0  0  0  0  0  0  0  0  0  0  0
  140.4770   74.9000  221.9350 H   0  0  0  0  0  0  0  0  0  0  0  0
  137.9056   72.2254  222.0426 H   0  0  0  0  0  0  0  0  0  0  0  0
  136.1627   77.6548  222.7067 H   0  0  0  0  0  0  0  0  0  0  0  0
  137.2976   79.7663  223.4154 H   0  0  0  0  0  0  0  0  0  0  0  0
  139.3868   81.0384  223.7586 H   0  0  0  0  0  0  0  0  0  0  0  0
  143.1913   79.0981  223.0549 H   0  0  0  0  0  0  0  0  0  0  0  0
  142.0116   76.9933  222.4175 H   0  0  0  0  0  0  0  0  0  0  0  0
  141.1665   72.6938  225.0644 H   0  0  0  0  0  0  0  0  0  0  0  0
  142.1373   72.6271  227.3593 H   0  0  0  0  0  0  0  0  0  0  0  0
  141.4597   70.8347  228.9573 H   0  0  0  0  0  0  0  0  0  0  0  0
  139.8057   69.0998  228.2594 H   0  0  0  0  0  0  0  0  0  0  0  0
  138.8299   69.1529  225.9644 H   0  0  0  0  0  0  0  0  0  0  0  0
  1  2  1  0
  2  3  1  0
  3  4  1  0
  4  5  1  0
  4  6  2  0
  6  7  1  0
  7  8  1  0
  8  9  2  0
  8 10  1  0
 10 11  2  0
 11 12  1  0
 12 13  2  0
 13 14  1  0
 14 15  2  0
 15 16  1  0
 15 17  1  0
 17 18  2  0
 18 19  1  0
 19 20  2  0
  2 21  1  0
 21 22  2  0
 22 23  1  0
 23 24  2  0
 24 25  1  0
 25 26  2  0
 20 10  1  0
 26 21  1  0
 19 13  1  0
  1 27  1  0
  1 28  1  0
  1 29  1  0
  2 30  1  1
  5 31  1  0
  6 32  1  0
 11 33  1  0
 12 34  1  0
 14 35  1  0
 17 36  1  0
 18 37  1  0
 22 38  1  0
 23 39  1  0
 24 40  1  0
 25 41  1  0
 26 42  1  0
M  CHG  2   3  -1   7  -1
M  END
>  <meeko>  (19) 
{"free_energy": -6.23, "intermolecular_energy": -8.61, "internal_energy": -1.81, "cluster_size": 5, "cluster_id": 2, "rank_in_cluster": 5}

$$$$

     RDKit          3D

 42 44  0  0  0  0  0  0  0  0999 V2000
  142.5690   76.2190  219.2890 C   0  0  0  0  0  0  0  0  0  0  0  0
  142.2720   74.8400  219.8770 C   0  0  2  0  0  0  0  0  0  0  0  0
  141.5560   74.9750  221.1430 N   0  0  0  0  0  0  0  0  0  0  0  0
  140.6500   73.9920  221.6480 C   0  0  0  0  0  0  0  0  0  0  0  0
  139.5370   74.4030  222.3850 O   0  0  0  0  0  0  0  0  0  0  0  0
  140.8550   72.6860  221.4230 C   0  0  0  0  0  0  0  0  0  0  0  0
  139.8590   71.6700  221.6330 N   0  0  0  0  0  0  0  0  0  0  0  0
  138.9760   71.4940  222.7520 C   0  0  0  0  0  0  0  0  0  0  0  0
  137.8730   72.1010  222.7400 O   0  0  0  0  0  0  0  0  0  0  0  0
  139.2880   70.5810  223.8770 C   0  0  0  0  0  0  0  0  0  0  0  0
  138.8810   69.2370  223.8420 C   0  0  0  0  0  0  0  0  0  0  0  0
  139.1400   68.4040  224.9330 C   0  0  0  0  0  0  0  0  0  0  0  0
  139.8020   68.9140  226.0550 C   0  0  0  0  0  0  0  0  0  0  0  0
  140.0480   68.1160  227.1820 C   0  0  0  0  0  0  0  0  0  0  0  0
  140.7010   68.6590  228.2940 C   0  0  0  0  0  0  0  0  0  0  0  0
  140.9350   67.8880  229.3850 F   0  0  0  0  0  0  0  0  0  0  0  0
  141.1120   69.9970  228.2830 C   0  0  0  0  0  0  0  0  0  0  0  0
  140.8700   70.7980  227.1640 C   0  0  0  0  0  0  0  0  0  0  0  0
  140.2150   70.2640  226.0490 C   0  0  0  0  0  0  0  0  0  0  0  0
  139.9570   71.0470  224.9690 N   0  0  0  0  0  0  0  0  0  0  0  0
  143.5470   74.0620  220.1050 C   0  0  0  0  0  0  0  0  0  0  0  0
  144.7240   74.7280  220.4930 C   0  0  0  0  0  0  0  0  0  0  0  0
  145.9090   74.0120  220.6880 C   0  0  0  0  0  0  0  0  0  0  0  0
  145.9320   72.6280  220.5000 C   0  0  0  0  0  0  0  0  0  0  0  0
  144.7680   71.9560  220.1190 C   0  0  0  0  0  0  0  0  0  0  0  0
  143.5800   72.6670  219.9220 C   0  0  0  0  0  0  0  0  0  0  0  0
  142.7243   76.9399  220.1052 H   0  0  0  0  0  0  0  0  0  0  0  0
  143.4763   76.1657  218.6693 H   0  0  0  0  0  0  0  0  0  0  0  0
  141.7202   76.5439  218.6693 H   0  0  0  0  0  0  0  0  0  0  0  0
  141.6473   74.2930  219.1555 H   0  0  0  0  0  0  0  0  0  0  0  0
  138.8620   73.7420  222.7550 H   0  0  0  0  0  0  0  0  0  0  0  0
  141.8437   72.3732  221.0560 H   0  0  0  0  0  0  0  0  0  0  0  0
  138.3597   68.8415  222.9578 H   0  0  0  0  0  0  0  0  0  0  0  0
  138.8245   67.3505  224.9100 H   0  0  0  0  0  0  0  0  0  0  0  0
  139.7277   67.0637  227.1916 H   0  0  0  0  0  0  0  0  0  0  0  0
  141.6273   70.4193  229.1583 H   0  0  0  0  0  0  0  0  0  0  0  0
  141.1946   71.8490  227.1597 H   0  0  0  0  0  0  0  0  0  0  0  0
  144.7119   75.8176  220.6437 H   0  0  0  0  0  0  0  0  0  0  0  0
  146.8255   74.5399  220.9902 H   0  0  0  0  0  0  0  0  0  0  0  0
  146.8662   72.0675  220.6519 H   0  0  0  0  0  0  0  0  0  0  0  0
  144.7860   70.8658  219.9737 H   0  0  0  0  0  0  0  0  0  0  0  0
  142.6662   72.1329  219.6223 H   0  0  0  0  0  0  0  0  0  0  0  0
  1  2  1  0
  2  3  1  0
  3  4  1  0
  4  5  1  0
  4  6  2  0
  6  7  1  0
  7  8  1  0
  8  9  2  0
  8 10  1  0
 10 11  2  0
 11 12  1  0
 12 13  2  0
 13 14  1  0
 14 15  2  0
 15 16  1  0
 15 17  1  0
 17 18  2  0
 18 19  1  0
 19 20  2  0
  2 21  1  0
 21 22  2  0
 22 23  1  0
 23 24  2  0
 24 25  1  0
 25 26  2  0
 20 10  1  0
 26 21  1  0
 19 13  1  0
  1 27  1  0
  1 28  1  0
  1 29  1  0
  2 30  1  6
  5 31  1  0
  6 32  1  0
 11 33  1  0
 12 34  1  0
 14 35  1  0
 17 36  1  0
 18 37  1  0
 22 38  1  0
 23 39  1  0
 24 40  1  0
 25 41  1  0
 26 42  1  0
M  CHG  2   3  -1   7  -1
M  END
>  <meeko>  (20) 
{"free_energy": -7.07, "intermolecular_energy": -9.45, "internal_energy": -1.64, "cluster_size": 2, "cluster_id": 3, "rank_in_cluster": 1}

$$$$
