
     RDKit          3D

 51 54  0  0  0  0  0  0  0  0999 V2000
  140.2830   72.5020  220.6420 O   0  0  0  0  0  0  0  0  0  0  0  0
  140.1400   72.9090  221.8250 C   0  0  0  0  0  0  0  0  0  0  0  0
  139.9940   74.3160  222.0560 N   0  0  0  0  0  0  0  0  0  0  0  0
  138.7220   75.0300  222.0760 C   0  0  0  0  0  0  0  0  0  0  0  0
  138.6280   75.9300  220.8810 C   0  0  0  0  0  0  0  0  0  0  0  0
  137.6640   75.7950  220.0800 O   0  0  0  0  0  0  0  0  0  0  0  0
  139.5960   76.9730  220.6680 N   0  0  0  0  0  0  0  0  0  0  0  0
  139.4080   77.9980  219.6550 C   0  0  0  0  0  0  0  0  0  0  0  0
  140.8060   78.4000  219.2150 C   0  0  0  0  0  0  0  0  0  0  0  0
  141.7390   77.9760  220.3500 C   0  0  2  0  0  0  0  0  0  0  0  0
  142.9390   77.4500  219.8450 O   0  0  0  0  0  0  0  0  0  0  0  0
  140.9750   76.9020  221.1470 C   0  0  1  0  0  0  0  0  0  0  0  0
  141.0570   77.1890  222.6640 C   0  0  0  0  0  0  0  0  0  0  0  0
  141.2980   78.6450  222.9680 C   0  0  0  0  0  0  0  0  0  0  0  0
  140.2160   79.5220  223.1540 C   0  0  0  0  0  0  0  0  0  0  0  0
  140.4430   80.8650  223.4720 C   0  0  0  0  0  0  0  0  0  0  0  0
  141.7500   81.3410  223.6030 C   0  0  0  0  0  0  0  0  0  0  0  0
  142.8320   80.4760  223.4170 C   0  0  0  0  0  0  0  0  0  0  0  0
  142.6100   79.1330  223.1000 C   0  0  0  0  0  0  0  0  0  0  0  0
  140.0840   71.9210  222.9140 C   0  0  0  0  0  0  0  0  0  0  0  0
  139.4580   70.6790  222.7370 C   0  0  0  0  0  0  0  0  0  0  0  0
  139.4040   69.7740  223.8000 C   0  0  0  0  0  0  0  0  0  0  0  0
  139.9590   70.1190  225.0370 C   0  0  0  0  0  0  0  0  0  0  0  0
  139.9200   69.2350  226.1260 C   0  0  0  0  0  0  0  0  0  0  0  0
  140.4770   69.6130  227.3540 C   0  0  0  0  0  0  0  0  0  0  0  0
  140.4310   68.5070  228.7140 Cl  0  0  0  0  0  0  0  0  0  0  0  0
  141.0740   70.8720  227.4960 C   0  0  0  0  0  0  0  0  0  0  0  0
  141.1150   71.7580  226.4160 C   0  0  0  0  0  0  0  0  0  0  0  0
  140.5600   71.3880  225.1850 C   0  0  0  0  0  0  0  0  0  0  0  0
  140.5990   72.2480  224.1320 N   0  0  0  0  0  0  0  0  0  0  0  0
  137.8953   74.3047  222.0532 H   0  0  0  0  0  0  0  0  0  0  0  0
  138.6584   75.6345  222.9928 H   0  0  0  0  0  0  0  0  0  0  0  0
  138.8383   77.5967  218.8039 H   0  0  0  0  0  0  0  0  0  0  0  0
  138.8418   78.8565  220.0453 H   0  0  0  0  0  0  0  0  0  0  0  0
  141.0775   77.8830  218.2828 H   0  0  0  0  0  0  0  0  0  0  0  0
  140.8732   79.4802  219.0183 H   0  0  0  0  0  0  0  0  0  0  0  0
  142.0108   78.8347  220.9815 H   0  0  0  0  0  0  0  0  0  0  0  0
  143.6060   77.5140  220.5780 H   0  0  0  0  0  0  0  0  0  0  0  0
  141.4001   75.8981  221.0004 H   0  0  0  0  0  0  0  0  0  0  0  0
  140.1092   76.8840  223.1316 H   0  0  0  0  0  0  0  0  0  0  0  0
  141.9094   76.6204  223.0642 H   0  0  0  0  0  0  0  0  0  0  0  0
  139.1859   79.1507  223.0491 H   0  0  0  0  0  0  0  0  0  0  0  0
  139.5922   81.5466  223.6190 H   0  0  0  0  0  0  0  0  0  0  0  0
  141.9276   82.3975  223.8527 H   0  0  0  0  0  0  0  0  0  0  0  0
  143.8602   80.8529  223.5203 H   0  0  0  0  0  0  0  0  0  0  0  0
  143.4643   78.4558  222.9533 H   0  0  0  0  0  0  0  0  0  0  0  0
  139.0116   70.4184  221.7660 H   0  0  0  0  0  0  0  0  0  0  0  0
  138.9262   68.7925  223.6646 H   0  0  0  0  0  0  0  0  0  0  0  0
  139.4522   68.2456  226.0152 H   0  0  0  0  0  0  0  0  0  0  0  0
  141.5124   71.1646  228.4615 H   0  0  0  0  0  0  0  0  0  0  0  0
  141.5835   72.7464  226.5331 H   0  0  0  0  0  0  0  0  0  0  0  0
  1  2  2  0
  2  3  1  0
  3  4  1  0
  4  5  1  0
  5  6  2  0
  5  7  1  0
  7  8  1  0
  8  9  1  0
  9 10  1  0
 10 11  1  0
 10 12  1  0
 12 13  1  0
 13 14  1  0
 14 15  2  0
 15 16  1  0
 16 17  2  0
 17 18  1  0
 18 19  2  0
  2 20  1  0
 20 21  2  0
 21 22  1  0
 22 23  2  0
 23 24  1  0
 24 25  2  0
 25 26  1  0
 25 27  1  0
 27 28  2  0
 28 29  1  0
 29 30  2  0
 12  7  1  0
 19 14  1  0
 30 20  1  0
 29 23  1  0
  4 31  1  0
  4 32  1  0
  8 33  1  0
  8 34  1  0
  9 35  1  0
  9 36  1  0
 10 37  1  1
 11 38  1  0
 12 39  1  1
 13 40  1  0
 13 41  1  0
 15 42  1  0
 16 43  1  0
 17 44  1  0
 18 45  1  0
 19 46  1  0
 21 47  1  0
 22 48  1  0
 24 49  1  0
 27 50  1  0
 28 51  1  0
M  CHG  1   3  -1
M  END
>  <meeko>  (1) 
{"free_energy": -8.52, "intermolecular_energy": -10.9, "internal_energy": -1.34, "cluster_size": 8, "cluster_id": 2, "rank_in_cluster": 5}

$$$$

     RDKit          3D

 51 54  0  0  0  0  0  0  0  0999 V2000
  137.1280   73.7520  222.5870 O   0  0  0  0  0  0  0  0  0  0  0  0
  138.0550   74.2960  221.9310 C   0  0  0  0  0  0  0  0  0  0  0  0
  138.6710   73.5590  220.8680 N   0  0  0  0  0  0  0  0  0  0  0  0
  140.0870   73.2110  220.8060 C   0  0  0  0  0  0  0  0  0  0  0  0
  140.3110   71.8850  221.4680 C   0  0  0  0  0  0  0  0  0  0  0  0
  141.4780   71.4110  221.5200 O   0  0  0  0  0  0  0  0  0  0  0  0
  139.2210   71.1760  222.0840 N   0  0  0  0  0  0  0  0  0  0  0  0
  138.0800   70.7060  221.3150 C   0  0  0  0  0  0  0  0  0  0  0  0
  136.9060   70.7160  222.2790 C   0  0  0  0  0  0  0  0  0  0  0  0
  137.5160   70.6880  223.6820 C   0  0  2  0  0  0  0  0  0  0  0  0
  136.8050   71.5230  224.5580 O   0  0  0  0  0  0  0  0  0  0  0  0
  138.9660   71.1840  223.5220 C   0  0  1  0  0  0  0  0  0  0  0  0
  139.9450   70.2530  224.2720 C   0  0  0  0  0  0  0  0  0  0  0  0
  140.2320   70.7200  225.6760 C   0  0  0  0  0  0  0  0  0  0  0  0
  139.7380   70.0020  226.7800 C   0  0  0  0  0  0  0  0  0  0  0  0
  140.0360   70.4170  228.0810 C   0  0  0  0  0  0  0  0  0  0  0  0
  140.8240   71.5520  228.2910 C   0  0  0  0  0  0  0  0  0  0  0  0
  141.3160   72.2730  227.1990 C   0  0  0  0  0  0  0  0  0  0  0  0
  141.0220   71.8610  225.8960 C   0  0  0  0  0  0  0  0  0  0  0  0
  138.4350   75.6810  222.2530 C   0  0  0  0  0  0  0  0  0  0  0  0
  137.4900   76.6010  222.7310 C   0  0  0  0  0  0  0  0  0  0  0  0
  137.8820   77.9140  223.0060 C   0  0  0  0  0  0  0  0  0  0  0  0
  139.2060   78.3060  222.7860 C   0  0  0  0  0  0  0  0  0  0  0  0
  139.6320   79.6170  223.0480 C   0  0  0  0  0  0  0  0  0  0  0  0
  140.9630   79.9810  222.8100 C   0  0  0  0  0  0  0  0  0  0  0  0
  141.4950   81.6190  223.1400 Cl  0  0  0  0  0  0  0  0  0  0  0  0
  141.8700   79.0380  222.3100 C   0  0  0  0  0  0  0  0  0  0  0  0
  141.4520   77.7310  222.0450 C   0  0  0  0  0  0  0  0  0  0  0  0
  140.1230   77.3590  222.2800 C   0  0  0  0  0  0  0  0  0  0  0  0
  139.7150   76.0880  222.0240 N   0  0  0  0  0  0  0  0  0  0  0  0
  140.4034   73.1526  219.7541 H   0  0  0  0  0  0  0  0  0  0  0  0
  140.6746   73.9817  221.3263 H   0  0  0  0  0  0  0  0  0  0  0  0
  137.8857   71.3782  220.4663 H   0  0  0  0  0  0  0  0  0  0  0  0
  138.2555   69.7036  220.8975 H   0  0  0  0  0  0  0  0  0  0  0  0
  136.3052   71.6270  222.1410 H   0  0  0  0  0  0  0  0  0  0  0  0
  136.2382   69.8581  222.1115 H   0  0  0  0  0  0  0  0  0  0  0  0
  137.4772   69.6760  224.1113 H   0  0  0  0  0  0  0  0  0  0  0  0
  137.0550   72.4550  224.3250 H   0  0  0  0  0  0  0  0  0  0  0  0
  139.1094   72.1876  223.9488 H   0  0  0  0  0  0  0  0  0  0  0  0
  139.5061   69.2454  224.3191 H   0  0  0  0  0  0  0  0  0  0  0  0
  140.8963   70.2571  223.7197 H   0  0  0  0  0  0  0  0  0  0  0  0
  139.1146   69.1102  226.6188 H   0  0  0  0  0  0  0  0  0  0  0  0
  139.6498   69.8496  228.9406 H   0  0  0  0  0  0  0  0  0  0  0  0
  141.0571   71.8780  229.3154 H   0  0  0  0  0  0  0  0  0  0  0  0
  141.9358   73.1664  227.3655 H   0  0  0  0  0  0  0  0  0  0  0  0
  141.4105   72.4320  225.0398 H   0  0  0  0  0  0  0  0  0  0  0  0
  136.4465   76.2908  222.8885 H   0  0  0  0  0  0  0  0  0  0  0  0
  137.1504   78.6376  223.3947 H   0  0  0  0  0  0  0  0  0  0  0  0
  138.9206   80.3586  223.4403 H   0  0  0  0  0  0  0  0  0  0  0  0
  142.9151   79.3272  222.1252 H   0  0  0  0  0  0  0  0  0  0  0  0
  142.1677   76.9941  221.6515 H   0  0  0  0  0  0  0  0  0  0  0  0
  1  2  2  0
  2  3  1  0
  3  4  1  0
  4  5  1  0
  5  6  2  0
  5  7  1  0
  7  8  1  0
  8  9  1  0
  9 10  1  0
 10 11  1  0
 10 12  1  0
 12 13  1  0
 13 14  1  0
 14 15  2  0
 15 16  1  0
 16 17  2  0
 17 18  1  0
 18 19  2  0
  2 20  1  0
 20 21  2  0
 21 22  1  0
 22 23  2  0
 23 24  1  0
 24 25  2  0
 25 26  1  0
 25 27  1  0
 27 28  2  0
 28 29  1  0
 29 30  2  0
 12  7  1  0
 19 14  1  0
 30 20  1  0
 29 23  1  0
  4 31  1  0
  4 32  1  0
  8 33  1  0
  8 34  1  0
  9 35  1  0
  9 36  1  0
 10 37  1  1
 11 38  1  0
 12 39  1  1
 13 40  1  0
 13 41  1  0
 15 42  1  0
 16 43  1  0
 17 44  1  0
 18 45  1  0
 19 46  1  0
 21 47  1  0
 22 48  1  0
 24 49  1  0
 27 50  1  0
 28 51  1  0
M  CHG  1   3  -1
M  END
>  <meeko>  (2) 
{"free_energy": -7.0, "intermolecular_energy": -9.39, "internal_energy": -2.42, "cluster_size": 3, "cluster_id": 5, "rank_in_cluster": 3}

$$$$

     RDKit          3D

 51 54  0  0  0  0  0  0  0  0999 V2000
  140.9880   72.7570  221.0260 O   0  0  0  0  0  0  0  0  0  0  0  0
  139.9050   72.4940  221.6120 C   0  0  0  0  0  0  0  0  0  0  0  0
  138.6930   73.0720  221.1120 N   0  0  0  0  0  0  0  0  0  0  0  0
  138.5150   74.4820  220.7830 C   0  0  0  0  0  0  0  0  0  0  0  0
  139.7370   75.2520  221.1820 C   0  0  0  0  0  0  0  0  0  0  0  0
  139.9480   75.4860  222.4030 O   0  0  0  0  0  0  0  0  0  0  0  0
  140.6910   75.6830  220.1940 N   0  0  0  0  0  0  0  0  0  0  0  0
  140.9390   74.9180  218.9840 C   0  0  0  0  0  0  0  0  0  0  0  0
  142.3860   75.1970  218.6120 C   0  0  0  0  0  0  0  0  0  0  0  0
  142.7520   76.5070  219.3150 C   0  0  2  0  0  0  0  0  0  0  0  0
  144.0590   76.4570  219.8240 O   0  0  0  0  0  0  0  0  0  0  0  0
  141.7340   76.6720  220.4590 C   0  0  1  0  0  0  0  0  0  0  0  0
  141.1580   78.1060  220.4730 C   0  0  0  0  0  0  0  0  0  0  0  0
  141.5630   78.8830  221.6990 C   0  0  0  0  0  0  0  0  0  0  0  0
  141.3920   78.3310  222.9800 C   0  0  0  0  0  0  0  0  0  0  0  0
  141.8020   79.0400  224.1140 C   0  0  0  0  0  0  0  0  0  0  0  0
  142.3810   80.3040  223.9760 C   0  0  0  0  0  0  0  0  0  0  0  0
  142.5520   80.8620  222.7060 C   0  0  0  0  0  0  0  0  0  0  0  0
  142.1440   80.1560  221.5700 C   0  0  0  0  0  0  0  0  0  0  0  0
  139.9230   71.5690  222.7570 C   0  0  0  0  0  0  0  0  0  0  0  0
  139.3560   70.2890  222.6660 C   0  0  0  0  0  0  0  0  0  0  0  0
  139.3710   69.4460  223.7790 C   0  0  0  0  0  0  0  0  0  0  0  0
  139.9360   69.8880  224.9800 C   0  0  0  0  0  0  0  0  0  0  0  0
  139.9650   69.0680  226.1190 C   0  0  0  0  0  0  0  0  0  0  0  0
  140.5300   69.5430  227.3080 C   0  0  0  0  0  0  0  0  0  0  0  0
  140.5680   68.5160  228.7300 Cl  0  0  0  0  0  0  0  0  0  0  0  0
  141.0650   70.8350  227.3650 C   0  0  0  0  0  0  0  0  0  0  0  0
  141.0380   71.6580  226.2350 C   0  0  0  0  0  0  0  0  0  0  0  0
  140.4750   71.1910  225.0420 C   0  0  0  0  0  0  0  0  0  0  0  0
  140.4480   71.9900  223.9410 N   0  0  0  0  0  0  0  0  0  0  0  0
  138.3540   74.5872  219.7000 H   0  0  0  0  0  0  0  0  0  0  0  0
  137.6431   74.8755  221.3261 H   0  0  0  0  0  0  0  0  0  0  0  0
  140.7912   73.8443  219.1717 H   0  0  0  0  0  0  0  0  0  0  0  0
  140.2494   75.2015  218.1753 H   0  0  0  0  0  0  0  0  0  0  0  0
  143.0355   74.3806  218.9608 H   0  0  0  0  0  0  0  0  0  0  0  0
  142.5168   75.2719  217.5224 H   0  0  0  0  0  0  0  0  0  0  0  0
  142.7182   77.3554  218.6157 H   0  0  0  0  0  0  0  0  0  0  0  0
  144.1170   77.1580  220.5240 H   0  0  0  0  0  0  0  0  0  0  0  0
  142.1931   76.5165  221.4465 H   0  0  0  0  0  0  0  0  0  0  0  0
  141.5208   78.6398  219.5822 H   0  0  0  0  0  0  0  0  0  0  0  0
  140.0611   78.0236  220.4790 H   0  0  0  0  0  0  0  0  0  0  0  0
  140.9338   77.3372  223.0914 H   0  0  0  0  0  0  0  0  0  0  0  0
  141.6686   78.6024  225.1143 H   0  0  0  0  0  0  0  0  0  0  0  0
  142.7028   80.8609  224.8683 H   0  0  0  0  0  0  0  0  0  0  0  0
  143.0080   81.8574  222.6000 H   0  0  0  0  0  0  0  0  0  0  0  0
  142.2783   80.5986  220.5720 H   0  0  0  0  0  0  0  0  0  0  0  0
  138.9020   69.9512  221.7227 H   0  0  0  0  0  0  0  0  0  0  0  0
  138.9394   68.4364  223.7116 H   0  0  0  0  0  0  0  0  0  0  0  0
  139.5439   68.0527  226.0770 H   0  0  0  0  0  0  0  0  0  0  0  0
  141.5081   71.2041  228.3017 H   0  0  0  0  0  0  0  0  0  0  0  0
  141.4594   72.6729  226.2838 H   0  0  0  0  0  0  0  0  0  0  0  0
  1  2  2  0
  2  3  1  0
  3  4  1  0
  4  5  1  0
  5  6  2  0
  5  7  1  0
  7  8  1  0
  8  9  1  0
  9 10  1  0
 10 11  1  0
 10 12  1  0
 12 13  1  0
 13 14  1  0
 14 15  2  0
 15 16  1  0
 16 17  2  0
 17 18  1  0
 18 19  2  0
  2 20  1  0
 20 21  2  0
 21 22  1  0
 22 23  2  0
 23 24  1  0
 24 25  2  0
 25 26  1  0
 25 27  1  0
 27 28  2  0
 28 29  1  0
 29 30  2  0
 12  7  1  0
 19 14  1  0
 30 20  1  0
 29 23  1  0
  4 31  1  0
  4 32  1  0
  8 33  1  0
  8 34  1  0
  9 35  1  0
  9 36  1  0
 10 37  1  6
 11 38  1  0
 12 39  1  1
 13 40  1  0
 13 41  1  0
 15 42  1  0
 16 43  1  0
 17 44  1  0
 18 45  1  0
 19 46  1  0
 21 47  1  0
 22 48  1  0
 24 49  1  0
 27 50  1  0
 28 51  1  0
M  CHG  1   3  -1
M  END
>  <meeko>  (3) 
{"free_energy": -8.57, "intermolecular_energy": -10.96, "internal_energy": -1.39, "cluster_size": 8, "cluster_id": 2, "rank_in_cluster": 3}

$$$$

     RDKit          3D

 51 54  0  0  0  0  0  0  0  0999 V2000
  139.4550   73.0440  222.7250 O   0  0  0  0  0  0  0  0  0  0  0  0
  140.4020   73.2080  221.9110 C   0  0  0  0  0  0  0  0  0  0  0  0
  141.0390   72.0520  221.3530 N   0  0  0  0  0  0  0  0  0  0  0  0
  140.4430   71.1730  220.3520 C   0  0  0  0  0  0  0  0  0  0  0  0
  139.9920   69.9000  221.0010 C   0  0  0  0  0  0  0  0  0  0  0  0
  140.6590   68.8450  220.8210 O   0  0  0  0  0  0  0  0  0  0  0  0
  138.8390   69.8810  221.8620 N   0  0  0  0  0  0  0  0  0  0  0  0
  137.4960   69.6910  221.3400 C   0  0  0  0  0  0  0  0  0  0  0  0
  136.5770   70.4350  222.2940 C   0  0  0  0  0  0  0  0  0  0  0  0
  137.3610   70.5790  223.6010 C   0  0  2  0  0  0  0  0  0  0  0  0
  137.1460   71.8390  224.1810 O   0  0  0  0  0  0  0  0  0  0  0  0
  138.8440   70.4040  223.2260 C   0  0  1  0  0  0  0  0  0  0  0  0
  139.5400   69.4260  224.2000 C   0  0  0  0  0  0  0  0  0  0  0  0
  139.9880   70.0950  225.4740 C   0  0  0  0  0  0  0  0  0  0  0  0
  140.7430   71.2800  225.4280 C   0  0  0  0  0  0  0  0  0  0  0  0
  141.1260   71.9180  226.6120 C   0  0  0  0  0  0  0  0  0  0  0  0
  140.7630   71.3760  227.8480 C   0  0  0  0  0  0  0  0  0  0  0  0
  140.0150   70.1960  227.9020 C   0  0  0  0  0  0  0  0  0  0  0  0
  139.6290   69.5560  226.7210 C   0  0  0  0  0  0  0  0  0  0  0  0
  140.7840   74.5780  221.5330 C   0  0  0  0  0  0  0  0  0  0  0  0
  141.6690   74.8190  220.4720 C   0  0  0  0  0  0  0  0  0  0  0  0
  142.0280   76.1310  220.1550 C   0  0  0  0  0  0  0  0  0  0  0  0
  141.5160   77.1940  220.9070 C   0  0  0  0  0  0  0  0  0  0  0  0
  141.8580   78.5240  220.6180 C   0  0  0  0  0  0  0  0  0  0  0  0
  141.3360   79.5650  221.3950 C   0  0  0  0  0  0  0  0  0  0  0  0
  141.7610   81.2270  221.0310 Cl  0  0  0  0  0  0  0  0  0  0  0  0
  140.4730   79.2810  222.4600 C   0  0  0  0  0  0  0  0  0  0  0  0
  140.1290   77.9590  222.7550 C   0  0  0  0  0  0  0  0  0  0  0  0
  140.6470   76.9120  221.9840 C   0  0  0  0  0  0  0  0  0  0  0  0
  140.3140   75.6250  222.2680 N   0  0  0  0  0  0  0  0  0  0  0  0
  139.5788   71.6752  219.8927 H   0  0  0  0  0  0  0  0  0  0  0  0
  141.1906   70.9423  219.5788 H   0  0  0  0  0  0  0  0  0  0  0  0
  137.4158   70.1088  220.3256 H   0  0  0  0  0  0  0  0  0  0  0  0
  137.2336   68.6250  221.2708 H   0  0  0  0  0  0  0  0  0  0  0  0
  136.3240   71.4255  221.8879 H   0  0  0  0  0  0  0  0  0  0  0  0
  135.6303   69.8962  222.4470 H   0  0  0  0  0  0  0  0  0  0  0  0
  137.0385   69.8322  224.3415 H   0  0  0  0  0  0  0  0  0  0  0  0
  137.8190   72.4520  223.7830 H   0  0  0  0  0  0  0  0  0  0  0  0
  139.4011   71.3503  223.2908 H   0  0  0  0  0  0  0  0  0  0  0  0
  138.8348   68.6210  224.4543 H   0  0  0  0  0  0  0  0  0  0  0  0
  140.4368   69.0366  223.6958 H   0  0  0  0  0  0  0  0  0  0  0  0
  141.0336   71.7070  224.4568 H   0  0  0  0  0  0  0  0  0  0  0  0
  141.7134   72.8471  226.5705 H   0  0  0  0  0  0  0  0  0  0  0  0
  141.0659   71.8780  228.7787 H   0  0  0  0  0  0  0  0  0  0  0  0
  139.7299   69.7707  228.8755 H   0  0  0  0  0  0  0  0  0  0  0  0
  139.0420   68.6269  226.7679 H   0  0  0  0  0  0  0  0  0  0  0  0
  142.0785   73.9786  219.8922 H   0  0  0  0  0  0  0  0  0  0  0  0
  142.7117   76.3281  219.3161 H   0  0  0  0  0  0  0  0  0  0  0  0
  142.5359   78.7485  219.7813 H   0  0  0  0  0  0  0  0  0  0  0  0
  140.0639   80.1019  223.0673 H   0  0  0  0  0  0  0  0  0  0  0  0
  139.4510   77.7412  223.5934 H   0  0  0  0  0  0  0  0  0  0  0  0
  1  2  2  0
  2  3  1  0
  3  4  1  0
  4  5  1  0
  5  6  2  0
  5  7  1  0
  7  8  1  0
  8  9  1  0
  9 10  1  0
 10 11  1  0
 10 12  1  0
 12 13  1  0
 13 14  1  0
 14 15  2  0
 15 16  1  0
 16 17  2  0
 17 18  1  0
 18 19  2  0
  2 20  1  0
 20 21  2  0
 21 22  1  0
 22 23  2  0
 23 24  1  0
 24 25  2  0
 25 26  1  0
 25 27  1  0
 27 28  2  0
 28 29  1  0
 29 30  2  0
 12  7  1  0
 19 14  1  0
 30 20  1  0
 29 23  1  0
  4 31  1  0
  4 32  1  0
  8 33  1  0
  8 34  1  0
  9 35  1  0
  9 36  1  0
 10 37  1  1
 11 38  1  0
 12 39  1  6
 13 40  1  0
 13 41  1  0
 15 42  1  0
 16 43  1  0
 17 44  1  0
 18 45  1  0
 19 46  1  0
 21 47  1  0
 22 48  1  0
 24 49  1  0
 27 50  1  0
 28 51  1  0
M  CHG  1   3  -1
M  END
>  <meeko>  (4) 
{"free_energy": -7.16, "intermolecular_energy": -9.55, "internal_energy": -2.39, "cluster_size": 3, "cluster_id": 5, "rank_in_cluster": 2}

$$$$

     RDKit          3D

 51 54  0  0  0  0  0  0  0  0999 V2000
  139.7870   72.6090  220.8220 O   0  0  0  0  0  0  0  0  0  0  0  0
  140.0410   72.9570  222.0050 C   0  0  0  0  0  0  0  0  0  0  0  0
  140.2570   74.3460  222.2840 N   0  0  0  0  0  0  0  0  0  0  0  0
  139.4190   75.4350  221.7920 C   0  0  0  0  0  0  0  0  0  0  0  0
  139.4540   75.4630  220.2940 C   0  0  0  0  0  0  0  0  0  0  0  0
  138.4110   75.1720  219.6470 O   0  0  0  0  0  0  0  0  0  0  0  0
  140.6440   75.8640  219.5920 N   0  0  0  0  0  0  0  0  0  0  0  0
  141.1010   75.1700  218.4000 C   0  0  0  0  0  0  0  0  0  0  0  0
  142.6130   75.3230  218.3920 C   0  0  0  0  0  0  0  0  0  0  0  0
  142.9150   76.5310  219.2820 C   0  0  2  0  0  0  0  0  0  0  0  0
  144.0590   76.3050  220.0640 O   0  0  0  0  0  0  0  0  0  0  0  0
  141.6770   76.7150  220.1790 C   0  0  1  0  0  0  0  0  0  0  0  0
  141.2370   78.1970  220.2030 C   0  0  0  0  0  0  0  0  0  0  0  0
  141.6170   78.8950  221.4830 C   0  0  0  0  0  0  0  0  0  0  0  0
  142.1670   80.1890  221.4520 C   0  0  0  0  0  0  0  0  0  0  0  0
  142.4840   80.8490  222.6430 C   0  0  0  0  0  0  0  0  0  0  0  0
  142.2590   80.2220  223.8710 C   0  0  0  0  0  0  0  0  0  0  0  0
  141.7150   78.9350  223.9110 C   0  0  0  0  0  0  0  0  0  0  0  0
  141.3950   78.2720  222.7220 C   0  0  0  0  0  0  0  0  0  0  0  0
  140.0620   71.9300  223.0590 C   0  0  0  0  0  0  0  0  0  0  0  0
  139.5370   70.6490  222.8350 C   0  0  0  0  0  0  0  0  0  0  0  0
  139.5540   69.7050  223.8650 C   0  0  0  0  0  0  0  0  0  0  0  0
  140.0770   70.0490  225.1160 C   0  0  0  0  0  0  0  0  0  0  0  0
  140.1060   69.1270  226.1740 C   0  0  0  0  0  0  0  0  0  0  0  0
  140.6290   69.5050  227.4160 C   0  0  0  0  0  0  0  0  0  0  0  0
  140.6680   68.3510  228.7370 Cl  0  0  0  0  0  0  0  0  0  0  0  0
  141.1230   70.8010  227.6060 C   0  0  0  0  0  0  0  0  0  0  0  0
  141.0950   71.7250  226.5580 C   0  0  0  0  0  0  0  0  0  0  0  0
  140.5740   71.3560  225.3120 C   0  0  0  0  0  0  0  0  0  0  0  0
  140.5470   72.2530  224.2910 N   0  0  0  0  0  0  0  0  0  0  0  0
  138.3838   75.2813  222.1306 H   0  0  0  0  0  0  0  0  0  0  0  0
  139.7978   76.3909  222.1829 H   0  0  0  0  0  0  0  0  0  0  0  0
  140.8230   74.1066  218.4445 H   0  0  0  0  0  0  0  0  0  0  0  0
  140.6453   75.5839  217.4884 H   0  0  0  0  0  0  0  0  0  0  0  0
  143.0915   74.4194  218.7975 H   0  0  0  0  0  0  0  0  0  0  0  0
  143.0000   75.4649  217.3722 H   0  0  0  0  0  0  0  0  0  0  0  0
  143.1165   77.4287  218.6790 H   0  0  0  0  0  0  0  0  0  0  0  0
  144.2530   77.1590  220.5330 H   0  0  0  0  0  0  0  0  0  0  0  0
  141.8792   76.4380  221.2242 H   0  0  0  0  0  0  0  0  0  0  0  0
  141.7151   78.7199  219.3616 H   0  0  0  0  0  0  0  0  0  0  0  0
  140.1400   78.2195  220.1250 H   0  0  0  0  0  0  0  0  0  0  0  0
  142.3486   80.6839  220.4865 H   0  0  0  0  0  0  0  0  0  0  0  0
  142.9107   81.8624  222.6132 H   0  0  0  0  0  0  0  0  0  0  0  0
  142.5102   80.7416  224.8074 H   0  0  0  0  0  0  0  0  0  0  0  0
  141.5384   78.4431  224.8789 H   0  0  0  0  0  0  0  0  0  0  0  0
  140.9679   77.2589  222.7573 H   0  0  0  0  0  0  0  0  0  0  0  0
  139.1140   70.3887  221.8535 H   0  0  0  0  0  0  0  0  0  0  0  0
  139.1571   68.6937  223.6926 H   0  0  0  0  0  0  0  0  0  0  0  0
  139.7180   68.1082  226.0271 H   0  0  0  0  0  0  0  0  0  0  0  0
  141.5346   71.0930  228.5834 H   0  0  0  0  0  0  0  0  0  0  0  0
  141.4825   72.7429  226.7121 H   0  0  0  0  0  0  0  0  0  0  0  0
  1  2  2  0
  2  3  1  0
  3  4  1  0
  4  5  1  0
  5  6  2  0
  5  7  1  0
  7  8  1  0
  8  9  1  0
  9 10  1  0
 10 11  1  0
 10 12  1  0
 12 13  1  0
 13 14  1  0
 14 15  2  0
 15 16  1  0
 16 17  2  0
 17 18  1  0
 18 19  2  0
  2 20  1  0
 20 21  2  0
 21 22  1  0
 22 23  2  0
 23 24  1  0
 24 25  2  0
 25 26  1  0
 25 27  1  0
 27 28  2  0
 28 29  1  0
 29 30  2  0
 12  7  1  0
 19 14  1  0
 30 20  1  0
 29 23  1  0
  4 31  1  0
  4 32  1  0
  8 33  1  0
  8 34  1  0
  9 35  1  0
  9 36  1  0
 10 37  1  6
 11 38  1  0
 12 39  1  1
 13 40  1  0
 13 41  1  0
 15 42  1  0
 16 43  1  0
 17 44  1  0
 18 45  1  0
 19 46  1  0
 21 47  1  0
 22 48  1  0
 24 49  1  0
 27 50  1  0
 28 51  1  0
M  CHG  1   3  -1
M  END
>  <meeko>  (5) 
{"free_energy": -8.6, "intermolecular_energy": -10.99, "internal_energy": -1.4, "cluster_size": 8, "cluster_id": 2, "rank_in_cluster": 2}

$$$$

     RDKit          3D

 51 54  0  0  0  0  0  0  0  0999 V2000
  140.0690   72.4120  220.6240 O   0  0  0  0  0  0  0  0  0  0  0  0
  140.0790   72.8240  221.8140 C   0  0  0  0  0  0  0  0  0  0  0  0
  140.0410   74.2360  222.0550 N   0  0  0  0  0  0  0  0  0  0  0  0
  139.3980   75.2140  221.1830 C   0  0  0  0  0  0  0  0  0  0  0  0
  138.8220   76.3250  222.0080 C   0  0  0  0  0  0  0  0  0  0  0  0
  138.2520   76.0520  223.0990 O   0  0  0  0  0  0  0  0  0  0  0  0
  138.9550   77.6960  221.5920 N   0  0  0  0  0  0  0  0  0  0  0  0
  138.0870   78.7410  222.1080 C   0  0  0  0  0  0  0  0  0  0  0  0
  137.9900   79.7760  221.0000 C   0  0  0  0  0  0  0  0  0  0  0  0
  139.2090   79.5460  220.1050 C   0  0  2  0  0  0  0  0  0  0  0  0
  138.8740   79.6940  218.7500 O   0  0  0  0  0  0  0  0  0  0  0  0
  139.6770   78.1060  220.3890 C   0  0  1  0  0  0  0  0  0  0  0  0
  141.2060   78.0640  220.6100 C   0  0  0  0  0  0  0  0  0  0  0  0
  141.6420   78.8570  221.8150 C   0  0  0  0  0  0  0  0  0  0  0  0
  142.1820   80.1460  221.6610 C   0  0  0  0  0  0  0  0  0  0  0  0
  142.5510   80.8940  222.7840 C   0  0  0  0  0  0  0  0  0  0  0  0
  142.3880   80.3600  224.0650 C   0  0  0  0  0  0  0  0  0  0  0  0
  141.8540   79.0780  224.2260 C   0  0  0  0  0  0  0  0  0  0  0  0
  141.4820   78.3280  223.1070 C   0  0  0  0  0  0  0  0  0  0  0  0
  140.0840   71.8380  222.9070 C   0  0  0  0  0  0  0  0  0  0  0  0
  139.5620   70.5490  222.7240 C   0  0  0  0  0  0  0  0  0  0  0  0
  139.5630   69.6460  223.7900 C   0  0  0  0  0  0  0  0  0  0  0  0
  140.0680   70.0370  225.0340 C   0  0  0  0  0  0  0  0  0  0  0  0
  140.0810   69.1570  226.1270 C   0  0  0  0  0  0  0  0  0  0  0  0
  140.5860   69.5820  227.3620 C   0  0  0  0  0  0  0  0  0  0  0  0
  140.6050   68.4790  228.7260 Cl  0  0  0  0  0  0  0  0  0  0  0  0
  141.0770   70.8850  227.5090 C   0  0  0  0  0  0  0  0  0  0  0  0
  141.0650   71.7680  226.4250 C   0  0  0  0  0  0  0  0  0  0  0  0
  140.5620   71.3510  225.1870 C   0  0  0  0  0  0  0  0  0  0  0  0
  140.5510   72.2080  224.1320 N   0  0  0  0  0  0  0  0  0  0  0  0
  140.1412   75.6251  220.4840 H   0  0  0  0  0  0  0  0  0  0  0  0
  138.5913   74.7237  220.6183 H   0  0  0  0  0  0  0  0  0  0  0  0
  137.0922   78.3335  222.3409 H   0  0  0  0  0  0  0  0  0  0  0  0
  138.4822   79.1761  223.0378 H   0  0  0  0  0  0  0  0  0  0  0  0
  137.0620   79.6366  220.4261 H   0  0  0  0  0  0  0  0  0  0  0  0
  137.9718   80.7993  221.4031 H   0  0  0  0  0  0  0  0  0  0  0  0
  140.0003   80.2801  220.3168 H   0  0  0  0  0  0  0  0  0  0  0  0
  137.9310   80.0030  218.7240 H   0  0  0  0  0  0  0  0  0  0  0  0
  139.4704   77.4299  219.5463 H   0  0  0  0  0  0  0  0  0  0  0  0
  141.5128   77.0167  220.7482 H   0  0  0  0  0  0  0  0  0  0  0  0
  141.6817   78.5144  219.7263 H   0  0  0  0  0  0  0  0  0  0  0  0
  142.3148   80.5678  220.6538 H   0  0  0  0  0  0  0  0  0  0  0  0
  142.9698   81.9034  222.6586 H   0  0  0  0  0  0  0  0  0  0  0  0
  142.6800   80.9486  224.9472 H   0  0  0  0  0  0  0  0  0  0  0  0
  141.7265   78.6590  225.2350 H   0  0  0  0  0  0  0  0  0  0  0  0
  141.0623   77.3197  223.2381 H   0  0  0  0  0  0  0  0  0  0  0  0
  139.1542   70.2509  221.7468 H   0  0  0  0  0  0  0  0  0  0  0  0
  139.1672   68.6291  223.6510 H   0  0  0  0  0  0  0  0  0  0  0  0
  139.6945   68.1334  226.0136 H   0  0  0  0  0  0  0  0  0  0  0  0
  141.4735   71.2151  228.4805 H   0  0  0  0  0  0  0  0  0  0  0  0
  141.4511   72.7910  226.5451 H   0  0  0  0  0  0  0  0  0  0  0  0
  1  2  2  0
  2  3  1  0
  3  4  1  0
  4  5  1  0
  5  6  2  0
  5  7  1  0
  7  8  1  0
  8  9  1  0
  9 10  1  0
 10 11  1  0
 10 12  1  0
 12 13  1  0
 13 14  1  0
 14 15  2  0
 15 16  1  0
 16 17  2  0
 17 18  1  0
 18 19  2  0
  2 20  1  0
 20 21  2  0
 21 22  1  0
 22 23  2  0
 23 24  1  0
 24 25  2  0
 25 26  1  0
 25 27  1  0
 27 28  2  0
 28 29  1  0
 29 30  2  0
 12  7  1  0
 19 14  1  0
 30 20  1  0
 29 23  1  0
  4 31  1  0
  4 32  1  0
  8 33  1  0
  8 34  1  0
  9 35  1  0
  9 36  1  0
 10 37  1  1
 11 38  1  0
 12 39  1  6
 13 40  1  0
 13 41  1  0
 15 42  1  0
 16 43  1  0
 17 44  1  0
 18 45  1  0
 19 46  1  0
 21 47  1  0
 22 48  1  0
 24 49  1  0
 27 50  1  0
 28 51  1  0
M  CHG  1   3  -1
M  END
>  <meeko>  (6) 
{"free_energy": -7.86, "intermolecular_energy": -10.24, "internal_energy": -1.37, "cluster_size": 1, "cluster_id": 4, "rank_in_cluster": 1}

$$$$

     RDKit          3D

 51 54  0  0  0  0  0  0  0  0999 V2000
  140.9320   73.7210  221.9340 O   0  0  0  0  0  0  0  0  0  0  0  0
  139.9090   73.0260  222.1680 C   0  0  0  0  0  0  0  0  0  0  0  0
  138.7200   73.2720  221.4060 N   0  0  0  0  0  0  0  0  0  0  0  0
  137.4520   73.7290  221.9650 C   0  0  0  0  0  0  0  0  0  0  0  0
  137.4500   75.2250  222.0580 C   0  0  0  0  0  0  0  0  0  0  0  0
  136.6170   75.7940  222.8140 O   0  0  0  0  0  0  0  0  0  0  0  0
  138.4150   76.0090  221.3350 N   0  0  0  0  0  0  0  0  0  0  0  0
  138.5070   75.9640  219.8850 C   0  0  0  0  0  0  0  0  0  0  0  0
  139.9630   76.2510  219.5580 C   0  0  0  0  0  0  0  0  0  0  0  0
  140.5340   76.9610  220.7880 C   0  0  2  0  0  0  0  0  0  0  0  0
  141.8400   76.5250  221.0590 O   0  0  0  0  0  0  0  0  0  0  0  0
  139.5950   76.6070  221.9550 C   0  0  1  0  0  0  0  0  0  0  0  0
  139.2250   77.8740  222.7600 C   0  0  0  0  0  0  0  0  0  0  0  0
  140.3390   78.8880  222.7920 C   0  0  0  0  0  0  0  0  0  0  0  0
  140.1830   80.1360  222.1640 C   0  0  0  0  0  0  0  0  0  0  0  0
  141.2050   81.0890  222.2270 C   0  0  0  0  0  0  0  0  0  0  0  0
  142.3880   80.8020  222.9110 C   0  0  0  0  0  0  0  0  0  0  0  0
  142.5520   79.5620  223.5370 C   0  0  0  0  0  0  0  0  0  0  0  0
  141.5330   78.6070  223.4780 C   0  0  0  0  0  0  0  0  0  0  0  0
  139.9890   71.9620  223.1820 C   0  0  0  0  0  0  0  0  0  0  0  0
  139.5300   70.6650  222.9110 C   0  0  0  0  0  0  0  0  0  0  0  0
  139.6010   69.6850  223.9040 C   0  0  0  0  0  0  0  0  0  0  0  0
  140.1130   70.0080  225.1650 C   0  0  0  0  0  0  0  0  0  0  0  0
  140.1960   69.0490  226.1870 C   0  0  0  0  0  0  0  0  0  0  0  0
  140.7060   69.4060  227.4410 C   0  0  0  0  0  0  0  0  0  0  0  0
  140.8120   68.2060  228.7160 Cl  0  0  0  0  0  0  0  0  0  0  0  0
  141.1330   70.7180  227.6780 C   0  0  0  0  0  0  0  0  0  0  0  0
  141.0510   71.6790  226.6660 C   0  0  0  0  0  0  0  0  0  0  0  0
  140.5430   71.3300  225.4090 C   0  0  0  0  0  0  0  0  0  0  0  0
  140.4630   72.2630  224.4230 N   0  0  0  0  0  0  0  0  0  0  0  0
  136.6270   73.4021  221.3150 H   0  0  0  0  0  0  0  0  0  0  0  0
  137.3223   73.3016  222.9703 H   0  0  0  0  0  0  0  0  0  0  0  0
  138.2188   74.9698  219.5128 H   0  0  0  0  0  0  0  0  0  0  0  0
  137.8326   76.6929  219.4119 H   0  0  0  0  0  0  0  0  0  0  0  0
  140.5058   75.3127  219.3708 H   0  0  0  0  0  0  0  0  0  0  0  0
  140.0608   76.8678  218.6525 H   0  0  0  0  0  0  0  0  0  0  0  0
  140.5907   78.0478  220.6281 H   0  0  0  0  0  0  0  0  0  0  0  0
  141.7580   75.7550  221.6800 H   0  0  0  0  0  0  0  0  0  0  0  0
  140.0665   75.9161  222.6693 H   0  0  0  0  0  0  0  0  0  0  0  0
  138.3401   78.3377  222.2995 H   0  0  0  0  0  0  0  0  0  0  0  0
  139.0282   77.5635  223.7967 H   0  0  0  0  0  0  0  0  0  0  0  0
  139.2539   80.3639  221.6211 H   0  0  0  0  0  0  0  0  0  0  0  0
  141.0766   82.0655  221.7372 H   0  0  0  0  0  0  0  0  0  0  0  0
  143.1916   81.5517  222.9576 H   0  0  0  0  0  0  0  0  0  0  0  0
  143.4841   79.3380  224.0765 H   0  0  0  0  0  0  0  0  0  0  0  0
  141.6661   77.6323  223.9701 H   0  0  0  0  0  0  0  0  0  0  0  0
  139.1162   70.4205  221.9216 H   0  0  0  0  0  0  0  0  0  0  0  0
  139.2552   68.6619  223.6948 H   0  0  0  0  0  0  0  0  0  0  0  0
  139.8605   68.0178  226.0026 H   0  0  0  0  0  0  0  0  0  0  0  0
  141.5346   70.9938  228.6642 H   0  0  0  0  0  0  0  0  0  0  0  0
  141.3856   72.7093  226.8574 H   0  0  0  0  0  0  0  0  0  0  0  0
  1  2  2  0
  2  3  1  0
  3  4  1  0
  4  5  1  0
  5  6  2  0
  5  7  1  0
  7  8  1  0
  8  9  1  0
  9 10  1  0
 10 11  1  0
 10 12  1  0
 12 13  1  0
 13 14  1  0
 14 15  2  0
 15 16  1  0
 16 17  2  0
 17 18  1  0
 18 19  2  0
  2 20  1  0
 20 21  2  0
 21 22  1  0
 22 23  2  0
 23 24  1  0
 24 25  2  0
 25 26  1  0
 25 27  1  0
 27 28  2  0
 28 29  1  0
 29 30  2  0
 12  7  1  0
 19 14  1  0
 30 20  1  0
 29 23  1  0
  4 31  1  0
  4 32  1  0
  8 33  1  0
  8 34  1  0
  9 35  1  0
  9 36  1  0
 10 37  1  6
 11 38  1  0
 12 39  1  1
 13 40  1  0
 13 41  1  0
 15 42  1  0
 16 43  1  0
 17 44  1  0
 18 45  1  0
 19 46  1  0
 21 47  1  0
 22 48  1  0
 24 49  1  0
 27 50  1  0
 28 51  1  0
M  CHG  1   3  -1
M  END
>  <meeko>  (7) 
{"free_energy": -7.77, "intermolecular_energy": -10.15, "internal_energy": -2.38, "cluster_size": 8, "cluster_id": 2, "rank_in_cluster": 8}

$$$$

     RDKit          3D

 51 54  0  0  0  0  0  0  0  0999 V2000
  136.3920   71.4710  223.7030 O   0  0  0  0  0  0  0  0  0  0  0  0
  136.1850   72.6000  223.1870 C   0  0  0  0  0  0  0  0  0  0  0  0
  136.6080   72.8290  221.8370 N   0  0  0  0  0  0  0  0  0  0  0  0
  137.7820   73.6050  221.4520 C   0  0  0  0  0  0  0  0  0  0  0  0
  139.0080   73.0120  222.0770 C   0  0  0  0  0  0  0  0  0  0  0  0
  139.9500   73.7730  222.4290 O   0  0  0  0  0  0  0  0  0  0  0  0
  139.0990   71.5970  222.3210 N   0  0  0  0  0  0  0  0  0  0  0  0
  138.7010   70.6200  221.3220 C   0  0  0  0  0  0  0  0  0  0  0  0
  138.2280   69.4050  222.1030 C   0  0  0  0  0  0  0  0  0  0  0  0
  138.8590   69.5310  223.4920 C   0  0  2  0  0  0  0  0  0  0  0  0
  137.9560   69.1360  224.4920 O   0  0  0  0  0  0  0  0  0  0  0  0
  139.2270   71.0180  223.6560 C   0  0  1  0  0  0  0  0  0  0  0  0
  140.6670   71.1650  224.1970 C   0  0  0  0  0  0  0  0  0  0  0  0
  140.7790   70.8130  225.6580 C   0  0  0  0  0  0  0  0  0  0  0  0
  140.8100   69.4680  226.0660 C   0  0  0  0  0  0  0  0  0  0  0  0
  140.9500   69.1450  227.4190 C   0  0  0  0  0  0  0  0  0  0  0  0
  141.0560   70.1600  228.3730 C   0  0  0  0  0  0  0  0  0  0  0  0
  141.0230   71.5000  227.9770 C   0  0  0  0  0  0  0  0  0  0  0  0
  140.8840   71.8280  226.6240 C   0  0  0  0  0  0  0  0  0  0  0  0
  135.4770   73.6220  223.9760 C   0  0  0  0  0  0  0  0  0  0  0  0
  135.7470   74.9880  223.8030 C   0  0  0  0  0  0  0  0  0  0  0  0
  135.0730   75.9300  224.5830 C   0  0  0  0  0  0  0  0  0  0  0  0
  134.1470   75.5050  225.5420 C   0  0  0  0  0  0  0  0  0  0  0  0
  133.4540   76.4240  226.3450 C   0  0  0  0  0  0  0  0  0  0  0  0
  132.5400   75.9670  227.3010 C   0  0  0  0  0  0  0  0  0  0  0  0
  131.6720   77.1160  228.3030 Cl  0  0  0  0  0  0  0  0  0  0  0  0
  132.3150   74.5940  227.4580 C   0  0  0  0  0  0  0  0  0  0  0  0
  133.0020   73.6730  226.6630 C   0  0  0  0  0  0  0  0  0  0  0  0
  133.9190   74.1210  225.7050 C   0  0  0  0  0  0  0  0  0  0  0  0
  134.5890   73.2270  224.9290 N   0  0  0  0  0  0  0  0  0  0  0  0
  137.8866   73.5906  220.3571 H   0  0  0  0  0  0  0  0  0  0  0  0
  137.6623   74.6421  221.7986 H   0  0  0  0  0  0  0  0  0  0  0  0
  137.8857   71.0176  220.6998 H   0  0  0  0  0  0  0  0  0  0  0  0
  139.5307   70.3701  220.6444 H   0  0  0  0  0  0  0  0  0  0  0  0
  137.1307   69.4021  222.1795 H   0  0  0  0  0  0  0  0  0  0  0  0
  138.5206   68.4668  221.6088 H   0  0  0  0  0  0  0  0  0  0  0  0
  139.7412   68.8810  223.5879 H   0  0  0  0  0  0  0  0  0  0  0  0
  137.2320   69.8150  224.5040 H   0  0  0  0  0  0  0  0  0  0  0  0
  138.5741   71.5289  224.3789 H   0  0  0  0  0  0  0  0  0  0  0  0
  141.3281   70.4990  223.6230 H   0  0  0  0  0  0  0  0  0  0  0  0
  140.9569   72.2204  224.0867 H   0  0  0  0  0  0  0  0  0  0  0  0
  140.7237   68.6665  225.3176 H   0  0  0  0  0  0  0  0  0  0  0  0
  140.9767   68.0910  227.7326 H   0  0  0  0  0  0  0  0  0  0  0  0
  141.1656   69.9043  229.4372 H   0  0  0  0  0  0  0  0  0  0  0  0
  141.1064   72.2976  228.7299 H   0  0  0  0  0  0  0  0  0  0  0  0
  140.8568   72.8835  226.3156 H   0  0  0  0  0  0  0  0  0  0  0  0
  136.4859   75.3152  223.0567 H   0  0  0  0  0  0  0  0  0  0  0  0
  135.2695   77.0033  224.4438 H   0  0  0  0  0  0  0  0  0  0  0  0
  133.6292   77.5031  226.2229 H   0  0  0  0  0  0  0  0  0  0  0  0
  131.5948   74.2391  228.2099 H   0  0  0  0  0  0  0  0  0  0  0  0
  132.8221   72.5953  226.7900 H   0  0  0  0  0  0  0  0  0  0  0  0
  1  2  2  0
  2  3  1  0
  3  4  1  0
  4  5  1  0
  5  6  2  0
  5  7  1  0
  7  8  1  0
  8  9  1  0
  9 10  1  0
 10 11  1  0
 10 12  1  0
 12 13  1  0
 13 14  1  0
 14 15  2  0
 15 16  1  0
 16 17  2  0
 17 18  1  0
 18 19  2  0
  2 20  1  0
 20 21  2  0
 21 22  1  0
 22 23  2  0
 23 24  1  0
 24 25  2  0
 25 26  1  0
 25 27  1  0
 27 28  2  0
 28 29  1  0
 29 30  2  0
 12  7  1  0
 19 14  1  0
 30 20  1  0
 29 23  1  0
  4 31  1  0
  4 32  1  0
  8 33  1  0
  8 34  1  0
  9 35  1  0
  9 36  1  0
 10 37  1  6
 11 38  1  0
 12 39  1  1
 13 40  1  0
 13 41  1  0
 15 42  1  0
 16 43  1  0
 17 44  1  0
 18 45  1  0
 19 46  1  0
 21 47  1  0
 22 48  1  0
 24 49  1  0
 27 50  1  0
 28 51  1  0
M  CHG  1   3  -1
M  END
>  <meeko>  (8) 
{"free_energy": -7.21, "intermolecular_energy": -9.6, "internal_energy": -2.37, "cluster_size": 1, "cluster_id": 7, "rank_in_cluster": 1}

$$$$

     RDKit          3D

 51 54  0  0  0  0  0  0  0  0999 V2000
  137.4540   71.2850  221.9720 O   0  0  0  0  0  0  0  0  0  0  0  0
  138.6970   71.4290  222.1100 C   0  0  0  0  0  0  0  0  0  0  0  0
  139.4510   71.9860  221.0260 N   0  0  0  0  0  0  0  0  0  0  0  0
  139.1570   73.2560  220.3720 C   0  0  0  0  0  0  0  0  0  0  0  0
  140.0370   74.3310  220.9350 C   0  0  0  0  0  0  0  0  0  0  0  0
  140.0160   74.5590  222.1750 O   0  0  0  0  0  0  0  0  0  0  0  0
  140.9360   75.0670  220.0850 N   0  0  0  0  0  0  0  0  0  0  0  0
  141.4060   74.5300  218.8190 C   0  0  0  0  0  0  0  0  0  0  0  0
  142.7820   75.1370  218.6030 C   0  0  0  0  0  0  0  0  0  0  0  0
  142.8270   76.3910  219.4800 C   0  0  2  0  0  0  0  0  0  0  0  0
  144.0850   76.5360  220.0850 O   0  0  0  0  0  0  0  0  0  0  0  0
  141.7340   76.2000  220.5470 C   0  0  1  0  0  0  0  0  0  0  0  0
  140.8730   77.4770  220.6790 C   0  0  0  0  0  0  0  0  0  0  0  0
  141.3800   78.4130  221.7450 C   0  0  0  0  0  0  0  0  0  0  0  0
  141.2920   78.0600  223.1030 C   0  0  0  0  0  0  0  0  0  0  0  0
  141.7970   78.9140  224.0880 C   0  0  0  0  0  0  0  0  0  0  0  0
  142.3880   80.1270  223.7260 C   0  0  0  0  0  0  0  0  0  0  0  0
  142.4780   80.4870  222.3780 C   0  0  0  0  0  0  0  0  0  0  0  0
  141.9760   79.6350  221.3900 C   0  0  0  0  0  0  0  0  0  0  0  0
  139.3160   71.0620  223.3940 C   0  0  0  0  0  0  0  0  0  0  0  0
  140.2690   71.8920  224.0040 C   0  0  0  0  0  0  0  0  0  0  0  0
  140.8520   71.5020  225.2120 C   0  0  0  0  0  0  0  0  0  0  0  0
  140.4970   70.2810  225.7950 C   0  0  0  0  0  0  0  0  0  0  0  0
  141.0660   69.8570  227.0060 C   0  0  0  0  0  0  0  0  0  0  0  0
  140.6960   68.6260  227.5590 C   0  0  0  0  0  0  0  0  0  0  0  0
  141.4050   68.0980  229.0740 Cl  0  0  0  0  0  0  0  0  0  0  0  0
  139.7580   67.8160  226.9070 C   0  0  0  0  0  0  0  0  0  0  0  0
  139.1880   68.2310  225.7000 C   0  0  0  0  0  0  0  0  0  0  0  0
  139.5530   69.4600  225.1390 C   0  0  0  0  0  0  0  0  0  0  0  0
  139.0000   69.8670  223.9660 N   0  0  0  0  0  0  0  0  0  0  0  0
  139.3407   73.1618  219.2915 H   0  0  0  0  0  0  0  0  0  0  0  0
  138.1034   73.5198  220.5464 H   0  0  0  0  0  0  0  0  0  0  0  0
  141.4737   73.4332  218.8686 H   0  0  0  0  0  0  0  0  0  0  0  0
  140.7200   74.7730  217.9942 H   0  0  0  0  0  0  0  0  0  0  0  0
  143.5657   74.4279  218.9080 H   0  0  0  0  0  0  0  0  0  0  0  0
  142.9568   75.3772  217.5439 H   0  0  0  0  0  0  0  0  0  0  0  0
  142.6572   77.2995  218.8836 H   0  0  0  0  0  0  0  0  0  0  0  0
  144.0530   77.3820  220.6040 H   0  0  0  0  0  0  0  0  0  0  0  0
  142.1584   76.0116  221.5442 H   0  0  0  0  0  0  0  0  0  0  0  0
  140.8783   78.0061  219.7146 H   0  0  0  0  0  0  0  0  0  0  0  0
  139.8581   77.1649  220.9665 H   0  0  0  0  0  0  0  0  0  0  0  0
  140.8237   77.1075  223.3918 H   0  0  0  0  0  0  0  0  0  0  0  0
  141.7289   78.6307  225.1487 H   0  0  0  0  0  0  0  0  0  0  0  0
  142.7828   80.7993  224.5020 H   0  0  0  0  0  0  0  0  0  0  0  0
  142.9445   81.4420  222.0945 H   0  0  0  0  0  0  0  0  0  0  0  0
  142.0478   79.9223  220.3306 H   0  0  0  0  0  0  0  0  0  0  0  0
  140.5553   72.8442  223.5336 H   0  0  0  0  0  0  0  0  0  0  0  0
  141.5889   72.1539  225.7039 H   0  0  0  0  0  0  0  0  0  0  0  0
  141.8024   70.4921  227.5201 H   0  0  0  0  0  0  0  0  0  0  0  0
  139.4687   66.8498  227.3462 H   0  0  0  0  0  0  0  0  0  0  0  0
  138.4522   67.5912  225.1909 H   0  0  0  0  0  0  0  0  0  0  0  0
  1  2  2  0
  2  3  1  0
  3  4  1  0
  4  5  1  0
  5  6  2  0
  5  7  1  0
  7  8  1  0
  8  9  1  0
  9 10  1  0
 10 11  1  0
 10 12  1  0
 12 13  1  0
 13 14  1  0
 14 15  2  0
 15 16  1  0
 16 17  2  0
 17 18  1  0
 18 19  2  0
  2 20  1  0
 20 21  2  0
 21 22  1  0
 22 23  2  0
 23 24  1  0
 24 25  2  0
 25 26  1  0
 25 27  1  0
 27 28  2  0
 28 29  1  0
 29 30  2  0
 12  7  1  0
 19 14  1  0
 30 20  1  0
 29 23  1  0
  4 31  1  0
  4 32  1  0
  8 33  1  0
  8 34  1  0
  9 35  1  0
  9 36  1  0
 10 37  1  6
 11 38  1  0
 12 39  1  1
 13 40  1  0
 13 41  1  0
 15 42  1  0
 16 43  1  0
 17 44  1  0
 18 45  1  0
 19 46  1  0
 21 47  1  0
 22 48  1  0
 24 49  1  0
 27 50  1  0
 28 51  1  0
M  CHG  1   3  -1
M  END
>  <meeko>  (9) 
{"free_energy": -8.53, "intermolecular_energy": -10.92, "internal_energy": -1.29, "cluster_size": 8, "cluster_id": 2, "rank_in_cluster": 4}

$$$$

     RDKit          3D

 51 54  0  0  0  0  0  0  0  0999 V2000
  139.5460   74.4740  222.3430 O   0  0  0  0  0  0  0  0  0  0  0  0
  140.0930   75.5490  221.9850 C   0  0  0  0  0  0  0  0  0  0  0  0
  141.4450   75.5100  221.5110 N   0  0  0  0  0  0  0  0  0  0  0  0
  141.8410   75.1770  220.1460 C   0  0  0  0  0  0  0  0  0  0  0  0
  142.7590   76.2360  219.6130 C   0  0  0  0  0  0  0  0  0  0  0  0
  143.9890   76.1800  219.8850 O   0  0  0  0  0  0  0  0  0  0  0  0
  142.2590   77.2810  218.7600 N   0  0  0  0  0  0  0  0  0  0  0  0
  142.1160   77.0960  217.3250 C   0  0  0  0  0  0  0  0  0  0  0  0
  142.3070   78.4750  216.7140 C   0  0  0  0  0  0  0  0  0  0  0  0
  142.0310   79.4730  217.8420 C   0  0  2  0  0  0  0  0  0  0  0  0
  142.9290   80.5500  217.7900 O   0  0  0  0  0  0  0  0  0  0  0  0
  142.2080   78.6870  219.1540 C   0  0  1  0  0  0  0  0  0  0  0  0
  141.0260   78.9580  220.1140 C   0  0  0  0  0  0  0  0  0  0  0  0
  141.4420   79.7120  221.3500 C   0  0  0  0  0  0  0  0  0  0  0  0
  142.1860   79.0730  222.3570 C   0  0  0  0  0  0  0  0  0  0  0  0
  142.6020   79.7850  223.4860 C   0  0  0  0  0  0  0  0  0  0  0  0
  142.2750   81.1370  223.6200 C   0  0  0  0  0  0  0  0  0  0  0  0
  141.5340   81.7800  222.6240 C   0  0  0  0  0  0  0  0  0  0  0  0
  141.1170   81.0720  221.4930 C   0  0  0  0  0  0  0  0  0  0  0  0
  139.3090   76.7940  222.0260 C   0  0  0  0  0  0  0  0  0  0  0  0
  138.3780   77.0990  221.0210 C   0  0  0  0  0  0  0  0  0  0  0  0
  137.6660   78.3000  221.0800 C   0  0  0  0  0  0  0  0  0  0  0  0
  137.8980   79.1960  222.1290 C   0  0  0  0  0  0  0  0  0  0  0  0
  137.2040   80.4120  222.2170 C   0  0  0  0  0  0  0  0  0  0  0  0
  137.4650   81.2920  223.2740 C   0  0  0  0  0  0  0  0  0  0  0  0
  136.5940   82.8100  223.3850 Cl  0  0  0  0  0  0  0  0  0  0  0  0
  138.4180   80.9600  224.2450 C   0  0  0  0  0  0  0  0  0  0  0  0
  139.1150   79.7510  224.1630 C   0  0  0  0  0  0  0  0  0  0  0  0
  138.8610   78.8660  223.1080 C   0  0  0  0  0  0  0  0  0  0  0  0
  139.5370   77.6890  223.0270 N   0  0  0  0  0  0  0  0  0  0  0  0
  142.3604   74.2073  220.1423 H   0  0  0  0  0  0  0  0  0  0  0  0
  140.9448   75.1187  219.5109 H   0  0  0  0  0  0  0  0  0  0  0  0
  142.8808   76.4003  216.9494 H   0  0  0  0  0  0  0  0  0  0  0  0
  141.1366   76.6679  217.0654 H   0  0  0  0  0  0  0  0  0  0  0  0
  143.3363   78.5906  216.3436 H   0  0  0  0  0  0  0  0  0  0  0  0
  141.6348   78.6353  215.8582 H   0  0  0  0  0  0  0  0  0  0  0  0
  141.0206   79.8995  217.7573 H   0  0  0  0  0  0  0  0  0  0  0  0
  143.6740   80.2700  217.1980 H   0  0  0  0  0  0  0  0  0  0  0  0
  143.1185   78.9853  219.6944 H   0  0  0  0  0  0  0  0  0  0  0  0
  140.2673   79.5489  219.5800 H   0  0  0  0  0  0  0  0  0  0  0  0
  140.6300   77.9838  220.4367 H   0  0  0  0  0  0  0  0  0  0  0  0
  142.4421   78.0080  222.2563 H   0  0  0  0  0  0  0  0  0  0  0  0
  143.1870   79.2807  224.2692 H   0  0  0  0  0  0  0  0  0  0  0  0
  142.6008   81.6957  224.5098 H   0  0  0  0  0  0  0  0  0  0  0  0
  141.2787   82.8447  222.7304 H   0  0  0  0  0  0  0  0  0  0  0  0
  140.5326   81.5809  220.7123 H   0  0  0  0  0  0  0  0  0  0  0  0
  138.2097   76.3965  220.1914 H   0  0  0  0  0  0  0  0  0  0  0  0
  136.9249   78.5403  220.3035 H   0  0  0  0  0  0  0  0  0  0  0  0
  136.4547   80.6740  221.4554 H   0  0  0  0  0  0  0  0  0  0  0  0
  138.6188   81.6531  225.0752 H   0  0  0  0  0  0  0  0  0  0  0  0
  139.8633   79.4948  224.9275 H   0  0  0  0  0  0  0  0  0  0  0  0
  1  2  2  0
  2  3  1  0
  3  4  1  0
  4  5  1  0
  5  6  2  0
  5  7  1  0
  7  8  1  0
  8  9  1  0
  9 10  1  0
 10 11  1  0
 10 12  1  0
 12 13  1  0
 13 14  1  0
 14 15  2  0
 15 16  1  0
 16 17  2  0
 17 18  1  0
 18 19  2  0
  2 20  1  0
 20 21  2  0
 21 22  1  0
 22 23  2  0
 23 24  1  0
 24 25  2  0
 25 26  1  0
 25 27  1  0
 27 28  2  0
 28 29  1  0
 29 30  2  0
 12  7  1  0
 19 14  1  0
 30 20  1  0
 29 23  1  0
  4 31  1  0
  4 32  1  0
  8 33  1  0
  8 34  1  0
  9 35  1  0
  9 36  1  0
 10 37  1  6
 11 38  1  0
 12 39  1  1
 13 40  1  0
 13 41  1  0
 15 42  1  0
 16 43  1  0
 17 44  1  0
 18 45  1  0
 19 46  1  0
 21 47  1  0
 22 48  1  0
 24 49  1  0
 27 50  1  0
 28 51  1  0
M  CHG  1   3  -1
M  END
>  <meeko>  (10) 
{"free_energy": -6.46, "intermolecular_energy": -8.84, "internal_energy": -2.98, "cluster_size": 1, "cluster_id": 8, "rank_in_cluster": 1}

$$$$

     RDKit          3D

 51 54  0  0  0  0  0  0  0  0999 V2000
  137.7050   70.4090  221.4990 O   0  0  0  0  0  0  0  0  0  0  0  0
  138.5410   71.2210  221.9760 C   0  0  0  0  0  0  0  0  0  0  0  0
  138.8000   72.4390  221.2670 N   0  0  0  0  0  0  0  0  0  0  0  0
  138.6620   73.7780  221.8300 C   0  0  0  0  0  0  0  0  0  0  0  0
  139.9650   74.5100  221.7220 C   0  0  0  0  0  0  0  0  0  0  0  0
  141.0380   73.9000  221.9800 O   0  0  0  0  0  0  0  0  0  0  0  0
  140.0060   75.8790  221.2820 N   0  0  0  0  0  0  0  0  0  0  0  0
  139.1480   76.3680  220.2150 C   0  0  0  0  0  0  0  0  0  0  0  0
  139.9220   77.4950  219.5520 C   0  0  0  0  0  0  0  0  0  0  0  0
  140.9550   77.9550  220.5830 C   0  0  2  0  0  0  0  0  0  0  0  0
  142.1830   78.2480  219.9680 O   0  0  0  0  0  0  0  0  0  0  0  0
  141.1150   76.7850  221.5720 C   0  0  1  0  0  0  0  0  0  0  0  0
  141.0560   77.2950  223.0310 C   0  0  0  0  0  0  0  0  0  0  0  0
  141.3220   78.7740  223.1410 C   0  0  0  0  0  0  0  0  0  0  0  0
  140.2610   79.6760  223.3330 C   0  0  0  0  0  0  0  0  0  0  0  0
  140.5150   81.0440  223.4710 C   0  0  0  0  0  0  0  0  0  0  0  0
  141.8270   81.5210  223.4140 C   0  0  0  0  0  0  0  0  0  0  0  0
  142.8880   80.6320  223.2210 C   0  0  0  0  0  0  0  0  0  0  0  0
  142.6390   79.2630  223.0840 C   0  0  0  0  0  0  0  0  0  0  0  0
  139.1820   70.9070  223.2630 C   0  0  0  0  0  0  0  0  0  0  0  0
  140.0940   71.7940  223.8560 C   0  0  0  0  0  0  0  0  0  0  0  0
  140.7000   71.4540  225.0670 C   0  0  0  0  0  0  0  0  0  0  0  0
  140.4080   70.2270  225.6720 C   0  0  0  0  0  0  0  0  0  0  0  0
  141.0010   69.8520  226.8870 C   0  0  0  0  0  0  0  0  0  0  0  0
  140.6940   68.6140  227.4630 C   0  0  0  0  0  0  0  0  0  0  0  0
  141.4340   68.1480  228.9840 Cl  0  0  0  0  0  0  0  0  0  0  0  0
  139.7960   67.7470  226.8290 C   0  0  0  0  0  0  0  0  0  0  0  0
  139.2020   68.1130  225.6170 C   0  0  0  0  0  0  0  0  0  0  0  0
  139.5040   69.3490  225.0340 C   0  0  0  0  0  0  0  0  0  0  0  0
  138.9270   69.7080  223.8560 N   0  0  0  0  0  0  0  0  0  0  0  0
  137.8867   74.3287  221.2771 H   0  0  0  0  0  0  0  0  0  0  0  0
  138.3760   73.6993  222.8893 H   0  0  0  0  0  0  0  0  0  0  0  0
  138.9412   75.5663  219.4907 H   0  0  0  0  0  0  0  0  0  0  0  0
  138.1767   76.7126  220.5995 H   0  0  0  0  0  0  0  0  0  0  0  0
  140.4237   77.1319  218.6429 H   0  0  0  0  0  0  0  0  0  0  0  0
  139.2582   78.3182  219.2492 H   0  0  0  0  0  0  0  0  0  0  0  0
  140.6275   78.8746  221.0901 H   0  0  0  0  0  0  0  0  0  0  0  0
  142.8920   77.9530  220.5970 H   0  0  0  0  0  0  0  0  0  0  0  0
  142.0857   76.2795  221.4613 H   0  0  0  0  0  0  0  0  0  0  0  0
  140.0550   77.0863  223.4366 H   0  0  0  0  0  0  0  0  0  0  0  0
  141.8413   76.7731  223.5975 H   0  0  0  0  0  0  0  0  0  0  0  0
  139.2267   79.3040  223.3748 H   0  0  0  0  0  0  0  0  0  0  0  0
  139.6814   81.7451  223.6245 H   0  0  0  0  0  0  0  0  0  0  0  0
  142.0251   82.5977  223.5212 H   0  0  0  0  0  0  0  0  0  0  0  0
  143.9202   81.0098  223.1768 H   0  0  0  0  0  0  0  0  0  0  0  0
  143.4763   78.5662  222.9311 H   0  0  0  0  0  0  0  0  0  0  0  0
  140.3300   72.7518  223.3693 H   0  0  0  0  0  0  0  0  0  0  0  0
  141.4057   72.1497  225.5445 H   0  0  0  0  0  0  0  0  0  0  0  0
  141.7073   70.5311  227.3869 H   0  0  0  0  0  0  0  0  0  0  0  0
  139.5570   66.7751  227.2855 H   0  0  0  0  0  0  0  0  0  0  0  0
  138.4971   67.4291  225.1217 H   0  0  0  0  0  0  0  0  0  0  0  0
  1  2  2  0
  2  3  1  0
  3  4  1  0
  4  5  1  0
  5  6  2  0
  5  7  1  0
  7  8  1  0
  8  9  1  0
  9 10  1  0
 10 11  1  0
 10 12  1  0
 12 13  1  0
 13 14  1  0
 14 15  2  0
 15 16  1  0
 16 17  2  0
 17 18  1  0
 18 19  2  0
  2 20  1  0
 20 21  2  0
 21 22  1  0
 22 23  2  0
 23 24  1  0
 24 25  2  0
 25 26  1  0
 25 27  1  0
 27 28  2  0
 28 29  1  0
 29 30  2  0
 12  7  1  0
 19 14  1  0
 30 20  1  0
 29 23  1  0
  4 31  1  0
  4 32  1  0
  8 33  1  0
  8 34  1  0
  9 35  1  0
  9 36  1  0
 10 37  1  1
 11 38  1  0
 12 39  1  6
 13 40  1  0
 13 41  1  0
 15 42  1  0
 16 43  1  0
 17 44  1  0
 18 45  1  0
 19 46  1  0
 21 47  1  0
 22 48  1  0
 24 49  1  0
 27 50  1  0
 28 51  1  0
M  CHG  1   3  -1
M  END
>  <meeko>  (11) 
{"free_energy": -8.22, "intermolecular_energy": -10.61, "internal_energy": -1.27, "cluster_size": 8, "cluster_id": 2, "rank_in_cluster": 6}

$$$$

     RDKit          3D

 51 54  0  0  0  0  0  0  0  0999 V2000
  140.3250   74.1100  222.1870 O   0  0  0  0  0  0  0  0  0  0  0  0
  140.0090   72.9230  221.9100 C   0  0  0  0  0  0  0  0  0  0  0  0
  139.6660   72.5980  220.5570 N   0  0  0  0  0  0  0  0  0  0  0  0
  140.5750   71.9950  219.5880 C   0  0  0  0  0  0  0  0  0  0  0  0
  141.5920   73.0050  219.1500 C   0  0  0  0  0  0  0  0  0  0  0  0
  141.2930   73.8260  218.2400 O   0  0  0  0  0  0  0  0  0  0  0  0
  142.8790   73.0780  219.7870 N   0  0  0  0  0  0  0  0  0  0  0  0
  143.3020   74.2540  220.5300 C   0  0  0  0  0  0  0  0  0  0  0  0
  144.8150   74.3010  220.3960 C   0  0  0  0  0  0  0  0  0  0  0  0
  145.2450   72.8780  220.0320 C   0  0  2  0  0  0  0  0  0  0  0  0
  146.2770   72.8930  219.0800 O   0  0  0  0  0  0  0  0  0  0  0  0
  143.9920   72.1910  219.4580 C   0  0  1  0  0  0  0  0  0  0  0  0
  143.8020   70.7920  220.0880 C   0  0  0  0  0  0  0  0  0  0  0  0
  144.6480   69.7360  219.4260 C   0  0  0  0  0  0  0  0  0  0  0  0
  145.4370   70.0540  218.3070 C   0  0  0  0  0  0  0  0  0  0  0  0
  146.2490   69.0800  217.7180 C   0  0  0  0  0  0  0  0  0  0  0  0
  146.2760   67.7830  218.2370 C   0  0  0  0  0  0  0  0  0  0  0  0
  145.4920   67.4580  219.3480 C   0  0  0  0  0  0  0  0  0  0  0  0
  144.6800   68.4290  219.9420 C   0  0  0  0  0  0  0  0  0  0  0  0
  140.0470   71.9100  222.9770 C   0  0  0  0  0  0  0  0  0  0  0  0
  139.5560   70.6130  222.7660 C   0  0  0  0  0  0  0  0  0  0  0  0
  139.5890   69.6830  223.8070 C   0  0  0  0  0  0  0  0  0  0  0  0
  140.0940   70.0560  225.0570 C   0  0  0  0  0  0  0  0  0  0  0  0
  140.1380   69.1480  226.1270 C   0  0  0  0  0  0  0  0  0  0  0  0
  140.6430   69.5540  227.3680 C   0  0  0  0  0  0  0  0  0  0  0  0
  140.7010   68.4180  228.7030 Cl  0  0  0  0  0  0  0  0  0  0  0  0
  141.1030   70.8640  227.5450 C   0  0  0  0  0  0  0  0  0  0  0  0
  141.0600   71.7740  226.4850 C   0  0  0  0  0  0  0  0  0  0  0  0
  140.5570   71.3770  225.2410 C   0  0  0  0  0  0  0  0  0  0  0  0
  140.5150   72.2600  224.2070 N   0  0  0  0  0  0  0  0  0  0  0  0
  141.0868   71.1385  220.0511 H   0  0  0  0  0  0  0  0  0  0  0  0
  140.0007   71.6548  218.7137 H   0  0  0  0  0  0  0  0  0  0  0  0
  142.8504   75.1612  220.1022 H   0  0  0  0  0  0  0  0  0  0  0  0
  142.9885   74.2041  221.5832 H   0  0  0  0  0  0  0  0  0  0  0  0
  145.1077   75.0045  219.6027 H   0  0  0  0  0  0  0  0  0  0  0  0
  145.2936   74.6437  221.3252 H   0  0  0  0  0  0  0  0  0  0  0  0
  145.6339   72.3434  220.9111 H   0  0  0  0  0  0  0  0  0  0  0  0
  146.3500   73.8290  218.7570 H   0  0  0  0  0  0  0  0  0  0  0  0
  144.0689   72.0307  218.3724 H   0  0  0  0  0  0  0  0  0  0  0  0
  144.0750   70.8454  221.1522 H   0  0  0  0  0  0  0  0  0  0  0  0
  142.7484   70.5069  219.9518 H   0  0  0  0  0  0  0  0  0  0  0  0
  145.4155   71.0730  217.8932 H   0  0  0  0  0  0  0  0  0  0  0  0
  146.8674   69.3352  216.8448 H   0  0  0  0  0  0  0  0  0  0  0  0
  146.9142   67.0175  217.7714 H   0  0  0  0  0  0  0  0  0  0  0  0
  145.5140   66.4365  219.7556 H   0  0  0  0  0  0  0  0  0  0  0  0
  144.0644   68.1692  220.8158 H   0  0  0  0  0  0  0  0  0  0  0  0
  139.1469   70.3299  221.7850 H   0  0  0  0  0  0  0  0  0  0  0  0
  139.2189   68.6599  223.6446 H   0  0  0  0  0  0  0  0  0  0  0  0
  139.7759   68.1183  225.9903 H   0  0  0  0  0  0  0  0  0  0  0  0
  141.4997   71.1784  228.5216 H   0  0  0  0  0  0  0  0  0  0  0  0
  141.4217   72.8028  226.6287 H   0  0  0  0  0  0  0  0  0  0  0  0
  1  2  2  0
  2  3  1  0
  3  4  1  0
  4  5  1  0
  5  6  2  0
  5  7  1  0
  7  8  1  0
  8  9  1  0
  9 10  1  0
 10 11  1  0
 10 12  1  0
 12 13  1  0
 13 14  1  0
 14 15  2  0
 15 16  1  0
 16 17  2  0
 17 18  1  0
 18 19  2  0
  2 20  1  0
 20 21  2  0
 21 22  1  0
 22 23  2  0
 23 24  1  0
 24 25  2  0
 25 26  1  0
 25 27  1  0
 27 28  2  0
 28 29  1  0
 29 30  2  0
 12  7  1  0
 19 14  1  0
 30 20  1  0
 29 23  1  0
  4 31  1  0
  4 32  1  0
  8 33  1  0
  8 34  1  0
  9 35  1  0
  9 36  1  0
 10 37  1  1
 11 38  1  0
 12 39  1  6
 13 40  1  0
 13 41  1  0
 15 42  1  0
 16 43  1  0
 17 44  1  0
 18 45  1  0
 19 46  1  0
 21 47  1  0
 22 48  1  0
 24 49  1  0
 27 50  1  0
 28 51  1  0
M  CHG  1   3  -1
M  END
>  <meeko>  (12) 
{"free_energy": -8.64, "intermolecular_energy": -11.02, "internal_energy": -1.51, "cluster_size": 3, "cluster_id": 1, "rank_in_cluster": 2}

$$$$

     RDKit          3D

 51 54  0  0  0  0  0  0  0  0999 V2000
  140.1940   74.1160  222.3010 O   0  0  0  0  0  0  0  0  0  0  0  0
  139.9950   72.9150  221.9820 C   0  0  0  0  0  0  0  0  0  0  0  0
  139.7780   72.5940  220.6030 N   0  0  0  0  0  0  0  0  0  0  0  0
  140.4170   73.2700  219.4790 C   0  0  0  0  0  0  0  0  0  0  0  0
  141.6440   72.5150  219.0660 C   0  0  0  0  0  0  0  0  0  0  0  0
  141.5790   71.7200  218.0890 O   0  0  0  0  0  0  0  0  0  0  0  0
  142.8980   72.7240  219.7380 N   0  0  0  0  0  0  0  0  0  0  0  0
  143.1790   73.9450  220.4760 C   0  0  0  0  0  0  0  0  0  0  0  0
  144.6830   74.1410  220.3850 C   0  0  0  0  0  0  0  0  0  0  0  0
  145.2640   72.7650  220.0530 C   0  0  2  0  0  0  0  0  0  0  0  0
  146.3170   72.8720  219.1310 O   0  0  0  0  0  0  0  0  0  0  0  0
  144.1040   71.9490  219.4530 C   0  0  1  0  0  0  0  0  0  0  0  0
  144.0350   70.5460  220.0980 C   0  0  0  0  0  0  0  0  0  0  0  0
  144.8490   69.5220  219.3500 C   0  0  0  0  0  0  0  0  0  0  0  0
  144.9260   68.1970  219.8130 C   0  0  0  0  0  0  0  0  0  0  0  0
  145.6530   67.2410  219.0970 C   0  0  0  0  0  0  0  0  0  0  0  0
  146.3100   67.6000  217.9170 C   0  0  0  0  0  0  0  0  0  0  0  0
  146.2400   68.9160  217.4510 C   0  0  0  0  0  0  0  0  0  0  0  0
  145.5140   69.8750  218.1630 C   0  0  0  0  0  0  0  0  0  0  0  0
  140.0400   71.8840  223.0330 C   0  0  0  0  0  0  0  0  0  0  0  0
  139.5520   70.5890  222.8010 C   0  0  0  0  0  0  0  0  0  0  0  0
  139.5900   69.6420  223.8270 C   0  0  0  0  0  0  0  0  0  0  0  0
  140.0970   69.9960  225.0820 C   0  0  0  0  0  0  0  0  0  0  0  0
  140.1470   69.0710  226.1360 C   0  0  0  0  0  0  0  0  0  0  0  0
  140.6520   69.4580  227.3830 C   0  0  0  0  0  0  0  0  0  0  0  0
  140.7170   68.3000  228.6990 Cl  0  0  0  0  0  0  0  0  0  0  0  0
  141.1080   70.7670  227.5800 C   0  0  0  0  0  0  0  0  0  0  0  0
  141.0600   71.6940  226.5350 C   0  0  0  0  0  0  0  0  0  0  0  0
  140.5560   71.3160  225.2860 C   0  0  0  0  0  0  0  0  0  0  0  0
  140.5090   72.2150  224.2680 N   0  0  0  0  0  0  0  0  0  0  0  0
  139.7148   73.3169  218.6336 H   0  0  0  0  0  0  0  0  0  0  0  0
  140.7010   74.2890  219.7808 H   0  0  0  0  0  0  0  0  0  0  0  0
  142.6526   74.7976  220.0222 H   0  0  0  0  0  0  0  0  0  0  0  0
  142.8401   73.8764  221.5202 H   0  0  0  0  0  0  0  0  0  0  0  0
  144.9279   74.8618  219.5910 H   0  0  0  0  0  0  0  0  0  0  0  0
  145.0966   74.5392  221.3233 H   0  0  0  0  0  0  0  0  0  0  0  0
  145.6783   72.2827  220.9506 H   0  0  0  0  0  0  0  0  0  0  0  0
  146.3570   73.8260  218.8580 H   0  0  0  0  0  0  0  0  0  0  0  0
  144.2296   71.7846  218.3726 H   0  0  0  0  0  0  0  0  0  0  0  0
  144.4146   70.6132  221.1283 H   0  0  0  0  0  0  0  0  0  0  0  0
  142.9849   70.2194  220.0721 H   0  0  0  0  0  0  0  0  0  0  0  0
  144.4121   67.9110  220.7426 H   0  0  0  0  0  0  0  0  0  0  0  0
  145.7078   66.2051  219.4630 H   0  0  0  0  0  0  0  0  0  0  0  0
  146.8821   66.8471  217.3550 H   0  0  0  0  0  0  0  0  0  0  0  0
  146.7574   69.1975  216.5220 H   0  0  0  0  0  0  0  0  0  0  0  0
  145.4629   70.9097  217.7931 H   0  0  0  0  0  0  0  0  0  0  0  0
  139.1417   70.3210  221.8162 H   0  0  0  0  0  0  0  0  0  0  0  0
  139.2223   68.6207  223.6488 H   0  0  0  0  0  0  0  0  0  0  0  0
  139.7895   68.0421  225.9825 H   0  0  0  0  0  0  0  0  0  0  0  0
  141.5055   71.0670  228.5608 H   0  0  0  0  0  0  0  0  0  0  0  0
  141.4188   72.7215  226.6948 H   0  0  0  0  0  0  0  0  0  0  0  0
  1  2  2  0
  2  3  1  0
  3  4  1  0
  4  5  1  0
  5  6  2  0
  5  7  1  0
  7  8  1  0
  8  9  1  0
  9 10  1  0
 10 11  1  0
 10 12  1  0
 12 13  1  0
 13 14  1  0
 14 15  2  0
 15 16  1  0
 16 17  2  0
 17 18  1  0
 18 19  2  0
  2 20  1  0
 20 21  2  0
 21 22  1  0
 22 23  2  0
 23 24  1  0
 24 25  2  0
 25 26  1  0
 25 27  1  0
 27 28  2  0
 28 29  1  0
 29 30  2  0
 12  7  1  0
 19 14  1  0
 30 20  1  0
 29 23  1  0
  4 31  1  0
  4 32  1  0
  8 33  1  0
  8 34  1  0
  9 35  1  0
  9 36  1  0
 10 37  1  1
 11 38  1  0
 12 39  1  6
 13 40  1  0
 13 41  1  0
 15 42  1  0
 16 43  1  0
 17 44  1  0
 18 45  1  0
 19 46  1  0
 21 47  1  0
 22 48  1  0
 24 49  1  0
 27 50  1  0
 28 51  1  0
M  CHG  1   3  -1
M  END
>  <meeko>  (13) 
{"free_energy": -8.66, "intermolecular_energy": -11.05, "internal_energy": -1.48, "cluster_size": 3, "cluster_id": 1, "rank_in_cluster": 1}

$$$$

     RDKit          3D

 51 54  0  0  0  0  0  0  0  0999 V2000
  139.9450   74.1260  222.3230 O   0  0  0  0  0  0  0  0  0  0  0  0
  139.7370   72.9230  222.0170 C   0  0  0  0  0  0  0  0  0  0  0  0
  139.4700   72.5960  220.6480 N   0  0  0  0  0  0  0  0  0  0  0  0
  140.3240   71.7650  219.8060 C   0  0  0  0  0  0  0  0  0  0  0  0
  141.7600   71.9750  220.1800 C   0  0  0  0  0  0  0  0  0  0  0  0
  142.1810   71.5390  221.2850 O   0  0  0  0  0  0  0  0  0  0  0  0
  142.6690   72.6240  219.2720 N   0  0  0  0  0  0  0  0  0  0  0  0
  142.3780   72.7480  217.8540 C   0  0  0  0  0  0  0  0  0  0  0  0
  143.7290   72.7600  217.1580 C   0  0  0  0  0  0  0  0  0  0  0  0
  144.7450   73.1680  218.2270 C   0  0  2  0  0  0  0  0  0  0  0  0
  145.9340   72.4330  218.0970 O   0  0  0  0  0  0  0  0  0  0  0  0
  144.0750   72.8730  219.5820 C   0  0  1  0  0  0  0  0  0  0  0  0
  144.2350   74.0740  220.5410 C   0  0  0  0  0  0  0  0  0  0  0  0
  143.3200   75.2200  220.1940 C   0  0  0  0  0  0  0  0  0  0  0  0
  143.6940   76.1590  219.2170 C   0  0  0  0  0  0  0  0  0  0  0  0
  142.8280   77.2000  218.8710 C   0  0  0  0  0  0  0  0  0  0  0  0
  141.5860   77.3150  219.5010 C   0  0  0  0  0  0  0  0  0  0  0  0
  141.2070   76.3880  220.4770 C   0  0  0  0  0  0  0  0  0  0  0  0
  142.0700   75.3440  220.8240 C   0  0  0  0  0  0  0  0  0  0  0  0
  139.8220   71.8970  223.0700 C   0  0  0  0  0  0  0  0  0  0  0  0
  139.3200   70.6030  222.8650 C   0  0  0  0  0  0  0  0  0  0  0  0
  139.3980   69.6610  223.8940 C   0  0  0  0  0  0  0  0  0  0  0  0
  139.9590   70.0190  225.1240 C   0  0  0  0  0  0  0  0  0  0  0  0
  140.0500   69.0990  226.1800 C   0  0  0  0  0  0  0  0  0  0  0  0
  140.6100   69.4890  227.4020 C   0  0  0  0  0  0  0  0  0  0  0  0
  140.7260   68.3380  228.7200 Cl  0  0  0  0  0  0  0  0  0  0  0  0
  141.0790   70.7970  227.5730 C   0  0  0  0  0  0  0  0  0  0  0  0
  140.9900   71.7200  226.5270 C   0  0  0  0  0  0  0  0  0  0  0  0
  140.4320   71.3380  225.3020 C   0  0  0  0  0  0  0  0  0  0  0  0
  140.3450   72.2330  224.2820 N   0  0  0  0  0  0  0  0  0  0  0  0
  140.0599   70.7068  219.9489 H   0  0  0  0  0  0  0  0  0  0  0  0
  140.1777   72.0431  218.7518 H   0  0  0  0  0  0  0  0  0  0  0  0
  141.7764   71.8939  217.5096 H   0  0  0  0  0  0  0  0  0  0  0  0
  141.8000   73.6581  217.6356 H   0  0  0  0  0  0  0  0  0  0  0  0
  143.9666   71.7603  216.7655 H   0  0  0  0  0  0  0  0  0  0  0  0
  143.7386   73.4539  216.3045 H   0  0  0  0  0  0  0  0  0  0  0  0
  145.0175   74.2294  218.1312 H   0  0  0  0  0  0  0  0  0  0  0  0
  145.6700   71.5120  217.8370 H   0  0  0  0  0  0  0  0  0  0  0  0
  144.5322   72.0115  220.0906 H   0  0  0  0  0  0  0  0  0  0  0  0
  144.0085   73.7400  221.5643 H   0  0  0  0  0  0  0  0  0  0  0  0
  145.2699   74.4357  220.4513 H   0  0  0  0  0  0  0  0  0  0  0  0
  144.6729   76.0740  218.7225 H   0  0  0  0  0  0  0  0  0  0  0  0
  143.1242   77.9291  218.1024 H   0  0  0  0  0  0  0  0  0  0  0  0
  140.9058   78.1355  219.2289 H   0  0  0  0  0  0  0  0  0  0  0  0
  140.2291   76.4802  220.9722 H   0  0  0  0  0  0  0  0  0  0  0  0
  141.7694   74.6171  221.5929 H   0  0  0  0  0  0  0  0  0  0  0  0
  138.8676   70.3316  221.8997 H   0  0  0  0  0  0  0  0  0  0  0  0
  139.0191   68.6403  223.7370 H   0  0  0  0  0  0  0  0  0  0  0  0
  139.6811   68.0712  226.0472 H   0  0  0  0  0  0  0  0  0  0  0  0
  141.5194   71.0996  228.5345 H   0  0  0  0  0  0  0  0  0  0  0  0
  141.3587   72.7469  226.6669 H   0  0  0  0  0  0  0  0  0  0  0  0
  1  2  2  0
  2  3  1  0
  3  4  1  0
  4  5  1  0
  5  6  2  0
  5  7  1  0
  7  8  1  0
  8  9  1  0
  9 10  1  0
 10 11  1  0
 10 12  1  0
 12 13  1  0
 13 14  1  0
 14 15  2  0
 15 16  1  0
 16 17  2  0
 17 18  1  0
 18 19  2  0
  2 20  1  0
 20 21  2  0
 21 22  1  0
 22 23  2  0
 23 24  1  0
 24 25  2  0
 25 26  1  0
 25 27  1  0
 27 28  2  0
 28 29  1  0
 29 30  2  0
 12  7  1  0
 19 14  1  0
 30 20  1  0
 29 23  1  0
  4 31  1  0
  4 32  1  0
  8 33  1  0
  8 34  1  0
  9 35  1  0
  9 36  1  0
 10 37  1  1
 11 38  1  0
 12 39  1  1
 13 40  1  0
 13 41  1  0
 15 42  1  0
 16 43  1  0
 17 44  1  0
 18 45  1  0
 19 46  1  0
 21 47  1  0
 22 48  1  0
 24 49  1  0
 27 50  1  0
 28 51  1  0
M  CHG  1   3  -1
M  END
>  <meeko>  (14) 
{"free_energy": -7.22, "intermolecular_energy": -9.61, "internal_energy": -1.97, "cluster_size": 1, "cluster_id": 6, "rank_in_cluster": 1}

$$$$

     RDKit          3D

 51 54  0  0  0  0  0  0  0  0999 V2000
  138.0690   74.0280  222.1250 O   0  0  0  0  0  0  0  0  0  0  0  0
  139.2290   74.5160  222.1760 C   0  0  0  0  0  0  0  0  0  0  0  0
  140.3430   73.6290  222.3400 N   0  0  0  0  0  0  0  0  0  0  0  0
  141.0360   72.9510  221.2500 C   0  0  0  0  0  0  0  0  0  0  0  0
  140.7030   71.4900  221.2700 C   0  0  0  0  0  0  0  0  0  0  0  0
  141.5300   70.6610  220.8020 O   0  0  0  0  0  0  0  0  0  0  0  0
  139.4760   71.0230  221.8590 N   0  0  0  0  0  0  0  0  0  0  0  0
  138.3070   70.7150  221.0520 C   0  0  0  0  0  0  0  0  0  0  0  0
  137.1090   70.9910  221.9450 C   0  0  0  0  0  0  0  0  0  0  0  0
  137.6380   70.9410  223.3800 C   0  0  2  0  0  0  0  0  0  0  0  0
  137.0470   71.9410  224.1690 O   0  0  0  0  0  0  0  0  0  0  0  0
  139.1580   71.1640  223.2780 C   0  0  1  0  0  0  0  0  0  0  0  0
  139.9190   70.1220  224.1300 C   0  0  0  0  0  0  0  0  0  0  0  0
  140.2260   70.6200  225.5190 C   0  0  0  0  0  0  0  0  0  0  0  0
  139.7430   69.9300  226.6450 C   0  0  0  0  0  0  0  0  0  0  0  0
  140.0600   70.3730  227.9330 C   0  0  0  0  0  0  0  0  0  0  0  0
  140.8560   71.5090  228.1060 C   0  0  0  0  0  0  0  0  0  0  0  0
  141.3380   72.2020  226.9910 C   0  0  0  0  0  0  0  0  0  0  0  0
  141.0240   71.7610  225.7020 C   0  0  0  0  0  0  0  0  0  0  0  0
  139.3960   75.9700  222.0210 C   0  0  0  0  0  0  0  0  0  0  0  0
  138.4950   76.7270  221.2570 C   0  0  0  0  0  0  0  0  0  0  0  0
  138.6970   78.1020  221.1130 C   0  0  0  0  0  0  0  0  0  0  0  0
  139.8020   78.7110  221.7160 C   0  0  0  0  0  0  0  0  0  0  0  0
  140.0370   80.0890  221.5890 C   0  0  0  0  0  0  0  0  0  0  0  0
  141.1570   80.6660  222.1980 C   0  0  0  0  0  0  0  0  0  0  0  0
  141.4470   82.3890  222.0410 Cl  0  0  0  0  0  0  0  0  0  0  0  0
  142.0450   79.8720  222.9340 C   0  0  0  0  0  0  0  0  0  0  0  0
  141.8190   78.4980  223.0630 C   0  0  0  0  0  0  0  0  0  0  0  0
  140.7010   77.9130  222.4570 C   0  0  0  0  0  0  0  0  0  0  0  0
  140.4790   76.5770  222.5820 N   0  0  0  0  0  0  0  0  0  0  0  0
  140.7197   73.3848  220.2899 H   0  0  0  0  0  0  0  0  0  0  0  0
  142.1215   73.0786  221.3737 H   0  0  0  0  0  0  0  0  0  0  0  0
  138.2766   71.3573  220.1595 H   0  0  0  0  0  0  0  0  0  0  0  0
  138.3196   69.6734  220.6987 H   0  0  0  0  0  0  0  0  0  0  0  0
  136.6887   71.9837  221.7261 H   0  0  0  0  0  0  0  0  0  0  0  0
  136.3062   70.2565  221.7838 H   0  0  0  0  0  0  0  0  0  0  0  0
  137.3995   69.9794  223.8579 H   0  0  0  0  0  0  0  0  0  0  0  0
  137.3380   72.8100  223.7880 H   0  0  0  0  0  0  0  0  0  0  0  0
  139.4572   72.1513  223.6598 H   0  0  0  0  0  0  0  0  0  0  0  0
  139.3025   69.2145  224.2096 H   0  0  0  0  0  0  0  0  0  0  0  0
  140.8776   69.9196  223.6298 H   0  0  0  0  0  0  0  0  0  0  0  0
  139.1132   69.0380  226.5122 H   0  0  0  0  0  0  0  0  0  0  0  0
  139.6828   69.8273  228.8104 H   0  0  0  0  0  0  0  0  0  0  0  0
  141.1033   71.8579  229.1194 H   0  0  0  0  0  0  0  0  0  0  0  0
  141.9650   73.0953  227.1284 H   0  0  0  0  0  0  0  0  0  0  0  0
  141.4036   72.3100  224.8276 H   0  0  0  0  0  0  0  0  0  0  0  0
  137.6345   76.2408  220.7742 H   0  0  0  0  0  0  0  0  0  0  0  0
  137.9880   78.7045  220.5263 H   0  0  0  0  0  0  0  0  0  0  0  0
  139.3412   80.7150  221.0111 H   0  0  0  0  0  0  0  0  0  0  0  0
  142.9231   80.3305  223.4122 H   0  0  0  0  0  0  0  0  0  0  0  0
  142.5196   77.8771  223.6406 H   0  0  0  0  0  0  0  0  0  0  0  0
  1  2  2  0
  2  3  1  0
  3  4  1  0
  4  5  1  0
  5  6  2  0
  5  7  1  0
  7  8  1  0
  8  9  1  0
  9 10  1  0
 10 11  1  0
 10 12  1  0
 12 13  1  0
 13 14  1  0
 14 15  2  0
 15 16  1  0
 16 17  2  0
 17 18  1  0
 18 19  2  0
  2 20  1  0
 20 21  2  0
 21 22  1  0
 22 23  2  0
 23 24  1  0
 24 25  2  0
 25 26  1  0
 25 27  1  0
 27 28  2  0
 28 29  1  0
 29 30  2  0
 12  7  1  0
 19 14  1  0
 30 20  1  0
 29 23  1  0
  4 31  1  0
  4 32  1  0
  8 33  1  0
  8 34  1  0
  9 35  1  0
  9 36  1  0
 10 37  1  1
 11 38  1  0
 12 39  1  1
 13 40  1  0
 13 41  1  0
 15 42  1  0
 16 43  1  0
 17 44  1  0
 18 45  1  0
 19 46  1  0
 21 47  1  0
 22 48  1  0
 24 49  1  0
 27 50  1  0
 28 51  1  0
M  CHG  1   3  -1
M  END
>  <meeko>  (15) 
{"free_energy": -7.47, "intermolecular_energy": -9.86, "internal_energy": -2.36, "cluster_size": 3, "cluster_id": 5, "rank_in_cluster": 1}

$$$$

     RDKit          3D

 51 54  0  0  0  0  0  0  0  0999 V2000
  140.1730   73.6910  222.1970 O   0  0  0  0  0  0  0  0  0  0  0  0
  140.3540   72.4650  221.9760 C   0  0  0  0  0  0  0  0  0  0  0  0
  140.6900   72.0460  220.6470 N   0  0  0  0  0  0  0  0  0  0  0  0
  141.9780   71.4890  220.2490 C   0  0  0  0  0  0  0  0  0  0  0  0
  141.7750   70.1410  219.6250 C   0  0  0  0  0  0  0  0  0  0  0  0
  140.6020   69.7100  219.4570 O   0  0  0  0  0  0  0  0  0  0  0  0
  142.8970   69.3610  219.1760 N   0  0  0  0  0  0  0  0  0  0  0  0
  142.7410   67.9960  218.7010 C   0  0  0  0  0  0  0  0  0  0  0  0
  144.0500   67.2970  219.0300 C   0  0  0  0  0  0  0  0  0  0  0  0
  145.0860   68.4100  219.2010 C   0  0  2  0  0  0  0  0  0  0  0  0
  145.9580   68.1260  220.2640 O   0  0  0  0  0  0  0  0  0  0  0  0
  144.2850   69.6930  219.4890 C   0  0  1  0  0  0  0  0  0  0  0  0
  144.7950   70.8610  218.6140 C   0  0  0  0  0  0  0  0  0  0  0  0
  144.9720   72.1380  219.3940 C   0  0  0  0  0  0  0  0  0  0  0  0
  145.9870   72.2460  220.3610 C   0  0  0  0  0  0  0  0  0  0  0  0
  146.1720   73.4440  221.0570 C   0  0  0  0  0  0  0  0  0  0  0  0
  145.3460   74.5400  220.7960 C   0  0  0  0  0  0  0  0  0  0  0  0
  144.3330   74.4400  219.8380 C   0  0  0  0  0  0  0  0  0  0  0  0
  144.1450   73.2440  219.1380 C   0  0  0  0  0  0  0  0  0  0  0  0
  140.2580   71.5180  223.0990 C   0  0  0  0  0  0  0  0  0  0  0  0
  139.6610   70.2590  222.9390 C   0  0  0  0  0  0  0  0  0  0  0  0
  139.5670   69.3940  224.0320 C   0  0  0  0  0  0  0  0  0  0  0  0
  140.0530   69.7960  225.2810 C   0  0  0  0  0  0  0  0  0  0  0  0
  139.9720   68.9530  226.4000 C   0  0  0  0  0  0  0  0  0  0  0  0
  140.4590   69.3870  227.6390 C   0  0  0  0  0  0  0  0  0  0  0  0
  140.3600   68.3330  229.0370 Cl  0  0  0  0  0  0  0  0  0  0  0  0
  141.0280   70.6610  227.7620 C   0  0  0  0  0  0  0  0  0  0  0  0
  141.1100   71.5060  226.6520 C   0  0  0  0  0  0  0  0  0  0  0  0
  140.6250   71.0800  225.4100 C   0  0  0  0  0  0  0  0  0  0  0  0
  140.7050   71.9000  224.3280 N   0  0  0  0  0  0  0  0  0  0  0  0
  142.4574   72.1602  219.5213 H   0  0  0  0  0  0  0  0  0  0  0  0
  142.6202   71.3865  221.1362 H   0  0  0  0  0  0  0  0  0  0  0  0
  141.9028   67.5037  219.2158 H   0  0  0  0  0  0  0  0  0  0  0  0
  142.5210   67.9624  217.6238 H   0  0  0  0  0  0  0  0  0  0  0  0
  143.9520   66.7187  219.9606 H   0  0  0  0  0  0  0  0  0  0  0  0
  144.3417   66.5908  218.2387 H   0  0  0  0  0  0  0  0  0  0  0  0
  145.7092   68.5143  218.3006 H   0  0  0  0  0  0  0  0  0  0  0  0
  146.2280   67.1760  220.1620 H   0  0  0  0  0  0  0  0  0  0  0  0
  144.3928   70.0222  220.5330 H   0  0  0  0  0  0  0  0  0  0  0  0
  145.7646   70.5773  218.1787 H   0  0  0  0  0  0  0  0  0  0  0  0
  144.0393   71.0485  217.8369 H   0  0  0  0  0  0  0  0  0  0  0  0
  146.6380   71.3844  220.5706 H   0  0  0  0  0  0  0  0  0  0  0  0
  146.9689   73.5239  221.8111 H   0  0  0  0  0  0  0  0  0  0  0  0
  145.4928   75.4821  221.3446 H   0  0  0  0  0  0  0  0  0  0  0  0
  143.6826   75.3035  219.6344 H   0  0  0  0  0  0  0  0  0  0  0  0
  143.3470   73.1692  218.3846 H   0  0  0  0  0  0  0  0  0  0  0  0
  139.2687   69.9541  221.9576 H   0  0  0  0  0  0  0  0  0  0  0  0
  139.1122   68.3997  223.9110 H   0  0  0  0  0  0  0  0  0  0  0  0
  139.5262   67.9520  226.3038 H   0  0  0  0  0  0  0  0  0  0  0  0
  141.4119   70.9977  228.7363 H   0  0  0  0  0  0  0  0  0  0  0  0
  141.5559   72.5064  226.7543 H   0  0  0  0  0  0  0  0  0  0  0  0
  1  2  2  0
  2  3  1  0
  3  4  1  0
  4  5  1  0
  5  6  2  0
  5  7  1  0
  7  8  1  0
  8  9  1  0
  9 10  1  0
 10 11  1  0
 10 12  1  0
 12 13  1  0
 13 14  1  0
 14 15  2  0
 15 16  1  0
 16 17  2  0
 17 18  1  0
 18 19  2  0
  2 20  1  0
 20 21  2  0
 21 22  1  0
 22 23  2  0
 23 24  1  0
 24 25  2  0
 25 26  1  0
 25 27  1  0
 27 28  2  0
 28 29  1  0
 29 30  2  0
 12  7  1  0
 19 14  1  0
 30 20  1  0
 29 23  1  0
  4 31  1  0
  4 32  1  0
  8 33  1  0
  8 34  1  0
  9 35  1  0
  9 36  1  0
 10 37  1  6
 11 38  1  0
 12 39  1  1
 13 40  1  0
 13 41  1  0
 15 42  1  0
 16 43  1  0
 17 44  1  0
 18 45  1  0
 19 46  1  0
 21 47  1  0
 22 48  1  0
 24 49  1  0
 27 50  1  0
 28 51  1  0
M  CHG  1   3  -1
M  END
>  <meeko>  (16) 
{"free_energy": -8.36, "intermolecular_energy": -10.75, "internal_energy": -1.33, "cluster_size": 2, "cluster_id": 3, "rank_in_cluster": 1}

$$$$

     RDKit          3D

 51 54  0  0  0  0  0  0  0  0999 V2000
  139.9110   74.0970  221.9970 O   0  0  0  0  0  0  0  0  0  0  0  0
  140.1920   72.8980  221.7400 C   0  0  0  0  0  0  0  0  0  0  0  0
  140.6020   72.5560  220.4100 N   0  0  0  0  0  0  0  0  0  0  0  0
  140.9710   71.2140  219.9700 C   0  0  0  0  0  0  0  0  0  0  0  0
  142.3830   70.9190  220.3780 C   0  0  0  0  0  0  0  0  0  0  0  0
  142.8790   71.5240  221.3670 O   0  0  0  0  0  0  0  0  0  0  0  0
  143.1560   69.9220  219.6860 N   0  0  0  0  0  0  0  0  0  0  0  0
  142.5590   68.6870  219.2040 C   0  0  0  0  0  0  0  0  0  0  0  0
  143.6720   67.6540  219.2390 C   0  0  0  0  0  0  0  0  0  0  0  0
  144.9800   68.4490  219.2390 C   0  0  2  0  0  0  0  0  0  0  0  0
  145.9250   67.8630  220.0950 O   0  0  0  0  0  0  0  0  0  0  0  0
  144.6150   69.8630  219.7270 C   0  0  1  0  0  0  0  0  0  0  0  0
  145.2460   70.9350  218.8090 C   0  0  0  0  0  0  0  0  0  0  0  0
  145.1020   72.3300  219.3600 C   0  0  0  0  0  0  0  0  0  0  0  0
  144.1360   73.2060  218.8350 C   0  0  0  0  0  0  0  0  0  0  0  0
  143.9800   74.4880  219.3730 C   0  0  0  0  0  0  0  0  0  0  0  0
  144.7880   74.9040  220.4340 C   0  0  0  0  0  0  0  0  0  0  0  0
  145.7540   74.0400  220.9600 C   0  0  0  0  0  0  0  0  0  0  0  0
  145.9110   72.7580  220.4260 C   0  0  0  0  0  0  0  0  0  0  0  0
  140.1310   71.9050  222.8250 C   0  0  0  0  0  0  0  0  0  0  0  0
  139.5340   70.6500  222.6290 C   0  0  0  0  0  0  0  0  0  0  0  0
  139.4740   69.7410  223.6870 C   0  0  0  0  0  0  0  0  0  0  0  0
  139.9930   70.0920  224.9380 C   0  0  0  0  0  0  0  0  0  0  0  0
  139.9460   69.2040  226.0240 C   0  0  0  0  0  0  0  0  0  0  0  0
  140.4670   69.5890  227.2650 C   0  0  0  0  0  0  0  0  0  0  0  0
  140.4110   68.4770  228.6200 Cl  0  0  0  0  0  0  0  0  0  0  0  0
  141.0340   70.8590  227.4250 C   0  0  0  0  0  0  0  0  0  0  0  0
  141.0820   71.7500  226.3490 C   0  0  0  0  0  0  0  0  0  0  0  0
  140.5630   71.3730  225.1050 C   0  0  0  0  0  0  0  0  0  0  0  0
  140.6100   72.2370  224.0560 N   0  0  0  0  0  0  0  0  0  0  0  0
  140.2956   70.4790  220.4323 H   0  0  0  0  0  0  0  0  0  0  0  0
  140.8881   71.1540  218.8748 H   0  0  0  0  0  0  0  0  0  0  0  0
  141.7299   68.3803  219.8586 H   0  0  0  0  0  0  0  0  0  0  0  0
  142.1438   68.8036  218.1921 H   0  0  0  0  0  0  0  0  0  0  0  0
  143.5967   67.0407  220.1490 H   0  0  0  0  0  0  0  0  0  0  0  0
  143.6151   66.9687  218.3804 H   0  0  0  0  0  0  0  0  0  0  0  0
  145.4322   68.4692  218.2365 H   0  0  0  0  0  0  0  0  0  0  0  0
  145.8680   66.8820  219.9510 H   0  0  0  0  0  0  0  0  0  0  0  0
  144.9963   70.0620  220.7394 H   0  0  0  0  0  0  0  0  0  0  0  0
  146.3167   70.7118  218.6916 H   0  0  0  0  0  0  0  0  0  0  0  0
  144.7156   70.9017  217.8459 H   0  0  0  0  0  0  0  0  0  0  0  0
  143.5002   72.8822  217.9978 H   0  0  0  0  0  0  0  0  0  0  0  0
  143.2208   75.1687  218.9604 H   0  0  0  0  0  0  0  0  0  0  0  0
  144.6644   75.9122  220.8562 H   0  0  0  0  0  0  0  0  0  0  0  0
  146.3905   74.3697  221.7944 H   0  0  0  0  0  0  0  0  0  0  0  0
  146.6715   72.0809  220.8422 H   0  0  0  0  0  0  0  0  0  0  0  0
  139.1156   70.3840  221.6471 H   0  0  0  0  0  0  0  0  0  0  0  0
  139.0195   68.7505  223.5373 H   0  0  0  0  0  0  0  0  0  0  0  0
  139.5000   68.2061  225.9000 H   0  0  0  0  0  0  0  0  0  0  0  0
  141.4434   71.1570  228.4015 H   0  0  0  0  0  0  0  0  0  0  0  0
  141.5275   72.7472  226.4799 H   0  0  0  0  0  0  0  0  0  0  0  0
  1  2  2  0
  2  3  1  0
  3  4  1  0
  4  5  1  0
  5  6  2  0
  5  7  1  0
  7  8  1  0
  8  9  1  0
  9 10  1  0
 10 11  1  0
 10 12  1  0
 12 13  1  0
 13 14  1  0
 14 15  2  0
 15 16  1  0
 16 17  2  0
 17 18  1  0
 18 19  2  0
  2 20  1  0
 20 21  2  0
 21 22  1  0
 22 23  2  0
 23 24  1  0
 24 25  2  0
 25 26  1  0
 25 27  1  0
 27 28  2  0
 28 29  1  0
 29 30  2  0
 12  7  1  0
 19 14  1  0
 30 20  1  0
 29 23  1  0
  4 31  1  0
  4 32  1  0
  8 33  1  0
  8 34  1  0
  9 35  1  0
  9 36  1  0
 10 37  1  6
 11 38  1  0
 12 39  1  1
 13 40  1  0
 13 41  1  0
 15 42  1  0
 16 43  1  0
 17 44  1  0
 18 45  1  0
 19 46  1  0
 21 47  1  0
 22 48  1  0
 24 49  1  0
 27 50  1  0
 28 51  1  0
M  CHG  1   3  -1
M  END
>  <meeko>  (17) 
{"free_energy": -8.12, "intermolecular_energy": -10.51, "internal_energy": -1.7, "cluster_size": 2, "cluster_id": 3, "rank_in_cluster": 2}

$$$$

     RDKit          3D

 51 54  0  0  0  0  0  0  0  0999 V2000
  140.0630   74.1340  222.2320 O   0  0  0  0  0  0  0  0  0  0  0  0
  140.0410   72.9160  221.9150 C   0  0  0  0  0  0  0  0  0  0  0  0
  140.0450   72.5650  220.5260 N   0  0  0  0  0  0  0  0  0  0  0  0
  140.3490   73.4840  219.4340 C   0  0  0  0  0  0  0  0  0  0  0  0
  141.6880   73.1510  218.8500 C   0  0  0  0  0  0  0  0  0  0  0  0
  141.7660   72.8170  217.6360 O   0  0  0  0  0  0  0  0  0  0  0  0
  142.8840   73.2540  219.6430 N   0  0  0  0  0  0  0  0  0  0  0  0
  143.2190   74.4680  220.3690 C   0  0  0  0  0  0  0  0  0  0  0  0
  144.7370   74.5020  220.4300 C   0  0  0  0  0  0  0  0  0  0  0  0
  145.1960   73.0600  220.2010 C   0  0  2  0  0  0  0  0  0  0  0  0
  146.3420   73.0200  219.3900 O   0  0  0  0  0  0  0  0  0  0  0  0
  144.0210   72.3470  219.5080 C   0  0  1  0  0  0  0  0  0  0  0  0
  143.7360   70.9860  220.1830 C   0  0  0  0  0  0  0  0  0  0  0  0
  144.5580   69.8650  219.6010 C   0  0  0  0  0  0  0  0  0  0  0  0
  145.4990   70.1230  218.5890 C   0  0  0  0  0  0  0  0  0  0  0  0
  146.2860   69.0870  218.0770 C   0  0  0  0  0  0  0  0  0  0  0  0
  146.1360   67.7870  218.5670 C   0  0  0  0  0  0  0  0  0  0  0  0
  145.2010   67.5210  219.5710 C   0  0  0  0  0  0  0  0  0  0  0  0
  144.4130   68.5540  220.0870 C   0  0  0  0  0  0  0  0  0  0  0  0
  140.0570   71.9030  222.9830 C   0  0  0  0  0  0  0  0  0  0  0  0
  139.5480   70.6130  222.7690 C   0  0  0  0  0  0  0  0  0  0  0  0
  139.5590   69.6840  223.8120 C   0  0  0  0  0  0  0  0  0  0  0  0
  140.0600   70.0500  225.0660 C   0  0  0  0  0  0  0  0  0  0  0  0
  140.0830   69.1430  226.1360 C   0  0  0  0  0  0  0  0  0  0  0  0
  140.5830   69.5420  227.3810 C   0  0  0  0  0  0  0  0  0  0  0  0
  140.6140   68.4070  228.7170 Cl  0  0  0  0  0  0  0  0  0  0  0  0
  141.0610   70.8460  227.5600 C   0  0  0  0  0  0  0  0  0  0  0  0
  141.0400   71.7560  226.4990 C   0  0  0  0  0  0  0  0  0  0  0  0
  140.5410   71.3650  225.2510 C   0  0  0  0  0  0  0  0  0  0  0  0
  140.5200   72.2470  224.2170 N   0  0  0  0  0  0  0  0  0  0  0  0
  139.5778   73.3935  218.6549 H   0  0  0  0  0  0  0  0  0  0  0  0
  140.3663   74.5140  219.8196 H   0  0  0  0  0  0  0  0  0  0  0  0
  142.8362   75.3515  219.8371 H   0  0  0  0  0  0  0  0  0  0  0  0
  142.7710   74.4782  221.3736 H   0  0  0  0  0  0  0  0  0  0  0  0
  145.1372   75.1606  219.6451 H   0  0  0  0  0  0  0  0  0  0  0  0
  145.0948   74.8925  221.3941 H   0  0  0  0  0  0  0  0  0  0  0  0
  145.4634   72.5729  221.1504 H   0  0  0  0  0  0  0  0  0  0  0  0
  146.3940   73.8980  218.9310 H   0  0  0  0  0  0  0  0  0  0  0  0
  144.2361   72.1274  218.4518 H   0  0  0  0  0  0  0  0  0  0  0  0
  143.9651   71.0703  221.2556 H   0  0  0  0  0  0  0  0  0  0  0  0
  142.6765   70.7452  220.0111 H   0  0  0  0  0  0  0  0  0  0  0  0
  145.6167   71.1445  218.1982 H   0  0  0  0  0  0  0  0  0  0  0  0
  147.0236   69.2954  217.2880 H   0  0  0  0  0  0  0  0  0  0  0  0
  146.7544   66.9723  218.1621 H   0  0  0  0  0  0  0  0  0  0  0  0
  145.0849   66.4971  219.9559 H   0  0  0  0  0  0  0  0  0  0  0  0
  143.6770   68.3402  220.8760 H   0  0  0  0  0  0  0  0  0  0  0  0
  139.1425   70.3348  221.7850 H   0  0  0  0  0  0  0  0  0  0  0  0
  139.1745   68.6666  223.6478 H   0  0  0  0  0  0  0  0  0  0  0  0
  139.7081   68.1183  225.9966 H   0  0  0  0  0  0  0  0  0  0  0  0
  141.4546   71.1555  228.5394 H   0  0  0  0  0  0  0  0  0  0  0  0
  141.4157   72.7795  226.6449 H   0  0  0  0  0  0  0  0  0  0  0  0
  1  2  2  0
  2  3  1  0
  3  4  1  0
  4  5  1  0
  5  6  2  0
  5  7  1  0
  7  8  1  0
  8  9  1  0
  9 10  1  0
 10 11  1  0
 10 12  1  0
 12 13  1  0
 13 14  1  0
 14 15  2  0
 15 16  1  0
 16 17  2  0
 17 18  1  0
 18 19  2  0
  2 20  1  0
 20 21  2  0
 21 22  1  0
 22 23  2  0
 23 24  1  0
 24 25  2  0
 25 26  1  0
 25 27  1  0
 27 28  2  0
 28 29  1  0
 29 30  2  0
 12  7  1  0
 19 14  1  0
 30 20  1  0
 29 23  1  0
  4 31  1  0
  4 32  1  0
  8 33  1  0
  8 34  1  0
  9 35  1  0
  9 36  1  0
 10 37  1  1
 11 38  1  0
 12 39  1  6
 13 40  1  0
 13 41  1  0
 15 42  1  0
 16 43  1  0
 17 44  1  0
 18 45  1  0
 19 46  1  0
 21 47  1  0
 22 48  1  0
 24 49  1  0
 27 50  1  0
 28 51  1  0
M  CHG  1   3  -1
M  END
>  <meeko>  (18) 
{"free_energy": -8.63, "intermolecular_energy": -11.01, "internal_energy": -1.51, "cluster_size": 3, "cluster_id": 1, "rank_in_cluster": 3}

$$$$

     RDKit          3D

 51 54  0  0  0  0  0  0  0  0999 V2000
  138.6830   72.3730  221.3370 O   0  0  0  0  0  0  0  0  0  0  0  0
  139.5690   72.5630  222.2120 C   0  0  0  0  0  0  0  0  0  0  0  0
  140.3340   73.7730  222.1660 N   0  0  0  0  0  0  0  0  0  0  0  0
  139.7780   75.1040  221.9430 C   0  0  0  0  0  0  0  0  0  0  0  0
  139.5810   75.3300  220.4750 C   0  0  0  0  0  0  0  0  0  0  0  0
  138.4430   75.1360  219.9680 O   0  0  0  0  0  0  0  0  0  0  0  0
  140.6600   75.8100  219.6520 N   0  0  0  0  0  0  0  0  0  0  0  0
  141.0240   75.1560  218.4060 C   0  0  0  0  0  0  0  0  0  0  0  0
  142.5130   75.4030  218.2340 C   0  0  0  0  0  0  0  0  0  0  0  0
  142.8380   76.6190  219.1050 C   0  0  2  0  0  0  0  0  0  0  0  0
  144.0730   76.4580  219.7520 O   0  0  0  0  0  0  0  0  0  0  0  0
  141.6980   76.7180  220.1350 C   0  0  1  0  0  0  0  0  0  0  0  0
  141.1760   78.1690  220.2300 C   0  0  0  0  0  0  0  0  0  0  0  0
  141.6010   78.8590  221.5010 C   0  0  0  0  0  0  0  0  0  0  0  0
  142.1160   80.1660  221.4630 C   0  0  0  0  0  0  0  0  0  0  0  0
  142.4760   80.8160  222.6480 C   0  0  0  0  0  0  0  0  0  0  0  0
  142.3280   80.1660  223.8760 C   0  0  0  0  0  0  0  0  0  0  0  0
  141.8190   78.8650  223.9220 C   0  0  0  0  0  0  0  0  0  0  0  0
  141.4560   78.2120  222.7400 C   0  0  0  0  0  0  0  0  0  0  0  0
  139.7510   71.5550  223.2690 C   0  0  0  0  0  0  0  0  0  0  0  0
  139.3570   70.2220  223.0780 C   0  0  0  0  0  0  0  0  0  0  0  0
  139.5250   69.2970  224.1110 C   0  0  0  0  0  0  0  0  0  0  0  0
  140.0660   69.7090  225.3330 C   0  0  0  0  0  0  0  0  0  0  0  0
  140.2450   68.8060  226.3930 C   0  0  0  0  0  0  0  0  0  0  0  0
  140.7820   69.2510  227.6070 C   0  0  0  0  0  0  0  0  0  0  0  0
  141.0080   68.1220  228.9300 Cl  0  0  0  0  0  0  0  0  0  0  0  0
  141.1410   70.5950  227.7650 C   0  0  0  0  0  0  0  0  0  0  0  0
  140.9650   71.5000  226.7140 C   0  0  0  0  0  0  0  0  0  0  0  0
  140.4280   71.0640  225.4980 C   0  0  0  0  0  0  0  0  0  0  0  0
  140.2550   71.9410  224.4740 N   0  0  0  0  0  0  0  0  0  0  0  0
  138.8100   75.1869  222.4588 H   0  0  0  0  0  0  0  0  0  0  0  0
  140.4730   75.8597  222.3377 H   0  0  0  0  0  0  0  0  0  0  0  0
  140.8181   74.0770  218.4644 H   0  0  0  0  0  0  0  0  0  0  0  0
  140.4458   75.5485  217.5566 H   0  0  0  0  0  0  0  0  0  0  0  0
  143.0877   74.5271  218.5694 H   0  0  0  0  0  0  0  0  0  0  0  0
  142.7749   75.5785  217.1802 H   0  0  0  0  0  0  0  0  0  0  0  0
  142.9168   77.5330  218.4981 H   0  0  0  0  0  0  0  0  0  0  0  0
  144.0770   77.0920  220.5160 H   0  0  0  0  0  0  0  0  0  0  0  0
  142.0301   76.4444  221.1473 H   0  0  0  0  0  0  0  0  0  0  0  0
  141.5644   78.7393  219.3733 H   0  0  0  0  0  0  0  0  0  0  0  0
  140.0768   78.1271  220.2267 H   0  0  0  0  0  0  0  0  0  0  0  0
  142.2364   80.6797  220.4978 H   0  0  0  0  0  0  0  0  0  0  0  0
  142.8761   81.8401  222.6132 H   0  0  0  0  0  0  0  0  0  0  0  0
  142.6122   80.6784  224.8070 H   0  0  0  0  0  0  0  0  0  0  0  0
  141.7038   78.3541  224.8893 H   0  0  0  0  0  0  0  0  0  0  0  0
  141.0555   77.1883  222.7802 H   0  0  0  0  0  0  0  0  0  0  0  0
  138.9181   69.9071  222.1198 H   0  0  0  0  0  0  0  0  0  0  0  0
  139.2324   68.2469  223.9637 H   0  0  0  0  0  0  0  0  0  0  0  0
  139.9636   67.7498  226.2698 H   0  0  0  0  0  0  0  0  0  0  0  0
  141.5634   70.9404  228.7202 H   0  0  0  0  0  0  0  0  0  0  0  0
  141.2488   72.5549  226.8432 H   0  0  0  0  0  0  0  0  0  0  0  0
  1  2  2  0
  2  3  1  0
  3  4  1  0
  4  5  1  0
  5  6  2  0
  5  7  1  0
  7  8  1  0
  8  9  1  0
  9 10  1  0
 10 11  1  0
 10 12  1  0
 12 13  1  0
 13 14  1  0
 14 15  2  0
 15 16  1  0
 16 17  2  0
 17 18  1  0
 18 19  2  0
  2 20  1  0
 20 21  2  0
 21 22  1  0
 22 23  2  0
 23 24  1  0
 24 25  2  0
 25 26  1  0
 25 27  1  0
 27 28  2  0
 28 29  1  0
 29 30  2  0
 12  7  1  0
 19 14  1  0
 30 20  1  0
 29 23  1  0
  4 31  1  0
  4 32  1  0
  8 33  1  0
  8 34  1  0
  9 35  1  0
  9 36  1  0
 10 37  1  6
 11 38  1  0
 12 39  1  1
 13 40  1  0
 13 41  1  0
 15 42  1  0
 16 43  1  0
 17 44  1  0
 18 45  1  0
 19 46  1  0
 21 47  1  0
 22 48  1  0
 24 49  1  0
 27 50  1  0
 28 51  1  0
M  CHG  1   3  -1
M  END
>  <meeko>  (19) 
{"free_energy": -8.63, "intermolecular_energy": -11.02, "internal_energy": -1.26, "cluster_size": 8, "cluster_id": 2, "rank_in_cluster": 1}

$$$$

     RDKit          3D

 51 54  0  0  0  0  0  0  0  0999 V2000
  138.9610   72.3300  220.9550 O   0  0  0  0  0  0  0  0  0  0  0  0
  139.6550   72.6050  221.9690 C   0  0  0  0  0  0  0  0  0  0  0  0
  140.2490   73.9050  222.0660 N   0  0  0  0  0  0  0  0  0  0  0  0
  141.3900   74.3620  221.2790 C   0  0  0  0  0  0  0  0  0  0  0  0
  141.0000   75.5620  220.4710 C   0  0  0  0  0  0  0  0  0  0  0  0
  141.1710   75.5480  219.2220 O   0  0  0  0  0  0  0  0  0  0  0  0
  140.3900   76.7050  221.0980 N   0  0  0  0  0  0  0  0  0  0  0  0
  139.5850   76.5800  222.3020 C   0  0  0  0  0  0  0  0  0  0  0  0
  138.5710   77.7100  222.2340 C   0  0  0  0  0  0  0  0  0  0  0  0
  139.1620   78.7440  221.2720 C   0  0  2  0  0  0  0  0  0  0  0  0
  138.1650   79.2950  220.4520 O   0  0  0  0  0  0  0  0  0  0  0  0
  140.2000   77.9870  220.4240 C   0  0  1  0  0  0  0  0  0  0  0  0
  141.5230   78.7830  220.3470 C   0  0  0  0  0  0  0  0  0  0  0  0
  141.7560   79.6440  221.5610 C   0  0  0  0  0  0  0  0  0  0  0  0
  142.2270   79.0750  222.7570 C   0  0  0  0  0  0  0  0  0  0  0  0
  142.4760   79.8820  223.8720 C   0  0  0  0  0  0  0  0  0  0  0  0
  142.2540   81.2590  223.8010 C   0  0  0  0  0  0  0  0  0  0  0  0
  141.7830   81.8330  222.6160 C   0  0  0  0  0  0  0  0  0  0  0  0
  141.5340   81.0300  221.4990 C   0  0  0  0  0  0  0  0  0  0  0  0
  139.7900   71.5960  223.0320 C   0  0  0  0  0  0  0  0  0  0  0  0
  139.3640   70.2730  222.8360 C   0  0  0  0  0  0  0  0  0  0  0  0
  139.4880   69.3470  223.8740 C   0  0  0  0  0  0  0  0  0  0  0  0
  140.0180   69.7470  225.1050 C   0  0  0  0  0  0  0  0  0  0  0  0
  140.1520   68.8440  226.1710 C   0  0  0  0  0  0  0  0  0  0  0  0
  140.6790   69.2770  227.3930 C   0  0  0  0  0  0  0  0  0  0  0  0
  140.8500   68.1470  228.7230 Cl  0  0  0  0  0  0  0  0  0  0  0  0
  141.0710   70.6120  227.5550 C   0  0  0  0  0  0  0  0  0  0  0  0
  140.9380   71.5180  226.4990 C   0  0  0  0  0  0  0  0  0  0  0  0
  140.4120   71.0920  225.2740 C   0  0  0  0  0  0  0  0  0  0  0  0
  140.2830   71.9720  224.2440 N   0  0  0  0  0  0  0  0  0  0  0  0
  142.2162   74.6291  221.9544 H   0  0  0  0  0  0  0  0  0  0  0  0
  141.7109   73.5565  220.6021 H   0  0  0  0  0  0  0  0  0  0  0  0
  139.0740   75.6061  222.3230 H   0  0  0  0  0  0  0  0  0  0  0  0
  140.2007   76.6395  223.2116 H   0  0  0  0  0  0  0  0  0  0  0  0
  137.6084   77.3384  221.8527 H   0  0  0  0  0  0  0  0  0  0  0  0
  138.3808   78.1434  223.2270 H   0  0  0  0  0  0  0  0  0  0  0  0
  139.6184   79.5816  221.8199 H   0  0  0  0  0  0  0  0  0  0  0  0
  138.5170   80.1620  220.1230 H   0  0  0  0  0  0  0  0  0  0  0  0
  139.8639   77.8478  219.3859 H   0  0  0  0  0  0  0  0  0  0  0  0
  142.3568   78.0714  220.2552 H   0  0  0  0  0  0  0  0  0  0  0  0
  141.4588   79.4499  219.4746 H   0  0  0  0  0  0  0  0  0  0  0  0
  142.4005   77.9904  222.8163 H   0  0  0  0  0  0  0  0  0  0  0  0
  142.8467   79.4321  224.8048 H   0  0  0  0  0  0  0  0  0  0  0  0
  142.4499   81.8929  224.6784 H   0  0  0  0  0  0  0  0  0  0  0  0
  141.6082   82.9177  222.5627 H   0  0  0  0  0  0  0  0  0  0  0  0
  141.1631   81.4847  220.5686 H   0  0  0  0  0  0  0  0  0  0  0  0
  138.9349   69.9673  221.8703 H   0  0  0  0  0  0  0  0  0  0  0  0
  139.1694   68.3049  223.7237 H   0  0  0  0  0  0  0  0  0  0  0  0
  139.8427   67.7958  226.0460 H   0  0  0  0  0  0  0  0  0  0  0  0
  141.4851   70.9486  228.5169 H   0  0  0  0  0  0  0  0  0  0  0  0
  141.2467   72.5656  226.6307 H   0  0  0  0  0  0  0  0  0  0  0  0
  1  2  2  0
  2  3  1  0
  3  4  1  0
  4  5  1  0
  5  6  2  0
  5  7  1  0
  7  8  1  0
  8  9  1  0
  9 10  1  0
 10 11  1  0
 10 12  1  0
 12 13  1  0
 13 14  1  0
 14 15  2  0
 15 16  1  0
 16 17  2  0
 17 18  1  0
 18 19  2  0
  2 20  1  0
 20 21  2  0
 21 22  1  0
 22 23  2  0
 23 24  1  0
 24 25  2  0
 25 26  1  0
 25 27  1  0
 27 28  2  0
 28 29  1  0
 29 30  2  0
 12  7  1  0
 19 14  1  0
 30 20  1  0
 29 23  1  0
  4 31  1  0
  4 32  1  0
  8 33  1  0
  8 34  1  0
  9 35  1  0
  9 36  1  0
 10 37  1  1
 11 38  1  0
 12 39  1  6
 13 40  1  0
 13 41  1  0
 15 42  1  0
 16 43  1  0
 17 44  1  0
 18 45  1  0
 19 46  1  0
 21 47  1  0
 22 48  1  0
 24 49  1  0
 27 50  1  0
 28 51  1  0
M  CHG  1   3  -1
M  END
>  <meeko>  (20) 
{"free_energy": -8.0, "intermolecular_energy": -10.38, "internal_energy": -1.26, "cluster_size": 8, "cluster_id": 2, "rank_in_cluster": 7}

$$$$
