
     RDKit          3D

 47 50  0  0  0  0  0  0  0  0999 V2000
  139.0310   72.0330  220.8070 O   0  0  0  0  0  0  0  0  0  0  0  0
  139.2860   72.4460  221.9710 C   0  0  0  0  0  0  0  0  0  0  0  0
  139.4080   73.8560  222.2190 N   0  0  0  0  0  0  0  0  0  0  0  0
  139.2910   74.8550  221.1620 C   0  0  0  0  0  0  0  0  0  0  0  0
  140.2560   74.5840  220.0320 C   0  0  0  0  0  0  0  0  0  0  0  0
  139.7740   73.7950  218.9810 O   0  0  0  0  0  0  0  0  0  0  0  0
  141.4810   75.0670  220.0110 N   0  0  0  0  0  0  0  0  0  0  0  0
  142.6620   74.2550  220.2920 C   0  0  0  0  0  0  0  0  0  0  0  0
  143.8670   75.1650  220.0840 C   0  0  0  0  0  0  0  0  0  0  0  0
  143.3410   76.3590  219.3000 C   0  0  0  0  0  0  0  0  0  0  0  0
  141.8520   76.4340  219.6290 C   0  0  2  0  0  0  0  0  0  0  0  0
  141.6250   77.3940  220.7700 C   0  0  0  0  0  0  0  0  0  0  0  0
  141.8210   78.7310  220.5990 N   0  0  0  0  0  0  0  0  0  0  0  0
  141.5680   79.6100  221.6020 C   0  0  0  0  0  0  0  0  0  0  0  0
  141.0830   79.1490  222.8230 C   0  0  0  0  0  0  0  0  0  0  0  0
  140.8240   80.0110  223.8370 F   0  0  0  0  0  0  0  0  0  0  0  0
  140.8760   77.7790  222.9820 C   0  0  0  0  0  0  0  0  0  0  0  0
  141.1440   76.9310  221.9550 N   0  0  0  0  0  0  0  0  0  0  0  0
  139.4720   71.4750  223.0720 C   0  0  0  0  0  0  0  0  0  0  0  0
  139.1090   70.1270  222.9170 C   0  0  0  0  0  0  0  0  0  0  0  0
  139.3290   69.2270  223.9640 C   0  0  0  0  0  0  0  0  0  0  0  0
  139.9050   69.6740  225.1580 C   0  0  0  0  0  0  0  0  0  0  0  0
  140.1500   68.7950  226.2230 C   0  0  0  0  0  0  0  0  0  0  0  0
  140.7360   69.2720  227.4020 C   0  0  0  0  0  0  0  0  0  0  0  0
  141.0460   68.1720  228.7330 Cl  0  0  0  0  0  0  0  0  0  0  0  0
  141.0770   70.6240  227.5190 C   0  0  0  0  0  0  0  0  0  0  0  0
  140.8330   71.5060  226.4620 C   0  0  0  0  0  0  0  0  0  0  0  0
  140.2480   71.0370  225.2810 C   0  0  0  0  0  0  0  0  0  0  0  0
  140.0250   71.8890  224.2450 N   0  0  0  0  0  0  0  0  0  0  0  0
  139.5510   74.1970  223.1950 H   0  0  0  0  0  0  0  0  0  0  0  0
  138.2646   74.8381  220.7668 H   0  0  0  0  0  0  0  0  0  0  0  0
  139.5306   75.8393  221.5906 H   0  0  0  0  0  0  0  0  0  0  0  0
  139.2160   72.9620  219.1130 H   0  0  0  0  0  0  0  0  0  0  0  0
  142.6351   73.8900  221.3293 H   0  0  0  0  0  0  0  0  0  0  0  0
  142.7076   73.3749  219.6337 H   0  0  0  0  0  0  0  0  0  0  0  0
  144.2755   75.4900  221.0522 H   0  0  0  0  0  0  0  0  0  0  0  0
  144.6804   74.6514  219.5505 H   0  0  0  0  0  0  0  0  0  0  0  0
  143.8517   77.2812  219.6141 H   0  0  0  0  0  0  0  0  0  0  0  0
  143.5169   76.2494  218.2197 H   0  0  0  0  0  0  0  0  0  0  0  0
  141.2489   76.7973  218.7838 H   0  0  0  0  0  0  0  0  0  0  0  0
  141.7459   80.6849  221.4504 H   0  0  0  0  0  0  0  0  0  0  0  0
  140.4966   77.3860  223.9368 H   0  0  0  0  0  0  0  0  0  0  0  0
  138.6541   69.7813  221.9770 H   0  0  0  0  0  0  0  0  0  0  0  0
  139.0497   68.1693  223.8492 H   0  0  0  0  0  0  0  0  0  0  0  0
  139.8821   67.7320  226.1323 H   0  0  0  0  0  0  0  0  0  0  0  0
  141.5388   70.9943  228.4461 H   0  0  0  0  0  0  0  0  0  0  0  0
  141.1009   72.5684  226.5590 H   0  0  0  0  0  0  0  0  0  0  0  0
  1  2  2  0
  2  3  1  0
  3  4  1  0
  4  5  1  0
  5  6  1  0
  5  7  2  0
  7  8  1  0
  8  9  1  0
  9 10  1  0
 10 11  1  0
 11 12  1  0
 12 13  2  0
 13 14  1  0
 14 15  2  0
 15 16  1  0
 15 17  1  0
 17 18  2  0
  2 19  1  0
 19 20  2  0
 20 21  1  0
 21 22  2  0
 22 23  1  0
 23 24  2  0
 24 25  1  0
 24 26  1  0
 26 27  2  0
 27 28  1  0
 28 29  2  0
 11  7  1  0
 18 12  1  0
 29 19  1  0
 28 22  1  0
  3 30  1  0
  4 31  1  0
  4 32  1  0
  6 33  1  0
  8 34  1  0
  8 35  1  0
  9 36  1  0
  9 37  1  0
 10 38  1  0
 10 39  1  0
 11 40  1  6
 14 41  1  0
 17 42  1  0
 20 43  1  0
 21 44  1  0
 23 45  1  0
 26 46  1  0
 27 47  1  0
M  CHG  1   7   1
M  END
>  <meeko>  (1) 
{"free_energy": -7.33, "intermolecular_energy": -9.12, "internal_energy": -2.07, "cluster_size": 20, "cluster_id": 1, "rank_in_cluster": 17}

$$$$

     RDKit          3D

 47 50  0  0  0  0  0  0  0  0999 V2000
  140.2260   72.3790  220.5680 O   0  0  0  0  0  0  0  0  0  0  0  0
  140.0070   72.7970  221.7370 C   0  0  0  0  0  0  0  0  0  0  0  0
  139.8310   74.2030  221.9740 N   0  0  0  0  0  0  0  0  0  0  0  0
  139.9370   75.2010  220.9130 C   0  0  0  0  0  0  0  0  0  0  0  0
  140.7610   76.3890  221.3480 C   0  0  0  0  0  0  0  0  0  0  0  0
  141.0420   76.4810  222.7160 O   0  0  0  0  0  0  0  0  0  0  0  0
  141.2130   77.2900  220.5010 N   0  0  0  0  0  0  0  0  0  0  0  0
  142.2490   77.0060  219.5120 C   0  0  0  0  0  0  0  0  0  0  0  0
  142.4180   78.2790  218.6900 C   0  0  0  0  0  0  0  0  0  0  0  0
  141.1830   79.1180  218.9850 C   0  0  0  0  0  0  0  0  0  0  0  0
  140.7030   78.6580  220.3600 C   0  0  2  0  0  0  0  0  0  0  0  0
  141.2690   79.5590  221.4290 C   0  0  0  0  0  0  0  0  0  0  0  0
  140.9830   80.8900  221.4360 N   0  0  0  0  0  0  0  0  0  0  0  0
  141.4420   81.7010  222.4240 C   0  0  0  0  0  0  0  0  0  0  0  0
  142.2030   81.1670  223.4610 C   0  0  0  0  0  0  0  0  0  0  0  0
  142.6710   81.9600  224.4570 F   0  0  0  0  0  0  0  0  0  0  0  0
  142.4800   79.8000  223.4490 C   0  0  0  0  0  0  0  0  0  0  0  0
  142.0040   79.0230  222.4410 N   0  0  0  0  0  0  0  0  0  0  0  0
  139.9460   71.8380  222.8610 C   0  0  0  0  0  0  0  0  0  0  0  0
  139.3820   70.5620  222.6950 C   0  0  0  0  0  0  0  0  0  0  0  0
  139.3700   69.6660  223.7670 C   0  0  0  0  0  0  0  0  0  0  0  0
  139.9170   70.0440  224.9980 C   0  0  0  0  0  0  0  0  0  0  0  0
  139.9330   69.1640  226.0900 C   0  0  0  0  0  0  0  0  0  0  0  0
  140.4950   69.5700  227.3070 C   0  0  0  0  0  0  0  0  0  0  0  0
  140.5180   68.4680  228.6720 Cl  0  0  0  0  0  0  0  0  0  0  0  0
  141.0420   70.8520  227.4340 C   0  0  0  0  0  0  0  0  0  0  0  0
  141.0280   71.7350  226.3490 C   0  0  0  0  0  0  0  0  0  0  0  0
  140.4670   71.3360  225.1310 C   0  0  0  0  0  0  0  0  0  0  0  0
  140.4670   72.1860  224.0700 N   0  0  0  0  0  0  0  0  0  0  0  0
  139.5820   74.5380  222.9310 H   0  0  0  0  0  0  0  0  0  0  0  0
  140.4120   74.7394  220.0348 H   0  0  0  0  0  0  0  0  0  0  0  0
  138.9240   75.5549  220.6709 H   0  0  0  0  0  0  0  0  0  0  0  0
  141.8500   76.9580  223.0940 H   0  0  0  0  0  0  0  0  0  0  0  0
  143.1936   76.7484  220.0134 H   0  0  0  0  0  0  0  0  0  0  0  0
  141.9702   76.1535  218.8752 H   0  0  0  0  0  0  0  0  0  0  0  0
  143.3291   78.8152  218.9940 H   0  0  0  0  0  0  0  0  0  0  0  0
  142.5181   78.0621  217.6162 H   0  0  0  0  0  0  0  0  0  0  0  0
  141.4393   80.1876  219.0042 H   0  0  0  0  0  0  0  0  0  0  0  0
  140.4071   78.9906  218.2158 H   0  0  0  0  0  0  0  0  0  0  0  0
  139.6082   78.6940  220.4607 H   0  0  0  0  0  0  0  0  0  0  0  0
  141.2133   82.7768  222.4052 H   0  0  0  0  0  0  0  0  0  0  0  0
  143.0821   79.3522  224.2533 H   0  0  0  0  0  0  0  0  0  0  0  0
  138.9519   70.2697  221.7257 H   0  0  0  0  0  0  0  0  0  0  0  0
  138.9311   68.6649  223.6433 H   0  0  0  0  0  0  0  0  0  0  0  0
  139.5045   68.1558  225.9907 H   0  0  0  0  0  0  0  0  0  0  0  0
  141.4847   71.1665  228.3906 H   0  0  0  0  0  0  0  0  0  0  0  0
  141.4577   72.7422  226.4534 H   0  0  0  0  0  0  0  0  0  0  0  0
  1  2  2  0
  2  3  1  0
  3  4  1  0
  4  5  1  0
  5  6  1  0
  5  7  2  0
  7  8  1  0
  8  9  1  0
  9 10  1  0
 10 11  1  0
 11 12  1  0
 12 13  2  0
 13 14  1  0
 14 15  2  0
 15 16  1  0
 15 17  1  0
 17 18  2  0
  2 19  1  0
 19 20  2  0
 20 21  1  0
 21 22  2  0
 22 23  1  0
 23 24  2  0
 24 25  1  0
 24 26  1  0
 26 27  2  0
 27 28  1  0
 28 29  2  0
 11  7  1  0
 18 12  1  0
 29 19  1  0
 28 22  1  0
  3 30  1  0
  4 31  1  0
  4 32  1  0
  6 33  1  0
  8 34  1  0
  8 35  1  0
  9 36  1  0
  9 37  1  0
 10 38  1  0
 10 39  1  0
 11 40  1  6
 14 41  1  0
 17 42  1  0
 20 43  1  0
 21 44  1  0
 23 45  1  0
 26 46  1  0
 27 47  1  0
M  CHG  1   7   1
M  END
>  <meeko>  (2) 
{"free_energy": -8.45, "intermolecular_energy": -10.24, "internal_energy": -2.02, "cluster_size": 20, "cluster_id": 1, "rank_in_cluster": 2}

$$$$

     RDKit          3D

 47 50  0  0  0  0  0  0  0  0999 V2000
  140.2180   72.5110  220.6930 O   0  0  0  0  0  0  0  0  0  0  0  0
  139.9860   72.8900  221.8740 C   0  0  0  0  0  0  0  0  0  0  0  0
  139.7450   74.2800  222.1450 N   0  0  0  0  0  0  0  0  0  0  0  0
  139.7960   75.3060  221.1070 C   0  0  0  0  0  0  0  0  0  0  0  0
  141.2150   75.5910  220.6780 C   0  0  0  0  0  0  0  0  0  0  0  0
  142.1720   74.6270  221.0180 O   0  0  0  0  0  0  0  0  0  0  0  0
  141.5530   76.6730  220.0080 N   0  0  0  0  0  0  0  0  0  0  0  0
  142.5850   76.6820  218.9750 C   0  0  0  0  0  0  0  0  0  0  0  0
  142.6060   78.0940  218.4010 C   0  0  0  0  0  0  0  0  0  0  0  0
  141.3020   78.7350  218.8560 C   0  0  0  0  0  0  0  0  0  0  0  0
  140.9070   77.9850  220.1260 C   0  0  2  0  0  0  0  0  0  0  0  0
  141.4100   78.7280  221.3390 C   0  0  0  0  0  0  0  0  0  0  0  0
  141.3300   78.1670  222.5770 N   0  0  0  0  0  0  0  0  0  0  0  0
  141.8290   78.8030  223.6680 C   0  0  0  0  0  0  0  0  0  0  0  0
  142.4500   80.0410  223.5260 C   0  0  0  0  0  0  0  0  0  0  0  0
  142.9550   80.6910  224.6030 F   0  0  0  0  0  0  0  0  0  0  0  0
  142.5360   80.6000  222.2510 C   0  0  0  0  0  0  0  0  0  0  0  0
  142.0230   79.9330  221.1850 N   0  0  0  0  0  0  0  0  0  0  0  0
  139.9780   71.9030  222.9750 C   0  0  0  0  0  0  0  0  0  0  0  0
  139.5090   70.5940  222.7710 C   0  0  0  0  0  0  0  0  0  0  0  0
  139.5460   69.6740  223.8220 C   0  0  0  0  0  0  0  0  0  0  0  0
  140.0470   70.0610  225.0700 C   0  0  0  0  0  0  0  0  0  0  0  0
  140.1100   69.1590  226.1420 C   0  0  0  0  0  0  0  0  0  0  0  0
  140.6250   69.5760  227.3760 C   0  0  0  0  0  0  0  0  0  0  0  0
  140.7070   68.4470  228.7170 Cl  0  0  0  0  0  0  0  0  0  0  0  0
  141.0770   70.8900  227.5410 C   0  0  0  0  0  0  0  0  0  0  0  0
  141.0150   71.7950  226.4760 C   0  0  0  0  0  0  0  0  0  0  0  0
  140.5020   71.3860  225.2410 C   0  0  0  0  0  0  0  0  0  0  0  0
  140.4560   72.2580  224.1990 N   0  0  0  0  0  0  0  0  0  0  0  0
  139.4860   74.5800  223.1100 H   0  0  0  0  0  0  0  0  0  0  0  0
  139.2217   74.9605  220.2347 H   0  0  0  0  0  0  0  0  0  0  0  0
  139.3674   76.2324  221.5170 H   0  0  0  0  0  0  0  0  0  0  0  0
  142.0410   73.6330  220.8840 H   0  0  0  0  0  0  0  0  0  0  0  0
  143.5635   76.4344  219.4124 H   0  0  0  0  0  0  0  0  0  0  0  0
  142.3743   75.9367  218.1939 H   0  0  0  0  0  0  0  0  0  0  0  0
  143.4676   78.6554  218.7915 H   0  0  0  0  0  0  0  0  0  0  0  0
  142.6985   78.0886  217.3049 H   0  0  0  0  0  0  0  0  0  0  0  0
  141.4519   79.8035  219.0702 H   0  0  0  0  0  0  0  0  0  0  0  0
  140.5221   78.6721  218.0828 H   0  0  0  0  0  0  0  0  0  0  0  0
  139.8170   77.8906  220.2403 H   0  0  0  0  0  0  0  0  0  0  0  0
  141.7427   78.3408  224.6625 H   0  0  0  0  0  0  0  0  0  0  0  0
  143.0181   81.5785  222.1093 H   0  0  0  0  0  0  0  0  0  0  0  0
  139.1147   70.2951  221.7886 H   0  0  0  0  0  0  0  0  0  0  0  0
  139.1820   68.6474  223.6687 H   0  0  0  0  0  0  0  0  0  0  0  0
  139.7555   68.1256  226.0139 H   0  0  0  0  0  0  0  0  0  0  0  0
  141.4824   71.2124  228.5114 H   0  0  0  0  0  0  0  0  0  0  0  0
  141.3695   72.8276  226.6099 H   0  0  0  0  0  0  0  0  0  0  0  0
  1  2  2  0
  2  3  1  0
  3  4  1  0
  4  5  1  0
  5  6  1  0
  5  7  2  0
  7  8  1  0
  8  9  1  0
  9 10  1  0
 10 11  1  0
 11 12  1  0
 12 13  2  0
 13 14  1  0
 14 15  2  0
 15 16  1  0
 15 17  1  0
 17 18  2  0
  2 19  1  0
 19 20  2  0
 20 21  1  0
 21 22  2  0
 22 23  1  0
 23 24  2  0
 24 25  1  0
 24 26  1  0
 26 27  2  0
 27 28  1  0
 28 29  2  0
 11  7  1  0
 18 12  1  0
 29 19  1  0
 28 22  1  0
  3 30  1  0
  4 31  1  0
  4 32  1  0
  6 33  1  0
  8 34  1  0
  8 35  1  0
  9 36  1  0
  9 37  1  0
 10 38  1  0
 10 39  1  0
 11 40  1  1
 14 41  1  0
 17 42  1  0
 20 43  1  0
 21 44  1  0
 23 45  1  0
 26 46  1  0
 27 47  1  0
M  CHG  1   7   1
M  END
>  <meeko>  (3) 
{"free_energy": -8.03, "intermolecular_energy": -9.82, "internal_energy": -1.91, "cluster_size": 20, "cluster_id": 1, "rank_in_cluster": 9}

$$$$

     RDKit          3D

 47 50  0  0  0  0  0  0  0  0999 V2000
  139.2830   71.9300  220.6740 O   0  0  0  0  0  0  0  0  0  0  0  0
  139.3080   72.3600  221.8590 C   0  0  0  0  0  0  0  0  0  0  0  0
  139.1770   73.7690  222.1110 N   0  0  0  0  0  0  0  0  0  0  0  0
  139.0580   74.7540  221.0400 C   0  0  0  0  0  0  0  0  0  0  0  0
  139.7340   76.0540  221.4030 C   0  0  0  0  0  0  0  0  0  0  0  0
  139.1330   76.8020  222.4220 O   0  0  0  0  0  0  0  0  0  0  0  0
  140.8360   76.4710  220.8160 N   0  0  0  0  0  0  0  0  0  0  0  0
  141.9370   75.5800  220.4630 C   0  0  0  0  0  0  0  0  0  0  0  0
  142.9680   76.4380  219.7380 C   0  0  0  0  0  0  0  0  0  0  0  0
  142.2330   77.7130  219.3520 C   0  0  0  0  0  0  0  0  0  0  0  0
  141.0920   77.8410  220.3580 C   0  0  2  0  0  0  0  0  0  0  0  0
  141.5150   78.7240  221.5050 C   0  0  0  0  0  0  0  0  0  0  0  0
  141.4390   78.2750  222.7890 N   0  0  0  0  0  0  0  0  0  0  0  0
  141.8680   79.0400  223.8250 C   0  0  0  0  0  0  0  0  0  0  0  0
  142.4110   80.2990  223.5800 C   0  0  0  0  0  0  0  0  0  0  0  0
  142.8460   81.0780  224.6010 F   0  0  0  0  0  0  0  0  0  0  0  0
  142.4930   80.7430  222.2600 C   0  0  0  0  0  0  0  0  0  0  0  0
  142.0510   79.9490  221.2510 N   0  0  0  0  0  0  0  0  0  0  0  0
  139.4850   71.4140  222.9820 C   0  0  0  0  0  0  0  0  0  0  0  0
  139.1240   70.0630  222.8540 C   0  0  0  0  0  0  0  0  0  0  0  0
  139.3350   69.1870  223.9220 C   0  0  0  0  0  0  0  0  0  0  0  0
  139.9010   69.6590  225.1100 C   0  0  0  0  0  0  0  0  0  0  0  0
  140.1380   68.8040  226.1960 C   0  0  0  0  0  0  0  0  0  0  0  0
  140.7140   69.3070  227.3690 C   0  0  0  0  0  0  0  0  0  0  0  0
  141.0140   68.2360  228.7260 Cl  0  0  0  0  0  0  0  0  0  0  0  0
  141.0540   70.6610  227.4600 C   0  0  0  0  0  0  0  0  0  0  0  0
  140.8190   71.5200  226.3810 C   0  0  0  0  0  0  0  0  0  0  0  0
  140.2430   71.0250  225.2070 C   0  0  0  0  0  0  0  0  0  0  0  0
  140.0290   71.8530  224.1500 N   0  0  0  0  0  0  0  0  0  0  0  0
  139.1300   74.1150  223.0950 H   0  0  0  0  0  0  0  0  0  0  0  0
  139.5259   74.3502  220.1300 H   0  0  0  0  0  0  0  0  0  0  0  0
  137.9893   74.9561  220.8756 H   0  0  0  0  0  0  0  0  0  0  0  0
  139.3650   77.7650  222.6260 H   0  0  0  0  0  0  0  0  0  0  0  0
  142.3774   75.1411  221.3704 H   0  0  0  0  0  0  0  0  0  0  0  0
  141.5915   74.7501  219.8291 H   0  0  0  0  0  0  0  0  0  0  0  0
  143.8137   76.6676  220.4029 H   0  0  0  0  0  0  0  0  0  0  0  0
  143.3834   75.9232  218.8591 H   0  0  0  0  0  0  0  0  0  0  0  0
  142.9055   78.5809  219.4198 H   0  0  0  0  0  0  0  0  0  0  0  0
  141.8642   77.6760  218.3163 H   0  0  0  0  0  0  0  0  0  0  0  0
  140.1913   78.2971  219.9213 H   0  0  0  0  0  0  0  0  0  0  0  0
  141.7869   78.6662  224.8564 H   0  0  0  0  0  0  0  0  0  0  0  0
  142.9148   81.7341  222.0370 H   0  0  0  0  0  0  0  0  0  0  0  0
  138.6775   69.6963  221.9180 H   0  0  0  0  0  0  0  0  0  0  0  0
  139.0561   68.1271  223.8281 H   0  0  0  0  0  0  0  0  0  0  0  0
  139.8716   67.7390  226.1264 H   0  0  0  0  0  0  0  0  0  0  0  0
  141.5076   71.0515  228.3829 H   0  0  0  0  0  0  0  0  0  0  0  0
  141.0872   72.5841  226.4562 H   0  0  0  0  0  0  0  0  0  0  0  0
  1  2  2  0
  2  3  1  0
  3  4  1  0
  4  5  1  0
  5  6  1  0
  5  7  2  0
  7  8  1  0
  8  9  1  0
  9 10  1  0
 10 11  1  0
 11 12  1  0
 12 13  2  0
 13 14  1  0
 14 15  2  0
 15 16  1  0
 15 17  1  0
 17 18  2  0
  2 19  1  0
 19 20  2  0
 20 21  1  0
 21 22  2  0
 22 23  1  0
 23 24  2  0
 24 25  1  0
 24 26  1  0
 26 27  2  0
 27 28  1  0
 28 29  2  0
 11  7  1  0
 18 12  1  0
 29 19  1  0
 28 22  1  0
  3 30  1  0
  4 31  1  0
  4 32  1  0
  6 33  1  0
  8 34  1  0
  8 35  1  0
  9 36  1  0
  9 37  1  0
 10 38  1  0
 10 39  1  0
 11 40  1  6
 14 41  1  0
 17 42  1  0
 20 43  1  0
 21 44  1  0
 23 45  1  0
 26 46  1  0
 27 47  1  0
M  CHG  1   7   1
M  END
>  <meeko>  (4) 
{"free_energy": -8.15, "intermolecular_energy": -9.94, "internal_energy": -1.87, "cluster_size": 20, "cluster_id": 1, "rank_in_cluster": 6}

$$$$

     RDKit          3D

 47 50  0  0  0  0  0  0  0  0999 V2000
  139.6960   71.8940  220.4530 O   0  0  0  0  0  0  0  0  0  0  0  0
  139.6390   72.3780  221.6160 C   0  0  0  0  0  0  0  0  0  0  0  0
  139.5360   73.8000  221.7960 N   0  0  0  0  0  0  0  0  0  0  0  0
  139.5360   74.7380  220.6770 C   0  0  0  0  0  0  0  0  0  0  0  0
  139.9930   76.1120  221.1040 C   0  0  0  0  0  0  0  0  0  0  0  0
  141.3770   76.3130  221.1720 O   0  0  0  0  0  0  0  0  0  0  0  0
  139.1520   77.0850  221.3880 N   0  0  0  0  0  0  0  0  0  0  0  0
  138.2550   77.6770  220.3980 C   0  0  0  0  0  0  0  0  0  0  0  0
  137.4060   78.6980  221.1460 C   0  0  0  0  0  0  0  0  0  0  0  0
  137.5770   78.3640  222.6210 C   0  0  0  0  0  0  0  0  0  0  0  0
  138.9260   77.6550  222.7200 C   0  0  2  0  0  0  0  0  0  0  0  0
  140.0040   78.6500  223.0720 C   0  0  0  0  0  0  0  0  0  0  0  0
  141.3070   78.2610  223.1480 N   0  0  0  0  0  0  0  0  0  0  0  0
  142.2920   79.1570  223.4100 C   0  0  0  0  0  0  0  0  0  0  0  0
  141.9760   80.5020  223.5900 C   0  0  0  0  0  0  0  0  0  0  0  0
  142.9460   81.4130  223.8520 F   0  0  0  0  0  0  0  0  0  0  0  0
  140.6400   80.8900  223.4990 C   0  0  0  0  0  0  0  0  0  0  0  0
  139.6830   79.9620  223.2370 N   0  0  0  0  0  0  0  0  0  0  0  0
  139.6930   71.4790  222.7890 C   0  0  0  0  0  0  0  0  0  0  0  0
  139.1950   70.1670  222.7200 C   0  0  0  0  0  0  0  0  0  0  0  0
  139.2920   69.3310  223.8360 C   0  0  0  0  0  0  0  0  0  0  0  0
  139.8790   69.8050  225.0130 C   0  0  0  0  0  0  0  0  0  0  0  0
  140.0030   68.9880  226.1470 C   0  0  0  0  0  0  0  0  0  0  0  0
  140.6040   69.4900  227.3080 C   0  0  0  0  0  0  0  0  0  0  0  0
  140.7620   68.4670  228.7250 Cl  0  0  0  0  0  0  0  0  0  0  0  0
  141.0820   70.8060  227.3390 C   0  0  0  0  0  0  0  0  0  0  0  0
  140.9590   71.6260  226.2130 C   0  0  0  0  0  0  0  0  0  0  0  0
  140.3600   71.1320  225.0500 C   0  0  0  0  0  0  0  0  0  0  0  0
  140.2550   71.9210  223.9480 N   0  0  0  0  0  0  0  0  0  0  0  0
  139.4210   74.1910  222.7570 H   0  0  0  0  0  0  0  0  0  0  0  0
  140.2142   74.3627  219.8965 H   0  0  0  0  0  0  0  0  0  0  0  0
  138.5071   74.8202  220.2968 H   0  0  0  0  0  0  0  0  0  0  0  0
  141.8750   76.5130  222.0290 H   0  0  0  0  0  0  0  0  0  0  0  0
  138.8358   78.1719  219.6057 H   0  0  0  0  0  0  0  0  0  0  0  0
  137.6283   76.9110  219.9178 H   0  0  0  0  0  0  0  0  0  0  0  0
  137.7604   79.7186  220.9390 H   0  0  0  0  0  0  0  0  0  0  0  0
  136.3510   78.6571  220.8372 H   0  0  0  0  0  0  0  0  0  0  0  0
  137.5791   79.2825  223.2263 H   0  0  0  0  0  0  0  0  0  0  0  0
  136.7555   77.7367  222.9973 H   0  0  0  0  0  0  0  0  0  0  0  0
  138.9415   76.8798  223.5003 H   0  0  0  0  0  0  0  0  0  0  0  0
  143.3375   78.8222  223.4801 H   0  0  0  0  0  0  0  0  0  0  0  0
  140.3615   81.9449  223.6390 H   0  0  0  0  0  0  0  0  0  0  0  0
  138.7313   69.7997  221.7926 H   0  0  0  0  0  0  0  0  0  0  0  0
  138.9071   68.3017  223.7883 H   0  0  0  0  0  0  0  0  0  0  0  0
  139.6284   67.9540  226.1241 H   0  0  0  0  0  0  0  0  0  0  0  0
  141.5557   71.1959  228.2520 H   0  0  0  0  0  0  0  0  0  0  0  0
  141.3335   72.6599  226.2421 H   0  0  0  0  0  0  0  0  0  0  0  0
  1  2  2  0
  2  3  1  0
  3  4  1  0
  4  5  1  0
  5  6  1  0
  5  7  2  0
  7  8  1  0
  8  9  1  0
  9 10  1  0
 10 11  1  0
 11 12  1  0
 12 13  2  0
 13 14  1  0
 14 15  2  0
 15 16  1  0
 15 17  1  0
 17 18  2  0
  2 19  1  0
 19 20  2  0
 20 21  1  0
 21 22  2  0
 22 23  1  0
 23 24  2  0
 24 25  1  0
 24 26  1  0
 26 27  2  0
 27 28  1  0
 28 29  2  0
 11  7  1  0
 18 12  1  0
 29 19  1  0
 28 22  1  0
  3 30  1  0
  4 31  1  0
  4 32  1  0
  6 33  1  0
  8 34  1  0
  8 35  1  0
  9 36  1  0
  9 37  1  0
 10 38  1  0
 10 39  1  0
 11 40  1  1
 14 41  1  0
 17 42  1  0
 20 43  1  0
 21 44  1  0
 23 45  1  0
 26 46  1  0
 27 47  1  0
M  CHG  1   7   1
M  END
>  <meeko>  (5) 
{"free_energy": -7.83, "intermolecular_energy": -9.62, "internal_energy": -1.74, "cluster_size": 20, "cluster_id": 1, "rank_in_cluster": 15}

$$$$

     RDKit          3D

 47 50  0  0  0  0  0  0  0  0999 V2000
  139.3950   72.4440  220.5240 O   0  0  0  0  0  0  0  0  0  0  0  0
  139.9240   72.7670  221.6220 C   0  0  0  0  0  0  0  0  0  0  0  0
  140.5430   74.0550  221.7670 N   0  0  0  0  0  0  0  0  0  0  0  0
  140.6310   75.0150  220.6700 C   0  0  0  0  0  0  0  0  0  0  0  0
  141.0910   76.3700  221.1520 C   0  0  0  0  0  0  0  0  0  0  0  0
  141.1140   76.5590  222.5400 O   0  0  0  0  0  0  0  0  0  0  0  0
  141.4680   77.3280  220.3310 N   0  0  0  0  0  0  0  0  0  0  0  0
  142.5100   77.1490  219.3240 C   0  0  0  0  0  0  0  0  0  0  0  0
  142.5790   78.4570  218.5430 C   0  0  0  0  0  0  0  0  0  0  0  0
  141.2920   79.1970  218.8780 C   0  0  0  0  0  0  0  0  0  0  0  0
  140.8620   78.6600  220.2410 C   0  0  2  0  0  0  0  0  0  0  0  0
  141.3760   79.5630  221.3340 C   0  0  0  0  0  0  0  0  0  0  0  0
  141.0140   80.8760  221.3760 N   0  0  0  0  0  0  0  0  0  0  0  0
  141.4260   81.6850  222.3850 C   0  0  0  0  0  0  0  0  0  0  0  0
  142.2190   81.1690  223.4080 C   0  0  0  0  0  0  0  0  0  0  0  0
  142.6400   81.9600  224.4250 F   0  0  0  0  0  0  0  0  0  0  0  0
  142.5740   79.8210  223.3600 C   0  0  0  0  0  0  0  0  0  0  0  0
  142.1430   79.0450  222.3310 N   0  0  0  0  0  0  0  0  0  0  0  0
  139.9170   71.8110  222.7510 C   0  0  0  0  0  0  0  0  0  0  0  0
  139.4210   70.5060  222.5930 C   0  0  0  0  0  0  0  0  0  0  0  0
  139.4590   69.6170  223.6690 C   0  0  0  0  0  0  0  0  0  0  0  0
  139.9870   70.0300  224.8970 C   0  0  0  0  0  0  0  0  0  0  0  0
  140.0510   69.1580  225.9940 C   0  0  0  0  0  0  0  0  0  0  0  0
  140.5930   69.6000  227.2070 C   0  0  0  0  0  0  0  0  0  0  0  0
  140.6770   68.5080  228.5780 Cl  0  0  0  0  0  0  0  0  0  0  0  0
  141.0700   70.9100  227.3270 C   0  0  0  0  0  0  0  0  0  0  0  0
  141.0070   71.7850  226.2380 C   0  0  0  0  0  0  0  0  0  0  0  0
  140.4670   71.3510  225.0230 C   0  0  0  0  0  0  0  0  0  0  0  0
  140.4200   72.1930  223.9570 N   0  0  0  0  0  0  0  0  0  0  0  0
  140.9190   74.3450  222.6960 H   0  0  0  0  0  0  0  0  0  0  0  0
  141.3469   74.6397  219.9239 H   0  0  0  0  0  0  0  0  0  0  0  0
  139.6288   75.1283  220.2310 H   0  0  0  0  0  0  0  0  0  0  0  0
  141.8670   77.0200  223.0320 H   0  0  0  0  0  0  0  0  0  0  0  0
  143.4761   76.9428  219.8079 H   0  0  0  0  0  0  0  0  0  0  0  0
  142.2852   76.2995  218.6624 H   0  0  0  0  0  0  0  0  0  0  0  0
  143.4539   79.0460  218.8555 H   0  0  0  0  0  0  0  0  0  0  0  0
  142.6806   78.2826  217.4617 H   0  0  0  0  0  0  0  0  0  0  0  0
  141.4731   80.2807  218.9305 H   0  0  0  0  0  0  0  0  0  0  0  0
  140.5177   79.0405  218.1125 H   0  0  0  0  0  0  0  0  0  0  0  0
  139.7687   78.6157  220.3535 H   0  0  0  0  0  0  0  0  0  0  0  0
  141.1345   82.7456  222.3951 H   0  0  0  0  0  0  0  0  0  0  0  0
  143.2011   79.3872  224.1528 H   0  0  0  0  0  0  0  0  0  0  0  0
  139.0048   70.1862  221.6263 H   0  0  0  0  0  0  0  0  0  0  0  0
  139.0743   68.5932  223.5513 H   0  0  0  0  0  0  0  0  0  0  0  0
  139.6758   68.1281  225.9014 H   0  0  0  0  0  0  0  0  0  0  0  0
  141.4961   71.2528  228.2814 H   0  0  0  0  0  0  0  0  0  0  0  0
  141.3820   72.8144  226.3369 H   0  0  0  0  0  0  0  0  0  0  0  0
  1  2  2  0
  2  3  1  0
  3  4  1  0
  4  5  1  0
  5  6  1  0
  5  7  2  0
  7  8  1  0
  8  9  1  0
  9 10  1  0
 10 11  1  0
 11 12  1  0
 12 13  2  0
 13 14  1  0
 14 15  2  0
 15 16  1  0
 15 17  1  0
 17 18  2  0
  2 19  1  0
 19 20  2  0
 20 21  1  0
 21 22  2  0
 22 23  1  0
 23 24  2  0
 24 25  1  0
 24 26  1  0
 26 27  2  0
 27 28  1  0
 28 29  2  0
 11  7  1  0
 18 12  1  0
 29 19  1  0
 28 22  1  0
  3 30  1  0
  4 31  1  0
  4 32  1  0
  6 33  1  0
  8 34  1  0
  8 35  1  0
  9 36  1  0
  9 37  1  0
 10 38  1  0
 10 39  1  0
 11 40  1  6
 14 41  1  0
 17 42  1  0
 20 43  1  0
 21 44  1  0
 23 45  1  0
 26 46  1  0
 27 47  1  0
M  CHG  1   7   1
M  END
>  <meeko>  (6) 
{"free_energy": -7.92, "intermolecular_energy": -9.71, "internal_energy": -2.37, "cluster_size": 20, "cluster_id": 1, "rank_in_cluster": 13}

$$$$

     RDKit          3D

 47 50  0  0  0  0  0  0  0  0999 V2000
  140.3620   72.5560  220.7200 O   0  0  0  0  0  0  0  0  0  0  0  0
  140.0480   72.9160  221.8870 C   0  0  0  0  0  0  0  0  0  0  0  0
  139.7330   74.2930  222.1500 N   0  0  0  0  0  0  0  0  0  0  0  0
  139.8010   75.3280  221.1220 C   0  0  0  0  0  0  0  0  0  0  0  0
  141.2280   75.6350  220.7370 C   0  0  0  0  0  0  0  0  0  0  0  0
  142.1960   74.7150  221.1570 O   0  0  0  0  0  0  0  0  0  0  0  0
  141.5620   76.6970  220.0340 N   0  0  0  0  0  0  0  0  0  0  0  0
  142.5510   76.6620  218.9590 C   0  0  0  0  0  0  0  0  0  0  0  0
  142.5810   78.0630  218.3580 C   0  0  0  0  0  0  0  0  0  0  0  0
  141.3120   78.7420  218.8540 C   0  0  0  0  0  0  0  0  0  0  0  0
  140.9520   78.0260  220.1530 C   0  0  2  0  0  0  0  0  0  0  0  0
  141.5220   78.7780  221.3300 C   0  0  0  0  0  0  0  0  0  0  0  0
  142.0910   80.0040  221.1580 N   0  0  0  0  0  0  0  0  0  0  0  0
  142.5580   80.7140  222.2170 C   0  0  0  0  0  0  0  0  0  0  0  0
  142.4430   80.1960  223.5050 C   0  0  0  0  0  0  0  0  0  0  0  0
  142.9030   80.8900  224.5750 F   0  0  0  0  0  0  0  0  0  0  0  0
  141.8500   78.9440  223.6680 C   0  0  0  0  0  0  0  0  0  0  0  0
  141.3970   78.2640  222.5830 N   0  0  0  0  0  0  0  0  0  0  0  0
  140.0190   71.9210  222.9810 C   0  0  0  0  0  0  0  0  0  0  0  0
  139.5370   70.6200  222.7640 C   0  0  0  0  0  0  0  0  0  0  0  0
  139.5540   69.6930  223.8090 C   0  0  0  0  0  0  0  0  0  0  0  0
  140.0470   70.0650  225.0640 C   0  0  0  0  0  0  0  0  0  0  0  0
  140.0900   69.1560  226.1310 C   0  0  0  0  0  0  0  0  0  0  0  0
  140.5970   69.5580  227.3730 C   0  0  0  0  0  0  0  0  0  0  0  0
  140.6540   68.4190  228.7060 Cl  0  0  0  0  0  0  0  0  0  0  0  0
  141.0620   70.8660  227.5510 C   0  0  0  0  0  0  0  0  0  0  0  0
  141.0200   71.7780  226.4920 C   0  0  0  0  0  0  0  0  0  0  0  0
  140.5150   71.3840  225.2490 C   0  0  0  0  0  0  0  0  0  0  0  0
  140.4880   72.2640  224.2130 N   0  0  0  0  0  0  0  0  0  0  0  0
  139.4070   74.5750  223.1010 H   0  0  0  0  0  0  0  0  0  0  0  0
  139.2571   74.9822  220.2306 H   0  0  0  0  0  0  0  0  0  0  0  0
  139.3485   76.2454  221.5265 H   0  0  0  0  0  0  0  0  0  0  0  0
  142.1430   73.7210  220.9760 H   0  0  0  0  0  0  0  0  0  0  0  0
  143.5407   76.3987  219.3606 H   0  0  0  0  0  0  0  0  0  0  0  0
  142.2910   75.9079  218.2015 H   0  0  0  0  0  0  0  0  0  0  0  0
  143.4706   78.6107  218.7025 H   0  0  0  0  0  0  0  0  0  0  0  0
  142.6284   78.0363  217.2593 H   0  0  0  0  0  0  0  0  0  0  0  0
  141.4949   79.8104  219.0411 H   0  0  0  0  0  0  0  0  0  0  0  0
  140.4997   78.6823  218.1147 H   0  0  0  0  0  0  0  0  0  0  0  0
  139.8657   77.9608  220.3133 H   0  0  0  0  0  0  0  0  0  0  0  0
  143.0263   81.6966  222.0581 H   0  0  0  0  0  0  0  0  0  0  0  0
  141.7495   78.5083  224.6730 H   0  0  0  0  0  0  0  0  0  0  0  0
  139.1480   70.3323  221.7761 H   0  0  0  0  0  0  0  0  0  0  0  0
  139.1801   68.6716  223.6450 H   0  0  0  0  0  0  0  0  0  0  0  0
  139.7256   68.1274  225.9924 H   0  0  0  0  0  0  0  0  0  0  0  0
  141.4618   71.1776  228.5272 H   0  0  0  0  0  0  0  0  0  0  0  0
  141.3843   72.8058  226.6367 H   0  0  0  0  0  0  0  0  0  0  0  0
  1  2  2  0
  2  3  1  0
  3  4  1  0
  4  5  1  0
  5  6  1  0
  5  7  2  0
  7  8  1  0
  8  9  1  0
  9 10  1  0
 10 11  1  0
 11 12  1  0
 12 13  2  0
 13 14  1  0
 14 15  2  0
 15 16  1  0
 15 17  1  0
 17 18  2  0
  2 19  1  0
 19 20  2  0
 20 21  1  0
 21 22  2  0
 22 23  1  0
 23 24  2  0
 24 25  1  0
 24 26  1  0
 26 27  2  0
 27 28  1  0
 28 29  2  0
 11  7  1  0
 18 12  1  0
 29 19  1  0
 28 22  1  0
  3 30  1  0
  4 31  1  0
  4 32  1  0
  6 33  1  0
  8 34  1  0
  8 35  1  0
  9 36  1  0
  9 37  1  0
 10 38  1  0
 10 39  1  0
 11 40  1  1
 14 41  1  0
 17 42  1  0
 20 43  1  0
 21 44  1  0
 23 45  1  0
 26 46  1  0
 27 47  1  0
M  CHG  1   7   1
M  END
>  <meeko>  (7) 
{"free_energy": -8.05, "intermolecular_energy": -9.84, "internal_energy": -1.88, "cluster_size": 20, "cluster_id": 1, "rank_in_cluster": 8}

$$$$

     RDKit          3D

 47 50  0  0  0  0  0  0  0  0999 V2000
  140.1090   72.1200  220.7620 O   0  0  0  0  0  0  0  0  0  0  0  0
  139.7410   72.4650  221.9190 C   0  0  0  0  0  0  0  0  0  0  0  0
  139.2690   73.8020  222.1500 N   0  0  0  0  0  0  0  0  0  0  0  0
  139.2320   74.8180  221.1010 C   0  0  0  0  0  0  0  0  0  0  0  0
  139.8800   76.1050  221.5510 C   0  0  0  0  0  0  0  0  0  0  0  0
  141.2150   76.0150  221.9640 O   0  0  0  0  0  0  0  0  0  0  0  0
  139.2480   77.2600  221.5480 N   0  0  0  0  0  0  0  0  0  0  0  0
  138.6380   77.8310  220.3510 C   0  0  0  0  0  0  0  0  0  0  0  0
  137.9490   79.1170  220.7930 C   0  0  0  0  0  0  0  0  0  0  0  0
  137.8520   79.0240  222.3090 C   0  0  0  0  0  0  0  0  0  0  0  0
  138.9860   78.0910  222.7280 C   0  0  2  0  0  0  0  0  0  0  0  0
  140.2050   78.8990  223.1000 C   0  0  0  0  0  0  0  0  0  0  0  0
  141.4520   78.3660  222.9790 N   0  0  0  0  0  0  0  0  0  0  0  0
  142.5590   79.1010  223.2590 C   0  0  0  0  0  0  0  0  0  0  0  0
  142.4260   80.4280  223.6610 C   0  0  0  0  0  0  0  0  0  0  0  0
  143.5190   81.1790  223.9450 F   0  0  0  0  0  0  0  0  0  0  0  0
  141.1440   80.9660  223.7700 C   0  0  0  0  0  0  0  0  0  0  0  0
  140.0620   80.1970  223.4830 N   0  0  0  0  0  0  0  0  0  0  0  0
  139.8110   71.4950  223.0320 C   0  0  0  0  0  0  0  0  0  0  0  0
  139.3970   70.1630  222.8610 C   0  0  0  0  0  0  0  0  0  0  0  0
  139.5080   69.2620  223.9230 C   0  0  0  0  0  0  0  0  0  0  0  0
  140.0270   69.6900  225.1490 C   0  0  0  0  0  0  0  0  0  0  0  0
  140.1630   68.8090  226.2320 C   0  0  0  0  0  0  0  0  0  0  0  0
  140.6940   69.2670  227.4440 C   0  0  0  0  0  0  0  0  0  0  0  0
  140.8670   68.1630  228.7960 Cl  0  0  0  0  0  0  0  0  0  0  0  0
  141.0890   70.6030  227.5770 C   0  0  0  0  0  0  0  0  0  0  0  0
  140.9530   71.4880  226.5030 C   0  0  0  0  0  0  0  0  0  0  0  0
  140.4240   71.0370  225.2890 C   0  0  0  0  0  0  0  0  0  0  0  0
  140.3070   71.8910  224.2370 N   0  0  0  0  0  0  0  0  0  0  0  0
  138.9010   74.0640  223.0910 H   0  0  0  0  0  0  0  0  0  0  0  0
  139.7668   74.4388  220.2177 H   0  0  0  0  0  0  0  0  0  0  0  0
  138.1789   75.0280  220.8624 H   0  0  0  0  0  0  0  0  0  0  0  0
  141.8550   76.7980  221.9740 H   0  0  0  0  0  0  0  0  0  0  0  0
  139.4096   78.0516  219.5987 H   0  0  0  0  0  0  0  0  0  0  0  0
  137.9227   77.1311  219.8944 H   0  0  0  0  0  0  0  0  0  0  0  0
  138.5449   79.9935  220.4987 H   0  0  0  0  0  0  0  0  0  0  0  0
  136.9595   79.2318  220.3264 H   0  0  0  0  0  0  0  0  0  0  0  0
  137.9811   80.0166  222.7651 H   0  0  0  0  0  0  0  0  0  0  0  0
  136.8706   78.6494  222.6353 H   0  0  0  0  0  0  0  0  0  0  0  0
  138.7289   77.4796  223.6055 H   0  0  0  0  0  0  0  0  0  0  0  0
  143.5581   78.6496  223.1686 H   0  0  0  0  0  0  0  0  0  0  0  0
  141.0095   82.0105  224.0876 H   0  0  0  0  0  0  0  0  0  0  0  0
  138.9875   69.8313  221.8955 H   0  0  0  0  0  0  0  0  0  0  0  0
  139.1876   68.2175  223.7950 H   0  0  0  0  0  0  0  0  0  0  0  0
  139.8526   67.7587  226.1292 H   0  0  0  0  0  0  0  0  0  0  0  0
  141.5080   70.9582  228.5300 H   0  0  0  0  0  0  0  0  0  0  0  0
  141.2618   72.5381  226.6126 H   0  0  0  0  0  0  0  0  0  0  0  0
  1  2  2  0
  2  3  1  0
  3  4  1  0
  4  5  1  0
  5  6  1  0
  5  7  2  0
  7  8  1  0
  8  9  1  0
  9 10  1  0
 10 11  1  0
 11 12  1  0
 12 13  2  0
 13 14  1  0
 14 15  2  0
 15 16  1  0
 15 17  1  0
 17 18  2  0
  2 19  1  0
 19 20  2  0
 20 21  1  0
 21 22  2  0
 22 23  1  0
 23 24  2  0
 24 25  1  0
 24 26  1  0
 26 27  2  0
 27 28  1  0
 28 29  2  0
 11  7  1  0
 18 12  1  0
 29 19  1  0
 28 22  1  0
  3 30  1  0
  4 31  1  0
  4 32  1  0
  6 33  1  0
  8 34  1  0
  8 35  1  0
  9 36  1  0
  9 37  1  0
 10 38  1  0
 10 39  1  0
 11 40  1  1
 14 41  1  0
 17 42  1  0
 20 43  1  0
 21 44  1  0
 23 45  1  0
 26 46  1  0
 27 47  1  0
M  CHG  1   7   1
M  END
>  <meeko>  (8) 
{"free_energy": -8.21, "intermolecular_energy": -10.0, "internal_energy": -1.59, "cluster_size": 20, "cluster_id": 1, "rank_in_cluster": 5}

$$$$

     RDKit          3D

 47 50  0  0  0  0  0  0  0  0999 V2000
  140.1450   72.4440  220.6610 O   0  0  0  0  0  0  0  0  0  0  0  0
  139.9580   72.8330  221.8470 C   0  0  0  0  0  0  0  0  0  0  0  0
  139.7570   74.2290  222.1180 N   0  0  0  0  0  0  0  0  0  0  0  0
  139.8010   75.2500  221.0740 C   0  0  0  0  0  0  0  0  0  0  0  0
  141.2130   75.5060  220.6060 C   0  0  0  0  0  0  0  0  0  0  0  0
  142.1570   74.5190  220.9130 O   0  0  0  0  0  0  0  0  0  0  0  0
  141.5550   76.5840  219.9320 N   0  0  0  0  0  0  0  0  0  0  0  0
  142.5480   76.5740  218.8610 C   0  0  0  0  0  0  0  0  0  0  0  0
  142.5860   77.9890  218.2980 C   0  0  0  0  0  0  0  0  0  0  0  0
  141.3180   78.6620  218.8060 C   0  0  0  0  0  0  0  0  0  0  0  0
  140.9500   77.9120  220.0840 C   0  0  2  0  0  0  0  0  0  0  0  0
  141.5180   78.6300  221.2830 C   0  0  0  0  0  0  0  0  0  0  0  0
  142.1060   79.8510  221.1440 N   0  0  0  0  0  0  0  0  0  0  0  0
  142.5720   80.5310  222.2230 C   0  0  0  0  0  0  0  0  0  0  0  0
  142.4360   79.9870  223.4980 C   0  0  0  0  0  0  0  0  0  0  0  0
  142.8950   80.6510  224.5880 F   0  0  0  0  0  0  0  0  0  0  0  0
  141.8230   78.7410  223.6280 C   0  0  0  0  0  0  0  0  0  0  0  0
  141.3710   78.0910  222.5240 N   0  0  0  0  0  0  0  0  0  0  0  0
  139.9620   71.8510  222.9520 C   0  0  0  0  0  0  0  0  0  0  0  0
  139.5150   70.5330  222.7520 C   0  0  0  0  0  0  0  0  0  0  0  0
  139.5630   69.6200  223.8080 C   0  0  0  0  0  0  0  0  0  0  0  0
  140.0520   70.0210  225.0560 C   0  0  0  0  0  0  0  0  0  0  0  0
  140.1250   69.1250  226.1330 C   0  0  0  0  0  0  0  0  0  0  0  0
  140.6280   69.5560  227.3670 C   0  0  0  0  0  0  0  0  0  0  0  0
  140.7220   68.4340  228.7130 Cl  0  0  0  0  0  0  0  0  0  0  0  0
  141.0570   70.8780  227.5280 C   0  0  0  0  0  0  0  0  0  0  0  0
  140.9840   71.7770  226.4590 C   0  0  0  0  0  0  0  0  0  0  0  0
  140.4840   71.3540  225.2230 C   0  0  0  0  0  0  0  0  0  0  0  0
  140.4280   72.2200  224.1770 N   0  0  0  0  0  0  0  0  0  0  0  0
  139.5360   74.5390  223.0890 H   0  0  0  0  0  0  0  0  0  0  0  0
  139.1972   74.9123  220.2188 H   0  0  0  0  0  0  0  0  0  0  0  0
  139.4019   76.1862  221.4915 H   0  0  0  0  0  0  0  0  0  0  0  0
  142.0060   73.5300  220.7640 H   0  0  0  0  0  0  0  0  0  0  0  0
  143.5349   76.2963  219.2596 H   0  0  0  0  0  0  0  0  0  0  0  0
  142.2883   75.8415  218.0826 H   0  0  0  0  0  0  0  0  0  0  0  0
  143.4766   78.5233  218.6603 H   0  0  0  0  0  0  0  0  0  0  0  0
  142.6370   77.9902  217.1992 H   0  0  0  0  0  0  0  0  0  0  0  0
  141.5054   79.7241  219.0226 H   0  0  0  0  0  0  0  0  0  0  0  0
  140.5085   78.6277  218.0620 H   0  0  0  0  0  0  0  0  0  0  0  0
  139.8628   77.8465  220.2379 H   0  0  0  0  0  0  0  0  0  0  0  0
  143.0561   81.5098  222.0904 H   0  0  0  0  0  0  0  0  0  0  0  0
  141.7057   78.2855  224.6224 H   0  0  0  0  0  0  0  0  0  0  0  0
  139.1297   70.2227  221.7695 H   0  0  0  0  0  0  0  0  0  0  0  0
  139.2167   68.5867  223.6586 H   0  0  0  0  0  0  0  0  0  0  0  0
  139.7877   68.0854  226.0085 H   0  0  0  0  0  0  0  0  0  0  0  0
  141.4530   71.2114  228.4986 H   0  0  0  0  0  0  0  0  0  0  0  0
  141.3196   72.8163  226.5902 H   0  0  0  0  0  0  0  0  0  0  0  0
  1  2  2  0
  2  3  1  0
  3  4  1  0
  4  5  1  0
  5  6  1  0
  5  7  2  0
  7  8  1  0
  8  9  1  0
  9 10  1  0
 10 11  1  0
 11 12  1  0
 12 13  2  0
 13 14  1  0
 14 15  2  0
 15 16  1  0
 15 17  1  0
 17 18  2  0
  2 19  1  0
 19 20  2  0
 20 21  1  0
 21 22  2  0
 22 23  1  0
 23 24  2  0
 24 25  1  0
 24 26  1  0
 26 27  2  0
 27 28  1  0
 28 29  2  0
 11  7  1  0
 18 12  1  0
 29 19  1  0
 28 22  1  0
  3 30  1  0
  4 31  1  0
  4 32  1  0
  6 33  1  0
  8 34  1  0
  8 35  1  0
  9 36  1  0
  9 37  1  0
 10 38  1  0
 10 39  1  0
 11 40  1  1
 14 41  1  0
 17 42  1  0
 20 43  1  0
 21 44  1  0
 23 45  1  0
 26 46  1  0
 27 47  1  0
M  CHG  1   7   1
M  END
>  <meeko>  (9) 
{"free_energy": -8.0, "intermolecular_energy": -9.79, "internal_energy": -1.91, "cluster_size": 20, "cluster_id": 1, "rank_in_cluster": 11}

$$$$

     RDKit          3D

 47 50  0  0  0  0  0  0  0  0999 V2000
  139.4110   71.9980  220.6960 O   0  0  0  0  0  0  0  0  0  0  0  0
  139.5130   72.4280  221.8770 C   0  0  0  0  0  0  0  0  0  0  0  0
  139.5300   73.8430  222.1240 N   0  0  0  0  0  0  0  0  0  0  0  0
  139.4780   74.8320  221.0500 C   0  0  0  0  0  0  0  0  0  0  0  0
  140.1570   76.1200  221.4480 C   0  0  0  0  0  0  0  0  0  0  0  0
  139.7750   76.6680  222.6790 O   0  0  0  0  0  0  0  0  0  0  0  0
  141.0700   76.7040  220.7010 N   0  0  0  0  0  0  0  0  0  0  0  0
  142.1990   75.9860  220.1140 C   0  0  0  0  0  0  0  0  0  0  0  0
  142.9590   77.0000  219.2680 C   0  0  0  0  0  0  0  0  0  0  0  0
  142.0040   78.1700  219.0830 C   0  0  0  0  0  0  0  0  0  0  0  0
  141.0550   78.1090  220.2780 C   0  0  2  0  0  0  0  0  0  0  0  0
  141.5570   79.0090  221.3790 C   0  0  0  0  0  0  0  0  0  0  0  0
  141.7440   80.3400  221.1540 N   0  0  0  0  0  0  0  0  0  0  0  0
  142.1430   81.1700  222.1510 C   0  0  0  0  0  0  0  0  0  0  0  0
  142.3500   80.6650  223.4330 C   0  0  0  0  0  0  0  0  0  0  0  0
  142.7480   81.4780  224.4430 F   0  0  0  0  0  0  0  0  0  0  0  0
  142.1450   79.3030  223.6530 C   0  0  0  0  0  0  0  0  0  0  0  0
  141.7480   78.5050  222.6280 N   0  0  0  0  0  0  0  0  0  0  0  0
  139.6270   71.4730  223.0000 C   0  0  0  0  0  0  0  0  0  0  0  0
  139.2220   70.1350  222.8570 C   0  0  0  0  0  0  0  0  0  0  0  0
  139.3750   69.2480  223.9260 C   0  0  0  0  0  0  0  0  0  0  0  0
  139.9260   69.6970  225.1310 C   0  0  0  0  0  0  0  0  0  0  0  0
  140.1050   68.8300  226.2190 C   0  0  0  0  0  0  0  0  0  0  0  0
  140.6670   69.3090  227.4090 C   0  0  0  0  0  0  0  0  0  0  0  0
  140.8930   68.2240  228.7690 Cl  0  0  0  0  0  0  0  0  0  0  0  0
  141.0520   70.6510  227.5140 C   0  0  0  0  0  0  0  0  0  0  0  0
  140.8740   71.5200  226.4330 C   0  0  0  0  0  0  0  0  0  0  0  0
  140.3130   71.0500  225.2420 C   0  0  0  0  0  0  0  0  0  0  0  0
  140.1550   71.8890  224.1840 N   0  0  0  0  0  0  0  0  0  0  0  0
  139.5450   74.1950  223.1060 H   0  0  0  0  0  0  0  0  0  0  0  0
  139.9821   74.4221  220.1624 H   0  0  0  0  0  0  0  0  0  0  0  0
  138.4218   75.0517  220.8352 H   0  0  0  0  0  0  0  0  0  0  0  0
  140.2320   77.4620  223.1080 H   0  0  0  0  0  0  0  0  0  0  0  0
  142.8498   75.5871  220.9061 H   0  0  0  0  0  0  0  0  0  0  0  0
  141.8584   75.1345  219.5066 H   0  0  0  0  0  0  0  0  0  0  0  0
  143.8719   77.3270  219.7872 H   0  0  0  0  0  0  0  0  0  0  0  0
  143.2745   76.5736  218.3043 H   0  0  0  0  0  0  0  0  0  0  0  0
  142.5565   79.1212  219.0780 H   0  0  0  0  0  0  0  0  0  0  0  0
  141.4634   78.1107  218.1268 H   0  0  0  0  0  0  0  0  0  0  0  0
  140.0382   78.4471  220.0293 H   0  0  0  0  0  0  0  0  0  0  0  0
  142.3026   82.2391  221.9474 H   0  0  0  0  0  0  0  0  0  0  0  0
  142.3045   78.8761  224.6542 H   0  0  0  0  0  0  0  0  0  0  0  0
  138.7867   69.7876  221.9084 H   0  0  0  0  0  0  0  0  0  0  0  0
  139.0627   68.1986  223.8202 H   0  0  0  0  0  0  0  0  0  0  0  0
  139.8043   67.7750  226.1376 H   0  0  0  0  0  0  0  0  0  0  0  0
  141.4957   71.0228  228.4494 H   0  0  0  0  0  0  0  0  0  0  0  0
  141.1756   72.5743  226.5199 H   0  0  0  0  0  0  0  0  0  0  0  0
  1  2  2  0
  2  3  1  0
  3  4  1  0
  4  5  1  0
  5  6  1  0
  5  7  2  0
  7  8  1  0
  8  9  1  0
  9 10  1  0
 10 11  1  0
 11 12  1  0
 12 13  2  0
 13 14  1  0
 14 15  2  0
 15 16  1  0
 15 17  1  0
 17 18  2  0
  2 19  1  0
 19 20  2  0
 20 21  1  0
 21 22  2  0
 22 23  1  0
 23 24  2  0
 24 25  1  0
 24 26  1  0
 26 27  2  0
 27 28  1  0
 28 29  2  0
 11  7  1  0
 18 12  1  0
 29 19  1  0
 28 22  1  0
  3 30  1  0
  4 31  1  0
  4 32  1  0
  6 33  1  0
  8 34  1  0
  8 35  1  0
  9 36  1  0
  9 37  1  0
 10 38  1  0
 10 39  1  0
 11 40  1  6
 14 41  1  0
 17 42  1  0
 20 43  1  0
 21 44  1  0
 23 45  1  0
 26 46  1  0
 27 47  1  0
M  CHG  1   7   1
M  END
>  <meeko>  (10) 
{"free_energy": -8.11, "intermolecular_energy": -9.9, "internal_energy": -2.02, "cluster_size": 20, "cluster_id": 1, "rank_in_cluster": 7}

$$$$

     RDKit          3D

 47 50  0  0  0  0  0  0  0  0999 V2000
  139.0390   72.0480  220.8020 O   0  0  0  0  0  0  0  0  0  0  0  0
  139.2930   72.4550  221.9690 C   0  0  0  0  0  0  0  0  0  0  0  0
  139.4190   73.8630  222.2240 N   0  0  0  0  0  0  0  0  0  0  0  0
  139.3080   74.8690  221.1700 C   0  0  0  0  0  0  0  0  0  0  0  0
  140.2700   74.5960  220.0390 C   0  0  0  0  0  0  0  0  0  0  0  0
  139.7830   73.8120  218.9860 O   0  0  0  0  0  0  0  0  0  0  0  0
  141.4970   75.0720  220.0180 N   0  0  0  0  0  0  0  0  0  0  0  0
  142.6740   74.2540  220.2980 C   0  0  0  0  0  0  0  0  0  0  0  0
  143.8840   75.1580  220.0910 C   0  0  0  0  0  0  0  0  0  0  0  0
  143.3650   76.3550  219.3080 C   0  0  0  0  0  0  0  0  0  0  0  0
  141.8760   76.4370  219.6370 C   0  0  2  0  0  0  0  0  0  0  0  0
  141.6540   77.3970  220.7790 C   0  0  0  0  0  0  0  0  0  0  0  0
  141.8370   78.7360  220.6040 N   0  0  0  0  0  0  0  0  0  0  0  0
  141.5880   79.6150  221.6080 C   0  0  0  0  0  0  0  0  0  0  0  0
  141.1220   79.1510  222.8360 C   0  0  0  0  0  0  0  0  0  0  0  0
  140.8670   80.0130  223.8510 F   0  0  0  0  0  0  0  0  0  0  0  0
  140.9280   77.7800  223.0000 C   0  0  0  0  0  0  0  0  0  0  0  0
  141.1910   76.9320  221.9710 N   0  0  0  0  0  0  0  0  0  0  0  0
  139.4730   71.4790  223.0650 C   0  0  0  0  0  0  0  0  0  0  0  0
  139.0990   70.1340  222.9060 C   0  0  0  0  0  0  0  0  0  0  0  0
  139.3130   69.2290  223.9480 C   0  0  0  0  0  0  0  0  0  0  0  0
  139.8940   69.6660  225.1430 C   0  0  0  0  0  0  0  0  0  0  0  0
  140.1350   68.7810  226.2050 C   0  0  0  0  0  0  0  0  0  0  0  0
  140.7260   69.2490  227.3850 C   0  0  0  0  0  0  0  0  0  0  0  0
  141.0290   68.1410  228.7110 Cl  0  0  0  0  0  0  0  0  0  0  0  0
  141.0770   70.5980  227.5070 C   0  0  0  0  0  0  0  0  0  0  0  0
  140.8390   71.4860  226.4530 C   0  0  0  0  0  0  0  0  0  0  0  0
  140.2490   71.0260  225.2720 C   0  0  0  0  0  0  0  0  0  0  0  0
  140.0310   71.8830  224.2390 N   0  0  0  0  0  0  0  0  0  0  0  0
  139.5600   74.2000  223.2020 H   0  0  0  0  0  0  0  0  0  0  0  0
  138.2813   74.8610  220.7753 H   0  0  0  0  0  0  0  0  0  0  0  0
  139.5544   75.8499  221.6027 H   0  0  0  0  0  0  0  0  0  0  0  0
  139.1490   73.0350  219.1100 H   0  0  0  0  0  0  0  0  0  0  0  0
  142.6453   73.8880  221.3349 H   0  0  0  0  0  0  0  0  0  0  0  0
  142.7151   73.3746  219.6385 H   0  0  0  0  0  0  0  0  0  0  0  0
  144.2939   75.4801  221.0596 H   0  0  0  0  0  0  0  0  0  0  0  0
  144.6947   74.6404  219.5573 H   0  0  0  0  0  0  0  0  0  0  0  0
  143.8804   77.2743  219.6231 H   0  0  0  0  0  0  0  0  0  0  0  0
  143.5408   76.2458  218.2276 H   0  0  0  0  0  0  0  0  0  0  0  0
  141.2753   76.8038  218.7916 H   0  0  0  0  0  0  0  0  0  0  0  0
  141.7538   80.6912  221.4522 H   0  0  0  0  0  0  0  0  0  0  0  0
  140.5630   77.3857  223.9599 H   0  0  0  0  0  0  0  0  0  0  0  0
  138.6399   69.7955  221.9655 H   0  0  0  0  0  0  0  0  0  0  0  0
  139.0251   68.1740  223.8291 H   0  0  0  0  0  0  0  0  0  0  0  0
  139.8598   67.7202  226.1106 H   0  0  0  0  0  0  0  0  0  0  0  0
  141.5418   70.9614  228.4353 H   0  0  0  0  0  0  0  0  0  0  0  0
  141.1159   72.5458  226.5532 H   0  0  0  0  0  0  0  0  0  0  0  0
  1  2  2  0
  2  3  1  0
  3  4  1  0
  4  5  1  0
  5  6  1  0
  5  7  2  0
  7  8  1  0
  8  9  1  0
  9 10  1  0
 10 11  1  0
 11 12  1  0
 12 13  2  0
 13 14  1  0
 14 15  2  0
 15 16  1  0
 15 17  1  0
 17 18  2  0
  2 19  1  0
 19 20  2  0
 20 21  1  0
 21 22  2  0
 22 23  1  0
 23 24  2  0
 24 25  1  0
 24 26  1  0
 26 27  2  0
 27 28  1  0
 28 29  2  0
 11  7  1  0
 18 12  1  0
 29 19  1  0
 28 22  1  0
  3 30  1  0
  4 31  1  0
  4 32  1  0
  6 33  1  0
  8 34  1  0
  8 35  1  0
  9 36  1  0
  9 37  1  0
 10 38  1  0
 10 39  1  0
 11 40  1  6
 14 41  1  0
 17 42  1  0
 20 43  1  0
 21 44  1  0
 23 45  1  0
 26 46  1  0
 27 47  1  0
M  CHG  1   7   1
M  END
>  <meeko>  (11) 
{"free_energy": -7.33, "intermolecular_energy": -9.12, "internal_energy": -2.08, "cluster_size": 20, "cluster_id": 1, "rank_in_cluster": 18}

$$$$

     RDKit          3D

 47 50  0  0  0  0  0  0  0  0999 V2000
  139.1340   73.1440  220.7320 O   0  0  0  0  0  0  0  0  0  0  0  0
  140.1060   72.9160  221.5020 C   0  0  0  0  0  0  0  0  0  0  0  0
  141.3710   73.5540  221.2650 N   0  0  0  0  0  0  0  0  0  0  0  0
  141.6080   74.4400  220.1290 C   0  0  0  0  0  0  0  0  0  0  0  0
  141.3830   75.8870  220.4960 C   0  0  0  0  0  0  0  0  0  0  0  0
  142.4640   76.7530  220.2940 O   0  0  0  0  0  0  0  0  0  0  0  0
  140.2380   76.3320  220.9690 N   0  0  0  0  0  0  0  0  0  0  0  0
  139.0340   76.4600  220.1510 C   0  0  0  0  0  0  0  0  0  0  0  0
  137.9260   76.9260  221.0880 C   0  0  0  0  0  0  0  0  0  0  0  0
  138.4480   76.6620  222.4930 C   0  0  0  0  0  0  0  0  0  0  0  0
  139.9690   76.6780  222.3680 C   0  0  2  0  0  0  0  0  0  0  0  0
  140.4970   78.0530  222.6950 C   0  0  0  0  0  0  0  0  0  0  0  0
  139.6660   79.0170  223.1820 N   0  0  0  0  0  0  0  0  0  0  0  0
  140.1400   80.2400  223.5310 C   0  0  0  0  0  0  0  0  0  0  0  0
  141.4990   80.5180  223.4090 C   0  0  0  0  0  0  0  0  0  0  0  0
  141.9920   81.7330  223.7530 F   0  0  0  0  0  0  0  0  0  0  0  0
  142.3420   79.5200  222.9200 C   0  0  0  0  0  0  0  0  0  0  0  0
  141.8290   78.3090  222.5800 N   0  0  0  0  0  0  0  0  0  0  0  0
  139.9420   71.9820  222.6360 C   0  0  0  0  0  0  0  0  0  0  0  0
  139.1640   70.8180  222.5100 C   0  0  0  0  0  0  0  0  0  0  0  0
  139.0560   69.9380  223.5890 C   0  0  0  0  0  0  0  0  0  0  0  0
  139.7180   70.2200  224.7880 C   0  0  0  0  0  0  0  0  0  0  0  0
  139.6410   69.3510  225.8870 C   0  0  0  0  0  0  0  0  0  0  0  0
  140.3230   69.6590  227.0710 C   0  0  0  0  0  0  0  0  0  0  0  0
  140.2290   68.5700  228.4430 Cl  0  0  0  0  0  0  0  0  0  0  0  0
  141.0820   70.8310  227.1590 C   0  0  0  0  0  0  0  0  0  0  0  0
  141.1620   71.7030  226.0680 C   0  0  0  0  0  0  0  0  0  0  0  0
  140.4830   71.4020  224.8830 C   0  0  0  0  0  0  0  0  0  0  0  0
  140.5730   72.2390  223.8150 N   0  0  0  0  0  0  0  0  0  0  0  0
  142.1530   73.4160  221.9430 H   0  0  0  0  0  0  0  0  0  0  0  0
  142.6469   74.3152  219.7897 H   0  0  0  0  0  0  0  0  0  0  0  0
  140.8993   74.1733  219.3311 H   0  0  0  0  0  0  0  0  0  0  0  0
  142.9210   77.2670  221.0350 H   0  0  0  0  0  0  0  0  0  0  0  0
  139.1932   77.1995  219.3524 H   0  0  0  0  0  0  0  0  0  0  0  0
  138.7748   75.5053  219.6700 H   0  0  0  0  0  0  0  0  0  0  0  0
  137.7277   77.9987  220.9462 H   0  0  0  0  0  0  0  0  0  0  0  0
  136.9797   76.3986  220.8971 H   0  0  0  0  0  0  0  0  0  0  0  0
  138.1100   77.4487  223.1836 H   0  0  0  0  0  0  0  0  0  0  0  0
  138.0798   75.7062  222.8941 H   0  0  0  0  0  0  0  0  0  0  0  0
  140.4578   75.9763  223.0599 H   0  0  0  0  0  0  0  0  0  0  0  0
  139.4519   81.0102  223.9095 H   0  0  0  0  0  0  0  0  0  0  0  0
  143.4193   79.7131  222.8100 H   0  0  0  0  0  0  0  0  0  0  0  0
  138.6427   70.6013  221.5659 H   0  0  0  0  0  0  0  0  0  0  0  0
  138.4509   69.0241  223.4958 H   0  0  0  0  0  0  0  0  0  0  0  0
  139.0455   68.4286  225.8187 H   0  0  0  0  0  0  0  0  0  0  0  0
  141.6181   71.0678  228.0899 H   0  0  0  0  0  0  0  0  0  0  0  0
  141.7583   72.6244  226.1421 H   0  0  0  0  0  0  0  0  0  0  0  0
  1  2  2  0
  2  3  1  0
  3  4  1  0
  4  5  1  0
  5  6  1  0
  5  7  2  0
  7  8  1  0
  8  9  1  0
  9 10  1  0
 10 11  1  0
 11 12  1  0
 12 13  2  0
 13 14  1  0
 14 15  2  0
 15 16  1  0
 15 17  1  0
 17 18  2  0
  2 19  1  0
 19 20  2  0
 20 21  1  0
 21 22  2  0
 22 23  1  0
 23 24  2  0
 24 25  1  0
 24 26  1  0
 26 27  2  0
 27 28  1  0
 28 29  2  0
 11  7  1  0
 18 12  1  0
 29 19  1  0
 28 22  1  0
  3 30  1  0
  4 31  1  0
  4 32  1  0
  6 33  1  0
  8 34  1  0
  8 35  1  0
  9 36  1  0
  9 37  1  0
 10 38  1  0
 10 39  1  0
 11 40  1  1
 14 41  1  0
 17 42  1  0
 20 43  1  0
 21 44  1  0
 23 45  1  0
 26 46  1  0
 27 47  1  0
M  CHG  1   7   1
M  END
>  <meeko>  (12) 
{"free_energy": -7.32, "intermolecular_energy": -9.11, "internal_energy": -2.16, "cluster_size": 20, "cluster_id": 1, "rank_in_cluster": 19}

$$$$

     RDKit          3D

 47 50  0  0  0  0  0  0  0  0999 V2000
  139.4060   71.8740  220.6130 O   0  0  0  0  0  0  0  0  0  0  0  0
  139.5570   72.3160  221.7840 C   0  0  0  0  0  0  0  0  0  0  0  0
  139.6490   73.7320  222.0090 N   0  0  0  0  0  0  0  0  0  0  0  0
  139.6200   74.7060  220.9210 C   0  0  0  0  0  0  0  0  0  0  0  0
  140.1630   76.0440  221.3590 C   0  0  0  0  0  0  0  0  0  0  0  0
  140.4430   76.1840  222.7240 O   0  0  0  0  0  0  0  0  0  0  0  0
  140.3840   77.0330  220.5180 N   0  0  0  0  0  0  0  0  0  0  0  0
  141.1040   76.8630  219.2590 C   0  0  0  0  0  0  0  0  0  0  0  0
  141.0670   78.2160  218.5580 C   0  0  0  0  0  0  0  0  0  0  0  0
  139.9770   79.0080  219.2650 C   0  0  0  0  0  0  0  0  0  0  0  0
  139.8820   78.4040  220.6640 C   0  0  2  0  0  0  0  0  0  0  0  0
  140.7370   79.1930  221.6240 C   0  0  0  0  0  0  0  0  0  0  0  0
  140.9270   78.7580  222.9000 N   0  0  0  0  0  0  0  0  0  0  0  0
  141.7380   79.4300  223.7570 C   0  0  0  0  0  0  0  0  0  0  0  0
  142.4030   80.5760  223.3260 C   0  0  0  0  0  0  0  0  0  0  0  0
  143.2180   81.2610  224.1660 F   0  0  0  0  0  0  0  0  0  0  0  0
  142.2090   81.0060  222.0140 C   0  0  0  0  0  0  0  0  0  0  0  0
  141.3870   80.3060  221.1880 N   0  0  0  0  0  0  0  0  0  0  0  0
  139.6510   71.3730  222.9190 C   0  0  0  0  0  0  0  0  0  0  0  0
  139.1930   70.0490  222.8020 C   0  0  0  0  0  0  0  0  0  0  0  0
  139.3270   69.1730  223.8810 C   0  0  0  0  0  0  0  0  0  0  0  0
  139.9130   69.6170  225.0720 C   0  0  0  0  0  0  0  0  0  0  0  0
  140.0750   68.7590  226.1700 C   0  0  0  0  0  0  0  0  0  0  0  0
  140.6730   69.2320  227.3440 C   0  0  0  0  0  0  0  0  0  0  0  0
  140.8780   68.1580  228.7160 Cl  0  0  0  0  0  0  0  0  0  0  0  0
  141.1100   70.5590  227.4240 C   0  0  0  0  0  0  0  0  0  0  0  0
  140.9500   71.4200  226.3340 C   0  0  0  0  0  0  0  0  0  0  0  0
  140.3540   70.9550  225.1570 C   0  0  0  0  0  0  0  0  0  0  0  0
  140.2130   71.7840  224.0900 N   0  0  0  0  0  0  0  0  0  0  0  0
  139.7040   74.0970  222.9850 H   0  0  0  0  0  0  0  0  0  0  0  0
  140.2305   74.3285  220.0875 H   0  0  0  0  0  0  0  0  0  0  0  0
  138.5738   74.8441  220.6105 H   0  0  0  0  0  0  0  0  0  0  0  0
  140.8850   76.9980  223.1280 H   0  0  0  0  0  0  0  0  0  0  0  0
  142.1444   76.5630  219.4529 H   0  0  0  0  0  0  0  0  0  0  0  0
  140.6447   76.0791  218.6389 H   0  0  0  0  0  0  0  0  0  0  0  0
  142.0370   78.7258  218.6541 H   0  0  0  0  0  0  0  0  0  0  0  0
  140.8652   78.1135  217.4815 H   0  0  0  0  0  0  0  0  0  0  0  0
  140.2499   80.0721  219.3226 H   0  0  0  0  0  0  0  0  0  0  0  0
  139.0179   78.9536  218.7292 H   0  0  0  0  0  0  0  0  0  0  0  0
  138.8575   78.4205  221.0642 H   0  0  0  0  0  0  0  0  0  0  0  0
  141.8696   79.0707  224.7883 H   0  0  0  0  0  0  0  0  0  0  0  0
  142.7196   81.9091  221.6483 H   0  0  0  0  0  0  0  0  0  0  0  0
  138.7312   69.7048  221.8648 H   0  0  0  0  0  0  0  0  0  0  0  0
  138.9725   68.1352  223.7951 H   0  0  0  0  0  0  0  0  0  0  0  0
  139.7324   67.7155  226.1085 H   0  0  0  0  0  0  0  0  0  0  0  0
  141.5811   70.9261  228.3478 H   0  0  0  0  0  0  0  0  0  0  0  0
  141.2928   72.4630  226.4020 H   0  0  0  0  0  0  0  0  0  0  0  0
  1  2  2  0
  2  3  1  0
  3  4  1  0
  4  5  1  0
  5  6  1  0
  5  7  2  0
  7  8  1  0
  8  9  1  0
  9 10  1  0
 10 11  1  0
 11 12  1  0
 12 13  2  0
 13 14  1  0
 14 15  2  0
 15 16  1  0
 15 17  1  0
 17 18  2  0
  2 19  1  0
 19 20  2  0
 20 21  1  0
 21 22  2  0
 22 23  1  0
 23 24  2  0
 24 25  1  0
 24 26  1  0
 26 27  2  0
 27 28  1  0
 28 29  2  0
 11  7  1  0
 18 12  1  0
 29 19  1  0
 28 22  1  0
  3 30  1  0
  4 31  1  0
  4 32  1  0
  6 33  1  0
  8 34  1  0
  8 35  1  0
  9 36  1  0
  9 37  1  0
 10 38  1  0
 10 39  1  0
 11 40  1  1
 14 41  1  0
 17 42  1  0
 20 43  1  0
 21 44  1  0
 23 45  1  0
 26 46  1  0
 27 47  1  0
M  CHG  1   7   1
M  END
>  <meeko>  (13) 
{"free_energy": -7.28, "intermolecular_energy": -9.07, "internal_energy": -2.33, "cluster_size": 20, "cluster_id": 1, "rank_in_cluster": 20}

$$$$

     RDKit          3D

 47 50  0  0  0  0  0  0  0  0999 V2000
  139.2010   71.9700  220.6800 O   0  0  0  0  0  0  0  0  0  0  0  0
  139.4130   72.4050  221.8440 C   0  0  0  0  0  0  0  0  0  0  0  0
  139.5440   73.8180  222.0670 N   0  0  0  0  0  0  0  0  0  0  0  0
  139.4850   74.7960  220.9850 C   0  0  0  0  0  0  0  0  0  0  0  0
  140.2770   76.0390  221.3140 C   0  0  0  0  0  0  0  0  0  0  0  0
  141.0700   75.9810  222.4670 O   0  0  0  0  0  0  0  0  0  0  0  0
  140.2480   77.1210  220.5650 N   0  0  0  0  0  0  0  0  0  0  0  0
  140.6840   77.1360  219.1710 C   0  0  0  0  0  0  0  0  0  0  0  0
  140.4140   78.5440  218.6530 C   0  0  0  0  0  0  0  0  0  0  0  0
  139.4610   79.1700  219.6600 C   0  0  0  0  0  0  0  0  0  0  0  0
  139.7110   78.4240  220.9690 C   0  0  2  0  0  0  0  0  0  0  0  0
  140.7070   79.1820  221.8100 C   0  0  0  0  0  0  0  0  0  0  0  0
  141.0340   80.4690  221.5050 N   0  0  0  0  0  0  0  0  0  0  0  0
  141.8880   81.1790  222.2860 C   0  0  0  0  0  0  0  0  0  0  0  0
  142.4310   80.5960  223.4290 C   0  0  0  0  0  0  0  0  0  0  0  0
  143.2850   81.2890  224.2220 F   0  0  0  0  0  0  0  0  0  0  0  0
  142.0800   79.2820  223.7360 C   0  0  0  0  0  0  0  0  0  0  0  0
  141.2230   78.6040  222.9280 N   0  0  0  0  0  0  0  0  0  0  0  0
  139.5400   71.4570  222.9720 C   0  0  0  0  0  0  0  0  0  0  0  0
  139.0960   70.1280  222.8550 C   0  0  0  0  0  0  0  0  0  0  0  0
  139.2610   69.2470  223.9260 C   0  0  0  0  0  0  0  0  0  0  0  0
  139.8630   69.6910  225.1080 C   0  0  0  0  0  0  0  0  0  0  0  0
  140.0560   68.8290  226.1980 C   0  0  0  0  0  0  0  0  0  0  0  0
  140.6700   69.3030  227.3640 C   0  0  0  0  0  0  0  0  0  0  0  0
  140.9130   68.2240  228.7250 Cl  0  0  0  0  0  0  0  0  0  0  0  0
  141.0920   70.6350  227.4440 C   0  0  0  0  0  0  0  0  0  0  0  0
  140.9020   71.5000  226.3610 C   0  0  0  0  0  0  0  0  0  0  0  0
  140.2890   71.0340  225.1940 C   0  0  0  0  0  0  0  0  0  0  0  0
  140.1180   71.8680  224.1340 N   0  0  0  0  0  0  0  0  0  0  0  0
  139.6510   74.1790  223.0410 H   0  0  0  0  0  0  0  0  0  0  0  0
  139.8963   74.3423  220.0712 H   0  0  0  0  0  0  0  0  0  0  0  0
  138.4338   75.0864  220.8412 H   0  0  0  0  0  0  0  0  0  0  0  0
  141.8840   76.5600  222.6190 H   0  0  0  0  0  0  0  0  0  0  0  0
  141.7576   76.9054  219.1053 H   0  0  0  0  0  0  0  0  0  0  0  0
  140.1478   76.3817  218.5764 H   0  0  0  0  0  0  0  0  0  0  0  0
  141.3495   79.1201  218.5991 H   0  0  0  0  0  0  0  0  0  0  0  0
  139.9872   78.5317  217.6393 H   0  0  0  0  0  0  0  0  0  0  0  0
  139.6769   80.2419  219.7801 H   0  0  0  0  0  0  0  0  0  0  0  0
  138.4126   79.0908  219.3366 H   0  0  0  0  0  0  0  0  0  0  0  0
  138.7999   78.3159  221.5759 H   0  0  0  0  0  0  0  0  0  0  0  0
  142.1507   82.2127  222.0168 H   0  0  0  0  0  0  0  0  0  0  0  0
  142.4959   78.7951  224.6304 H   0  0  0  0  0  0  0  0  0  0  0  0
  138.6210   69.7839  221.9244 H   0  0  0  0  0  0  0  0  0  0  0  0
  138.9180   68.2054  223.8402 H   0  0  0  0  0  0  0  0  0  0  0  0
  139.7253   67.7817  226.1368 H   0  0  0  0  0  0  0  0  0  0  0  0
  141.5746   71.0030  228.3614 H   0  0  0  0  0  0  0  0  0  0  0  0
  141.2347   72.5463  226.4276 H   0  0  0  0  0  0  0  0  0  0  0  0
  1  2  2  0
  2  3  1  0
  3  4  1  0
  4  5  1  0
  5  6  1  0
  5  7  2  0
  7  8  1  0
  8  9  1  0
  9 10  1  0
 10 11  1  0
 11 12  1  0
 12 13  2  0
 13 14  1  0
 14 15  2  0
 15 16  1  0
 15 17  1  0
 17 18  2  0
  2 19  1  0
 19 20  2  0
 20 21  1  0
 21 22  2  0
 22 23  1  0
 23 24  2  0
 24 25  1  0
 24 26  1  0
 26 27  2  0
 27 28  1  0
 28 29  2  0
 11  7  1  0
 18 12  1  0
 29 19  1  0
 28 22  1  0
  3 30  1  0
  4 31  1  0
  4 32  1  0
  6 33  1  0
  8 34  1  0
  8 35  1  0
  9 36  1  0
  9 37  1  0
 10 38  1  0
 10 39  1  0
 11 40  1  1
 14 41  1  0
 17 42  1  0
 20 43  1  0
 21 44  1  0
 23 45  1  0
 26 46  1  0
 27 47  1  0
M  CHG  1   7   1
M  END
>  <meeko>  (14) 
{"free_energy": -7.88, "intermolecular_energy": -9.67, "internal_energy": -2.15, "cluster_size": 20, "cluster_id": 1, "rank_in_cluster": 14}

$$$$

     RDKit          3D

 47 50  0  0  0  0  0  0  0  0999 V2000
  140.2370   72.5310  220.7040 O   0  0  0  0  0  0  0  0  0  0  0  0
  139.9730   72.9070  221.8790 C   0  0  0  0  0  0  0  0  0  0  0  0
  139.7110   74.2940  222.1450 N   0  0  0  0  0  0  0  0  0  0  0  0
  139.7780   75.3220  221.1100 C   0  0  0  0  0  0  0  0  0  0  0  0
  141.2030   75.6020  220.6970 C   0  0  0  0  0  0  0  0  0  0  0  0
  142.1580   74.6520  221.0770 O   0  0  0  0  0  0  0  0  0  0  0  0
  141.5460   76.6680  220.0030 N   0  0  0  0  0  0  0  0  0  0  0  0
  142.5370   76.6360  218.9310 C   0  0  0  0  0  0  0  0  0  0  0  0
  142.5780   78.0420  218.3430 C   0  0  0  0  0  0  0  0  0  0  0  0
  141.3130   78.7260  218.8420 C   0  0  0  0  0  0  0  0  0  0  0  0
  140.9450   78.0000  220.1340 C   0  0  2  0  0  0  0  0  0  0  0  0
  141.5170   78.7370  221.3180 C   0  0  0  0  0  0  0  0  0  0  0  0
  142.0980   79.9590  221.1590 N   0  0  0  0  0  0  0  0  0  0  0  0
  142.5680   80.6560  222.2250 C   0  0  0  0  0  0  0  0  0  0  0  0
  142.4420   80.1290  223.5090 C   0  0  0  0  0  0  0  0  0  0  0  0
  142.9040   80.8100  224.5860 F   0  0  0  0  0  0  0  0  0  0  0  0
  141.8360   78.8820  223.6600 C   0  0  0  0  0  0  0  0  0  0  0  0
  141.3810   78.2150  222.5670 N   0  0  0  0  0  0  0  0  0  0  0  0
  139.9490   71.9180  222.9790 C   0  0  0  0  0  0  0  0  0  0  0  0
  139.4620   70.6170  222.7720 C   0  0  0  0  0  0  0  0  0  0  0  0
  139.4830   69.6950  223.8220 C   0  0  0  0  0  0  0  0  0  0  0  0
  139.9860   70.0740  225.0710 C   0  0  0  0  0  0  0  0  0  0  0  0
  140.0330   69.1700  226.1430 C   0  0  0  0  0  0  0  0  0  0  0  0
  140.5500   69.5780  227.3790 C   0  0  0  0  0  0  0  0  0  0  0  0
  140.6130   68.4460  228.7180 Cl  0  0  0  0  0  0  0  0  0  0  0  0
  141.0200   70.8850  227.5470 C   0  0  0  0  0  0  0  0  0  0  0  0
  140.9740   71.7920  226.4830 C   0  0  0  0  0  0  0  0  0  0  0  0
  140.4580   71.3920  225.2460 C   0  0  0  0  0  0  0  0  0  0  0  0
  140.4280   72.2660  224.2050 N   0  0  0  0  0  0  0  0  0  0  0  0
  139.4260   74.5910  223.1040 H   0  0  0  0  0  0  0  0  0  0  0  0
  139.2119   74.9809  220.2307 H   0  0  0  0  0  0  0  0  0  0  0  0
  139.3491   76.2493  221.5175 H   0  0  0  0  0  0  0  0  0  0  0  0
  142.0540   73.6580  220.9260 H   0  0  0  0  0  0  0  0  0  0  0  0
  143.5238   76.3624  219.3328 H   0  0  0  0  0  0  0  0  0  0  0  0
  142.2741   75.8906  218.1660 H   0  0  0  0  0  0  0  0  0  0  0  0
  143.4707   78.5802  218.6944 H   0  0  0  0  0  0  0  0  0  0  0  0
  142.6274   78.0246  217.2442 H   0  0  0  0  0  0  0  0  0  0  0  0
  141.5033   79.7913  219.0394 H   0  0  0  0  0  0  0  0  0  0  0  0
  140.5020   78.6796  218.1003 H   0  0  0  0  0  0  0  0  0  0  0  0
  139.8581   77.9404  220.2922 H   0  0  0  0  0  0  0  0  0  0  0  0
  143.0473   81.6347  222.0756 H   0  0  0  0  0  0  0  0  0  0  0  0
  141.7266   78.4396  224.6612 H   0  0  0  0  0  0  0  0  0  0  0  0
  139.0660   70.3252  221.7881 H   0  0  0  0  0  0  0  0  0  0  0  0
  139.1049   68.6738  223.6667 H   0  0  0  0  0  0  0  0  0  0  0  0
  139.6642   68.1419  226.0128 H   0  0  0  0  0  0  0  0  0  0  0  0
  141.4271   71.2005  228.5190 H   0  0  0  0  0  0  0  0  0  0  0  0
  141.3434   72.8191  226.6191 H   0  0  0  0  0  0  0  0  0  0  0  0
  1  2  2  0
  2  3  1  0
  3  4  1  0
  4  5  1  0
  5  6  1  0
  5  7  2  0
  7  8  1  0
  8  9  1  0
  9 10  1  0
 10 11  1  0
 11 12  1  0
 12 13  2  0
 13 14  1  0
 14 15  2  0
 15 16  1  0
 15 17  1  0
 17 18  2  0
  2 19  1  0
 19 20  2  0
 20 21  1  0
 21 22  2  0
 22 23  1  0
 23 24  2  0
 24 25  1  0
 24 26  1  0
 26 27  2  0
 27 28  1  0
 28 29  2  0
 11  7  1  0
 18 12  1  0
 29 19  1  0
 28 22  1  0
  3 30  1  0
  4 31  1  0
  4 32  1  0
  6 33  1  0
  8 34  1  0
  8 35  1  0
  9 36  1  0
  9 37  1  0
 10 38  1  0
 10 39  1  0
 11 40  1  1
 14 41  1  0
 17 42  1  0
 20 43  1  0
 21 44  1  0
 23 45  1  0
 26 46  1  0
 27 47  1  0
M  CHG  1   7   1
M  END
>  <meeko>  (15) 
{"free_energy": -8.03, "intermolecular_energy": -9.82, "internal_energy": -1.89, "cluster_size": 20, "cluster_id": 1, "rank_in_cluster": 10}

$$$$

     RDKit          3D

 47 50  0  0  0  0  0  0  0  0999 V2000
  141.0200   72.7930  221.0460 O   0  0  0  0  0  0  0  0  0  0  0  0
  140.1920   72.9430  221.9850 C   0  0  0  0  0  0  0  0  0  0  0  0
  139.3410   74.1000  222.0100 N   0  0  0  0  0  0  0  0  0  0  0  0
  139.4170   75.1570  221.0050 C   0  0  0  0  0  0  0  0  0  0  0  0
  140.6240   76.0390  221.2170 C   0  0  0  0  0  0  0  0  0  0  0  0
  141.4170   75.7470  222.3330 O   0  0  0  0  0  0  0  0  0  0  0  0
  140.9380   77.0230  220.4010 N   0  0  0  0  0  0  0  0  0  0  0  0
  141.8130   76.8510  219.2450 C   0  0  0  0  0  0  0  0  0  0  0  0
  141.8510   78.1980  218.5310 C   0  0  0  0  0  0  0  0  0  0  0  0
  140.6720   78.9830  219.0870 C   0  0  0  0  0  0  0  0  0  0  0  0
  140.4070   78.3890  220.4680 C   0  0  2  0  0  0  0  0  0  0  0  0
  141.1260   79.1960  221.5210 C   0  0  0  0  0  0  0  0  0  0  0  0
  141.2400   80.5490  221.3980 N   0  0  0  0  0  0  0  0  0  0  0  0
  141.8360   81.2920  222.3660 C   0  0  0  0  0  0  0  0  0  0  0  0
  142.3270   80.6720  223.5130 C   0  0  0  0  0  0  0  0  0  0  0  0
  142.9260   81.3970  224.4900 F   0  0  0  0  0  0  0  0  0  0  0  0
  142.1950   79.2890  223.6310 C   0  0  0  0  0  0  0  0  0  0  0  0
  141.5940   78.5800  222.6400 N   0  0  0  0  0  0  0  0  0  0  0  0
  140.1110   71.9330  223.0620 C   0  0  0  0  0  0  0  0  0  0  0  0
  139.5630   70.6610  222.8230 C   0  0  0  0  0  0  0  0  0  0  0  0
  139.5310   69.7180  223.8530 C   0  0  0  0  0  0  0  0  0  0  0  0
  140.0410   70.0440  225.1140 C   0  0  0  0  0  0  0  0  0  0  0  0
  140.0370   69.1160  226.1660 C   0  0  0  0  0  0  0  0  0  0  0  0
  140.5630   69.4710  227.4140 C   0  0  0  0  0  0  0  0  0  0  0  0
  140.5600   68.3090  228.7280 Cl  0  0  0  0  0  0  0  0  0  0  0  0
  141.0940   70.7500  227.6140 C   0  0  0  0  0  0  0  0  0  0  0  0
  141.1000   71.6810  226.5700 C   0  0  0  0  0  0  0  0  0  0  0  0
  140.5760   71.3340  225.3210 C   0  0  0  0  0  0  0  0  0  0  0  0
  140.5960   72.2300  224.2990 N   0  0  0  0  0  0  0  0  0  0  0  0
  138.6100   74.1870  222.7500 H   0  0  0  0  0  0  0  0  0  0  0  0
  139.4813   74.6975  220.0077 H   0  0  0  0  0  0  0  0  0  0  0  0
  138.5152   75.7807  221.0925 H   0  0  0  0  0  0  0  0  0  0  0  0
  142.0010   76.4270  222.8020 H   0  0  0  0  0  0  0  0  0  0  0  0
  142.8236   76.5648  219.5718 H   0  0  0  0  0  0  0  0  0  0  0  0
  141.4439   76.0567  218.5796 H   0  0  0  0  0  0  0  0  0  0  0  0
  142.7956   78.7199  218.7438 H   0  0  0  0  0  0  0  0  0  0  0  0
  141.7882   78.0841  217.4387 H   0  0  0  0  0  0  0  0  0  0  0  0
  140.9243   80.0506  219.1688 H   0  0  0  0  0  0  0  0  0  0  0  0
  139.7891   78.9134  218.4346 H   0  0  0  0  0  0  0  0  0  0  0  0
  139.3397   78.3965  220.7343 H   0  0  0  0  0  0  0  0  0  0  0  0
  141.9309   82.3812  222.2447 H   0  0  0  0  0  0  0  0  0  0  0  0
  142.5766   78.7731  224.5244 H   0  0  0  0  0  0  0  0  0  0  0  0
  139.1615   70.4095  221.8303 H   0  0  0  0  0  0  0  0  0  0  0  0
  139.1051   68.7200  223.6726 H   0  0  0  0  0  0  0  0  0  0  0  0
  139.6207   68.1098  226.0104 H   0  0  0  0  0  0  0  0  0  0  0  0
  141.5081   71.0243  228.5955 H   0  0  0  0  0  0  0  0  0  0  0  0
  141.5169   72.6860  226.7316 H   0  0  0  0  0  0  0  0  0  0  0  0
  1  2  2  0
  2  3  1  0
  3  4  1  0
  4  5  1  0
  5  6  1  0
  5  7  2  0
  7  8  1  0
  8  9  1  0
  9 10  1  0
 10 11  1  0
 11 12  1  0
 12 13  2  0
 13 14  1  0
 14 15  2  0
 15 16  1  0
 15 17  1  0
 17 18  2  0
  2 19  1  0
 19 20  2  0
 20 21  1  0
 21 22  2  0
 22 23  1  0
 23 24  2  0
 24 25  1  0
 24 26  1  0
 26 27  2  0
 27 28  1  0
 28 29  2  0
 11  7  1  0
 18 12  1  0
 29 19  1  0
 28 22  1  0
  3 30  1  0
  4 31  1  0
  4 32  1  0
  6 33  1  0
  8 34  1  0
  8 35  1  0
  9 36  1  0
  9 37  1  0
 10 38  1  0
 10 39  1  0
 11 40  1  1
 14 41  1  0
 17 42  1  0
 20 43  1  0
 21 44  1  0
 23 45  1  0
 26 46  1  0
 27 47  1  0
M  CHG  1   7   1
M  END
>  <meeko>  (16) 
{"free_energy": -8.46, "intermolecular_energy": -10.25, "internal_energy": -1.69, "cluster_size": 20, "cluster_id": 1, "rank_in_cluster": 1}

$$$$

     RDKit          3D

 47 50  0  0  0  0  0  0  0  0999 V2000
  139.2370   71.6090  220.9220 O   0  0  0  0  0  0  0  0  0  0  0  0
  139.4020   72.0770  222.0820 C   0  0  0  0  0  0  0  0  0  0  0  0
  139.4580   73.4990  222.2780 N   0  0  0  0  0  0  0  0  0  0  0  0
  139.3740   74.4510  221.1740 C   0  0  0  0  0  0  0  0  0  0  0  0
  140.0040   75.7750  221.5330 C   0  0  0  0  0  0  0  0  0  0  0  0
  139.5630   76.3700  222.7210 O   0  0  0  0  0  0  0  0  0  0  0  0
  140.9300   76.3480  220.7920 N   0  0  0  0  0  0  0  0  0  0  0  0
  142.0550   75.6160  220.2160 C   0  0  0  0  0  0  0  0  0  0  0  0
  142.8330   76.6200  219.3730 C   0  0  0  0  0  0  0  0  0  0  0  0
  141.8910   77.8000  219.1780 C   0  0  0  0  0  0  0  0  0  0  0  0
  140.9330   77.7510  220.3660 C   0  0  2  0  0  0  0  0  0  0  0  0
  141.4360   78.6490  221.4680 C   0  0  0  0  0  0  0  0  0  0  0  0
  141.8100   79.9310  221.2010 N   0  0  0  0  0  0  0  0  0  0  0  0
  142.2120   80.7660  222.1940 C   0  0  0  0  0  0  0  0  0  0  0  0
  142.2290   80.3170  223.5130 C   0  0  0  0  0  0  0  0  0  0  0  0
  142.6270   81.1350  224.5180 F   0  0  0  0  0  0  0  0  0  0  0  0
  141.8340   79.0050  223.7750 C   0  0  0  0  0  0  0  0  0  0  0  0
  141.4400   78.2010  222.7530 N   0  0  0  0  0  0  0  0  0  0  0  0
  139.5510   71.1590  223.2310 C   0  0  0  0  0  0  0  0  0  0  0  0
  139.1520   69.8140  223.1410 C   0  0  0  0  0  0  0  0  0  0  0  0
  139.3370   68.9630  224.2330 C   0  0  0  0  0  0  0  0  0  0  0  0
  139.9150   69.4530  225.4090 C   0  0  0  0  0  0  0  0  0  0  0  0
  140.1260   68.6220  226.5190 C   0  0  0  0  0  0  0  0  0  0  0  0
  140.7150   69.1420  227.6790 C   0  0  0  0  0  0  0  0  0  0  0  0
  140.9820   68.1020  229.0660 Cl  0  0  0  0  0  0  0  0  0  0  0  0
  141.0930   70.4890  227.7320 C   0  0  0  0  0  0  0  0  0  0  0  0
  140.8830   71.3230  226.6290 C   0  0  0  0  0  0  0  0  0  0  0  0
  140.2950   70.8110  225.4670 C   0  0  0  0  0  0  0  0  0  0  0  0
  140.1050   71.6150  224.3880 N   0  0  0  0  0  0  0  0  0  0  0  0
  139.5250   73.8840  223.2460 H   0  0  0  0  0  0  0  0  0  0  0  0
  139.8961   74.0323  220.3010 H   0  0  0  0  0  0  0  0  0  0  0  0
  138.3112   74.6251  220.9498 H   0  0  0  0  0  0  0  0  0  0  0  0
  139.1060   75.8640  223.4680 H   0  0  0  0  0  0  0  0  0  0  0  0
  142.6951   75.2120  221.0141 H   0  0  0  0  0  0  0  0  0  0  0  0
  141.7098   74.7666  219.6083 H   0  0  0  0  0  0  0  0  0  0  0  0
  143.7453   76.9386  219.8985 H   0  0  0  0  0  0  0  0  0  0  0  0
  143.1518   76.1880  218.4129 H   0  0  0  0  0  0  0  0  0  0  0  0
  142.4532   78.7455  219.1751 H   0  0  0  0  0  0  0  0  0  0  0  0
  141.3571   77.7444  218.2179 H   0  0  0  0  0  0  0  0  0  0  0  0
  139.9213   78.0983  220.1093 H   0  0  0  0  0  0  0  0  0  0  0  0
  142.5234   81.7942  221.9575 H   0  0  0  0  0  0  0  0  0  0  0  0
  141.8415   78.6224  224.8063 H   0  0  0  0  0  0  0  0  0  0  0  0
  138.6962   69.4336  222.2150 H   0  0  0  0  0  0  0  0  0  0  0  0
  139.0287   67.9091  224.1684 H   0  0  0  0  0  0  0  0  0  0  0  0
  139.8295   67.5635  226.4788 H   0  0  0  0  0  0  0  0  0  0  0  0
  141.5567   70.8928  228.6441 H   0  0  0  0  0  0  0  0  0  0  0  0
  141.1800   72.3812  226.6750 H   0  0  0  0  0  0  0  0  0  0  0  0
  1  2  2  0
  2  3  1  0
  3  4  1  0
  4  5  1  0
  5  6  1  0
  5  7  2  0
  7  8  1  0
  8  9  1  0
  9 10  1  0
 10 11  1  0
 11 12  1  0
 12 13  2  0
 13 14  1  0
 14 15  2  0
 15 16  1  0
 15 17  1  0
 17 18  2  0
  2 19  1  0
 19 20  2  0
 20 21  1  0
 21 22  2  0
 22 23  1  0
 23 24  2  0
 24 25  1  0
 24 26  1  0
 26 27  2  0
 27 28  1  0
 28 29  2  0
 11  7  1  0
 18 12  1  0
 29 19  1  0
 28 22  1  0
  3 30  1  0
  4 31  1  0
  4 32  1  0
  6 33  1  0
  8 34  1  0
  8 35  1  0
  9 36  1  0
  9 37  1  0
 10 38  1  0
 10 39  1  0
 11 40  1  6
 14 41  1  0
 17 42  1  0
 20 43  1  0
 21 44  1  0
 23 45  1  0
 26 46  1  0
 27 47  1  0
M  CHG  1   7   1
M  END
>  <meeko>  (17) 
{"free_energy": -8.39, "intermolecular_energy": -10.18, "internal_energy": -1.38, "cluster_size": 20, "cluster_id": 1, "rank_in_cluster": 3}

$$$$

     RDKit          3D

 47 50  0  0  0  0  0  0  0  0999 V2000
  141.0930   73.0310  221.5510 O   0  0  0  0  0  0  0  0  0  0  0  0
  140.0820   72.9180  222.2970 C   0  0  0  0  0  0  0  0  0  0  0  0
  138.9660   73.8070  222.1290 N   0  0  0  0  0  0  0  0  0  0  0  0
  138.9590   74.8860  221.1450 C   0  0  0  0  0  0  0  0  0  0  0  0
  139.6660   76.1150  221.6630 C   0  0  0  0  0  0  0  0  0  0  0  0
  140.8790   75.8990  222.3270 O   0  0  0  0  0  0  0  0  0  0  0  0
  139.1930   77.3320  221.4950 N   0  0  0  0  0  0  0  0  0  0  0  0
  138.7470   77.8430  220.2020 C   0  0  0  0  0  0  0  0  0  0  0  0
  138.2040   79.2440  220.4580 C   0  0  0  0  0  0  0  0  0  0  0  0
  137.9940   79.3280  221.9630 C   0  0  0  0  0  0  0  0  0  0  0  0
  138.9640   78.3120  222.5630 C   0  0  2  0  0  0  0  0  0  0  0  0
  140.2500   78.9980  222.9520 C   0  0  0  0  0  0  0  0  0  0  0  0
  141.4530   78.4360  222.6480 N   0  0  0  0  0  0  0  0  0  0  0  0
  142.6170   79.0700  222.9440 C   0  0  0  0  0  0  0  0  0  0  0  0
  142.5890   80.3230  223.5530 C   0  0  0  0  0  0  0  0  0  0  0  0
  143.7400   80.9720  223.8570 F   0  0  0  0  0  0  0  0  0  0  0  0
  141.3510   80.8920  223.8490 C   0  0  0  0  0  0  0  0  0  0  0  0
  140.2090   80.2250  223.5380 N   0  0  0  0  0  0  0  0  0  0  0  0
  140.0570   71.8800  223.3500 C   0  0  0  0  0  0  0  0  0  0  0  0
  139.5730   70.5880  223.0830 C   0  0  0  0  0  0  0  0  0  0  0  0
  139.5940   69.6200  224.0900 C   0  0  0  0  0  0  0  0  0  0  0  0
  140.0930   69.9420  225.3560 C   0  0  0  0  0  0  0  0  0  0  0  0
  140.1410   68.9900  226.3860 C   0  0  0  0  0  0  0  0  0  0  0  0
  140.6540   69.3410  227.6400 C   0  0  0  0  0  0  0  0  0  0  0  0
  140.7160   68.1500  228.9260 Cl  0  0  0  0  0  0  0  0  0  0  0  0
  141.1210   70.6410  227.8690 C   0  0  0  0  0  0  0  0  0  0  0  0
  141.0750   71.5950  226.8470 C   0  0  0  0  0  0  0  0  0  0  0  0
  140.5630   71.2520  225.5920 C   0  0  0  0  0  0  0  0  0  0  0  0
  140.5320   72.1720  224.5920 N   0  0  0  0  0  0  0  0  0  0  0  0
  138.1040   73.6680  222.7010 H   0  0  0  0  0  0  0  0  0  0  0  0
  139.4666   74.5402  220.2324 H   0  0  0  0  0  0  0  0  0  0  0  0
  137.9129   75.1536  220.9353 H   0  0  0  0  0  0  0  0  0  0  0  0
  141.7420   76.3710  222.0920 H   0  0  0  0  0  0  0  0  0  0  0  0
  139.5909   77.8847  219.4976 H   0  0  0  0  0  0  0  0  0  0  0  0
  137.9789   77.1920  219.7590 H   0  0  0  0  0  0  0  0  0  0  0  0
  138.9278   80.0035  220.1275 H   0  0  0  0  0  0  0  0  0  0  0  0
  137.2717   79.4286  219.9042 H   0  0  0  0  0  0  0  0  0  0  0  0
  138.2220   80.3404  222.3279 H   0  0  0  0  0  0  0  0  0  0  0  0
  136.9520   79.1154  222.2440 H   0  0  0  0  0  0  0  0  0  0  0  0
  138.5702   77.8353  223.4727 H   0  0  0  0  0  0  0  0  0  0  0  0
  143.5798   78.5954  222.7035 H   0  0  0  0  0  0  0  0  0  0  0  0
  141.2991   81.8784  224.3331 H   0  0  0  0  0  0  0  0  0  0  0  0
  139.1796   70.3401  222.0861 H   0  0  0  0  0  0  0  0  0  0  0  0
  139.2186   68.6061  223.8874 H   0  0  0  0  0  0  0  0  0  0  0  0
  139.7754   67.9679  226.2078 H   0  0  0  0  0  0  0  0  0  0  0  0
  141.5252   70.9128  228.8553 H   0  0  0  0  0  0  0  0  0  0  0  0
  141.4418   72.6156  227.0308 H   0  0  0  0  0  0  0  0  0  0  0  0
  1  2  2  0
  2  3  1  0
  3  4  1  0
  4  5  1  0
  5  6  1  0
  5  7  2  0
  7  8  1  0
  8  9  1  0
  9 10  1  0
 10 11  1  0
 11 12  1  0
 12 13  2  0
 13 14  1  0
 14 15  2  0
 15 16  1  0
 15 17  1  0
 17 18  2  0
  2 19  1  0
 19 20  2  0
 20 21  1  0
 21 22  2  0
 22 23  1  0
 23 24  2  0
 24 25  1  0
 24 26  1  0
 26 27  2  0
 27 28  1  0
 28 29  2  0
 11  7  1  0
 18 12  1  0
 29 19  1  0
 28 22  1  0
  3 30  1  0
  4 31  1  0
  4 32  1  0
  6 33  1  0
  8 34  1  0
  8 35  1  0
  9 36  1  0
  9 37  1  0
 10 38  1  0
 10 39  1  0
 11 40  1  1
 14 41  1  0
 17 42  1  0
 20 43  1  0
 21 44  1  0
 23 45  1  0
 26 46  1  0
 27 47  1  0
M  CHG  1   7   1
M  END
>  <meeko>  (18) 
{"free_energy": -8.22, "intermolecular_energy": -10.01, "internal_energy": -1.57, "cluster_size": 20, "cluster_id": 1, "rank_in_cluster": 4}

$$$$

     RDKit          3D

 47 50  0  0  0  0  0  0  0  0999 V2000
  140.0820   72.5050  220.6730 O   0  0  0  0  0  0  0  0  0  0  0  0
  139.9170   72.8950  221.8620 C   0  0  0  0  0  0  0  0  0  0  0  0
  139.7480   74.2950  222.1380 N   0  0  0  0  0  0  0  0  0  0  0  0
  139.8000   75.3170  221.0960 C   0  0  0  0  0  0  0  0  0  0  0  0
  141.2090   75.5290  220.5970 C   0  0  0  0  0  0  0  0  0  0  0  0
  142.1200   74.4980  220.8530 O   0  0  0  0  0  0  0  0  0  0  0  0
  141.5760   76.6110  219.9420 N   0  0  0  0  0  0  0  0  0  0  0  0
  142.6330   76.6120  218.9340 C   0  0  0  0  0  0  0  0  0  0  0  0
  142.6860   78.0270  218.3700 C   0  0  0  0  0  0  0  0  0  0  0  0
  141.3800   78.6820  218.7970 C   0  0  0  0  0  0  0  0  0  0  0  0
  140.9450   77.9300  220.0530 C   0  0  2  0  0  0  0  0  0  0  0  0
  141.4290   78.6590  221.2820 C   0  0  0  0  0  0  0  0  0  0  0  0
  141.3390   78.0790  222.5110 N   0  0  0  0  0  0  0  0  0  0  0  0
  141.8210   78.7020  223.6170 C   0  0  0  0  0  0  0  0  0  0  0  0
  142.4330   79.9480  223.5000 C   0  0  0  0  0  0  0  0  0  0  0  0
  142.9210   80.5860  224.5920 F   0  0  0  0  0  0  0  0  0  0  0  0
  142.5280   80.5260  222.2350 C   0  0  0  0  0  0  0  0  0  0  0  0
  142.0320   79.8720  221.1530 N   0  0  0  0  0  0  0  0  0  0  0  0
  139.9130   71.9110  222.9650 C   0  0  0  0  0  0  0  0  0  0  0  0
  139.4250   70.6070  222.7710 C   0  0  0  0  0  0  0  0  0  0  0  0
  139.4660   69.6900  223.8240 C   0  0  0  0  0  0  0  0  0  0  0  0
  139.9890   70.0730  225.0630 C   0  0  0  0  0  0  0  0  0  0  0  0
  140.0570   69.1730  226.1370 C   0  0  0  0  0  0  0  0  0  0  0  0
  140.5950   69.5860  227.3620 C   0  0  0  0  0  0  0  0  0  0  0  0
  140.6830   68.4590  228.7040 Cl  0  0  0  0  0  0  0  0  0  0  0  0
  141.0660   70.8950  227.5170 C   0  0  0  0  0  0  0  0  0  0  0  0
  140.9990   71.7980  226.4510 C   0  0  0  0  0  0  0  0  0  0  0  0
  140.4630   71.3930  225.2240 C   0  0  0  0  0  0  0  0  0  0  0  0
  140.4130   72.2630  224.1810 N   0  0  0  0  0  0  0  0  0  0  0  0
  139.5430   74.6070  223.1130 H   0  0  0  0  0  0  0  0  0  0  0  0
  139.1666   75.0012  220.2540 H   0  0  0  0  0  0  0  0  0  0  0  0
  139.4399   76.2642  221.5240 H   0  0  0  0  0  0  0  0  0  0  0  0
  141.9260   73.5200  220.6810 H   0  0  0  0  0  0  0  0  0  0  0  0
  143.5973   76.3488  219.3932 H   0  0  0  0  0  0  0  0  0  0  0  0
  142.4318   75.8741  218.1434 H   0  0  0  0  0  0  0  0  0  0  0  0
  143.5449   78.5747  218.7851 H   0  0  0  0  0  0  0  0  0  0  0  0
  142.8051   78.0271  217.2765 H   0  0  0  0  0  0  0  0  0  0  0  0
  141.5382   79.7473  219.0209 H   0  0  0  0  0  0  0  0  0  0  0  0
  140.6182   78.6334  218.0049 H   0  0  0  0  0  0  0  0  0  0  0  0
  139.8515   77.8497  220.1411 H   0  0  0  0  0  0  0  0  0  0  0  0
  141.7284   78.2239  224.6033 H   0  0  0  0  0  0  0  0  0  0  0  0
  143.0039   81.5102  222.1134 H   0  0  0  0  0  0  0  0  0  0  0  0
  139.0130   70.3103  221.7952 H   0  0  0  0  0  0  0  0  0  0  0  0
  139.0872   68.6676  223.6787 H   0  0  0  0  0  0  0  0  0  0  0  0
  139.6880   68.1437  226.0169 H   0  0  0  0  0  0  0  0  0  0  0  0
  141.4902   71.2145  228.4803 H   0  0  0  0  0  0  0  0  0  0  0  0
  141.3678   72.8266  226.5775 H   0  0  0  0  0  0  0  0  0  0  0  0
  1  2  2  0
  2  3  1  0
  3  4  1  0
  4  5  1  0
  5  6  1  0
  5  7  2  0
  7  8  1  0
  8  9  1  0
  9 10  1  0
 10 11  1  0
 11 12  1  0
 12 13  2  0
 13 14  1  0
 14 15  2  0
 15 16  1  0
 15 17  1  0
 17 18  2  0
  2 19  1  0
 19 20  2  0
 20 21  1  0
 21 22  2  0
 22 23  1  0
 23 24  2  0
 24 25  1  0
 24 26  1  0
 26 27  2  0
 27 28  1  0
 28 29  2  0
 11  7  1  0
 18 12  1  0
 29 19  1  0
 28 22  1  0
  3 30  1  0
  4 31  1  0
  4 32  1  0
  6 33  1  0
  8 34  1  0
  8 35  1  0
  9 36  1  0
  9 37  1  0
 10 38  1  0
 10 39  1  0
 11 40  1  1
 14 41  1  0
 17 42  1  0
 20 43  1  0
 21 44  1  0
 23 45  1  0
 26 46  1  0
 27 47  1  0
M  CHG  1   7   1
M  END
>  <meeko>  (19) 
{"free_energy": -7.99, "intermolecular_energy": -9.78, "internal_energy": -1.93, "cluster_size": 20, "cluster_id": 1, "rank_in_cluster": 12}

$$$$

     RDKit          3D

 47 50  0  0  0  0  0  0  0  0999 V2000
  139.0050   72.0340  220.8210 O   0  0  0  0  0  0  0  0  0  0  0  0
  139.2740   72.4460  221.9830 C   0  0  0  0  0  0  0  0  0  0  0  0
  139.3970   73.8550  222.2320 N   0  0  0  0  0  0  0  0  0  0  0  0
  139.2670   74.8570  221.1780 C   0  0  0  0  0  0  0  0  0  0  0  0
  140.2260   74.5960  220.0420 C   0  0  0  0  0  0  0  0  0  0  0  0
  139.7430   73.8080  218.9900 O   0  0  0  0  0  0  0  0  0  0  0  0
  141.4490   75.0850  220.0160 N   0  0  0  0  0  0  0  0  0  0  0  0
  142.6340   74.2820  220.3030 C   0  0  0  0  0  0  0  0  0  0  0  0
  143.8340   75.1970  220.0860 C   0  0  0  0  0  0  0  0  0  0  0  0
  143.3020   76.3810  219.2920 C   0  0  0  0  0  0  0  0  0  0  0  0
  141.8130   76.4500  219.6220 C   0  0  2  0  0  0  0  0  0  0  0  0
  141.5810   77.4190  220.7540 C   0  0  0  0  0  0  0  0  0  0  0  0
  141.1990   76.9700  221.9830 N   0  0  0  0  0  0  0  0  0  0  0  0
  141.0410   77.8270  223.0240 C   0  0  0  0  0  0  0  0  0  0  0  0
  141.2870   79.1860  222.8470 C   0  0  0  0  0  0  0  0  0  0  0  0
  141.1350   80.0580  223.8740 F   0  0  0  0  0  0  0  0  0  0  0  0
  141.6880   79.6320  221.5880 C   0  0  0  0  0  0  0  0  0  0  0  0
  141.8330   78.7430  220.5710 N   0  0  0  0  0  0  0  0  0  0  0  0
  139.4740   71.4730  223.0790 C   0  0  0  0  0  0  0  0  0  0  0  0
  139.1390   70.1180  222.9160 C   0  0  0  0  0  0  0  0  0  0  0  0
  139.3710   69.2180  223.9580 C   0  0  0  0  0  0  0  0  0  0  0  0
  139.9320   69.6690  225.1570 C   0  0  0  0  0  0  0  0  0  0  0  0
  140.1900   68.7900  226.2190 C   0  0  0  0  0  0  0  0  0  0  0  0
  140.7610   69.2720  227.4040 C   0  0  0  0  0  0  0  0  0  0  0  0
  141.0860   68.1710  228.7300 Cl  0  0  0  0  0  0  0  0  0  0  0  0
  141.0740   70.6300  227.5300 C   0  0  0  0  0  0  0  0  0  0  0  0
  140.8180   71.5130  226.4760 C   0  0  0  0  0  0  0  0  0  0  0  0
  140.2480   71.0390  225.2900 C   0  0  0  0  0  0  0  0  0  0  0  0
  140.0130   71.8910  224.2570 N   0  0  0  0  0  0  0  0  0  0  0  0
  139.5510   74.1950  223.2070 H   0  0  0  0  0  0  0  0  0  0  0  0
  138.2383   74.8346  220.7891 H   0  0  0  0  0  0  0  0  0  0  0  0
  139.5029   75.8415  221.6082 H   0  0  0  0  0  0  0  0  0  0  0  0
  139.1980   72.9670  219.1220 H   0  0  0  0  0  0  0  0  0  0  0  0
  142.6099   73.9258  221.3435 H   0  0  0  0  0  0  0  0  0  0  0  0
  142.6838   73.3963  219.6525 H   0  0  0  0  0  0  0  0  0  0  0  0
  144.2413   75.5328  221.0511 H   0  0  0  0  0  0  0  0  0  0  0  0
  144.6495   74.6829  219.5563 H   0  0  0  0  0  0  0  0  0  0  0  0
  143.8079   77.3087  219.5977 H   0  0  0  0  0  0  0  0  0  0  0  0
  143.4781   76.2637  218.2126 H   0  0  0  0  0  0  0  0  0  0  0  0
  141.2076   76.8021  218.7738 H   0  0  0  0  0  0  0  0  0  0  0  0
  140.7192   77.4485  224.0054 H   0  0  0  0  0  0  0  0  0  0  0  0
  141.8864   80.7007  221.4188 H   0  0  0  0  0  0  0  0  0  0  0  0
  138.6961   69.7680  221.9719 H   0  0  0  0  0  0  0  0  0  0  0  0
  139.1129   68.1557  223.8360 H   0  0  0  0  0  0  0  0  0  0  0  0
  139.9440   67.7223  226.1215 H   0  0  0  0  0  0  0  0  0  0  0  0
  141.5232   71.0045  228.4616 H   0  0  0  0  0  0  0  0  0  0  0  0
  141.0649   72.5799  226.5798 H   0  0  0  0  0  0  0  0  0  0  0  0
  1  2  2  0
  2  3  1  0
  3  4  1  0
  4  5  1  0
  5  6  1  0
  5  7  2  0
  7  8  1  0
  8  9  1  0
  9 10  1  0
 10 11  1  0
 11 12  1  0
 12 13  2  0
 13 14  1  0
 14 15  2  0
 15 16  1  0
 15 17  1  0
 17 18  2  0
  2 19  1  0
 19 20  2  0
 20 21  1  0
 21 22  2  0
 22 23  1  0
 23 24  2  0
 24 25  1  0
 24 26  1  0
 26 27  2  0
 27 28  1  0
 28 29  2  0
 11  7  1  0
 18 12  1  0
 29 19  1  0
 28 22  1  0
  3 30  1  0
  4 31  1  0
  4 32  1  0
  6 33  1  0
  8 34  1  0
  8 35  1  0
  9 36  1  0
  9 37  1  0
 10 38  1  0
 10 39  1  0
 11 40  1  6
 14 41  1  0
 17 42  1  0
 20 43  1  0
 21 44  1  0
 23 45  1  0
 26 46  1  0
 27 47  1  0
M  CHG  1   7   1
M  END
>  <meeko>  (20) 
{"free_energy": -7.38, "intermolecular_energy": -9.17, "internal_energy": -2.12, "cluster_size": 20, "cluster_id": 1, "rank_in_cluster": 16}

$$$$
