
     RDKit          3D

 59 61  0  0  0  0  0  0  0  0999 V2000
  141.8940   79.9320  219.5120 C   0  0  0  0  0  0  0  0  0  0  0  0
  141.4190   78.5620  219.0060 C   0  0  0  0  0  0  0  0  0  0  0  0
  142.6100   77.6810  218.6100 C   0  0  0  0  0  0  0  0  0  0  0  0
  140.4070   77.8640  219.9590 C   0  0  0  0  0  0  0  0  0  0  0  0
  140.9240   77.3000  221.3090 C   0  0  2  0  0  0  0  0  0  0  0  0
  141.5280   75.9730  221.1480 N   0  0  0  0  0  0  0  0  0  0  0  0
  140.7580   74.8230  220.7660 C   0  0  0  0  0  0  0  0  0  0  0  0
  139.5270   74.9340  220.5100 O   0  0  0  0  0  0  0  0  0  0  0  0
  141.4040   73.4770  220.7020 C   0  0  0  0  0  0  0  0  0  0  0  0
  141.3010   72.8360  222.0090 N   0  0  0  0  0  0  0  0  0  0  0  0
  140.2190   72.6060  222.7020 C   0  0  0  0  0  0  0  0  0  0  0  0
  139.0820   73.3580  222.4120 O   0  0  0  0  0  0  0  0  0  0  0  0
  140.1370   71.5960  223.7920 C   0  0  0  0  0  0  0  0  0  0  0  0
  139.5920   70.3270  223.5290 C   0  0  0  0  0  0  0  0  0  0  0  0
  139.5400   69.3680  224.5420 C   0  0  0  0  0  0  0  0  0  0  0  0
  140.0360   69.6720  225.8160 C   0  0  0  0  0  0  0  0  0  0  0  0
  140.0030   68.7320  226.8570 C   0  0  0  0  0  0  0  0  0  0  0  0
  140.5110   69.0680  228.1170 C   0  0  0  0  0  0  0  0  0  0  0  0
  141.0540   70.3380  228.3420 C   0  0  0  0  0  0  0  0  0  0  0  0
  141.0910   71.2810  227.3080 C   0  0  0  0  0  0  0  0  0  0  0  0
  140.5850   70.9520  226.0450 C   0  0  0  0  0  0  0  0  0  0  0  0
  140.6210   71.8640  225.0370 N   0  0  0  0  0  0  0  0  0  0  0  0
  139.8720   77.3280  222.3940 C   0  0  0  0  0  0  0  0  0  0  0  0
  139.3950   76.2400  222.8150 O   0  0  0  0  0  0  0  0  0  0  0  0
  139.3930   78.5680  222.9270 N   0  0  0  0  0  0  0  0  0  0  0  0
  140.2630   79.5730  223.5300 C   0  0  0  0  0  0  0  0  0  0  0  0
  140.5190   80.7380  222.5840 C   0  0  0  0  0  0  0  0  0  0  0  0
  141.9130   81.2530  222.9260 C   0  0  0  0  0  0  0  0  0  0  0  0
  142.5860   80.1820  223.7840 C   0  0  0  0  0  0  0  0  0  0  0  0
  141.6370   78.9930  223.8150 C   0  0  0  0  0  0  0  0  0  0  0  0
  141.8955   79.9362  220.6120 H   0  0  0  0  0  0  0  0  0  0  0  0
  142.9120   80.1263  219.1432 H   0  0  0  0  0  0  0  0  0  0  0  0
  141.2148   80.7147  219.1432 H   0  0  0  0  0  0  0  0  0  0  0  0
  140.8359   78.7377  218.0900 H   0  0  0  0  0  0  0  0  0  0  0  0
  143.1101   77.3111  219.5172 H   0  0  0  0  0  0  0  0  0  0  0  0
  142.2530   76.8279  218.0144 H   0  0  0  0  0  0  0  0  0  0  0  0
  143.3213   78.2720  218.0144 H   0  0  0  0  0  0  0  0  0  0  0  0
  139.6231   78.5991  220.1938 H   0  0  0  0  0  0  0  0  0  0  0  0
  140.0859   76.9717  219.4015 H   0  0  0  0  0  0  0  0  0  0  0  0
  141.7227   77.9762  221.6479 H   0  0  0  0  0  0  0  0  0  0  0  0
  142.5380   75.8270  221.3780 H   0  0  0  0  0  0  0  0  0  0  0  0
  140.8948   72.8594  219.9475 H   0  0  0  0  0  0  0  0  0  0  0  0
  142.4629   73.5866  220.4251 H   0  0  0  0  0  0  0  0  0  0  0  0
  139.0490   74.3540  222.6000 H   0  0  0  0  0  0  0  0  0  0  0  0
  139.2070   70.0901  222.5262 H   0  0  0  0  0  0  0  0  0  0  0  0
  139.1104   68.3757  224.3401 H   0  0  0  0  0  0  0  0  0  0  0  0
  139.5784   67.7323  226.6831 H   0  0  0  0  0  0  0  0  0  0  0  0
  140.4834   68.3313  228.9334 H   0  0  0  0  0  0  0  0  0  0  0  0
  141.4529   70.5960  229.3341 H   0  0  0  0  0  0  0  0  0  0  0  0
  141.5171   72.2791  227.4878 H   0  0  0  0  0  0  0  0  0  0  0  0
  139.7479   79.9026  224.4444 H   0  0  0  0  0  0  0  0  0  0  0  0
  140.4823   80.3976  221.5386 H   0  0  0  0  0  0  0  0  0  0  0  0
  139.7583   81.5247  222.6957 H   0  0  0  0  0  0  0  0  0  0  0  0
  142.4914   81.4180  222.0050 H   0  0  0  0  0  0  0  0  0  0  0  0
  141.8569   82.2103  223.4649 H   0  0  0  0  0  0  0  0  0  0  0  0
  143.5484   79.8884  223.3394 H   0  0  0  0  0  0  0  0  0  0  0  0
  142.7890   80.5551  224.7987 H   0  0  0  0  0  0  0  0  0  0  0  0
  141.9133   78.2587  223.0440 H   0  0  0  0  0  0  0  0  0  0  0  0
  141.6689   78.4665  224.7803 H   0  0  0  0  0  0  0  0  0  0  0  0
  1  2  1  0
  2  3  1  0
  2  4  1  0
  4  5  1  0
  5  6  1  0
  6  7  1  0
  7  8  2  0
  7  9  1  0
  9 10  1  0
 10 11  2  0
 11 12  1  0
 11 13  1  0
 13 14  2  0
 14 15  1  0
 15 16  2  0
 16 17  1  0
 17 18  2  0
 18 19  1  0
 19 20  2  0
 20 21  1  0
 21 22  2  0
  5 23  1  0
 23 24  2  0
 23 25  1  0
 25 26  1  0
 26 27  1  0
 27 28  1  0
 28 29  1  0
 29 30  1  0
 22 13  1  0
 30 26  1  0
 21 16  1  0
  1 31  1  0
  1 32  1  0
  1 33  1  0
  2 34  1  0
  3 35  1  0
  3 36  1  0
  3 37  1  0
  4 38  1  0
  4 39  1  0
  5 40  1  1
  6 41  1  0
  9 42  1  0
  9 43  1  0
 12 44  1  0
 14 45  1  0
 15 46  1  0
 17 47  1  0
 18 48  1  0
 19 49  1  0
 20 50  1  0
 26 51  1  0
 27 52  1  0
 27 53  1  0
 28 54  1  0
 28 55  1  0
 29 56  1  0
 29 57  1  0
 30 58  1  0
 30 59  1  0
M  CHG  1  25  -1
M  END
>  <meeko>  (1) 
{"free_energy": -7.83, "intermolecular_energy": -11.11, "internal_energy": -2.83, "cluster_size": 16, "cluster_id": 1, "rank_in_cluster": 1}

$$$$

     RDKit          3D

 59 61  0  0  0  0  0  0  0  0999 V2000
  143.6840   76.1090  219.3620 C   0  0  0  0  0  0  0  0  0  0  0  0
  142.5160   77.0580  219.6650 C   0  0  0  0  0  0  0  0  0  0  0  0
  142.3590   78.1070  218.5580 C   0  0  0  0  0  0  0  0  0  0  0  0
  141.1950   76.3210  220.0290 C   0  0  0  0  0  0  0  0  0  0  0  0
  141.0640   75.6820  221.4370 C   0  0  2  0  0  0  0  0  0  0  0  0
  140.8240   74.2370  221.3580 N   0  0  0  0  0  0  0  0  0  0  0  0
  141.8730   73.3020  221.0670 C   0  0  0  0  0  0  0  0  0  0  0  0
  143.0600   73.7010  220.9150 O   0  0  0  0  0  0  0  0  0  0  0  0
  141.5590   71.8490  220.9110 C   0  0  0  0  0  0  0  0  0  0  0  0
  140.1590   71.6250  221.2590 N   0  0  0  0  0  0  0  0  0  0  0  0
  139.5500   71.9490  222.3670 C   0  0  0  0  0  0  0  0  0  0  0  0
  138.6750   73.0340  222.3410 O   0  0  0  0  0  0  0  0  0  0  0  0
  139.7480   71.2340  223.6570 C   0  0  0  0  0  0  0  0  0  0  0  0
  139.4070   69.8740  223.7620 C   0  0  0  0  0  0  0  0  0  0  0  0
  139.6180   69.1940  224.9640 C   0  0  0  0  0  0  0  0  0  0  0  0
  140.1760   69.8680  226.0570 C   0  0  0  0  0  0  0  0  0  0  0  0
  140.4050   69.2160  227.2780 C   0  0  0  0  0  0  0  0  0  0  0  0
  140.9670   69.9190  228.3500 C   0  0  0  0  0  0  0  0  0  0  0  0
  141.3030   71.2700  228.2080 C   0  0  0  0  0  0  0  0  0  0  0  0
  141.0780   71.9260  226.9930 C   0  0  0  0  0  0  0  0  0  0  0  0
  140.5160   71.2300  225.9170 C   0  0  0  0  0  0  0  0  0  0  0  0
  140.2980   71.8640  224.7330 N   0  0  0  0  0  0  0  0  0  0  0  0
  140.0500   76.3900  222.3070 C   0  0  0  0  0  0  0  0  0  0  0  0
  139.0520   75.7480  222.7320 O   0  0  0  0  0  0  0  0  0  0  0  0
  140.1940   77.7780  222.6300 N   0  0  0  0  0  0  0  0  0  0  0  0
  141.4840   78.4580  222.6970 C   0  0  0  0  0  0  0  0  0  0  0  0
  141.7330   79.0570  224.0740 C   0  0  0  0  0  0  0  0  0  0  0  0
  142.5960   80.2920  223.8400 C   0  0  0  0  0  0  0  0  0  0  0  0
  142.5310   80.6050  222.3450 C   0  0  0  0  0  0  0  0  0  0  0  0
  141.5200   79.6390  221.7460 C   0  0  0  0  0  0  0  0  0  0  0  0
  144.1218   75.7533  220.3063 H   0  0  0  0  0  0  0  0  0  0  0  0
  143.3172   75.2498  218.7813 H   0  0  0  0  0  0  0  0  0  0  0  0
  144.4499   76.6439  218.7813 H   0  0  0  0  0  0  0  0  0  0  0  0
  142.7717   77.6049  220.5845 H   0  0  0  0  0  0  0  0  0  0  0  0
  142.2106   79.0985  219.0108 H   0  0  0  0  0  0  0  0  0  0  0  0
  143.2651   78.1205  217.9345 H   0  0  0  0  0  0  0  0  0  0  0  0
  141.4886   77.8546  217.9345 H   0  0  0  0  0  0  0  0  0  0  0  0
  140.3781   77.0505  219.9269 H   0  0  0  0  0  0  0  0  0  0  0  0
  141.1690   75.4625  219.3417 H   0  0  0  0  0  0  0  0  0  0  0  0
  142.0346   75.8180  221.9365 H   0  0  0  0  0  0  0  0  0  0  0  0
  139.8510   73.8640  221.4480 H   0  0  0  0  0  0  0  0  0  0  0  0
  141.7332   71.5439  219.8686 H   0  0  0  0  0  0  0  0  0  0  0  0
  142.2061   71.2558  221.5738 H   0  0  0  0  0  0  0  0  0  0  0  0
  138.7070   73.7510  223.0570 H   0  0  0  0  0  0  0  0  0  0  0  0
  138.9748   69.3463  222.8991 H   0  0  0  0  0  0  0  0  0  0  0  0
  139.3464   68.1317  225.0515 H   0  0  0  0  0  0  0  0  0  0  0  0
  140.1432   68.1538  227.3927 H   0  0  0  0  0  0  0  0  0  0  0  0
  141.1452   69.4077  229.3075 H   0  0  0  0  0  0  0  0  0  0  0  0
  141.7450   71.8174  229.0536 H   0  0  0  0  0  0  0  0  0  0  0  0
  141.3427   72.9881  226.8836 H   0  0  0  0  0  0  0  0  0  0  0  0
  142.2360   77.6952  222.4468 H   0  0  0  0  0  0  0  0  0  0  0  0
  140.7807   79.3391  224.5469 H   0  0  0  0  0  0  0  0  0  0  0  0
  142.2275   78.3387  224.7445 H   0  0  0  0  0  0  0  0  0  0  0  0
  142.2064   81.1409  224.4211 H   0  0  0  0  0  0  0  0  0  0  0  0
  143.6333   80.1126  224.1591 H   0  0  0  0  0  0  0  0  0  0  0  0
  142.2039   81.6434  222.1879 H   0  0  0  0  0  0  0  0  0  0  0  0
  143.5176   80.4931  221.8715 H   0  0  0  0  0  0  0  0  0  0  0  0
  140.5285   80.1108  221.6797 H   0  0  0  0  0  0  0  0  0  0  0  0
  141.7968   79.3359  220.7255 H   0  0  0  0  0  0  0  0  0  0  0  0
  1  2  1  0
  2  3  1  0
  2  4  1  0
  4  5  1  0
  5  6  1  0
  6  7  1  0
  7  8  2  0
  7  9  1  0
  9 10  1  0
 10 11  2  0
 11 12  1  0
 11 13  1  0
 13 14  2  0
 14 15  1  0
 15 16  2  0
 16 17  1  0
 17 18  2  0
 18 19  1  0
 19 20  2  0
 20 21  1  0
 21 22  2  0
  5 23  1  0
 23 24  2  0
 23 25  1  0
 25 26  1  0
 26 27  1  0
 27 28  1  0
 28 29  1  0
 29 30  1  0
 22 13  1  0
 30 26  1  0
 21 16  1  0
  1 31  1  0
  1 32  1  0
  1 33  1  0
  2 34  1  0
  3 35  1  0
  3 36  1  0
  3 37  1  0
  4 38  1  0
  4 39  1  0
  5 40  1  1
  6 41  1  0
  9 42  1  0
  9 43  1  0
 12 44  1  0
 14 45  1  0
 15 46  1  0
 17 47  1  0
 18 48  1  0
 19 49  1  0
 20 50  1  0
 26 51  1  0
 27 52  1  0
 27 53  1  0
 28 54  1  0
 28 55  1  0
 29 56  1  0
 29 57  1  0
 30 58  1  0
 30 59  1  0
M  CHG  1  25  -1
M  END
>  <meeko>  (2) 
{"free_energy": -7.67, "intermolecular_energy": -10.95, "internal_energy": -3.96, "cluster_size": 16, "cluster_id": 1, "rank_in_cluster": 3}

$$$$

     RDKit          3D

 59 61  0  0  0  0  0  0  0  0999 V2000
  143.2720   76.7480  218.8750 C   0  0  0  0  0  0  0  0  0  0  0  0
  142.2210   77.4500  219.7470 C   0  0  0  0  0  0  0  0  0  0  0  0
  141.8460   78.8170  219.1630 C   0  0  0  0  0  0  0  0  0  0  0  0
  140.9970   76.5530  220.0890 C   0  0  0  0  0  0  0  0  0  0  0  0
  140.8430   76.0280  221.5420 C   0  0  2  0  0  0  0  0  0  0  0  0
  140.7690   74.5630  221.5850 N   0  0  0  0  0  0  0  0  0  0  0  0
  141.8690   73.7300  221.1900 C   0  0  0  0  0  0  0  0  0  0  0  0
  142.9650   74.2440  220.8320 O   0  0  0  0  0  0  0  0  0  0  0  0
  141.7120   72.2430  221.1690 C   0  0  0  0  0  0  0  0  0  0  0  0
  140.3000   71.9120  221.3330 N   0  0  0  0  0  0  0  0  0  0  0  0
  139.5570   72.0850  222.3920 C   0  0  0  0  0  0  0  0  0  0  0  0
  138.5640   73.0620  222.3430 O   0  0  0  0  0  0  0  0  0  0  0  0
  139.7190   71.3070  223.6500 C   0  0  0  0  0  0  0  0  0  0  0  0
  139.3780   69.9440  223.6780 C   0  0  0  0  0  0  0  0  0  0  0  0
  139.5560   69.2060  224.8500 C   0  0  0  0  0  0  0  0  0  0  0  0
  140.0800   69.8250  225.9910 C   0  0  0  0  0  0  0  0  0  0  0  0
  140.2750   69.1140  227.1850 C   0  0  0  0  0  0  0  0  0  0  0  0
  140.8050   69.7630  228.3060 C   0  0  0  0  0  0  0  0  0  0  0  0
  141.1420   71.1200  228.2400 C   0  0  0  0  0  0  0  0  0  0  0  0
  140.9500   71.8360  227.0530 C   0  0  0  0  0  0  0  0  0  0  0  0
  140.4210   71.1930  225.9280 C   0  0  0  0  0  0  0  0  0  0  0  0
  140.2360   71.8840  224.7720 N   0  0  0  0  0  0  0  0  0  0  0  0
  139.7020   76.6860  222.2820 C   0  0  0  0  0  0  0  0  0  0  0  0
  138.8580   75.9630  222.8770 O   0  0  0  0  0  0  0  0  0  0  0  0
  139.5520   78.1110  222.2930 N   0  0  0  0  0  0  0  0  0  0  0  0
  140.3060   78.9900  223.1800 C   0  0  0  0  0  0  0  0  0  0  0  0
  140.1850   80.4490  222.7630 C   0  0  0  0  0  0  0  0  0  0  0  0
  141.4960   81.1100  223.1760 C   0  0  0  0  0  0  0  0  0  0  0  0
  142.4850   79.9860  223.4810 C   0  0  0  0  0  0  0  0  0  0  0  0
  141.7910   78.6850  223.1050 C   0  0  0  0  0  0  0  0  0  0  0  0
  144.0127   76.2533  219.5204 H   0  0  0  0  0  0  0  0  0  0  0  0
  142.7792   75.9971  218.2400 H   0  0  0  0  0  0  0  0  0  0  0  0
  143.7770   77.4908  218.2400 H   0  0  0  0  0  0  0  0  0  0  0  0
  142.6866   77.6407  220.7252 H   0  0  0  0  0  0  0  0  0  0  0  0
  141.6518   79.5249  219.9822 H   0  0  0  0  0  0  0  0  0  0  0  0
  142.6747   79.1911  218.5439 H   0  0  0  0  0  0  0  0  0  0  0  0
  140.9424   78.7159  218.5439 H   0  0  0  0  0  0  0  0  0  0  0  0
  140.0932   77.1357  219.8573 H   0  0  0  0  0  0  0  0  0  0  0  0
  141.1555   75.6436  219.4908 H   0  0  0  0  0  0  0  0  0  0  0  0
  141.7568   76.3185  222.0810 H   0  0  0  0  0  0  0  0  0  0  0  0
  139.8720   74.0930  221.8450 H   0  0  0  0  0  0  0  0  0  0  0  0
  142.0744   71.8474  220.2087 H   0  0  0  0  0  0  0  0  0  0  0  0
  142.2960   71.7960  221.9870 H   0  0  0  0  0  0  0  0  0  0  0  0
  138.5510   73.8310  223.0040 H   0  0  0  0  0  0  0  0  0  0  0  0
  138.9715   69.4592  222.7781 H   0  0  0  0  0  0  0  0  0  0  0  0
  139.2850   68.1402  224.8766 H   0  0  0  0  0  0  0  0  0  0  0  0
  140.0115   68.0474  227.2398 H   0  0  0  0  0  0  0  0  0  0  0  0
  140.9572   69.2051  229.2417 H   0  0  0  0  0  0  0  0  0  0  0  0
  141.5590   71.6251  229.1238 H   0  0  0  0  0  0  0  0  0  0  0  0
  141.2145   72.9026  227.0042 H   0  0  0  0  0  0  0  0  0  0  0  0
  139.8935   78.8227  224.1859 H   0  0  0  0  0  0  0  0  0  0  0  0
  140.0436   80.5258  221.6748 H   0  0  0  0  0  0  0  0  0  0  0  0
  139.3198   80.9350  223.2375 H   0  0  0  0  0  0  0  0  0  0  0  0
  141.8775   81.7372  222.3568 H   0  0  0  0  0  0  0  0  0  0  0  0
  141.3510   81.7552  224.0550 H   0  0  0  0  0  0  0  0  0  0  0  0
  143.4009   80.1139  222.8854 H   0  0  0  0  0  0  0  0  0  0  0  0
  142.7756   79.9893  224.5419 H   0  0  0  0  0  0  0  0  0  0  0  0
  142.0710   78.3789  222.0862 H   0  0  0  0  0  0  0  0  0  0  0  0
  142.0754   77.8592  223.7737 H   0  0  0  0  0  0  0  0  0  0  0  0
  1  2  1  0
  2  3  1  0
  2  4  1  0
  4  5  1  0
  5  6  1  0
  6  7  1  0
  7  8  2  0
  7  9  1  0
  9 10  1  0
 10 11  2  0
 11 12  1  0
 11 13  1  0
 13 14  2  0
 14 15  1  0
 15 16  2  0
 16 17  1  0
 17 18  2  0
 18 19  1  0
 19 20  2  0
 20 21  1  0
 21 22  2  0
  5 23  1  0
 23 24  2  0
 23 25  1  0
 25 26  1  0
 26 27  1  0
 27 28  1  0
 28 29  1  0
 29 30  1  0
 22 13  1  0
 30 26  1  0
 21 16  1  0
  1 31  1  0
  1 32  1  0
  1 33  1  0
  2 34  1  0
  3 35  1  0
  3 36  1  0
  3 37  1  0
  4 38  1  0
  4 39  1  0
  5 40  1  1
  6 41  1  0
  9 42  1  0
  9 43  1  0
 12 44  1  0
 14 45  1  0
 15 46  1  0
 17 47  1  0
 18 48  1  0
 19 49  1  0
 20 50  1  0
 26 51  1  0
 27 52  1  0
 27 53  1  0
 28 54  1  0
 28 55  1  0
 29 56  1  0
 29 57  1  0
 30 58  1  0
 30 59  1  0
M  CHG  1  25  -1
M  END
>  <meeko>  (3) 
{"free_energy": -7.44, "intermolecular_energy": -10.72, "internal_energy": -4.04, "cluster_size": 16, "cluster_id": 1, "rank_in_cluster": 14}

$$$$

     RDKit          3D

 59 61  0  0  0  0  0  0  0  0999 V2000
  142.3780   78.2390  218.6650 C   0  0  0  0  0  0  0  0  0  0  0  0
  142.4170   76.7320  218.9580 C   0  0  0  0  0  0  0  0  0  0  0  0
  143.6950   76.3530  219.7160 C   0  0  0  0  0  0  0  0  0  0  0  0
  141.1130   76.1920  219.6100 C   0  0  0  0  0  0  0  0  0  0  0  0
  141.1750   75.6600  221.0670 C   0  0  2  0  0  0  0  0  0  0  0  0
  140.9560   74.2100  221.1260 N   0  0  0  0  0  0  0  0  0  0  0  0
  142.0170   73.2680  220.9140 C   0  0  0  0  0  0  0  0  0  0  0  0
  143.1970   73.6670  220.7120 O   0  0  0  0  0  0  0  0  0  0  0  0
  141.7240   71.8020  220.8970 C   0  0  0  0  0  0  0  0  0  0  0  0
  140.3200   71.5940  221.2390 N   0  0  0  0  0  0  0  0  0  0  0  0
  139.7050   71.9430  222.3360 C   0  0  0  0  0  0  0  0  0  0  0  0
  138.8950   73.0770  222.3030 O   0  0  0  0  0  0  0  0  0  0  0  0
  139.8300   71.2040  223.6220 C   0  0  0  0  0  0  0  0  0  0  0  0
  139.4600   69.8490  223.6890 C   0  0  0  0  0  0  0  0  0  0  0  0
  139.6030   69.1470  224.8880 C   0  0  0  0  0  0  0  0  0  0  0  0
  140.1200   69.7940  226.0170 C   0  0  0  0  0  0  0  0  0  0  0  0
  140.2810   69.1190  227.2370 C   0  0  0  0  0  0  0  0  0  0  0  0
  140.8050   69.7950  228.3450 C   0  0  0  0  0  0  0  0  0  0  0  0
  141.1710   71.1420  228.2400 C   0  0  0  0  0  0  0  0  0  0  0  0
  141.0140   71.8210  227.0270 C   0  0  0  0  0  0  0  0  0  0  0  0
  140.4910   71.1520  225.9150 C   0  0  0  0  0  0  0  0  0  0  0  0
  140.3390   71.8080  224.7330 N   0  0  0  0  0  0  0  0  0  0  0  0
  140.2660   76.4200  222.0040 C   0  0  0  0  0  0  0  0  0  0  0  0
  139.4520   75.7810  222.7240 O   0  0  0  0  0  0  0  0  0  0  0  0
  140.2970   77.8510  222.0660 N   0  0  0  0  0  0  0  0  0  0  0  0
  141.5190   78.6190  222.2810 C   0  0  0  0  0  0  0  0  0  0  0  0
  141.7550   78.9010  223.7580 C   0  0  0  0  0  0  0  0  0  0  0  0
  142.4910   80.2360  223.8150 C   0  0  0  0  0  0  0  0  0  0  0  0
  142.3500   80.8810  222.4370 C   0  0  0  0  0  0  0  0  0  0  0  0
  141.4150   79.9890  221.6350 C   0  0  0  0  0  0  0  0  0  0  0  0
  142.3636   78.7966  219.6131 H   0  0  0  0  0  0  0  0  0  0  0  0
  143.2691   78.5231  218.0860 H   0  0  0  0  0  0  0  0  0  0  0  0
  141.4734   78.4767  218.0860 H   0  0  0  0  0  0  0  0  0  0  0  0
  142.4582   76.2134  217.9888 H   0  0  0  0  0  0  0  0  0  0  0  0
  143.5091   76.4081  220.7988 H   0  0  0  0  0  0  0  0  0  0  0  0
  143.9910   75.3284  219.4465 H   0  0  0  0  0  0  0  0  0  0  0  0
  144.5017   77.0506  219.4465 H   0  0  0  0  0  0  0  0  0  0  0  0
  140.3797   77.0118  219.5952 H   0  0  0  0  0  0  0  0  0  0  0  0
  140.8619   75.3041  219.0111 H   0  0  0  0  0  0  0  0  0  0  0  0
  142.1981   75.8439  221.4267 H   0  0  0  0  0  0  0  0  0  0  0  0
  139.9890   73.8330  221.2600 H   0  0  0  0  0  0  0  0  0  0  0  0
  141.9230   71.3977  219.8935 H   0  0  0  0  0  0  0  0  0  0  0  0
  142.3648   71.2864  221.6274 H   0  0  0  0  0  0  0  0  0  0  0  0
  138.8790   73.7330  223.0740 H   0  0  0  0  0  0  0  0  0  0  0  0
  139.0587   69.3428  222.7987 H   0  0  0  0  0  0  0  0  0  0  0  0
  139.3101   68.0883  224.9452 H   0  0  0  0  0  0  0  0  0  0  0  0
  139.9958   68.0601  227.3223 H   0  0  0  0  0  0  0  0  0  0  0  0
  140.9296   69.2660  229.3014 H   0  0  0  0  0  0  0  0  0  0  0  0
  141.5832   71.6681  229.1137 H   0  0  0  0  0  0  0  0  0  0  0  0
  141.3015   72.8798  226.9475 H   0  0  0  0  0  0  0  0  0  0  0  0
  142.3301   78.0126  221.8516 H   0  0  0  0  0  0  0  0  0  0  0  0
  140.7961   78.9693  224.2927 H   0  0  0  0  0  0  0  0  0  0  0  0
  142.3361   78.0981  224.2352 H   0  0  0  0  0  0  0  0  0  0  0  0
  142.0418   80.8829  224.5830 H   0  0  0  0  0  0  0  0  0  0  0  0
  143.5500   80.0905  224.0747 H   0  0  0  0  0  0  0  0  0  0  0  0
  141.9233   81.8904  222.5320 H   0  0  0  0  0  0  0  0  0  0  0  0
  143.3275   80.9787  221.9421 H   0  0  0  0  0  0  0  0  0  0  0  0
  140.3824   80.3641  221.6904 H   0  0  0  0  0  0  0  0  0  0  0  0
  141.6863   79.9623  220.5693 H   0  0  0  0  0  0  0  0  0  0  0  0
  1  2  1  0
  2  3  1  0
  2  4  1  0
  4  5  1  0
  5  6  1  0
  6  7  1  0
  7  8  2  0
  7  9  1  0
  9 10  1  0
 10 11  2  0
 11 12  1  0
 11 13  1  0
 13 14  2  0
 14 15  1  0
 15 16  2  0
 16 17  1  0
 17 18  2  0
 18 19  1  0
 19 20  2  0
 20 21  1  0
 21 22  2  0
  5 23  1  0
 23 24  2  0
 23 25  1  0
 25 26  1  0
 26 27  1  0
 27 28  1  0
 28 29  1  0
 29 30  1  0
 22 13  1  0
 30 26  1  0
 21 16  1  0
  1 31  1  0
  1 32  1  0
  1 33  1  0
  2 34  1  0
  3 35  1  0
  3 36  1  0
  3 37  1  0
  4 38  1  0
  4 39  1  0
  5 40  1  1
  6 41  1  0
  9 42  1  0
  9 43  1  0
 12 44  1  0
 14 45  1  0
 15 46  1  0
 17 47  1  0
 18 48  1  0
 19 49  1  0
 20 50  1  0
 26 51  1  0
 27 52  1  0
 27 53  1  0
 28 54  1  0
 28 55  1  0
 29 56  1  0
 29 57  1  0
 30 58  1  0
 30 59  1  0
M  CHG  1  25  -1
M  END
>  <meeko>  (4) 
{"free_energy": -7.62, "intermolecular_energy": -10.9, "internal_energy": -3.93, "cluster_size": 16, "cluster_id": 1, "rank_in_cluster": 7}

$$$$

     RDKit          3D

 59 61  0  0  0  0  0  0  0  0999 V2000
  143.4660   75.5580  218.7820 C   0  0  0  0  0  0  0  0  0  0  0  0
  142.5980   76.6320  219.4550 C   0  0  0  0  0  0  0  0  0  0  0  0
  142.5360   77.9030  218.6000 C   0  0  0  0  0  0  0  0  0  0  0  0
  141.2060   76.1100  219.9110 C   0  0  0  0  0  0  0  0  0  0  0  0
  141.0660   75.5150  221.3380 C   0  0  2  0  0  0  0  0  0  0  0  0
  140.8400   74.0650  221.3020 N   0  0  0  0  0  0  0  0  0  0  0  0
  141.9050   73.1300  221.0780 C   0  0  0  0  0  0  0  0  0  0  0  0
  143.0930   73.5340  220.9480 O   0  0  0  0  0  0  0  0  0  0  0  0
  141.6070   71.6700  220.9630 C   0  0  0  0  0  0  0  0  0  0  0  0
  140.2180   71.4360  221.3460 N   0  0  0  0  0  0  0  0  0  0  0  0
  139.6350   71.7550  222.4700 C   0  0  0  0  0  0  0  0  0  0  0  0
  138.6430   72.7330  222.4390 O   0  0  0  0  0  0  0  0  0  0  0  0
  139.9800   71.1400  223.7800 C   0  0  0  0  0  0  0  0  0  0  0  0
  140.7350   71.8670  224.7170 C   0  0  0  0  0  0  0  0  0  0  0  0
  141.0360   71.3030  225.9580 C   0  0  0  0  0  0  0  0  0  0  0  0
  140.5780   70.0160  226.2680 C   0  0  0  0  0  0  0  0  0  0  0  0
  140.8580   69.4190  227.5070 C   0  0  0  0  0  0  0  0  0  0  0  0
  140.3820   68.1330  227.7850 C   0  0  0  0  0  0  0  0  0  0  0  0
  139.6250   67.4400  226.8320 C   0  0  0  0  0  0  0  0  0  0  0  0
  139.3420   68.0300  225.5960 C   0  0  0  0  0  0  0  0  0  0  0  0
  139.8150   69.3160  225.3100 C   0  0  0  0  0  0  0  0  0  0  0  0
  139.5390   69.8930  224.1100 N   0  0  0  0  0  0  0  0  0  0  0  0
  140.0370   76.2400  222.1740 C   0  0  0  0  0  0  0  0  0  0  0  0
  139.0890   75.5850  222.6850 O   0  0  0  0  0  0  0  0  0  0  0  0
  140.1100   77.6570  222.3710 N   0  0  0  0  0  0  0  0  0  0  0  0
  141.2650   78.3280  222.9580 C   0  0  0  0  0  0  0  0  0  0  0  0
  140.8470   79.4690  223.8750 C   0  0  0  0  0  0  0  0  0  0  0  0
  141.9670   80.5020  223.7910 C   0  0  0  0  0  0  0  0  0  0  0  0
  142.8200   80.1360  222.5770 C   0  0  0  0  0  0  0  0  0  0  0  0
  142.1110   78.9830  221.8820 C   0  0  0  0  0  0  0  0  0  0  0  0
  143.9588   74.9483  219.5536 H   0  0  0  0  0  0  0  0  0  0  0  0
  142.8319   74.9138  218.1552 H   0  0  0  0  0  0  0  0  0  0  0  0
  144.2289   76.0429  218.1552 H   0  0  0  0  0  0  0  0  0  0  0  0
  143.0948   76.9079  220.3969 H   0  0  0  0  0  0  0  0  0  0  0  0
  142.4930   78.7847  219.2563 H   0  0  0  0  0  0  0  0  0  0  0  0
  143.4323   77.9619  217.9651 H   0  0  0  0  0  0  0  0  0  0  0  0
  141.6382   77.8744  217.9651 H   0  0  0  0  0  0  0  0  0  0  0  0
  140.5045   76.9544  219.8416 H   0  0  0  0  0  0  0  0  0  0  0  0
  141.0080   75.2575  219.2446 H   0  0  0  0  0  0  0  0  0  0  0  0
  142.0297   75.6764  221.8433 H   0  0  0  0  0  0  0  0  0  0  0  0
  139.8670   73.6870  221.3750 H   0  0  0  0  0  0  0  0  0  0  0  0
  141.7632   71.3426  219.9246 H   0  0  0  0  0  0  0  0  0  0  0  0
  142.2757   71.1012  221.6258 H   0  0  0  0  0  0  0  0  0  0  0  0
  138.7460   73.6000  222.9530 H   0  0  0  0  0  0  0  0  0  0  0  0
  141.0883   72.8796  224.4724 H   0  0  0  0  0  0  0  0  0  0  0  0
  141.6313   71.8678  226.6906 H   0  0  0  0  0  0  0  0  0  0  0  0
  141.4508   69.9613  228.2583 H   0  0  0  0  0  0  0  0  0  0  0  0
  140.6031   67.6646  228.7554 H   0  0  0  0  0  0  0  0  0  0  0  0
  139.2523   66.4296  227.0561 H   0  0  0  0  0  0  0  0  0  0  0  0
  138.7478   67.4836  224.8487 H   0  0  0  0  0  0  0  0  0  0  0  0
  141.8142   77.5493  223.5076 H   0  0  0  0  0  0  0  0  0  0  0  0
  139.8967   79.9058  223.5341 H   0  0  0  0  0  0  0  0  0  0  0  0
  140.6926   79.1226  224.9075 H   0  0  0  0  0  0  0  0  0  0  0  0
  141.5435   81.5094  223.6656 H   0  0  0  0  0  0  0  0  0  0  0  0
  142.5711   80.5026  224.7103 H   0  0  0  0  0  0  0  0  0  0  0  0
  142.9022   80.9967  221.8970 H   0  0  0  0  0  0  0  0  0  0  0  0
  143.8393   79.8524  222.8782 H   0  0  0  0  0  0  0  0  0  0  0  0
  141.4751   79.3571  221.0661 H   0  0  0  0  0  0  0  0  0  0  0  0
  142.8224   78.2753  221.4314 H   0  0  0  0  0  0  0  0  0  0  0  0
  1  2  1  0
  2  3  1  0
  2  4  1  0
  4  5  1  0
  5  6  1  0
  6  7  1  0
  7  8  2  0
  7  9  1  0
  9 10  1  0
 10 11  2  0
 11 12  1  0
 11 13  1  0
 13 14  2  0
 14 15  1  0
 15 16  2  0
 16 17  1  0
 17 18  2  0
 18 19  1  0
 19 20  2  0
 20 21  1  0
 21 22  2  0
  5 23  1  0
 23 24  2  0
 23 25  1  0
 25 26  1  0
 26 27  1  0
 27 28  1  0
 28 29  1  0
 29 30  1  0
 22 13  1  0
 30 26  1  0
 21 16  1  0
  1 31  1  0
  1 32  1  0
  1 33  1  0
  2 34  1  0
  3 35  1  0
  3 36  1  0
  3 37  1  0
  4 38  1  0
  4 39  1  0
  5 40  1  1
  6 41  1  0
  9 42  1  0
  9 43  1  0
 12 44  1  0
 14 45  1  0
 15 46  1  0
 17 47  1  0
 18 48  1  0
 19 49  1  0
 20 50  1  0
 26 51  1  0
 27 52  1  0
 27 53  1  0
 28 54  1  0
 28 55  1  0
 29 56  1  0
 29 57  1  0
 30 58  1  0
 30 59  1  0
M  CHG  1  25  -1
M  END
>  <meeko>  (5) 
{"free_energy": -7.35, "intermolecular_energy": -10.63, "internal_energy": -3.96, "cluster_size": 16, "cluster_id": 1, "rank_in_cluster": 15}

$$$$

     RDKit          3D

 59 61  0  0  0  0  0  0  0  0999 V2000
  142.2310   78.2830  218.7770 C   0  0  0  0  0  0  0  0  0  0  0  0
  142.3570   76.7650  218.9740 C   0  0  0  0  0  0  0  0  0  0  0  0
  143.6680   76.4120  219.6870 C   0  0  0  0  0  0  0  0  0  0  0  0
  141.0970   76.1140  219.6110 C   0  0  0  0  0  0  0  0  0  0  0  0
  141.1620   75.6620  221.0940 C   0  0  2  0  0  0  0  0  0  0  0  0
  140.9620   74.2150  221.2300 N   0  0  0  0  0  0  0  0  0  0  0  0
  141.9740   73.2650  220.8640 C   0  0  0  0  0  0  0  0  0  0  0  0
  143.0990   73.6570  220.4510 O   0  0  0  0  0  0  0  0  0  0  0  0
  141.6870   71.8000  220.9390 C   0  0  0  0  0  0  0  0  0  0  0  0
  140.2750   71.6070  221.2570 N   0  0  0  0  0  0  0  0  0  0  0  0
  139.6530   71.9350  222.3570 C   0  0  0  0  0  0  0  0  0  0  0  0
  138.8030   73.0390  222.3250 O   0  0  0  0  0  0  0  0  0  0  0  0
  139.8090   71.2020  223.6430 C   0  0  0  0  0  0  0  0  0  0  0  0
  139.4500   69.8460  223.7230 C   0  0  0  0  0  0  0  0  0  0  0  0
  139.6230   69.1500  224.9220 C   0  0  0  0  0  0  0  0  0  0  0  0
  140.1600   69.8040  226.0370 C   0  0  0  0  0  0  0  0  0  0  0  0
  140.3500   69.1360  227.2560 C   0  0  0  0  0  0  0  0  0  0  0  0
  140.8920   69.8190  228.3490 C   0  0  0  0  0  0  0  0  0  0  0  0
  141.2480   71.1680  228.2320 C   0  0  0  0  0  0  0  0  0  0  0  0
  141.0610   71.8410  227.0190 C   0  0  0  0  0  0  0  0  0  0  0  0
  140.5190   71.1640  225.9210 C   0  0  0  0  0  0  0  0  0  0  0  0
  140.3380   71.8140  224.7400 N   0  0  0  0  0  0  0  0  0  0  0  0
  140.2410   76.4590  221.9890 C   0  0  0  0  0  0  0  0  0  0  0  0
  139.4070   75.8500  222.7110 O   0  0  0  0  0  0  0  0  0  0  0  0
  140.2850   77.8910  222.0060 N   0  0  0  0  0  0  0  0  0  0  0  0
  141.5080   78.6550  222.2300 C   0  0  0  0  0  0  0  0  0  0  0  0
  141.7810   78.8570  223.7140 C   0  0  0  0  0  0  0  0  0  0  0  0
  142.5110   80.1910  223.8250 C   0  0  0  0  0  0  0  0  0  0  0  0
  142.3300   80.9100  222.4890 C   0  0  0  0  0  0  0  0  0  0  0  0
  141.3780   80.0570  221.6640 C   0  0  0  0  0  0  0  0  0  0  0  0
  142.1899   78.7780  219.7585 H   0  0  0  0  0  0  0  0  0  0  0  0
  143.1015   78.6534  218.2157 H   0  0  0  0  0  0  0  0  0  0  0  0
  141.3114   78.5048  218.2157 H   0  0  0  0  0  0  0  0  0  0  0  0
  142.4073   76.3101  217.9737 H   0  0  0  0  0  0  0  0  0  0  0  0
  143.5159   76.4530  220.7757 H   0  0  0  0  0  0  0  0  0  0  0  0
  143.9807   75.3977  219.3984 H   0  0  0  0  0  0  0  0  0  0  0  0
  144.4478   77.1322  219.3984 H   0  0  0  0  0  0  0  0  0  0  0  0
  140.2790   76.8450  219.5307 H   0  0  0  0  0  0  0  0  0  0  0  0
  140.9683   75.1761  219.0509 H   0  0  0  0  0  0  0  0  0  0  0  0
  142.1817   75.8792  221.4447 H   0  0  0  0  0  0  0  0  0  0  0  0
  140.0340   73.8430  221.5400 H   0  0  0  0  0  0  0  0  0  0  0  0
  141.9145   71.3298  219.9709 H   0  0  0  0  0  0  0  0  0  0  0  0
  142.3098   71.3392  221.7199 H   0  0  0  0  0  0  0  0  0  0  0  0
  138.8750   73.7760  223.0170 H   0  0  0  0  0  0  0  0  0  0  0  0
  139.0335   69.3334  222.8434 H   0  0  0  0  0  0  0  0  0  0  0  0
  139.3377   68.0898  224.9897 H   0  0  0  0  0  0  0  0  0  0  0  0
  140.0728   68.0758  227.3518 H   0  0  0  0  0  0  0  0  0  0  0  0
  141.0393   69.2944  229.3046 H   0  0  0  0  0  0  0  0  0  0  0  0
  141.6754   71.6999  229.0948 H   0  0  0  0  0  0  0  0  0  0  0  0
  141.3399   72.9012  226.9290 H   0  0  0  0  0  0  0  0  0  0  0  0
  142.3112   78.0798  221.7462 H   0  0  0  0  0  0  0  0  0  0  0  0
  140.8361   78.8896  224.2762 H   0  0  0  0  0  0  0  0  0  0  0  0
  142.3784   78.0330  224.1313 H   0  0  0  0  0  0  0  0  0  0  0  0
  142.0792   80.7916  224.6391 H   0  0  0  0  0  0  0  0  0  0  0  0
  143.5773   80.0384  224.0481 H   0  0  0  0  0  0  0  0  0  0  0  0
  141.9010   81.9099  222.6508 H   0  0  0  0  0  0  0  0  0  0  0  0
  143.2934   81.0413  221.9746 H   0  0  0  0  0  0  0  0  0  0  0  0
  140.3452   80.4209  221.7683 H   0  0  0  0  0  0  0  0  0  0  0  0
  141.6196   80.0914  220.5914 H   0  0  0  0  0  0  0  0  0  0  0  0
  1  2  1  0
  2  3  1  0
  2  4  1  0
  4  5  1  0
  5  6  1  0
  6  7  1  0
  7  8  2  0
  7  9  1  0
  9 10  1  0
 10 11  2  0
 11 12  1  0
 11 13  1  0
 13 14  2  0
 14 15  1  0
 15 16  2  0
 16 17  1  0
 17 18  2  0
 18 19  1  0
 19 20  2  0
 20 21  1  0
 21 22  2  0
  5 23  1  0
 23 24  2  0
 23 25  1  0
 25 26  1  0
 26 27  1  0
 27 28  1  0
 28 29  1  0
 29 30  1  0
 22 13  1  0
 30 26  1  0
 21 16  1  0
  1 31  1  0
  1 32  1  0
  1 33  1  0
  2 34  1  0
  3 35  1  0
  3 36  1  0
  3 37  1  0
  4 38  1  0
  4 39  1  0
  5 40  1  1
  6 41  1  0
  9 42  1  0
  9 43  1  0
 12 44  1  0
 14 45  1  0
 15 46  1  0
 17 47  1  0
 18 48  1  0
 19 49  1  0
 20 50  1  0
 26 51  1  0
 27 52  1  0
 27 53  1  0
 28 54  1  0
 28 55  1  0
 29 56  1  0
 29 57  1  0
 30 58  1  0
 30 59  1  0
M  CHG  1  25  -1
M  END
>  <meeko>  (6) 
{"free_energy": -7.52, "intermolecular_energy": -10.81, "internal_energy": -3.97, "cluster_size": 16, "cluster_id": 1, "rank_in_cluster": 11}

$$$$

     RDKit          3D

 59 61  0  0  0  0  0  0  0  0999 V2000
  143.6800   76.1480  219.2720 C   0  0  0  0  0  0  0  0  0  0  0  0
  142.5140   77.0700  219.6570 C   0  0  0  0  0  0  0  0  0  0  0  0
  142.3200   78.1750  218.6120 C   0  0  0  0  0  0  0  0  0  0  0  0
  141.2090   76.3050  220.0170 C   0  0  0  0  0  0  0  0  0  0  0  0
  141.0630   75.7140  221.4450 C   0  0  2  0  0  0  0  0  0  0  0  0
  140.8230   74.2670  221.4120 N   0  0  0  0  0  0  0  0  0  0  0  0
  141.8570   73.3280  221.0810 C   0  0  0  0  0  0  0  0  0  0  0  0
  143.0310   73.7260  220.8480 O   0  0  0  0  0  0  0  0  0  0  0  0
  141.5390   71.8710  220.9760 C   0  0  0  0  0  0  0  0  0  0  0  0
  140.1240   71.6700  221.2770 N   0  0  0  0  0  0  0  0  0  0  0  0
  139.4940   71.9610  222.3820 C   0  0  0  0  0  0  0  0  0  0  0  0
  138.5720   73.0060  222.3560 O   0  0  0  0  0  0  0  0  0  0  0  0
  139.7130   71.2470  223.6690 C   0  0  0  0  0  0  0  0  0  0  0  0
  139.3820   69.8860  223.7790 C   0  0  0  0  0  0  0  0  0  0  0  0
  139.6140   69.2070  224.9780 C   0  0  0  0  0  0  0  0  0  0  0  0
  140.1810   69.8850  226.0640 C   0  0  0  0  0  0  0  0  0  0  0  0
  140.4300   69.2350  227.2820 C   0  0  0  0  0  0  0  0  0  0  0  0
  141.0010   69.9410  228.3460 C   0  0  0  0  0  0  0  0  0  0  0  0
  141.3270   71.2950  228.1990 C   0  0  0  0  0  0  0  0  0  0  0  0
  141.0810   71.9500  226.9880 C   0  0  0  0  0  0  0  0  0  0  0  0
  140.5100   71.2490  225.9190 C   0  0  0  0  0  0  0  0  0  0  0  0
  140.2720   71.8820  224.7380 N   0  0  0  0  0  0  0  0  0  0  0  0
  140.0400   76.4510  222.2780 C   0  0  0  0  0  0  0  0  0  0  0  0
  139.0630   75.8130  222.7560 O   0  0  0  0  0  0  0  0  0  0  0  0
  140.1500   77.8610  222.5080 N   0  0  0  0  0  0  0  0  0  0  0  0
  141.4250   78.5690  222.5540 C   0  0  0  0  0  0  0  0  0  0  0  0
  141.7620   79.0320  223.9650 C   0  0  0  0  0  0  0  0  0  0  0  0
  142.5760   80.3110  223.8000 C   0  0  0  0  0  0  0  0  0  0  0  0
  142.3930   80.7720  222.3550 C   0  0  0  0  0  0  0  0  0  0  0  0
  141.3630   79.8430  221.7310 C   0  0  0  0  0  0  0  0  0  0  0  0
  144.1624   75.7666  220.1840 H   0  0  0  0  0  0  0  0  0  0  0  0
  143.2994   75.3040  218.6781 H   0  0  0  0  0  0  0  0  0  0  0  0
  144.4135   76.7130  218.6781 H   0  0  0  0  0  0  0  0  0  0  0  0
  142.7911   77.5688  220.5974 H   0  0  0  0  0  0  0  0  0  0  0  0
  142.1514   79.1355  219.1210 H   0  0  0  0  0  0  0  0  0  0  0  0
  143.2193   78.2465  217.9826 H   0  0  0  0  0  0  0  0  0  0  0  0
  141.4501   77.9359  217.9826 H   0  0  0  0  0  0  0  0  0  0  0  0
  140.3724   77.0035  219.8682 H   0  0  0  0  0  0  0  0  0  0  0  0
  141.2272   75.4214  219.3621 H   0  0  0  0  0  0  0  0  0  0  0  0
  142.0280   75.8663  221.9506 H   0  0  0  0  0  0  0  0  0  0  0  0
  139.8580   73.8940  221.5680 H   0  0  0  0  0  0  0  0  0  0  0  0
  141.7525   71.5196  219.9558 H   0  0  0  0  0  0  0  0  0  0  0  0
  142.1548   71.3039  221.6896 H   0  0  0  0  0  0  0  0  0  0  0  0
  138.5880   73.7380  223.0560 H   0  0  0  0  0  0  0  0  0  0  0  0
  138.9408   69.3556  222.9223 H   0  0  0  0  0  0  0  0  0  0  0  0
  139.3519   68.1425  225.0685 H   0  0  0  0  0  0  0  0  0  0  0  0
  140.1764   68.1712  227.4002 H   0  0  0  0  0  0  0  0  0  0  0  0
  141.1946   69.4310  229.3012 H   0  0  0  0  0  0  0  0  0  0  0  0
  141.7778   71.8449  229.0383 H   0  0  0  0  0  0  0  0  0  0  0  0
  141.3357   73.0142  226.8756 H   0  0  0  0  0  0  0  0  0  0  0  0
  142.1735   77.8586  222.1731 H   0  0  0  0  0  0  0  0  0  0  0  0
  140.8412   79.2345  224.5317 H   0  0  0  0  0  0  0  0  0  0  0  0
  142.3220   78.2647  224.5197 H   0  0  0  0  0  0  0  0  0  0  0  0
  142.2105   81.0836  224.4924 H   0  0  0  0  0  0  0  0  0  0  0  0
  143.6380   80.1327  224.0243 H   0  0  0  0  0  0  0  0  0  0  0  0
  142.0317   81.8107  222.3306 H   0  0  0  0  0  0  0  0  0  0  0  0
  143.3443   80.7379  221.8037 H   0  0  0  0  0  0  0  0  0  0  0  0
  140.3588   80.2886  221.7852 H   0  0  0  0  0  0  0  0  0  0  0  0
  141.5700   79.6554  220.6671 H   0  0  0  0  0  0  0  0  0  0  0  0
  1  2  1  0
  2  3  1  0
  2  4  1  0
  4  5  1  0
  5  6  1  0
  6  7  1  0
  7  8  2  0
  7  9  1  0
  9 10  1  0
 10 11  2  0
 11 12  1  0
 11 13  1  0
 13 14  2  0
 14 15  1  0
 15 16  2  0
 16 17  1  0
 17 18  2  0
 18 19  1  0
 19 20  2  0
 20 21  1  0
 21 22  2  0
  5 23  1  0
 23 24  2  0
 23 25  1  0
 25 26  1  0
 26 27  1  0
 27 28  1  0
 28 29  1  0
 29 30  1  0
 22 13  1  0
 30 26  1  0
 21 16  1  0
  1 31  1  0
  1 32  1  0
  1 33  1  0
  2 34  1  0
  3 35  1  0
  3 36  1  0
  3 37  1  0
  4 38  1  0
  4 39  1  0
  5 40  1  1
  6 41  1  0
  9 42  1  0
  9 43  1  0
 12 44  1  0
 14 45  1  0
 15 46  1  0
 17 47  1  0
 18 48  1  0
 19 49  1  0
 20 50  1  0
 26 51  1  0
 27 52  1  0
 27 53  1  0
 28 54  1  0
 28 55  1  0
 29 56  1  0
 29 57  1  0
 30 58  1  0
 30 59  1  0
M  CHG  1  25  -1
M  END
>  <meeko>  (7) 
{"free_energy": -7.63, "intermolecular_energy": -10.91, "internal_energy": -4.02, "cluster_size": 16, "cluster_id": 1, "rank_in_cluster": 5}

$$$$

     RDKit          3D

 59 61  0  0  0  0  0  0  0  0999 V2000
  141.8230   78.6810  221.6830 C   0  0  0  0  0  0  0  0  0  0  0  0
  140.7810   78.3260  222.7530 C   0  0  0  0  0  0  0  0  0  0  0  0
  140.7320   79.3970  223.8480 C   0  0  0  0  0  0  0  0  0  0  0  0
  139.3880   77.9580  222.1670 C   0  0  0  0  0  0  0  0  0  0  0  0
  138.6650   76.6950  222.7050 C   0  0  2  0  0  0  0  0  0  0  0  0
  139.4630   75.4820  222.4960 N   0  0  0  0  0  0  0  0  0  0  0  0
  140.1710   75.2330  221.2720 C   0  0  0  0  0  0  0  0  0  0  0  0
  140.1620   76.0870  220.3440 O   0  0  0  0  0  0  0  0  0  0  0  0
  140.8970   73.9410  221.0770 C   0  0  0  0  0  0  0  0  0  0  0  0
  140.7920   73.1470  222.2980 N   0  0  0  0  0  0  0  0  0  0  0  0
  139.7260   72.5800  222.7930 C   0  0  0  0  0  0  0  0  0  0  0  0
  138.4830   72.9890  222.3130 O   0  0  0  0  0  0  0  0  0  0  0  0
  139.7640   71.5310  223.8470 C   0  0  0  0  0  0  0  0  0  0  0  0
  139.2450   70.2520  223.5800 C   0  0  0  0  0  0  0  0  0  0  0  0
  139.3050   69.2580  224.5590 C   0  0  0  0  0  0  0  0  0  0  0  0
  139.8890   69.5370  225.8010 C   0  0  0  0  0  0  0  0  0  0  0  0
  139.9700   68.5620  226.8070 C   0  0  0  0  0  0  0  0  0  0  0  0
  140.5630   68.8740  228.0350 C   0  0  0  0  0  0  0  0  0  0  0  0
  141.0780   70.1550  228.2640 C   0  0  0  0  0  0  0  0  0  0  0  0
  141.0010   71.1320  227.2660 C   0  0  0  0  0  0  0  0  0  0  0  0
  140.4090   70.8280  226.0350 C   0  0  0  0  0  0  0  0  0  0  0  0
  140.3350   71.7740  225.0600 N   0  0  0  0  0  0  0  0  0  0  0  0
  137.2570   76.5590  222.1740 C   0  0  0  0  0  0  0  0  0  0  0  0
  136.6640   77.5800  221.7330 O   0  0  0  0  0  0  0  0  0  0  0  0
  136.5800   75.2950  222.1890 N   0  0  0  0  0  0  0  0  0  0  0  0
  135.4410   75.0050  223.0540 C   0  0  0  0  0  0  0  0  0  0  0  0
  135.3950   75.9370  224.2570 C   0  0  0  0  0  0  0  0  0  0  0  0
  134.7550   75.1320  225.3830 C   0  0  0  0  0  0  0  0  0  0  0  0
  134.7750   73.6660  224.9500 C   0  0  0  0  0  0  0  0  0  0  0  0
  135.5550   73.6120  223.6440 C   0  0  0  0  0  0  0  0  0  0  0  0
  142.7561   78.9989  222.1711 H   0  0  0  0  0  0  0  0  0  0  0  0
  142.0194   77.7991  221.0556 H   0  0  0  0  0  0  0  0  0  0  0  0
  141.4401   79.4994  221.0556 H   0  0  0  0  0  0  0  0  0  0  0  0
  141.1149   77.3953  223.2351 H   0  0  0  0  0  0  0  0  0  0  0  0
  140.7541   78.9130  224.8356 H   0  0  0  0  0  0  0  0  0  0  0  0
  141.6005   80.0644  223.7472 H   0  0  0  0  0  0  0  0  0  0  0  0
  139.8061   79.9823  223.7472 H   0  0  0  0  0  0  0  0  0  0  0  0
  138.7229   78.8148  222.3500 H   0  0  0  0  0  0  0  0  0  0  0  0
  139.5953   77.7194  221.1134 H   0  0  0  0  0  0  0  0  0  0  0  0
  138.5640   76.8281  223.7922 H   0  0  0  0  0  0  0  0  0  0  0  0
  139.4750   74.7320  223.2260 H   0  0  0  0  0  0  0  0  0  0  0  0
  140.4480   73.3887  220.2383 H   0  0  0  0  0  0  0  0  0  0  0  0
  141.9555   74.1399  220.8532 H   0  0  0  0  0  0  0  0  0  0  0  0
  137.9770   73.7510  222.7500 H   0  0  0  0  0  0  0  0  0  0  0  0
  138.7923   70.0346  222.6013 H   0  0  0  0  0  0  0  0  0  0  0  0
  138.8944   68.2581  224.3551 H   0  0  0  0  0  0  0  0  0  0  0  0
  139.5677   67.5536  226.6302 H   0  0  0  0  0  0  0  0  0  0  0  0
  140.6247   68.1096  228.8236 H   0  0  0  0  0  0  0  0  0  0  0  0
  141.5444   70.3941  229.2311 H   0  0  0  0  0  0  0  0  0  0  0  0
  141.4055   72.1385  227.4487 H   0  0  0  0  0  0  0  0  0  0  0  0
  134.5492   75.1210  222.4205 H   0  0  0  0  0  0  0  0  0  0  0  0
  136.4115   76.2486  224.5390 H   0  0  0  0  0  0  0  0  0  0  0  0
  134.8242   76.8516  224.0386 H   0  0  0  0  0  0  0  0  0  0  0  0
  135.3293   75.2595  226.3125 H   0  0  0  0  0  0  0  0  0  0  0  0
  133.7262   75.4716  225.5733 H   0  0  0  0  0  0  0  0  0  0  0  0
  135.2713   73.0505  225.7148 H   0  0  0  0  0  0  0  0  0  0  0  0
  133.7549   73.2754  224.8206 H   0  0  0  0  0  0  0  0  0  0  0  0
  136.6084   73.3588  223.8342 H   0  0  0  0  0  0  0  0  0  0  0  0
  135.1619   72.8435  222.9621 H   0  0  0  0  0  0  0  0  0  0  0  0
  1  2  1  0
  2  3  1  0
  2  4  1  0
  4  5  1  0
  5  6  1  0
  6  7  1  0
  7  8  2  0
  7  9  1  0
  9 10  1  0
 10 11  2  0
 11 12  1  0
 11 13  1  0
 13 14  2  0
 14 15  1  0
 15 16  2  0
 16 17  1  0
 17 18  2  0
 18 19  1  0
 19 20  2  0
 20 21  1  0
 21 22  2  0
  5 23  1  0
 23 24  2  0
 23 25  1  0
 25 26  1  0
 26 27  1  0
 27 28  1  0
 28 29  1  0
 29 30  1  0
 22 13  1  0
 30 26  1  0
 21 16  1  0
  1 31  1  0
  1 32  1  0
  1 33  1  0
  2 34  1  0
  3 35  1  0
  3 36  1  0
  3 37  1  0
  4 38  1  0
  4 39  1  0
  5 40  1  1
  6 41  1  0
  9 42  1  0
  9 43  1  0
 12 44  1  0
 14 45  1  0
 15 46  1  0
 17 47  1  0
 18 48  1  0
 19 49  1  0
 20 50  1  0
 26 51  1  0
 27 52  1  0
 27 53  1  0
 28 54  1  0
 28 55  1  0
 29 56  1  0
 29 57  1  0
 30 58  1  0
 30 59  1  0
M  CHG  1  25  -1
M  END
>  <meeko>  (8) 
{"free_energy": -7.1, "intermolecular_energy": -10.38, "internal_energy": -3.53, "cluster_size": 2, "cluster_id": 2, "rank_in_cluster": 2}

$$$$

     RDKit          3D

 59 61  0  0  0  0  0  0  0  0999 V2000
  133.9370   71.1500  226.7360 C   0  0  0  0  0  0  0  0  0  0  0  0
  134.0120   71.1150  225.2030 C   0  0  0  0  0  0  0  0  0  0  0  0
  132.7990   71.8160  224.5780 C   0  0  0  0  0  0  0  0  0  0  0  0
  135.3790   71.5940  224.6370 C   0  0  0  0  0  0  0  0  0  0  0  0
  135.4210   72.9040  223.8050 C   0  0  2  0  0  0  0  0  0  0  0  0
  136.5140   72.8900  222.8260 N   0  0  0  0  0  0  0  0  0  0  0  0
  136.4650   72.0900  221.6360 C   0  0  0  0  0  0  0  0  0  0  0  0
  135.4430   71.3980  221.3720 O   0  0  0  0  0  0  0  0  0  0  0  0
  137.6430   72.0440  220.7160 C   0  0  0  0  0  0  0  0  0  0  0  0
  138.8150   71.6000  221.4640 N   0  0  0  0  0  0  0  0  0  0  0  0
  139.2920   72.1000  222.5710 C   0  0  0  0  0  0  0  0  0  0  0  0
  139.5900   73.4610  222.6010 O   0  0  0  0  0  0  0  0  0  0  0  0
  139.5460   71.2960  223.7970 C   0  0  0  0  0  0  0  0  0  0  0  0
  139.2580   69.9200  223.8040 C   0  0  0  0  0  0  0  0  0  0  0  0
  139.5220   69.1590  224.9440 C   0  0  0  0  0  0  0  0  0  0  0  0
  140.0790   69.7680  226.0750 C   0  0  0  0  0  0  0  0  0  0  0  0
  140.3600   69.0330  227.2370 C   0  0  0  0  0  0  0  0  0  0  0  0
  140.9200   69.6730  228.3490 C   0  0  0  0  0  0  0  0  0  0  0  0
  141.2020   71.0430  228.3060 C   0  0  0  0  0  0  0  0  0  0  0  0
  140.9240   71.7820  227.1500 C   0  0  0  0  0  0  0  0  0  0  0  0
  140.3640   71.1490  226.0340 C   0  0  0  0  0  0  0  0  0  0  0  0
  140.0960   71.8630  224.9080 N   0  0  0  0  0  0  0  0  0  0  0  0
  135.4340   74.1440  224.6680 C   0  0  0  0  0  0  0  0  0  0  0  0
  136.1370   75.1300  224.3170 O   0  0  0  0  0  0  0  0  0  0  0  0
  134.6840   74.2030  225.8870 N   0  0  0  0  0  0  0  0  0  0  0  0
  133.4720   75.0010  226.0460 C   0  0  0  0  0  0  0  0  0  0  0  0
  133.7730   76.3690  226.6430 C   0  0  0  0  0  0  0  0  0  0  0  0
  132.5350   76.7560  227.4440 C   0  0  0  0  0  0  0  0  0  0  0  0
  131.6980   75.4880  227.6100 C   0  0  0  0  0  0  0  0  0  0  0  0
  132.5220   74.3470  227.0320 C   0  0  0  0  0  0  0  0  0  0  0  0
  134.8575   70.7204  227.1580 H   0  0  0  0  0  0  0  0  0  0  0  0
  133.8297   72.1912  227.0742 H   0  0  0  0  0  0  0  0  0  0  0  0
  133.0700   70.5635  227.0742 H   0  0  0  0  0  0  0  0  0  0  0  0
  133.9591   70.0593  224.8986 H   0  0  0  0  0  0  0  0  0  0  0  0
  132.1432   72.1950  225.3757 H   0  0  0  0  0  0  0  0  0  0  0  0
  133.1414   72.6555  223.9551 H   0  0  0  0  0  0  0  0  0  0  0  0
  132.2426   71.1002  223.9551 H   0  0  0  0  0  0  0  0  0  0  0  0
  136.0542   71.7326  225.4942 H   0  0  0  0  0  0  0  0  0  0  0  0
  135.6609   70.8106  223.9181 H   0  0  0  0  0  0  0  0  0  0  0  0
  134.4808   72.9462  223.2355 H   0  0  0  0  0  0  0  0  0  0  0  0
  137.3940   73.4240  223.0170 H   0  0  0  0  0  0  0  0  0  0  0  0
  137.4418   71.3406  219.8946 H   0  0  0  0  0  0  0  0  0  0  0  0
  137.8268   73.0449  220.2983 H   0  0  0  0  0  0  0  0  0  0  0  0
  139.5590   73.9870  223.4670 H   0  0  0  0  0  0  0  0  0  0  0  0
  138.8251   69.4436  222.9121 H   0  0  0  0  0  0  0  0  0  0  0  0
  139.2929   68.0832  224.9538 H   0  0  0  0  0  0  0  0  0  0  0  0
  140.1406   67.9557  227.2740 H   0  0  0  0  0  0  0  0  0  0  0  0
  141.1392   69.0968  229.2600 H   0  0  0  0  0  0  0  0  0  0  0  0
  141.6431   71.5403  229.1824 H   0  0  0  0  0  0  0  0  0  0  0  0
  141.1454   72.8590  227.1186 H   0  0  0  0  0  0  0  0  0  0  0  0
  133.0382   75.0865  225.0388 H   0  0  0  0  0  0  0  0  0  0  0  0
  134.6529   76.3143  227.3009 H   0  0  0  0  0  0  0  0  0  0  0  0
  133.9971   77.1104  225.8619 H   0  0  0  0  0  0  0  0  0  0  0  0
  132.8291   77.1466  228.4294 H   0  0  0  0  0  0  0  0  0  0  0  0
  131.9622   77.5406  226.9281 H   0  0  0  0  0  0  0  0  0  0  0  0
  131.4914   75.3059  228.6750 H   0  0  0  0  0  0  0  0  0  0  0  0
  130.7303   75.5801  227.0951 H   0  0  0  0  0  0  0  0  0  0  0  0
  133.0838   73.8356  227.8275 H   0  0  0  0  0  0  0  0  0  0  0  0
  131.8897   73.5865  226.5505 H   0  0  0  0  0  0  0  0  0  0  0  0
  1  2  1  0
  2  3  1  0
  2  4  1  0
  4  5  1  0
  5  6  1  0
  6  7  1  0
  7  8  2  0
  7  9  1  0
  9 10  1  0
 10 11  2  0
 11 12  1  0
 11 13  1  0
 13 14  2  0
 14 15  1  0
 15 16  2  0
 16 17  1  0
 17 18  2  0
 18 19  1  0
 19 20  2  0
 20 21  1  0
 21 22  2  0
  5 23  1  0
 23 24  2  0
 23 25  1  0
 25 26  1  0
 26 27  1  0
 27 28  1  0
 28 29  1  0
 29 30  1  0
 22 13  1  0
 30 26  1  0
 21 16  1  0
  1 31  1  0
  1 32  1  0
  1 33  1  0
  2 34  1  0
  3 35  1  0
  3 36  1  0
  3 37  1  0
  4 38  1  0
  4 39  1  0
  5 40  1  6
  6 41  1  0
  9 42  1  0
  9 43  1  0
 12 44  1  0
 14 45  1  0
 15 46  1  0
 17 47  1  0
 18 48  1  0
 19 49  1  0
 20 50  1  0
 26 51  1  0
 27 52  1  0
 27 53  1  0
 28 54  1  0
 28 55  1  0
 29 56  1  0
 29 57  1  0
 30 58  1  0
 30 59  1  0
M  CHG  1  25  -1
M  END
>  <meeko>  (9) 
{"free_energy": -6.75, "intermolecular_energy": -10.03, "internal_energy": -3.19, "cluster_size": 1, "cluster_id": 3, "rank_in_cluster": 1}

$$$$

     RDKit          3D

 59 61  0  0  0  0  0  0  0  0999 V2000
  143.6610   76.0710  219.3350 C   0  0  0  0  0  0  0  0  0  0  0  0
  142.4990   77.0070  219.7000 C   0  0  0  0  0  0  0  0  0  0  0  0
  142.3230   78.1010  218.6400 C   0  0  0  0  0  0  0  0  0  0  0  0
  141.1850   76.2570  220.0580 C   0  0  0  0  0  0  0  0  0  0  0  0
  141.0300   75.6690  221.4860 C   0  0  2  0  0  0  0  0  0  0  0  0
  140.7930   74.2210  221.4540 N   0  0  0  0  0  0  0  0  0  0  0  0
  141.8310   73.2830  221.1300 C   0  0  0  0  0  0  0  0  0  0  0  0
  143.0060   73.6830  220.9040 O   0  0  0  0  0  0  0  0  0  0  0  0
  141.5160   71.8260  221.0250 C   0  0  0  0  0  0  0  0  0  0  0  0
  140.0930   71.6270  221.2820 N   0  0  0  0  0  0  0  0  0  0  0  0
  139.4320   71.8990  222.3750 C   0  0  0  0  0  0  0  0  0  0  0  0
  138.4850   72.9200  222.3310 O   0  0  0  0  0  0  0  0  0  0  0  0
  139.6440   71.1890  223.6650 C   0  0  0  0  0  0  0  0  0  0  0  0
  139.3060   69.8290  223.7780 C   0  0  0  0  0  0  0  0  0  0  0  0
  139.5310   69.1540  224.9800 C   0  0  0  0  0  0  0  0  0  0  0  0
  140.0980   69.8320  226.0660 C   0  0  0  0  0  0  0  0  0  0  0  0
  140.3400   69.1850  227.2870 C   0  0  0  0  0  0  0  0  0  0  0  0
  140.9110   69.8920  228.3500 C   0  0  0  0  0  0  0  0  0  0  0  0
  141.2440   71.2440  228.2000 C   0  0  0  0  0  0  0  0  0  0  0  0
  141.0060   71.8950  226.9850 C   0  0  0  0  0  0  0  0  0  0  0  0
  140.4340   71.1940  225.9170 C   0  0  0  0  0  0  0  0  0  0  0  0
  140.2040   71.8240  224.7330 N   0  0  0  0  0  0  0  0  0  0  0  0
  140.0000   76.4040  222.3110 C   0  0  0  0  0  0  0  0  0  0  0  0
  138.9820   75.7830  222.7200 O   0  0  0  0  0  0  0  0  0  0  0  0
  140.1510   77.7970  222.6110 N   0  0  0  0  0  0  0  0  0  0  0  0
  141.4410   78.4780  222.6360 C   0  0  0  0  0  0  0  0  0  0  0  0
  141.7640   79.0250  224.0200 C   0  0  0  0  0  0  0  0  0  0  0  0
  142.6110   80.2710  223.7890 C   0  0  0  0  0  0  0  0  0  0  0  0
  142.4660   80.6410  222.3130 C   0  0  0  0  0  0  0  0  0  0  0  0
  141.4250   79.6960  221.7310 C   0  0  0  0  0  0  0  0  0  0  0  0
  144.1303   75.6930  220.2553 H   0  0  0  0  0  0  0  0  0  0  0  0
  143.2790   75.2254  218.7442 H   0  0  0  0  0  0  0  0  0  0  0  0
  144.4058   76.6243  218.7442 H   0  0  0  0  0  0  0  0  0  0  0  0
  142.7719   77.5144  220.6370 H   0  0  0  0  0  0  0  0  0  0  0  0
  142.1670   79.0704  219.1359 H   0  0  0  0  0  0  0  0  0  0  0  0
  143.2246   78.1513  218.0118 H   0  0  0  0  0  0  0  0  0  0  0  0
  141.4511   77.8660  218.0118 H   0  0  0  0  0  0  0  0  0  0  0  0
  140.3565   76.9647  219.9071 H   0  0  0  0  0  0  0  0  0  0  0  0
  141.1944   75.3728  219.4037 H   0  0  0  0  0  0  0  0  0  0  0  0
  141.9911   75.8257  221.9975 H   0  0  0  0  0  0  0  0  0  0  0  0
  139.8280   73.8460  221.6050 H   0  0  0  0  0  0  0  0  0  0  0  0
  141.7618   71.4676  220.0145 H   0  0  0  0  0  0  0  0  0  0  0  0
  142.1086   71.2639  221.7618 H   0  0  0  0  0  0  0  0  0  0  0  0
  138.5220   73.6990  222.9790 H   0  0  0  0  0  0  0  0  0  0  0  0
  138.8653   69.2976  222.9216 H   0  0  0  0  0  0  0  0  0  0  0  0
  139.2631   68.0912  225.0733 H   0  0  0  0  0  0  0  0  0  0  0  0
  140.0809   68.1228  227.4082 H   0  0  0  0  0  0  0  0  0  0  0  0
  141.0992   69.3843  229.3075 H   0  0  0  0  0  0  0  0  0  0  0  0
  141.6936   71.7950  229.0392 H   0  0  0  0  0  0  0  0  0  0  0  0
  141.2681   72.9570  226.8690 H   0  0  0  0  0  0  0  0  0  0  0  0
  142.1786   77.7269  222.3169 H   0  0  0  0  0  0  0  0  0  0  0  0
  140.8384   79.2851  224.5543 H   0  0  0  0  0  0  0  0  0  0  0  0
  142.2958   78.2830  224.6337 H   0  0  0  0  0  0  0  0  0  0  0  0
  142.2514   81.0953  224.4224 H   0  0  0  0  0  0  0  0  0  0  0  0
  143.6641   80.0836  224.0457 H   0  0  0  0  0  0  0  0  0  0  0  0
  142.1303   81.6838  222.2138 H   0  0  0  0  0  0  0  0  0  0  0  0
  143.4261   80.5498  221.7839 H   0  0  0  0  0  0  0  0  0  0  0  0
  140.4310   80.1671  221.7362 H   0  0  0  0  0  0  0  0  0  0  0  0
  141.6470   79.4339  220.6860 H   0  0  0  0  0  0  0  0  0  0  0  0
  1  2  1  0
  2  3  1  0
  2  4  1  0
  4  5  1  0
  5  6  1  0
  6  7  1  0
  7  8  2  0
  7  9  1  0
  9 10  1  0
 10 11  2  0
 11 12  1  0
 11 13  1  0
 13 14  2  0
 14 15  1  0
 15 16  2  0
 16 17  1  0
 17 18  2  0
 18 19  1  0
 19 20  2  0
 20 21  1  0
 21 22  2  0
  5 23  1  0
 23 24  2  0
 23 25  1  0
 25 26  1  0
 26 27  1  0
 27 28  1  0
 28 29  1  0
 29 30  1  0
 22 13  1  0
 30 26  1  0
 21 16  1  0
  1 31  1  0
  1 32  1  0
  1 33  1  0
  2 34  1  0
  3 35  1  0
  3 36  1  0
  3 37  1  0
  4 38  1  0
  4 39  1  0
  5 40  1  1
  6 41  1  0
  9 42  1  0
  9 43  1  0
 12 44  1  0
 14 45  1  0
 15 46  1  0
 17 47  1  0
 18 48  1  0
 19 49  1  0
 20 50  1  0
 26 51  1  0
 27 52  1  0
 27 53  1  0
 28 54  1  0
 28 55  1  0
 29 56  1  0
 29 57  1  0
 30 58  1  0
 30 59  1  0
M  CHG  1  25  -1
M  END
>  <meeko>  (10) 
{"free_energy": -7.61, "intermolecular_energy": -10.89, "internal_energy": -4.02, "cluster_size": 16, "cluster_id": 1, "rank_in_cluster": 9}

$$$$

     RDKit          3D

 59 61  0  0  0  0  0  0  0  0999 V2000
  138.8070   67.1080  222.7200 C   0  0  0  0  0  0  0  0  0  0  0  0
  138.2550   68.5100  222.4230 C   0  0  0  0  0  0  0  0  0  0  0  0
  137.1230   68.8710  223.3910 C   0  0  0  0  0  0  0  0  0  0  0  0
  139.3580   69.6000  222.3070 C   0  0  0  0  0  0  0  0  0  0  0  0
  139.0670   71.0160  222.8730 C   0  0  2  0  0  0  0  0  0  0  0  0
  139.4790   72.0700  221.9380 N   0  0  0  0  0  0  0  0  0  0  0  0
  138.8570   72.2390  220.6550 C   0  0  0  0  0  0  0  0  0  0  0  0
  137.8940   71.5010  220.3090 O   0  0  0  0  0  0  0  0  0  0  0  0
  139.3730   73.2710  219.7050 C   0  0  0  0  0  0  0  0  0  0  0  0
  140.3550   74.1030  220.3930 N   0  0  0  0  0  0  0  0  0  0  0  0
  140.1450   74.9540  221.3600 C   0  0  0  0  0  0  0  0  0  0  0  0
  139.3290   74.5550  222.4180 O   0  0  0  0  0  0  0  0  0  0  0  0
  140.7160   76.3270  221.3900 C   0  0  0  0  0  0  0  0  0  0  0  0
  141.0610   76.9670  220.1870 C   0  0  0  0  0  0  0  0  0  0  0  0
  141.5710   78.2670  220.2110 C   0  0  0  0  0  0  0  0  0  0  0  0
  141.7310   78.9300  221.4330 C   0  0  0  0  0  0  0  0  0  0  0  0
  142.2380   80.2380  221.4950 C   0  0  0  0  0  0  0  0  0  0  0  0
  142.3820   80.8720  222.7340 C   0  0  0  0  0  0  0  0  0  0  0  0
  142.0210   80.2080  223.9120 C   0  0  0  0  0  0  0  0  0  0  0  0
  141.5140   78.9050  223.8580 C   0  0  0  0  0  0  0  0  0  0  0  0
  141.3680   78.2640  222.6230 C   0  0  0  0  0  0  0  0  0  0  0  0
  140.8730   76.9980  222.5660 N   0  0  0  0  0  0  0  0  0  0  0  0
  139.6360   71.2190  224.2580 C   0  0  0  0  0  0  0  0  0  0  0  0
  140.4040   72.1960  224.4700 O   0  0  0  0  0  0  0  0  0  0  0  0
  139.3370   70.3050  225.3210 N   0  0  0  0  0  0  0  0  0  0  0  0
  140.3350   69.8240  226.2710 C   0  0  0  0  0  0  0  0  0  0  0  0
  140.6530   68.3510  226.0570 C   0  0  0  0  0  0  0  0  0  0  0  0
  141.0210   67.8000  227.4300 C   0  0  0  0  0  0  0  0  0  0  0  0
  140.5650   68.8330  228.4610 C   0  0  0  0  0  0  0  0  0  0  0  0
  139.8090   69.9060  227.6920 C   0  0  0  0  0  0  0  0  0  0  0  0
  138.8653   66.9599  223.8084 H   0  0  0  0  0  0  0  0  0  0  0  0
  138.1398   66.3509  222.2822 H   0  0  0  0  0  0  0  0  0  0  0  0
  139.8112   67.0090  222.2822 H   0  0  0  0  0  0  0  0  0  0  0  0
  137.8123   68.4784  221.4165 H   0  0  0  0  0  0  0  0  0  0  0  0
  137.4763   68.7583  224.4266 H   0  0  0  0  0  0  0  0  0  0  0  0
  136.8130   69.9126  223.2206 H   0  0  0  0  0  0  0  0  0  0  0  0
  136.2672   68.2012  223.2206 H   0  0  0  0  0  0  0  0  0  0  0  0
  140.2471   69.2183  222.8302 H   0  0  0  0  0  0  0  0  0  0  0  0
  139.4627   69.7608  221.2239 H   0  0  0  0  0  0  0  0  0  0  0  0
  137.9752   71.0932  222.9828 H   0  0  0  0  0  0  0  0  0  0  0  0
  140.2920   72.6850  222.1700 H   0  0  0  0  0  0  0  0  0  0  0  0
  139.8473   72.7759  218.8449 H   0  0  0  0  0  0  0  0  0  0  0  0
  138.5412   73.8964  219.3486 H   0  0  0  0  0  0  0  0  0  0  0  0
  139.6310   73.8430  223.0730 H   0  0  0  0  0  0  0  0  0  0  0  0
  140.9295   76.4446  219.2279 H   0  0  0  0  0  0  0  0  0  0  0  0
  141.8463   78.7686  219.2715 H   0  0  0  0  0  0  0  0  0  0  0  0
  142.5215   80.7633  220.5711 H   0  0  0  0  0  0  0  0  0  0  0  0
  142.7804   81.8962  222.7824 H   0  0  0  0  0  0  0  0  0  0  0  0
  142.1362   80.7119  224.8830 H   0  0  0  0  0  0  0  0  0  0  0  0
  141.2306   78.3854  224.7852 H   0  0  0  0  0  0  0  0  0  0  0  0
  141.2224   70.4549  226.1145 H   0  0  0  0  0  0  0  0  0  0  0  0
  139.7746   67.8241  225.6560 H   0  0  0  0  0  0  0  0  0  0  0  0
  141.4711   68.2150  225.3344 H   0  0  0  0  0  0  0  0  0  0  0  0
  140.5088   66.8419  227.6026 H   0  0  0  0  0  0  0  0  0  0  0  0
  142.1038   67.6211  227.5047 H   0  0  0  0  0  0  0  0  0  0  0  0
  139.9051   68.3621  229.2045 H   0  0  0  0  0  0  0  0  0  0  0  0
  141.4222   69.2605  229.0018 H   0  0  0  0  0  0  0  0  0  0  0  0
  138.7274   69.7069  227.7148 H   0  0  0  0  0  0  0  0  0  0  0  0
  139.9574   70.9050  228.1278 H   0  0  0  0  0  0  0  0  0  0  0  0
  1  2  1  0
  2  3  1  0
  2  4  1  0
  4  5  1  0
  5  6  1  0
  6  7  1  0
  7  8  2  0
  7  9  1  0
  9 10  1  0
 10 11  2  0
 11 12  1  0
 11 13  1  0
 13 14  2  0
 14 15  1  0
 15 16  2  0
 16 17  1  0
 17 18  2  0
 18 19  1  0
 19 20  2  0
 20 21  1  0
 21 22  2  0
  5 23  1  0
 23 24  2  0
 23 25  1  0
 25 26  1  0
 26 27  1  0
 27 28  1  0
 28 29  1  0
 29 30  1  0
 22 13  1  0
 30 26  1  0
 21 16  1  0
  1 31  1  0
  1 32  1  0
  1 33  1  0
  2 34  1  0
  3 35  1  0
  3 36  1  0
  3 37  1  0
  4 38  1  0
  4 39  1  0
  5 40  1  1
  6 41  1  0
  9 42  1  0
  9 43  1  0
 12 44  1  0
 14 45  1  0
 15 46  1  0
 17 47  1  0
 18 48  1  0
 19 49  1  0
 20 50  1  0
 26 51  1  0
 27 52  1  0
 27 53  1  0
 28 54  1  0
 28 55  1  0
 29 56  1  0
 29 57  1  0
 30 58  1  0
 30 59  1  0
M  CHG  1  25  -1
M  END
>  <meeko>  (11) 
{"free_energy": -6.4, "intermolecular_energy": -9.68, "internal_energy": -3.59, "cluster_size": 1, "cluster_id": 4, "rank_in_cluster": 1}

$$$$

     RDKit          3D

 59 61  0  0  0  0  0  0  0  0999 V2000
  142.5160   77.9500  218.3620 C   0  0  0  0  0  0  0  0  0  0  0  0
  141.8930   78.4050  219.6900 C   0  0  0  0  0  0  0  0  0  0  0  0
  141.6570   79.9200  219.6960 C   0  0  0  0  0  0  0  0  0  0  0  0
  140.6500   77.5700  220.1110 C   0  0  0  0  0  0  0  0  0  0  0  0
  140.6640   76.8600  221.4910 C   0  0  2  0  0  0  0  0  0  0  0  0
  140.6400   75.4000  221.3510 N   0  0  0  0  0  0  0  0  0  0  0  0
  141.7200   74.6710  220.7480 C   0  0  0  0  0  0  0  0  0  0  0  0
  142.7580   75.2740  220.3570 O   0  0  0  0  0  0  0  0  0  0  0  0
  141.6080   73.1940  220.5490 C   0  0  0  0  0  0  0  0  0  0  0  0
  141.4520   72.5490  221.8490 N   0  0  0  0  0  0  0  0  0  0  0  0
  140.3910   72.5330  222.6110 C   0  0  0  0  0  0  0  0  0  0  0  0
  139.3910   73.4700  222.3620 O   0  0  0  0  0  0  0  0  0  0  0  0
  140.1980   71.5770  223.7350 C   0  0  0  0  0  0  0  0  0  0  0  0
  139.5420   70.3540  223.5080 C   0  0  0  0  0  0  0  0  0  0  0  0
  139.3850   69.4440  224.5560 C   0  0  0  0  0  0  0  0  0  0  0  0
  139.8870   69.7500  225.8260 C   0  0  0  0  0  0  0  0  0  0  0  0
  139.7500   68.8580  226.9010 C   0  0  0  0  0  0  0  0  0  0  0  0
  140.2680   69.1940  228.1570 C   0  0  0  0  0  0  0  0  0  0  0  0
  140.9230   70.4170  228.3450 C   0  0  0  0  0  0  0  0  0  0  0  0
  141.0640   71.3100  227.2780 C   0  0  0  0  0  0  0  0  0  0  0  0
  140.5490   70.9810  226.0190 C   0  0  0  0  0  0  0  0  0  0  0  0
  140.6860   71.8470  224.9780 N   0  0  0  0  0  0  0  0  0  0  0  0
  139.5860   77.3690  222.4200 C   0  0  0  0  0  0  0  0  0  0  0  0
  138.8120   76.5420  222.9740 O   0  0  0  0  0  0  0  0  0  0  0  0
  139.4170   78.7720  222.6580 N   0  0  0  0  0  0  0  0  0  0  0  0
  140.3230   79.5600  223.4880 C   0  0  0  0  0  0  0  0  0  0  0  0
  140.4360   80.9950  222.9910 C   0  0  0  0  0  0  0  0  0  0  0  0
  141.8450   81.4510  223.3540 C   0  0  0  0  0  0  0  0  0  0  0  0
  142.6410   80.1960  223.7110 C   0  0  0  0  0  0  0  0  0  0  0  0
  141.7350   79.0110  223.4150 C   0  0  0  0  0  0  0  0  0  0  0  0
  143.3889   77.3125  218.5659 H   0  0  0  0  0  0  0  0  0  0  0  0
  141.7729   77.3805  217.7845 H   0  0  0  0  0  0  0  0  0  0  0  0
  142.8324   78.8311  217.7845 H   0  0  0  0  0  0  0  0  0  0  0  0
  142.6276   78.1970  220.4819 H   0  0  0  0  0  0  0  0  0  0  0  0
  141.6012   80.2783  220.7345 H   0  0  0  0  0  0  0  0  0  0  0  0
  142.4877   80.4225  219.1789 H   0  0  0  0  0  0  0  0  0  0  0  0
  140.7128   80.1461  219.1789 H   0  0  0  0  0  0  0  0  0  0  0  0
  139.7855   78.2502  220.1052 H   0  0  0  0  0  0  0  0  0  0  0  0
  140.6237   76.7440  219.3850 H   0  0  0  0  0  0  0  0  0  0  0  0
  141.6197   77.1201  221.9696 H   0  0  0  0  0  0  0  0  0  0  0  0
  139.7880   74.8620  221.6330 H   0  0  0  0  0  0  0  0  0  0  0  0
  140.7333   72.9721  219.9200 H   0  0  0  0  0  0  0  0  0  0  0  0
  142.5146   72.8163  220.0536 H   0  0  0  0  0  0  0  0  0  0  0  0
  139.2420   74.2560  222.9840 H   0  0  0  0  0  0  0  0  0  0  0  0
  139.1533   70.1145  222.5072 H   0  0  0  0  0  0  0  0  0  0  0  0
  138.8678   68.4887  224.3834 H   0  0  0  0  0  0  0  0  0  0  0  0
  139.2362   67.8962  226.7565 H   0  0  0  0  0  0  0  0  0  0  0  0
  140.1601   68.4948  228.9993 H   0  0  0  0  0  0  0  0  0  0  0  0
  141.3278   70.6762  229.3345 H   0  0  0  0  0  0  0  0  0  0  0  0
  141.5793   72.2702  227.4282 H   0  0  0  0  0  0  0  0  0  0  0  0
  139.9081   79.5163  224.5058 H   0  0  0  0  0  0  0  0  0  0  0  0
  140.2890   81.0357  221.9016 H   0  0  0  0  0  0  0  0  0  0  0  0
  139.6715   81.6422  223.4456 H   0  0  0  0  0  0  0  0  0  0  0  0
  142.3092   81.9623  222.4978 H   0  0  0  0  0  0  0  0  0  0  0  0
  141.8248   82.1570  224.1973 H   0  0  0  0  0  0  0  0  0  0  0  0
  143.5538   80.1384  223.0999 H   0  0  0  0  0  0  0  0  0  0  0  0
  142.9488   80.2073  224.7670 H   0  0  0  0  0  0  0  0  0  0  0  0
  141.9410   78.6094  222.4119 H   0  0  0  0  0  0  0  0  0  0  0  0
  141.8921   78.1865  224.1259 H   0  0  0  0  0  0  0  0  0  0  0  0
  1  2  1  0
  2  3  1  0
  2  4  1  0
  4  5  1  0
  5  6  1  0
  6  7  1  0
  7  8  2  0
  7  9  1  0
  9 10  1  0
 10 11  2  0
 11 12  1  0
 11 13  1  0
 13 14  2  0
 14 15  1  0
 15 16  2  0
 16 17  1  0
 17 18  2  0
 18 19  1  0
 19 20  2  0
 20 21  1  0
 21 22  2  0
  5 23  1  0
 23 24  2  0
 23 25  1  0
 25 26  1  0
 26 27  1  0
 27 28  1  0
 28 29  1  0
 29 30  1  0
 22 13  1  0
 30 26  1  0
 21 16  1  0
  1 31  1  0
  1 32  1  0
  1 33  1  0
  2 34  1  0
  3 35  1  0
  3 36  1  0
  3 37  1  0
  4 38  1  0
  4 39  1  0
  5 40  1  1
  6 41  1  0
  9 42  1  0
  9 43  1  0
 12 44  1  0
 14 45  1  0
 15 46  1  0
 17 47  1  0
 18 48  1  0
 19 49  1  0
 20 50  1  0
 26 51  1  0
 27 52  1  0
 27 53  1  0
 28 54  1  0
 28 55  1  0
 29 56  1  0
 29 57  1  0
 30 58  1  0
 30 59  1  0
M  CHG  1  25  -1
M  END
>  <meeko>  (12) 
{"free_energy": -7.75, "intermolecular_energy": -11.03, "internal_energy": -3.26, "cluster_size": 16, "cluster_id": 1, "rank_in_cluster": 2}

$$$$

     RDKit          3D

 59 61  0  0  0  0  0  0  0  0999 V2000
  142.5110   78.0420  218.5520 C   0  0  0  0  0  0  0  0  0  0  0  0
  142.3610   76.5680  218.9580 C   0  0  0  0  0  0  0  0  0  0  0  0
  143.5980   76.0800  219.7210 C   0  0  0  0  0  0  0  0  0  0  0  0
  141.0150   76.2550  219.6720 C   0  0  0  0  0  0  0  0  0  0  0  0
  141.0540   75.5900  221.0740 C   0  0  2  0  0  0  0  0  0  0  0  0
  140.8120   74.1440  220.9960 N   0  0  0  0  0  0  0  0  0  0  0  0
  141.8840   73.1900  220.9820 C   0  0  0  0  0  0  0  0  0  0  0  0
  143.0820   73.5720  221.0830 O   0  0  0  0  0  0  0  0  0  0  0  0
  141.5880   71.7340  220.8130 C   0  0  0  0  0  0  0  0  0  0  0  0
  140.1940   71.4880  221.1710 N   0  0  0  0  0  0  0  0  0  0  0  0
  139.5690   71.8670  222.2520 C   0  0  0  0  0  0  0  0  0  0  0  0
  138.7040   72.9560  222.1620 O   0  0  0  0  0  0  0  0  0  0  0  0
  139.7370   71.2080  223.5760 C   0  0  0  0  0  0  0  0  0  0  0  0
  139.3720   69.8600  223.7380 C   0  0  0  0  0  0  0  0  0  0  0  0
  139.5550   69.2320  224.9720 C   0  0  0  0  0  0  0  0  0  0  0  0
  140.1080   69.9460  226.0420 C   0  0  0  0  0  0  0  0  0  0  0  0
  140.3090   69.3470  227.2950 C   0  0  0  0  0  0  0  0  0  0  0  0
  140.8670   70.0890  228.3410 C   0  0  0  0  0  0  0  0  0  0  0  0
  141.2270   71.4270  228.1430 C   0  0  0  0  0  0  0  0  0  0  0  0
  141.0300   72.0310  226.8970 C   0  0  0  0  0  0  0  0  0  0  0  0
  140.4720   71.2950  225.8450 C   0  0  0  0  0  0  0  0  0  0  0  0
  140.2810   71.8780  224.6310 N   0  0  0  0  0  0  0  0  0  0  0  0
  140.1470   76.2740  222.0700 C   0  0  0  0  0  0  0  0  0  0  0  0
  139.2990   75.5870  222.7020 O   0  0  0  0  0  0  0  0  0  0  0  0
  140.2190   77.6890  222.2840 N   0  0  0  0  0  0  0  0  0  0  0  0
  141.4690   78.4020  222.5250 C   0  0  0  0  0  0  0  0  0  0  0  0
  141.5250   78.9810  223.9320 C   0  0  0  0  0  0  0  0  0  0  0  0
  142.3730   80.2440  223.8290 C   0  0  0  0  0  0  0  0  0  0  0  0
  142.4880   80.5830  222.3430 C   0  0  0  0  0  0  0  0  0  0  0  0
  141.5890   79.6030  221.6050 C   0  0  0  0  0  0  0  0  0  0  0  0
  142.5746   78.6665  219.4553 H   0  0  0  0  0  0  0  0  0  0  0  0
  143.4265   78.1665  217.9550 H   0  0  0  0  0  0  0  0  0  0  0  0
  141.6394   78.3484  217.9550 H   0  0  0  0  0  0  0  0  0  0  0  0
  142.3085   75.9787  218.0306 H   0  0  0  0  0  0  0  0  0  0  0  0
  143.4137   76.1527  220.8030 H   0  0  0  0  0  0  0  0  0  0  0  0
  143.8043   75.0331  219.4537 H   0  0  0  0  0  0  0  0  0  0  0  0
  144.4635   76.7041  219.4537 H   0  0  0  0  0  0  0  0  0  0  0  0
  140.4762   77.2079  219.7801 H   0  0  0  0  0  0  0  0  0  0  0  0
  140.5407   75.4984  219.0297 H   0  0  0  0  0  0  0  0  0  0  0  0
  142.0760   75.7241  221.4582 H   0  0  0  0  0  0  0  0  0  0  0  0
  139.8380   73.7830  220.8800 H   0  0  0  0  0  0  0  0  0  0  0  0
  141.7569   71.4424  219.7659 H   0  0  0  0  0  0  0  0  0  0  0  0
  142.2489   71.1423  221.4635 H   0  0  0  0  0  0  0  0  0  0  0  0
  138.7630   73.7280  222.8160 H   0  0  0  0  0  0  0  0  0  0  0  0
  138.9427   69.3005  222.8938 H   0  0  0  0  0  0  0  0  0  0  0  0
  139.2654   68.1789  225.1030 H   0  0  0  0  0  0  0  0  0  0  0  0
  140.0281   68.2955  227.4543 H   0  0  0  0  0  0  0  0  0  0  0  0
  141.0236   69.6192  229.3232 H   0  0  0  0  0  0  0  0  0  0  0  0
  141.6660   72.0050  228.9695 H   0  0  0  0  0  0  0  0  0  0  0  0
  141.3131   73.0829  226.7439 H   0  0  0  0  0  0  0  0  0  0  0  0
  142.2686   77.6648  222.3601 H   0  0  0  0  0  0  0  0  0  0  0  0
  140.5128   79.2272  224.2853 H   0  0  0  0  0  0  0  0  0  0  0  0
  141.9529   78.2637  224.6478 H   0  0  0  0  0  0  0  0  0  0  0  0
  141.8876   81.0704  224.3688 H   0  0  0  0  0  0  0  0  0  0  0  0
  143.3664   80.0881  224.2748 H   0  0  0  0  0  0  0  0  0  0  0  0
  142.1541   81.6153  222.1619 H   0  0  0  0  0  0  0  0  0  0  0  0
  143.5293   80.5053  221.9970 H   0  0  0  0  0  0  0  0  0  0  0  0
  140.6003   80.0491  221.4222 H   0  0  0  0  0  0  0  0  0  0  0  0
  141.9999   79.3284  220.6222 H   0  0  0  0  0  0  0  0  0  0  0  0
  1  2  1  0
  2  3  1  0
  2  4  1  0
  4  5  1  0
  5  6  1  0
  6  7  1  0
  7  8  2  0
  7  9  1  0
  9 10  1  0
 10 11  2  0
 11 12  1  0
 11 13  1  0
 13 14  2  0
 14 15  1  0
 15 16  2  0
 16 17  1  0
 17 18  2  0
 18 19  1  0
 19 20  2  0
 20 21  1  0
 21 22  2  0
  5 23  1  0
 23 24  2  0
 23 25  1  0
 25 26  1  0
 26 27  1  0
 27 28  1  0
 28 29  1  0
 29 30  1  0
 22 13  1  0
 30 26  1  0
 21 16  1  0
  1 31  1  0
  1 32  1  0
  1 33  1  0
  2 34  1  0
  3 35  1  0
  3 36  1  0
  3 37  1  0
  4 38  1  0
  4 39  1  0
  5 40  1  1
  6 41  1  0
  9 42  1  0
  9 43  1  0
 12 44  1  0
 14 45  1  0
 15 46  1  0
 17 47  1  0
 18 48  1  0
 19 49  1  0
 20 50  1  0
 26 51  1  0
 27 52  1  0
 27 53  1  0
 28 54  1  0
 28 55  1  0
 29 56  1  0
 29 57  1  0
 30 58  1  0
 30 59  1  0
M  CHG  1  25  -1
M  END
>  <meeko>  (13) 
{"free_energy": -7.55, "intermolecular_energy": -10.83, "internal_energy": -3.86, "cluster_size": 16, "cluster_id": 1, "rank_in_cluster": 10}

$$$$

     RDKit          3D

 59 61  0  0  0  0  0  0  0  0999 V2000
  143.3260   76.3130  218.4750 C   0  0  0  0  0  0  0  0  0  0  0  0
  142.4480   77.1510  219.4160 C   0  0  0  0  0  0  0  0  0  0  0  0
  142.1880   78.5440  218.8280 C   0  0  0  0  0  0  0  0  0  0  0  0
  141.1620   76.4150  219.8870 C   0  0  0  0  0  0  0  0  0  0  0  0
  141.1100   75.8650  221.3380 C   0  0  2  0  0  0  0  0  0  0  0  0
  140.9650   74.4050  221.3600 N   0  0  0  0  0  0  0  0  0  0  0  0
  142.0610   73.5230  221.0760 C   0  0  0  0  0  0  0  0  0  0  0  0
  143.2100   73.9880  220.8390 O   0  0  0  0  0  0  0  0  0  0  0  0
  141.8400   72.0460  221.0260 C   0  0  0  0  0  0  0  0  0  0  0  0
  140.4310   71.7670  221.2860 N   0  0  0  0  0  0  0  0  0  0  0  0
  139.7460   72.0480  222.3620 C   0  0  0  0  0  0  0  0  0  0  0  0
  138.8580   73.1200  222.3120 O   0  0  0  0  0  0  0  0  0  0  0  0
  139.8720   71.2960  223.6390 C   0  0  0  0  0  0  0  0  0  0  0  0
  139.5200   69.9360  223.6880 C   0  0  0  0  0  0  0  0  0  0  0  0
  139.6640   69.2210  224.8790 C   0  0  0  0  0  0  0  0  0  0  0  0
  140.1650   69.8600  226.0190 C   0  0  0  0  0  0  0  0  0  0  0  0
  140.3260   69.1730  227.2320 C   0  0  0  0  0  0  0  0  0  0  0  0
  140.8340   69.8420  228.3510 C   0  0  0  0  0  0  0  0  0  0  0  0
  141.1830   71.1950  228.2660 C   0  0  0  0  0  0  0  0  0  0  0  0
  141.0250   71.8860  227.0600 C   0  0  0  0  0  0  0  0  0  0  0  0
  140.5180   71.2240  225.9360 C   0  0  0  0  0  0  0  0  0  0  0  0
  140.3670   71.8920  224.7610 N   0  0  0  0  0  0  0  0  0  0  0  0
  140.0730   76.5620  222.1890 C   0  0  0  0  0  0  0  0  0  0  0  0
  139.1690   75.8770  222.7390 O   0  0  0  0  0  0  0  0  0  0  0  0
  140.0890   77.9850  222.3550 N   0  0  0  0  0  0  0  0  0  0  0  0
  141.0760   78.6880  223.1680 C   0  0  0  0  0  0  0  0  0  0  0  0
  140.5340   80.0090  223.6940 C   0  0  0  0  0  0  0  0  0  0  0  0
  141.7390   80.9360  223.8120 C   0  0  0  0  0  0  0  0  0  0  0  0
  142.8770   80.2890  223.0240 C   0  0  0  0  0  0  0  0  0  0  0  0
  142.2870   79.0670  222.3360 C   0  0  0  0  0  0  0  0  0  0  0  0
  143.9953   75.6742  219.0700 H   0  0  0  0  0  0  0  0  0  0  0  0
  142.6857   75.6826  217.8405 H   0  0  0  0  0  0  0  0  0  0  0  0
  143.9259   76.9820  217.8405 H   0  0  0  0  0  0  0  0  0  0  0  0
  143.0176   77.2999  220.3452 H   0  0  0  0  0  0  0  0  0  0  0  0
  142.0529   79.2676  219.6454 H   0  0  0  0  0  0  0  0  0  0  0  0
  143.0452   78.8463  218.2085 H   0  0  0  0  0  0  0  0  0  0  0  0
  141.2794   78.5168  218.2085 H   0  0  0  0  0  0  0  0  0  0  0  0
  140.3257   77.1212  219.7777 H   0  0  0  0  0  0  0  0  0  0  0  0
  141.1225   75.5141  219.2570 H   0  0  0  0  0  0  0  0  0  0  0  0
  142.0813   76.0973  221.7991 H   0  0  0  0  0  0  0  0  0  0  0  0
  140.0250   73.9760  221.5220 H   0  0  0  0  0  0  0  0  0  0  0  0
  142.1137   71.6657  220.0308 H   0  0  0  0  0  0  0  0  0  0  0  0
  142.4630   71.5512  221.7856 H   0  0  0  0  0  0  0  0  0  0  0  0
  138.8300   73.8140  223.0500 H   0  0  0  0  0  0  0  0  0  0  0  0
  139.1314   69.4353  222.7890 H   0  0  0  0  0  0  0  0  0  0  0  0
  139.3843   68.1580  224.9210 H   0  0  0  0  0  0  0  0  0  0  0  0
  140.0532   68.1097  227.3030 H   0  0  0  0  0  0  0  0  0  0  0  0
  140.9596   69.3026  229.3014 H   0  0  0  0  0  0  0  0  0  0  0  0
  141.5821   71.7156  229.1490 H   0  0  0  0  0  0  0  0  0  0  0  0
  141.2991   72.9493  226.9951 H   0  0  0  0  0  0  0  0  0  0  0  0
  141.3293   78.0008  223.9888 H   0  0  0  0  0  0  0  0  0  0  0  0
  139.7967   80.4268  222.9927 H   0  0  0  0  0  0  0  0  0  0  0  0
  140.0256   79.8813  224.6611 H   0  0  0  0  0  0  0  0  0  0  0  0
  141.4997   81.9229  223.3891 H   0  0  0  0  0  0  0  0  0  0  0  0
  142.0223   81.0806  224.8650 H   0  0  0  0  0  0  0  0  0  0  0  0
  143.2696   80.9935  222.2760 H   0  0  0  0  0  0  0  0  0  0  0  0
  143.7098   80.0091  223.6859 H   0  0  0  0  0  0  0  0  0  0  0  0
  141.9865   79.3115  221.3065 H   0  0  0  0  0  0  0  0  0  0  0  0
  143.0128   78.2433  222.2674 H   0  0  0  0  0  0  0  0  0  0  0  0
  1  2  1  0
  2  3  1  0
  2  4  1  0
  4  5  1  0
  5  6  1  0
  6  7  1  0
  7  8  2  0
  7  9  1  0
  9 10  1  0
 10 11  2  0
 11 12  1  0
 11 13  1  0
 13 14  2  0
 14 15  1  0
 15 16  2  0
 16 17  1  0
 17 18  2  0
 18 19  1  0
 19 20  2  0
 20 21  1  0
 21 22  2  0
  5 23  1  0
 23 24  2  0
 23 25  1  0
 25 26  1  0
 26 27  1  0
 27 28  1  0
 28 29  1  0
 29 30  1  0
 22 13  1  0
 30 26  1  0
 21 16  1  0
  1 31  1  0
  1 32  1  0
  1 33  1  0
  2 34  1  0
  3 35  1  0
  3 36  1  0
  3 37  1  0
  4 38  1  0
  4 39  1  0
  5 40  1  1
  6 41  1  0
  9 42  1  0
  9 43  1  0
 12 44  1  0
 14 45  1  0
 15 46  1  0
 17 47  1  0
 18 48  1  0
 19 49  1  0
 20 50  1  0
 26 51  1  0
 27 52  1  0
 27 53  1  0
 28 54  1  0
 28 55  1  0
 29 56  1  0
 29 57  1  0
 30 58  1  0
 30 59  1  0
M  CHG  1  25  -1
M  END
>  <meeko>  (14) 
{"free_energy": -7.64, "intermolecular_energy": -10.93, "internal_energy": -3.94, "cluster_size": 16, "cluster_id": 1, "rank_in_cluster": 4}

$$$$

     RDKit          3D

 59 61  0  0  0  0  0  0  0  0999 V2000
  141.7450   78.0710  218.6180 C   0  0  0  0  0  0  0  0  0  0  0  0
  140.9020   77.1120  219.4710 C   0  0  0  0  0  0  0  0  0  0  0  0
  139.9050   76.3360  218.6020 C   0  0  0  0  0  0  0  0  0  0  0  0
  141.7490   76.2120  220.4150 C   0  0  0  0  0  0  0  0  0  0  0  0
  141.0700   75.6070  221.6730 C   0  0  2  0  0  0  0  0  0  0  0  0
  140.7070   74.2000  221.4700 N   0  0  0  0  0  0  0  0  0  0  0  0
  141.6890   73.1880  221.2000 C   0  0  0  0  0  0  0  0  0  0  0  0
  142.9160   73.4800  221.1740 O   0  0  0  0  0  0  0  0  0  0  0  0
  141.2590   71.7860  220.9140 C   0  0  0  0  0  0  0  0  0  0  0  0
  139.8370   71.6530  221.2150 N   0  0  0  0  0  0  0  0  0  0  0  0
  139.2250   71.9560  222.3270 C   0  0  0  0  0  0  0  0  0  0  0  0
  138.3150   73.0120  222.3080 O   0  0  0  0  0  0  0  0  0  0  0  0
  139.4530   71.2460  223.6150 C   0  0  0  0  0  0  0  0  0  0  0  0
  139.0590   69.9030  223.7520 C   0  0  0  0  0  0  0  0  0  0  0  0
  139.2990   69.2270  224.9500 C   0  0  0  0  0  0  0  0  0  0  0  0
  139.9350   69.8870  226.0080 C   0  0  0  0  0  0  0  0  0  0  0  0
  140.1940   69.2370  227.2250 C   0  0  0  0  0  0  0  0  0  0  0  0
  140.8360   69.9260  228.2610 C   0  0  0  0  0  0  0  0  0  0  0  0
  141.2220   71.2600  228.0870 C   0  0  0  0  0  0  0  0  0  0  0  0
  140.9680   71.9130  226.8760 C   0  0  0  0  0  0  0  0  0  0  0  0
  140.3260   71.2310  225.8360 C   0  0  0  0  0  0  0  0  0  0  0  0
  140.0790   71.8630  224.6560 N   0  0  0  0  0  0  0  0  0  0  0  0
  139.9080   76.4380  222.1650 C   0  0  0  0  0  0  0  0  0  0  0  0
  138.7360   75.9880  222.0440 O   0  0  0  0  0  0  0  0  0  0  0  0
  140.1160   77.7340  222.7390 N   0  0  0  0  0  0  0  0  0  0  0  0
  141.3110   78.5360  222.4990 C   0  0  0  0  0  0  0  0  0  0  0  0
  141.8520   79.1420  223.7870 C   0  0  0  0  0  0  0  0  0  0  0  0
  142.5080   80.4580  223.3840 C   0  0  0  0  0  0  0  0  0  0  0  0
  142.0310   80.7790  221.9680 C   0  0  0  0  0  0  0  0  0  0  0  0
  140.9920   79.7260  221.6130 C   0  0  0  0  0  0  0  0  0  0  0  0
  142.3266   78.7327  219.2767 H   0  0  0  0  0  0  0  0  0  0  0  0
  142.4307   77.4907  217.9831 H   0  0  0  0  0  0  0  0  0  0  0  0
  141.0815   78.6766  217.9831 H   0  0  0  0  0  0  0  0  0  0  0  0
  140.3078   77.7287  220.1613 H   0  0  0  0  0  0  0  0  0  0  0  0
  139.2028   75.7895  219.2487 H   0  0  0  0  0  0  0  0  0  0  0  0
  139.3468   77.0397  217.9670 H   0  0  0  0  0  0  0  0  0  0  0  0
  140.4502   75.6222  217.9670 H   0  0  0  0  0  0  0  0  0  0  0  0
  142.1223   75.3710  219.8122 H   0  0  0  0  0  0  0  0  0  0  0  0
  142.5100   76.8935  220.8230 H   0  0  0  0  0  0  0  0  0  0  0  0
  141.8186   75.6319  222.4786 H   0  0  0  0  0  0  0  0  0  0  0  0
  139.7000   73.9170  221.4530 H   0  0  0  0  0  0  0  0  0  0  0  0
  141.4342   71.5560  219.8527 H   0  0  0  0  0  0  0  0  0  0  0  0
  141.8369   71.0864  221.5358 H   0  0  0  0  0  0  0  0  0  0  0  0
  138.5460   73.9110  222.7140 H   0  0  0  0  0  0  0  0  0  0  0  0
  138.5629   69.3862  222.9173 H   0  0  0  0  0  0  0  0  0  0  0  0
  138.9888   68.1776  225.0622 H   0  0  0  0  0  0  0  0  0  0  0  0
  139.8931   68.1882  227.3644 H   0  0  0  0  0  0  0  0  0  0  0  0
  141.0377   69.4171  229.2151 H   0  0  0  0  0  0  0  0  0  0  0  0
  141.7263   71.7963  228.9043 H   0  0  0  0  0  0  0  0  0  0  0  0
  141.2726   72.9614  226.7414 H   0  0  0  0  0  0  0  0  0  0  0  0
  142.0393   77.8525  222.0381 H   0  0  0  0  0  0  0  0  0  0  0  0
  141.0328   79.3244  224.4980 H   0  0  0  0  0  0  0  0  0  0  0  0
  142.5670   78.4684  224.2820 H   0  0  0  0  0  0  0  0  0  0  0  0
  142.2053   81.2584  224.0752 H   0  0  0  0  0  0  0  0  0  0  0  0
  143.6045   80.3777  223.4204 H   0  0  0  0  0  0  0  0  0  0  0  0
  141.5812   81.7823  221.9369 H   0  0  0  0  0  0  0  0  0  0  0  0
  142.8680   80.7684  221.2543 H   0  0  0  0  0  0  0  0  0  0  0  0
  139.9782   80.0997  221.8196 H   0  0  0  0  0  0  0  0  0  0  0  0
  141.0222   79.4629  220.5454 H   0  0  0  0  0  0  0  0  0  0  0  0
  1  2  1  0
  2  3  1  0
  2  4  1  0
  4  5  1  0
  5  6  1  0
  6  7  1  0
  7  8  2  0
  7  9  1  0
  9 10  1  0
 10 11  2  0
 11 12  1  0
 11 13  1  0
 13 14  2  0
 14 15  1  0
 15 16  2  0
 16 17  1  0
 17 18  2  0
 18 19  1  0
 19 20  2  0
 20 21  1  0
 21 22  2  0
  5 23  1  0
 23 24  2  0
 23 25  1  0
 25 26  1  0
 26 27  1  0
 27 28  1  0
 28 29  1  0
 29 30  1  0
 22 13  1  0
 30 26  1  0
 21 16  1  0
  1 31  1  0
  1 32  1  0
  1 33  1  0
  2 34  1  0
  3 35  1  0
  3 36  1  0
  3 37  1  0
  4 38  1  0
  4 39  1  0
  5 40  1  1
  6 41  1  0
  9 42  1  0
  9 43  1  0
 12 44  1  0
 14 45  1  0
 15 46  1  0
 17 47  1  0
 18 48  1  0
 19 49  1  0
 20 50  1  0
 26 51  1  0
 27 52  1  0
 27 53  1  0
 28 54  1  0
 28 55  1  0
 29 56  1  0
 29 57  1  0
 30 58  1  0
 30 59  1  0
M  CHG  1  25  -1
M  END
>  <meeko>  (15) 
{"free_energy": -6.71, "intermolecular_energy": -9.99, "internal_energy": -4.01, "cluster_size": 16, "cluster_id": 1, "rank_in_cluster": 16}

$$$$

     RDKit          3D

 59 61  0  0  0  0  0  0  0  0999 V2000
  142.1890   78.3500  218.9690 C   0  0  0  0  0  0  0  0  0  0  0  0
  142.3070   76.8200  219.0050 C   0  0  0  0  0  0  0  0  0  0  0  0
  143.6260   76.3860  219.6540 C   0  0  0  0  0  0  0  0  0  0  0  0
  141.0520   76.1140  219.5940 C   0  0  0  0  0  0  0  0  0  0  0  0
  141.1030   75.6060  221.0590 C   0  0  2  0  0  0  0  0  0  0  0  0
  140.8700   74.1590  221.1410 N   0  0  0  0  0  0  0  0  0  0  0  0
  141.9160   73.2020  220.9180 C   0  0  0  0  0  0  0  0  0  0  0  0
  143.0950   73.5860  220.6850 O   0  0  0  0  0  0  0  0  0  0  0  0
  141.6060   71.7400  220.9260 C   0  0  0  0  0  0  0  0  0  0  0  0
  140.1950   71.5540  221.2530 N   0  0  0  0  0  0  0  0  0  0  0  0
  139.5780   71.8950  222.3510 C   0  0  0  0  0  0  0  0  0  0  0  0
  138.7380   73.0070  222.3140 O   0  0  0  0  0  0  0  0  0  0  0  0
  139.7310   71.1700  223.6420 C   0  0  0  0  0  0  0  0  0  0  0  0
  139.3800   69.8120  223.7280 C   0  0  0  0  0  0  0  0  0  0  0  0
  139.5490   69.1240  224.9310 C   0  0  0  0  0  0  0  0  0  0  0  0
  140.0750   69.7870  226.0460 C   0  0  0  0  0  0  0  0  0  0  0  0
  140.2620   69.1260  227.2690 C   0  0  0  0  0  0  0  0  0  0  0  0
  140.7940   69.8190  228.3630 C   0  0  0  0  0  0  0  0  0  0  0  0
  141.1410   71.1700  228.2400 C   0  0  0  0  0  0  0  0  0  0  0  0
  140.9580   71.8350  227.0230 C   0  0  0  0  0  0  0  0  0  0  0  0
  140.4270   71.1490  225.9250 C   0  0  0  0  0  0  0  0  0  0  0  0
  140.2500   71.7910  224.7390 N   0  0  0  0  0  0  0  0  0  0  0  0
  140.1980   76.3900  221.9810 C   0  0  0  0  0  0  0  0  0  0  0  0
  139.3860   75.7700  222.7190 O   0  0  0  0  0  0  0  0  0  0  0  0
  140.2310   77.8220  222.0060 N   0  0  0  0  0  0  0  0  0  0  0  0
  140.9850   78.5910  222.9920 C   0  0  0  0  0  0  0  0  0  0  0  0
  140.2370   79.8450  223.4200 C   0  0  0  0  0  0  0  0  0  0  0  0
  141.3100   80.8730  223.7640 C   0  0  0  0  0  0  0  0  0  0  0  0
  142.6270   80.3490  223.1920 C   0  0  0  0  0  0  0  0  0  0  0  0
  142.2870   79.0970  222.3990 C   0  0  0  0  0  0  0  0  0  0  0  0
  142.1589   78.7397  219.9972 H   0  0  0  0  0  0  0  0  0  0  0  0
  143.0572   78.7724  218.4420 H   0  0  0  0  0  0  0  0  0  0  0  0
  141.2663   78.6343  218.4420 H   0  0  0  0  0  0  0  0  0  0  0  0
  142.3378   76.4719  217.9620 H   0  0  0  0  0  0  0  0  0  0  0  0
  143.5244   76.4194  220.7488 H   0  0  0  0  0  0  0  0  0  0  0  0
  143.8694   75.3604  219.3395 H   0  0  0  0  0  0  0  0  0  0  0  0
  144.4308   77.0667  219.3395 H   0  0  0  0  0  0  0  0  0  0  0  0
  140.2177   76.8277  219.5275 H   0  0  0  0  0  0  0  0  0  0  0  0
  140.9560   75.1959  218.9957 H   0  0  0  0  0  0  0  0  0  0  0  0
  142.1265   75.7866  221.4194 H   0  0  0  0  0  0  0  0  0  0  0  0
  139.9030   73.7950  221.3020 H   0  0  0  0  0  0  0  0  0  0  0  0
  141.8137   71.3137  219.9334 H   0  0  0  0  0  0  0  0  0  0  0  0
  142.2308   71.2321  221.6754 H   0  0  0  0  0  0  0  0  0  0  0  0
  138.7850   73.7240  223.0270 H   0  0  0  0  0  0  0  0  0  0  0  0
  138.9726   69.2917  222.8486 H   0  0  0  0  0  0  0  0  0  0  0  0
  139.2692   68.0626  225.0026 H   0  0  0  0  0  0  0  0  0  0  0  0
  139.9910   68.0645  227.3684 H   0  0  0  0  0  0  0  0  0  0  0  0
  140.9399   69.3006  229.3222 H   0  0  0  0  0  0  0  0  0  0  0  0
  141.5586   71.7098  229.1027 H   0  0  0  0  0  0  0  0  0  0  0  0
  141.2313   72.8964  226.9292 H   0  0  0  0  0  0  0  0  0  0  0  0
  141.1471   77.9093  223.8399 H   0  0  0  0  0  0  0  0  0  0  0  0
  139.6041   80.2124  222.5987 H   0  0  0  0  0  0  0  0  0  0  0  0
  139.5754   79.6488  224.2766 H   0  0  0  0  0  0  0  0  0  0  0  0
  141.0615   81.8447  223.3123 H   0  0  0  0  0  0  0  0  0  0  0  0
  141.3830   81.0167  224.8521 H   0  0  0  0  0  0  0  0  0  0  0  0
  143.0821   81.1036  222.5337 H   0  0  0  0  0  0  0  0  0  0  0  0
  143.3481   80.1284  223.9928 H   0  0  0  0  0  0  0  0  0  0  0  0
  142.1574   79.3386  221.3337 H   0  0  0  0  0  0  0  0  0  0  0  0
  143.0860   78.3433  222.4586 H   0  0  0  0  0  0  0  0  0  0  0  0
  1  2  1  0
  2  3  1  0
  2  4  1  0
  4  5  1  0
  5  6  1  0
  6  7  1  0
  7  8  2  0
  7  9  1  0
  9 10  1  0
 10 11  2  0
 11 12  1  0
 11 13  1  0
 13 14  2  0
 14 15  1  0
 15 16  2  0
 16 17  1  0
 17 18  2  0
 18 19  1  0
 19 20  2  0
 20 21  1  0
 21 22  2  0
  5 23  1  0
 23 24  2  0
 23 25  1  0
 25 26  1  0
 26 27  1  0
 27 28  1  0
 28 29  1  0
 29 30  1  0
 22 13  1  0
 30 26  1  0
 21 16  1  0
  1 31  1  0
  1 32  1  0
  1 33  1  0
  2 34  1  0
  3 35  1  0
  3 36  1  0
  3 37  1  0
  4 38  1  0
  4 39  1  0
  5 40  1  1
  6 41  1  0
  9 42  1  0
  9 43  1  0
 12 44  1  0
 14 45  1  0
 15 46  1  0
 17 47  1  0
 18 48  1  0
 19 49  1  0
 20 50  1  0
 26 51  1  0
 27 52  1  0
 27 53  1  0
 28 54  1  0
 28 55  1  0
 29 56  1  0
 29 57  1  0
 30 58  1  0
 30 59  1  0
M  CHG  1  25  -1
M  END
>  <meeko>  (16) 
{"free_energy": -7.51, "intermolecular_energy": -10.79, "internal_energy": -3.94, "cluster_size": 16, "cluster_id": 1, "rank_in_cluster": 12}

$$$$

     RDKit          3D

 59 61  0  0  0  0  0  0  0  0999 V2000
  134.6110   76.2110  225.0070 C   0  0  0  0  0  0  0  0  0  0  0  0
  135.6600   75.4340  224.1980 C   0  0  0  0  0  0  0  0  0  0  0  0
  135.3680   73.9290  224.2220 C   0  0  0  0  0  0  0  0  0  0  0  0
  135.8950   76.0090  222.7720 C   0  0  0  0  0  0  0  0  0  0  0  0
  137.2370   75.6980  222.0570 C   0  0  2  0  0  0  0  0  0  0  0  0
  137.5550   74.2660  222.0970 N   0  0  0  0  0  0  0  0  0  0  0  0
  136.7820   73.2910  221.3810 C   0  0  0  0  0  0  0  0  0  0  0  0
  135.8200   73.6500  220.6490 O   0  0  0  0  0  0  0  0  0  0  0  0
  137.0940   71.8360  221.5260 C   0  0  0  0  0  0  0  0  0  0  0  0
  138.5380   71.6700  221.6650 N   0  0  0  0  0  0  0  0  0  0  0  0
  139.2780   71.9560  222.7010 C   0  0  0  0  0  0  0  0  0  0  0  0
  139.9570   73.1730  222.7070 O   0  0  0  0  0  0  0  0  0  0  0  0
  139.4470   71.0500  223.8700 C   0  0  0  0  0  0  0  0  0  0  0  0
  139.0120   69.7150  223.7890 C   0  0  0  0  0  0  0  0  0  0  0  0
  139.1950   68.8560  224.8740 C   0  0  0  0  0  0  0  0  0  0  0  0
  139.8160   69.3260  226.0380 C   0  0  0  0  0  0  0  0  0  0  0  0
  140.0190   68.4900  227.1470 C   0  0  0  0  0  0  0  0  0  0  0  0
  140.6470   68.9910  228.2930 C   0  0  0  0  0  0  0  0  0  0  0  0
  141.0750   70.3230  228.3360 C   0  0  0  0  0  0  0  0  0  0  0  0
  140.8760   71.1620  227.2340 C   0  0  0  0  0  0  0  0  0  0  0  0
  140.2490   70.6680  226.0850 C   0  0  0  0  0  0  0  0  0  0  0  0
  140.0570   71.4800  225.0100 N   0  0  0  0  0  0  0  0  0  0  0  0
  138.3760   76.5560  222.5560 C   0  0  0  0  0  0  0  0  0  0  0  0
  139.4680   76.0080  222.8670 O   0  0  0  0  0  0  0  0  0  0  0  0
  138.2240   77.9730  222.7040 N   0  0  0  0  0  0  0  0  0  0  0  0
  139.3110   78.9240  222.4950 C   0  0  0  0  0  0  0  0  0  0  0  0
  140.4840   78.2870  221.7630 C   0  0  0  0  0  0  0  0  0  0  0  0
  141.7300   79.0090  222.2640 C   0  0  0  0  0  0  0  0  0  0  0  0
  141.3230   79.7790  223.5200 C   0  0  0  0  0  0  0  0  0  0  0  0
  139.8850   79.3860  223.8220 C   0  0  0  0  0  0  0  0  0  0  0  0
  134.7995   76.0713  226.0817 H   0  0  0  0  0  0  0  0  0  0  0  0
  134.6756   77.2808  224.7594 H   0  0  0  0  0  0  0  0  0  0  0  0
  133.6065   75.8374  224.7594 H   0  0  0  0  0  0  0  0  0  0  0  0
  136.6285   75.5761  224.6999 H   0  0  0  0  0  0  0  0  0  0  0  0
  135.3013   73.5850  225.2647 H   0  0  0  0  0  0  0  0  0  0  0  0
  134.4149   73.7322  223.7093 H   0  0  0  0  0  0  0  0  0  0  0  0
  136.1783   73.3900  223.7093 H   0  0  0  0  0  0  0  0  0  0  0  0
  135.0889   75.6238  222.1303 H   0  0  0  0  0  0  0  0  0  0  0  0
  135.9178   77.0984  222.9227 H   0  0  0  0  0  0  0  0  0  0  0  0
  137.1000   75.9664  220.9991 H   0  0  0  0  0  0  0  0  0  0  0  0
  138.3250   73.9190  222.7150 H   0  0  0  0  0  0  0  0  0  0  0  0
  136.5896   71.4380  222.4189 H   0  0  0  0  0  0  0  0  0  0  0  0
  136.7414   71.2905  220.6383 H   0  0  0  0  0  0  0  0  0  0  0  0
  139.5910   73.9760  223.2030 H   0  0  0  0  0  0  0  0  0  0  0  0
  138.5281   69.3482  222.8718 H   0  0  0  0  0  0  0  0  0  0  0  0
  138.8523   67.8124  224.8149 H   0  0  0  0  0  0  0  0  0  0  0  0
  139.6849   67.4424  227.1155 H   0  0  0  0  0  0  0  0  0  0  0  0
  140.8047   68.3360  229.1626 H   0  0  0  0  0  0  0  0  0  0  0  0
  141.5692   70.7113  229.2387 H   0  0  0  0  0  0  0  0  0  0  0  0
  141.2122   72.2087  227.2710 H   0  0  0  0  0  0  0  0  0  0  0  0
  138.8749   79.7510  221.9154 H   0  0  0  0  0  0  0  0  0  0  0  0
  140.5436   77.2137  221.9965 H   0  0  0  0  0  0  0  0  0  0  0  0
  140.3763   78.3764  220.6719 H   0  0  0  0  0  0  0  0  0  0  0  0
  142.5177   78.2803  222.5058 H   0  0  0  0  0  0  0  0  0  0  0  0
  142.1257   79.6899  221.4960 H   0  0  0  0  0  0  0  0  0  0  0  0
  141.9763   79.5053  224.3616 H   0  0  0  0  0  0  0  0  0  0  0  0
  141.4145   80.8645  223.3676 H   0  0  0  0  0  0  0  0  0  0  0  0
  139.8549   78.5708  224.5599 H   0  0  0  0  0  0  0  0  0  0  0  0
  139.3116   80.2220  224.2490 H   0  0  0  0  0  0  0  0  0  0  0  0
  1  2  1  0
  2  3  1  0
  2  4  1  0
  4  5  1  0
  5  6  1  0
  6  7  1  0
  7  8  2  0
  7  9  1  0
  9 10  1  0
 10 11  2  0
 11 12  1  0
 11 13  1  0
 13 14  2  0
 14 15  1  0
 15 16  2  0
 16 17  1  0
 17 18  2  0
 18 19  1  0
 19 20  2  0
 20 21  1  0
 21 22  2  0
  5 23  1  0
 23 24  2  0
 23 25  1  0
 25 26  1  0
 26 27  1  0
 27 28  1  0
 28 29  1  0
 29 30  1  0
 22 13  1  0
 30 26  1  0
 21 16  1  0
  1 31  1  0
  1 32  1  0
  1 33  1  0
  2 34  1  0
  3 35  1  0
  3 36  1  0
  3 37  1  0
  4 38  1  0
  4 39  1  0
  5 40  1  6
  6 41  1  0
  9 42  1  0
  9 43  1  0
 12 44  1  0
 14 45  1  0
 15 46  1  0
 17 47  1  0
 18 48  1  0
 19 49  1  0
 20 50  1  0
 26 51  1  0
 27 52  1  0
 27 53  1  0
 28 54  1  0
 28 55  1  0
 29 56  1  0
 29 57  1  0
 30 58  1  0
 30 59  1  0
M  CHG  1  25  -1
M  END
>  <meeko>  (17) 
{"free_energy": -7.24, "intermolecular_energy": -10.53, "internal_energy": -3.39, "cluster_size": 2, "cluster_id": 2, "rank_in_cluster": 1}

$$$$

     RDKit          3D

 59 61  0  0  0  0  0  0  0  0999 V2000
  143.7770   76.0000  219.7100 C   0  0  0  0  0  0  0  0  0  0  0  0
  142.5220   76.8710  219.5540 C   0  0  0  0  0  0  0  0  0  0  0  0
  142.5040   77.5690  218.1890 C   0  0  0  0  0  0  0  0  0  0  0  0
  141.2020   76.1250  219.9000 C   0  0  0  0  0  0  0  0  0  0  0  0
  141.0450   75.5060  221.3140 C   0  0  2  0  0  0  0  0  0  0  0  0
  140.7430   74.0720  221.2490 N   0  0  0  0  0  0  0  0  0  0  0  0
  141.7590   73.0870  221.0050 C   0  0  0  0  0  0  0  0  0  0  0  0
  142.9660   73.4310  220.8830 O   0  0  0  0  0  0  0  0  0  0  0  0
  141.3840   71.6470  220.8610 C   0  0  0  0  0  0  0  0  0  0  0  0
  139.9850   71.4780  221.2400 N   0  0  0  0  0  0  0  0  0  0  0  0
  139.4140   71.8240  222.3620 C   0  0  0  0  0  0  0  0  0  0  0  0
  138.5280   72.9000  222.3420 O   0  0  0  0  0  0  0  0  0  0  0  0
  139.6660   71.1410  223.6600 C   0  0  0  0  0  0  0  0  0  0  0  0
  139.3580   69.7780  223.8040 C   0  0  0  0  0  0  0  0  0  0  0  0
  139.6190   69.1290  225.0120 C   0  0  0  0  0  0  0  0  0  0  0  0
  140.1940   69.8380  226.0740 C   0  0  0  0  0  0  0  0  0  0  0  0
  140.4730   69.2180  227.3020 C   0  0  0  0  0  0  0  0  0  0  0  0
  141.0510   69.9550  228.3410 C   0  0  0  0  0  0  0  0  0  0  0  0
  141.3530   71.3100  228.1600 C   0  0  0  0  0  0  0  0  0  0  0  0
  141.0780   71.9350  226.9390 C   0  0  0  0  0  0  0  0  0  0  0  0
  140.5000   71.2040  225.8950 C   0  0  0  0  0  0  0  0  0  0  0  0
  140.2330   71.8070  224.7050 N   0  0  0  0  0  0  0  0  0  0  0  0
  140.0640   76.2650  222.1780 C   0  0  0  0  0  0  0  0  0  0  0  0
  139.1260   75.6360  222.7390 O   0  0  0  0  0  0  0  0  0  0  0  0
  140.1690   77.6840  222.3440 N   0  0  0  0  0  0  0  0  0  0  0  0
  141.4350   78.3750  222.5640 C   0  0  0  0  0  0  0  0  0  0  0  0
  141.5150   78.9740  223.9620 C   0  0  0  0  0  0  0  0  0  0  0  0
  142.3880   80.2180  223.8320 C   0  0  0  0  0  0  0  0  0  0  0  0
  142.4970   80.5320  222.3400 C   0  0  0  0  0  0  0  0  0  0  0  0
  141.5720   79.5590  221.6250 C   0  0  0  0  0  0  0  0  0  0  0  0
  143.9901   75.8521  220.7790 H   0  0  0  0  0  0  0  0  0  0  0  0
  143.6078   75.0241  219.2314 H   0  0  0  0  0  0  0  0  0  0  0  0
  144.6320   76.4998  219.2314 H   0  0  0  0  0  0  0  0  0  0  0  0
  142.5800   77.6646  220.3135 H   0  0  0  0  0  0  0  0  0  0  0  0
  142.4759   78.6589  218.3349 H   0  0  0  0  0  0  0  0  0  0  0  0
  143.4094   77.2976  217.6264 H   0  0  0  0  0  0  0  0  0  0  0  0
  141.6138   77.2513  217.6264 H   0  0  0  0  0  0  0  0  0  0  0  0
  140.3797   76.8436  219.7680 H   0  0  0  0  0  0  0  0  0  0  0  0
  141.2019   75.2555  219.2262 H   0  0  0  0  0  0  0  0  0  0  0  0
  142.0211   75.6051  221.8114 H   0  0  0  0  0  0  0  0  0  0  0  0
  139.7520   73.7430  221.3140 H   0  0  0  0  0  0  0  0  0  0  0  0
  141.5231   71.3328  219.8160 H   0  0  0  0  0  0  0  0  0  0  0  0
  142.0215   71.0310  221.5122 H   0  0  0  0  0  0  0  0  0  0  0  0
  138.5590   73.6180  223.0570 H   0  0  0  0  0  0  0  0  0  0  0  0
  138.9117   69.2228  222.9658 H   0  0  0  0  0  0  0  0  0  0  0  0
  139.3736   68.0632  225.1294 H   0  0  0  0  0  0  0  0  0  0  0  0
  140.2373   68.1534  227.4472 H   0  0  0  0  0  0  0  0  0  0  0  0
  141.2689   69.4684  229.3032 H   0  0  0  0  0  0  0  0  0  0  0  0
  141.8078   71.8848  228.9802 H   0  0  0  0  0  0  0  0  0  0  0  0
  141.3159   72.9999  226.7997 H   0  0  0  0  0  0  0  0  0  0  0  0
  142.2179   77.6190  222.4039 H   0  0  0  0  0  0  0  0  0  0  0  0
  140.5112   79.2463  224.3201 H   0  0  0  0  0  0  0  0  0  0  0  0
  141.9342   78.2591  224.6853 H   0  0  0  0  0  0  0  0  0  0  0  0
  141.9243   81.0624  224.3631 H   0  0  0  0  0  0  0  0  0  0  0  0
  143.3820   80.0484  224.2716 H   0  0  0  0  0  0  0  0  0  0  0  0
  142.1823   81.5680  222.1457 H   0  0  0  0  0  0  0  0  0  0  0  0
  143.5334   80.4282  221.9864 H   0  0  0  0  0  0  0  0  0  0  0  0
  140.5911   80.0224  221.4433 H   0  0  0  0  0  0  0  0  0  0  0  0
  141.9693   79.2608  220.6436 H   0  0  0  0  0  0  0  0  0  0  0  0
  1  2  1  0
  2  3  1  0
  2  4  1  0
  4  5  1  0
  5  6  1  0
  6  7  1  0
  7  8  2  0
  7  9  1  0
  9 10  1  0
 10 11  2  0
 11 12  1  0
 11 13  1  0
 13 14  2  0
 14 15  1  0
 15 16  2  0
 16 17  1  0
 17 18  2  0
 18 19  1  0
 19 20  2  0
 20 21  1  0
 21 22  2  0
  5 23  1  0
 23 24  2  0
 23 25  1  0
 25 26  1  0
 26 27  1  0
 27 28  1  0
 28 29  1  0
 29 30  1  0
 22 13  1  0
 30 26  1  0
 21 16  1  0
  1 31  1  0
  1 32  1  0
  1 33  1  0
  2 34  1  0
  3 35  1  0
  3 36  1  0
  3 37  1  0
  4 38  1  0
  4 39  1  0
  5 40  1  1
  6 41  1  0
  9 42  1  0
  9 43  1  0
 12 44  1  0
 14 45  1  0
 15 46  1  0
 17 47  1  0
 18 48  1  0
 19 49  1  0
 20 50  1  0
 26 51  1  0
 27 52  1  0
 27 53  1  0
 28 54  1  0
 28 55  1  0
 29 56  1  0
 29 57  1  0
 30 58  1  0
 30 59  1  0
M  CHG  1  25  -1
M  END
>  <meeko>  (18) 
{"free_energy": -7.61, "intermolecular_energy": -10.89, "internal_energy": -3.98, "cluster_size": 16, "cluster_id": 1, "rank_in_cluster": 8}

$$$$

     RDKit          3D

 59 61  0  0  0  0  0  0  0  0999 V2000
  143.6940   76.2320  219.3240 C   0  0  0  0  0  0  0  0  0  0  0  0
  142.4890   77.1070  219.6960 C   0  0  0  0  0  0  0  0  0  0  0  0
  142.2580   78.1990  218.6450 C   0  0  0  0  0  0  0  0  0  0  0  0
  141.2130   76.2900  220.0490 C   0  0  0  0  0  0  0  0  0  0  0  0
  141.0690   75.7220  221.4860 C   0  0  2  0  0  0  0  0  0  0  0  0
  140.8510   74.2700  221.4770 N   0  0  0  0  0  0  0  0  0  0  0  0
  141.8870   73.3450  221.1150 C   0  0  0  0  0  0  0  0  0  0  0  0
  143.0450   73.7590  220.8350 O   0  0  0  0  0  0  0  0  0  0  0  0
  141.5890   71.8820  221.0360 C   0  0  0  0  0  0  0  0  0  0  0  0
  140.1660   71.6720  221.2880 N   0  0  0  0  0  0  0  0  0  0  0  0
  139.5020   71.9330  222.3810 C   0  0  0  0  0  0  0  0  0  0  0  0
  138.5510   72.9520  222.3430 O   0  0  0  0  0  0  0  0  0  0  0  0
  139.7110   71.2110  223.6650 C   0  0  0  0  0  0  0  0  0  0  0  0
  139.3700   69.8510  223.7670 C   0  0  0  0  0  0  0  0  0  0  0  0
  139.5920   69.1660  224.9630 C   0  0  0  0  0  0  0  0  0  0  0  0
  140.1590   69.8340  226.0550 C   0  0  0  0  0  0  0  0  0  0  0  0
  140.3990   69.1760  227.2710 C   0  0  0  0  0  0  0  0  0  0  0  0
  140.9710   69.8730  228.3410 C   0  0  0  0  0  0  0  0  0  0  0  0
  141.3060   71.2250  228.2020 C   0  0  0  0  0  0  0  0  0  0  0  0
  141.0700   71.8880  226.9930 C   0  0  0  0  0  0  0  0  0  0  0  0
  140.4980   71.1970  225.9180 C   0  0  0  0  0  0  0  0  0  0  0  0
  140.2700   71.8360  224.7400 N   0  0  0  0  0  0  0  0  0  0  0  0
  140.0300   76.4560  222.3020 C   0  0  0  0  0  0  0  0  0  0  0  0
  139.0390   75.8190  222.7510 O   0  0  0  0  0  0  0  0  0  0  0  0
  140.1420   77.8630  222.5480 N   0  0  0  0  0  0  0  0  0  0  0  0
  141.4150   78.5760  222.5630 C   0  0  0  0  0  0  0  0  0  0  0  0
  141.8000   79.0110  223.9710 C   0  0  0  0  0  0  0  0  0  0  0  0
  142.6030   80.2970  223.8050 C   0  0  0  0  0  0  0  0  0  0  0  0
  142.3670   80.7880  222.3770 C   0  0  0  0  0  0  0  0  0  0  0  0
  141.3190   79.8670  221.7710 C   0  0  0  0  0  0  0  0  0  0  0  0
  144.1852   75.8753  220.2413 H   0  0  0  0  0  0  0  0  0  0  0  0
  143.3524   75.3701  218.7321 H   0  0  0  0  0  0  0  0  0  0  0  0
  144.4079   76.8236  218.7321 H   0  0  0  0  0  0  0  0  0  0  0  0
  142.7382   77.6206  220.6362 H   0  0  0  0  0  0  0  0  0  0  0  0
  142.0556   79.1557  219.1487 H   0  0  0  0  0  0  0  0  0  0  0  0
  143.1550   78.2983  218.0161 H   0  0  0  0  0  0  0  0  0  0  0  0
  141.3976   77.9265  218.0161 H   0  0  0  0  0  0  0  0  0  0  0  0
  140.3483   76.9463  219.8715 H   0  0  0  0  0  0  0  0  0  0  0  0
  141.2825   75.3955  219.4126 H   0  0  0  0  0  0  0  0  0  0  0  0
  142.0291   75.8993  221.9927 H   0  0  0  0  0  0  0  0  0  0  0  0
  139.8990   73.8830  221.6730 H   0  0  0  0  0  0  0  0  0  0  0  0
  141.8453   71.5071  220.0341 H   0  0  0  0  0  0  0  0  0  0  0  0
  142.1831   71.3408  221.7871 H   0  0  0  0  0  0  0  0  0  0  0  0
  138.5860   73.7260  222.9950 H   0  0  0  0  0  0  0  0  0  0  0  0
  138.9290   69.3275  222.9059 H   0  0  0  0  0  0  0  0  0  0  0  0
  139.3218   68.1030  225.0473 H   0  0  0  0  0  0  0  0  0  0  0  0
  140.1377   68.1134  227.3829 H   0  0  0  0  0  0  0  0  0  0  0  0
  141.1580   69.3570  229.2943 H   0  0  0  0  0  0  0  0  0  0  0  0
  141.7563   71.7678  229.0461 H   0  0  0  0  0  0  0  0  0  0  0  0
  141.3335   72.9507  226.8871 H   0  0  0  0  0  0  0  0  0  0  0  0
  142.1517   77.8773  222.1398 H   0  0  0  0  0  0  0  0  0  0  0  0
  140.8990   79.1974  224.5739 H   0  0  0  0  0  0  0  0  0  0  0  0
  142.3823   78.2347  224.4890 H   0  0  0  0  0  0  0  0  0  0  0  0
  142.2594   81.0530  224.5264 H   0  0  0  0  0  0  0  0  0  0  0  0
  143.6730   80.1189  223.9878 H   0  0  0  0  0  0  0  0  0  0  0  0
  142.0009   81.8252  222.3875 H   0  0  0  0  0  0  0  0  0  0  0  0
  143.2981   80.7706  221.7915 H   0  0  0  0  0  0  0  0  0  0  0  0
  140.3156   80.3066  221.8708 H   0  0  0  0  0  0  0  0  0  0  0  0
  141.4890   79.7029  220.6967 H   0  0  0  0  0  0  0  0  0  0  0  0
  1  2  1  0
  2  3  1  0
  2  4  1  0
  4  5  1  0
  5  6  1  0
  6  7  1  0
  7  8  2  0
  7  9  1  0
  9 10  1  0
 10 11  2  0
 11 12  1  0
 11 13  1  0
 13 14  2  0
 14 15  1  0
 15 16  2  0
 16 17  1  0
 17 18  2  0
 18 19  1  0
 19 20  2  0
 20 21  1  0
 21 22  2  0
  5 23  1  0
 23 24  2  0
 23 25  1  0
 25 26  1  0
 26 27  1  0
 27 28  1  0
 28 29  1  0
 29 30  1  0
 22 13  1  0
 30 26  1  0
 21 16  1  0
  1 31  1  0
  1 32  1  0
  1 33  1  0
  2 34  1  0
  3 35  1  0
  3 36  1  0
  3 37  1  0
  4 38  1  0
  4 39  1  0
  5 40  1  1
  6 41  1  0
  9 42  1  0
  9 43  1  0
 12 44  1  0
 14 45  1  0
 15 46  1  0
 17 47  1  0
 18 48  1  0
 19 49  1  0
 20 50  1  0
 26 51  1  0
 27 52  1  0
 27 53  1  0
 28 54  1  0
 28 55  1  0
 29 56  1  0
 29 57  1  0
 30 58  1  0
 30 59  1  0
M  CHG  1  25  -1
M  END
>  <meeko>  (19) 
{"free_energy": -7.62, "intermolecular_energy": -10.91, "internal_energy": -4.02, "cluster_size": 16, "cluster_id": 1, "rank_in_cluster": 6}

$$$$

     RDKit          3D

 59 61  0  0  0  0  0  0  0  0999 V2000
  143.3450   76.3050  218.3930 C   0  0  0  0  0  0  0  0  0  0  0  0
  142.4670   77.1200  219.3540 C   0  0  0  0  0  0  0  0  0  0  0  0
  142.2120   78.5290  218.8050 C   0  0  0  0  0  0  0  0  0  0  0  0
  141.1780   76.3740  219.8030 C   0  0  0  0  0  0  0  0  0  0  0  0
  141.0880   75.8590  221.2640 C   0  0  2  0  0  0  0  0  0  0  0  0
  140.9270   74.4010  221.3170 N   0  0  0  0  0  0  0  0  0  0  0  0
  142.0190   73.5020  221.0760 C   0  0  0  0  0  0  0  0  0  0  0  0
  143.1780   73.9490  220.8540 O   0  0  0  0  0  0  0  0  0  0  0  0
  141.7830   72.0260  221.0550 C   0  0  0  0  0  0  0  0  0  0  0  0
  140.3650   71.7680  221.2920 N   0  0  0  0  0  0  0  0  0  0  0  0
  139.6730   72.0360  222.3650 C   0  0  0  0  0  0  0  0  0  0  0  0
  138.7610   73.0890  222.3110 O   0  0  0  0  0  0  0  0  0  0  0  0
  139.8130   71.2900  223.6450 C   0  0  0  0  0  0  0  0  0  0  0  0
  139.4440   69.9350  223.7080 C   0  0  0  0  0  0  0  0  0  0  0  0
  139.6010   69.2250  224.9010 C   0  0  0  0  0  0  0  0  0  0  0  0
  140.1320   69.8650  226.0280 C   0  0  0  0  0  0  0  0  0  0  0  0
  140.3070   69.1820  227.2410 C   0  0  0  0  0  0  0  0  0  0  0  0
  140.8430   69.8510  228.3470 C   0  0  0  0  0  0  0  0  0  0  0  0
  141.2080   71.1980  228.2460 C   0  0  0  0  0  0  0  0  0  0  0  0
  141.0370   71.8850  227.0400 C   0  0  0  0  0  0  0  0  0  0  0  0
  140.5010   71.2230  225.9290 C   0  0  0  0  0  0  0  0  0  0  0  0
  140.3360   71.8860  224.7530 N   0  0  0  0  0  0  0  0  0  0  0  0
  140.0400   76.5860  222.0750 C   0  0  0  0  0  0  0  0  0  0  0  0
  139.2040   75.9160  222.7400 O   0  0  0  0  0  0  0  0  0  0  0  0
  139.9680   78.0170  222.0770 N   0  0  0  0  0  0  0  0  0  0  0  0
  141.1420   78.8800  222.1650 C   0  0  0  0  0  0  0  0  0  0  0  0
  141.8780   78.6970  223.4850 C   0  0  0  0  0  0  0  0  0  0  0  0
  142.5120   80.0480  223.7990 C   0  0  0  0  0  0  0  0  0  0  0  0
  141.8490   81.0750  222.8810 C   0  0  0  0  0  0  0  0  0  0  0  0
  140.7370   80.3420  222.1440 C   0  0  0  0  0  0  0  0  0  0  0  0
  144.0302   75.6689  218.9725 H   0  0  0  0  0  0  0  0  0  0  0  0
  142.7058   75.6729  217.7591 H   0  0  0  0  0  0  0  0  0  0  0  0
  143.9278   76.9894  217.7591 H   0  0  0  0  0  0  0  0  0  0  0  0
  143.0355   77.2429  220.2877 H   0  0  0  0  0  0  0  0  0  0  0  0
  142.0849   79.2312  219.6421 H   0  0  0  0  0  0  0  0  0  0  0  0
  143.0679   78.8432  218.1895 H   0  0  0  0  0  0  0  0  0  0  0  0
  141.3003   78.5233  218.1895 H   0  0  0  0  0  0  0  0  0  0  0  0
  140.3345   77.0633  219.6497 H   0  0  0  0  0  0  0  0  0  0  0  0
  141.1734   75.4573  219.1950 H   0  0  0  0  0  0  0  0  0  0  0  0
  142.0514   76.0923  221.7410 H   0  0  0  0  0  0  0  0  0  0  0  0
  139.9790   73.9860  221.4680 H   0  0  0  0  0  0  0  0  0  0  0  0
  142.0729   71.6200  220.0746 H   0  0  0  0  0  0  0  0  0  0  0  0
  142.3849   71.5421  221.8383 H   0  0  0  0  0  0  0  0  0  0  0  0
  138.7700   73.8280  223.0050 H   0  0  0  0  0  0  0  0  0  0  0  0
  139.0322   69.4344  222.8193 H   0  0  0  0  0  0  0  0  0  0  0  0
  139.3083   68.1660  224.9550 H   0  0  0  0  0  0  0  0  0  0  0  0
  140.0233   68.1223  227.3225 H   0  0  0  0  0  0  0  0  0  0  0  0
  140.9778   69.3163  229.2988 H   0  0  0  0  0  0  0  0  0  0  0  0
  141.6308   71.7183  229.1181 H   0  0  0  0  0  0  0  0  0  0  0  0
  141.3233   72.9444  226.9644 H   0  0  0  0  0  0  0  0  0  0  0  0
  141.7766   78.6077  221.3088 H   0  0  0  0  0  0  0  0  0  0  0  0
  141.1734   78.4107  224.2798 H   0  0  0  0  0  0  0  0  0  0  0  0
  142.6341   77.9008  223.4195 H   0  0  0  0  0  0  0  0  0  0  0  0
  142.3358   80.3127  224.8520 H   0  0  0  0  0  0  0  0  0  0  0  0
  143.5995   80.0194  223.6364 H   0  0  0  0  0  0  0  0  0  0  0  0
  141.4310   81.9014  223.4746 H   0  0  0  0  0  0  0  0  0  0  0  0
  142.5756   81.5066  222.1769 H   0  0  0  0  0  0  0  0  0  0  0  0
  139.7750   80.4832  222.6584 H   0  0  0  0  0  0  0  0  0  0  0  0
  140.6064   80.7177  221.1184 H   0  0  0  0  0  0  0  0  0  0  0  0
  1  2  1  0
  2  3  1  0
  2  4  1  0
  4  5  1  0
  5  6  1  0
  6  7  1  0
  7  8  2  0
  7  9  1  0
  9 10  1  0
 10 11  2  0
 11 12  1  0
 11 13  1  0
 13 14  2  0
 14 15  1  0
 15 16  2  0
 16 17  1  0
 17 18  2  0
 18 19  1  0
 19 20  2  0
 20 21  1  0
 21 22  2  0
  5 23  1  0
 23 24  2  0
 23 25  1  0
 25 26  1  0
 26 27  1  0
 27 28  1  0
 28 29  1  0
 29 30  1  0
 22 13  1  0
 30 26  1  0
 21 16  1  0
  1 31  1  0
  1 32  1  0
  1 33  1  0
  2 34  1  0
  3 35  1  0
  3 36  1  0
  3 37  1  0
  4 38  1  0
  4 39  1  0
  5 40  1  1
  6 41  1  0
  9 42  1  0
  9 43  1  0
 12 44  1  0
 14 45  1  0
 15 46  1  0
 17 47  1  0
 18 48  1  0
 19 49  1  0
 20 50  1  0
 26 51  1  0
 27 52  1  0
 27 53  1  0
 28 54  1  0
 28 55  1  0
 29 56  1  0
 29 57  1  0
 30 58  1  0
 30 59  1  0
M  CHG  1  25  -1
M  END
>  <meeko>  (20) 
{"free_energy": -7.47, "intermolecular_energy": -10.75, "internal_energy": -3.99, "cluster_size": 16, "cluster_id": 1, "rank_in_cluster": 13}

$$$$
