
     RDKit          3D

 42 44  0  0  0  0  0  0  0  0999 V2000
  139.1810   67.3890  225.1850 N   0  0  0  0  0  0  0  0  0  0  0  0
  139.6000   68.3380  225.6990 C   0  0  0  0  0  0  0  0  0  0  0  0
  140.1230   69.5200  226.3460 C   0  0  0  0  0  0  0  0  0  0  0  0
  140.5820   69.4190  227.6670 C   0  0  0  0  0  0  0  0  0  0  0  0
  141.0940   70.5420  228.3230 C   0  0  0  0  0  0  0  0  0  0  0  0
  141.1530   71.7720  227.6640 C   0  0  0  0  0  0  0  0  0  0  0  0
  140.6990   71.8840  226.3470 C   0  0  0  0  0  0  0  0  0  0  0  0
  140.1750   70.7660  225.6740 C   0  0  0  0  0  0  0  0  0  0  0  0
  139.7260   70.9100  224.2390 C   0  0  0  0  0  0  0  0  0  0  0  0
  138.2670   70.9300  224.1690 N   0  0  0  0  0  0  0  0  0  0  0  0
  137.5130   69.9040  223.5070 C   0  0  0  0  0  0  0  0  0  0  0  0
  138.1060   68.9660  222.9070 O   0  0  0  0  0  0  0  0  0  0  0  0
  136.0150   69.9120  223.5590 C   0  0  0  0  0  0  0  0  0  0  0  0
  135.5290   70.8170  224.5990 N   0  0  0  0  0  0  0  0  0  0  0  0
  135.4270   72.1130  224.5050 C   0  0  0  0  0  0  0  0  0  0  0  0
  136.2150   72.8500  223.6150 O   0  0  0  0  0  0  0  0  0  0  0  0
  134.4530   72.8160  225.3610 C   0  0  0  0  0  0  0  0  0  0  0  0
  133.4410   72.1100  226.0350 C   0  0  0  0  0  0  0  0  0  0  0  0
  132.5320   72.8030  226.8390 C   0  0  0  0  0  0  0  0  0  0  0  0
  132.6340   74.1940  226.9670 C   0  0  0  0  0  0  0  0  0  0  0  0
  131.7380   74.9210  227.7660 C   0  0  0  0  0  0  0  0  0  0  0  0
  131.8660   76.3110  227.8730 C   0  0  0  0  0  0  0  0  0  0  0  0
  132.8890   76.9780  227.1880 C   0  0  0  0  0  0  0  0  0  0  0  0
  133.7870   76.2610  226.3910 C   0  0  0  0  0  0  0  0  0  0  0  0
  133.6640   74.8710  226.2760 C   0  0  0  0  0  0  0  0  0  0  0  0
  134.5340   74.1700  225.5020 N   0  0  0  0  0  0  0  0  0  0  0  0
  140.5390   68.4519  228.1893 H   0  0  0  0  0  0  0  0  0  0  0  0
  141.4510   70.4569  229.3600 H   0  0  0  0  0  0  0  0  0  0  0  0
  141.5574   72.6539  228.1824 H   0  0  0  0  0  0  0  0  0  0  0  0
  140.7520   72.8548  225.8325 H   0  0  0  0  0  0  0  0  0  0  0  0
  140.1229   71.8491  223.8261 H   0  0  0  0  0  0  0  0  0  0  0  0
  140.1027   70.0563  223.6565 H   0  0  0  0  0  0  0  0  0  0  0  0
  137.7590   71.7200  224.6300 H   0  0  0  0  0  0  0  0  0  0  0  0
  135.6235   70.2409  222.5850 H   0  0  0  0  0  0  0  0  0  0  0  0
  135.6682   68.8944  223.7917 H   0  0  0  0  0  0  0  0  0  0  0  0
  136.5980   73.7610  223.8320 H   0  0  0  0  0  0  0  0  0  0  0  0
  133.3651   71.0177  225.9300 H   0  0  0  0  0  0  0  0  0  0  0  0
  131.7382   72.2573  227.3701 H   0  0  0  0  0  0  0  0  0  0  0  0
  130.9356   74.3989  228.3079 H   0  0  0  0  0  0  0  0  0  0  0  0
  131.1612   76.8805  228.4967 H   0  0  0  0  0  0  0  0  0  0  0  0
  132.9867   78.0700  227.2771 H   0  0  0  0  0  0  0  0  0  0  0  0
  134.5895   76.7887  225.8548 H   0  0  0  0  0  0  0  0  0  0  0  0
  1  2  3  0
  2  3  1  0
  3  4  2  0
  4  5  1  0
  5  6  2  0
  6  7  1  0
  7  8  2  0
  8  9  1  0
  9 10  1  0
 10 11  1  0
 11 12  2  0
 11 13  1  0
 13 14  1  0
 14 15  2  0
 15 16  1  0
 15 17  1  0
 17 18  2  0
 18 19  1  0
 19 20  2  0
 20 21  1  0
 21 22  2  0
 22 23  1  0
 23 24  2  0
 24 25  1  0
 25 26  2  0
  8  3  1  0
 26 17  1  0
 25 20  1  0
  4 27  1  0
  5 28  1  0
  6 29  1  0
  7 30  1  0
  9 31  1  0
  9 32  1  0
 10 33  1  0
 13 34  1  0
 13 35  1  0
 16 36  1  0
 18 37  1  0
 19 38  1  0
 21 39  1  0
 22 40  1  0
 23 41  1  0
 24 42  1  0
M  END
>  <meeko>  (1) 
{"free_energy": -7.77, "intermolecular_energy": -10.16, "internal_energy": -2.08, "cluster_size": 3, "cluster_id": 3, "rank_in_cluster": 2}

$$$$

     RDKit          3D

 42 44  0  0  0  0  0  0  0  0999 V2000
  138.0770   80.5640  224.0810 N   0  0  0  0  0  0  0  0  0  0  0  0
  139.1940   80.4320  223.8040 C   0  0  0  0  0  0  0  0  0  0  0  0
  140.5890   80.2660  223.4650 C   0  0  0  0  0  0  0  0  0  0  0  0
  141.5040   81.2440  223.8780 C   0  0  0  0  0  0  0  0  0  0  0  0
  142.8610   81.1150  223.5670 C   0  0  0  0  0  0  0  0  0  0  0  0
  143.3120   80.0080  222.8450 C   0  0  0  0  0  0  0  0  0  0  0  0
  142.4080   79.0260  222.4300 C   0  0  0  0  0  0  0  0  0  0  0  0
  141.0390   79.1430  222.7280 C   0  0  0  0  0  0  0  0  0  0  0  0
  140.0910   78.0490  222.2970 C   0  0  0  0  0  0  0  0  0  0  0  0
  140.8440   76.8700  221.8750 N   0  0  0  0  0  0  0  0  0  0  0  0
  140.3220   75.5390  222.0010 C   0  0  0  0  0  0  0  0  0  0  0  0
  139.2000   75.3440  222.5420 O   0  0  0  0  0  0  0  0  0  0  0  0
  141.0860   74.3710  221.4520 C   0  0  0  0  0  0  0  0  0  0  0  0
  140.9840   73.2130  222.3390 N   0  0  0  0  0  0  0  0  0  0  0  0
  139.8820   72.6320  222.7230 C   0  0  0  0  0  0  0  0  0  0  0  0
  138.6410   72.9770  222.1790 O   0  0  0  0  0  0  0  0  0  0  0  0
  139.9520   71.5830  223.7570 C   0  0  0  0  0  0  0  0  0  0  0  0
  139.5290   70.2690  223.4850 C   0  0  0  0  0  0  0  0  0  0  0  0
  139.6060   69.2970  224.4850 C   0  0  0  0  0  0  0  0  0  0  0  0
  140.1020   69.6350  225.7500 C   0  0  0  0  0  0  0  0  0  0  0  0
  140.1930   68.6830  226.7770 C   0  0  0  0  0  0  0  0  0  0  0  0
  140.6930   69.0540  228.0310 C   0  0  0  0  0  0  0  0  0  0  0  0
  141.1070   70.3710  228.2630 C   0  0  0  0  0  0  0  0  0  0  0  0
  141.0200   71.3250  227.2450 C   0  0  0  0  0  0  0  0  0  0  0  0
  140.5190   70.9640  225.9880 C   0  0  0  0  0  0  0  0  0  0  0  0
  140.4330   71.8890  224.9960 N   0  0  0  0  0  0  0  0  0  0  0  0
  141.1532   82.1163  224.4490 H   0  0  0  0  0  0  0  0  0  0  0  0
  143.5745   81.8867  223.8916 H   0  0  0  0  0  0  0  0  0  0  0  0
  144.3803   79.9087  222.6025 H   0  0  0  0  0  0  0  0  0  0  0  0
  142.7707   78.1543  221.8655 H   0  0  0  0  0  0  0  0  0  0  0  0
  139.4374   77.7808  223.1401 H   0  0  0  0  0  0  0  0  0  0  0  0
  139.4843   78.4098  221.4534 H   0  0  0  0  0  0  0  0  0  0  0  0
  141.7920   77.0090  221.4570 H   0  0  0  0  0  0  0  0  0  0  0  0
  140.6773   74.1056  220.4658 H   0  0  0  0  0  0  0  0  0  0  0  0
  142.1454   74.6545  221.3671 H   0  0  0  0  0  0  0  0  0  0  0  0
  137.9730   73.5750  222.6490 H   0  0  0  0  0  0  0  0  0  0  0  0
  139.1396   70.0085  222.4898 H   0  0  0  0  0  0  0  0  0  0  0  0
  139.2775   68.2676  224.2791 H   0  0  0  0  0  0  0  0  0  0  0  0
  139.8718   67.6464  226.5970 H   0  0  0  0  0  0  0  0  0  0  0  0
  140.7607   68.3081  228.8367 H   0  0  0  0  0  0  0  0  0  0  0  0
  141.5019   70.6560  229.2493 H   0  0  0  0  0  0  0  0  0  0  0  0
  141.3451   72.3592  227.4312 H   0  0  0  0  0  0  0  0  0  0  0  0
  1  2  3  0
  2  3  1  0
  3  4  2  0
  4  5  1  0
  5  6  2  0
  6  7  1  0
  7  8  2  0
  8  9  1  0
  9 10  1  0
 10 11  1  0
 11 12  2  0
 11 13  1  0
 13 14  1  0
 14 15  2  0
 15 16  1  0
 15 17  1  0
 17 18  2  0
 18 19  1  0
 19 20  2  0
 20 21  1  0
 21 22  2  0
 22 23  1  0
 23 24  2  0
 24 25  1  0
 25 26  2  0
  8  3  1  0
 26 17  1  0
 25 20  1  0
  4 27  1  0
  5 28  1  0
  6 29  1  0
  7 30  1  0
  9 31  1  0
  9 32  1  0
 10 33  1  0
 13 34  1  0
 13 35  1  0
 16 36  1  0
 18 37  1  0
 19 38  1  0
 21 39  1  0
 22 40  1  0
 23 41  1  0
 24 42  1  0
M  END
>  <meeko>  (2) 
{"free_energy": -8.84, "intermolecular_energy": -11.22, "internal_energy": -1.09, "cluster_size": 6, "cluster_id": 2, "rank_in_cluster": 1}

$$$$

     RDKit          3D

 42 44  0  0  0  0  0  0  0  0999 V2000
  137.9300   75.8070  222.3750 N   0  0  0  0  0  0  0  0  0  0  0  0
  138.8470   76.5050  222.2590 C   0  0  0  0  0  0  0  0  0  0  0  0
  139.9910   77.3750  222.1090 C   0  0  0  0  0  0  0  0  0  0  0  0
  140.2430   78.3350  223.0980 C   0  0  0  0  0  0  0  0  0  0  0  0
  141.3410   79.1930  222.9850 C   0  0  0  0  0  0  0  0  0  0  0  0
  142.1940   79.0960  221.8830 C   0  0  0  0  0  0  0  0  0  0  0  0
  141.9530   78.1420  220.8910 C   0  0  0  0  0  0  0  0  0  0  0  0
  140.8500   77.2750  220.9870 C   0  0  0  0  0  0  0  0  0  0  0  0
  140.6350   76.2300  219.9170 C   0  0  0  0  0  0  0  0  0  0  0  0
  140.8610   74.8950  220.4650 N   0  0  0  0  0  0  0  0  0  0  0  0
  142.1090   74.2030  220.3160 C   0  0  0  0  0  0  0  0  0  0  0  0
  143.0450   74.7170  219.6440 O   0  0  0  0  0  0  0  0  0  0  0  0
  142.3290   72.8830  220.9910 C   0  0  0  0  0  0  0  0  0  0  0  0
  141.0570   72.2550  221.3460 N   0  0  0  0  0  0  0  0  0  0  0  0
  140.3100   72.5570  222.3700 C   0  0  0  0  0  0  0  0  0  0  0  0
  139.6250   73.7740  222.4480 O   0  0  0  0  0  0  0  0  0  0  0  0
  140.1840   71.5850  223.4720 C   0  0  0  0  0  0  0  0  0  0  0  0
  139.5800   70.3310  223.2660 C   0  0  0  0  0  0  0  0  0  0  0  0
  139.4740   69.4310  224.3290 C   0  0  0  0  0  0  0  0  0  0  0  0
  139.9680   69.7820  225.5920 C   0  0  0  0  0  0  0  0  0  0  0  0
  139.8780   68.9020  226.6810 C   0  0  0  0  0  0  0  0  0  0  0  0
  140.3810   69.2830  227.9310 C   0  0  0  0  0  0  0  0  0  0  0  0
  140.9780   70.5390  228.0960 C   0  0  0  0  0  0  0  0  0  0  0  0
  141.0720   71.4220  227.0160 C   0  0  0  0  0  0  0  0  0  0  0  0
  140.5700   71.0490  225.7630 C   0  0  0  0  0  0  0  0  0  0  0  0
  140.6590   71.9040  224.7100 N   0  0  0  0  0  0  0  0  0  0  0  0
  139.5738   78.4139  223.9674 H   0  0  0  0  0  0  0  0  0  0  0  0
  141.5334   79.9450  223.7644 H   0  0  0  0  0  0  0  0  0  0  0  0
  143.0573   79.7721  221.7960 H   0  0  0  0  0  0  0  0  0  0  0  0
  142.6314   78.0686  220.0282 H   0  0  0  0  0  0  0  0  0  0  0  0
  139.6029   76.2996  219.5430 H   0  0  0  0  0  0  0  0  0  0  0  0
  141.3443   76.4060  219.0949 H   0  0  0  0  0  0  0  0  0  0  0  0
  140.0830   74.4370  220.9940 H   0  0  0  0  0  0  0  0  0  0  0  0
  142.8800   72.2183  220.3094 H   0  0  0  0  0  0  0  0  0  0  0  0
  142.9039   73.0536  221.9132 H   0  0  0  0  0  0  0  0  0  0  0  0
  138.7970   73.9130  223.0130 H   0  0  0  0  0  0  0  0  0  0  0  0
  139.1931   70.0606  222.2724 H   0  0  0  0  0  0  0  0  0  0  0  0
  139.0036   68.4487  224.1747 H   0  0  0  0  0  0  0  0  0  0  0  0
  139.4127   67.9135  226.5529 H   0  0  0  0  0  0  0  0  0  0  0  0
  140.3070   68.5941  228.7854 H   0  0  0  0  0  0  0  0  0  0  0  0
  141.3746   70.8321  229.0793 H   0  0  0  0  0  0  0  0  0  0  0  0
  141.5397   72.4085  227.1504 H   0  0  0  0  0  0  0  0  0  0  0  0
  1  2  3  0
  2  3  1  0
  3  4  2  0
  4  5  1  0
  5  6  2  0
  6  7  1  0
  7  8  2  0
  8  9  1  0
  9 10  1  0
 10 11  1  0
 11 12  2  0
 11 13  1  0
 13 14  1  0
 14 15  2  0
 15 16  1  0
 15 17  1  0
 17 18  2  0
 18 19  1  0
 19 20  2  0
 20 21  1  0
 21 22  2  0
 22 23  1  0
 23 24  2  0
 24 25  1  0
 25 26  2  0
  8  3  1  0
 26 17  1  0
 25 20  1  0
  4 27  1  0
  5 28  1  0
  6 29  1  0
  7 30  1  0
  9 31  1  0
  9 32  1  0
 10 33  1  0
 13 34  1  0
 13 35  1  0
 16 36  1  0
 18 37  1  0
 19 38  1  0
 21 39  1  0
 22 40  1  0
 23 41  1  0
 24 42  1  0
M  END
>  <meeko>  (3) 
{"free_energy": -7.23, "intermolecular_energy": -9.61, "internal_energy": -2.67, "cluster_size": 6, "cluster_id": 2, "rank_in_cluster": 3}

$$$$

     RDKit          3D

 42 44  0  0  0  0  0  0  0  0999 V2000
  139.2030   67.3890  226.0440 N   0  0  0  0  0  0  0  0  0  0  0  0
  139.6670   68.4120  226.3250 C   0  0  0  0  0  0  0  0  0  0  0  0
  140.2420   69.6910  226.6740 C   0  0  0  0  0  0  0  0  0  0  0  0
  140.6920   69.8940  227.9860 C   0  0  0  0  0  0  0  0  0  0  0  0
  141.2520   71.1190  228.3580 C   0  0  0  0  0  0  0  0  0  0  0  0
  141.3700   72.1480  227.4210 C   0  0  0  0  0  0  0  0  0  0  0  0
  140.9260   71.9570  226.1100 C   0  0  0  0  0  0  0  0  0  0  0  0
  140.3530   70.7330  225.7210 C   0  0  0  0  0  0  0  0  0  0  0  0
  139.9150   70.5440  224.2880 C   0  0  0  0  0  0  0  0  0  0  0  0
  138.4940   70.8540  224.1510 N   0  0  0  0  0  0  0  0  0  0  0  0
  137.5020   69.8400  223.9400 C   0  0  0  0  0  0  0  0  0  0  0  0
  137.8440   68.6330  223.8070 O   0  0  0  0  0  0  0  0  0  0  0  0
  136.0450   70.1970  223.9180 C   0  0  0  0  0  0  0  0  0  0  0  0
  135.8010   71.3510  223.0540 N   0  0  0  0  0  0  0  0  0  0  0  0
  136.2180   72.5680  223.2600 C   0  0  0  0  0  0  0  0  0  0  0  0
  137.3600   73.0710  222.6280 O   0  0  0  0  0  0  0  0  0  0  0  0
  135.4620   73.4350  224.1840 C   0  0  0  0  0  0  0  0  0  0  0  0
  135.6990   74.8210  224.2320 C   0  0  0  0  0  0  0  0  0  0  0  0
  134.9680   75.6160  225.1180 C   0  0  0  0  0  0  0  0  0  0  0  0
  134.0070   75.0310  225.9520 C   0  0  0  0  0  0  0  0  0  0  0  0
  133.2550   75.8000  226.8520 C   0  0  0  0  0  0  0  0  0  0  0  0
  132.3020   75.1840  227.6720 C   0  0  0  0  0  0  0  0  0  0  0  0
  132.0930   73.8020  227.5930 C   0  0  0  0  0  0  0  0  0  0  0  0
  132.8380   73.0270  226.6970 C   0  0  0  0  0  0  0  0  0  0  0  0
  133.7950   73.6350  225.8750 C   0  0  0  0  0  0  0  0  0  0  0  0
  134.5210   72.8870  225.0030 N   0  0  0  0  0  0  0  0  0  0  0  0
  140.6039   69.0851  228.7262 H   0  0  0  0  0  0  0  0  0  0  0  0
  141.6003   71.2731  229.3900 H   0  0  0  0  0  0  0  0  0  0  0  0
  141.8133   73.1106  227.7157 H   0  0  0  0  0  0  0  0  0  0  0  0
  141.0254   72.7705  225.3763 H   0  0  0  0  0  0  0  0  0  0  0  0
  140.4975   71.2138  223.6384 H   0  0  0  0  0  0  0  0  0  0  0  0
  140.0844   69.4972  223.9954 H   0  0  0  0  0  0  0  0  0  0  0  0
  138.1950   71.8540  224.2220 H   0  0  0  0  0  0  0  0  0  0  0  0
  135.4699   69.3381  223.5418 H   0  0  0  0  0  0  0  0  0  0  0  0
  135.7315   70.4527  224.9409 H   0  0  0  0  0  0  0  0  0  0  0  0
  138.0260   73.6830  223.0840 H   0  0  0  0  0  0  0  0  0  0  0  0
  136.4555   75.2759  223.5757 H   0  0  0  0  0  0  0  0  0  0  0  0
  135.1470   76.7005  225.1606 H   0  0  0  0  0  0  0  0  0  0  0  0
  133.4139   76.8867  226.9136 H   0  0  0  0  0  0  0  0  0  0  0  0
  131.7157   75.7877  228.3804 H   0  0  0  0  0  0  0  0  0  0  0  0
  131.3407   73.3237  228.2374 H   0  0  0  0  0  0  0  0  0  0  0  0
  132.6720   71.9412  226.6384 H   0  0  0  0  0  0  0  0  0  0  0  0
  1  2  3  0
  2  3  1  0
  3  4  2  0
  4  5  1  0
  5  6  2  0
  6  7  1  0
  7  8  2  0
  8  9  1  0
  9 10  1  0
 10 11  1  0
 11 12  2  0
 11 13  1  0
 13 14  1  0
 14 15  2  0
 15 16  1  0
 15 17  1  0
 17 18  2  0
 18 19  1  0
 19 20  2  0
 20 21  1  0
 21 22  2  0
 22 23  1  0
 23 24  2  0
 24 25  1  0
 25 26  2  0
  8  3  1  0
 26 17  1  0
 25 20  1  0
  4 27  1  0
  5 28  1  0
  6 29  1  0
  7 30  1  0
  9 31  1  0
  9 32  1  0
 10 33  1  0
 13 34  1  0
 13 35  1  0
 16 36  1  0
 18 37  1  0
 19 38  1  0
 21 39  1  0
 22 40  1  0
 23 41  1  0
 24 42  1  0
M  END
>  <meeko>  (4) 
{"free_energy": -7.87, "intermolecular_energy": -10.26, "internal_energy": -1.72, "cluster_size": 3, "cluster_id": 3, "rank_in_cluster": 1}

$$$$

     RDKit          3D

 42 44  0  0  0  0  0  0  0  0999 V2000
  138.1040   75.9550  222.7770 N   0  0  0  0  0  0  0  0  0  0  0  0
  138.9690   76.7020  222.5890 C   0  0  0  0  0  0  0  0  0  0  0  0
  140.0440   77.6370  222.3480 C   0  0  0  0  0  0  0  0  0  0  0  0
  140.3320   78.5990  223.3260 C   0  0  0  0  0  0  0  0  0  0  0  0
  141.3650   79.5190  223.1260 C   0  0  0  0  0  0  0  0  0  0  0  0
  142.1190   79.4820  221.9500 C   0  0  0  0  0  0  0  0  0  0  0  0
  141.8410   78.5270  220.9700 C   0  0  0  0  0  0  0  0  0  0  0  0
  140.8010   77.5970  221.1520 C   0  0  0  0  0  0  0  0  0  0  0  0
  140.5470   76.5530  220.0900 C   0  0  0  0  0  0  0  0  0  0  0  0
  140.5920   75.2170  220.6780 N   0  0  0  0  0  0  0  0  0  0  0  0
  141.5410   74.2240  220.2610 C   0  0  0  0  0  0  0  0  0  0  0  0
  142.3410   74.4660  219.3170 O   0  0  0  0  0  0  0  0  0  0  0  0
  141.6190   72.9060  220.9710 C   0  0  0  0  0  0  0  0  0  0  0  0
  141.0970   73.0110  222.3330 N   0  0  0  0  0  0  0  0  0  0  0  0
  139.9130   72.6420  222.7340 C   0  0  0  0  0  0  0  0  0  0  0  0
  138.7520   73.2680  222.2700 O   0  0  0  0  0  0  0  0  0  0  0  0
  139.8010   71.5330  223.7010 C   0  0  0  0  0  0  0  0  0  0  0  0
  139.1030   70.3560  223.3740 C   0  0  0  0  0  0  0  0  0  0  0  0
  139.0130   69.3240  224.3110 C   0  0  0  0  0  0  0  0  0  0  0  0
  139.6140   69.4670  225.5670 C   0  0  0  0  0  0  0  0  0  0  0  0
  139.5430   68.4490  226.5310 C   0  0  0  0  0  0  0  0  0  0  0  0
  140.1540   68.6240  227.7780 C   0  0  0  0  0  0  0  0  0  0  0  0
  140.8420   69.8090  228.0660 C   0  0  0  0  0  0  0  0  0  0  0  0
  140.9180   70.8280  227.1100 C   0  0  0  0  0  0  0  0  0  0  0  0
  140.3080   70.6630  225.8610 C   0  0  0  0  0  0  0  0  0  0  0  0
  140.3790   71.6500  224.9300 N   0  0  0  0  0  0  0  0  0  0  0  0
  139.7428   78.6300  224.2544 H   0  0  0  0  0  0  0  0  0  0  0  0
  141.5849   80.2735  223.8957 H   0  0  0  0  0  0  0  0  0  0  0  0
  142.9326   80.2062  221.7961 H   0  0  0  0  0  0  0  0  0  0  0  0
  142.4402   78.5015  220.0479 H   0  0  0  0  0  0  0  0  0  0  0  0
  139.5554   76.7211  219.6445 H   0  0  0  0  0  0  0  0  0  0  0  0
  141.3239   76.6315  219.3152 H   0  0  0  0  0  0  0  0  0  0  0  0
  139.9110   74.9850  221.4370 H   0  0  0  0  0  0  0  0  0  0  0  0
  141.0276   72.1631  220.4157 H   0  0  0  0  0  0  0  0  0  0  0  0
  142.6739   72.5988  221.0234 H   0  0  0  0  0  0  0  0  0  0  0  0
  138.2440   73.9640  222.8010 H   0  0  0  0  0  0  0  0  0  0  0  0
  138.6309   70.2491  222.3862 H   0  0  0  0  0  0  0  0  0  0  0  0
  138.4705   68.4000  224.0621 H   0  0  0  0  0  0  0  0  0  0  0  0
  139.0077   67.5146  226.3065 H   0  0  0  0  0  0  0  0  0  0  0  0
  140.0935   67.8277  228.5345 H   0  0  0  0  0  0  0  0  0  0  0  0
  141.3239   69.9392  229.0462 H   0  0  0  0  0  0  0  0  0  0  0  0
  141.4572   71.7588  227.3400 H   0  0  0  0  0  0  0  0  0  0  0  0
  1  2  3  0
  2  3  1  0
  3  4  2  0
  4  5  1  0
  5  6  2  0
  6  7  1  0
  7  8  2  0
  8  9  1  0
  9 10  1  0
 10 11  1  0
 11 12  2  0
 11 13  1  0
 13 14  1  0
 14 15  2  0
 15 16  1  0
 15 17  1  0
 17 18  2  0
 18 19  1  0
 19 20  2  0
 20 21  1  0
 21 22  2  0
 22 23  1  0
 23 24  2  0
 24 25  1  0
 25 26  2  0
  8  3  1  0
 26 17  1  0
 25 20  1  0
  4 27  1  0
  5 28  1  0
  6 29  1  0
  7 30  1  0
  9 31  1  0
  9 32  1  0
 10 33  1  0
 13 34  1  0
 13 35  1  0
 16 36  1  0
 18 37  1  0
 19 38  1  0
 21 39  1  0
 22 40  1  0
 23 41  1  0
 24 42  1  0
M  END
>  <meeko>  (5) 
{"free_energy": -6.86, "intermolecular_energy": -9.25, "internal_energy": -2.76, "cluster_size": 6, "cluster_id": 2, "rank_in_cluster": 6}

$$$$

     RDKit          3D

 42 44  0  0  0  0  0  0  0  0999 V2000
  137.8500   75.8350  222.4650 N   0  0  0  0  0  0  0  0  0  0  0  0
  138.7760   76.5100  222.3010 C   0  0  0  0  0  0  0  0  0  0  0  0
  139.9370   77.3460  222.0940 C   0  0  0  0  0  0  0  0  0  0  0  0
  140.2960   78.2600  223.0940 C   0  0  0  0  0  0  0  0  0  0  0  0
  141.4120   79.0850  222.9270 C   0  0  0  0  0  0  0  0  0  0  0  0
  142.1780   79.0000  221.7620 C   0  0  0  0  0  0  0  0  0  0  0  0
  141.8300   78.0910  220.7590 C   0  0  0  0  0  0  0  0  0  0  0  0
  140.7060   77.2590  220.9080 C   0  0  0  0  0  0  0  0  0  0  0  0
  140.3750   76.2620  219.8220 C   0  0  0  0  0  0  0  0  0  0  0  0
  140.7160   74.9100  220.2600 N   0  0  0  0  0  0  0  0  0  0  0  0
  142.0730   74.4740  220.4250 C   0  0  0  0  0  0  0  0  0  0  0  0
  143.0280   75.2450  220.1350 O   0  0  0  0  0  0  0  0  0  0  0  0
  142.3690   73.1140  220.9820 C   0  0  0  0  0  0  0  0  0  0  0  0
  141.1350   72.3950  221.2990 N   0  0  0  0  0  0  0  0  0  0  0  0
  140.3340   72.6450  222.2950 C   0  0  0  0  0  0  0  0  0  0  0  0
  139.5920   73.8290  222.3640 O   0  0  0  0  0  0  0  0  0  0  0  0
  140.2070   71.6490  223.3760 C   0  0  0  0  0  0  0  0  0  0  0  0
  139.6080   70.3980  223.1400 C   0  0  0  0  0  0  0  0  0  0  0  0
  139.5020   69.4750  224.1840 C   0  0  0  0  0  0  0  0  0  0  0  0
  139.9890   69.8010  225.4560 C   0  0  0  0  0  0  0  0  0  0  0  0
  139.8970   68.8970  226.5250 C   0  0  0  0  0  0  0  0  0  0  0  0
  140.3930   69.2540  227.7850 C   0  0  0  0  0  0  0  0  0  0  0  0
  140.9850   70.5080  227.9800 C   0  0  0  0  0  0  0  0  0  0  0  0
  141.0800   71.4140  226.9190 C   0  0  0  0  0  0  0  0  0  0  0  0
  140.5850   71.0670  225.6560 C   0  0  0  0  0  0  0  0  0  0  0  0
  140.6750   71.9440  224.6220 N   0  0  0  0  0  0  0  0  0  0  0  0
  139.6971   78.3284  224.0141 H   0  0  0  0  0  0  0  0  0  0  0  0
  141.6874   79.8022  223.7142 H   0  0  0  0  0  0  0  0  0  0  0  0
  143.0565   79.6495  221.6338 H   0  0  0  0  0  0  0  0  0  0  0  0
  142.4400   78.0258  219.8460 H   0  0  0  0  0  0  0  0  0  0  0  0
  139.2991   76.3114  219.5985 H   0  0  0  0  0  0  0  0  0  0  0  0
  140.9564   76.5056  218.9205 H   0  0  0  0  0  0  0  0  0  0  0  0
  139.9360   74.2450  220.4690 H   0  0  0  0  0  0  0  0  0  0  0  0
  142.9398   72.5378  220.2389 H   0  0  0  0  0  0  0  0  0  0  0  0
  142.9509   73.2345  221.9076 H   0  0  0  0  0  0  0  0  0  0  0  0
  138.8300   73.9730  223.0140 H   0  0  0  0  0  0  0  0  0  0  0  0
  139.2253   70.1479  222.1395 H   0  0  0  0  0  0  0  0  0  0  0  0
  139.0368   68.4940  224.0070 H   0  0  0  0  0  0  0  0  0  0  0  0
  139.4362   67.9097  226.3737 H   0  0  0  0  0  0  0  0  0  0  0  0
  140.3173   68.5470  228.6243 H   0  0  0  0  0  0  0  0  0  0  0  0
  141.3766   70.7813  228.9710 H   0  0  0  0  0  0  0  0  0  0  0  0
  141.5435   72.3991  227.0766 H   0  0  0  0  0  0  0  0  0  0  0  0
  1  2  3  0
  2  3  1  0
  3  4  2  0
  4  5  1  0
  5  6  2  0
  6  7  1  0
  7  8  2  0
  8  9  1  0
  9 10  1  0
 10 11  1  0
 11 12  2  0
 11 13  1  0
 13 14  1  0
 14 15  2  0
 15 16  1  0
 15 17  1  0
 17 18  2  0
 18 19  1  0
 19 20  2  0
 20 21  1  0
 21 22  2  0
 22 23  1  0
 23 24  2  0
 24 25  1  0
 25 26  2  0
  8  3  1  0
 26 17  1  0
 25 20  1  0
  4 27  1  0
  5 28  1  0
  6 29  1  0
  7 30  1  0
  9 31  1  0
  9 32  1  0
 10 33  1  0
 13 34  1  0
 13 35  1  0
 16 36  1  0
 18 37  1  0
 19 38  1  0
 21 39  1  0
 22 40  1  0
 23 41  1  0
 24 42  1  0
M  END
>  <meeko>  (6) 
{"free_energy": -7.15, "intermolecular_energy": -9.54, "internal_energy": -2.74, "cluster_size": 6, "cluster_id": 2, "rank_in_cluster": 4}

$$$$

     RDKit          3D

 42 44  0  0  0  0  0  0  0  0999 V2000
  139.1540   67.3960  225.5750 N   0  0  0  0  0  0  0  0  0  0  0  0
  139.5790   68.4160  225.9220 C   0  0  0  0  0  0  0  0  0  0  0  0
  140.1060   69.6920  226.3490 C   0  0  0  0  0  0  0  0  0  0  0  0
  140.5410   69.8320  227.6750 C   0  0  0  0  0  0  0  0  0  0  0  0
  141.0560   71.0520  228.1230 C   0  0  0  0  0  0  0  0  0  0  0  0
  141.1410   72.1380  227.2490 C   0  0  0  0  0  0  0  0  0  0  0  0
  140.7110   72.0100  225.9260 C   0  0  0  0  0  0  0  0  0  0  0  0
  140.1850   70.7920  225.4610 C   0  0  0  0  0  0  0  0  0  0  0  0
  139.7610   70.6730  224.0160 C   0  0  0  0  0  0  0  0  0  0  0  0
  140.0570   71.9120  223.3010 N   0  0  0  0  0  0  0  0  0  0  0  0
  140.4740   71.9270  221.9280 C   0  0  0  0  0  0  0  0  0  0  0  0
  140.6530   70.8450  221.3050 O   0  0  0  0  0  0  0  0  0  0  0  0
  140.6590   73.2290  221.2070 C   0  0  0  0  0  0  0  0  0  0  0  0
  140.4900   74.3620  222.1160 N   0  0  0  0  0  0  0  0  0  0  0  0
  139.4080   75.0720  222.2670 C   0  0  0  0  0  0  0  0  0  0  0  0
  138.1350   74.4980  222.1930 O   0  0  0  0  0  0  0  0  0  0  0  0
  139.5340   76.5190  222.5250 C   0  0  0  0  0  0  0  0  0  0  0  0
  138.3980   77.3450  222.5850 C   0  0  0  0  0  0  0  0  0  0  0  0
  138.5490   78.7120  222.8300 C   0  0  0  0  0  0  0  0  0  0  0  0
  139.8290   79.2510  223.0140 C   0  0  0  0  0  0  0  0  0  0  0  0
  140.0160   80.6190  223.2620 C   0  0  0  0  0  0  0  0  0  0  0  0
  141.3090   81.1260  223.4400 C   0  0  0  0  0  0  0  0  0  0  0  0
  142.4160   80.2710  223.3760 C   0  0  0  0  0  0  0  0  0  0  0  0
  142.2380   78.9060  223.1300 C   0  0  0  0  0  0  0  0  0  0  0  0
  140.9480   78.3910  222.9480 C   0  0  0  0  0  0  0  0  0  0  0  0
  140.7700   77.0650  222.7080 N   0  0  0  0  0  0  0  0  0  0  0  0
  140.4767   68.9781  228.3655 H   0  0  0  0  0  0  0  0  0  0  0  0
  141.3944   71.1567  229.1644 H   0  0  0  0  0  0  0  0  0  0  0  0
  141.5476   73.0967  227.6033 H   0  0  0  0  0  0  0  0  0  0  0  0
  140.7845   72.8689  225.2428 H   0  0  0  0  0  0  0  0  0  0  0  0
  140.3060   69.8420  223.5444 H   0  0  0  0  0  0  0  0  0  0  0  0
  138.6783   70.4833  223.9735 H   0  0  0  0  0  0  0  0  0  0  0  0
  139.9500   72.8180  223.8120 H   0  0  0  0  0  0  0  0  0  0  0  0
  141.6710   73.2611  220.7770 H   0  0  0  0  0  0  0  0  0  0  0  0
  139.8999   73.3006  220.4141 H   0  0  0  0  0  0  0  0  0  0  0  0
  137.7420   73.9160  222.9220 H   0  0  0  0  0  0  0  0  0  0  0  0
  137.3951   76.9170  222.4398 H   0  0  0  0  0  0  0  0  0  0  0  0
  137.6644   79.3641  222.8784 H   0  0  0  0  0  0  0  0  0  0  0  0
  139.1480   81.2925  223.3165 H   0  0  0  0  0  0  0  0  0  0  0  0
  141.4556   82.1994  223.6307 H   0  0  0  0  0  0  0  0  0  0  0  0
  143.4292   80.6745  223.5197 H   0  0  0  0  0  0  0  0  0  0  0  0
  143.1100   78.2374  223.0795 H   0  0  0  0  0  0  0  0  0  0  0  0
  1  2  3  0
  2  3  1  0
  3  4  2  0
  4  5  1  0
  5  6  2  0
  6  7  1  0
  7  8  2  0
  8  9  1  0
  9 10  1  0
 10 11  1  0
 11 12  2  0
 11 13  1  0
 13 14  1  0
 14 15  2  0
 15 16  1  0
 15 17  1  0
 17 18  2  0
 18 19  1  0
 19 20  2  0
 20 21  1  0
 21 22  2  0
 22 23  1  0
 23 24  2  0
 24 25  1  0
 25 26  2  0
  8  3  1  0
 26 17  1  0
 25 20  1  0
  4 27  1  0
  5 28  1  0
  6 29  1  0
  7 30  1  0
  9 31  1  0
  9 32  1  0
 10 33  1  0
 13 34  1  0
 13 35  1  0
 16 36  1  0
 18 37  1  0
 19 38  1  0
 21 39  1  0
 22 40  1  0
 23 41  1  0
 24 42  1  0
M  END
>  <meeko>  (7) 
{"free_energy": -9.08, "intermolecular_energy": -11.47, "internal_energy": -1.23, "cluster_size": 10, "cluster_id": 1, "rank_in_cluster": 3}

$$$$

     RDKit          3D

 42 44  0  0  0  0  0  0  0  0999 V2000
  139.2180   67.3280  225.7860 N   0  0  0  0  0  0  0  0  0  0  0  0
  139.6560   68.3420  226.1340 C   0  0  0  0  0  0  0  0  0  0  0  0
  140.2070   69.6070  226.5640 C   0  0  0  0  0  0  0  0  0  0  0  0
  140.6560   69.7330  227.8860 C   0  0  0  0  0  0  0  0  0  0  0  0
  141.1950   70.9420  228.3350 C   0  0  0  0  0  0  0  0  0  0  0  0
  141.2910   72.0310  227.4670 C   0  0  0  0  0  0  0  0  0  0  0  0
  140.8480   71.9170  226.1470 C   0  0  0  0  0  0  0  0  0  0  0  0
  140.2970   70.7100  225.6800 C   0  0  0  0  0  0  0  0  0  0  0  0
  139.8590   70.6050  224.2380 C   0  0  0  0  0  0  0  0  0  0  0  0
  140.8060   71.3050  223.3730 N   0  0  0  0  0  0  0  0  0  0  0  0
  140.3820   72.1910  222.3260 C   0  0  0  0  0  0  0  0  0  0  0  0
  139.1540   72.3480  222.0840 O   0  0  0  0  0  0  0  0  0  0  0  0
  141.3920   72.9700  221.5390 C   0  0  0  0  0  0  0  0  0  0  0  0
  140.8220   74.2240  221.0470 N   0  0  0  0  0  0  0  0  0  0  0  0
  140.2740   75.1570  221.7740 C   0  0  0  0  0  0  0  0  0  0  0  0
  139.2200   74.8820  222.6510 O   0  0  0  0  0  0  0  0  0  0  0  0
  140.7840   76.5370  221.6660 C   0  0  0  0  0  0  0  0  0  0  0  0
  141.3450   77.0090  220.4660 C   0  0  0  0  0  0  0  0  0  0  0  0
  141.8200   78.3210  220.3940 C   0  0  0  0  0  0  0  0  0  0  0  0
  141.7380   79.1550  221.5150 C   0  0  0  0  0  0  0  0  0  0  0  0
  142.2060   80.4780  221.4770 C   0  0  0  0  0  0  0  0  0  0  0  0
  142.1090   81.2860  222.6170 C   0  0  0  0  0  0  0  0  0  0  0  0
  141.5420   80.7800  223.7930 C   0  0  0  0  0  0  0  0  0  0  0  0
  141.0730   79.4640  223.8390 C   0  0  0  0  0  0  0  0  0  0  0  0
  141.1680   78.6470  222.7050 C   0  0  0  0  0  0  0  0  0  0  0  0
  140.7130   77.3670  222.7450 N   0  0  0  0  0  0  0  0  0  0  0  0
  140.5839   68.8769  228.5729 H   0  0  0  0  0  0  0  0  0  0  0  0
  141.5441   71.0354  229.3740 H   0  0  0  0  0  0  0  0  0  0  0  0
  141.7163   72.9809  227.8231 H   0  0  0  0  0  0  0  0  0  0  0  0
  140.9308   72.7780  225.4674 H   0  0  0  0  0  0  0  0  0  0  0  0
  139.8157   69.5450  223.9473 H   0  0  0  0  0  0  0  0  0  0  0  0
  138.8652   71.0640  224.1294 H   0  0  0  0  0  0  0  0  0  0  0  0
  141.8290   71.1580  223.5350 H   0  0  0  0  0  0  0  0  0  0  0  0
  142.2539   73.1957  222.1841 H   0  0  0  0  0  0  0  0  0  0  0  0
  141.7041   72.3650  220.6749 H   0  0  0  0  0  0  0  0  0  0  0  0
  138.8250   73.9580  222.7760 H   0  0  0  0  0  0  0  0  0  0  0  0
  141.4095   76.3487  219.5886 H   0  0  0  0  0  0  0  0  0  0  0  0
  142.2577   78.6978  219.4578 H   0  0  0  0  0  0  0  0  0  0  0  0
  142.6482   80.8795  220.5533 H   0  0  0  0  0  0  0  0  0  0  0  0
  142.4794   82.3214  222.5883 H   0  0  0  0  0  0  0  0  0  0  0  0
  141.4654   81.4205  224.6840 H   0  0  0  0  0  0  0  0  0  0  0  0
  140.6295   79.0700  224.7653 H   0  0  0  0  0  0  0  0  0  0  0  0
  1  2  3  0
  2  3  1  0
  3  4  2  0
  4  5  1  0
  5  6  2  0
  6  7  1  0
  7  8  2  0
  8  9  1  0
  9 10  1  0
 10 11  1  0
 11 12  2  0
 11 13  1  0
 13 14  1  0
 14 15  2  0
 15 16  1  0
 15 17  1  0
 17 18  2  0
 18 19  1  0
 19 20  2  0
 20 21  1  0
 21 22  2  0
 22 23  1  0
 23 24  2  0
 24 25  1  0
 25 26  2  0
  8  3  1  0
 26 17  1  0
 25 20  1  0
  4 27  1  0
  5 28  1  0
  6 29  1  0
  7 30  1  0
  9 31  1  0
  9 32  1  0
 10 33  1  0
 13 34  1  0
 13 35  1  0
 16 36  1  0
 18 37  1  0
 19 38  1  0
 21 39  1  0
 22 40  1  0
 23 41  1  0
 24 42  1  0
M  END
>  <meeko>  (8) 
{"free_energy": -8.8, "intermolecular_energy": -11.19, "internal_energy": -1.31, "cluster_size": 10, "cluster_id": 1, "rank_in_cluster": 6}

$$$$

     RDKit          3D

 42 44  0  0  0  0  0  0  0  0999 V2000
  139.1880   67.4270  225.3560 N   0  0  0  0  0  0  0  0  0  0  0  0
  139.6050   68.4390  225.7360 C   0  0  0  0  0  0  0  0  0  0  0  0
  140.1250   69.7030  226.2040 C   0  0  0  0  0  0  0  0  0  0  0  0
  140.3110   69.8880  227.5810 C   0  0  0  0  0  0  0  0  0  0  0  0
  140.8110   71.0990  228.0690 C   0  0  0  0  0  0  0  0  0  0  0  0
  141.1320   72.1310  227.1840 C   0  0  0  0  0  0  0  0  0  0  0  0
  140.9510   71.9580  225.8090 C   0  0  0  0  0  0  0  0  0  0  0  0
  140.4420   70.7480  225.3020 C   0  0  0  0  0  0  0  0  0  0  0  0
  140.2910   70.5770  223.8090 C   0  0  0  0  0  0  0  0  0  0  0  0
  139.9600   71.8570  223.1870 N   0  0  0  0  0  0  0  0  0  0  0  0
  138.8110   72.0300  222.3460 C   0  0  0  0  0  0  0  0  0  0  0  0
  138.0720   71.0450  222.0690 O   0  0  0  0  0  0  0  0  0  0  0  0
  138.4520   73.3880  221.8210 C   0  0  0  0  0  0  0  0  0  0  0  0
  139.3660   74.4080  222.3350 N   0  0  0  0  0  0  0  0  0  0  0  0
  140.5700   74.6510  221.9000 C   0  0  0  0  0  0  0  0  0  0  0  0
  141.4630   73.6210  221.5890 O   0  0  0  0  0  0  0  0  0  0  0  0
  140.9970   76.0530  221.7300 C   0  0  0  0  0  0  0  0  0  0  0  0
  141.3480   76.5540  220.4640 C   0  0  0  0  0  0  0  0  0  0  0  0
  141.7500   77.8860  220.3340 C   0  0  0  0  0  0  0  0  0  0  0  0
  141.8010   78.7130  221.4640 C   0  0  0  0  0  0  0  0  0  0  0  0
  142.1990   80.0550  221.3690 C   0  0  0  0  0  0  0  0  0  0  0  0
  142.2400   80.8540  222.5180 C   0  0  0  0  0  0  0  0  0  0  0  0
  141.8800   80.3200  223.7610 C   0  0  0  0  0  0  0  0  0  0  0  0
  141.4810   78.9830  223.8640 C   0  0  0  0  0  0  0  0  0  0  0  0
  141.4400   78.1760  222.7200 C   0  0  0  0  0  0  0  0  0  0  0  0
  141.0530   76.8760  222.8150 N   0  0  0  0  0  0  0  0  0  0  0  0
  140.0624   69.0766  228.2809 H   0  0  0  0  0  0  0  0  0  0  0  0
  140.9518   71.2393  229.1509 H   0  0  0  0  0  0  0  0  0  0  0  0
  141.5281   73.0818  227.5701 H   0  0  0  0  0  0  0  0  0  0  0  0
  141.2084   72.7740  225.1178 H   0  0  0  0  0  0  0  0  0  0  0  0
  141.2357   70.2019  223.3886 H   0  0  0  0  0  0  0  0  0  0  0  0
  139.4811   69.8600  223.6093 H   0  0  0  0  0  0  0  0  0  0  0  0
  140.5830   72.6770  223.3750 H   0  0  0  0  0  0  0  0  0  0  0  0
  138.5084   73.3753  220.7225 H   0  0  0  0  0  0  0  0  0  0  0  0
  137.4320   73.6330  222.1521 H   0  0  0  0  0  0  0  0  0  0  0  0
  142.2430   73.7320  220.9540 H   0  0  0  0  0  0  0  0  0  0  0  0
  141.3064   75.9005  219.5801 H   0  0  0  0  0  0  0  0  0  0  0  0
  142.0259   78.2845  219.3465 H   0  0  0  0  0  0  0  0  0  0  0  0
  142.4785   80.4788  220.3932 H   0  0  0  0  0  0  0  0  0  0  0  0
  142.5562   81.9050  222.4438 H   0  0  0  0  0  0  0  0  0  0  0  0
  141.9109   80.9537  224.6596 H   0  0  0  0  0  0  0  0  0  0  0  0
  141.1998   78.5661  224.8423 H   0  0  0  0  0  0  0  0  0  0  0  0
  1  2  3  0
  2  3  1  0
  3  4  2  0
  4  5  1  0
  5  6  2  0
  6  7  1  0
  7  8  2  0
  8  9  1  0
  9 10  1  0
 10 11  1  0
 11 12  2  0
 11 13  1  0
 13 14  1  0
 14 15  2  0
 15 16  1  0
 15 17  1  0
 17 18  2  0
 18 19  1  0
 19 20  2  0
 20 21  1  0
 21 22  2  0
 22 23  1  0
 23 24  2  0
 24 25  1  0
 25 26  2  0
  8  3  1  0
 26 17  1  0
 25 20  1  0
  4 27  1  0
  5 28  1  0
  6 29  1  0
  7 30  1  0
  9 31  1  0
  9 32  1  0
 10 33  1  0
 13 34  1  0
 13 35  1  0
 16 36  1  0
 18 37  1  0
 19 38  1  0
 21 39  1  0
 22 40  1  0
 23 41  1  0
 24 42  1  0
M  END
>  <meeko>  (9) 
{"free_energy": -8.08, "intermolecular_energy": -10.47, "internal_energy": -1.84, "cluster_size": 10, "cluster_id": 1, "rank_in_cluster": 10}

$$$$

     RDKit          3D

 42 44  0  0  0  0  0  0  0  0999 V2000
  142.1060   76.2630  219.7480 N   0  0  0  0  0  0  0  0  0  0  0  0
  142.9070   75.4400  219.8940 C   0  0  0  0  0  0  0  0  0  0  0  0
  143.9030   74.4080  220.0750 C   0  0  0  0  0  0  0  0  0  0  0  0
  145.1930   74.7780  220.4780 C   0  0  0  0  0  0  0  0  0  0  0  0
  146.1800   73.8060  220.6620 C   0  0  0  0  0  0  0  0  0  0  0  0
  145.8840   72.4580  220.4480 C   0  0  0  0  0  0  0  0  0  0  0  0
  144.6010   72.0770  220.0470 C   0  0  0  0  0  0  0  0  0  0  0  0
  143.5980   73.0430  219.8500 C   0  0  0  0  0  0  0  0  0  0  0  0
  142.2100   72.5980  219.4510 C   0  0  0  0  0  0  0  0  0  0  0  0
  141.2120   73.2400  220.3020 N   0  0  0  0  0  0  0  0  0  0  0  0
  140.2820   72.4910  221.0970 C   0  0  0  0  0  0  0  0  0  0  0  0
  140.2640   71.2310  221.0370 O   0  0  0  0  0  0  0  0  0  0  0  0
  139.3500   73.1940  222.0390 C   0  0  0  0  0  0  0  0  0  0  0  0
  139.8270   74.5430  222.3400 N   0  0  0  0  0  0  0  0  0  0  0  0
  139.7080   75.5900  221.5740 C   0  0  0  0  0  0  0  0  0  0  0  0
  139.4200   75.4760  220.2100 O   0  0  0  0  0  0  0  0  0  0  0  0
  139.8810   76.9310  222.1660 C   0  0  0  0  0  0  0  0  0  0  0  0
  138.7820   77.6420  222.6800 C   0  0  0  0  0  0  0  0  0  0  0  0
  138.9760   78.9090  223.2340 C   0  0  0  0  0  0  0  0  0  0  0  0
  140.2610   79.4640  223.2730 C   0  0  0  0  0  0  0  0  0  0  0  0
  140.4920   80.7350  223.8220 C   0  0  0  0  0  0  0  0  0  0  0  0
  141.7890   81.2610  223.8450 C   0  0  0  0  0  0  0  0  0  0  0  0
  142.8590   80.5220  223.3260 C   0  0  0  0  0  0  0  0  0  0  0  0
  142.6370   79.2540  222.7780 C   0  0  0  0  0  0  0  0  0  0  0  0
  141.3430   78.7210  222.7480 C   0  0  0  0  0  0  0  0  0  0  0  0
  141.1230   77.4900  222.2160 N   0  0  0  0  0  0  0  0  0  0  0  0
  145.4298   75.8383  220.6503 H   0  0  0  0  0  0  0  0  0  0  0  0
  147.1916   74.1030  220.9759 H   0  0  0  0  0  0  0  0  0  0  0  0
  146.6624   71.6949  220.5954 H   0  0  0  0  0  0  0  0  0  0  0  0
  144.3736   71.0132  219.8841 H   0  0  0  0  0  0  0  0  0  0  0  0
  142.0265   72.8755  218.4025 H   0  0  0  0  0  0  0  0  0  0  0  0
  142.1345   71.5069  219.5687 H   0  0  0  0  0  0  0  0  0  0  0  0
  141.1870   74.2850  220.3370 H   0  0  0  0  0  0  0  0  0  0  0  0
  138.3539   73.2596  221.5771 H   0  0  0  0  0  0  0  0  0  0  0  0
  139.3033   72.6218  222.9773 H   0  0  0  0  0  0  0  0  0  0  0  0
  140.0040   75.8670  219.4820 H   0  0  0  0  0  0  0  0  0  0  0  0
  137.7743   77.2022  222.6458 H   0  0  0  0  0  0  0  0  0  0  0  0
  138.1209   79.4701  223.6390 H   0  0  0  0  0  0  0  0  0  0  0  0
  139.6545   81.3172  224.2338 H   0  0  0  0  0  0  0  0  0  0  0  0
  141.9683   82.2586  224.2724 H   0  0  0  0  0  0  0  0  0  0  0  0
  143.8765   80.9393  223.3492 H   0  0  0  0  0  0  0  0  0  0  0  0
  143.4795   78.6758  222.3706 H   0  0  0  0  0  0  0  0  0  0  0  0
  1  2  3  0
  2  3  1  0
  3  4  2  0
  4  5  1  0
  5  6  2  0
  6  7  1  0
  7  8  2  0
  8  9  1  0
  9 10  1  0
 10 11  1  0
 11 12  2  0
 11 13  1  0
 13 14  1  0
 14 15  2  0
 15 16  1  0
 15 17  1  0
 17 18  2  0
 18 19  1  0
 19 20  2  0
 20 21  1  0
 21 22  2  0
 22 23  1  0
 23 24  2  0
 24 25  1  0
 25 26  2  0
  8  3  1  0
 26 17  1  0
 25 20  1  0
  4 27  1  0
  5 28  1  0
  6 29  1  0
  7 30  1  0
  9 31  1  0
  9 32  1  0
 10 33  1  0
 13 34  1  0
 13 35  1  0
 16 36  1  0
 18 37  1  0
 19 38  1  0
 21 39  1  0
 22 40  1  0
 23 41  1  0
 24 42  1  0
M  END
>  <meeko>  (10) 
{"free_energy": -6.1, "intermolecular_energy": -8.49, "internal_energy": -3.19, "cluster_size": 1, "cluster_id": 4, "rank_in_cluster": 1}

$$$$

     RDKit          3D

 42 44  0  0  0  0  0  0  0  0999 V2000
  139.1000   67.3940  225.2620 N   0  0  0  0  0  0  0  0  0  0  0  0
  139.5430   68.4050  225.6110 C   0  0  0  0  0  0  0  0  0  0  0  0
  140.0890   69.6700  226.0480 C   0  0  0  0  0  0  0  0  0  0  0  0
  140.6060   69.7690  227.3470 C   0  0  0  0  0  0  0  0  0  0  0  0
  141.1420   70.9770  227.8020 C   0  0  0  0  0  0  0  0  0  0  0  0
  141.1670   72.0930  226.9620 C   0  0  0  0  0  0  0  0  0  0  0  0
  140.6560   72.0050  225.6650 C   0  0  0  0  0  0  0  0  0  0  0  0
  140.1070   70.7990  225.1930 C   0  0  0  0  0  0  0  0  0  0  0  0
  139.5940   70.7250  223.7740 C   0  0  0  0  0  0  0  0  0  0  0  0
  139.8980   71.9650  223.0640 N   0  0  0  0  0  0  0  0  0  0  0  0
  140.6190   71.9850  221.8230 C   0  0  0  0  0  0  0  0  0  0  0  0
  141.0680   70.9130  221.3310 O   0  0  0  0  0  0  0  0  0  0  0  0
  140.8090   73.2720  221.0780 C   0  0  0  0  0  0  0  0  0  0  0  0
  140.6730   74.4220  221.9710 N   0  0  0  0  0  0  0  0  0  0  0  0
  139.5710   75.0650  222.2340 C   0  0  0  0  0  0  0  0  0  0  0  0
  138.3270   74.4260  222.2320 O   0  0  0  0  0  0  0  0  0  0  0  0
  139.6430   76.5060  222.5450 C   0  0  0  0  0  0  0  0  0  0  0  0
  138.4740   77.2720  222.6960 C   0  0  0  0  0  0  0  0  0  0  0  0
  138.5740   78.6350  222.9890 C   0  0  0  0  0  0  0  0  0  0  0  0
  139.8340   79.2280  223.1290 C   0  0  0  0  0  0  0  0  0  0  0  0
  139.9700   80.5930  223.4240 C   0  0  0  0  0  0  0  0  0  0  0  0
  141.2450   81.1550  223.5570 C   0  0  0  0  0  0  0  0  0  0  0  0
  142.3860   80.3590  223.4020 C   0  0  0  0  0  0  0  0  0  0  0  0
  142.2590   78.9970  223.1100 C   0  0  0  0  0  0  0  0  0  0  0  0
  140.9880   78.4270  222.9720 C   0  0  0  0  0  0  0  0  0  0  0  0
  140.8600   77.1040  222.6870 N   0  0  0  0  0  0  0  0  0  0  0  0
  140.5899   68.8923  228.0112 H   0  0  0  0  0  0  0  0  0  0  0  0
  141.5448   71.0491  228.8231 H   0  0  0  0  0  0  0  0  0  0  0  0
  141.5897   73.0424  227.3225 H   0  0  0  0  0  0  0  0  0  0  0  0
  140.6832   72.8862  225.0072 H   0  0  0  0  0  0  0  0  0  0  0  0
  140.0758   69.8822  223.2566 H   0  0  0  0  0  0  0  0  0  0  0  0
  138.5038   70.5794  223.7929 H   0  0  0  0  0  0  0  0  0  0  0  0
  139.5650   72.8670  223.4750 H   0  0  0  0  0  0  0  0  0  0  0  0
  141.8132   73.2824  220.6291 H   0  0  0  0  0  0  0  0  0  0  0  0
  140.0363   73.3418  220.2982 H   0  0  0  0  0  0  0  0  0  0  0  0
  137.9200   73.9950  223.0530 H   0  0  0  0  0  0  0  0  0  0  0  0
  137.4861   76.8014  222.5842 H   0  0  0  0  0  0  0  0  0  0  0  0
  137.6637   79.2407  223.1094 H   0  0  0  0  0  0  0  0  0  0  0  0
  139.0756   81.2207  223.5506 H   0  0  0  0  0  0  0  0  0  0  0  0
  141.3508   82.2261  223.7842 H   0  0  0  0  0  0  0  0  0  0  0  0
  143.3853   80.8059  223.5101 H   0  0  0  0  0  0  0  0  0  0  0  0
  143.1575   78.3741  222.9889 H   0  0  0  0  0  0  0  0  0  0  0  0
  1  2  3  0
  2  3  1  0
  3  4  2  0
  4  5  1  0
  5  6  2  0
  6  7  1  0
  7  8  2  0
  8  9  1  0
  9 10  1  0
 10 11  1  0
 11 12  2  0
 11 13  1  0
 13 14  1  0
 14 15  2  0
 15 16  1  0
 15 17  1  0
 17 18  2  0
 18 19  1  0
 19 20  2  0
 20 21  1  0
 21 22  2  0
 22 23  1  0
 23 24  2  0
 24 25  1  0
 25 26  2  0
  8  3  1  0
 26 17  1  0
 25 20  1  0
  4 27  1  0
  5 28  1  0
  6 29  1  0
  7 30  1  0
  9 31  1  0
  9 32  1  0
 10 33  1  0
 13 34  1  0
 13 35  1  0
 16 36  1  0
 18 37  1  0
 19 38  1  0
 21 39  1  0
 22 40  1  0
 23 41  1  0
 24 42  1  0
M  END
>  <meeko>  (11) 
{"free_energy": -8.85, "intermolecular_energy": -11.24, "internal_energy": -1.57, "cluster_size": 10, "cluster_id": 1, "rank_in_cluster": 5}

$$$$

     RDKit          3D

 42 44  0  0  0  0  0  0  0  0999 V2000
  139.1030   67.7790  225.2470 N   0  0  0  0  0  0  0  0  0  0  0  0
  139.5210   68.7460  225.7270 C   0  0  0  0  0  0  0  0  0  0  0  0
  140.0480   69.9500  226.3300 C   0  0  0  0  0  0  0  0  0  0  0  0
  140.0130   70.0760  227.7260 C   0  0  0  0  0  0  0  0  0  0  0  0
  140.5140   71.2260  228.3420 C   0  0  0  0  0  0  0  0  0  0  0  0
  141.0550   72.2560  227.5690 C   0  0  0  0  0  0  0  0  0  0  0  0
  141.0970   72.1400  226.1770 C   0  0  0  0  0  0  0  0  0  0  0  0
  140.5910   70.9920  225.5400 C   0  0  0  0  0  0  0  0  0  0  0  0
  140.6820   70.8800  224.0360 C   0  0  0  0  0  0  0  0  0  0  0  0
  140.1260   72.0760  223.4080 N   0  0  0  0  0  0  0  0  0  0  0  0
  139.0190   72.0230  222.4970 C   0  0  0  0  0  0  0  0  0  0  0  0
  138.5220   70.9120  222.1640 O   0  0  0  0  0  0  0  0  0  0  0  0
  138.4140   73.2880  221.9650 C   0  0  0  0  0  0  0  0  0  0  0  0
  139.2110   74.4530  222.3470 N   0  0  0  0  0  0  0  0  0  0  0  0
  140.4320   74.7070  221.9680 C   0  0  0  0  0  0  0  0  0  0  0  0
  141.3540   73.6850  221.7230 O   0  0  0  0  0  0  0  0  0  0  0  0
  140.8470   76.1120  221.7930 C   0  0  0  0  0  0  0  0  0  0  0  0
  141.0440   76.6530  220.5100 C   0  0  0  0  0  0  0  0  0  0  0  0
  141.4380   77.9870  220.3750 C   0  0  0  0  0  0  0  0  0  0  0  0
  141.6340   78.7750  221.5160 C   0  0  0  0  0  0  0  0  0  0  0  0
  142.0290   80.1180  221.4160 C   0  0  0  0  0  0  0  0  0  0  0  0
  142.2170   80.8780  222.5770 C   0  0  0  0  0  0  0  0  0  0  0  0
  142.0080   80.3050  223.8370 C   0  0  0  0  0  0  0  0  0  0  0  0
  141.6140   78.9670  223.9440 C   0  0  0  0  0  0  0  0  0  0  0  0
  141.4250   78.1980  222.7890 C   0  0  0  0  0  0  0  0  0  0  0  0
  141.0420   76.8980  222.8890 N   0  0  0  0  0  0  0  0  0  0  0  0
  139.5895   69.2665  228.3387 H   0  0  0  0  0  0  0  0  0  0  0  0
  140.4823   71.3202  229.4375 H   0  0  0  0  0  0  0  0  0  0  0  0
  141.4486   73.1599  228.0568 H   0  0  0  0  0  0  0  0  0  0  0  0
  141.5291   72.9526  225.5745 H   0  0  0  0  0  0  0  0  0  0  0  0
  141.7366   70.7720  223.7425 H   0  0  0  0  0  0  0  0  0  0  0  0
  140.1092   70.0010  223.7056 H   0  0  0  0  0  0  0  0  0  0  0  0
  140.5490   73.0030  223.6440 H   0  0  0  0  0  0  0  0  0  0  0  0
  138.3659   73.2296  220.8676 H   0  0  0  0  0  0  0  0  0  0  0  0
  137.4057   73.3993  222.3904 H   0  0  0  0  0  0  0  0  0  0  0  0
  142.2470   73.8360  221.2690 H   0  0  0  0  0  0  0  0  0  0  0  0
  140.8888   76.0294  219.6173 H   0  0  0  0  0  0  0  0  0  0  0  0
  141.5938   78.4172  219.3747 H   0  0  0  0  0  0  0  0  0  0  0  0
  142.1906   80.5727  220.4275 H   0  0  0  0  0  0  0  0  0  0  0  0
  142.5302   81.9296  222.4986 H   0  0  0  0  0  0  0  0  0  0  0  0
  142.1539   80.9083  224.7452 H   0  0  0  0  0  0  0  0  0  0  0  0
  141.4526   78.5189  224.9355 H   0  0  0  0  0  0  0  0  0  0  0  0
  1  2  3  0
  2  3  1  0
  3  4  2  0
  4  5  1  0
  5  6  2  0
  6  7  1  0
  7  8  2  0
  8  9  1  0
  9 10  1  0
 10 11  1  0
 11 12  2  0
 11 13  1  0
 13 14  1  0
 14 15  2  0
 15 16  1  0
 15 17  1  0
 17 18  2  0
 18 19  1  0
 19 20  2  0
 20 21  1  0
 21 22  2  0
 22 23  1  0
 23 24  2  0
 24 25  1  0
 25 26  2  0
  8  3  1  0
 26 17  1  0
 25 20  1  0
  4 27  1  0
  5 28  1  0
  6 29  1  0
  7 30  1  0
  9 31  1  0
  9 32  1  0
 10 33  1  0
 13 34  1  0
 13 35  1  0
 16 36  1  0
 18 37  1  0
 19 38  1  0
 21 39  1  0
 22 40  1  0
 23 41  1  0
 24 42  1  0
M  END
>  <meeko>  (12) 
{"free_energy": -8.09, "intermolecular_energy": -10.48, "internal_energy": -1.78, "cluster_size": 10, "cluster_id": 1, "rank_in_cluster": 9}

$$$$

     RDKit          3D

 42 44  0  0  0  0  0  0  0  0999 V2000
  138.2430   76.0080  222.3670 N   0  0  0  0  0  0  0  0  0  0  0  0
  139.0870   76.8000  222.3900 C   0  0  0  0  0  0  0  0  0  0  0  0
  140.1410   77.7880  222.4260 C   0  0  0  0  0  0  0  0  0  0  0  0
  140.1170   78.7640  223.4320 C   0  0  0  0  0  0  0  0  0  0  0  0
  141.1200   79.7350  223.4960 C   0  0  0  0  0  0  0  0  0  0  0  0
  142.1550   79.7370  222.5580 C   0  0  0  0  0  0  0  0  0  0  0  0
  142.1890   78.7680  221.5510 C   0  0  0  0  0  0  0  0  0  0  0  0
  141.1840   77.7880  221.4680 C   0  0  0  0  0  0  0  0  0  0  0  0
  141.2680   76.7320  220.3910 C   0  0  0  0  0  0  0  0  0  0  0  0
  141.6060   75.4380  220.9790 N   0  0  0  0  0  0  0  0  0  0  0  0
  142.0480   74.3250  220.1880 C   0  0  0  0  0  0  0  0  0  0  0  0
  142.1030   74.4200  218.9310 O   0  0  0  0  0  0  0  0  0  0  0  0
  142.4880   73.0540  220.8500 C   0  0  0  0  0  0  0  0  0  0  0  0
  141.3410   72.2890  221.3350 N   0  0  0  0  0  0  0  0  0  0  0  0
  140.5480   72.6270  222.3120 C   0  0  0  0  0  0  0  0  0  0  0  0
  139.9310   73.8810  222.3580 O   0  0  0  0  0  0  0  0  0  0  0  0
  140.2970   71.6580  223.3960 C   0  0  0  0  0  0  0  0  0  0  0  0
  139.5990   70.4620  223.1490 C   0  0  0  0  0  0  0  0  0  0  0  0
  139.3750   69.5640  224.1950 C   0  0  0  0  0  0  0  0  0  0  0  0
  139.8450   69.8590  225.4810 C   0  0  0  0  0  0  0  0  0  0  0  0
  139.6380   68.9790  226.5540 C   0  0  0  0  0  0  0  0  0  0  0  0
  140.1200   69.3040  227.8270 C   0  0  0  0  0  0  0  0  0  0  0  0
  140.8130   70.5040  228.0330 C   0  0  0  0  0  0  0  0  0  0  0  0
  141.0240   71.3860  226.9690 C   0  0  0  0  0  0  0  0  0  0  0  0
  140.5430   71.0700  225.6920 C   0  0  0  0  0  0  0  0  0  0  0  0
  140.7460   71.9240  224.6550 N   0  0  0  0  0  0  0  0  0  0  0  0
  139.3052   78.7655  224.1742 H   0  0  0  0  0  0  0  0  0  0  0  0
  141.0944   80.4993  224.2867 H   0  0  0  0  0  0  0  0  0  0  0  0
  142.9439   80.5017  222.6118 H   0  0  0  0  0  0  0  0  0  0  0  0
  143.0087   78.7722  220.8175 H   0  0  0  0  0  0  0  0  0  0  0  0
  140.2970   76.6563  219.8797 H   0  0  0  0  0  0  0  0  0  0  0  0
  142.0503   77.0147  219.6712 H   0  0  0  0  0  0  0  0  0  0  0  0
  141.5300   75.3300  222.0160 H   0  0  0  0  0  0  0  0  0  0  0  0
  143.0450   72.4445  220.1232 H   0  0  0  0  0  0  0  0  0  0  0  0
  143.1257   73.3100  221.7090 H   0  0  0  0  0  0  0  0  0  0  0  0
  139.0650   74.0590  222.8510 H   0  0  0  0  0  0  0  0  0  0  0  0
  139.2315   70.2352  222.1373 H   0  0  0  0  0  0  0  0  0  0  0  0
  138.8303   68.6266  224.0091 H   0  0  0  0  0  0  0  0  0  0  0  0
  139.0973   68.0344  226.3948 H   0  0  0  0  0  0  0  0  0  0  0  0
  139.9542   68.6151  228.6684 H   0  0  0  0  0  0  0  0  0  0  0  0
  141.1923   70.7530  229.0351 H   0  0  0  0  0  0  0  0  0  0  0  0
  141.5676   72.3278  227.1346 H   0  0  0  0  0  0  0  0  0  0  0  0
  1  2  3  0
  2  3  1  0
  3  4  2  0
  4  5  1  0
  5  6  2  0
  6  7  1  0
  7  8  2  0
  8  9  1  0
  9 10  1  0
 10 11  1  0
 11 12  2  0
 11 13  1  0
 13 14  1  0
 14 15  2  0
 15 16  1  0
 15 17  1  0
 17 18  2  0
 18 19  1  0
 19 20  2  0
 20 21  1  0
 21 22  2  0
 22 23  1  0
 23 24  2  0
 24 25  1  0
 25 26  2  0
  8  3  1  0
 26 17  1  0
 25 20  1  0
  4 27  1  0
  5 28  1  0
  6 29  1  0
  7 30  1  0
  9 31  1  0
  9 32  1  0
 10 33  1  0
 13 34  1  0
 13 35  1  0
 16 36  1  0
 18 37  1  0
 19 38  1  0
 21 39  1  0
 22 40  1  0
 23 41  1  0
 24 42  1  0
M  END
>  <meeko>  (13) 
{"free_energy": -7.66, "intermolecular_energy": -10.04, "internal_energy": -2.18, "cluster_size": 6, "cluster_id": 2, "rank_in_cluster": 2}

$$$$

     RDKit          3D

 42 44  0  0  0  0  0  0  0  0999 V2000
  139.1630   67.3940  226.0650 N   0  0  0  0  0  0  0  0  0  0  0  0
  139.6190   68.4240  226.3320 C   0  0  0  0  0  0  0  0  0  0  0  0
  140.1900   69.7100  226.6600 C   0  0  0  0  0  0  0  0  0  0  0  0
  140.5120   69.9850  227.9960 C   0  0  0  0  0  0  0  0  0  0  0  0
  141.0660   71.2190  228.3480 C   0  0  0  0  0  0  0  0  0  0  0  0
  141.3040   72.1850  227.3680 C   0  0  0  0  0  0  0  0  0  0  0  0
  140.9880   71.9220  226.0330 C   0  0  0  0  0  0  0  0  0  0  0  0
  140.4250   70.6880  225.6620 C   0  0  0  0  0  0  0  0  0  0  0  0
  140.1260   70.4180  224.2060 C   0  0  0  0  0  0  0  0  0  0  0  0
  139.8880   71.6750  223.5000 N   0  0  0  0  0  0  0  0  0  0  0  0
  139.6360   71.7290  222.0890 C   0  0  0  0  0  0  0  0  0  0  0  0
  139.6690   70.6760  221.3950 O   0  0  0  0  0  0  0  0  0  0  0  0
  139.2870   73.0310  221.4310 C   0  0  0  0  0  0  0  0  0  0  0  0
  139.6930   74.1640  222.2610 N   0  0  0  0  0  0  0  0  0  0  0  0
  140.5980   75.0520  221.9610 C   0  0  0  0  0  0  0  0  0  0  0  0
  141.7720   74.7060  221.2840 O   0  0  0  0  0  0  0  0  0  0  0  0
  140.3740   76.4580  222.3480 C   0  0  0  0  0  0  0  0  0  0  0  0
  139.0720   76.9700  222.4890 C   0  0  0  0  0  0  0  0  0  0  0  0
  138.8910   78.3070  222.8560 C   0  0  0  0  0  0  0  0  0  0  0  0
  140.0040   79.1260  223.0780 C   0  0  0  0  0  0  0  0  0  0  0  0
  139.8580   80.4720  223.4470 C   0  0  0  0  0  0  0  0  0  0  0  0
  140.9920   81.2650  223.6600 C   0  0  0  0  0  0  0  0  0  0  0  0
  142.2720   80.7180  223.5120 C   0  0  0  0  0  0  0  0  0  0  0  0
  142.4260   79.3780  223.1450 C   0  0  0  0  0  0  0  0  0  0  0  0
  141.2980   78.5780  222.9270 C   0  0  0  0  0  0  0  0  0  0  0  0
  141.4430   77.2740  222.5700 N   0  0  0  0  0  0  0  0  0  0  0  0
  140.3279   69.2264  228.7710 H   0  0  0  0  0  0  0  0  0  0  0  0
  141.3149   71.4296  229.3986 H   0  0  0  0  0  0  0  0  0  0  0  0
  141.7411   73.1548  227.6479 H   0  0  0  0  0  0  0  0  0  0  0  0
  141.1811   72.6863  225.2658 H   0  0  0  0  0  0  0  0  0  0  0  0
  140.9823   69.9006  223.7488 H   0  0  0  0  0  0  0  0  0  0  0  0
  139.2263   69.7892  224.1341 H   0  0  0  0  0  0  0  0  0  0  0  0
  139.8930   72.5630  224.0520 H   0  0  0  0  0  0  0  0  0  0  0  0
  139.8021   73.0931  220.4610 H   0  0  0  0  0  0  0  0  0  0  0  0
  138.1966   73.0718  221.2922 H   0  0  0  0  0  0  0  0  0  0  0  0
  142.6170   75.2640  221.3120 H   0  0  0  0  0  0  0  0  0  0  0  0
  138.2008   76.3223  222.3116 H   0  0  0  0  0  0  0  0  0  0  0  0
  137.8756   78.7144  222.9700 H   0  0  0  0  0  0  0  0  0  0  0  0
  138.8536   80.9036  223.5688 H   0  0  0  0  0  0  0  0  0  0  0  0
  140.8768   82.3213  223.9446 H   0  0  0  0  0  0  0  0  0  0  0  0
  143.1594   81.3446  223.6850 H   0  0  0  0  0  0  0  0  0  0  0  0
  143.4334   78.9521  223.0275 H   0  0  0  0  0  0  0  0  0  0  0  0
  1  2  3  0
  2  3  1  0
  3  4  2  0
  4  5  1  0
  5  6  2  0
  6  7  1  0
  7  8  2  0
  8  9  1  0
  9 10  1  0
 10 11  1  0
 11 12  2  0
 11 13  1  0
 13 14  1  0
 14 15  2  0
 15 16  1  0
 15 17  1  0
 17 18  2  0
 18 19  1  0
 19 20  2  0
 20 21  1  0
 21 22  2  0
 22 23  1  0
 23 24  2  0
 24 25  1  0
 25 26  2  0
  8  3  1  0
 26 17  1  0
 25 20  1  0
  4 27  1  0
  5 28  1  0
  6 29  1  0
  7 30  1  0
  9 31  1  0
  9 32  1  0
 10 33  1  0
 13 34  1  0
 13 35  1  0
 16 36  1  0
 18 37  1  0
 19 38  1  0
 21 39  1  0
 22 40  1  0
 23 41  1  0
 24 42  1  0
M  END
>  <meeko>  (14) 
{"free_energy": -9.12, "intermolecular_energy": -11.51, "internal_energy": -1.27, "cluster_size": 10, "cluster_id": 1, "rank_in_cluster": 2}

$$$$

     RDKit          3D

 42 44  0  0  0  0  0  0  0  0999 V2000
  139.1940   67.3850  225.3840 N   0  0  0  0  0  0  0  0  0  0  0  0
  139.6330   68.3910  225.7540 C   0  0  0  0  0  0  0  0  0  0  0  0
  140.1740   69.6480  226.2180 C   0  0  0  0  0  0  0  0  0  0  0  0
  140.5610   69.7610  227.5610 C   0  0  0  0  0  0  0  0  0  0  0  0
  141.0880   70.9620  228.0440 C   0  0  0  0  0  0  0  0  0  0  0  0
  141.2340   72.0570  227.1890 C   0  0  0  0  0  0  0  0  0  0  0  0
  140.8530   71.9550  225.8480 C   0  0  0  0  0  0  0  0  0  0  0  0
  140.3150   70.7560  225.3480 C   0  0  0  0  0  0  0  0  0  0  0  0
  139.9440   70.6640  223.8860 C   0  0  0  0  0  0  0  0  0  0  0  0
  140.0980   71.9690  223.2460 N   0  0  0  0  0  0  0  0  0  0  0  0
  140.7060   72.1260  221.9560 C   0  0  0  0  0  0  0  0  0  0  0  0
  141.1860   71.1270  221.3520 O   0  0  0  0  0  0  0  0  0  0  0  0
  140.7400   73.4710  221.2930 C   0  0  0  0  0  0  0  0  0  0  0  0
  140.5310   74.5420  222.2660 N   0  0  0  0  0  0  0  0  0  0  0  0
  139.4950   75.3290  222.3330 C   0  0  0  0  0  0  0  0  0  0  0  0
  138.1930   74.8490  222.1600 O   0  0  0  0  0  0  0  0  0  0  0  0
  139.7070   76.7650  222.6010 C   0  0  0  0  0  0  0  0  0  0  0  0
  138.6170   77.6460  222.7230 C   0  0  0  0  0  0  0  0  0  0  0  0
  138.8490   79.0000  222.9760 C   0  0  0  0  0  0  0  0  0  0  0  0
  140.1610   79.4720  223.1040 C   0  0  0  0  0  0  0  0  0  0  0  0
  140.4290   80.8260  223.3590 C   0  0  0  0  0  0  0  0  0  0  0  0
  141.7530   81.2650  223.4810 C   0  0  0  0  0  0  0  0  0  0  0  0
  142.8110   80.3570  223.3560 C   0  0  0  0  0  0  0  0  0  0  0  0
  142.5520   79.0060  223.1040 C   0  0  0  0  0  0  0  0  0  0  0  0
  141.2320   78.5580  222.9770 C   0  0  0  0  0  0  0  0  0  0  0  0
  140.9760   77.2460  222.7310 N   0  0  0  0  0  0  0  0  0  0  0  0
  140.4494   68.9007  228.2373 H   0  0  0  0  0  0  0  0  0  0  0  0
  141.3882   71.0451  229.0990 H   0  0  0  0  0  0  0  0  0  0  0  0
  141.6494   73.0009  227.5716 H   0  0  0  0  0  0  0  0  0  0  0  0
  140.9750   72.8194  225.1787 H   0  0  0  0  0  0  0  0  0  0  0  0
  140.6011   69.9352  223.3890 H   0  0  0  0  0  0  0  0  0  0  0  0
  138.8957   70.3421  223.8000 H   0  0  0  0  0  0  0  0  0  0  0  0
  139.7390   72.8130  223.7480 H   0  0  0  0  0  0  0  0  0  0  0  0
  141.7190   73.6094  220.8109 H   0  0  0  0  0  0  0  0  0  0  0  0
  139.9327   73.5137  220.5471 H   0  0  0  0  0  0  0  0  0  0  0  0
  137.7540   74.1890  222.7900 H   0  0  0  0  0  0  0  0  0  0  0  0
  137.5881   77.2708  222.6198 H   0  0  0  0  0  0  0  0  0  0  0  0
  138.0019   79.6947  223.0746 H   0  0  0  0  0  0  0  0  0  0  0  0
  139.5999   81.5414  223.4629 H   0  0  0  0  0  0  0  0  0  0  0  0
  141.9625   82.3272  223.6758 H   0  0  0  0  0  0  0  0  0  0  0  0
  143.8490   80.7071  223.4563 H   0  0  0  0  0  0  0  0  0  0  0  0
  143.3858   78.2953  223.0056 H   0  0  0  0  0  0  0  0  0  0  0  0
  1  2  3  0
  2  3  1  0
  3  4  2  0
  4  5  1  0
  5  6  2  0
  6  7  1  0
  7  8  2  0
  8  9  1  0
  9 10  1  0
 10 11  1  0
 11 12  2  0
 11 13  1  0
 13 14  1  0
 14 15  2  0
 15 16  1  0
 15 17  1  0
 17 18  2  0
 18 19  1  0
 19 20  2  0
 20 21  1  0
 21 22  2  0
 22 23  1  0
 23 24  2  0
 24 25  1  0
 25 26  2  0
  8  3  1  0
 26 17  1  0
 25 20  1  0
  4 27  1  0
  5 28  1  0
  6 29  1  0
  7 30  1  0
  9 31  1  0
  9 32  1  0
 10 33  1  0
 13 34  1  0
 13 35  1  0
 16 36  1  0
 18 37  1  0
 19 38  1  0
 21 39  1  0
 22 40  1  0
 23 41  1  0
 24 42  1  0
M  END
>  <meeko>  (15) 
{"free_energy": -9.28, "intermolecular_energy": -11.66, "internal_energy": -1.15, "cluster_size": 10, "cluster_id": 1, "rank_in_cluster": 1}

$$$$

     RDKit          3D

 42 44  0  0  0  0  0  0  0  0999 V2000
  138.9650   67.3900  224.5190 N   0  0  0  0  0  0  0  0  0  0  0  0
  139.4100   68.3360  225.0160 C   0  0  0  0  0  0  0  0  0  0  0  0
  139.9720   69.5150  225.6340 C   0  0  0  0  0  0  0  0  0  0  0  0
  140.5700   69.3950  226.8960 C   0  0  0  0  0  0  0  0  0  0  0  0
  141.1240   70.5150  227.5230 C   0  0  0  0  0  0  0  0  0  0  0  0
  141.0860   71.7610  226.8920 C   0  0  0  0  0  0  0  0  0  0  0  0
  140.4940   71.8920  225.6340 C   0  0  0  0  0  0  0  0  0  0  0  0
  139.9260   70.7760  224.9920 C   0  0  0  0  0  0  0  0  0  0  0  0
  139.3250   70.9410  223.6160 C   0  0  0  0  0  0  0  0  0  0  0  0
  139.8980   72.1100  222.9530 N   0  0  0  0  0  0  0  0  0  0  0  0
  140.7460   72.0020  221.8000 C   0  0  0  0  0  0  0  0  0  0  0  0
  141.0700   70.8680  221.3530 O   0  0  0  0  0  0  0  0  0  0  0  0
  141.2190   73.2350  221.0890 C   0  0  0  0  0  0  0  0  0  0  0  0
  141.0870   74.4160  221.9410 N   0  0  0  0  0  0  0  0  0  0  0  0
  140.0480   75.1990  222.0140 C   0  0  0  0  0  0  0  0  0  0  0  0
  138.7510   74.6910  222.1330 O   0  0  0  0  0  0  0  0  0  0  0  0
  140.2520   76.6600  221.9720 C   0  0  0  0  0  0  0  0  0  0  0  0
  139.6010   77.4530  221.0110 C   0  0  0  0  0  0  0  0  0  0  0  0
  139.8150   78.8340  220.9950 C   0  0  0  0  0  0  0  0  0  0  0  0
  140.6750   79.4180  221.9330 C   0  0  0  0  0  0  0  0  0  0  0  0
  140.9110   80.8010  221.9450 C   0  0  0  0  0  0  0  0  0  0  0  0
  141.7770   81.3540  222.8960 C   0  0  0  0  0  0  0  0  0  0  0  0
  142.4050   80.5310  223.8390 C   0  0  0  0  0  0  0  0  0  0  0  0
  142.1740   79.1510  223.8340 C   0  0  0  0  0  0  0  0  0  0  0  0
  141.3120   78.5900  222.8850 C   0  0  0  0  0  0  0  0  0  0  0  0
  141.0840   77.2500  222.8760 N   0  0  0  0  0  0  0  0  0  0  0  0
  140.6036   68.4154  227.3952 H   0  0  0  0  0  0  0  0  0  0  0  0
  141.5903   70.4152  228.5142 H   0  0  0  0  0  0  0  0  0  0  0  0
  141.5233   72.6406  227.3871 H   0  0  0  0  0  0  0  0  0  0  0  0
  140.4715   72.8751  225.1411 H   0  0  0  0  0  0  0  0  0  0  0  0
  139.5367   70.0431  223.0168 H   0  0  0  0  0  0  0  0  0  0  0  0
  138.2381   71.0797  223.7129 H   0  0  0  0  0  0  0  0  0  0  0  0
  139.6700   73.0580  223.3320 H   0  0  0  0  0  0  0  0  0  0  0  0
  142.2761   73.1074  220.8127 H   0  0  0  0  0  0  0  0  0  0  0  0
  140.6001   73.3803  220.1913 H   0  0  0  0  0  0  0  0  0  0  0  0
  138.3880   74.2820  222.9850 H   0  0  0  0  0  0  0  0  0  0  0  0
  138.9270   76.9892  220.2758 H   0  0  0  0  0  0  0  0  0  0  0  0
  139.3086   79.4612  220.2466 H   0  0  0  0  0  0  0  0  0  0  0  0
  140.4160   81.4503  221.2078 H   0  0  0  0  0  0  0  0  0  0  0  0
  141.9646   82.4379  222.9024 H   0  0  0  0  0  0  0  0  0  0  0  0
  143.0821   80.9708  224.5861 H   0  0  0  0  0  0  0  0  0  0  0  0
  142.6697   78.5074  224.5756 H   0  0  0  0  0  0  0  0  0  0  0  0
  1  2  3  0
  2  3  1  0
  3  4  2  0
  4  5  1  0
  5  6  2  0
  6  7  1  0
  7  8  2  0
  8  9  1  0
  9 10  1  0
 10 11  1  0
 11 12  2  0
 11 13  1  0
 13 14  1  0
 14 15  2  0
 15 16  1  0
 15 17  1  0
 17 18  2  0
 18 19  1  0
 19 20  2  0
 20 21  1  0
 21 22  2  0
 22 23  1  0
 23 24  2  0
 24 25  1  0
 25 26  2  0
  8  3  1  0
 26 17  1  0
 25 20  1  0
  4 27  1  0
  5 28  1  0
  6 29  1  0
  7 30  1  0
  9 31  1  0
  9 32  1  0
 10 33  1  0
 13 34  1  0
 13 35  1  0
 16 36  1  0
 18 37  1  0
 19 38  1  0
 21 39  1  0
 22 40  1  0
 23 41  1  0
 24 42  1  0
M  END
>  <meeko>  (16) 
{"free_energy": -8.27, "intermolecular_energy": -10.65, "internal_energy": -1.71, "cluster_size": 10, "cluster_id": 1, "rank_in_cluster": 7}

$$$$

     RDKit          3D

 42 44  0  0  0  0  0  0  0  0999 V2000
  137.8830   75.1260  221.3000 N   0  0  0  0  0  0  0  0  0  0  0  0
  138.6850   75.9420  221.4760 C   0  0  0  0  0  0  0  0  0  0  0  0
  139.6910   76.9560  221.6990 C   0  0  0  0  0  0  0  0  0  0  0  0
  139.4880   77.8940  222.7200 C   0  0  0  0  0  0  0  0  0  0  0  0
  140.4400   78.8890  222.9630 C   0  0  0  0  0  0  0  0  0  0  0  0
  141.6010   78.9500  222.1890 C   0  0  0  0  0  0  0  0  0  0  0  0
  141.8140   78.0200  221.1690 C   0  0  0  0  0  0  0  0  0  0  0  0
  140.8630   77.0170  220.9070 C   0  0  0  0  0  0  0  0  0  0  0  0
  141.1380   76.0030  219.8210 C   0  0  0  0  0  0  0  0  0  0  0  0
  141.1550   74.6550  220.3840 N   0  0  0  0  0  0  0  0  0  0  0  0
  142.3370   73.8420  220.3960 C   0  0  0  0  0  0  0  0  0  0  0  0
  143.4010   74.2560  219.8590 O   0  0  0  0  0  0  0  0  0  0  0  0
  142.3330   72.5090  221.0850 C   0  0  0  0  0  0  0  0  0  0  0  0
  140.9780   72.1220  221.4710 N   0  0  0  0  0  0  0  0  0  0  0  0
  140.3510   72.4900  222.5530 C   0  0  0  0  0  0  0  0  0  0  0  0
  139.7930   73.7660  222.6810 O   0  0  0  0  0  0  0  0  0  0  0  0
  140.2280   71.5320  223.6680 C   0  0  0  0  0  0  0  0  0  0  0  0
  139.6480   70.2650  223.4720 C   0  0  0  0  0  0  0  0  0  0  0  0
  139.5450   69.3790  224.5470 C   0  0  0  0  0  0  0  0  0  0  0  0
  140.0160   69.7570  225.8110 C   0  0  0  0  0  0  0  0  0  0  0  0
  139.9270   68.8910  226.9120 C   0  0  0  0  0  0  0  0  0  0  0  0
  140.4070   69.3000  228.1620 C   0  0  0  0  0  0  0  0  0  0  0  0
  140.9800   70.5680  228.3170 C   0  0  0  0  0  0  0  0  0  0  0  0
  141.0720   71.4360  227.2240 C   0  0  0  0  0  0  0  0  0  0  0  0
  140.5930   71.0370  225.9710 C   0  0  0  0  0  0  0  0  0  0  0  0
  140.6800   71.8780  224.9060 N   0  0  0  0  0  0  0  0  0  0  0  0
  138.5758   77.8474  223.3330 H   0  0  0  0  0  0  0  0  0  0  0  0
  140.2744   79.6242  223.7643 H   0  0  0  0  0  0  0  0  0  0  0  0
  142.3494   79.7324  222.3832 H   0  0  0  0  0  0  0  0  0  0  0  0
  142.7324   78.0722  220.5659 H   0  0  0  0  0  0  0  0  0  0  0  0
  140.3507   76.0675  219.0555 H   0  0  0  0  0  0  0  0  0  0  0  0
  142.1181   76.2165  219.3695 H   0  0  0  0  0  0  0  0  0  0  0  0
  140.2730   74.2790  220.8010 H   0  0  0  0  0  0  0  0  0  0  0  0
  142.7429   71.7502  220.4023 H   0  0  0  0  0  0  0  0  0  0  0  0
  142.9482   72.5830  221.9939 H   0  0  0  0  0  0  0  0  0  0  0  0
  138.8120   73.9290  222.8740 H   0  0  0  0  0  0  0  0  0  0  0  0
  139.2778   69.9739  222.4779 H   0  0  0  0  0  0  0  0  0  0  0  0
  139.0947   68.3860  224.4012 H   0  0  0  0  0  0  0  0  0  0  0  0
  139.4809   67.8926  226.7930 H   0  0  0  0  0  0  0  0  0  0  0  0
  140.3337   68.6226  229.0255 H   0  0  0  0  0  0  0  0  0  0  0  0
  141.3588   70.8824  229.3007 H   0  0  0  0  0  0  0  0  0  0  0  0
  141.5209   72.4324  227.3493 H   0  0  0  0  0  0  0  0  0  0  0  0
  1  2  3  0
  2  3  1  0
  3  4  2  0
  4  5  1  0
  5  6  2  0
  6  7  1  0
  7  8  2  0
  8  9  1  0
  9 10  1  0
 10 11  1  0
 11 12  2  0
 11 13  1  0
 13 14  1  0
 14 15  2  0
 15 16  1  0
 15 17  1  0
 17 18  2  0
 18 19  1  0
 19 20  2  0
 20 21  1  0
 21 22  2  0
 22 23  1  0
 23 24  2  0
 24 25  1  0
 25 26  2  0
  8  3  1  0
 26 17  1  0
 25 20  1  0
  4 27  1  0
  5 28  1  0
  6 29  1  0
  7 30  1  0
  9 31  1  0
  9 32  1  0
 10 33  1  0
 13 34  1  0
 13 35  1  0
 16 36  1  0
 18 37  1  0
 19 38  1  0
 21 39  1  0
 22 40  1  0
 23 41  1  0
 24 42  1  0
M  END
>  <meeko>  (17) 
{"free_energy": -7.01, "intermolecular_energy": -9.39, "internal_energy": -2.8, "cluster_size": 6, "cluster_id": 2, "rank_in_cluster": 5}

$$$$

     RDKit          3D

 42 44  0  0  0  0  0  0  0  0999 V2000
  139.1990   67.4350  225.3370 N   0  0  0  0  0  0  0  0  0  0  0  0
  139.6000   68.4250  225.7840 C   0  0  0  0  0  0  0  0  0  0  0  0
  140.1010   69.6580  226.3480 C   0  0  0  0  0  0  0  0  0  0  0  0
  140.2830   69.7390  227.7360 C   0  0  0  0  0  0  0  0  0  0  0  0
  140.7650   70.9160  228.3150 C   0  0  0  0  0  0  0  0  0  0  0  0
  141.0700   72.0180  227.5130 C   0  0  0  0  0  0  0  0  0  0  0  0
  140.8930   71.9480  226.1290 C   0  0  0  0  0  0  0  0  0  0  0  0
  140.4030   70.7730  225.5300 C   0  0  0  0  0  0  0  0  0  0  0  0
  140.2560   70.7150  224.0270 C   0  0  0  0  0  0  0  0  0  0  0  0
  139.5200   71.8830  223.5480 N   0  0  0  0  0  0  0  0  0  0  0  0
  138.3720   71.7720  222.6950 C   0  0  0  0  0  0  0  0  0  0  0  0
  137.9930   70.6420  222.2820 O   0  0  0  0  0  0  0  0  0  0  0  0
  137.5860   72.9930  222.3210 C   0  0  0  0  0  0  0  0  0  0  0  0
  138.4050   73.9320  221.5560 N   0  0  0  0  0  0  0  0  0  0  0  0
  139.4860   74.5270  221.9740 C   0  0  0  0  0  0  0  0  0  0  0  0
  140.6970   73.8410  222.1140 O   0  0  0  0  0  0  0  0  0  0  0  0
  139.4270   75.9640  222.3050 C   0  0  0  0  0  0  0  0  0  0  0  0
  138.1940   76.6300  222.4150 C   0  0  0  0  0  0  0  0  0  0  0  0
  138.1690   77.9920  222.7280 C   0  0  0  0  0  0  0  0  0  0  0  0
  139.3700   78.6830  222.9300 C   0  0  0  0  0  0  0  0  0  0  0  0
  139.3810   80.0500  223.2470 C   0  0  0  0  0  0  0  0  0  0  0  0
  140.5990   80.7120  223.4420 C   0  0  0  0  0  0  0  0  0  0  0  0
  141.8070   80.0130  223.3260 C   0  0  0  0  0  0  0  0  0  0  0  0
  141.8050   78.6510  223.0120 C   0  0  0  0  0  0  0  0  0  0  0  0
  140.5910   77.9810  222.8130 C   0  0  0  0  0  0  0  0  0  0  0  0
  140.5840   76.6560  222.5070 N   0  0  0  0  0  0  0  0  0  0  0  0
  140.0455   68.8730  228.3713 H   0  0  0  0  0  0  0  0  0  0  0  0
  140.9044   70.9746  229.4046 H   0  0  0  0  0  0  0  0  0  0  0  0
  141.4502   72.9426  227.9719 H   0  0  0  0  0  0  0  0  0  0  0  0
  141.1386   72.8183  225.5027 H   0  0  0  0  0  0  0  0  0  0  0  0
  141.2539   70.6991  223.5644 H   0  0  0  0  0  0  0  0  0  0  0  0
  139.7021   69.8044  223.7547 H   0  0  0  0  0  0  0  0  0  0  0  0
  139.8430   72.8310  223.8510 H   0  0  0  0  0  0  0  0  0  0  0  0
  136.7215   72.6911  221.7115 H   0  0  0  0  0  0  0  0  0  0  0  0
  137.2534   73.4908  223.2438 H   0  0  0  0  0  0  0  0  0  0  0  0
  141.6020   74.2910  222.0650 H   0  0  0  0  0  0  0  0  0  0  0  0
  137.2536   76.0821  222.2556 H   0  0  0  0  0  0  0  0  0  0  0  0
  137.2079   78.5199  222.8155 H   0  0  0  0  0  0  0  0  0  0  0  0
  138.4336   80.6008  223.3421 H   0  0  0  0  0  0  0  0  0  0  0  0
  140.6072   81.7843  223.6871 H   0  0  0  0  0  0  0  0  0  0  0  0
  142.7610   80.5378  223.4826 H   0  0  0  0  0  0  0  0  0  0  0  0
  142.7560   78.1057  222.9212 H   0  0  0  0  0  0  0  0  0  0  0  0
  1  2  3  0
  2  3  1  0
  3  4  2  0
  4  5  1  0
  5  6  2  0
  6  7  1  0
  7  8  2  0
  8  9  1  0
  9 10  1  0
 10 11  1  0
 11 12  2  0
 11 13  1  0
 13 14  1  0
 14 15  2  0
 15 16  1  0
 15 17  1  0
 17 18  2  0
 18 19  1  0
 19 20  2  0
 20 21  1  0
 21 22  2  0
 22 23  1  0
 23 24  2  0
 24 25  1  0
 25 26  2  0
  8  3  1  0
 26 17  1  0
 25 20  1  0
  4 27  1  0
  5 28  1  0
  6 29  1  0
  7 30  1  0
  9 31  1  0
  9 32  1  0
 10 33  1  0
 13 34  1  0
 13 35  1  0
 16 36  1  0
 18 37  1  0
 19 38  1  0
 21 39  1  0
 22 40  1  0
 23 41  1  0
 24 42  1  0
M  END
>  <meeko>  (18) 
{"free_energy": -8.25, "intermolecular_energy": -10.63, "internal_energy": -1.73, "cluster_size": 10, "cluster_id": 1, "rank_in_cluster": 8}

$$$$

     RDKit          3D

 42 44  0  0  0  0  0  0  0  0999 V2000
  139.1960   67.3330  226.1660 N   0  0  0  0  0  0  0  0  0  0  0  0
  139.6510   68.3690  226.4130 C   0  0  0  0  0  0  0  0  0  0  0  0
  140.2140   69.6630  226.7270 C   0  0  0  0  0  0  0  0  0  0  0  0
  140.8130   69.8510  227.9800 C   0  0  0  0  0  0  0  0  0  0  0  0
  141.3680   71.0890  228.3170 C   0  0  0  0  0  0  0  0  0  0  0  0
  141.3310   72.1450  227.4030 C   0  0  0  0  0  0  0  0  0  0  0  0
  140.7370   71.9680  226.1510 C   0  0  0  0  0  0  0  0  0  0  0  0
  140.1690   70.7310  225.7980 C   0  0  0  0  0  0  0  0  0  0  0  0
  139.5660   70.5590  224.4240 C   0  0  0  0  0  0  0  0  0  0  0  0
  140.4040   71.2120  223.4210 N   0  0  0  0  0  0  0  0  0  0  0  0
  139.8590   72.0300  222.3770 C   0  0  0  0  0  0  0  0  0  0  0  0
  138.6100   72.1640  222.2600 O   0  0  0  0  0  0  0  0  0  0  0  0
  140.7670   72.7690  221.4400 C   0  0  0  0  0  0  0  0  0  0  0  0
  141.0450   74.1180  221.9310 N   0  0  0  0  0  0  0  0  0  0  0  0
  140.2050   75.1130  221.9630 C   0  0  0  0  0  0  0  0  0  0  0  0
  138.8320   74.9120  222.1380 O   0  0  0  0  0  0  0  0  0  0  0  0
  140.7210   76.4870  221.8120 C   0  0  0  0  0  0  0  0  0  0  0  0
  140.9140   77.0510  220.5380 C   0  0  0  0  0  0  0  0  0  0  0  0
  141.4040   78.3540  220.4260 C   0  0  0  0  0  0  0  0  0  0  0  0
  141.7020   79.0890  221.5800 C   0  0  0  0  0  0  0  0  0  0  0  0
  142.1960   80.4000  221.5040 C   0  0  0  0  0  0  0  0  0  0  0  0
  142.4850   81.1080  222.6770 C   0  0  0  0  0  0  0  0  0  0  0  0
  142.2770   80.5130  223.9270 C   0  0  0  0  0  0  0  0  0  0  0  0
  141.7840   79.2070  224.0120 C   0  0  0  0  0  0  0  0  0  0  0  0
  141.4950   78.4910  222.8440 C   0  0  0  0  0  0  0  0  0  0  0  0
  141.0160   77.2210  222.9220 N   0  0  0  0  0  0  0  0  0  0  0  0
  140.8466   69.0211  228.7012 H   0  0  0  0  0  0  0  0  0  0  0  0
  141.8344   71.2319  229.3029 H   0  0  0  0  0  0  0  0  0  0  0  0
  141.7704   73.1175  227.6697 H   0  0  0  0  0  0  0  0  0  0  0  0
  140.7134   72.8031  225.4355 H   0  0  0  0  0  0  0  0  0  0  0  0
  139.4902   69.4864  224.1919 H   0  0  0  0  0  0  0  0  0  0  0  0
  138.5661   71.0172  224.4104 H   0  0  0  0  0  0  0  0  0  0  0  0
  141.4410   71.0830  223.4800 H   0  0  0  0  0  0  0  0  0  0  0  0
  141.7144   72.2177  221.3484 H   0  0  0  0  0  0  0  0  0  0  0  0
  140.2699   72.8487  220.4620 H   0  0  0  0  0  0  0  0  0  0  0  0
  138.4460   74.2510  222.8010 H   0  0  0  0  0  0  0  0  0  0  0  0
  140.6802   76.4688  219.6345 H   0  0  0  0  0  0  0  0  0  0  0  0
  141.5556   78.8021  219.4329 H   0  0  0  0  0  0  0  0  0  0  0  0
  142.3562   80.8715  220.5232 H   0  0  0  0  0  0  0  0  0  0  0  0
  142.8764   82.1342  222.6161 H   0  0  0  0  0  0  0  0  0  0  0  0
  142.5021   81.0747  224.8456 H   0  0  0  0  0  0  0  0  0  0  0  0
  141.6233   78.7425  224.9961 H   0  0  0  0  0  0  0  0  0  0  0  0
  1  2  3  0
  2  3  1  0
  3  4  2  0
  4  5  1  0
  5  6  2  0
  6  7  1  0
  7  8  2  0
  8  9  1  0
  9 10  1  0
 10 11  1  0
 11 12  2  0
 11 13  1  0
 13 14  1  0
 14 15  2  0
 15 16  1  0
 15 17  1  0
 17 18  2  0
 18 19  1  0
 19 20  2  0
 20 21  1  0
 21 22  2  0
 22 23  1  0
 23 24  2  0
 24 25  1  0
 25 26  2  0
  8  3  1  0
 26 17  1  0
 25 20  1  0
  4 27  1  0
  5 28  1  0
  6 29  1  0
  7 30  1  0
  9 31  1  0
  9 32  1  0
 10 33  1  0
 13 34  1  0
 13 35  1  0
 16 36  1  0
 18 37  1  0
 19 38  1  0
 21 39  1  0
 22 40  1  0
 23 41  1  0
 24 42  1  0
M  END
>  <meeko>  (19) 
{"free_energy": -8.99, "intermolecular_energy": -11.38, "internal_energy": -1.32, "cluster_size": 10, "cluster_id": 1, "rank_in_cluster": 4}

$$$$

     RDKit          3D

 42 44  0  0  0  0  0  0  0  0999 V2000
  139.1780   67.7990  224.8750 N   0  0  0  0  0  0  0  0  0  0  0  0
  139.4360   68.6710  225.5920 C   0  0  0  0  0  0  0  0  0  0  0  0
  139.7520   69.7610  226.4870 C   0  0  0  0  0  0  0  0  0  0  0  0
  139.3270   69.6830  227.8200 C   0  0  0  0  0  0  0  0  0  0  0  0
  139.6150   70.7200  228.7130 C   0  0  0  0  0  0  0  0  0  0  0  0
  140.3310   71.8380  228.2800 C   0  0  0  0  0  0  0  0  0  0  0  0
  140.7600   71.9260  226.9540 C   0  0  0  0  0  0  0  0  0  0  0  0
  140.4740   70.8950  226.0410 C   0  0  0  0  0  0  0  0  0  0  0  0
  140.9820   71.0010  224.6220 C   0  0  0  0  0  0  0  0  0  0  0  0
  139.8730   70.8680  223.6790 N   0  0  0  0  0  0  0  0  0  0  0  0
  139.5110   71.9130  222.7650 C   0  0  0  0  0  0  0  0  0  0  0  0
  140.1180   73.0190  222.7900 O   0  0  0  0  0  0  0  0  0  0  0  0
  138.4380   71.6870  221.7420 C   0  0  0  0  0  0  0  0  0  0  0  0
  137.1350   71.5010  222.3800 N   0  0  0  0  0  0  0  0  0  0  0  0
  136.8360   70.5960  223.2680 C   0  0  0  0  0  0  0  0  0  0  0  0
  137.4400   69.3340  223.2660 O   0  0  0  0  0  0  0  0  0  0  0  0
  135.8340   70.9160  224.3030 C   0  0  0  0  0  0  0  0  0  0  0  0
  135.3510   69.9220  225.1730 C   0  0  0  0  0  0  0  0  0  0  0  0
  134.4010   70.2550  226.1430 C   0  0  0  0  0  0  0  0  0  0  0  0
  133.9360   71.5720  226.2400 C   0  0  0  0  0  0  0  0  0  0  0  0
  132.9830   71.9410  227.2020 C   0  0  0  0  0  0  0  0  0  0  0  0
  132.5380   73.2660  227.2730 C   0  0  0  0  0  0  0  0  0  0  0  0
  133.0440   74.2270  226.3900 C   0  0  0  0  0  0  0  0  0  0  0  0
  133.9950   73.8690  225.4290 C   0  0  0  0  0  0  0  0  0  0  0  0
  134.4440   72.5450  225.3490 C   0  0  0  0  0  0  0  0  0  0  0  0
  135.3680   72.1920  224.4170 N   0  0  0  0  0  0  0  0  0  0  0  0
  138.7648   68.8028  228.1653 H   0  0  0  0  0  0  0  0  0  0  0  0
  139.2771   70.6549  229.7578 H   0  0  0  0  0  0  0  0  0  0  0  0
  140.5576   72.6513  228.9851 H   0  0  0  0  0  0  0  0  0  0  0  0
  141.3260   72.8085  226.6209 H   0  0  0  0  0  0  0  0  0  0  0  0
  141.4642   71.9795  224.4806 H   0  0  0  0  0  0  0  0  0  0  0  0
  141.7082   70.1953  224.4390 H   0  0  0  0  0  0  0  0  0  0  0  0
  139.3340   69.9720  223.6700 H   0  0  0  0  0  0  0  0  0  0  0  0
  138.3896   72.5589  221.0731 H   0  0  0  0  0  0  0  0  0  0  0  0
  138.6824   70.7776  221.1735 H   0  0  0  0  0  0  0  0  0  0  0  0
  137.4190   68.7050  224.0590 H   0  0  0  0  0  0  0  0  0  0  0  0
  135.7187   68.8885  225.0906 H   0  0  0  0  0  0  0  0  0  0  0  0
  134.0196   69.4839  226.8286 H   0  0  0  0  0  0  0  0  0  0  0  0
  132.5860   71.1891  227.8999 H   0  0  0  0  0  0  0  0  0  0  0  0
  131.7883   73.5531  228.0250 H   0  0  0  0  0  0  0  0  0  0  0  0
  132.6925   75.2675  226.4521 H   0  0  0  0  0  0  0  0  0  0  0  0
  134.3900   74.6269  224.7365 H   0  0  0  0  0  0  0  0  0  0  0  0
  1  2  3  0
  2  3  1  0
  3  4  2  0
  4  5  1  0
  5  6  2  0
  6  7  1  0
  7  8  2  0
  8  9  1  0
  9 10  1  0
 10 11  1  0
 11 12  2  0
 11 13  1  0
 13 14  1  0
 14 15  2  0
 15 16  1  0
 15 17  1  0
 17 18  2  0
 18 19  1  0
 19 20  2  0
 20 21  1  0
 21 22  2  0
 22 23  1  0
 23 24  2  0
 24 25  1  0
 25 26  2  0
  8  3  1  0
 26 17  1  0
 25 20  1  0
  4 27  1  0
  5 28  1  0
  6 29  1  0
  7 30  1  0
  9 31  1  0
  9 32  1  0
 10 33  1  0
 13 34  1  0
 13 35  1  0
 16 36  1  0
 18 37  1  0
 19 38  1  0
 21 39  1  0
 22 40  1  0
 23 41  1  0
 24 42  1  0
M  END
>  <meeko>  (20) 
{"free_energy": -6.58, "intermolecular_energy": -8.97, "internal_energy": -2.95, "cluster_size": 3, "cluster_id": 3, "rank_in_cluster": 3}

$$$$
