
     RDKit          3D

 52 55  0  0  0  0  0  0  0  0999 V2000
  140.4140   70.8800  221.3010 O   0  0  0  0  0  0  0  0  0  0  0  0
  140.1010   71.4670  222.3750 C   0  0  0  0  0  0  0  0  0  0  0  0
  139.8830   72.8850  222.3700 N   0  0  0  0  0  0  0  0  0  0  0  0
  139.9400   73.6600  221.1300 C   0  0  0  0  0  0  0  0  0  0  0  0
  140.3860   75.0800  221.4010 C   0  0  0  0  0  0  0  0  0  0  0  0
  139.9170   75.6310  222.6020 O   0  0  0  0  0  0  0  0  0  0  0  0
  141.1490   75.7710  220.5630 N   0  0  0  0  0  0  0  0  0  0  0  0
  141.3330   77.2260  220.8050 C   0  0  0  0  0  0  0  0  0  0  0  0
  141.8100   78.0250  219.5900 C   0  0  0  0  0  0  0  0  0  0  0  0
  142.9140   77.3040  218.8420 C   0  0  0  0  0  0  0  0  0  0  0  0
  142.3670   75.9830  218.3330 C   0  0  0  0  0  0  0  0  0  0  0  0
  141.9040   75.0650  219.4810 C   0  0  1  0  0  0  0  0  0  0  0  0
  143.0850   74.2820  220.0400 C   0  0  0  0  0  0  0  0  0  0  0  0
  144.3240   74.8940  220.3110 C   0  0  0  0  0  0  0  0  0  0  0  0
  145.3950   74.1420  220.8010 C   0  0  0  0  0  0  0  0  0  0  0  0
  145.2470   72.7690  221.0160 C   0  0  0  0  0  0  0  0  0  0  0  0
  144.0290   72.1470  220.7370 C   0  0  0  0  0  0  0  0  0  0  0  0
  142.9550   72.8950  220.2470 C   0  0  0  0  0  0  0  0  0  0  0  0
  139.9580   70.6880  223.6230 C   0  0  0  0  0  0  0  0  0  0  0  0
  139.2540   69.4710  223.6420 C   0  0  0  0  0  0  0  0  0  0  0  0
  139.1310   68.7600  224.8370 C   0  0  0  0  0  0  0  0  0  0  0  0
  139.7070   69.2610  226.0100 C   0  0  0  0  0  0  0  0  0  0  0  0
  139.6020   68.5730  227.2280 C   0  0  0  0  0  0  0  0  0  0  0  0
  140.1900   69.1010  228.3810 C   0  0  0  0  0  0  0  0  0  0  0  0
  140.8820   70.3160  228.3250 C   0  0  0  0  0  0  0  0  0  0  0  0
  140.9910   71.0080  227.1150 C   0  0  0  0  0  0  0  0  0  0  0  0
  140.4060   70.4860  225.9550 C   0  0  0  0  0  0  0  0  0  0  0  0
  140.5100   71.1570  224.7770 N   0  0  0  0  0  0  0  0  0  0  0  0
  139.6600   73.3720  223.2680 H   0  0  0  0  0  0  0  0  0  0  0  0
  140.6526   73.1841  220.4403 H   0  0  0  0  0  0  0  0  0  0  0  0
  138.9342   73.6863  220.6854 H   0  0  0  0  0  0  0  0  0  0  0  0
  139.1790   75.2330  223.1680 H   0  0  0  0  0  0  0  0  0  0  0  0
  140.3688   77.6429  221.1313 H   0  0  0  0  0  0  0  0  0  0  0  0
  142.1245   77.3154  221.5636 H   0  0  0  0  0  0  0  0  0  0  0  0
  140.9601   78.1793  218.9090 H   0  0  0  0  0  0  0  0  0  0  0  0
  142.2091   78.9859  219.9471 H   0  0  0  0  0  0  0  0  0  0  0  0
  143.2499   77.9182  217.9935 H   0  0  0  0  0  0  0  0  0  0  0  0
  143.7686   77.1255  219.5111 H   0  0  0  0  0  0  0  0  0  0  0  0
  141.5104   76.1847  217.6730 H   0  0  0  0  0  0  0  0  0  0  0  0
  143.1751   75.4679  217.7929 H   0  0  0  0  0  0  0  0  0  0  0  0
  141.1793   74.3628  219.0431 H   0  0  0  0  0  0  0  0  0  0  0  0
  144.4497   75.9726  220.1356 H   0  0  0  0  0  0  0  0  0  0  0  0
  146.3560   74.6314  221.0178 H   0  0  0  0  0  0  0  0  0  0  0  0
  146.0899   72.1789  221.4049 H   0  0  0  0  0  0  0  0  0  0  0  0
  143.9142   71.0657  220.9032 H   0  0  0  0  0  0  0  0  0  0  0  0
  142.0007   72.3966  220.0212 H   0  0  0  0  0  0  0  0  0  0  0  0
  138.8017   69.0805  222.7184 H   0  0  0  0  0  0  0  0  0  0  0  0
  138.5820   67.8070  224.8567 H   0  0  0  0  0  0  0  0  0  0  0  0
  139.0573   67.6185  227.2757 H   0  0  0  0  0  0  0  0  0  0  0  0
  140.1085   68.5598  229.3352 H   0  0  0  0  0  0  0  0  0  0  0  0
  141.3416   70.7278  229.2356 H   0  0  0  0  0  0  0  0  0  0  0  0
  141.5363   71.9625  227.0744 H   0  0  0  0  0  0  0  0  0  0  0  0
  1  2  2  0
  2  3  1  0
  3  4  1  0
  4  5  1  0
  5  6  1  0
  5  7  2  0
  7  8  1  0
  8  9  1  0
  9 10  1  0
 10 11  1  0
 11 12  1  0
 12 13  1  0
 13 14  2  0
 14 15  1  0
 15 16  2  0
 16 17  1  0
 17 18  2  0
  2 19  1  0
 19 20  2  0
 20 21  1  0
 21 22  2  0
 22 23  1  0
 23 24  2  0
 24 25  1  0
 25 26  2  0
 26 27  1  0
 27 28  2  0
 12  7  1  0
 18 13  1  0
 28 19  1  0
 27 22  1  0
  3 29  1  0
  4 30  1  0
  4 31  1  0
  6 32  1  0
  8 33  1  0
  8 34  1  0
  9 35  1  0
  9 36  1  0
 10 37  1  0
 10 38  1  0
 11 39  1  0
 11 40  1  0
 12 41  1  6
 14 42  1  0
 15 43  1  0
 16 44  1  0
 17 45  1  0
 18 46  1  0
 20 47  1  0
 21 48  1  0
 23 49  1  0
 24 50  1  0
 25 51  1  0
 26 52  1  0
M  CHG  1   7   1
M  END
>  <meeko>  (1) 
{"free_energy": -8.86, "intermolecular_energy": -10.65, "internal_energy": -1.73, "cluster_size": 10, "cluster_id": 1, "rank_in_cluster": 9}

$$$$

     RDKit          3D

 52 55  0  0  0  0  0  0  0  0999 V2000
  141.4360   74.8130  221.1660 O   0  0  0  0  0  0  0  0  0  0  0  0
  140.4410   75.1720  221.8550 C   0  0  0  0  0  0  0  0  0  0  0  0
  139.4390   74.2070  222.2080 N   0  0  0  0  0  0  0  0  0  0  0  0
  139.5810   72.7960  221.8510 C   0  0  0  0  0  0  0  0  0  0  0  0
  138.4460   71.9760  222.4250 C   0  0  0  0  0  0  0  0  0  0  0  0
  137.3150   72.7120  222.8040 O   0  0  0  0  0  0  0  0  0  0  0  0
  138.5130   70.6600  222.5810 N   0  0  0  0  0  0  0  0  0  0  0  0
  139.1050   69.8440  221.4880 C   0  0  0  0  0  0  0  0  0  0  0  0
  138.7350   68.3590  221.5210 C   0  0  0  0  0  0  0  0  0  0  0  0
  138.8110   67.7930  222.9250 C   0  0  0  0  0  0  0  0  0  0  0  0
  137.8110   68.5310  223.7960 C   0  0  0  0  0  0  0  0  0  0  0  0
  138.1200   70.0380  223.8840 C   0  0  1  0  0  0  0  0  0  0  0  0
  139.1560   70.3030  224.9680 C   0  0  0  0  0  0  0  0  0  0  0  0
  139.1540   69.5990  226.1880 C   0  0  0  0  0  0  0  0  0  0  0  0
  140.1040   69.8830  227.1720 C   0  0  0  0  0  0  0  0  0  0  0  0
  141.0620   70.8770  226.9570 C   0  0  0  0  0  0  0  0  0  0  0  0
  141.0660   71.5930  225.7590 C   0  0  0  0  0  0  0  0  0  0  0  0
  140.1170   71.3130  224.7710 C   0  0  0  0  0  0  0  0  0  0  0  0
  140.3200   76.5780  222.2960 C   0  0  0  0  0  0  0  0  0  0  0  0
  139.0610   77.1740  222.4800 C   0  0  0  0  0  0  0  0  0  0  0  0
  138.9770   78.5060  222.8930 C   0  0  0  0  0  0  0  0  0  0  0  0
  140.1470   79.2390  223.1210 C   0  0  0  0  0  0  0  0  0  0  0  0
  140.1000   80.5790  223.5360 C   0  0  0  0  0  0  0  0  0  0  0  0
  141.2880   81.2840  223.7550 C   0  0  0  0  0  0  0  0  0  0  0  0
  142.5240   80.6570  223.5610 C   0  0  0  0  0  0  0  0  0  0  0  0
  142.5790   79.3230  223.1480 C   0  0  0  0  0  0  0  0  0  0  0  0
  141.3950   78.6100  222.9260 C   0  0  0  0  0  0  0  0  0  0  0  0
  141.4450   77.3120  222.5240 N   0  0  0  0  0  0  0  0  0  0  0  0
  138.5980   74.5160  222.7470 H   0  0  0  0  0  0  0  0  0  0  0  0
  139.5764   72.6997  220.7552 H   0  0  0  0  0  0  0  0  0  0  0  0
  140.5288   72.4225  222.2660 H   0  0  0  0  0  0  0  0  0  0  0  0
  137.1560   73.0870  223.7300 H   0  0  0  0  0  0  0  0  0  0  0  0
  138.7648   70.2599  220.5281 H   0  0  0  0  0  0  0  0  0  0  0  0
  140.1958   69.8937  221.6213 H   0  0  0  0  0  0  0  0  0  0  0  0
  137.7089   68.2389  221.1434 H   0  0  0  0  0  0  0  0  0  0  0  0
  139.4532   67.8128  220.8919 H   0  0  0  0  0  0  0  0  0  0  0  0
  138.5668   66.7206  222.9066 H   0  0  0  0  0  0  0  0  0  0  0  0
  139.8269   67.9187  223.3278 H   0  0  0  0  0  0  0  0  0  0  0  0
  136.8051   68.3994  223.3706 H   0  0  0  0  0  0  0  0  0  0  0  0
  137.8728   68.1127  224.8115 H   0  0  0  0  0  0  0  0  0  0  0  0
  137.1761   70.5317  224.1586 H   0  0  0  0  0  0  0  0  0  0  0  0
  138.3987   68.8197  226.3673 H   0  0  0  0  0  0  0  0  0  0  0  0
  140.0978   69.3226  228.1185 H   0  0  0  0  0  0  0  0  0  0  0  0
  141.8124   71.0951  227.7312 H   0  0  0  0  0  0  0  0  0  0  0  0
  141.8171   72.3790  225.5917 H   0  0  0  0  0  0  0  0  0  0  0  0
  140.1213   71.8864  223.8323 H   0  0  0  0  0  0  0  0  0  0  0  0
  138.1442   76.5936  222.2994 H   0  0  0  0  0  0  0  0  0  0  0  0
  137.9938   78.9773  223.0386 H   0  0  0  0  0  0  0  0  0  0  0  0
  139.1298   81.0743  223.6888 H   0  0  0  0  0  0  0  0  0  0  0  0
  141.2507   82.3340  224.0806 H   0  0  0  0  0  0  0  0  0  0  0  0
  143.4554   81.2160  223.7342 H   0  0  0  0  0  0  0  0  0  0  0  0
  143.5525   78.8334  222.9974 H   0  0  0  0  0  0  0  0  0  0  0  0
  1  2  2  0
  2  3  1  0
  3  4  1  0
  4  5  1  0
  5  6  1  0
  5  7  2  0
  7  8  1  0
  8  9  1  0
  9 10  1  0
 10 11  1  0
 11 12  1  0
 12 13  1  0
 13 14  2  0
 14 15  1  0
 15 16  2  0
 16 17  1  0
 17 18  2  0
  2 19  1  0
 19 20  2  0
 20 21  1  0
 21 22  2  0
 22 23  1  0
 23 24  2  0
 24 25  1  0
 25 26  2  0
 26 27  1  0
 27 28  2  0
 12  7  1  0
 18 13  1  0
 28 19  1  0
 27 22  1  0
  3 29  1  0
  4 30  1  0
  4 31  1  0
  6 32  1  0
  8 33  1  0
  8 34  1  0
  9 35  1  0
  9 36  1  0
 10 37  1  0
 10 38  1  0
 11 39  1  0
 11 40  1  0
 12 41  1  1
 14 42  1  0
 15 43  1  0
 16 44  1  0
 17 45  1  0
 18 46  1  0
 20 47  1  0
 21 48  1  0
 23 49  1  0
 24 50  1  0
 25 51  1  0
 26 52  1  0
M  CHG  1   7   1
M  END
>  <meeko>  (2) 
{"free_energy": -8.39, "intermolecular_energy": -10.18, "internal_energy": -1.48, "cluster_size": 2, "cluster_id": 3, "rank_in_cluster": 2}

$$$$

     RDKit          3D

 52 55  0  0  0  0  0  0  0  0999 V2000
  141.3980   72.9530  222.1330 O   0  0  0  0  0  0  0  0  0  0  0  0
  140.2770   72.7460  222.6760 C   0  0  0  0  0  0  0  0  0  0  0  0
  139.1450   73.5410  222.2920 N   0  0  0  0  0  0  0  0  0  0  0  0
  139.2430   74.5400  221.2280 C   0  0  0  0  0  0  0  0  0  0  0  0
  139.7640   75.8550  221.7670 C   0  0  0  0  0  0  0  0  0  0  0  0
  141.1090   75.8430  222.1620 O   0  0  0  0  0  0  0  0  0  0  0  0
  139.0080   76.9400  221.8810 N   0  0  0  0  0  0  0  0  0  0  0  0
  137.7910   76.8700  222.7320 C   0  0  0  0  0  0  0  0  0  0  0  0
  136.7500   77.9570  222.4540 C   0  0  0  0  0  0  0  0  0  0  0  0
  137.3930   79.3190  222.2780 C   0  0  0  0  0  0  0  0  0  0  0  0
  138.3220   79.2600  221.0790 C   0  0  0  0  0  0  0  0  0  0  0  0
  139.4530   78.2310  221.2710 C   0  0  1  0  0  0  0  0  0  0  0  0
  140.6060   78.8530  222.0470 C   0  0  0  0  0  0  0  0  0  0  0  0
  140.7710   78.6440  223.4290 C   0  0  0  0  0  0  0  0  0  0  0  0
  141.8280   79.2480  224.1170 C   0  0  0  0  0  0  0  0  0  0  0  0
  142.7250   80.0750  223.4370 C   0  0  0  0  0  0  0  0  0  0  0  0
  142.5640   80.3030  222.0690 C   0  0  0  0  0  0  0  0  0  0  0  0
  141.5090   79.7010  221.3770 C   0  0  0  0  0  0  0  0  0  0  0  0
  140.1380   71.6850  223.6960 C   0  0  0  0  0  0  0  0  0  0  0  0
  139.4900   70.4740  223.3990 C   0  0  0  0  0  0  0  0  0  0  0  0
  139.3700   69.4910  224.3840 C   0  0  0  0  0  0  0  0  0  0  0  0
  139.8960   69.7170  225.6610 C   0  0  0  0  0  0  0  0  0  0  0  0
  139.7920   68.7520  226.6740 C   0  0  0  0  0  0  0  0  0  0  0  0
  140.3280   69.0090  227.9400 C   0  0  0  0  0  0  0  0  0  0  0  0
  140.9660   70.2270  228.2010 C   0  0  0  0  0  0  0  0  0  0  0  0
  141.0720   71.1930  227.1960 C   0  0  0  0  0  0  0  0  0  0  0  0
  140.5390   70.9450  225.9260 C   0  0  0  0  0  0  0  0  0  0  0  0
  140.6410   71.8830  224.9470 N   0  0  0  0  0  0  0  0  0  0  0  0
  138.2280   73.3920  222.7700 H   0  0  0  0  0  0  0  0  0  0  0  0
  139.9292   74.1722  220.4510 H   0  0  0  0  0  0  0  0  0  0  0  0
  138.2398   74.7054  220.8082 H   0  0  0  0  0  0  0  0  0  0  0  0
  141.7580   75.0910  221.9730 H   0  0  0  0  0  0  0  0  0  0  0  0
  137.3157   75.8914  222.5695 H   0  0  0  0  0  0  0  0  0  0  0  0
  138.1284   77.0220  223.7679 H   0  0  0  0  0  0  0  0  0  0  0  0
  136.2030   77.6998  221.5349 H   0  0  0  0  0  0  0  0  0  0  0  0
  136.0698   78.0084  223.3169 H   0  0  0  0  0  0  0  0  0  0  0  0
  136.6150   80.0778  222.1079 H   0  0  0  0  0  0  0  0  0  0  0  0
  137.9594   79.5887  223.1816 H   0  0  0  0  0  0  0  0  0  0  0  0
  137.7366   78.9817  220.1903 H   0  0  0  0  0  0  0  0  0  0  0  0
  138.7833   80.2514  220.9592 H   0  0  0  0  0  0  0  0  0  0  0  0
  139.8015   77.9603  220.2634 H   0  0  0  0  0  0  0  0  0  0  0  0
  140.0631   78.0006  223.9721 H   0  0  0  0  0  0  0  0  0  0  0  0
  141.9533   79.0716  225.1955 H   0  0  0  0  0  0  0  0  0  0  0  0
  143.5580   80.5465  223.9791 H   0  0  0  0  0  0  0  0  0  0  0  0
  143.2685   80.9575  221.5348 H   0  0  0  0  0  0  0  0  0  0  0  0
  141.3832   79.8911  220.3009 H   0  0  0  0  0  0  0  0  0  0  0  0
  139.0785   70.3007  222.3937 H   0  0  0  0  0  0  0  0  0  0  0  0
  138.8633   68.5415  224.1565 H   0  0  0  0  0  0  0  0  0  0  0  0
  139.2895   67.7944  226.4728 H   0  0  0  0  0  0  0  0  0  0  0  0
  140.2478   68.2512  228.7333 H   0  0  0  0  0  0  0  0  0  0  0  0
  141.3848   70.4246  229.1988 H   0  0  0  0  0  0  0  0  0  0  0  0
  141.5749   72.1490  227.4037 H   0  0  0  0  0  0  0  0  0  0  0  0
  1  2  2  0
  2  3  1  0
  3  4  1  0
  4  5  1  0
  5  6  1  0
  5  7  2  0
  7  8  1  0
  8  9  1  0
  9 10  1  0
 10 11  1  0
 11 12  1  0
 12 13  1  0
 13 14  2  0
 14 15  1  0
 15 16  2  0
 16 17  1  0
 17 18  2  0
  2 19  1  0
 19 20  2  0
 20 21  1  0
 21 22  2  0
 22 23  1  0
 23 24  2  0
 24 25  1  0
 25 26  2  0
 26 27  1  0
 27 28  2  0
 12  7  1  0
 18 13  1  0
 28 19  1  0
 27 22  1  0
  3 29  1  0
  4 30  1  0
  4 31  1  0
  6 32  1  0
  8 33  1  0
  8 34  1  0
  9 35  1  0
  9 36  1  0
 10 37  1  0
 10 38  1  0
 11 39  1  0
 11 40  1  0
 12 41  1  6
 14 42  1  0
 15 43  1  0
 16 44  1  0
 17 45  1  0
 18 46  1  0
 20 47  1  0
 21 48  1  0
 23 49  1  0
 24 50  1  0
 25 51  1  0
 26 52  1  0
M  CHG  1   7   1
M  END
>  <meeko>  (3) 
{"free_energy": -8.53, "intermolecular_energy": -10.32, "internal_energy": -1.77, "cluster_size": 8, "cluster_id": 2, "rank_in_cluster": 5}

$$$$

     RDKit          3D

 52 55  0  0  0  0  0  0  0  0999 V2000
  140.7400   71.6010  221.2510 O   0  0  0  0  0  0  0  0  0  0  0  0
  140.2950   72.1610  222.2910 C   0  0  0  0  0  0  0  0  0  0  0  0
  139.9080   73.5420  222.2420 N   0  0  0  0  0  0  0  0  0  0  0  0
  139.9470   74.3000  220.9920 C   0  0  0  0  0  0  0  0  0  0  0  0
  140.9560   75.4240  221.0720 C   0  0  0  0  0  0  0  0  0  0  0  0
  141.0850   76.0170  222.3360 O   0  0  0  0  0  0  0  0  0  0  0  0
  141.6580   75.8420  220.0260 N   0  0  0  0  0  0  0  0  0  0  0  0
  141.9440   77.2950  219.8970 C   0  0  0  0  0  0  0  0  0  0  0  0
  142.3280   77.7520  218.4870 C   0  0  0  0  0  0  0  0  0  0  0  0
  143.3050   76.7950  217.8340 C   0  0  0  0  0  0  0  0  0  0  0  0
  142.6380   75.4380  217.7070 C   0  0  0  0  0  0  0  0  0  0  0  0
  142.2550   74.8490  219.0780 C   0  0  1  0  0  0  0  0  0  0  0  0
  143.4460   74.1280  219.6950 C   0  0  0  0  0  0  0  0  0  0  0  0
  144.5140   74.8280  220.2880 C   0  0  0  0  0  0  0  0  0  0  0  0
  145.6040   74.1370  220.8240 C   0  0  0  0  0  0  0  0  0  0  0  0
  145.6480   72.7420  220.7670 C   0  0  0  0  0  0  0  0  0  0  0  0
  144.6020   72.0370  220.1670 C   0  0  0  0  0  0  0  0  0  0  0  0
  143.5100   72.7230  219.6300 C   0  0  0  0  0  0  0  0  0  0  0  0
  140.1710   71.3890  223.5460 C   0  0  0  0  0  0  0  0  0  0  0  0
  139.5670   70.1200  223.5600 C   0  0  0  0  0  0  0  0  0  0  0  0
  139.4600   69.4160  224.7620 C   0  0  0  0  0  0  0  0  0  0  0  0
  139.9530   69.9770  225.9450 C   0  0  0  0  0  0  0  0  0  0  0  0
  139.8610   69.2990  227.1690 C   0  0  0  0  0  0  0  0  0  0  0  0
  140.3640   69.8880  228.3340 C   0  0  0  0  0  0  0  0  0  0  0  0
  140.9580   71.1540  228.2820 C   0  0  0  0  0  0  0  0  0  0  0  0
  141.0530   71.8360  227.0660 C   0  0  0  0  0  0  0  0  0  0  0  0
  140.5530   71.2550  225.8950 C   0  0  0  0  0  0  0  0  0  0  0  0
  140.6430   71.9160  224.7110 N   0  0  0  0  0  0  0  0  0  0  0  0
  139.5750   74.0120  223.1150 H   0  0  0  0  0  0  0  0  0  0  0  0
  140.2254   73.6243  220.1699 H   0  0  0  0  0  0  0  0  0  0  0  0
  138.9520   74.7338  220.8135 H   0  0  0  0  0  0  0  0  0  0  0  0
  141.9560   76.3460  222.7310 H   0  0  0  0  0  0  0  0  0  0  0  0
  141.0444   77.8491  220.2030 H   0  0  0  0  0  0  0  0  0  0  0  0
  142.8166   77.4963  220.5358 H   0  0  0  0  0  0  0  0  0  0  0  0
  141.4187   77.8087  217.8707 H   0  0  0  0  0  0  0  0  0  0  0  0
  142.8129   78.7362  218.5658 H   0  0  0  0  0  0  0  0  0  0  0  0
  143.5794   77.1683  216.8364 H   0  0  0  0  0  0  0  0  0  0  0  0
  144.2160   76.7114  218.4449 H   0  0  0  0  0  0  0  0  0  0  0  0
  141.7267   75.5463  217.1005 H   0  0  0  0  0  0  0  0  0  0  0  0
  143.3547   74.7518  217.2322 H   0  0  0  0  0  0  0  0  0  0  0  0
  141.4517   74.1216  218.8893 H   0  0  0  0  0  0  0  0  0  0  0  0
  144.4903   75.9270  220.3297 H   0  0  0  0  0  0  0  0  0  0  0  0
  146.4296   74.6931  221.2921 H   0  0  0  0  0  0  0  0  0  0  0  0
  146.5046   72.1997  221.1937 H   0  0  0  0  0  0  0  0  0  0  0  0
  144.6383   70.9387  220.1172 H   0  0  0  0  0  0  0  0  0  0  0  0
  142.6937   72.1611  219.1526 H   0  0  0  0  0  0  0  0  0  0  0  0
  139.1799   69.6827  222.6279 H   0  0  0  0  0  0  0  0  0  0  0  0
  138.9889   68.4221  224.7782 H   0  0  0  0  0  0  0  0  0  0  0  0
  139.3934   68.3043  227.2131 H   0  0  0  0  0  0  0  0  0  0  0  0
  140.2924   69.3546  229.2934 H   0  0  0  0  0  0  0  0  0  0  0  0
  141.3512   71.6136  229.2008 H   0  0  0  0  0  0  0  0  0  0  0  0
  141.5213   72.8306  227.0291 H   0  0  0  0  0  0  0  0  0  0  0  0
  1  2  2  0
  2  3  1  0
  3  4  1  0
  4  5  1  0
  5  6  1  0
  5  7  2  0
  7  8  1  0
  8  9  1  0
  9 10  1  0
 10 11  1  0
 11 12  1  0
 12 13  1  0
 13 14  2  0
 14 15  1  0
 15 16  2  0
 16 17  1  0
 17 18  2  0
  2 19  1  0
 19 20  2  0
 20 21  1  0
 21 22  2  0
 22 23  1  0
 23 24  2  0
 24 25  1  0
 25 26  2  0
 26 27  1  0
 27 28  2  0
 12  7  1  0
 18 13  1  0
 28 19  1  0
 27 22  1  0
  3 29  1  0
  4 30  1  0
  4 31  1  0
  6 32  1  0
  8 33  1  0
  8 34  1  0
  9 35  1  0
  9 36  1  0
 10 37  1  0
 10 38  1  0
 11 39  1  0
 11 40  1  0
 12 41  1  6
 14 42  1  0
 15 43  1  0
 16 44  1  0
 17 45  1  0
 18 46  1  0
 20 47  1  0
 21 48  1  0
 23 49  1  0
 24 50  1  0
 25 51  1  0
 26 52  1  0
M  CHG  1   7   1
M  END
>  <meeko>  (4) 
{"free_energy": -9.11, "intermolecular_energy": -10.9, "internal_energy": -1.6, "cluster_size": 10, "cluster_id": 1, "rank_in_cluster": 1}

$$$$

     RDKit          3D

 52 55  0  0  0  0  0  0  0  0999 V2000
  141.3120   74.8180  221.0340 O   0  0  0  0  0  0  0  0  0  0  0  0
  140.3520   75.1730  221.7740 C   0  0  0  0  0  0  0  0  0  0  0  0
  139.3630   74.2090  222.1630 N   0  0  0  0  0  0  0  0  0  0  0  0
  139.4810   72.8010  221.7830 C   0  0  0  0  0  0  0  0  0  0  0  0
  138.3900   71.9740  222.4270 C   0  0  0  0  0  0  0  0  0  0  0  0
  137.2750   72.7020  222.8670 O   0  0  0  0  0  0  0  0  0  0  0  0
  138.4790   70.6600  222.5880 N   0  0  0  0  0  0  0  0  0  0  0  0
  139.0760   69.8500  221.4940 C   0  0  0  0  0  0  0  0  0  0  0  0
  138.7300   68.3600  221.5350 C   0  0  0  0  0  0  0  0  0  0  0  0
  138.8260   67.7990  222.9400 C   0  0  0  0  0  0  0  0  0  0  0  0
  137.8210   68.5250  223.8170 C   0  0  0  0  0  0  0  0  0  0  0  0
  138.1060   70.0370  223.8960 C   0  0  1  0  0  0  0  0  0  0  0  0
  139.1460   70.3230  224.9720 C   0  0  0  0  0  0  0  0  0  0  0  0
  140.1490   71.2950  224.7980 C   0  0  0  0  0  0  0  0  0  0  0  0
  141.1030   71.5160  225.7950 C   0  0  0  0  0  0  0  0  0  0  0  0
  141.0740   70.7650  226.9730 C   0  0  0  0  0  0  0  0  0  0  0  0
  140.0940   69.7870  227.1510 C   0  0  0  0  0  0  0  0  0  0  0  0
  139.1380   69.5620  226.1570 C   0  0  0  0  0  0  0  0  0  0  0  0
  140.2600   76.5740  222.2370 C   0  0  0  0  0  0  0  0  0  0  0  0
  139.0140   77.1870  222.4500 C   0  0  0  0  0  0  0  0  0  0  0  0
  138.9570   78.5130  222.8820 C   0  0  0  0  0  0  0  0  0  0  0  0
  140.1420   79.2260  223.1020 C   0  0  0  0  0  0  0  0  0  0  0  0
  140.1220   80.5600  223.5360 C   0  0  0  0  0  0  0  0  0  0  0  0
  141.3240   81.2430  223.7470 C   0  0  0  0  0  0  0  0  0  0  0  0
  142.5470   80.6010  223.5230 C   0  0  0  0  0  0  0  0  0  0  0  0
  142.5750   79.2720  223.0900 C   0  0  0  0  0  0  0  0  0  0  0  0
  141.3770   78.5800  222.8780 C   0  0  0  0  0  0  0  0  0  0  0  0
  141.4000   77.2880  222.4560 N   0  0  0  0  0  0  0  0  0  0  0  0
  138.5510   74.5150  222.7460 H   0  0  0  0  0  0  0  0  0  0  0  0
  139.3997   72.7152  220.6894 H   0  0  0  0  0  0  0  0  0  0  0  0
  140.4559   72.4250  222.1268 H   0  0  0  0  0  0  0  0  0  0  0  0
  137.3200   73.5400  223.4310 H   0  0  0  0  0  0  0  0  0  0  0  0
  138.7225   70.2569  220.5351 H   0  0  0  0  0  0  0  0  0  0  0  0
  140.1668   69.9176  221.6191 H   0  0  0  0  0  0  0  0  0  0  0  0
  137.7029   68.2226  221.1660 H   0  0  0  0  0  0  0  0  0  0  0  0
  139.4522   67.8234  220.9021 H   0  0  0  0  0  0  0  0  0  0  0  0
  138.5980   66.7230  222.9265 H   0  0  0  0  0  0  0  0  0  0  0  0
  139.8430   67.9409  223.3344 H   0  0  0  0  0  0  0  0  0  0  0  0
  136.8138   68.3752  223.4009 H   0  0  0  0  0  0  0  0  0  0  0  0
  137.8984   68.1123  224.8337 H   0  0  0  0  0  0  0  0  0  0  0  0
  137.1562   70.5167  224.1749 H   0  0  0  0  0  0  0  0  0  0  0  0
  140.1822   71.8851  223.8703 H   0  0  0  0  0  0  0  0  0  0  0  0
  141.8785   72.2829  225.6521 H   0  0  0  0  0  0  0  0  0  0  0  0
  141.8224   70.9442  227.7590 H   0  0  0  0  0  0  0  0  0  0  0  0
  140.0742   69.1920  228.0760 H   0  0  0  0  0  0  0  0  0  0  0  0
  138.3733   68.7845  226.3012 H   0  0  0  0  0  0  0  0  0  0  0  0
  138.0855   76.6233  222.2767 H   0  0  0  0  0  0  0  0  0  0  0  0
  137.9834   78.9969  223.0493 H   0  0  0  0  0  0  0  0  0  0  0  0
  139.1620   81.0681  223.7101 H   0  0  0  0  0  0  0  0  0  0  0  0
  141.3080   82.2880  224.0901 H   0  0  0  0  0  0  0  0  0  0  0  0
  143.4894   81.1438  223.6881 H   0  0  0  0  0  0  0  0  0  0  0  0
  143.5383   78.7703  222.9160 H   0  0  0  0  0  0  0  0  0  0  0  0
  1  2  2  0
  2  3  1  0
  3  4  1  0
  4  5  1  0
  5  6  1  0
  5  7  2  0
  7  8  1  0
  8  9  1  0
  9 10  1  0
 10 11  1  0
 11 12  1  0
 12 13  1  0
 13 14  2  0
 14 15  1  0
 15 16  2  0
 16 17  1  0
 17 18  2  0
  2 19  1  0
 19 20  2  0
 20 21  1  0
 21 22  2  0
 22 23  1  0
 23 24  2  0
 24 25  1  0
 25 26  2  0
 26 27  1  0
 27 28  2  0
 12  7  1  0
 18 13  1  0
 28 19  1  0
 27 22  1  0
  3 29  1  0
  4 30  1  0
  4 31  1  0
  6 32  1  0
  8 33  1  0
  8 34  1  0
  9 35  1  0
  9 36  1  0
 10 37  1  0
 10 38  1  0
 11 39  1  0
 11 40  1  0
 12 41  1  1
 14 42  1  0
 15 43  1  0
 16 44  1  0
 17 45  1  0
 18 46  1  0
 20 47  1  0
 21 48  1  0
 23 49  1  0
 24 50  1  0
 25 51  1  0
 26 52  1  0
M  CHG  1   7   1
M  END
>  <meeko>  (5) 
{"free_energy": -8.4, "intermolecular_energy": -10.19, "internal_energy": -1.51, "cluster_size": 2, "cluster_id": 3, "rank_in_cluster": 1}

$$$$

     RDKit          3D

 52 55  0  0  0  0  0  0  0  0999 V2000
  140.7540   71.5410  221.2630 O   0  0  0  0  0  0  0  0  0  0  0  0
  140.3030   72.1070  222.2980 C   0  0  0  0  0  0  0  0  0  0  0  0
  139.9160   73.4870  222.2410 N   0  0  0  0  0  0  0  0  0  0  0  0
  139.9610   74.2390  220.9870 C   0  0  0  0  0  0  0  0  0  0  0  0
  140.9180   75.4060  221.0900 C   0  0  0  0  0  0  0  0  0  0  0  0
  140.9950   76.0000  222.3580 O   0  0  0  0  0  0  0  0  0  0  0  0
  141.6220   75.8570  220.0600 N   0  0  0  0  0  0  0  0  0  0  0  0
  141.8900   77.3160  219.9670 C   0  0  0  0  0  0  0  0  0  0  0  0
  142.2780   77.8110  218.5710 C   0  0  0  0  0  0  0  0  0  0  0  0
  143.2730   76.8830  217.9030 C   0  0  0  0  0  0  0  0  0  0  0  0
  142.6240   75.5200  217.7400 C   0  0  0  0  0  0  0  0  0  0  0  0
  142.2390   74.8950  219.0940 C   0  0  1  0  0  0  0  0  0  0  0  0
  143.4350   74.1750  219.7040 C   0  0  0  0  0  0  0  0  0  0  0  0
  144.4810   74.8740  220.3370 C   0  0  0  0  0  0  0  0  0  0  0  0
  145.5760   74.1850  220.8650 C   0  0  0  0  0  0  0  0  0  0  0  0
  145.6470   72.7940  220.7600 C   0  0  0  0  0  0  0  0  0  0  0  0
  144.6250   72.0900  220.1210 C   0  0  0  0  0  0  0  0  0  0  0  0
  143.5270   72.7750  219.5910 C   0  0  0  0  0  0  0  0  0  0  0  0
  140.1730   71.3400  223.5570 C   0  0  0  0  0  0  0  0  0  0  0  0
  139.5760   70.0680  223.5720 C   0  0  0  0  0  0  0  0  0  0  0  0
  139.4630   69.3700  224.7770 C   0  0  0  0  0  0  0  0  0  0  0  0
  139.9440   69.9400  225.9610 C   0  0  0  0  0  0  0  0  0  0  0  0
  139.8460   69.2680  227.1880 C   0  0  0  0  0  0  0  0  0  0  0  0
  140.3360   69.8650  228.3530 C   0  0  0  0  0  0  0  0  0  0  0  0
  140.9240   71.1340  228.2990 C   0  0  0  0  0  0  0  0  0  0  0  0
  141.0250   71.8110  227.0800 C   0  0  0  0  0  0  0  0  0  0  0  0
  140.5370   71.2200  225.9090 C   0  0  0  0  0  0  0  0  0  0  0  0
  140.6330   71.8760  224.7220 N   0  0  0  0  0  0  0  0  0  0  0  0
  139.5780   73.9610  223.1090 H   0  0  0  0  0  0  0  0  0  0  0  0
  140.2934   73.5712  220.1786 H   0  0  0  0  0  0  0  0  0  0  0  0
  138.9543   74.6284  220.7750 H   0  0  0  0  0  0  0  0  0  0  0  0
  141.8460   76.3450  222.7810 H   0  0  0  0  0  0  0  0  0  0  0  0
  140.9811   77.8512  220.2793 H   0  0  0  0  0  0  0  0  0  0  0  0
  142.7555   77.5134  220.6166 H   0  0  0  0  0  0  0  0  0  0  0  0
  141.3725   77.8697  217.9493 H   0  0  0  0  0  0  0  0  0  0  0  0
  142.7488   78.7995  218.6765 H   0  0  0  0  0  0  0  0  0  0  0  0
  143.5493   77.2831  216.9163 H   0  0  0  0  0  0  0  0  0  0  0  0
  144.1812   76.7976  218.5178 H   0  0  0  0  0  0  0  0  0  0  0  0
  141.7157   75.6306  217.1295 H   0  0  0  0  0  0  0  0  0  0  0  0
  143.3528   74.8540  217.2550 H   0  0  0  0  0  0  0  0  0  0  0  0
  141.4467   74.1621  218.8817 H   0  0  0  0  0  0  0  0  0  0  0  0
  144.4357   75.9702  220.4163 H   0  0  0  0  0  0  0  0  0  0  0  0
  146.3841   74.7394  221.3646 H   0  0  0  0  0  0  0  0  0  0  0  0
  146.5078   72.2536  221.1806 H   0  0  0  0  0  0  0  0  0  0  0  0
  144.6833   70.9950  220.0342 H   0  0  0  0  0  0  0  0  0  0  0  0
  142.7288   72.2152  219.0817 H   0  0  0  0  0  0  0  0  0  0  0  0
  139.1992   69.6237  222.6389 H   0  0  0  0  0  0  0  0  0  0  0  0
  138.9966   68.3739  224.7950 H   0  0  0  0  0  0  0  0  0  0  0  0
  139.3835   68.2710  227.2336 H   0  0  0  0  0  0  0  0  0  0  0  0
  140.2593   69.3363  229.3145 H   0  0  0  0  0  0  0  0  0  0  0  0
  141.3078   71.6001  229.2185 H   0  0  0  0  0  0  0  0  0  0  0  0
  141.4880   72.8081  227.0413 H   0  0  0  0  0  0  0  0  0  0  0  0
  1  2  2  0
  2  3  1  0
  3  4  1  0
  4  5  1  0
  5  6  1  0
  5  7  2  0
  7  8  1  0
  8  9  1  0
  9 10  1  0
 10 11  1  0
 11 12  1  0
 12 13  1  0
 13 14  2  0
 14 15  1  0
 15 16  2  0
 16 17  1  0
 17 18  2  0
  2 19  1  0
 19 20  2  0
 20 21  1  0
 21 22  2  0
 22 23  1  0
 23 24  2  0
 24 25  1  0
 25 26  2  0
 26 27  1  0
 27 28  2  0
 12  7  1  0
 18 13  1  0
 28 19  1  0
 27 22  1  0
  3 29  1  0
  4 30  1  0
  4 31  1  0
  6 32  1  0
  8 33  1  0
  8 34  1  0
  9 35  1  0
  9 36  1  0
 10 37  1  0
 10 38  1  0
 11 39  1  0
 11 40  1  0
 12 41  1  6
 14 42  1  0
 15 43  1  0
 16 44  1  0
 17 45  1  0
 18 46  1  0
 20 47  1  0
 21 48  1  0
 23 49  1  0
 24 50  1  0
 25 51  1  0
 26 52  1  0
M  CHG  1   7   1
M  END
>  <meeko>  (6) 
{"free_energy": -9.09, "intermolecular_energy": -10.88, "internal_energy": -1.61, "cluster_size": 10, "cluster_id": 1, "rank_in_cluster": 2}

$$$$

     RDKit          3D

 52 55  0  0  0  0  0  0  0  0999 V2000
  138.3740   72.1100  222.3600 O   0  0  0  0  0  0  0  0  0  0  0  0
  139.4870   71.5780  222.6290 C   0  0  0  0  0  0  0  0  0  0  0  0
  140.6210   71.8420  221.7900 N   0  0  0  0  0  0  0  0  0  0  0  0
  140.5360   72.7760  220.6680 C   0  0  0  0  0  0  0  0  0  0  0  0
  140.6590   74.2070  221.1450 C   0  0  0  0  0  0  0  0  0  0  0  0
  139.9710   74.4980  222.3310 O   0  0  0  0  0  0  0  0  0  0  0  0
  141.3470   75.1310  220.4860 N   0  0  0  0  0  0  0  0  0  0  0  0
  141.3080   76.5320  220.9830 C   0  0  0  0  0  0  0  0  0  0  0  0
  141.7140   77.5900  219.9530 C   0  0  0  0  0  0  0  0  0  0  0  0
  142.9410   77.1690  219.1690 C   0  0  0  0  0  0  0  0  0  0  0  0
  142.6120   75.8960  218.4100 C   0  0  0  0  0  0  0  0  0  0  0  0
  142.2410   74.7370  219.3540 C   0  0  1  0  0  0  0  0  0  0  0  0
  143.4980   74.0340  219.8480 C   0  0  0  0  0  0  0  0  0  0  0  0
  144.5720   74.7440  220.4200 C   0  0  0  0  0  0  0  0  0  0  0  0
  145.7220   74.0720  220.8420 C   0  0  0  0  0  0  0  0  0  0  0  0
  145.8200   72.6870  220.6910 C   0  0  0  0  0  0  0  0  0  0  0  0
  144.7700   71.9730  220.1110 C   0  0  0  0  0  0  0  0  0  0  0  0
  143.6170   72.6400  219.6870 C   0  0  0  0  0  0  0  0  0  0  0  0
  139.6140   70.6940  223.8080 C   0  0  0  0  0  0  0  0  0  0  0  0
  139.1050   69.3840  223.7900 C   0  0  0  0  0  0  0  0  0  0  0  0
  139.2360   68.5740  224.9200 C   0  0  0  0  0  0  0  0  0  0  0  0
  139.8720   69.0690  226.0640 C   0  0  0  0  0  0  0  0  0  0  0  0
  140.0190   68.2840  227.2170 C   0  0  0  0  0  0  0  0  0  0  0  0
  140.6600   68.8090  228.3430 C   0  0  0  0  0  0  0  0  0  0  0  0
  141.1530   70.1190  228.3250 C   0  0  0  0  0  0  0  0  0  0  0  0
  141.0100   70.9080  227.1800 C   0  0  0  0  0  0  0  0  0  0  0  0
  140.3700   70.3900  226.0480 C   0  0  0  0  0  0  0  0  0  0  0  0
  140.2290   71.1550  224.9340 N   0  0  0  0  0  0  0  0  0  0  0  0
  141.5310   71.3700  221.9940 H   0  0  0  0  0  0  0  0  0  0  0  0
  141.3491   72.5618  219.9588 H   0  0  0  0  0  0  0  0  0  0  0  0
  139.5578   72.6512  220.1806 H   0  0  0  0  0  0  0  0  0  0  0  0
  139.2460   73.9190  222.7330 H   0  0  0  0  0  0  0  0  0  0  0  0
  140.2810   76.7502  221.3112 H   0  0  0  0  0  0  0  0  0  0  0  0
  142.0457   76.5927  221.7967 H   0  0  0  0  0  0  0  0  0  0  0  0
  140.8796   77.7444  219.2530 H   0  0  0  0  0  0  0  0  0  0  0  0
  141.9540   78.5183  220.4921 H   0  0  0  0  0  0  0  0  0  0  0  0
  143.2191   77.9627  218.4600 H   0  0  0  0  0  0  0  0  0  0  0  0
  143.7844   76.9936  219.8530 H   0  0  0  0  0  0  0  0  0  0  0  0
  141.7627   76.0926  217.7392 H   0  0  0  0  0  0  0  0  0  0  0  0
  143.5073   75.5984  217.8444 H   0  0  0  0  0  0  0  0  0  0  0  0
  141.6444   74.0312  218.7574 H   0  0  0  0  0  0  0  0  0  0  0  0
  144.5047   75.8359  220.5353 H   0  0  0  0  0  0  0  0  0  0  0  0
  146.5519   74.6349  221.2941 H   0  0  0  0  0  0  0  0  0  0  0  0
  146.7240   72.1591  221.0289 H   0  0  0  0  0  0  0  0  0  0  0  0
  144.8501   70.8829  219.9873 H   0  0  0  0  0  0  0  0  0  0  0  0
  142.7966   72.0719  219.2242 H   0  0  0  0  0  0  0  0  0  0  0  0
  138.6053   68.9982  222.8892 H   0  0  0  0  0  0  0  0  0  0  0  0
  138.8396   67.5479  224.9108 H   0  0  0  0  0  0  0  0  0  0  0  0
  139.6299   67.2553  227.2353 H   0  0  0  0  0  0  0  0  0  0  0  0
  140.7773   68.1911  229.2455 H   0  0  0  0  0  0  0  0  0  0  0  0
  141.6543   70.5287  229.2143 H   0  0  0  0  0  0  0  0  0  0  0  0
  141.4005   71.9363  227.1685 H   0  0  0  0  0  0  0  0  0  0  0  0
  1  2  2  0
  2  3  1  0
  3  4  1  0
  4  5  1  0
  5  6  1  0
  5  7  2  0
  7  8  1  0
  8  9  1  0
  9 10  1  0
 10 11  1  0
 11 12  1  0
 12 13  1  0
 13 14  2  0
 14 15  1  0
 15 16  2  0
 16 17  1  0
 17 18  2  0
  2 19  1  0
 19 20  2  0
 20 21  1  0
 21 22  2  0
 22 23  1  0
 23 24  2  0
 24 25  1  0
 25 26  2  0
 26 27  1  0
 27 28  2  0
 12  7  1  0
 18 13  1  0
 28 19  1  0
 27 22  1  0
  3 29  1  0
  4 30  1  0
  4 31  1  0
  6 32  1  0
  8 33  1  0
  8 34  1  0
  9 35  1  0
  9 36  1  0
 10 37  1  0
 10 38  1  0
 11 39  1  0
 11 40  1  0
 12 41  1  6
 14 42  1  0
 15 43  1  0
 16 44  1  0
 17 45  1  0
 18 46  1  0
 20 47  1  0
 21 48  1  0
 23 49  1  0
 24 50  1  0
 25 51  1  0
 26 52  1  0
M  CHG  1   7   1
M  END
>  <meeko>  (7) 
{"free_energy": -8.9, "intermolecular_energy": -10.69, "internal_energy": -1.8, "cluster_size": 10, "cluster_id": 1, "rank_in_cluster": 6}

$$$$

     RDKit          3D

 52 55  0  0  0  0  0  0  0  0999 V2000
  140.9220   71.3820  221.3510 O   0  0  0  0  0  0  0  0  0  0  0  0
  140.4010   71.9160  222.3700 C   0  0  0  0  0  0  0  0  0  0  0  0
  139.9970   73.2920  222.3200 N   0  0  0  0  0  0  0  0  0  0  0  0
  140.1050   74.0730  221.0880 C   0  0  0  0  0  0  0  0  0  0  0  0
  140.0010   75.5550  221.3760 C   0  0  0  0  0  0  0  0  0  0  0  0
  139.5070   75.8800  222.6470 O   0  0  0  0  0  0  0  0  0  0  0  0
  140.3320   76.4880  220.4920 N   0  0  0  0  0  0  0  0  0  0  0  0
  139.4060   76.7510  219.3590 C   0  0  0  0  0  0  0  0  0  0  0  0
  140.0410   77.4690  218.1640 C   0  0  0  0  0  0  0  0  0  0  0  0
  140.9350   78.6100  218.6050 C   0  0  0  0  0  0  0  0  0  0  0  0
  142.0630   78.0400  219.4460 C   0  0  0  0  0  0  0  0  0  0  0  0
  141.5430   77.3380  220.7150 C   0  0  1  0  0  0  0  0  0  0  0  0
  141.3200   78.3540  221.8270 C   0  0  0  0  0  0  0  0  0  0  0  0
  140.0300   78.6860  222.2850 C   0  0  0  0  0  0  0  0  0  0  0  0
  139.8590   79.6390  223.2920 C   0  0  0  0  0  0  0  0  0  0  0  0
  140.9690   80.2810  223.8470 C   0  0  0  0  0  0  0  0  0  0  0  0
  142.2520   79.9730  223.3910 C   0  0  0  0  0  0  0  0  0  0  0  0
  142.4290   79.0190  222.3840 C   0  0  0  0  0  0  0  0  0  0  0  0
  140.2080   71.1200  223.6010 C   0  0  0  0  0  0  0  0  0  0  0  0
  139.5490   69.8790  223.5650 C   0  0  0  0  0  0  0  0  0  0  0  0
  139.3760   69.1510  224.7440 C   0  0  0  0  0  0  0  0  0  0  0  0
  139.8600   69.6600  225.9550 C   0  0  0  0  0  0  0  0  0  0  0  0
  139.7040   68.9560  227.1580 C   0  0  0  0  0  0  0  0  0  0  0  0
  140.1990   69.4930  228.3510 C   0  0  0  0  0  0  0  0  0  0  0  0
  140.8490   70.7320  228.3480 C   0  0  0  0  0  0  0  0  0  0  0  0
  141.0080   71.4400  227.1530 C   0  0  0  0  0  0  0  0  0  0  0  0
  140.5160   70.9100  225.9550 C   0  0  0  0  0  0  0  0  0  0  0  0
  140.6690   71.5960  224.7910 N   0  0  0  0  0  0  0  0  0  0  0  0
  139.6000   73.7410  223.1760 H   0  0  0  0  0  0  0  0  0  0  0  0
  141.0759   73.8656  220.6143 H   0  0  0  0  0  0  0  0  0  0  0  0
  139.2810   73.7870  220.4177 H   0  0  0  0  0  0  0  0  0  0  0  0
  138.9150   75.2790  223.2050 H   0  0  0  0  0  0  0  0  0  0  0  0
  139.0116   75.7859  219.0083 H   0  0  0  0  0  0  0  0  0  0  0  0
  138.6263   77.4236  219.7459 H   0  0  0  0  0  0  0  0  0  0  0  0
  140.6416   76.7463  217.5922 H   0  0  0  0  0  0  0  0  0  0  0  0
  139.2324   77.8866  217.5462 H   0  0  0  0  0  0  0  0  0  0  0  0
  141.3504   79.1185  217.7224 H   0  0  0  0  0  0  0  0  0  0  0  0
  140.3560   79.3370  219.1935 H   0  0  0  0  0  0  0  0  0  0  0  0
  142.6225   77.3109  218.8415 H   0  0  0  0  0  0  0  0  0  0  0  0
  142.7060   78.8752  219.7606 H   0  0  0  0  0  0  0  0  0  0  0  0
  142.3289   76.6328  221.0231 H   0  0  0  0  0  0  0  0  0  0  0  0
  139.1508   78.1912  221.8465 H   0  0  0  0  0  0  0  0  0  0  0  0
  138.8479   79.8846  223.6489 H   0  0  0  0  0  0  0  0  0  0  0  0
  140.8321   81.0284  224.6424 H   0  0  0  0  0  0  0  0  0  0  0  0
  143.1255   80.4818  223.8247 H   0  0  0  0  0  0  0  0  0  0  0  0
  143.4422   78.7864  222.0244 H   0  0  0  0  0  0  0  0  0  0  0  0
  139.1708   69.4826  222.6112 H   0  0  0  0  0  0  0  0  0  0  0  0
  138.8605   68.1795  224.7213 H   0  0  0  0  0  0  0  0  0  0  0  0
  139.1926   67.9821  227.1633 H   0  0  0  0  0  0  0  0  0  0  0  0
  140.0769   68.9398  229.2939 H   0  0  0  0  0  0  0  0  0  0  0  0
  141.2361   71.1503  229.2888 H   0  0  0  0  0  0  0  0  0  0  0  0
  141.5198   72.4137  227.1545 H   0  0  0  0  0  0  0  0  0  0  0  0
  1  2  2  0
  2  3  1  0
  3  4  1  0
  4  5  1  0
  5  6  1  0
  5  7  2  0
  7  8  1  0
  8  9  1  0
  9 10  1  0
 10 11  1  0
 11 12  1  0
 12 13  1  0
 13 14  2  0
 14 15  1  0
 15 16  2  0
 16 17  1  0
 17 18  2  0
  2 19  1  0
 19 20  2  0
 20 21  1  0
 21 22  2  0
 22 23  1  0
 23 24  2  0
 24 25  1  0
 25 26  2  0
 26 27  1  0
 27 28  2  0
 12  7  1  0
 18 13  1  0
 28 19  1  0
 27 22  1  0
  3 29  1  0
  4 30  1  0
  4 31  1  0
  6 32  1  0
  8 33  1  0
  8 34  1  0
  9 35  1  0
  9 36  1  0
 10 37  1  0
 10 38  1  0
 11 39  1  0
 11 40  1  0
 12 41  1  1
 14 42  1  0
 15 43  1  0
 16 44  1  0
 17 45  1  0
 18 46  1  0
 20 47  1  0
 21 48  1  0
 23 49  1  0
 24 50  1  0
 25 51  1  0
 26 52  1  0
M  CHG  1   7   1
M  END
>  <meeko>  (8) 
{"free_energy": -8.84, "intermolecular_energy": -10.63, "internal_energy": -1.6, "cluster_size": 8, "cluster_id": 2, "rank_in_cluster": 2}

$$$$

     RDKit          3D

 52 55  0  0  0  0  0  0  0  0999 V2000
  140.8880   71.5420  221.3410 O   0  0  0  0  0  0  0  0  0  0  0  0
  140.3770   72.0650  222.3710 C   0  0  0  0  0  0  0  0  0  0  0  0
  139.9620   73.4380  222.3370 N   0  0  0  0  0  0  0  0  0  0  0  0
  140.0490   74.2300  221.1100 C   0  0  0  0  0  0  0  0  0  0  0  0
  139.6450   75.6660  221.3630 C   0  0  0  0  0  0  0  0  0  0  0  0
  139.0190   75.8980  222.5960 O   0  0  0  0  0  0  0  0  0  0  0  0
  139.8450   76.6390  220.4820 N   0  0  0  0  0  0  0  0  0  0  0  0
  138.7400   76.9910  219.5510 C   0  0  0  0  0  0  0  0  0  0  0  0
  139.1750   77.7580  218.3000 C   0  0  0  0  0  0  0  0  0  0  0  0
  140.1750   78.8480  218.6290 C   0  0  0  0  0  0  0  0  0  0  0  0
  141.4140   78.2010  219.2200 C   0  0  0  0  0  0  0  0  0  0  0  0
  141.1060   77.4420  220.5250 C   0  0  1  0  0  0  0  0  0  0  0  0
  141.1250   78.3980  221.7100 C   0  0  0  0  0  0  0  0  0  0  0  0
  139.9770   78.6410  222.4890 C   0  0  0  0  0  0  0  0  0  0  0  0
  140.0220   79.5420  223.5550 C   0  0  0  0  0  0  0  0  0  0  0  0
  141.2070   80.2200  223.8520 C   0  0  0  0  0  0  0  0  0  0  0  0
  142.3480   80.0000  223.0790 C   0  0  0  0  0  0  0  0  0  0  0  0
  142.3080   79.0990  222.0100 C   0  0  0  0  0  0  0  0  0  0  0  0
  140.2050   71.2570  223.5980 C   0  0  0  0  0  0  0  0  0  0  0  0
  139.5900   69.9940  223.5540 C   0  0  0  0  0  0  0  0  0  0  0  0
  139.4370   69.2560  224.7290 C   0  0  0  0  0  0  0  0  0  0  0  0
  139.8960   69.7770  225.9440 C   0  0  0  0  0  0  0  0  0  0  0  0
  139.7580   69.0630  227.1440 C   0  0  0  0  0  0  0  0  0  0  0  0
  140.2280   69.6120  228.3410 C   0  0  0  0  0  0  0  0  0  0  0  0
  140.8340   70.8740  228.3470 C   0  0  0  0  0  0  0  0  0  0  0  0
  140.9750   71.5910  227.1550 C   0  0  0  0  0  0  0  0  0  0  0  0
  140.5080   71.0490  225.9520 C   0  0  0  0  0  0  0  0  0  0  0  0
  140.6430   71.7440  224.7920 N   0  0  0  0  0  0  0  0  0  0  0  0
  139.5730   73.8780  223.2020 H   0  0  0  0  0  0  0  0  0  0  0  0
  141.0845   74.2074  220.7397 H   0  0  0  0  0  0  0  0  0  0  0  0
  139.3643   73.7989  220.3648 H   0  0  0  0  0  0  0  0  0  0  0  0
  138.5150   75.2000  223.1260 H   0  0  0  0  0  0  0  0  0  0  0  0
  138.2537   76.0584  219.2288 H   0  0  0  0  0  0  0  0  0  0  0  0
  138.0679   77.6611  220.1072 H   0  0  0  0  0  0  0  0  0  0  0  0
  139.6361   77.0533  217.5924 H   0  0  0  0  0  0  0  0  0  0  0  0
  138.2842   78.2315  217.8616 H   0  0  0  0  0  0  0  0  0  0  0  0
  140.4429   79.3949  217.7129 H   0  0  0  0  0  0  0  0  0  0  0  0
  139.7386   79.5554  219.3495 H   0  0  0  0  0  0  0  0  0  0  0  0
  141.8280   77.4928  218.4872 H   0  0  0  0  0  0  0  0  0  0  0  0
  142.1335   78.9993  219.4546 H   0  0  0  0  0  0  0  0  0  0  0  0
  141.9083   76.6998  220.6490 H   0  0  0  0  0  0  0  0  0  0  0  0
  139.0382   78.1173  222.2560 H   0  0  0  0  0  0  0  0  0  0  0  0
  139.1221   79.7184  224.1625 H   0  0  0  0  0  0  0  0  0  0  0  0
  141.2406   80.9266  224.6944 H   0  0  0  0  0  0  0  0  0  0  0  0
  143.2802   80.5360  223.3108 H   0  0  0  0  0  0  0  0  0  0  0  0
  143.2082   78.9370  221.3989 H   0  0  0  0  0  0  0  0  0  0  0  0
  139.2304   69.5884  222.5968 H   0  0  0  0  0  0  0  0  0  0  0  0
  138.9566   68.2669  224.6999 H   0  0  0  0  0  0  0  0  0  0  0  0
  139.2804   68.0721  227.1431 H   0  0  0  0  0  0  0  0  0  0  0  0
  140.1213   69.0506  229.2809 H   0  0  0  0  0  0  0  0  0  0  0  0
  141.2001   71.3025  229.2917 H   0  0  0  0  0  0  0  0  0  0  0  0
  141.4532   72.5816  227.1626 H   0  0  0  0  0  0  0  0  0  0  0  0
  1  2  2  0
  2  3  1  0
  3  4  1  0
  4  5  1  0
  5  6  1  0
  5  7  2  0
  7  8  1  0
  8  9  1  0
  9 10  1  0
 10 11  1  0
 11 12  1  0
 12 13  1  0
 13 14  2  0
 14 15  1  0
 15 16  2  0
 16 17  1  0
 17 18  2  0
  2 19  1  0
 19 20  2  0
 20 21  1  0
 21 22  2  0
 22 23  1  0
 23 24  2  0
 24 25  1  0
 25 26  2  0
 26 27  1  0
 27 28  2  0
 12  7  1  0
 18 13  1  0
 28 19  1  0
 27 22  1  0
  3 29  1  0
  4 30  1  0
  4 31  1  0
  6 32  1  0
  8 33  1  0
  8 34  1  0
  9 35  1  0
  9 36  1  0
 10 37  1  0
 10 38  1  0
 11 39  1  0
 11 40  1  0
 12 41  1  1
 14 42  1  0
 15 43  1  0
 16 44  1  0
 17 45  1  0
 18 46  1  0
 20 47  1  0
 21 48  1  0
 23 49  1  0
 24 50  1  0
 25 51  1  0
 26 52  1  0
M  CHG  1   7   1
M  END
>  <meeko>  (9) 
{"free_energy": -8.62, "intermolecular_energy": -10.41, "internal_energy": -1.62, "cluster_size": 8, "cluster_id": 2, "rank_in_cluster": 4}

$$$$

     RDKit          3D

 52 55  0  0  0  0  0  0  0  0999 V2000
  140.7830   71.3530  221.3360 O   0  0  0  0  0  0  0  0  0  0  0  0
  140.3200   71.8940  222.3780 C   0  0  0  0  0  0  0  0  0  0  0  0
  139.9460   73.2790  222.3520 N   0  0  0  0  0  0  0  0  0  0  0  0
  140.0200   74.0650  221.1210 C   0  0  0  0  0  0  0  0  0  0  0  0
  139.9590   75.5470  221.4200 C   0  0  0  0  0  0  0  0  0  0  0  0
  139.5290   75.8740  222.7140 O   0  0  0  0  0  0  0  0  0  0  0  0
  140.2670   76.4780  220.5260 N   0  0  0  0  0  0  0  0  0  0  0  0
  139.3180   76.7320  219.4100 C   0  0  0  0  0  0  0  0  0  0  0  0
  139.9250   77.4480  218.2010 C   0  0  0  0  0  0  0  0  0  0  0  0
  140.8210   78.5960  218.6200 C   0  0  0  0  0  0  0  0  0  0  0  0
  141.9680   78.0350  219.4410 C   0  0  0  0  0  0  0  0  0  0  0  0
  141.4770   77.3350  220.7220 C   0  0  1  0  0  0  0  0  0  0  0  0
  141.2710   78.3540  221.8350 C   0  0  0  0  0  0  0  0  0  0  0  0
  139.9880   78.6860  222.3120 C   0  0  0  0  0  0  0  0  0  0  0  0
  139.8310   79.6430  223.3180 C   0  0  0  0  0  0  0  0  0  0  0  0
  140.9490   80.2880  223.8530 C   0  0  0  0  0  0  0  0  0  0  0  0
  142.2250   79.9790  223.3790 C   0  0  0  0  0  0  0  0  0  0  0  0
  142.3880   79.0230  222.3720 C   0  0  0  0  0  0  0  0  0  0  0  0
  140.1600   71.0950  223.6120 C   0  0  0  0  0  0  0  0  0  0  0  0
  139.5060   69.8520  223.5910 C   0  0  0  0  0  0  0  0  0  0  0  0
  139.3660   69.1210  224.7730 C   0  0  0  0  0  0  0  0  0  0  0  0
  139.8780   69.6300  225.9720 C   0  0  0  0  0  0  0  0  0  0  0  0
  139.7550   68.9240  227.1780 C   0  0  0  0  0  0  0  0  0  0  0  0
  140.2780   69.4610  228.3580 C   0  0  0  0  0  0  0  0  0  0  0  0
  140.9230   70.7030  228.3420 C   0  0  0  0  0  0  0  0  0  0  0  0
  141.0490   71.4130  227.1440 C   0  0  0  0  0  0  0  0  0  0  0  0
  140.5290   70.8830  225.9570 C   0  0  0  0  0  0  0  0  0  0  0  0
  140.6500   71.5710  224.7910 N   0  0  0  0  0  0  0  0  0  0  0  0
  139.5970   73.7320  223.2280 H   0  0  0  0  0  0  0  0  0  0  0  0
  140.9662   73.8403  220.6070 H   0  0  0  0  0  0  0  0  0  0  0  0
  139.1633   73.8003  220.4839 H   0  0  0  0  0  0  0  0  0  0  0  0
  138.9390   75.2880  223.2900 H   0  0  0  0  0  0  0  0  0  0  0  0
  138.9219   75.7635  219.0707 H   0  0  0  0  0  0  0  0  0  0  0  0
  138.5428   77.4024  219.8095 H   0  0  0  0  0  0  0  0  0  0  0  0
  140.5185   76.7263  217.6205 H   0  0  0  0  0  0  0  0  0  0  0  0
  139.1021   77.8585  217.5973 H   0  0  0  0  0  0  0  0  0  0  0  0
  141.2164   79.1032  217.7276 H   0  0  0  0  0  0  0  0  0  0  0  0
  140.2497   79.3225  219.2165 H   0  0  0  0  0  0  0  0  0  0  0  0
  142.5195   77.3068  218.8283 H   0  0  0  0  0  0  0  0  0  0  0  0
  142.6122   78.8749  219.7402 H   0  0  0  0  0  0  0  0  0  0  0  0
  142.2724   76.6348  221.0170 H   0  0  0  0  0  0  0  0  0  0  0  0
  139.1029   78.1881  221.8894 H   0  0  0  0  0  0  0  0  0  0  0  0
  138.8253   79.8890  223.6894 H   0  0  0  0  0  0  0  0  0  0  0  0
  140.8237   81.0388  224.6471 H   0  0  0  0  0  0  0  0  0  0  0  0
  143.1046   80.4890  223.7989 H   0  0  0  0  0  0  0  0  0  0  0  0
  143.3957   78.7917  221.9964 H   0  0  0  0  0  0  0  0  0  0  0  0
  139.1053   69.4554  222.6465 H   0  0  0  0  0  0  0  0  0  0  0  0
  138.8544   68.1473  224.7615 H   0  0  0  0  0  0  0  0  0  0  0  0
  139.2473   67.9483  227.1951 H   0  0  0  0  0  0  0  0  0  0  0  0
  140.1822   68.9054  229.3025 H   0  0  0  0  0  0  0  0  0  0  0  0
  141.3316   71.1214  229.2737 H   0  0  0  0  0  0  0  0  0  0  0  0
  141.5570   72.3886  227.1341 H   0  0  0  0  0  0  0  0  0  0  0  0
  1  2  2  0
  2  3  1  0
  3  4  1  0
  4  5  1  0
  5  6  1  0
  5  7  2  0
  7  8  1  0
  8  9  1  0
  9 10  1  0
 10 11  1  0
 11 12  1  0
 12 13  1  0
 13 14  2  0
 14 15  1  0
 15 16  2  0
 16 17  1  0
 17 18  2  0
  2 19  1  0
 19 20  2  0
 20 21  1  0
 21 22  2  0
 22 23  1  0
 23 24  2  0
 24 25  1  0
 25 26  2  0
 26 27  1  0
 27 28  2  0
 12  7  1  0
 18 13  1  0
 28 19  1  0
 27 22  1  0
  3 29  1  0
  4 30  1  0
  4 31  1  0
  6 32  1  0
  8 33  1  0
  8 34  1  0
  9 35  1  0
  9 36  1  0
 10 37  1  0
 10 38  1  0
 11 39  1  0
 11 40  1  0
 12 41  1  1
 14 42  1  0
 15 43  1  0
 16 44  1  0
 17 45  1  0
 18 46  1  0
 20 47  1  0
 21 48  1  0
 23 49  1  0
 24 50  1  0
 25 51  1  0
 26 52  1  0
M  CHG  1   7   1
M  END
>  <meeko>  (10) 
{"free_energy": -8.83, "intermolecular_energy": -10.62, "internal_energy": -1.61, "cluster_size": 8, "cluster_id": 2, "rank_in_cluster": 3}

$$$$

     RDKit          3D

 52 55  0  0  0  0  0  0  0  0999 V2000
  140.9880   71.7420  221.3730 O   0  0  0  0  0  0  0  0  0  0  0  0
  140.4270   72.2440  222.3860 C   0  0  0  0  0  0  0  0  0  0  0  0
  139.9770   73.6060  222.3450 N   0  0  0  0  0  0  0  0  0  0  0  0
  140.0860   74.4080  221.1270 C   0  0  0  0  0  0  0  0  0  0  0  0
  139.8540   75.8740  221.4210 C   0  0  0  0  0  0  0  0  0  0  0  0
  139.3180   76.1470  222.6880 O   0  0  0  0  0  0  0  0  0  0  0  0
  140.1150   76.8370  220.5460 N   0  0  0  0  0  0  0  0  0  0  0  0
  139.0050   77.3420  219.6950 C   0  0  0  0  0  0  0  0  0  0  0  0
  139.4510   78.0820  218.4320 C   0  0  0  0  0  0  0  0  0  0  0  0
  140.5940   79.0360  218.7130 C   0  0  0  0  0  0  0  0  0  0  0  0
  141.7800   78.2300  219.2110 C   0  0  0  0  0  0  0  0  0  0  0  0
  141.4640   77.4810  220.5200 C   0  0  1  0  0  0  0  0  0  0  0  0
  141.6730   78.3990  221.7170 C   0  0  0  0  0  0  0  0  0  0  0  0
  141.4380   77.9660  223.0370 C   0  0  0  0  0  0  0  0  0  0  0  0
  141.6160   78.8410  224.1120 C   0  0  0  0  0  0  0  0  0  0  0  0
  142.0220   80.1580  223.8850 C   0  0  0  0  0  0  0  0  0  0  0  0
  142.2440   80.6040  222.5810 C   0  0  0  0  0  0  0  0  0  0  0  0
  142.0670   79.7330  221.5020 C   0  0  0  0  0  0  0  0  0  0  0  0
  140.2330   71.4240  223.6020 C   0  0  0  0  0  0  0  0  0  0  0  0
  139.5880   70.1770  223.5390 C   0  0  0  0  0  0  0  0  0  0  0  0
  139.4150   69.4270  224.7040 C   0  0  0  0  0  0  0  0  0  0  0  0
  139.8850   69.9190  225.9270 C   0  0  0  0  0  0  0  0  0  0  0  0
  139.7270   69.1930  227.1170 C   0  0  0  0  0  0  0  0  0  0  0  0
  140.2080   69.7140  228.3220 C   0  0  0  0  0  0  0  0  0  0  0  0
  140.8450   70.9600  228.3460 C   0  0  0  0  0  0  0  0  0  0  0  0
  141.0050   71.6900  227.1650 C   0  0  0  0  0  0  0  0  0  0  0  0
  140.5270   71.1760  225.9540 C   0  0  0  0  0  0  0  0  0  0  0  0
  140.6810   71.8840  224.8030 N   0  0  0  0  0  0  0  0  0  0  0  0
  139.5470   74.0290  223.1990 H   0  0  0  0  0  0  0  0  0  0  0  0
  141.0925   74.2812  220.7016 H   0  0  0  0  0  0  0  0  0  0  0  0
  139.3207   74.0681  220.4137 H   0  0  0  0  0  0  0  0  0  0  0  0
  138.8170   75.4780  223.2570 H   0  0  0  0  0  0  0  0  0  0  0  0
  138.3900   76.4828  219.3892 H   0  0  0  0  0  0  0  0  0  0  0  0
  138.4551   78.0738  220.3050 H   0  0  0  0  0  0  0  0  0  0  0  0
  139.7783   77.3447  217.6842 H   0  0  0  0  0  0  0  0  0  0  0  0
  138.5984   78.6697  218.0610 H   0  0  0  0  0  0  0  0  0  0  0  0
  140.8682   79.5691  217.7907 H   0  0  0  0  0  0  0  0  0  0  0  0
  140.2929   79.7732  219.4718 H   0  0  0  0  0  0  0  0  0  0  0  0
  142.0583   77.4958  218.4407 H   0  0  0  0  0  0  0  0  0  0  0  0
  142.6044   78.9299  219.4121 H   0  0  0  0  0  0  0  0  0  0  0  0
  142.1758   76.6444  220.5786 H   0  0  0  0  0  0  0  0  0  0  0  0
  141.1121   76.9319  223.2227 H   0  0  0  0  0  0  0  0  0  0  0  0
  141.4359   78.4917  225.1394 H   0  0  0  0  0  0  0  0  0  0  0  0
  142.1667   80.8433  224.7332 H   0  0  0  0  0  0  0  0  0  0  0  0
  142.5588   81.6427  222.4021 H   0  0  0  0  0  0  0  0  0  0  0  0
  142.2370   80.0931  220.4766 H   0  0  0  0  0  0  0  0  0  0  0  0
  139.2209   69.7933  222.5757 H   0  0  0  0  0  0  0  0  0  0  0  0
  138.9100   68.4508  224.6606 H   0  0  0  0  0  0  0  0  0  0  0  0
  139.2250   68.2144  227.1020 H   0  0  0  0  0  0  0  0  0  0  0  0
  140.0854   69.1428  229.2541 H   0  0  0  0  0  0  0  0  0  0  0  0
  141.2207   71.3658  229.2969 H   0  0  0  0  0  0  0  0  0  0  0  0
  141.5067   72.6687  227.1872 H   0  0  0  0  0  0  0  0  0  0  0  0
  1  2  2  0
  2  3  1  0
  3  4  1  0
  4  5  1  0
  5  6  1  0
  5  7  2  0
  7  8  1  0
  8  9  1  0
  9 10  1  0
 10 11  1  0
 11 12  1  0
 12 13  1  0
 13 14  2  0
 14 15  1  0
 15 16  2  0
 16 17  1  0
 17 18  2  0
  2 19  1  0
 19 20  2  0
 20 21  1  0
 21 22  2  0
 22 23  1  0
 23 24  2  0
 24 25  1  0
 25 26  2  0
 26 27  1  0
 27 28  2  0
 12  7  1  0
 18 13  1  0
 28 19  1  0
 27 22  1  0
  3 29  1  0
  4 30  1  0
  4 31  1  0
  6 32  1  0
  8 33  1  0
  8 34  1  0
  9 35  1  0
  9 36  1  0
 10 37  1  0
 10 38  1  0
 11 39  1  0
 11 40  1  0
 12 41  1  1
 14 42  1  0
 15 43  1  0
 16 44  1  0
 17 45  1  0
 18 46  1  0
 20 47  1  0
 21 48  1  0
 23 49  1  0
 24 50  1  0
 25 51  1  0
 26 52  1  0
M  CHG  1   7   1
M  END
>  <meeko>  (11) 
{"free_energy": -8.98, "intermolecular_energy": -10.77, "internal_energy": -1.5, "cluster_size": 8, "cluster_id": 2, "rank_in_cluster": 1}

$$$$

     RDKit          3D

 52 55  0  0  0  0  0  0  0  0999 V2000
  140.5770   70.9710  221.3180 O   0  0  0  0  0  0  0  0  0  0  0  0
  140.1640   71.5410  222.3660 C   0  0  0  0  0  0  0  0  0  0  0  0
  139.8350   72.9380  222.3310 N   0  0  0  0  0  0  0  0  0  0  0  0
  139.8970   73.7030  221.0860 C   0  0  0  0  0  0  0  0  0  0  0  0
  140.3860   75.1120  221.3420 C   0  0  0  0  0  0  0  0  0  0  0  0
  139.9590   75.6790  222.5500 O   0  0  0  0  0  0  0  0  0  0  0  0
  141.1480   75.7790  220.4830 N   0  0  0  0  0  0  0  0  0  0  0  0
  141.3190   77.2430  220.6760 C   0  0  0  0  0  0  0  0  0  0  0  0
  141.7970   78.0030  219.4360 C   0  0  0  0  0  0  0  0  0  0  0  0
  142.9110   77.2650  218.7200 C   0  0  0  0  0  0  0  0  0  0  0  0
  142.3780   75.9230  218.2550 C   0  0  0  0  0  0  0  0  0  0  0  0
  141.9160   75.0420  219.4320 C   0  0  1  0  0  0  0  0  0  0  0  0
  143.1000   74.2880  220.0240 C   0  0  0  0  0  0  0  0  0  0  0  0
  144.3470   74.9080  220.2340 C   0  0  0  0  0  0  0  0  0  0  0  0
  145.4200   74.1810  220.7580 C   0  0  0  0  0  0  0  0  0  0  0  0
  145.2660   72.8280  221.0680 C   0  0  0  0  0  0  0  0  0  0  0  0
  144.0390   72.1980  220.8500 C   0  0  0  0  0  0  0  0  0  0  0  0
  142.9630   72.9200  220.3260 C   0  0  0  0  0  0  0  0  0  0  0  0
  140.0160   70.7650  223.6160 C   0  0  0  0  0  0  0  0  0  0  0  0
  139.3550   69.5250  223.6250 C   0  0  0  0  0  0  0  0  0  0  0  0
  139.2270   68.8160  224.8220 C   0  0  0  0  0  0  0  0  0  0  0  0
  139.7570   69.3430  226.0050 C   0  0  0  0  0  0  0  0  0  0  0  0
  139.6460   68.6590  227.2240 C   0  0  0  0  0  0  0  0  0  0  0  0
  140.1870   69.2140  228.3880 C   0  0  0  0  0  0  0  0  0  0  0  0
  140.8380   70.4520  228.3410 C   0  0  0  0  0  0  0  0  0  0  0  0
  140.9520   71.1400  227.1300 C   0  0  0  0  0  0  0  0  0  0  0  0
  140.4140   70.5920  225.9590 C   0  0  0  0  0  0  0  0  0  0  0  0
  140.5240   71.2590  224.7800 N   0  0  0  0  0  0  0  0  0  0  0  0
  139.5290   73.4140  223.2100 H   0  0  0  0  0  0  0  0  0  0  0  0
  140.5869   73.2032  220.3901 H   0  0  0  0  0  0  0  0  0  0  0  0
  138.8865   73.7546  220.6544 H   0  0  0  0  0  0  0  0  0  0  0  0
  139.2440   75.2870  223.1490 H   0  0  0  0  0  0  0  0  0  0  0  0
  140.3497   77.6632  220.9822 H   0  0  0  0  0  0  0  0  0  0  0  0
  142.1049   77.3652  221.4359 H   0  0  0  0  0  0  0  0  0  0  0  0
  140.9499   78.1265  218.7452 H   0  0  0  0  0  0  0  0  0  0  0  0
  142.1864   78.9790  219.7613 H   0  0  0  0  0  0  0  0  0  0  0  0
  143.2469   77.8517  217.8523 H   0  0  0  0  0  0  0  0  0  0  0  0
  143.7630   77.1171  219.3999 H   0  0  0  0  0  0  0  0  0  0  0  0
  141.5236   76.0942  217.5837 H   0  0  0  0  0  0  0  0  0  0  0  0
  143.1934   75.3961  217.7378 H   0  0  0  0  0  0  0  0  0  0  0  0
  141.1997   74.3183  219.0158 H   0  0  0  0  0  0  0  0  0  0  0  0
  144.4775   75.9712  219.9841 H   0  0  0  0  0  0  0  0  0  0  0  0
  146.3879   74.6758  220.9265 H   0  0  0  0  0  0  0  0  0  0  0  0
  146.1107   72.2590  221.4836 H   0  0  0  0  0  0  0  0  0  0  0  0
  143.9190   71.1315  221.0911 H   0  0  0  0  0  0  0  0  0  0  0  0
  142.0019   72.4154  220.1483 H   0  0  0  0  0  0  0  0  0  0  0  0
  138.9398   69.1140  222.6929 H   0  0  0  0  0  0  0  0  0  0  0  0
  138.7104   67.8450  224.8345 H   0  0  0  0  0  0  0  0  0  0  0  0
  139.1337   67.6864  227.2647 H   0  0  0  0  0  0  0  0  0  0  0  0
  140.1006   68.6759  229.3435 H   0  0  0  0  0  0  0  0  0  0  0  0
  141.2610   70.8846  229.2597 H   0  0  0  0  0  0  0  0  0  0  0  0
  141.4647   72.1127  227.0966 H   0  0  0  0  0  0  0  0  0  0  0  0
  1  2  2  0
  2  3  1  0
  3  4  1  0
  4  5  1  0
  5  6  1  0
  5  7  2  0
  7  8  1  0
  8  9  1  0
  9 10  1  0
 10 11  1  0
 11 12  1  0
 12 13  1  0
 13 14  2  0
 14 15  1  0
 15 16  2  0
 16 17  1  0
 17 18  2  0
  2 19  1  0
 19 20  2  0
 20 21  1  0
 21 22  2  0
 22 23  1  0
 23 24  2  0
 24 25  1  0
 25 26  2  0
 26 27  1  0
 27 28  2  0
 12  7  1  0
 18 13  1  0
 28 19  1  0
 27 22  1  0
  3 29  1  0
  4 30  1  0
  4 31  1  0
  6 32  1  0
  8 33  1  0
  8 34  1  0
  9 35  1  0
  9 36  1  0
 10 37  1  0
 10 38  1  0
 11 39  1  0
 11 40  1  0
 12 41  1  6
 14 42  1  0
 15 43  1  0
 16 44  1  0
 17 45  1  0
 18 46  1  0
 20 47  1  0
 21 48  1  0
 23 49  1  0
 24 50  1  0
 25 51  1  0
 26 52  1  0
M  CHG  1   7   1
M  END
>  <meeko>  (12) 
{"free_energy": -8.88, "intermolecular_energy": -10.67, "internal_energy": -1.71, "cluster_size": 10, "cluster_id": 1, "rank_in_cluster": 7}

$$$$

     RDKit          3D

 52 55  0  0  0  0  0  0  0  0999 V2000
  140.7300   71.5720  221.2560 O   0  0  0  0  0  0  0  0  0  0  0  0
  140.2870   72.1240  222.3010 C   0  0  0  0  0  0  0  0  0  0  0  0
  139.8930   73.5030  222.2610 N   0  0  0  0  0  0  0  0  0  0  0  0
  139.9220   74.2680  221.0150 C   0  0  0  0  0  0  0  0  0  0  0  0
  140.9100   75.4110  221.1050 C   0  0  0  0  0  0  0  0  0  0  0  0
  141.0030   76.0170  222.3660 O   0  0  0  0  0  0  0  0  0  0  0  0
  141.6260   75.8310  220.0700 N   0  0  0  0  0  0  0  0  0  0  0  0
  141.9320   77.2810  219.9600 C   0  0  0  0  0  0  0  0  0  0  0  0
  142.3330   77.7500  218.5590 C   0  0  0  0  0  0  0  0  0  0  0  0
  143.3020   76.7880  217.9020 C   0  0  0  0  0  0  0  0  0  0  0  0
  142.6170   75.4410  217.7540 C   0  0  0  0  0  0  0  0  0  0  0  0
  142.2150   74.8420  219.1150 C   0  0  1  0  0  0  0  0  0  0  0  0
  143.3920   74.0970  219.7320 C   0  0  0  0  0  0  0  0  0  0  0  0
  143.4110   72.6930  219.8390 C   0  0  0  0  0  0  0  0  0  0  0  0
  144.4950   72.0410  220.4320 C   0  0  0  0  0  0  0  0  0  0  0  0
  145.5690   72.7810  220.9340 C   0  0  0  0  0  0  0  0  0  0  0  0
  145.5560   74.1740  220.8480 C   0  0  0  0  0  0  0  0  0  0  0  0
  144.4730   74.8310  220.2560 C   0  0  0  0  0  0  0  0  0  0  0  0
  140.1720   71.3440  223.5520 C   0  0  0  0  0  0  0  0  0  0  0  0
  139.6020   70.0600  223.5560 C   0  0  0  0  0  0  0  0  0  0  0  0
  139.5030   69.3490  224.7540 C   0  0  0  0  0  0  0  0  0  0  0  0
  139.9710   69.9190  225.9440 C   0  0  0  0  0  0  0  0  0  0  0  0
  139.8870   69.2330  227.1650 C   0  0  0  0  0  0  0  0  0  0  0  0
  140.3640   69.8300  228.3360 C   0  0  0  0  0  0  0  0  0  0  0  0
  140.9250   71.1120  228.2940 C   0  0  0  0  0  0  0  0  0  0  0  0
  141.0130   71.8010  227.0810 C   0  0  0  0  0  0  0  0  0  0  0  0
  140.5380   71.2110  225.9040 C   0  0  0  0  0  0  0  0  0  0  0  0
  140.6210   71.8790  224.7230 N   0  0  0  0  0  0  0  0  0  0  0  0
  139.5610   73.9670  223.1380 H   0  0  0  0  0  0  0  0  0  0  0  0
  140.2161   73.6020  220.1904 H   0  0  0  0  0  0  0  0  0  0  0  0
  138.9196   74.6837  220.8348 H   0  0  0  0  0  0  0  0  0  0  0  0
  141.8630   76.3470  222.7840 H   0  0  0  0  0  0  0  0  0  0  0  0
  141.0374   77.8433  220.2657 H   0  0  0  0  0  0  0  0  0  0  0  0
  142.8025   77.4629  220.6074 H   0  0  0  0  0  0  0  0  0  0  0  0
  141.4294   77.8265  217.9364 H   0  0  0  0  0  0  0  0  0  0  0  0
  142.8303   78.7266  218.6536 H   0  0  0  0  0  0  0  0  0  0  0  0
  143.5890   77.1693  216.9109 H   0  0  0  0  0  0  0  0  0  0  0  0
  144.2073   76.6850  218.5183 H   0  0  0  0  0  0  0  0  0  0  0  0
  141.7122   75.5687  217.1416 H   0  0  0  0  0  0  0  0  0  0  0  0
  143.3279   74.7504  217.2770 H   0  0  0  0  0  0  0  0  0  0  0  0
  141.4022   74.1292  218.9118 H   0  0  0  0  0  0  0  0  0  0  0  0
  142.5655   72.1049  219.4526 H   0  0  0  0  0  0  0  0  0  0  0  0
  144.5032   70.9434  220.5039 H   0  0  0  0  0  0  0  0  0  0  0  0
  146.4239   72.2660  221.3965 H   0  0  0  0  0  0  0  0  0  0  0  0
  146.3997   74.7563  221.2469 H   0  0  0  0  0  0  0  0  0  0  0  0
  144.4656   75.9295  220.1993 H   0  0  0  0  0  0  0  0  0  0  0  0
  139.2350   69.6162  222.6188 H   0  0  0  0  0  0  0  0  0  0  0  0
  139.0582   68.3430  224.7626 H   0  0  0  0  0  0  0  0  0  0  0  0
  139.4461   68.2259  227.2011 H   0  0  0  0  0  0  0  0  0  0  0  0
  140.2983   69.2910  229.2926 H   0  0  0  0  0  0  0  0  0  0  0  0
  141.2975   71.5783  229.2180 H   0  0  0  0  0  0  0  0  0  0  0  0
  141.4558   72.8075  227.0514 H   0  0  0  0  0  0  0  0  0  0  0  0
  1  2  2  0
  2  3  1  0
  3  4  1  0
  4  5  1  0
  5  6  1  0
  5  7  2  0
  7  8  1  0
  8  9  1  0
  9 10  1  0
 10 11  1  0
 11 12  1  0
 12 13  1  0
 13 14  2  0
 14 15  1  0
 15 16  2  0
 16 17  1  0
 17 18  2  0
  2 19  1  0
 19 20  2  0
 20 21  1  0
 21 22  2  0
 22 23  1  0
 23 24  2  0
 24 25  1  0
 25 26  2  0
 26 27  1  0
 27 28  2  0
 12  7  1  0
 18 13  1  0
 28 19  1  0
 27 22  1  0
  3 29  1  0
  4 30  1  0
  4 31  1  0
  6 32  1  0
  8 33  1  0
  8 34  1  0
  9 35  1  0
  9 36  1  0
 10 37  1  0
 10 38  1  0
 11 39  1  0
 11 40  1  0
 12 41  1  6
 14 42  1  0
 15 43  1  0
 16 44  1  0
 17 45  1  0
 18 46  1  0
 20 47  1  0
 21 48  1  0
 23 49  1  0
 24 50  1  0
 25 51  1  0
 26 52  1  0
M  CHG  1   7   1
M  END
>  <meeko>  (13) 
{"free_energy": -9.09, "intermolecular_energy": -10.88, "internal_energy": -1.62, "cluster_size": 10, "cluster_id": 1, "rank_in_cluster": 3}

$$$$

     RDKit          3D

 52 55  0  0  0  0  0  0  0  0999 V2000
  138.3400   72.3590  222.5070 O   0  0  0  0  0  0  0  0  0  0  0  0
  139.4240   71.7330  222.6720 C   0  0  0  0  0  0  0  0  0  0  0  0
  140.4960   71.9140  221.7350 N   0  0  0  0  0  0  0  0  0  0  0  0
  140.3890   72.8660  220.6300 C   0  0  0  0  0  0  0  0  0  0  0  0
  140.6210   74.2820  221.1120 C   0  0  0  0  0  0  0  0  0  0  0  0
  140.0320   74.5940  222.3450 O   0  0  0  0  0  0  0  0  0  0  0  0
  141.3130   75.1770  220.4180 N   0  0  0  0  0  0  0  0  0  0  0  0
  141.2780   76.5970  220.8570 C   0  0  0  0  0  0  0  0  0  0  0  0
  141.6890   77.6110  219.7870 C   0  0  0  0  0  0  0  0  0  0  0  0
  142.9150   77.1550  219.0220 C   0  0  0  0  0  0  0  0  0  0  0  0
  142.5840   75.8540  218.3140 C   0  0  0  0  0  0  0  0  0  0  0  0
  142.2070   74.7340  219.3030 C   0  0  1  0  0  0  0  0  0  0  0  0
  143.4620   74.0490  219.8270 C   0  0  0  0  0  0  0  0  0  0  0  0
  144.5010   74.7700  220.4470 C   0  0  0  0  0  0  0  0  0  0  0  0
  145.6500   74.1130  220.8950 C   0  0  0  0  0  0  0  0  0  0  0  0
  145.7820   72.7330  220.7230 C   0  0  0  0  0  0  0  0  0  0  0  0
  144.7670   72.0090  220.0960 C   0  0  0  0  0  0  0  0  0  0  0  0
  143.6150   72.6610  219.6460 C   0  0  0  0  0  0  0  0  0  0  0  0
  139.5820   70.8270  223.8300 C   0  0  0  0  0  0  0  0  0  0  0  0
  139.1300   69.4980  223.7770 C   0  0  0  0  0  0  0  0  0  0  0  0
  139.2880   68.6660  224.8880 C   0  0  0  0  0  0  0  0  0  0  0  0
  139.8950   69.1600  226.0470 C   0  0  0  0  0  0  0  0  0  0  0  0
  140.0700   68.3540  227.1820 C   0  0  0  0  0  0  0  0  0  0  0  0
  140.6810   68.8780  228.3250 C   0  0  0  0  0  0  0  0  0  0  0  0
  141.1180   70.2080  228.3420 C   0  0  0  0  0  0  0  0  0  0  0  0
  140.9480   71.0180  227.2160 C   0  0  0  0  0  0  0  0  0  0  0  0
  140.3370   70.5010  226.0670 C   0  0  0  0  0  0  0  0  0  0  0  0
  140.1700   71.2870  224.9700 N   0  0  0  0  0  0  0  0  0  0  0  0
  141.3790   71.3660  221.8550 H   0  0  0  0  0  0  0  0  0  0  0  0
  141.1412   72.6177  219.8667 H   0  0  0  0  0  0  0  0  0  0  0  0
  139.3758   72.8006  220.2069 H   0  0  0  0  0  0  0  0  0  0  0  0
  139.2200   74.1290  222.7290 H   0  0  0  0  0  0  0  0  0  0  0  0
  140.2512   76.8317  221.1741 H   0  0  0  0  0  0  0  0  0  0  0  0
  142.0150   76.6880  221.6685 H   0  0  0  0  0  0  0  0  0  0  0  0
  140.8560   77.7406  219.0804 H   0  0  0  0  0  0  0  0  0  0  0  0
  141.9320   78.5590  220.2892 H   0  0  0  0  0  0  0  0  0  0  0  0
  143.1963   77.9190  218.2822 H   0  0  0  0  0  0  0  0  0  0  0  0
  143.7567   77.0042  219.7139 H   0  0  0  0  0  0  0  0  0  0  0  0
  141.7369   76.0262  217.6338 H   0  0  0  0  0  0  0  0  0  0  0  0
  143.4798   75.5313  217.7631 H   0  0  0  0  0  0  0  0  0  0  0  0
  141.6087   74.0065  218.7349 H   0  0  0  0  0  0  0  0  0  0  0  0
  144.4073   75.8580  220.5795 H   0  0  0  0  0  0  0  0  0  0  0  0
  146.4527   74.6840  221.3844 H   0  0  0  0  0  0  0  0  0  0  0  0
  146.6852   72.2175  221.0815 H   0  0  0  0  0  0  0  0  0  0  0  0
  144.8735   70.9232  219.9555 H   0  0  0  0  0  0  0  0  0  0  0  0
  142.8219   72.0851  219.1466 H   0  0  0  0  0  0  0  0  0  0  0  0
  138.6531   69.1136  222.8633 H   0  0  0  0  0  0  0  0  0  0  0  0
  138.9357   67.6246  224.8513 H   0  0  0  0  0  0  0  0  0  0  0  0
  139.7262   67.3091  227.1725 H   0  0  0  0  0  0  0  0  0  0  0  0
  140.8188   68.2438  229.2132 H   0  0  0  0  0  0  0  0  0  0  0  0
  141.5965   70.6165  229.2443 H   0  0  0  0  0  0  0  0  0  0  0  0
  141.2942   72.0620  227.2323 H   0  0  0  0  0  0  0  0  0  0  0  0
  1  2  2  0
  2  3  1  0
  3  4  1  0
  4  5  1  0
  5  6  1  0
  5  7  2  0
  7  8  1  0
  8  9  1  0
  9 10  1  0
 10 11  1  0
 11 12  1  0
 12 13  1  0
 13 14  2  0
 14 15  1  0
 15 16  2  0
 16 17  1  0
 17 18  2  0
  2 19  1  0
 19 20  2  0
 20 21  1  0
 21 22  2  0
 22 23  1  0
 23 24  2  0
 24 25  1  0
 25 26  2  0
 26 27  1  0
 27 28  2  0
 12  7  1  0
 18 13  1  0
 28 19  1  0
 27 22  1  0
  3 29  1  0
  4 30  1  0
  4 31  1  0
  6 32  1  0
  8 33  1  0
  8 34  1  0
  9 35  1  0
  9 36  1  0
 10 37  1  0
 10 38  1  0
 11 39  1  0
 11 40  1  0
 12 41  1  6
 14 42  1  0
 15 43  1  0
 16 44  1  0
 17 45  1  0
 18 46  1  0
 20 47  1  0
 21 48  1  0
 23 49  1  0
 24 50  1  0
 25 51  1  0
 26 52  1  0
M  CHG  1   7   1
M  END
>  <meeko>  (14) 
{"free_energy": -8.9, "intermolecular_energy": -10.69, "internal_energy": -1.82, "cluster_size": 10, "cluster_id": 1, "rank_in_cluster": 4}

$$$$

     RDKit          3D

 52 55  0  0  0  0  0  0  0  0999 V2000
  138.7460   72.4600  221.8330 O   0  0  0  0  0  0  0  0  0  0  0  0
  139.7980   72.3000  222.5130 C   0  0  0  0  0  0  0  0  0  0  0  0
  141.0060   72.9650  222.1160 N   0  0  0  0  0  0  0  0  0  0  0  0
  141.0300   73.8870  220.9820 C   0  0  0  0  0  0  0  0  0  0  0  0
  140.2080   75.1240  221.2730 C   0  0  0  0  0  0  0  0  0  0  0  0
  139.5330   75.1130  222.5020 O   0  0  0  0  0  0  0  0  0  0  0  0
  140.1100   76.1420  220.4270 N   0  0  0  0  0  0  0  0  0  0  0  0
  138.8770   76.2650  219.6050 C   0  0  0  0  0  0  0  0  0  0  0  0
  139.0190   77.1460  218.3620 C   0  0  0  0  0  0  0  0  0  0  0  0
  139.7790   78.4220  218.6610 C   0  0  0  0  0  0  0  0  0  0  0  0
  141.1780   78.0520  219.1200 C   0  0  0  0  0  0  0  0  0  0  0  0
  141.1620   77.2060  220.4070 C   0  0  1  0  0  0  0  0  0  0  0  0
  141.0740   78.1070  221.6310 C   0  0  0  0  0  0  0  0  0  0  0  0
  139.9010   78.2000  222.4040 C   0  0  0  0  0  0  0  0  0  0  0  0
  139.8460   79.0550  223.5080 C   0  0  0  0  0  0  0  0  0  0  0  0
  140.9540   79.8340  223.8490 C   0  0  0  0  0  0  0  0  0  0  0  0
  142.1180   79.7630  223.0810 C   0  0  0  0  0  0  0  0  0  0  0  0
  142.1790   78.9090  221.9760 C   0  0  0  0  0  0  0  0  0  0  0  0
  139.7740   71.4340  223.7120 C   0  0  0  0  0  0  0  0  0  0  0  0
  139.1310   70.1850  223.6920 C   0  0  0  0  0  0  0  0  0  0  0  0
  139.1210   69.3920  224.8410 C   0  0  0  0  0  0  0  0  0  0  0  0
  139.7510   69.8440  226.0060 C   0  0  0  0  0  0  0  0  0  0  0  0
  139.7590   69.0740  227.1780 C   0  0  0  0  0  0  0  0  0  0  0  0
  140.3980   69.5550  228.3260 C   0  0  0  0  0  0  0  0  0  0  0  0
  141.0270   70.8050  228.3090 C   0  0  0  0  0  0  0  0  0  0  0  0
  141.0230   71.5780  227.1450 C   0  0  0  0  0  0  0  0  0  0  0  0
  140.3870   71.1050  225.9920 C   0  0  0  0  0  0  0  0  0  0  0  0
  140.3800   71.8550  224.8580 N   0  0  0  0  0  0  0  0  0  0  0  0
  141.8840   72.8000  222.6600 H   0  0  0  0  0  0  0  0  0  0  0  0
  142.0699   74.1847  220.7820 H   0  0  0  0  0  0  0  0  0  0  0  0
  140.6004   73.3780  220.1066 H   0  0  0  0  0  0  0  0  0  0  0  0
  138.8630   74.4100  222.7840 H   0  0  0  0  0  0  0  0  0  0  0  0
  138.5819   75.2570  219.2780 H   0  0  0  0  0  0  0  0  0  0  0  0
  138.1259   76.7513  220.2448 H   0  0  0  0  0  0  0  0  0  0  0  0
  139.5591   76.5832  217.5864 H   0  0  0  0  0  0  0  0  0  0  0  0
  138.0101   77.4208  218.0205 H   0  0  0  0  0  0  0  0  0  0  0  0
  139.8376   79.0406  217.7533 H   0  0  0  0  0  0  0  0  0  0  0  0
  139.2629   78.9932  219.4467 H   0  0  0  0  0  0  0  0  0  0  0  0
  141.6717   77.4761  218.3234 H   0  0  0  0  0  0  0  0  0  0  0  0
  141.7211   78.9842  219.3347 H   0  0  0  0  0  0  0  0  0  0  0  0
  142.1162   76.6592  220.4302 H   0  0  0  0  0  0  0  0  0  0  0  0
  139.0217   77.5954  222.1371 H   0  0  0  0  0  0  0  0  0  0  0  0
  138.9274   79.1147  224.1102 H   0  0  0  0  0  0  0  0  0  0  0  0
  140.9097   80.5025  224.7214 H   0  0  0  0  0  0  0  0  0  0  0  0
  142.9889   80.3805  223.3461 H   0  0  0  0  0  0  0  0  0  0  0  0
  143.0969   78.8631  221.3715 H   0  0  0  0  0  0  0  0  0  0  0  0
  138.6371   69.8331  222.7742 H   0  0  0  0  0  0  0  0  0  0  0  0
  138.6187   68.4134  224.8306 H   0  0  0  0  0  0  0  0  0  0  0  0
  139.2631   68.0923  227.1947 H   0  0  0  0  0  0  0  0  0  0  0  0
  140.4060   68.9492  229.2441 H   0  0  0  0  0  0  0  0  0  0  0  0
  141.5260   71.1801  229.2147 H   0  0  0  0  0  0  0  0  0  0  0  0
  141.5202   72.5591  227.1351 H   0  0  0  0  0  0  0  0  0  0  0  0
  1  2  2  0
  2  3  1  0
  3  4  1  0
  4  5  1  0
  5  6  1  0
  5  7  2  0
  7  8  1  0
  8  9  1  0
  9 10  1  0
 10 11  1  0
 11 12  1  0
 12 13  1  0
 13 14  2  0
 14 15  1  0
 15 16  2  0
 16 17  1  0
 17 18  2  0
  2 19  1  0
 19 20  2  0
 20 21  1  0
 21 22  2  0
 22 23  1  0
 23 24  2  0
 24 25  1  0
 25 26  2  0
 26 27  1  0
 27 28  2  0
 12  7  1  0
 18 13  1  0
 28 19  1  0
 27 22  1  0
  3 29  1  0
  4 30  1  0
  4 31  1  0
  6 32  1  0
  8 33  1  0
  8 34  1  0
  9 35  1  0
  9 36  1  0
 10 37  1  0
 10 38  1  0
 11 39  1  0
 11 40  1  0
 12 41  1  1
 14 42  1  0
 15 43  1  0
 16 44  1  0
 17 45  1  0
 18 46  1  0
 20 47  1  0
 21 48  1  0
 23 49  1  0
 24 50  1  0
 25 51  1  0
 26 52  1  0
M  CHG  1   7   1
M  END
>  <meeko>  (15) 
{"free_energy": -8.15, "intermolecular_energy": -9.94, "internal_energy": -1.85, "cluster_size": 8, "cluster_id": 2, "rank_in_cluster": 8}

$$$$

     RDKit          3D

 52 55  0  0  0  0  0  0  0  0999 V2000
  138.3240   72.2980  222.4760 O   0  0  0  0  0  0  0  0  0  0  0  0
  139.4200   71.6990  222.6600 C   0  0  0  0  0  0  0  0  0  0  0  0
  140.5030   71.9030  221.7420 N   0  0  0  0  0  0  0  0  0  0  0  0
  140.3930   72.8510  220.6330 C   0  0  0  0  0  0  0  0  0  0  0  0
  140.6200   74.2690  221.1100 C   0  0  0  0  0  0  0  0  0  0  0  0
  140.0150   74.5880  222.3340 O   0  0  0  0  0  0  0  0  0  0  0  0
  141.3210   75.1600  220.4190 N   0  0  0  0  0  0  0  0  0  0  0  0
  141.2990   76.5780  220.8640 C   0  0  0  0  0  0  0  0  0  0  0  0
  141.7200   77.5920  219.7970 C   0  0  0  0  0  0  0  0  0  0  0  0
  142.9420   77.1270  219.0310 C   0  0  0  0  0  0  0  0  0  0  0  0
  142.5990   75.8320  218.3190 C   0  0  0  0  0  0  0  0  0  0  0  0
  142.2110   74.7130  219.3040 C   0  0  1  0  0  0  0  0  0  0  0  0
  143.4590   74.0130  219.8270 C   0  0  0  0  0  0  0  0  0  0  0  0
  144.5000   74.7210  220.4590 C   0  0  0  0  0  0  0  0  0  0  0  0
  145.6420   74.0520  220.9060 C   0  0  0  0  0  0  0  0  0  0  0  0
  145.7670   72.6730  220.7200 C   0  0  0  0  0  0  0  0  0  0  0  0
  144.7490   71.9620  220.0800 C   0  0  0  0  0  0  0  0  0  0  0  0
  143.6040   72.6260  219.6310 C   0  0  0  0  0  0  0  0  0  0  0  0
  139.5780   70.7980  223.8230 C   0  0  0  0  0  0  0  0  0  0  0  0
  139.1360   69.4660  223.7730 C   0  0  0  0  0  0  0  0  0  0  0  0
  139.2950   68.6400  224.8880 C   0  0  0  0  0  0  0  0  0  0  0  0
  139.8930   69.1430  226.0480 C   0  0  0  0  0  0  0  0  0  0  0  0
  140.0680   68.3420  227.1870 C   0  0  0  0  0  0  0  0  0  0  0  0
  140.6700   68.8760  228.3310 C   0  0  0  0  0  0  0  0  0  0  0  0
  141.0980   70.2080  228.3440 C   0  0  0  0  0  0  0  0  0  0  0  0
  140.9260   71.0130  227.2140 C   0  0  0  0  0  0  0  0  0  0  0  0
  140.3260   70.4870  226.0650 C   0  0  0  0  0  0  0  0  0  0  0  0
  140.1570   71.2670  224.9640 N   0  0  0  0  0  0  0  0  0  0  0  0
  141.3960   71.3770  221.8780 H   0  0  0  0  0  0  0  0  0  0  0  0
  141.1462   72.6025  219.8708 H   0  0  0  0  0  0  0  0  0  0  0  0
  139.3802   72.7806  220.2097 H   0  0  0  0  0  0  0  0  0  0  0  0
  139.2190   74.1030  222.7260 H   0  0  0  0  0  0  0  0  0  0  0  0
  140.2744   76.8211  221.1818 H   0  0  0  0  0  0  0  0  0  0  0  0
  142.0361   76.6592  221.6765 H   0  0  0  0  0  0  0  0  0  0  0  0
  140.8885   77.7316  219.0905 H   0  0  0  0  0  0  0  0  0  0  0  0
  141.9716   78.5361  220.3023 H   0  0  0  0  0  0  0  0  0  0  0  0
  143.2308   77.8907  218.2938 H   0  0  0  0  0  0  0  0  0  0  0  0
  143.7821   76.9661  219.7227 H   0  0  0  0  0  0  0  0  0  0  0  0
  141.7538   76.0145  217.6390 H   0  0  0  0  0  0  0  0  0  0  0  0
  143.4919   75.5025  217.7674 H   0  0  0  0  0  0  0  0  0  0  0  0
  141.6062   73.9936  218.7324 H   0  0  0  0  0  0  0  0  0  0  0  0
  144.4131   75.8083  220.6015 H   0  0  0  0  0  0  0  0  0  0  0  0
  146.4454   74.6128  221.4061 H   0  0  0  0  0  0  0  0  0  0  0  0
  146.6654   72.1481  221.0769 H   0  0  0  0  0  0  0  0  0  0  0  0
  144.8487   70.8770  219.9291 H   0  0  0  0  0  0  0  0  0  0  0  0
  142.8101   72.0609  219.1207 H   0  0  0  0  0  0  0  0  0  0  0  0
  138.6661   69.0745  222.8587 H   0  0  0  0  0  0  0  0  0  0  0  0
  138.9506   67.5959  224.8539 H   0  0  0  0  0  0  0  0  0  0  0  0
  139.7318   67.2946  227.1801 H   0  0  0  0  0  0  0  0  0  0  0  0
  140.8073   68.2470  229.2229 H   0  0  0  0  0  0  0  0  0  0  0  0
  141.5713   70.6231  229.2461 H   0  0  0  0  0  0  0  0  0  0  0  0
  141.2625   72.0602  227.2284 H   0  0  0  0  0  0  0  0  0  0  0  0
  1  2  2  0
  2  3  1  0
  3  4  1  0
  4  5  1  0
  5  6  1  0
  5  7  2  0
  7  8  1  0
  8  9  1  0
  9 10  1  0
 10 11  1  0
 11 12  1  0
 12 13  1  0
 13 14  2  0
 14 15  1  0
 15 16  2  0
 16 17  1  0
 17 18  2  0
  2 19  1  0
 19 20  2  0
 20 21  1  0
 21 22  2  0
 22 23  1  0
 23 24  2  0
 24 25  1  0
 25 26  2  0
 26 27  1  0
 27 28  2  0
 12  7  1  0
 18 13  1  0
 28 19  1  0
 27 22  1  0
  3 29  1  0
  4 30  1  0
  4 31  1  0
  6 32  1  0
  8 33  1  0
  8 34  1  0
  9 35  1  0
  9 36  1  0
 10 37  1  0
 10 38  1  0
 11 39  1  0
 11 40  1  0
 12 41  1  6
 14 42  1  0
 15 43  1  0
 16 44  1  0
 17 45  1  0
 18 46  1  0
 20 47  1  0
 21 48  1  0
 23 49  1  0
 24 50  1  0
 25 51  1  0
 26 52  1  0
M  CHG  1   7   1
M  END
>  <meeko>  (16) 
{"free_energy": -8.9, "intermolecular_energy": -10.69, "internal_energy": -1.83, "cluster_size": 10, "cluster_id": 1, "rank_in_cluster": 5}

$$$$

     RDKit          3D

 52 55  0  0  0  0  0  0  0  0999 V2000
  140.1980   70.8380  221.2890 O   0  0  0  0  0  0  0  0  0  0  0  0
  140.0230   71.4310  222.3900 C   0  0  0  0  0  0  0  0  0  0  0  0
  139.9180   72.8620  222.4150 N   0  0  0  0  0  0  0  0  0  0  0  0
  139.9350   73.6490  221.1820 C   0  0  0  0  0  0  0  0  0  0  0  0
  140.3900   75.0660  221.4520 C   0  0  0  0  0  0  0  0  0  0  0  0
  139.9340   75.6170  222.6580 O   0  0  0  0  0  0  0  0  0  0  0  0
  141.1470   75.7550  220.6070 N   0  0  0  0  0  0  0  0  0  0  0  0
  141.3300   77.2110  220.8440 C   0  0  0  0  0  0  0  0  0  0  0  0
  141.8000   78.0070  219.6230 C   0  0  0  0  0  0  0  0  0  0  0  0
  142.9020   77.2860  218.8730 C   0  0  0  0  0  0  0  0  0  0  0  0
  142.3540   75.9620  218.3720 C   0  0  0  0  0  0  0  0  0  0  0  0
  141.8990   75.0470  219.5250 C   0  0  1  0  0  0  0  0  0  0  0  0
  143.0830   74.2680  220.0800 C   0  0  0  0  0  0  0  0  0  0  0  0
  144.3320   74.8760  220.3140 C   0  0  0  0  0  0  0  0  0  0  0  0
  145.4050   74.1270  220.8020 C   0  0  0  0  0  0  0  0  0  0  0  0
  145.2510   72.7610  221.0530 C   0  0  0  0  0  0  0  0  0  0  0  0
  144.0240   72.1420  220.8120 C   0  0  0  0  0  0  0  0  0  0  0  0
  142.9460   72.8880  220.3230 C   0  0  0  0  0  0  0  0  0  0  0  0
  139.9210   70.6470  223.6400 C   0  0  0  0  0  0  0  0  0  0  0  0
  139.2670   69.4030  223.6640 C   0  0  0  0  0  0  0  0  0  0  0  0
  139.1820   68.6870  224.8600 C   0  0  0  0  0  0  0  0  0  0  0  0
  139.7480   69.2110  226.0280 C   0  0  0  0  0  0  0  0  0  0  0  0
  139.6810   68.5200  227.2460 C   0  0  0  0  0  0  0  0  0  0  0  0
  140.2570   69.0710  228.3950 C   0  0  0  0  0  0  0  0  0  0  0  0
  140.8990   70.3130  228.3330 C   0  0  0  0  0  0  0  0  0  0  0  0
  140.9700   71.0080  227.1230 C   0  0  0  0  0  0  0  0  0  0  0  0
  140.3970   70.4640  225.9680 C   0  0  0  0  0  0  0  0  0  0  0  0
  140.4640   71.1370  224.7890 N   0  0  0  0  0  0  0  0  0  0  0  0
  139.8100   73.3520  223.3330 H   0  0  0  0  0  0  0  0  0  0  0  0
  140.6246   73.1798  220.4648 H   0  0  0  0  0  0  0  0  0  0  0  0
  138.9152   73.6798  220.7708 H   0  0  0  0  0  0  0  0  0  0  0  0
  139.1660   75.2500  223.2040 H   0  0  0  0  0  0  0  0  0  0  0  0
  140.3669   77.6276  221.1739 H   0  0  0  0  0  0  0  0  0  0  0  0
  142.1249   77.3041  221.5987 H   0  0  0  0  0  0  0  0  0  0  0  0
  140.9467   78.1567  218.9452 H   0  0  0  0  0  0  0  0  0  0  0  0
  142.1984   78.9701  219.9746 H   0  0  0  0  0  0  0  0  0  0  0  0
  143.2328   77.8975  218.0206 H   0  0  0  0  0  0  0  0  0  0  0  0
  143.7606   77.1121  219.5382 H   0  0  0  0  0  0  0  0  0  0  0  0
  141.4934   76.1602  217.7162 H   0  0  0  0  0  0  0  0  0  0  0  0
  143.1601   75.4463  217.8296 H   0  0  0  0  0  0  0  0  0  0  0  0
  141.1740   74.3412  219.0934 H   0  0  0  0  0  0  0  0  0  0  0  0
  144.4632   75.9491  220.1108 H   0  0  0  0  0  0  0  0  0  0  0  0
  146.3736   74.6135  220.9892 H   0  0  0  0  0  0  0  0  0  0  0  0
  146.0968   72.1740  221.4404 H   0  0  0  0  0  0  0  0  0  0  0  0
  143.9040   71.0660  221.0067 H   0  0  0  0  0  0  0  0  0  0  0  0
  141.9838   72.3923  220.1268 H   0  0  0  0  0  0  0  0  0  0  0  0
  138.8236   68.9948  222.7438 H   0  0  0  0  0  0  0  0  0  0  0  0
  138.6712   67.7131  224.8841 H   0  0  0  0  0  0  0  0  0  0  0  0
  139.1754   67.5445  227.2979 H   0  0  0  0  0  0  0  0  0  0  0  0
  140.2054   68.5270  229.3497 H   0  0  0  0  0  0  0  0  0  0  0  0
  141.3491   70.7434  229.2397 H   0  0  0  0  0  0  0  0  0  0  0  0
  141.4766   71.9834  227.0783 H   0  0  0  0  0  0  0  0  0  0  0  0
  1  2  2  0
  2  3  1  0
  3  4  1  0
  4  5  1  0
  5  6  1  0
  5  7  2  0
  7  8  1  0
  8  9  1  0
  9 10  1  0
 10 11  1  0
 11 12  1  0
 12 13  1  0
 13 14  2  0
 14 15  1  0
 15 16  2  0
 16 17  1  0
 17 18  2  0
  2 19  1  0
 19 20  2  0
 20 21  1  0
 21 22  2  0
 22 23  1  0
 23 24  2  0
 24 25  1  0
 25 26  2  0
 26 27  1  0
 27 28  2  0
 12  7  1  0
 18 13  1  0
 28 19  1  0
 27 22  1  0
  3 29  1  0
  4 30  1  0
  4 31  1  0
  6 32  1  0
  8 33  1  0
  8 34  1  0
  9 35  1  0
  9 36  1  0
 10 37  1  0
 10 38  1  0
 11 39  1  0
 11 40  1  0
 12 41  1  6
 14 42  1  0
 15 43  1  0
 16 44  1  0
 17 45  1  0
 18 46  1  0
 20 47  1  0
 21 48  1  0
 23 49  1  0
 24 50  1  0
 25 51  1  0
 26 52  1  0
M  CHG  1   7   1
M  END
>  <meeko>  (17) 
{"free_energy": -8.82, "intermolecular_energy": -10.61, "internal_energy": -1.75, "cluster_size": 10, "cluster_id": 1, "rank_in_cluster": 10}

$$$$

     RDKit          3D

 52 55  0  0  0  0  0  0  0  0999 V2000
  138.6700   72.8490  221.8350 O   0  0  0  0  0  0  0  0  0  0  0  0
  139.7630   72.5480  222.3890 C   0  0  0  0  0  0  0  0  0  0  0  0
  140.9750   73.1880  221.9620 N   0  0  0  0  0  0  0  0  0  0  0  0
  140.9620   74.2400  220.9460 C   0  0  0  0  0  0  0  0  0  0  0  0
  140.1470   75.4280  221.4090 C   0  0  0  0  0  0  0  0  0  0  0  0
  139.6020   75.3100  222.6950 O   0  0  0  0  0  0  0  0  0  0  0  0
  139.9400   76.5010  220.6540 N   0  0  0  0  0  0  0  0  0  0  0  0
  138.5490   76.8130  220.2330 C   0  0  0  0  0  0  0  0  0  0  0  0
  138.4380   77.7460  219.0240 C   0  0  0  0  0  0  0  0  0  0  0  0
  139.4080   78.9070  219.1200 C   0  0  0  0  0  0  0  0  0  0  0  0
  140.8210   78.3520  219.1400 C   0  0  0  0  0  0  0  0  0  0  0  0
  141.0680   77.4360  220.3540 C   0  0  1  0  0  0  0  0  0  0  0  0
  141.4510   78.2660  221.5730 C   0  0  0  0  0  0  0  0  0  0  0  0
  141.1550   77.8440  222.8830 C   0  0  0  0  0  0  0  0  0  0  0  0
  141.4990   78.6400  223.9790 C   0  0  0  0  0  0  0  0  0  0  0  0
  142.1320   79.8690  223.7810 C   0  0  0  0  0  0  0  0  0  0  0  0
  142.4170   80.3070  222.4870 C   0  0  0  0  0  0  0  0  0  0  0  0
  142.0750   79.5140  221.3870 C   0  0  0  0  0  0  0  0  0  0  0  0
  139.7860   71.5440  223.4760 C   0  0  0  0  0  0  0  0  0  0  0  0
  139.2100   70.2750  223.3020 C   0  0  0  0  0  0  0  0  0  0  0  0
  139.2420   69.3490  224.3470 C   0  0  0  0  0  0  0  0  0  0  0  0
  139.8470   69.6900  225.5620 C   0  0  0  0  0  0  0  0  0  0  0  0
  139.8970   68.7860  226.6330 C   0  0  0  0  0  0  0  0  0  0  0  0
  140.5090   69.1580  227.8340 C   0  0  0  0  0  0  0  0  0  0  0  0
  141.0720   70.4320  227.9710 C   0  0  0  0  0  0  0  0  0  0  0  0
  141.0260   71.3390  226.9090 C   0  0  0  0  0  0  0  0  0  0  0  0
  140.4160   70.9750  225.7030 C   0  0  0  0  0  0  0  0  0  0  0  0
  140.3690   71.8550  224.6680 N   0  0  0  0  0  0  0  0  0  0  0  0
  141.8830   72.9090  222.3980 H   0  0  0  0  0  0  0  0  0  0  0  0
  141.9946   74.5655  220.7514 H   0  0  0  0  0  0  0  0  0  0  0  0
  140.5067   73.8374  220.0291 H   0  0  0  0  0  0  0  0  0  0  0  0
  138.8470   74.6850  222.9450 H   0  0  0  0  0  0  0  0  0  0  0  0
  138.0470   75.8669  219.9823 H   0  0  0  0  0  0  0  0  0  0  0  0
  138.0815   77.3422  221.0765 H   0  0  0  0  0  0  0  0  0  0  0  0
  138.6569   77.1734  218.1107 H   0  0  0  0  0  0  0  0  0  0  0  0
  137.4168   78.1540  218.9987 H   0  0  0  0  0  0  0  0  0  0  0  0
  139.2815   79.5693  218.2509 H   0  0  0  0  0  0  0  0  0  0  0  0
  139.2162   79.4843  220.0365 H   0  0  0  0  0  0  0  0  0  0  0  0
  140.9876   77.7732  218.2195 H   0  0  0  0  0  0  0  0  0  0  0  0
  141.5169   79.2010  219.2097 H   0  0  0  0  0  0  0  0  0  0  0  0
  141.9107   76.7827  220.0837 H   0  0  0  0  0  0  0  0  0  0  0  0
  140.6493   76.8807  223.0451 H   0  0  0  0  0  0  0  0  0  0  0  0
  141.2708   78.2979  224.9993 H   0  0  0  0  0  0  0  0  0  0  0  0
  142.4060   80.4919  224.6452 H   0  0  0  0  0  0  0  0  0  0  0  0
  142.9114   81.2774  222.3320 H   0  0  0  0  0  0  0  0  0  0  0  0
  142.2952   79.8681  220.3691 H   0  0  0  0  0  0  0  0  0  0  0  0
  138.7351   70.0112  222.3455 H   0  0  0  0  0  0  0  0  0  0  0  0
  138.7926   68.3537  224.2153 H   0  0  0  0  0  0  0  0  0  0  0  0
  139.4548   67.7843  226.5283 H   0  0  0  0  0  0  0  0  0  0  0  0
  140.5480   68.4477  228.6730 H   0  0  0  0  0  0  0  0  0  0  0  0
  141.5523   70.7202  228.9177 H   0  0  0  0  0  0  0  0  0  0  0  0
  141.4694   72.3395  227.0208 H   0  0  0  0  0  0  0  0  0  0  0  0
  1  2  2  0
  2  3  1  0
  3  4  1  0
  4  5  1  0
  5  6  1  0
  5  7  2  0
  7  8  1  0
  8  9  1  0
  9 10  1  0
 10 11  1  0
 11 12  1  0
 12 13  1  0
 13 14  2  0
 14 15  1  0
 15 16  2  0
 16 17  1  0
 17 18  2  0
  2 19  1  0
 19 20  2  0
 20 21  1  0
 21 22  2  0
 22 23  1  0
 23 24  2  0
 24 25  1  0
 25 26  2  0
 26 27  1  0
 27 28  2  0
 12  7  1  0
 18 13  1  0
 28 19  1  0
 27 22  1  0
  3 29  1  0
  4 30  1  0
  4 31  1  0
  6 32  1  0
  8 33  1  0
  8 34  1  0
  9 35  1  0
  9 36  1  0
 10 37  1  0
 10 38  1  0
 11 39  1  0
 11 40  1  0
 12 41  1  6
 14 42  1  0
 15 43  1  0
 16 44  1  0
 17 45  1  0
 18 46  1  0
 20 47  1  0
 21 48  1  0
 23 49  1  0
 24 50  1  0
 25 51  1  0
 26 52  1  0
M  CHG  1   7   1
M  END
>  <meeko>  (18) 
{"free_energy": -8.3, "intermolecular_energy": -10.09, "internal_energy": -1.68, "cluster_size": 8, "cluster_id": 2, "rank_in_cluster": 6}

$$$$

     RDKit          3D

 52 55  0  0  0  0  0  0  0  0999 V2000
  140.8960   72.2330  221.4810 O   0  0  0  0  0  0  0  0  0  0  0  0
  140.0410   72.4500  222.3850 C   0  0  0  0  0  0  0  0  0  0  0  0
  139.1580   73.5750  222.2690 N   0  0  0  0  0  0  0  0  0  0  0  0
  139.1740   74.4370  221.0870 C   0  0  0  0  0  0  0  0  0  0  0  0
  140.4320   75.2780  221.0490 C   0  0  0  0  0  0  0  0  0  0  0  0
  141.4250   74.9020  221.9640 O   0  0  0  0  0  0  0  0  0  0  0  0
  140.5860   76.3100  220.2280 N   0  0  0  0  0  0  0  0  0  0  0  0
  139.6110   76.4870  219.1200 C   0  0  0  0  0  0  0  0  0  0  0  0
  140.0970   77.3780  217.9740 C   0  0  0  0  0  0  0  0  0  0  0  0
  140.7930   78.6230  218.4870 C   0  0  0  0  0  0  0  0  0  0  0  0
  142.0140   78.1970  219.2820 C   0  0  0  0  0  0  0  0  0  0  0  0
  141.6400   77.3350  220.5020 C   0  0  1  0  0  0  0  0  0  0  0  0
  141.2680   78.2230  221.6820 C   0  0  0  0  0  0  0  0  0  0  0  0
  139.9830   78.1970  222.2580 C   0  0  0  0  0  0  0  0  0  0  0  0
  139.6660   79.0420  223.3250 C   0  0  0  0  0  0  0  0  0  0  0  0
  140.6220   79.9290  223.8240 C   0  0  0  0  0  0  0  0  0  0  0  0
  141.8950   79.9770  223.2530 C   0  0  0  0  0  0  0  0  0  0  0  0
  142.2170   79.1340  222.1850 C   0  0  0  0  0  0  0  0  0  0  0  0
  139.9540   71.5420  223.5490 C   0  0  0  0  0  0  0  0  0  0  0  0
  139.2860   70.3090  223.4580 C   0  0  0  0  0  0  0  0  0  0  0  0
  139.2160   69.4740  224.5750 C   0  0  0  0  0  0  0  0  0  0  0  0
  139.8100   69.8690  225.7790 C   0  0  0  0  0  0  0  0  0  0  0  0
  139.7580   69.0560  226.9200 C   0  0  0  0  0  0  0  0  0  0  0  0
  140.3620   69.4790  228.1080 C   0  0  0  0  0  0  0  0  0  0  0  0
  141.0180   70.7150  228.1620 C   0  0  0  0  0  0  0  0  0  0  0  0
  141.0740   71.5310  227.0290 C   0  0  0  0  0  0  0  0  0  0  0  0
  140.4720   71.1140  225.8350 C   0  0  0  0  0  0  0  0  0  0  0  0
  140.5240   71.9060  224.7310 N   0  0  0  0  0  0  0  0  0  0  0  0
  138.4770   73.7730  223.0370 H   0  0  0  0  0  0  0  0  0  0  0  0
  139.1321   73.8106  220.1838 H   0  0  0  0  0  0  0  0  0  0  0  0
  138.3036   75.1082  221.1296 H   0  0  0  0  0  0  0  0  0  0  0  0
  141.9420   74.0330  221.9280 H   0  0  0  0  0  0  0  0  0  0  0  0
  139.3785   75.4944  218.7069 H   0  0  0  0  0  0  0  0  0  0  0  0
  138.7358   76.9917  219.5551 H   0  0  0  0  0  0  0  0  0  0  0  0
  140.8018   76.8063  217.3525 H   0  0  0  0  0  0  0  0  0  0  0  0
  139.2201   77.6923  217.3890 H   0  0  0  0  0  0  0  0  0  0  0  0
  141.1027   79.2515  217.6390 H   0  0  0  0  0  0  0  0  0  0  0  0
  140.1095   79.2017  219.1257 H   0  0  0  0  0  0  0  0  0  0  0  0
  142.6783   77.6146  218.6266 H   0  0  0  0  0  0  0  0  0  0  0  0
  142.5124   79.1060  219.6499 H   0  0  0  0  0  0  0  0  0  0  0  0
  142.5380   76.7532  220.7572 H   0  0  0  0  0  0  0  0  0  0  0  0
  139.2228   77.5060  221.8648 H   0  0  0  0  0  0  0  0  0  0  0  0
  138.6617   79.0083  223.7725 H   0  0  0  0  0  0  0  0  0  0  0  0
  140.3720   80.5899  224.6670 H   0  0  0  0  0  0  0  0  0  0  0  0
  142.6460   80.6792  223.6440 H   0  0  0  0  0  0  0  0  0  0  0  0
  143.2192   79.1827  221.7342 H   0  0  0  0  0  0  0  0  0  0  0  0
  138.8198   70.0026  222.5099 H   0  0  0  0  0  0  0  0  0  0  0  0
  138.6949   68.5075  224.5087 H   0  0  0  0  0  0  0  0  0  0  0  0
  139.2420   68.0853  226.8806 H   0  0  0  0  0  0  0  0  0  0  0  0
  140.3218   68.8395  229.0021 H   0  0  0  0  0  0  0  0  0  0  0  0
  141.4906   71.0445  229.0990 H   0  0  0  0  0  0  0  0  0  0  0  0
  141.5909   72.5009  227.0748 H   0  0  0  0  0  0  0  0  0  0  0  0
  1  2  2  0
  2  3  1  0
  3  4  1  0
  4  5  1  0
  5  6  1  0
  5  7  2  0
  7  8  1  0
  8  9  1  0
  9 10  1  0
 10 11  1  0
 11 12  1  0
 12 13  1  0
 13 14  2  0
 14 15  1  0
 15 16  2  0
 16 17  1  0
 17 18  2  0
  2 19  1  0
 19 20  2  0
 20 21  1  0
 21 22  2  0
 22 23  1  0
 23 24  2  0
 24 25  1  0
 25 26  2  0
 26 27  1  0
 27 28  2  0
 12  7  1  0
 18 13  1  0
 28 19  1  0
 27 22  1  0
  3 29  1  0
  4 30  1  0
  4 31  1  0
  6 32  1  0
  8 33  1  0
  8 34  1  0
  9 35  1  0
  9 36  1  0
 10 37  1  0
 10 38  1  0
 11 39  1  0
 11 40  1  0
 12 41  1  1
 14 42  1  0
 15 43  1  0
 16 44  1  0
 17 45  1  0
 18 46  1  0
 20 47  1  0
 21 48  1  0
 23 49  1  0
 24 50  1  0
 25 51  1  0
 26 52  1  0
M  CHG  1   7   1
M  END
>  <meeko>  (19) 
{"free_energy": -8.24, "intermolecular_energy": -10.03, "internal_energy": -1.76, "cluster_size": 8, "cluster_id": 2, "rank_in_cluster": 7}

$$$$

     RDKit          3D

 52 55  0  0  0  0  0  0  0  0999 V2000
  140.4150   70.8830  221.2980 O   0  0  0  0  0  0  0  0  0  0  0  0
  140.1200   71.4790  222.3720 C   0  0  0  0  0  0  0  0  0  0  0  0
  139.9110   72.8990  222.3610 N   0  0  0  0  0  0  0  0  0  0  0  0
  139.9580   73.6650  221.1160 C   0  0  0  0  0  0  0  0  0  0  0  0
  140.3870   75.0930  221.3750 C   0  0  0  0  0  0  0  0  0  0  0  0
  139.8960   75.6530  222.5630 O   0  0  0  0  0  0  0  0  0  0  0  0
  141.1530   75.7810  220.5380 N   0  0  0  0  0  0  0  0  0  0  0  0
  141.3290   77.2380  220.7720 C   0  0  0  0  0  0  0  0  0  0  0  0
  141.8130   78.0300  219.5550 C   0  0  0  0  0  0  0  0  0  0  0  0
  142.9270   77.3100  218.8230 C   0  0  0  0  0  0  0  0  0  0  0  0
  142.3900   75.9820  218.3190 C   0  0  0  0  0  0  0  0  0  0  0  0
  141.9220   75.0710  219.4690 C   0  0  1  0  0  0  0  0  0  0  0  0
  143.1010   74.2970  220.0440 C   0  0  0  0  0  0  0  0  0  0  0  0
  144.3550   74.9000  220.2570 C   0  0  0  0  0  0  0  0  0  0  0  0
  145.4230   74.1560  220.7630 C   0  0  0  0  0  0  0  0  0  0  0  0
  145.2580   72.7990  221.0540 C   0  0  0  0  0  0  0  0  0  0  0  0
  144.0240   72.1850  220.8320 C   0  0  0  0  0  0  0  0  0  0  0  0
  142.9520   72.9250  220.3260 C   0  0  0  0  0  0  0  0  0  0  0  0
  139.9880   70.7090  223.6280 C   0  0  0  0  0  0  0  0  0  0  0  0
  139.3090   69.4790  223.6550 C   0  0  0  0  0  0  0  0  0  0  0  0
  139.1960   68.7760  224.8570 C   0  0  0  0  0  0  0  0  0  0  0  0
  139.7580   69.3000  226.0270 C   0  0  0  0  0  0  0  0  0  0  0  0
  139.6620   68.6220  227.2510 C   0  0  0  0  0  0  0  0  0  0  0  0
  140.2350   69.1730  228.4010 C   0  0  0  0  0  0  0  0  0  0  0  0
  140.9020   70.4010  228.3360 C   0  0  0  0  0  0  0  0  0  0  0  0
  141.0010   71.0830  227.1200 C   0  0  0  0  0  0  0  0  0  0  0  0
  140.4320   70.5390  225.9630 C   0  0  0  0  0  0  0  0  0  0  0  0
  140.5260   71.2000  224.7790 N   0  0  0  0  0  0  0  0  0  0  0  0
  139.7040   73.3930  223.2580 H   0  0  0  0  0  0  0  0  0  0  0  0
  140.6759   73.1924  220.4295 H   0  0  0  0  0  0  0  0  0  0  0  0
  138.9514   73.6759  220.6725 H   0  0  0  0  0  0  0  0  0  0  0  0
  139.1940   75.2270  223.1530 H   0  0  0  0  0  0  0  0  0  0  0  0
  140.3605   77.6533  221.0874 H   0  0  0  0  0  0  0  0  0  0  0  0
  142.1133   77.3361  221.5370 H   0  0  0  0  0  0  0  0  0  0  0  0
  140.9685   78.1743  218.8651 H   0  0  0  0  0  0  0  0  0  0  0  0
  142.2038   78.9956  219.9083 H   0  0  0  0  0  0  0  0  0  0  0  0
  143.2676   77.9196  217.9730 H   0  0  0  0  0  0  0  0  0  0  0  0
  143.7769   77.1411  219.5007 H   0  0  0  0  0  0  0  0  0  0  0  0
  141.5380   76.1749  217.6504 H   0  0  0  0  0  0  0  0  0  0  0  0
  143.2049   75.4667  217.7895 H   0  0  0  0  0  0  0  0  0  0  0  0
  141.2050   74.3616  219.0300 H   0  0  0  0  0  0  0  0  0  0  0  0
  144.4948   75.9657  220.0230 H   0  0  0  0  0  0  0  0  0  0  0  0
  146.3965   74.6392  220.9329 H   0  0  0  0  0  0  0  0  0  0  0  0
  146.0990   72.2158  221.4573 H   0  0  0  0  0  0  0  0  0  0  0  0
  143.8952   71.1158  221.0560 H   0  0  0  0  0  0  0  0  0  0  0  0
  141.9849   72.4325  220.1466 H   0  0  0  0  0  0  0  0  0  0  0  0
  138.8682   69.0713  222.7333 H   0  0  0  0  0  0  0  0  0  0  0  0
  138.6663   67.8123  224.8839 H   0  0  0  0  0  0  0  0  0  0  0  0
  139.1362   67.6574  227.3061 H   0  0  0  0  0  0  0  0  0  0  0  0
  140.1612   68.6393  229.3600 H   0  0  0  0  0  0  0  0  0  0  0  0
  141.3496   70.8309  229.2442 H   0  0  0  0  0  0  0  0  0  0  0  0
  141.5266   72.0481  227.0724 H   0  0  0  0  0  0  0  0  0  0  0  0
  1  2  2  0
  2  3  1  0
  3  4  1  0
  4  5  1  0
  5  6  1  0
  5  7  2  0
  7  8  1  0
  8  9  1  0
  9 10  1  0
 10 11  1  0
 11 12  1  0
 12 13  1  0
 13 14  2  0
 14 15  1  0
 15 16  2  0
 16 17  1  0
 17 18  2  0
  2 19  1  0
 19 20  2  0
 20 21  1  0
 21 22  2  0
 22 23  1  0
 23 24  2  0
 24 25  1  0
 25 26  2  0
 26 27  1  0
 27 28  2  0
 12  7  1  0
 18 13  1  0
 28 19  1  0
 27 22  1  0
  3 29  1  0
  4 30  1  0
  4 31  1  0
  6 32  1  0
  8 33  1  0
  8 34  1  0
  9 35  1  0
  9 36  1  0
 10 37  1  0
 10 38  1  0
 11 39  1  0
 11 40  1  0
 12 41  1  6
 14 42  1  0
 15 43  1  0
 16 44  1  0
 17 45  1  0
 18 46  1  0
 20 47  1  0
 21 48  1  0
 23 49  1  0
 24 50  1  0
 25 51  1  0
 26 52  1  0
M  CHG  1   7   1
M  END
>  <meeko>  (20) 
{"free_energy": -8.88, "intermolecular_energy": -10.67, "internal_energy": -1.73, "cluster_size": 10, "cluster_id": 1, "rank_in_cluster": 8}

$$$$
