
     RDKit          3D

 48 51  0  0  0  0  0  0  0  0999 V2000
  139.9790   73.3860  222.4690 O   0  0  0  0  0  0  0  0  0  0  0  0
  139.9030   72.1340  222.3760 C   0  0  0  0  0  0  0  0  0  0  0  0
  139.8190   71.5450  221.0730 N   0  0  0  0  0  0  0  0  0  0  0  0
  140.9540   71.0790  220.2860 C   0  0  0  0  0  0  0  0  0  0  0  0
  141.5270   72.2270  219.5130 C   0  0  0  0  0  0  0  0  0  0  0  0
  140.7910   72.8340  218.6880 O   0  0  0  0  0  0  0  0  0  0  0  0
  142.8810   72.6730  219.7230 N   0  0  0  0  0  0  0  0  0  0  0  0
  144.0310   72.1470  219.0020 C   0  0  0  0  0  0  0  0  0  0  0  0
  145.2340   72.9390  219.5090 C   0  0  2  0  0  0  0  0  0  0  0  0
  146.3360   72.0930  219.7030 O   0  0  0  0  0  0  0  0  0  0  0  0
  144.7840   73.5790  220.8250 C   0  0  0  0  0  0  0  0  0  0  0  0
  143.2550   73.6160  220.7690 C   0  0  1  0  0  0  0  0  0  0  0  0
  142.7380   75.0070  220.4600 C   0  0  0  0  0  0  0  0  0  0  0  0
  141.5760   75.5070  221.0770 C   0  0  0  0  0  0  0  0  0  0  0  0
  141.1020   76.7840  220.7610 C   0  0  0  0  0  0  0  0  0  0  0  0
  141.7740   77.5680  219.8210 C   0  0  0  0  0  0  0  0  0  0  0  0
  142.9200   77.0760  219.1920 C   0  0  0  0  0  0  0  0  0  0  0  0
  143.4000   75.8010  219.5060 C   0  0  0  0  0  0  0  0  0  0  0  0
  139.9530   71.3290  223.6100 C   0  0  0  0  0  0  0  0  0  0  0  0
  139.4370   70.0240  223.6510 C   0  0  0  0  0  0  0  0  0  0  0  0
  139.4780   69.3010  224.8450 C   0  0  0  0  0  0  0  0  0  0  0  0
  140.0160   69.8880  225.9960 C   0  0  0  0  0  0  0  0  0  0  0  0
  140.0700   69.1930  227.2140 C   0  0  0  0  0  0  0  0  0  0  0  0
  140.6040   69.8130  228.3480 C   0  0  0  0  0  0  0  0  0  0  0  0
  141.0840   71.1240  228.2750 C   0  0  0  0  0  0  0  0  0  0  0  0
  141.0350   71.8250  227.0650 C   0  0  0  0  0  0  0  0  0  0  0  0
  140.5030   71.2130  225.9240 C   0  0  0  0  0  0  0  0  0  0  0  0
  140.4530   71.8900  224.7460 N   0  0  0  0  0  0  0  0  0  0  0  0
  141.7225   70.6684  220.9574 H   0  0  0  0  0  0  0  0  0  0  0  0
  140.6215   70.2956  219.5890 H   0  0  0  0  0  0  0  0  0  0  0  0
  144.1599   71.0755  219.2149 H   0  0  0  0  0  0  0  0  0  0  0  0
  143.9084   72.2473  217.9135 H   0  0  0  0  0  0  0  0  0  0  0  0
  145.5556   73.7031  218.7860 H   0  0  0  0  0  0  0  0  0  0  0  0
  146.1480   71.5730  220.5280 H   0  0  0  0  0  0  0  0  0  0  0  0
  145.1215   72.9747  221.6799 H   0  0  0  0  0  0  0  0  0  0  0  0
  145.2090   74.5856  220.9519 H   0  0  0  0  0  0  0  0  0  0  0  0
  142.8147   73.3457  221.7401 H   0  0  0  0  0  0  0  0  0  0  0  0
  141.0379   74.8900  221.8116 H   0  0  0  0  0  0  0  0  0  0  0  0
  140.1982   77.1716  221.2538 H   0  0  0  0  0  0  0  0  0  0  0  0
  141.4008   78.5733  219.5758 H   0  0  0  0  0  0  0  0  0  0  0  0
  143.4458   77.6928  218.4483 H   0  0  0  0  0  0  0  0  0  0  0  0
  144.3003   75.4166  219.0043 H   0  0  0  0  0  0  0  0  0  0  0  0
  139.0024   69.5731  222.7467 H   0  0  0  0  0  0  0  0  0  0  0  0
  139.0885   68.2729  224.8808 H   0  0  0  0  0  0  0  0  0  0  0  0
  139.6927   68.1616  227.2766 H   0  0  0  0  0  0  0  0  0  0  0  0
  140.6466   69.2667  229.3018 H   0  0  0  0  0  0  0  0  0  0  0  0
  141.5014   71.6059  229.1714 H   0  0  0  0  0  0  0  0  0  0  0  0
  141.4142   72.8561  227.0105 H   0  0  0  0  0  0  0  0  0  0  0  0
  1  2  2  0
  2  3  1  0
  3  4  1  0
  4  5  1  0
  5  6  2  0
  5  7  1  0
  7  8  1  0
  8  9  1  0
  9 10  1  0
  9 11  1  0
 11 12  1  0
 12 13  1  0
 13 14  2  0
 14 15  1  0
 15 16  2  0
 16 17  1  0
 17 18  2  0
  2 19  1  0
 19 20  2  0
 20 21  1  0
 21 22  2  0
 22 23  1  0
 23 24  2  0
 24 25  1  0
 25 26  2  0
 26 27  1  0
 27 28  2  0
 12  7  1  0
 18 13  1  0
 28 19  1  0
 27 22  1  0
  4 29  1  0
  4 30  1  0
  8 31  1  0
  8 32  1  0
  9 33  1  6
 10 34  1  0
 11 35  1  0
 11 36  1  0
 12 37  1  1
 14 38  1  0
 15 39  1  0
 16 40  1  0
 17 41  1  0
 18 42  1  0
 20 43  1  0
 21 44  1  0
 23 45  1  0
 24 46  1  0
 25 47  1  0
 26 48  1  0
M  CHG  1   3  -1
M  END
>  <meeko>  (1) 
{"free_energy": -8.22, "intermolecular_energy": -10.31, "internal_energy": -1.52, "cluster_size": 5, "cluster_id": 2, "rank_in_cluster": 2}

$$$$

     RDKit          3D

 48 51  0  0  0  0  0  0  0  0999 V2000
  141.4570   72.1050  221.5530 O   0  0  0  0  0  0  0  0  0  0  0  0
  140.6100   72.4490  222.4180 C   0  0  0  0  0  0  0  0  0  0  0  0
  139.9090   73.6850  222.2400 N   0  0  0  0  0  0  0  0  0  0  0  0
  139.9720   74.5240  221.0490 C   0  0  0  0  0  0  0  0  0  0  0  0
  141.0800   75.5200  221.2030 C   0  0  0  0  0  0  0  0  0  0  0  0
  141.3600   75.9470  222.3560 O   0  0  0  0  0  0  0  0  0  0  0  0
  141.8520   75.9660  220.0700 N   0  0  0  0  0  0  0  0  0  0  0  0
  142.0640   77.3650  219.7300 C   0  0  0  0  0  0  0  0  0  0  0  0
  142.9720   77.3590  218.5020 C   0  0  2  0  0  0  0  0  0  0  0  0
  142.5500   78.3190  217.5710 O   0  0  0  0  0  0  0  0  0  0  0  0
  142.8780   75.9430  217.9250 C   0  0  0  0  0  0  0  0  0  0  0  0
  142.4040   75.0530  219.0760 C   0  0  1  0  0  0  0  0  0  0  0  0
  143.5400   74.2360  219.6580 C   0  0  0  0  0  0  0  0  0  0  0  0
  143.5870   72.8380  219.5010 C   0  0  0  0  0  0  0  0  0  0  0  0
  144.6310   72.0980  220.0640 C   0  0  0  0  0  0  0  0  0  0  0  0
  145.6300   72.7420  220.7970 C   0  0  0  0  0  0  0  0  0  0  0  0
  145.5860   74.1280  220.9710 C   0  0  0  0  0  0  0  0  0  0  0  0
  144.5460   74.8720  220.4070 C   0  0  0  0  0  0  0  0  0  0  0  0
  140.3440   71.5410  223.5480 C   0  0  0  0  0  0  0  0  0  0  0  0
  139.6120   70.3560  223.3750 C   0  0  0  0  0  0  0  0  0  0  0  0
  139.3580   69.5340  224.4760 C   0  0  0  0  0  0  0  0  0  0  0  0
  139.8190   69.9050  225.7440 C   0  0  0  0  0  0  0  0  0  0  0  0
  139.5780   69.1050  226.8710 C   0  0  0  0  0  0  0  0  0  0  0  0
  140.0430   69.5100  228.1270 C   0  0  0  0  0  0  0  0  0  0  0  0
  140.7460   70.7120  228.2640 C   0  0  0  0  0  0  0  0  0  0  0  0
  140.9910   71.5160  227.1450 C   0  0  0  0  0  0  0  0  0  0  0  0
  140.5310   71.1180  225.8840 C   0  0  0  0  0  0  0  0  0  0  0  0
  140.7660   71.8950  224.7940 N   0  0  0  0  0  0  0  0  0  0  0  0
  140.1628   73.8956  220.1666 H   0  0  0  0  0  0  0  0  0  0  0  0
  139.0163   75.0531  220.9201 H   0  0  0  0  0  0  0  0  0  0  0  0
  141.1059   77.8523  219.4962 H   0  0  0  0  0  0  0  0  0  0  0  0
  142.5141   77.9220  220.5650 H   0  0  0  0  0  0  0  0  0  0  0  0
  144.0106   77.6149  218.7587 H   0  0  0  0  0  0  0  0  0  0  0  0
  143.3740   78.7140  217.1820 H   0  0  0  0  0  0  0  0  0  0  0  0
  142.1552   75.9145  217.0963 H   0  0  0  0  0  0  0  0  0  0  0  0
  143.8449   75.6048  217.5241 H   0  0  0  0  0  0  0  0  0  0  0  0
  141.6584   74.3207  218.7326 H   0  0  0  0  0  0  0  0  0  0  0  0
  142.7978   72.3248  218.9321 H   0  0  0  0  0  0  0  0  0  0  0  0
  144.6656   71.0068  219.9294 H   0  0  0  0  0  0  0  0  0  0  0  0
  146.4517   72.1583  221.2375 H   0  0  0  0  0  0  0  0  0  0  0  0
  146.3708   74.6339  221.5525 H   0  0  0  0  0  0  0  0  0  0  0  0
  144.5142   75.9622  220.5499 H   0  0  0  0  0  0  0  0  0  0  0  0
  139.2404   70.0760  222.3783 H   0  0  0  0  0  0  0  0  0  0  0  0
  138.7967   68.5969  224.3462 H   0  0  0  0  0  0  0  0  0  0  0  0
  139.0241   68.1603  226.7673 H   0  0  0  0  0  0  0  0  0  0  0  0
  139.8552   68.8812  229.0098 H   0  0  0  0  0  0  0  0  0  0  0  0
  141.1073   71.0260  229.2544 H   0  0  0  0  0  0  0  0  0  0  0  0
  141.5446   72.4600  227.2562 H   0  0  0  0  0  0  0  0  0  0  0  0
  1  2  2  0
  2  3  1  0
  3  4  1  0
  4  5  1  0
  5  6  2  0
  5  7  1  0
  7  8  1  0
  8  9  1  0
  9 10  1  0
  9 11  1  0
 11 12  1  0
 12 13  1  0
 13 14  2  0
 14 15  1  0
 15 16  2  0
 16 17  1  0
 17 18  2  0
  2 19  1  0
 19 20  2  0
 20 21  1  0
 21 22  2  0
 22 23  1  0
 23 24  2  0
 24 25  1  0
 25 26  2  0
 26 27  1  0
 27 28  2  0
 12  7  1  0
 18 13  1  0
 28 19  1  0
 27 22  1  0
  4 29  1  0
  4 30  1  0
  8 31  1  0
  8 32  1  0
  9 33  1  1
 10 34  1  0
 11 35  1  0
 11 36  1  0
 12 37  1  6
 14 38  1  0
 15 39  1  0
 16 40  1  0
 17 41  1  0
 18 42  1  0
 20 43  1  0
 21 44  1  0
 23 45  1  0
 24 46  1  0
 25 47  1  0
 26 48  1  0
M  CHG  1   3  -1
M  END
>  <meeko>  (2) 
{"free_energy": -8.36, "intermolecular_energy": -10.45, "internal_energy": -1.46, "cluster_size": 7, "cluster_id": 1, "rank_in_cluster": 5}

$$$$

     RDKit          3D

 48 51  0  0  0  0  0  0  0  0999 V2000
  140.1950   71.7010  221.1690 O   0  0  0  0  0  0  0  0  0  0  0  0
  140.3190   72.2540  222.2930 C   0  0  0  0  0  0  0  0  0  0  0  0
  140.5020   73.6740  222.3430 N   0  0  0  0  0  0  0  0  0  0  0  0
  140.0180   74.6210  221.3460 C   0  0  0  0  0  0  0  0  0  0  0  0
  140.8930   75.8370  221.3510 C   0  0  0  0  0  0  0  0  0  0  0  0
  140.9280   76.5580  222.3850 O   0  0  0  0  0  0  0  0  0  0  0  0
  141.7190   76.1730  220.2190 N   0  0  0  0  0  0  0  0  0  0  0  0
  142.0120   77.5360  219.8030 C   0  0  0  0  0  0  0  0  0  0  0  0
  142.9530   77.4090  218.6060 C   0  0  2  0  0  0  0  0  0  0  0  0
  142.6080   78.3300  217.6060 O   0  0  0  0  0  0  0  0  0  0  0  0
  142.8040   75.9670  218.1120 C   0  0  0  0  0  0  0  0  0  0  0  0
  142.2510   75.1750  219.3000 C   0  0  1  0  0  0  0  0  0  0  0  0
  143.3270   74.3390  219.9650 C   0  0  0  0  0  0  0  0  0  0  0  0
  144.5860   74.8850  220.2770 C   0  0  0  0  0  0  0  0  0  0  0  0
  145.5730   74.0920  220.8690 C   0  0  0  0  0  0  0  0  0  0  0  0
  145.3190   72.7470  221.1460 C   0  0  0  0  0  0  0  0  0  0  0  0
  144.0770   72.1910  220.8280 C   0  0  0  0  0  0  0  0  0  0  0  0
  143.0860   72.9810  220.2390 C   0  0  0  0  0  0  0  0  0  0  0  0
  140.2200   71.4220  223.5060 C   0  0  0  0  0  0  0  0  0  0  0  0
  139.5790   70.1740  223.4840 C   0  0  0  0  0  0  0  0  0  0  0  0
  139.4820   69.4260  224.6590 C   0  0  0  0  0  0  0  0  0  0  0  0
  140.0090   69.9330  225.8530 C   0  0  0  0  0  0  0  0  0  0  0  0
  139.9250   69.2110  227.0530 C   0  0  0  0  0  0  0  0  0  0  0  0
  140.4520   69.7500  228.2310 C   0  0  0  0  0  0  0  0  0  0  0  0
  141.0600   71.0100  228.2180 C   0  0  0  0  0  0  0  0  0  0  0  0
  141.1480   71.7370  227.0260 C   0  0  0  0  0  0  0  0  0  0  0  0
  140.6250   71.2040  225.8420 C   0  0  0  0  0  0  0  0  0  0  0  0
  140.7070   71.9080  224.6810 N   0  0  0  0  0  0  0  0  0  0  0  0
  140.0455   74.1528  220.3510 H   0  0  0  0  0  0  0  0  0  0  0  0
  138.9840   74.9106  221.5848 H   0  0  0  0  0  0  0  0  0  0  0  0
  141.0873   78.0551  219.5107 H   0  0  0  0  0  0  0  0  0  0  0  0
  142.4663   78.1203  220.6167 H   0  0  0  0  0  0  0  0  0  0  0  0
  143.9955   77.6283  218.8800 H   0  0  0  0  0  0  0  0  0  0  0  0
  143.4620   78.7070  217.2660 H   0  0  0  0  0  0  0  0  0  0  0  0
  142.1054   75.9229  217.2635 H   0  0  0  0  0  0  0  0  0  0  0  0
  143.7633   75.5571  217.7630 H   0  0  0  0  0  0  0  0  0  0  0  0
  141.4776   74.4619  218.9785 H   0  0  0  0  0  0  0  0  0  0  0  0
  144.7944   75.9417  220.0537 H   0  0  0  0  0  0  0  0  0  0  0  0
  146.5518   74.5282  221.1172 H   0  0  0  0  0  0  0  0  0  0  0  0
  146.0964   72.1254  221.6143 H   0  0  0  0  0  0  0  0  0  0  0  0
  143.8791   71.1302  221.0416 H   0  0  0  0  0  0  0  0  0  0  0  0
  142.1111   72.5376  219.9881 H   0  0  0  0  0  0  0  0  0  0  0  0
  139.1550   69.7869  222.5457 H   0  0  0  0  0  0  0  0  0  0  0  0
  138.9928   68.4409  224.6467 H   0  0  0  0  0  0  0  0  0  0  0  0
  139.4449   68.2214  227.0673 H   0  0  0  0  0  0  0  0  0  0  0  0
  140.3883   69.1816  229.1706 H   0  0  0  0  0  0  0  0  0  0  0  0
  141.4702   71.4304  229.1481 H   0  0  0  0  0  0  0  0  0  0  0  0
  141.6278   72.7268  227.0192 H   0  0  0  0  0  0  0  0  0  0  0  0
  1  2  2  0
  2  3  1  0
  3  4  1  0
  4  5  1  0
  5  6  2  0
  5  7  1  0
  7  8  1  0
  8  9  1  0
  9 10  1  0
  9 11  1  0
 11 12  1  0
 12 13  1  0
 13 14  2  0
 14 15  1  0
 15 16  2  0
 16 17  1  0
 17 18  2  0
  2 19  1  0
 19 20  2  0
 20 21  1  0
 21 22  2  0
 22 23  1  0
 23 24  2  0
 24 25  1  0
 25 26  2  0
 26 27  1  0
 27 28  2  0
 12  7  1  0
 18 13  1  0
 28 19  1  0
 27 22  1  0
  4 29  1  0
  4 30  1  0
  8 31  1  0
  8 32  1  0
  9 33  1  1
 10 34  1  0
 11 35  1  0
 11 36  1  0
 12 37  1  6
 14 38  1  0
 15 39  1  0
 16 40  1  0
 17 41  1  0
 18 42  1  0
 20 43  1  0
 21 44  1  0
 23 45  1  0
 24 46  1  0
 25 47  1  0
 26 48  1  0
M  CHG  1   3  -1
M  END
>  <meeko>  (3) 
{"free_energy": -8.51, "intermolecular_energy": -10.6, "internal_energy": -1.46, "cluster_size": 7, "cluster_id": 1, "rank_in_cluster": 2}

$$$$

     RDKit          3D

 48 51  0  0  0  0  0  0  0  0999 V2000
  139.4590   74.4600  222.3810 O   0  0  0  0  0  0  0  0  0  0  0  0
  139.8850   75.3740  221.6290 C   0  0  0  0  0  0  0  0  0  0  0  0
  140.2570   75.0420  220.2860 N   0  0  0  0  0  0  0  0  0  0  0  0
  140.6530   73.7170  219.8260 C   0  0  0  0  0  0  0  0  0  0  0  0
  141.7520   73.1970  220.7010 C   0  0  0  0  0  0  0  0  0  0  0  0
  141.4510   72.6310  221.7870 O   0  0  0  0  0  0  0  0  0  0  0  0
  143.1350   73.2970  220.3080 N   0  0  0  0  0  0  0  0  0  0  0  0
  143.9240   72.1770  219.8180 C   0  0  0  0  0  0  0  0  0  0  0  0
  145.2980   72.7540  219.4810 C   0  0  2  0  0  0  0  0  0  0  0  0
  146.3150   71.8850  219.9010 O   0  0  0  0  0  0  0  0  0  0  0  0
  145.3730   74.0970  220.2140 C   0  0  0  0  0  0  0  0  0  0  0  0
  143.9230   74.5120  220.4760 C   0  0  1  0  0  0  0  0  0  0  0  0
  143.4680   75.5940  219.5170 C   0  0  0  0  0  0  0  0  0  0  0  0
  142.8170   76.7520  219.9810 C   0  0  0  0  0  0  0  0  0  0  0  0
  142.3830   77.7280  219.0790 C   0  0  0  0  0  0  0  0  0  0  0  0
  142.5850   77.5550  217.7080 C   0  0  0  0  0  0  0  0  0  0  0  0
  143.2180   76.4020  217.2350 C   0  0  0  0  0  0  0  0  0  0  0  0
  143.6550   75.4250  218.1330 C   0  0  0  0  0  0  0  0  0  0  0  0
  139.9360   76.7520  222.1500 C   0  0  0  0  0  0  0  0  0  0  0  0
  138.7640   77.4960  222.3610 C   0  0  0  0  0  0  0  0  0  0  0  0
  138.8540   78.8090  222.8300 C   0  0  0  0  0  0  0  0  0  0  0  0
  140.1100   79.3780  223.0710 C   0  0  0  0  0  0  0  0  0  0  0  0
  140.2370   80.6950  223.5380 C   0  0  0  0  0  0  0  0  0  0  0  0
  141.5080   81.2380  223.7580 C   0  0  0  0  0  0  0  0  0  0  0  0
  142.6530   80.4740  223.5110 C   0  0  0  0  0  0  0  0  0  0  0  0
  142.5350   79.1600  223.0440 C   0  0  0  0  0  0  0  0  0  0  0  0
  141.2680   78.6080  222.8230 C   0  0  0  0  0  0  0  0  0  0  0  0
  141.1490   77.3320  222.3690 N   0  0  0  0  0  0  0  0  0  0  0  0
  139.7898   73.0371  219.8772 H   0  0  0  0  0  0  0  0  0  0  0  0
  141.0076   73.7786  218.7865 H   0  0  0  0  0  0  0  0  0  0  0  0
  144.0133   71.4024  220.5939 H   0  0  0  0  0  0  0  0  0  0  0  0
  143.4566   71.7042  218.9416 H   0  0  0  0  0  0  0  0  0  0  0  0
  145.4336   72.8850  218.3973 H   0  0  0  0  0  0  0  0  0  0  0  0
  146.1220   71.6650  220.8500 H   0  0  0  0  0  0  0  0  0  0  0  0
  145.9167   73.9850  221.1637 H   0  0  0  0  0  0  0  0  0  0  0  0
  145.9089   74.8523  219.6204 H   0  0  0  0  0  0  0  0  0  0  0  0
  143.8063   74.9399  221.4826 H   0  0  0  0  0  0  0  0  0  0  0  0
  142.6487   76.8901  221.0592 H   0  0  0  0  0  0  0  0  0  0  0  0
  141.8814   78.6340  219.4499 H   0  0  0  0  0  0  0  0  0  0  0  0
  142.2460   78.3260  217.0004 H   0  0  0  0  0  0  0  0  0  0  0  0
  143.3722   76.2637  216.1547 H   0  0  0  0  0  0  0  0  0  0  0  0
  144.1486   74.5175  217.7553 H   0  0  0  0  0  0  0  0  0  0  0  0
  137.7803   77.0475  222.1581 H   0  0  0  0  0  0  0  0  0  0  0  0
  137.9400   79.3942  223.0094 H   0  0  0  0  0  0  0  0  0  0  0  0
  139.3388   81.2999  223.7309 H   0  0  0  0  0  0  0  0  0  0  0  0
  141.6067   82.2697  224.1266 H   0  0  0  0  0  0  0  0  0  0  0  0
  143.6492   80.9071  223.6843 H   0  0  0  0  0  0  0  0  0  0  0  0
  143.4374   78.5615  222.8508 H   0  0  0  0  0  0  0  0  0  0  0  0
  1  2  2  0
  2  3  1  0
  3  4  1  0
  4  5  1  0
  5  6  2  0
  5  7  1  0
  7  8  1  0
  8  9  1  0
  9 10  1  0
  9 11  1  0
 11 12  1  0
 12 13  1  0
 13 14  2  0
 14 15  1  0
 15 16  2  0
 16 17  1  0
 17 18  2  0
  2 19  1  0
 19 20  2  0
 20 21  1  0
 21 22  2  0
 22 23  1  0
 23 24  2  0
 24 25  1  0
 25 26  2  0
 26 27  1  0
 27 28  2  0
 12  7  1  0
 18 13  1  0
 28 19  1  0
 27 22  1  0
  4 29  1  0
  4 30  1  0
  8 31  1  0
  8 32  1  0
  9 33  1  6
 10 34  1  0
 11 35  1  0
 11 36  1  0
 12 37  1  1
 14 38  1  0
 15 39  1  0
 16 40  1  0
 17 41  1  0
 18 42  1  0
 20 43  1  0
 21 44  1  0
 23 45  1  0
 24 46  1  0
 25 47  1  0
 26 48  1  0
M  CHG  1   3  -1
M  END
>  <meeko>  (4) 
{"free_energy": -7.61, "intermolecular_energy": -9.7, "internal_energy": -1.95, "cluster_size": 6, "cluster_id": 4, "rank_in_cluster": 3}

$$$$

     RDKit          3D

 48 51  0  0  0  0  0  0  0  0999 V2000
  139.5410   74.4610  222.4100 O   0  0  0  0  0  0  0  0  0  0  0  0
  139.9220   75.3750  221.6340 C   0  0  0  0  0  0  0  0  0  0  0  0
  140.2390   75.0370  220.2780 N   0  0  0  0  0  0  0  0  0  0  0  0
  140.6480   73.7160  219.8140 C   0  0  0  0  0  0  0  0  0  0  0  0
  141.7480   73.2010  220.6910 C   0  0  0  0  0  0  0  0  0  0  0  0
  141.4470   72.6420  221.7810 O   0  0  0  0  0  0  0  0  0  0  0  0
  143.1300   73.2980  220.2960 N   0  0  0  0  0  0  0  0  0  0  0  0
  143.9180   72.1740  219.8120 C   0  0  0  0  0  0  0  0  0  0  0  0
  145.2920   72.7490  219.4700 C   0  0  2  0  0  0  0  0  0  0  0  0
  146.3100   71.8830  219.8940 O   0  0  0  0  0  0  0  0  0  0  0  0
  145.3680   74.0970  220.1940 C   0  0  0  0  0  0  0  0  0  0  0  0
  143.9190   74.5140  220.4540 C   0  0  1  0  0  0  0  0  0  0  0  0
  143.4630   75.5900  219.4890 C   0  0  0  0  0  0  0  0  0  0  0  0
  142.8230   76.7560  219.9470 C   0  0  0  0  0  0  0  0  0  0  0  0
  142.3880   77.7270  219.0390 C   0  0  0  0  0  0  0  0  0  0  0  0
  142.5770   77.5390  217.6680 C   0  0  0  0  0  0  0  0  0  0  0  0
  143.1990   76.3770  217.2010 C   0  0  0  0  0  0  0  0  0  0  0  0
  143.6370   75.4060  218.1060 C   0  0  0  0  0  0  0  0  0  0  0  0
  139.9790   76.7580  222.1420 C   0  0  0  0  0  0  0  0  0  0  0  0
  138.8100   77.5080  222.3470 C   0  0  0  0  0  0  0  0  0  0  0  0
  138.9050   78.8240  222.8040 C   0  0  0  0  0  0  0  0  0  0  0  0
  140.1630   79.3910  223.0370 C   0  0  0  0  0  0  0  0  0  0  0  0
  140.2950   80.7120  223.4920 C   0  0  0  0  0  0  0  0  0  0  0  0
  141.5680   81.2530  223.7050 C   0  0  0  0  0  0  0  0  0  0  0  0
  142.7100   80.4820  223.4640 C   0  0  0  0  0  0  0  0  0  0  0  0
  142.5870   79.1650  223.0100 C   0  0  0  0  0  0  0  0  0  0  0  0
  141.3180   78.6150  222.7950 C   0  0  0  0  0  0  0  0  0  0  0  0
  141.1940   77.3350  222.3540 N   0  0  0  0  0  0  0  0  0  0  0  0
  139.7901   73.0290  219.8591 H   0  0  0  0  0  0  0  0  0  0  0  0
  141.0062   73.7849  218.7762 H   0  0  0  0  0  0  0  0  0  0  0  0
  144.0079   71.4042  220.5926 H   0  0  0  0  0  0  0  0  0  0  0  0
  143.4494   71.6956  218.9393 H   0  0  0  0  0  0  0  0  0  0  0  0
  145.4261   72.8728  218.3852 H   0  0  0  0  0  0  0  0  0  0  0  0
  146.0860   71.6230  220.8260 H   0  0  0  0  0  0  0  0  0  0  0  0
  145.9123   73.9912  221.1440 H   0  0  0  0  0  0  0  0  0  0  0  0
  145.9038   74.8481  219.5950 H   0  0  0  0  0  0  0  0  0  0  0  0
  143.8038   74.9490  221.4577 H   0  0  0  0  0  0  0  0  0  0  0  0
  142.6638   76.9050  221.0252 H   0  0  0  0  0  0  0  0  0  0  0  0
  141.8962   78.6402  219.4053 H   0  0  0  0  0  0  0  0  0  0  0  0
  142.2366   78.3050  216.9557 H   0  0  0  0  0  0  0  0  0  0  0  0
  143.3437   76.2270  216.1209 H   0  0  0  0  0  0  0  0  0  0  0  0
  144.1213   74.4913  217.7335 H   0  0  0  0  0  0  0  0  0  0  0  0
  137.8245   77.0613  222.1487 H   0  0  0  0  0  0  0  0  0  0  0  0
  137.9933   79.4136  222.9804 H   0  0  0  0  0  0  0  0  0  0  0  0
  139.3990   81.3215  223.6810 H   0  0  0  0  0  0  0  0  0  0  0  0
  141.6709   82.2880  224.0631 H   0  0  0  0  0  0  0  0  0  0  0  0
  143.7080   80.9130  223.6321 H   0  0  0  0  0  0  0  0  0  0  0  0
  143.4873   78.5615  222.8219 H   0  0  0  0  0  0  0  0  0  0  0  0
  1  2  2  0
  2  3  1  0
  3  4  1  0
  4  5  1  0
  5  6  2  0
  5  7  1  0
  7  8  1  0
  8  9  1  0
  9 10  1  0
  9 11  1  0
 11 12  1  0
 12 13  1  0
 13 14  2  0
 14 15  1  0
 15 16  2  0
 16 17  1  0
 17 18  2  0
  2 19  1  0
 19 20  2  0
 20 21  1  0
 21 22  2  0
 22 23  1  0
 23 24  2  0
 24 25  1  0
 25 26  2  0
 26 27  1  0
 27 28  2  0
 12  7  1  0
 18 13  1  0
 28 19  1  0
 27 22  1  0
  4 29  1  0
  4 30  1  0
  8 31  1  0
  8 32  1  0
  9 33  1  6
 10 34  1  0
 11 35  1  0
 11 36  1  0
 12 37  1  1
 14 38  1  0
 15 39  1  0
 16 40  1  0
 17 41  1  0
 18 42  1  0
 20 43  1  0
 21 44  1  0
 23 45  1  0
 24 46  1  0
 25 47  1  0
 26 48  1  0
M  CHG  1   3  -1
M  END
>  <meeko>  (5) 
{"free_energy": -7.61, "intermolecular_energy": -9.7, "internal_energy": -1.95, "cluster_size": 6, "cluster_id": 4, "rank_in_cluster": 2}

$$$$

     RDKit          3D

 48 51  0  0  0  0  0  0  0  0999 V2000
  140.3590   73.3640  222.4020 O   0  0  0  0  0  0  0  0  0  0  0  0
  140.0980   72.1350  222.3260 C   0  0  0  0  0  0  0  0  0  0  0  0
  139.8720   71.5600  221.0330 N   0  0  0  0  0  0  0  0  0  0  0  0
  140.9150   71.1180  220.1150 C   0  0  0  0  0  0  0  0  0  0  0  0
  141.4910   72.3080  219.4100 C   0  0  0  0  0  0  0  0  0  0  0  0
  140.7550   72.9670  218.6260 O   0  0  0  0  0  0  0  0  0  0  0  0
  142.8480   72.7330  219.6410 N   0  0  0  0  0  0  0  0  0  0  0  0
  144.0040   72.1610  218.9670 C   0  0  0  0  0  0  0  0  0  0  0  0
  145.2110   72.9450  219.4800 C   0  0  2  0  0  0  0  0  0  0  0  0
  146.2900   72.0840  219.7290 O   0  0  0  0  0  0  0  0  0  0  0  0
  144.7410   73.6370  220.7630 C   0  0  0  0  0  0  0  0  0  0  0  0
  143.2150   73.7020  220.6660 C   0  0  1  0  0  0  0  0  0  0  0  0
  142.7350   75.0920  220.2990 C   0  0  0  0  0  0  0  0  0  0  0  0
  143.4060   75.8630  219.3310 C   0  0  0  0  0  0  0  0  0  0  0  0
  142.9630   77.1520  219.0230 C   0  0  0  0  0  0  0  0  0  0  0  0
  141.8540   77.6890  219.6820 C   0  0  0  0  0  0  0  0  0  0  0  0
  141.1880   76.9370  220.6540 C   0  0  0  0  0  0  0  0  0  0  0  0
  141.6270   75.6470  220.9640 C   0  0  0  0  0  0  0  0  0  0  0  0
  140.0860   71.3360  223.5650 C   0  0  0  0  0  0  0  0  0  0  0  0
  139.5330   70.0460  223.5950 C   0  0  0  0  0  0  0  0  0  0  0  0
  139.5160   69.3300  224.7940 C   0  0  0  0  0  0  0  0  0  0  0  0
  140.0320   69.9090  225.9590 C   0  0  0  0  0  0  0  0  0  0  0  0
  140.0270   69.2210  227.1810 C   0  0  0  0  0  0  0  0  0  0  0  0
  140.5410   69.8320  228.3300 C   0  0  0  0  0  0  0  0  0  0  0  0
  141.0590   71.1300  228.2650 C   0  0  0  0  0  0  0  0  0  0  0  0
  141.0680   71.8240  227.0500 C   0  0  0  0  0  0  0  0  0  0  0  0
  140.5570   71.2200  225.8960 C   0  0  0  0  0  0  0  0  0  0  0  0
  140.5640   71.8900  224.7130 N   0  0  0  0  0  0  0  0  0  0  0  0
  141.7082   70.6057  220.6793 H   0  0  0  0  0  0  0  0  0  0  0  0
  140.4864   70.4242  219.3768 H   0  0  0  0  0  0  0  0  0  0  0  0
  144.1049   71.0945  219.2169 H   0  0  0  0  0  0  0  0  0  0  0  0
  143.9109   72.2286  217.8730 H   0  0  0  0  0  0  0  0  0  0  0  0
  145.5670   73.6786  218.7417 H   0  0  0  0  0  0  0  0  0  0  0  0
  146.0590   71.5770  220.5510 H   0  0  0  0  0  0  0  0  0  0  0  0
  145.0444   73.0547  221.6456 H   0  0  0  0  0  0  0  0  0  0  0  0
  145.1832   74.6387  220.8683 H   0  0  0  0  0  0  0  0  0  0  0  0
  142.7449   73.4719  221.6335 H   0  0  0  0  0  0  0  0  0  0  0  0
  144.2840   75.4484  218.8141 H   0  0  0  0  0  0  0  0  0  0  0  0
  143.4884   77.7452  218.2601 H   0  0  0  0  0  0  0  0  0  0  0  0
  141.5053   78.7029  219.4360 H   0  0  0  0  0  0  0  0  0  0  0  0
  140.3173   77.3611  221.1755 H   0  0  0  0  0  0  0  0  0  0  0  0
  141.1023   75.0616  221.7335 H   0  0  0  0  0  0  0  0  0  0  0  0
  139.1155   69.6017  222.6794 H   0  0  0  0  0  0  0  0  0  0  0  0
  139.0979   68.3130  224.8226 H   0  0  0  0  0  0  0  0  0  0  0  0
  139.6190   68.2010  227.2362 H   0  0  0  0  0  0  0  0  0  0  0  0
  140.5378   69.2902  229.2873 H   0  0  0  0  0  0  0  0  0  0  0  0
  141.4604   71.6063  229.1716 H   0  0  0  0  0  0  0  0  0  0  0  0
  141.4767   72.8441  227.0021 H   0  0  0  0  0  0  0  0  0  0  0  0
  1  2  2  0
  2  3  1  0
  3  4  1  0
  4  5  1  0
  5  6  2  0
  5  7  1  0
  7  8  1  0
  8  9  1  0
  9 10  1  0
  9 11  1  0
 11 12  1  0
 12 13  1  0
 13 14  2  0
 14 15  1  0
 15 16  2  0
 16 17  1  0
 17 18  2  0
  2 19  1  0
 19 20  2  0
 20 21  1  0
 21 22  2  0
 22 23  1  0
 23 24  2  0
 24 25  1  0
 25 26  2  0
 26 27  1  0
 27 28  2  0
 12  7  1  0
 18 13  1  0
 28 19  1  0
 27 22  1  0
  4 29  1  0
  4 30  1  0
  8 31  1  0
  8 32  1  0
  9 33  1  6
 10 34  1  0
 11 35  1  0
 11 36  1  0
 12 37  1  1
 14 38  1  0
 15 39  1  0
 16 40  1  0
 17 41  1  0
 18 42  1  0
 20 43  1  0
 21 44  1  0
 23 45  1  0
 24 46  1  0
 25 47  1  0
 26 48  1  0
M  CHG  1   3  -1
M  END
>  <meeko>  (6) 
{"free_energy": -8.19, "intermolecular_energy": -10.28, "internal_energy": -1.52, "cluster_size": 5, "cluster_id": 2, "rank_in_cluster": 3}

$$$$

     RDKit          3D

 48 51  0  0  0  0  0  0  0  0999 V2000
  139.9120   73.5930  222.5040 O   0  0  0  0  0  0  0  0  0  0  0  0
  140.3630   72.4190  222.4580 C   0  0  0  0  0  0  0  0  0  0  0  0
  141.0920   72.0090  221.2950 N   0  0  0  0  0  0  0  0  0  0  0  0
  140.6980   72.2770  219.9170 C   0  0  0  0  0  0  0  0  0  0  0  0
  141.8880   72.1170  219.0220 C   0  0  0  0  0  0  0  0  0  0  0  0
  141.7240   71.6250  217.8720 O   0  0  0  0  0  0  0  0  0  0  0  0
  143.2000   72.5470  219.4330 N   0  0  0  0  0  0  0  0  0  0  0  0
  144.4390   72.0330  218.8680 C   0  0  0  0  0  0  0  0  0  0  0  0
  145.5610   72.8030  219.5610 C   0  0  2  0  0  0  0  0  0  0  0  0
  146.6210   71.9450  219.8880 O   0  0  0  0  0  0  0  0  0  0  0  0
  144.9300   73.4130  220.8170 C   0  0  0  0  0  0  0  0  0  0  0  0
  143.4240   73.4610  220.5460 C   0  0  1  0  0  0  0  0  0  0  0  0
  142.9610   74.8630  220.2020 C   0  0  0  0  0  0  0  0  0  0  0  0
  143.6550   75.6500  219.2640 C   0  0  0  0  0  0  0  0  0  0  0  0
  143.2260   76.9490  218.9770 C   0  0  0  0  0  0  0  0  0  0  0  0
  142.1100   77.4800  219.6290 C   0  0  0  0  0  0  0  0  0  0  0  0
  141.4220   76.7120  220.5730 C   0  0  0  0  0  0  0  0  0  0  0  0
  141.8460   75.4110  220.8610 C   0  0  0  0  0  0  0  0  0  0  0  0
  140.1640   71.5380  223.6230 C   0  0  0  0  0  0  0  0  0  0  0  0
  139.3920   70.3700  223.5300 C   0  0  0  0  0  0  0  0  0  0  0  0
  139.2030   69.5740  224.6620 C   0  0  0  0  0  0  0  0  0  0  0  0
  139.7690   69.9550  225.8840 C   0  0  0  0  0  0  0  0  0  0  0  0
  139.5960   69.1820  227.0410 C   0  0  0  0  0  0  0  0  0  0  0  0
  140.1660   69.5970  228.2500 C   0  0  0  0  0  0  0  0  0  0  0  0
  140.9070   70.7820  228.3090 C   0  0  0  0  0  0  0  0  0  0  0  0
  141.0840   71.5590  227.1590 C   0  0  0  0  0  0  0  0  0  0  0  0
  140.5190   71.1510  225.9460 C   0  0  0  0  0  0  0  0  0  0  0  0
  140.6880   71.9030  224.8260 N   0  0  0  0  0  0  0  0  0  0  0  0
  139.9130   71.5682  219.6148 H   0  0  0  0  0  0  0  0  0  0  0  0
  140.3123   73.3040  219.8371 H   0  0  0  0  0  0  0  0  0  0  0  0
  144.5334   70.9554  219.0677 H   0  0  0  0  0  0  0  0  0  0  0  0
  144.4717   72.1634  217.7762 H   0  0  0  0  0  0  0  0  0  0  0  0
  145.9851   73.5823  218.9107 H   0  0  0  0  0  0  0  0  0  0  0  0
  146.3850   71.5260  220.7570 H   0  0  0  0  0  0  0  0  0  0  0  0
  145.1413   72.7853  221.6953 H   0  0  0  0  0  0  0  0  0  0  0  0
  145.3353   74.4135  221.0286 H   0  0  0  0  0  0  0  0  0  0  0  0
  142.8492   73.1692  221.4373 H   0  0  0  0  0  0  0  0  0  0  0  0
  144.5396   75.2407  218.7541 H   0  0  0  0  0  0  0  0  0  0  0  0
  143.7683   77.5547  218.2360 H   0  0  0  0  0  0  0  0  0  0  0  0
  141.7730   78.5017  219.3996 H   0  0  0  0  0  0  0  0  0  0  0  0
  140.5462   77.1315  221.0897 H   0  0  0  0  0  0  0  0  0  0  0  0
  141.3039   74.8123  221.6078 H   0  0  0  0  0  0  0  0  0  0  0  0
  138.9378   70.0827  222.5702 H   0  0  0  0  0  0  0  0  0  0  0  0
  138.6106   68.6497  224.5932 H   0  0  0  0  0  0  0  0  0  0  0  0
  139.0128   68.2503  226.9985 H   0  0  0  0  0  0  0  0  0  0  0  0
  140.0309   68.9893  229.1569 H   0  0  0  0  0  0  0  0  0  0  0  0
  141.3518   71.1039  229.2622 H   0  0  0  0  0  0  0  0  0  0  0  0
  141.6672   72.4903  227.2086 H   0  0  0  0  0  0  0  0  0  0  0  0
  1  2  2  0
  2  3  1  0
  3  4  1  0
  4  5  1  0
  5  6  2  0
  5  7  1  0
  7  8  1  0
  8  9  1  0
  9 10  1  0
  9 11  1  0
 11 12  1  0
 12 13  1  0
 13 14  2  0
 14 15  1  0
 15 16  2  0
 16 17  1  0
 17 18  2  0
  2 19  1  0
 19 20  2  0
 20 21  1  0
 21 22  2  0
 22 23  1  0
 23 24  2  0
 24 25  1  0
 25 26  2  0
 26 27  1  0
 27 28  2  0
 12  7  1  0
 18 13  1  0
 28 19  1  0
 27 22  1  0
  4 29  1  0
  4 30  1  0
  8 31  1  0
  8 32  1  0
  9 33  1  6
 10 34  1  0
 11 35  1  0
 11 36  1  0
 12 37  1  1
 14 38  1  0
 15 39  1  0
 16 40  1  0
 17 41  1  0
 18 42  1  0
 20 43  1  0
 21 44  1  0
 23 45  1  0
 24 46  1  0
 25 47  1  0
 26 48  1  0
M  CHG  1   3  -1
M  END
>  <meeko>  (7) 
{"free_energy": -8.04, "intermolecular_energy": -10.13, "internal_energy": -1.41, "cluster_size": 5, "cluster_id": 2, "rank_in_cluster": 4}

$$$$

     RDKit          3D

 48 51  0  0  0  0  0  0  0  0999 V2000
  139.5200   74.4660  222.4150 O   0  0  0  0  0  0  0  0  0  0  0  0
  139.9140   75.3920  221.6600 C   0  0  0  0  0  0  0  0  0  0  0  0
  140.2440   75.0780  220.3010 N   0  0  0  0  0  0  0  0  0  0  0  0
  140.6560   73.7650  219.8180 C   0  0  0  0  0  0  0  0  0  0  0  0
  141.7470   73.2340  220.6950 C   0  0  0  0  0  0  0  0  0  0  0  0
  141.4370   72.6700  221.7800 O   0  0  0  0  0  0  0  0  0  0  0  0
  143.1320   73.3210  220.3070 N   0  0  0  0  0  0  0  0  0  0  0  0
  143.9130   72.1930  219.8220 C   0  0  0  0  0  0  0  0  0  0  0  0
  145.2930   72.7580  219.4880 C   0  0  2  0  0  0  0  0  0  0  0  0
  146.3020   71.8810  219.9130 O   0  0  0  0  0  0  0  0  0  0  0  0
  145.3780   74.1020  220.2180 C   0  0  0  0  0  0  0  0  0  0  0  0
  143.9300   74.5300  220.4740 C   0  0  1  0  0  0  0  0  0  0  0  0
  143.4870   75.6130  219.5110 C   0  0  0  0  0  0  0  0  0  0  0  0
  142.8660   76.7890  219.9720 C   0  0  0  0  0  0  0  0  0  0  0  0
  142.4440   77.7670  219.0670 C   0  0  0  0  0  0  0  0  0  0  0  0
  142.6250   77.5770  217.6950 C   0  0  0  0  0  0  0  0  0  0  0  0
  143.2280   76.4070  217.2250 C   0  0  0  0  0  0  0  0  0  0  0  0
  143.6550   75.4290  218.1270 C   0  0  0  0  0  0  0  0  0  0  0  0
  139.9720   76.7650  222.1940 C   0  0  0  0  0  0  0  0  0  0  0  0
  138.8020   77.4900  222.4680 C   0  0  0  0  0  0  0  0  0  0  0  0
  138.8960   78.7980  222.9480 C   0  0  0  0  0  0  0  0  0  0  0  0
  140.1550   79.3820  223.1370 C   0  0  0  0  0  0  0  0  0  0  0  0
  140.2860   80.6950  223.6140 C   0  0  0  0  0  0  0  0  0  0  0  0
  141.5580   81.2520  223.7810 C   0  0  0  0  0  0  0  0  0  0  0  0
  142.7010   80.5070  223.4720 C   0  0  0  0  0  0  0  0  0  0  0  0
  142.5780   79.1970  222.9950 C   0  0  0  0  0  0  0  0  0  0  0  0
  141.3100   78.6300  222.8260 C   0  0  0  0  0  0  0  0  0  0  0  0
  141.1860   77.3580  222.3630 N   0  0  0  0  0  0  0  0  0  0  0  0
  139.7972   73.0782  219.8436 H   0  0  0  0  0  0  0  0  0  0  0  0
  141.0236   73.8516  218.7849 H   0  0  0  0  0  0  0  0  0  0  0  0
  143.9934   71.4195  220.6000 H   0  0  0  0  0  0  0  0  0  0  0  0
  143.4443   71.7219  218.9454 H   0  0  0  0  0  0  0  0  0  0  0  0
  145.4323   72.8856  218.4043 H   0  0  0  0  0  0  0  0  0  0  0  0
  146.1350   71.7080  220.8770 H   0  0  0  0  0  0  0  0  0  0  0  0
  145.9176   73.9875  221.1697 H   0  0  0  0  0  0  0  0  0  0  0  0
  145.9228   74.8512  219.6248 H   0  0  0  0  0  0  0  0  0  0  0  0
  143.8139   74.9617  221.4791 H   0  0  0  0  0  0  0  0  0  0  0  0
  142.7119   76.9392  221.0507 H   0  0  0  0  0  0  0  0  0  0  0  0
  141.9686   78.6878  219.4358 H   0  0  0  0  0  0  0  0  0  0  0  0
  142.2929   78.3483  216.9845 H   0  0  0  0  0  0  0  0  0  0  0  0
  143.3665   76.2560  216.1443 H   0  0  0  0  0  0  0  0  0  0  0  0
  144.1260   74.5085  217.7518 H   0  0  0  0  0  0  0  0  0  0  0  0
  137.8160   77.0303  222.3055 H   0  0  0  0  0  0  0  0  0  0  0  0
  137.9836   79.3682  223.1771 H   0  0  0  0  0  0  0  0  0  0  0  0
  139.3899   81.2852  223.8562 H   0  0  0  0  0  0  0  0  0  0  0  0
  141.6601   82.2807  224.1571 H   0  0  0  0  0  0  0  0  0  0  0  0
  143.6984   80.9517  223.6042 H   0  0  0  0  0  0  0  0  0  0  0  0
  143.4782   78.6131  222.7529 H   0  0  0  0  0  0  0  0  0  0  0  0
  1  2  2  0
  2  3  1  0
  3  4  1  0
  4  5  1  0
  5  6  2  0
  5  7  1  0
  7  8  1  0
  8  9  1  0
  9 10  1  0
  9 11  1  0
 11 12  1  0
 12 13  1  0
 13 14  2  0
 14 15  1  0
 15 16  2  0
 16 17  1  0
 17 18  2  0
  2 19  1  0
 19 20  2  0
 20 21  1  0
 21 22  2  0
 22 23  1  0
 23 24  2  0
 24 25  1  0
 25 26  2  0
 26 27  1  0
 27 28  2  0
 12  7  1  0
 18 13  1  0
 28 19  1  0
 27 22  1  0
  4 29  1  0
  4 30  1  0
  8 31  1  0
  8 32  1  0
  9 33  1  6
 10 34  1  0
 11 35  1  0
 11 36  1  0
 12 37  1  1
 14 38  1  0
 15 39  1  0
 16 40  1  0
 17 41  1  0
 18 42  1  0
 20 43  1  0
 21 44  1  0
 23 45  1  0
 24 46  1  0
 25 47  1  0
 26 48  1  0
M  CHG  1   3  -1
M  END
>  <meeko>  (8) 
{"free_energy": -7.62, "intermolecular_energy": -9.71, "internal_energy": -1.94, "cluster_size": 6, "cluster_id": 4, "rank_in_cluster": 1}

$$$$

     RDKit          3D

 48 51  0  0  0  0  0  0  0  0999 V2000
  138.2480   72.1120  222.1240 O   0  0  0  0  0  0  0  0  0  0  0  0
  139.2870   71.4130  222.2520 C   0  0  0  0  0  0  0  0  0  0  0  0
  140.1740   71.2890  221.1340 N   0  0  0  0  0  0  0  0  0  0  0  0
  140.5470   72.3720  220.2310 C   0  0  0  0  0  0  0  0  0  0  0  0
  141.5580   73.2500  220.9020 C   0  0  0  0  0  0  0  0  0  0  0  0
  141.2150   73.9050  221.9240 O   0  0  0  0  0  0  0  0  0  0  0  0
  142.9170   73.3280  220.4280 N   0  0  0  0  0  0  0  0  0  0  0  0
  143.6530   72.1990  219.8780 C   0  0  0  0  0  0  0  0  0  0  0  0
  145.0140   72.7550  219.4660 C   0  0  2  0  0  0  0  0  0  0  0  0
  146.0380   71.8610  219.8130 O   0  0  0  0  0  0  0  0  0  0  0  0
  145.1610   74.0860  220.2080 C   0  0  0  0  0  0  0  0  0  0  0  0
  143.7370   74.5250  220.5610 C   0  0  1  0  0  0  0  0  0  0  0  0
  143.2470   75.6280  219.6440 C   0  0  0  0  0  0  0  0  0  0  0  0
  142.3600   76.6180  220.1050 C   0  0  0  0  0  0  0  0  0  0  0  0
  141.9000   77.6140  219.2380 C   0  0  0  0  0  0  0  0  0  0  0  0
  142.3100   77.6250  217.9020 C   0  0  0  0  0  0  0  0  0  0  0  0
  143.1800   76.6380  217.4310 C   0  0  0  0  0  0  0  0  0  0  0  0
  143.6440   75.6420  218.2950 C   0  0  0  0  0  0  0  0  0  0  0  0
  139.5660   70.7950  223.5610 C   0  0  0  0  0  0  0  0  0  0  0  0
  139.2410   69.4540  223.8180 C   0  0  0  0  0  0  0  0  0  0  0  0
  139.4970   68.9110  225.0790 C   0  0  0  0  0  0  0  0  0  0  0  0
  140.0580   69.7110  226.0810 C   0  0  0  0  0  0  0  0  0  0  0  0
  140.3240   69.1990  227.3600 C   0  0  0  0  0  0  0  0  0  0  0  0
  140.8750   70.0280  228.3430 C   0  0  0  0  0  0  0  0  0  0  0  0
  141.1600   71.3670  228.0570 C   0  0  0  0  0  0  0  0  0  0  0  0
  140.8980   71.8850  226.7840 C   0  0  0  0  0  0  0  0  0  0  0  0
  140.3480   71.0630  225.7940 C   0  0  0  0  0  0  0  0  0  0  0  0
  140.0910   71.5630  224.5560 N   0  0  0  0  0  0  0  0  0  0  0  0
  140.9788   71.9511  219.3110 H   0  0  0  0  0  0  0  0  0  0  0  0
  139.6552   72.9640  219.9775 H   0  0  0  0  0  0  0  0  0  0  0  0
  143.7738   71.4129  220.6379 H   0  0  0  0  0  0  0  0  0  0  0  0
  143.1246   71.7457  219.0263 H   0  0  0  0  0  0  0  0  0  0  0  0
  145.0851   72.8984  218.3777 H   0  0  0  0  0  0  0  0  0  0  0  0
  145.9680   71.7230  220.7940 H   0  0  0  0  0  0  0  0  0  0  0  0
  145.7582   73.9514  221.1219 H   0  0  0  0  0  0  0  0  0  0  0  0
  145.6763   74.8383  219.5927 H   0  0  0  0  0  0  0  0  0  0  0  0
  143.6889   74.9424  221.5776 H   0  0  0  0  0  0  0  0  0  0  0  0
  142.0265   76.6085  221.1532 H   0  0  0  0  0  0  0  0  0  0  0  0
  141.2142   78.3903  219.6082 H   0  0  0  0  0  0  0  0  0  0  0  0
  141.9482   78.4100  217.2217 H   0  0  0  0  0  0  0  0  0  0  0  0
  143.5002   76.6449  216.3786 H   0  0  0  0  0  0  0  0  0  0  0  0
  144.3240   74.8642  217.9173 H   0  0  0  0  0  0  0  0  0  0  0  0
  138.7872   68.8342  223.0306 H   0  0  0  0  0  0  0  0  0  0  0  0
  139.2582   67.8570  225.2842 H   0  0  0  0  0  0  0  0  0  0  0  0
  140.0995   68.1469  227.5895 H   0  0  0  0  0  0  0  0  0  0  0  0
  141.0849   69.6251  229.3448 H   0  0  0  0  0  0  0  0  0  0  0  0
  141.5912   72.0144  228.8348 H   0  0  0  0  0  0  0  0  0  0  0  0
  141.1243   72.9382  226.5614 H   0  0  0  0  0  0  0  0  0  0  0  0
  1  2  2  0
  2  3  1  0
  3  4  1  0
  4  5  1  0
  5  6  2  0
  5  7  1  0
  7  8  1  0
  8  9  1  0
  9 10  1  0
  9 11  1  0
 11 12  1  0
 12 13  1  0
 13 14  2  0
 14 15  1  0
 15 16  2  0
 16 17  1  0
 17 18  2  0
  2 19  1  0
 19 20  2  0
 20 21  1  0
 21 22  2  0
 22 23  1  0
 23 24  2  0
 24 25  1  0
 25 26  2  0
 26 27  1  0
 27 28  2  0
 12  7  1  0
 18 13  1  0
 28 19  1  0
 27 22  1  0
  4 29  1  0
  4 30  1  0
  8 31  1  0
  8 32  1  0
  9 33  1  6
 10 34  1  0
 11 35  1  0
 11 36  1  0
 12 37  1  1
 14 38  1  0
 15 39  1  0
 16 40  1  0
 17 41  1  0
 18 42  1  0
 20 43  1  0
 21 44  1  0
 23 45  1  0
 24 46  1  0
 25 47  1  0
 26 48  1  0
M  CHG  1   3  -1
M  END
>  <meeko>  (9) 
{"free_energy": -7.94, "intermolecular_energy": -10.03, "internal_energy": -1.23, "cluster_size": 5, "cluster_id": 2, "rank_in_cluster": 5}

$$$$

     RDKit          3D

 48 51  0  0  0  0  0  0  0  0999 V2000
  140.8170   71.5700  221.3040 O   0  0  0  0  0  0  0  0  0  0  0  0
  140.4880   72.1730  222.3580 C   0  0  0  0  0  0  0  0  0  0  0  0
  140.3010   73.5920  222.3080 N   0  0  0  0  0  0  0  0  0  0  0  0
  139.3290   74.2840  221.4710 C   0  0  0  0  0  0  0  0  0  0  0  0
  139.9750   74.6670  220.1750 C   0  0  0  0  0  0  0  0  0  0  0  0
  139.5980   74.0970  219.1140 O   0  0  0  0  0  0  0  0  0  0  0  0
  140.9850   75.6930  220.1130 N   0  0  0  0  0  0  0  0  0  0  0  0
  140.8760   76.9810  220.7810 C   0  0  0  0  0  0  0  0  0  0  0  0
  142.1830   77.7140  220.4820 C   0  0  2  0  0  0  0  0  0  0  0  0
  141.9380   79.0630  220.1910 O   0  0  0  0  0  0  0  0  0  0  0  0
  142.7990   76.9880  219.2830 C   0  0  0  0  0  0  0  0  0  0  0  0
  142.1710   75.5920  219.2720 C   0  0  1  0  0  0  0  0  0  0  0  0
  143.1270   74.5420  219.8020 C   0  0  0  0  0  0  0  0  0  0  0  0
  142.7740   73.1800  219.8260 C   0  0  0  0  0  0  0  0  0  0  0  0
  143.6600   72.2290  220.3400 C   0  0  0  0  0  0  0  0  0  0  0  0
  144.9000   72.6270  220.8440 C   0  0  0  0  0  0  0  0  0  0  0  0
  145.2560   73.9780  220.8380 C   0  0  0  0  0  0  0  0  0  0  0  0
  144.3740   74.9320  220.3220 C   0  0  0  0  0  0  0  0  0  0  0  0
  140.2620   71.3840  223.5830 C   0  0  0  0  0  0  0  0  0  0  0  0
  139.5330   70.1850  223.5540 C   0  0  0  0  0  0  0  0  0  0  0  0
  139.3160   69.4790  224.7400 C   0  0  0  0  0  0  0  0  0  0  0  0
  139.8120   69.9800  225.9490 C   0  0  0  0  0  0  0  0  0  0  0  0
  139.6090   69.2990  227.1590 C   0  0  0  0  0  0  0  0  0  0  0  0
  140.1080   69.8320  228.3520 C   0  0  0  0  0  0  0  0  0  0  0  0
  140.8070   71.0440  228.3440 C   0  0  0  0  0  0  0  0  0  0  0  0
  141.0130   71.7300  227.1420 C   0  0  0  0  0  0  0  0  0  0  0  0
  140.5190   71.2030  225.9430 C   0  0  0  0  0  0  0  0  0  0  0  0
  140.7160   71.8660  224.7730 N   0  0  0  0  0  0  0  0  0  0  0  0
  138.4750   73.6194  221.2735 H   0  0  0  0  0  0  0  0  0  0  0  0
  138.9755   75.1884  221.9878 H   0  0  0  0  0  0  0  0  0  0  0  0
  140.0197   77.5469  220.3854 H   0  0  0  0  0  0  0  0  0  0  0  0
  140.7141   76.8648  221.8628 H   0  0  0  0  0  0  0  0  0  0  0  0
  142.8647   77.7047  221.3453 H   0  0  0  0  0  0  0  0  0  0  0  0
  142.6690   79.5800  220.6200 H   0  0  0  0  0  0  0  0  0  0  0  0
  142.5634   77.5212  218.3502 H   0  0  0  0  0  0  0  0  0  0  0  0
  143.8952   76.9379  219.3600 H   0  0  0  0  0  0  0  0  0  0  0  0
  141.9220   75.2758  218.2483 H   0  0  0  0  0  0  0  0  0  0  0  0
  141.7951   72.8619  219.4380 H   0  0  0  0  0  0  0  0  0  0  0  0
  143.3800   71.1652  220.3475 H   0  0  0  0  0  0  0  0  0  0  0  0
  145.5967   71.8766  221.2459 H   0  0  0  0  0  0  0  0  0  0  0  0
  146.2310   74.2912  221.2396 H   0  0  0  0  0  0  0  0  0  0  0  0
  144.6573   75.9949  220.3228 H   0  0  0  0  0  0  0  0  0  0  0  0
  139.1346   69.8031  222.6025 H   0  0  0  0  0  0  0  0  0  0  0  0
  138.7568   68.5319  224.7235 H   0  0  0  0  0  0  0  0  0  0  0  0
  139.0580   68.3470  227.1693 H   0  0  0  0  0  0  0  0  0  0  0  0
  139.9503   69.2965  229.2998 H   0  0  0  0  0  0  0  0  0  0  0  0
  141.1959   71.4589  229.2856 H   0  0  0  0  0  0  0  0  0  0  0  0
  141.5628   72.6828  227.1393 H   0  0  0  0  0  0  0  0  0  0  0  0
  1  2  2  0
  2  3  1  0
  3  4  1  0
  4  5  1  0
  5  6  2  0
  5  7  1  0
  7  8  1  0
  8  9  1  0
  9 10  1  0
  9 11  1  0
 11 12  1  0
 12 13  1  0
 13 14  2  0
 14 15  1  0
 15 16  2  0
 16 17  1  0
 17 18  2  0
  2 19  1  0
 19 20  2  0
 20 21  1  0
 21 22  2  0
 22 23  1  0
 23 24  2  0
 24 25  1  0
 25 26  2  0
 26 27  1  0
 27 28  2  0
 12  7  1  0
 18 13  1  0
 28 19  1  0
 27 22  1  0
  4 29  1  0
  4 30  1  0
  8 31  1  0
  8 32  1  0
  9 33  1  1
 10 34  1  0
 11 35  1  0
 11 36  1  0
 12 37  1  6
 14 38  1  0
 15 39  1  0
 16 40  1  0
 17 41  1  0
 18 42  1  0
 20 43  1  0
 21 44  1  0
 23 45  1  0
 24 46  1  0
 25 47  1  0
 26 48  1  0
M  CHG  1   3  -1
M  END
>  <meeko>  (10) 
{"free_energy": -7.67, "intermolecular_energy": -9.76, "internal_energy": -1.51, "cluster_size": 7, "cluster_id": 1, "rank_in_cluster": 7}

$$$$

     RDKit          3D

 48 51  0  0  0  0  0  0  0  0999 V2000
  138.7940   71.8480  221.6500 O   0  0  0  0  0  0  0  0  0  0  0  0
  139.6230   72.1990  222.5290 C   0  0  0  0  0  0  0  0  0  0  0  0
  140.3260   73.4360  222.3560 N   0  0  0  0  0  0  0  0  0  0  0  0
  140.7870   73.9700  221.0800 C   0  0  0  0  0  0  0  0  0  0  0  0
  141.6340   72.9440  220.3910 C   0  0  0  0  0  0  0  0  0  0  0  0
  141.0890   71.8920  219.9600 O   0  0  0  0  0  0  0  0  0  0  0  0
  143.0440   73.1550  220.1790 N   0  0  0  0  0  0  0  0  0  0  0  0
  143.9590   72.1240  219.7110 C   0  0  0  0  0  0  0  0  0  0  0  0
  145.3200   72.8060  219.5870 C   0  0  2  0  0  0  0  0  0  0  0  0
  146.3380   71.9670  220.0650 O   0  0  0  0  0  0  0  0  0  0  0  0
  145.2190   74.0880  220.4160 C   0  0  0  0  0  0  0  0  0  0  0  0
  143.7230   74.3960  220.5270 C   0  0  1  0  0  0  0  0  0  0  0  0
  143.3120   75.5220  219.5990 C   0  0  0  0  0  0  0  0  0  0  0  0
  142.5680   76.6200  220.0700 C   0  0  0  0  0  0  0  0  0  0  0  0
  142.1780   77.6370  219.1940 C   0  0  0  0  0  0  0  0  0  0  0  0
  142.5160   77.5650  217.8410 C   0  0  0  0  0  0  0  0  0  0  0  0
  143.2430   76.4720  217.3600 C   0  0  0  0  0  0  0  0  0  0  0  0
  143.6370   75.4540  218.2330 C   0  0  0  0  0  0  0  0  0  0  0  0
  139.7970   71.3460  223.7180 C   0  0  0  0  0  0  0  0  0  0  0  0
  139.4020   69.9990  223.7150 C   0  0  0  0  0  0  0  0  0  0  0  0
  139.5580   69.2300  224.8700 C   0  0  0  0  0  0  0  0  0  0  0  0
  140.0910   69.8100  226.0270 C   0  0  0  0  0  0  0  0  0  0  0  0
  140.2580   69.0680  227.2050 C   0  0  0  0  0  0  0  0  0  0  0  0
  140.7840   69.6810  228.3480 C   0  0  0  0  0  0  0  0  0  0  0  0
  141.1420   71.0330  228.3200 C   0  0  0  0  0  0  0  0  0  0  0  0
  140.9790   71.7800  227.1490 C   0  0  0  0  0  0  0  0  0  0  0  0
  140.4550   71.1750  226.0010 C   0  0  0  0  0  0  0  0  0  0  0  0
  140.2940   71.8980  224.8600 N   0  0  0  0  0  0  0  0  0  0  0  0
  139.9197   74.2144  220.4490 H   0  0  0  0  0  0  0  0  0  0  0  0
  141.3794   74.8804  221.2539 H   0  0  0  0  0  0  0  0  0  0  0  0
  144.0085   71.2975  220.4351 H   0  0  0  0  0  0  0  0  0  0  0  0
  143.6311   71.6940  218.7531 H   0  0  0  0  0  0  0  0  0  0  0  0
  145.5716   73.0305  218.5400 H   0  0  0  0  0  0  0  0  0  0  0  0
  146.1310   71.7920  221.0200 H   0  0  0  0  0  0  0  0  0  0  0  0
  145.6535   73.9336  221.4147 H   0  0  0  0  0  0  0  0  0  0  0  0
  145.7696   74.9173  219.9480 H   0  0  0  0  0  0  0  0  0  0  0  0
  143.4602   74.7361  221.5396 H   0  0  0  0  0  0  0  0  0  0  0  0
  142.2920   76.6781  221.1332 H   0  0  0  0  0  0  0  0  0  0  0  0
  141.6036   78.4959  219.5712 H   0  0  0  0  0  0  0  0  0  0  0  0
  142.2104   78.3679  217.1540 H   0  0  0  0  0  0  0  0  0  0  0  0
  143.5052   76.4131  216.2933 H   0  0  0  0  0  0  0  0  0  0  0  0
  144.2051   74.5940  217.8487 H   0  0  0  0  0  0  0  0  0  0  0  0
  138.9716   69.5514  222.8070 H   0  0  0  0  0  0  0  0  0  0  0  0
  139.2626   68.1704  224.8706 H   0  0  0  0  0  0  0  0  0  0  0  0
  139.9759   68.0051  227.2308 H   0  0  0  0  0  0  0  0  0  0  0  0
  140.9163   69.0978  229.2713 H   0  0  0  0  0  0  0  0  0  0  0  0
  141.5530   71.5101  229.2219 H   0  0  0  0  0  0  0  0  0  0  0  0
  141.2626   72.8427  227.1303 H   0  0  0  0  0  0  0  0  0  0  0  0
  1  2  2  0
  2  3  1  0
  3  4  1  0
  4  5  1  0
  5  6  2  0
  5  7  1  0
  7  8  1  0
  8  9  1  0
  9 10  1  0
  9 11  1  0
 11 12  1  0
 12 13  1  0
 13 14  2  0
 14 15  1  0
 15 16  2  0
 16 17  1  0
 17 18  2  0
  2 19  1  0
 19 20  2  0
 20 21  1  0
 21 22  2  0
 22 23  1  0
 23 24  2  0
 24 25  1  0
 25 26  2  0
 26 27  1  0
 27 28  2  0
 12  7  1  0
 18 13  1  0
 28 19  1  0
 27 22  1  0
  4 29  1  0
  4 30  1  0
  8 31  1  0
  8 32  1  0
  9 33  1  6
 10 34  1  0
 11 35  1  0
 11 36  1  0
 12 37  1  1
 14 38  1  0
 15 39  1  0
 16 40  1  0
 17 41  1  0
 18 42  1  0
 20 43  1  0
 21 44  1  0
 23 45  1  0
 24 46  1  0
 25 47  1  0
 26 48  1  0
M  CHG  1   3  -1
M  END
>  <meeko>  (11) 
{"free_energy": -8.37, "intermolecular_energy": -10.46, "internal_energy": -1.18, "cluster_size": 5, "cluster_id": 2, "rank_in_cluster": 1}

$$$$

     RDKit          3D

 48 51  0  0  0  0  0  0  0  0999 V2000
  140.0800   71.8270  221.1040 O   0  0  0  0  0  0  0  0  0  0  0  0
  140.3240   72.3320  222.2300 C   0  0  0  0  0  0  0  0  0  0  0  0
  140.6610   73.7230  222.3010 N   0  0  0  0  0  0  0  0  0  0  0  0
  140.0460   74.7790  221.5070 C   0  0  0  0  0  0  0  0  0  0  0  0
  140.9630   75.9620  221.4610 C   0  0  0  0  0  0  0  0  0  0  0  0
  141.0700   76.6910  222.4850 O   0  0  0  0  0  0  0  0  0  0  0  0
  141.7490   76.2580  220.2900 N   0  0  0  0  0  0  0  0  0  0  0  0
  142.0640   77.6050  219.8400 C   0  0  0  0  0  0  0  0  0  0  0  0
  142.9490   77.4340  218.6070 C   0  0  2  0  0  0  0  0  0  0  0  0
  142.5880   78.3500  217.6090 O   0  0  0  0  0  0  0  0  0  0  0  0
  142.7360   75.9900  218.1420 C   0  0  0  0  0  0  0  0  0  0  0  0
  142.2120   75.2310  219.3640 C   0  0  1  0  0  0  0  0  0  0  0  0
  143.2910   74.3730  219.9960 C   0  0  0  0  0  0  0  0  0  0  0  0
  144.5560   74.9050  220.3070 C   0  0  0  0  0  0  0  0  0  0  0  0
  145.5460   74.0930  220.8670 C   0  0  0  0  0  0  0  0  0  0  0  0
  145.2880   72.7420  221.1130 C   0  0  0  0  0  0  0  0  0  0  0  0
  144.0390   72.2000  220.7960 C   0  0  0  0  0  0  0  0  0  0  0  0
  143.0460   73.0100  220.2370 C   0  0  0  0  0  0  0  0  0  0  0  0
  140.2060   71.4810  223.4280 C   0  0  0  0  0  0  0  0  0  0  0  0
  139.5400   70.2460  223.3820 C   0  0  0  0  0  0  0  0  0  0  0  0
  139.4240   69.4790  224.5440 C   0  0  0  0  0  0  0  0  0  0  0  0
  139.9570   69.9550  225.7480 C   0  0  0  0  0  0  0  0  0  0  0  0
  139.8550   69.2130  226.9340 C   0  0  0  0  0  0  0  0  0  0  0  0
  140.3890   69.7220  228.1230 C   0  0  0  0  0  0  0  0  0  0  0  0
  141.0220   70.9690  228.1350 C   0  0  0  0  0  0  0  0  0  0  0  0
  141.1270   71.7150  226.9560 C   0  0  0  0  0  0  0  0  0  0  0  0
  140.5980   71.2140  225.7620 C   0  0  0  0  0  0  0  0  0  0  0  0
  140.6980   71.9360  224.6140 N   0  0  0  0  0  0  0  0  0  0  0  0
  139.8666   74.4133  220.4852 H   0  0  0  0  0  0  0  0  0  0  0  0
  139.0888   75.0725  221.9627 H   0  0  0  0  0  0  0  0  0  0  0  0
  141.1431   78.1470  219.5787 H   0  0  0  0  0  0  0  0  0  0  0  0
  142.5699   78.1867  220.6247 H   0  0  0  0  0  0  0  0  0  0  0  0
  144.0082   77.6264  218.8329 H   0  0  0  0  0  0  0  0  0  0  0  0
  143.4340   78.7480  217.2740 H   0  0  0  0  0  0  0  0  0  0  0  0
  142.0002   75.9553  217.3251 H   0  0  0  0  0  0  0  0  0  0  0  0
  143.6669   75.5467  217.7587 H   0  0  0  0  0  0  0  0  0  0  0  0
  141.4056   74.5363  219.0863 H   0  0  0  0  0  0  0  0  0  0  0  0
  144.7669   75.9661  220.1082 H   0  0  0  0  0  0  0  0  0  0  0  0
  146.5299   74.5181  221.1145 H   0  0  0  0  0  0  0  0  0  0  0  0
  146.0676   72.1049  221.5561 H   0  0  0  0  0  0  0  0  0  0  0  0
  143.8374   71.1355  220.9865 H   0  0  0  0  0  0  0  0  0  0  0  0
  142.0666   72.5779  219.9841 H   0  0  0  0  0  0  0  0  0  0  0  0
  139.1116   69.8840  222.4357 H   0  0  0  0  0  0  0  0  0  0  0  0
  138.9155   68.5041  224.5130 H   0  0  0  0  0  0  0  0  0  0  0  0
  139.3561   68.2327  226.9294 H   0  0  0  0  0  0  0  0  0  0  0  0
  140.3106   69.1388  229.0523 H   0  0  0  0  0  0  0  0  0  0  0  0
  141.4382   71.3642  229.0734 H   0  0  0  0  0  0  0  0  0  0  0  0
  141.6255   72.6955  226.9681 H   0  0  0  0  0  0  0  0  0  0  0  0
  1  2  2  0
  2  3  1  0
  3  4  1  0
  4  5  1  0
  5  6  2  0
  5  7  1  0
  7  8  1  0
  8  9  1  0
  9 10  1  0
  9 11  1  0
 11 12  1  0
 12 13  1  0
 13 14  2  0
 14 15  1  0
 15 16  2  0
 16 17  1  0
 17 18  2  0
  2 19  1  0
 19 20  2  0
 20 21  1  0
 21 22  2  0
 22 23  1  0
 23 24  2  0
 24 25  1  0
 25 26  2  0
 26 27  1  0
 27 28  2  0
 12  7  1  0
 18 13  1  0
 28 19  1  0
 27 22  1  0
  4 29  1  0
  4 30  1  0
  8 31  1  0
  8 32  1  0
  9 33  1  1
 10 34  1  0
 11 35  1  0
 11 36  1  0
 12 37  1  6
 14 38  1  0
 15 39  1  0
 16 40  1  0
 17 41  1  0
 18 42  1  0
 20 43  1  0
 21 44  1  0
 23 45  1  0
 24 46  1  0
 25 47  1  0
 26 48  1  0
M  CHG  1   3  -1
M  END
>  <meeko>  (12) 
{"free_energy": -8.43, "intermolecular_energy": -10.52, "internal_energy": -1.49, "cluster_size": 7, "cluster_id": 1, "rank_in_cluster": 3}

$$$$

     RDKit          3D

 48 51  0  0  0  0  0  0  0  0999 V2000
  139.3780   74.4930  222.3570 O   0  0  0  0  0  0  0  0  0  0  0  0
  139.8490   75.3900  221.6100 C   0  0  0  0  0  0  0  0  0  0  0  0
  140.2440   75.0380  220.2790 N   0  0  0  0  0  0  0  0  0  0  0  0
  140.6710   73.7120  219.8510 C   0  0  0  0  0  0  0  0  0  0  0  0
  141.7820   73.2390  220.7380 C   0  0  0  0  0  0  0  0  0  0  0  0
  141.4950   72.7260  221.8540 O   0  0  0  0  0  0  0  0  0  0  0  0
  143.1600   73.3230  220.3250 N   0  0  0  0  0  0  0  0  0  0  0  0
  143.9320   72.1910  219.8350 C   0  0  0  0  0  0  0  0  0  0  0  0
  145.3060   72.7540  219.4730 C   0  0  2  0  0  0  0  0  0  0  0  0
  146.3220   71.8800  219.8870 O   0  0  0  0  0  0  0  0  0  0  0  0
  145.4030   74.1030  220.1900 C   0  0  0  0  0  0  0  0  0  0  0  0
  143.9600   74.5330  220.4680 C   0  0  1  0  0  0  0  0  0  0  0  0
  143.5000   75.6090  219.5050 C   0  0  0  0  0  0  0  0  0  0  0  0
  142.8310   76.7590  219.9630 C   0  0  0  0  0  0  0  0  0  0  0  0
  142.3940   77.7300  219.0570 C   0  0  0  0  0  0  0  0  0  0  0  0
  142.6090   77.5580  217.6880 C   0  0  0  0  0  0  0  0  0  0  0  0
  143.2600   76.4130  217.2210 C   0  0  0  0  0  0  0  0  0  0  0  0
  143.7010   75.4410  218.1230 C   0  0  0  0  0  0  0  0  0  0  0  0
  139.9270   76.7700  222.1240 C   0  0  0  0  0  0  0  0  0  0  0  0
  138.7700   77.5390  222.3270 C   0  0  0  0  0  0  0  0  0  0  0  0
  138.8860   78.8520  222.7890 C   0  0  0  0  0  0  0  0  0  0  0  0
  140.1530   79.3960  223.0310 C   0  0  0  0  0  0  0  0  0  0  0  0
  140.3060   80.7120  223.4920 C   0  0  0  0  0  0  0  0  0  0  0  0
  141.5860   81.2300  223.7130 C   0  0  0  0  0  0  0  0  0  0  0  0
  142.7160   80.4410  223.4740 C   0  0  0  0  0  0  0  0  0  0  0  0
  142.5730   79.1280  223.0140 C   0  0  0  0  0  0  0  0  0  0  0  0
  141.2950   78.6010  222.7910 C   0  0  0  0  0  0  0  0  0  0  0  0
  141.1510   77.3250  222.3440 N   0  0  0  0  0  0  0  0  0  0  0  0
  139.8239   73.0135  219.9189 H   0  0  0  0  0  0  0  0  0  0  0  0
  141.0242   73.7568  218.8102 H   0  0  0  0  0  0  0  0  0  0  0  0
  144.0259   71.4233  220.6172 H   0  0  0  0  0  0  0  0  0  0  0  0
  143.4482   71.7130  218.9705 H   0  0  0  0  0  0  0  0  0  0  0  0
  145.4269   72.8737  218.3862 H   0  0  0  0  0  0  0  0  0  0  0  0
  146.1530   71.6880  220.8460 H   0  0  0  0  0  0  0  0  0  0  0  0
  145.9592   73.9964  221.1330 H   0  0  0  0  0  0  0  0  0  0  0  0
  145.9369   74.8474  219.5811 H   0  0  0  0  0  0  0  0  0  0  0  0
  143.8613   74.9727  221.4715 H   0  0  0  0  0  0  0  0  0  0  0  0
  142.6508   76.8948  221.0396 H   0  0  0  0  0  0  0  0  0  0  0  0
  141.8800   78.6309  219.4232 H   0  0  0  0  0  0  0  0  0  0  0  0
  142.2658   78.3240  216.9770 H   0  0  0  0  0  0  0  0  0  0  0  0
  143.4255   76.2767  216.1421 H   0  0  0  0  0  0  0  0  0  0  0  0
  144.2084   74.5391  217.7500 H   0  0  0  0  0  0  0  0  0  0  0  0
  137.7778   77.1099  222.1234 H   0  0  0  0  0  0  0  0  0  0  0  0
  137.9839   79.4572  222.9623 H   0  0  0  0  0  0  0  0  0  0  0  0
  139.4198   81.3360  223.6795 H   0  0  0  0  0  0  0  0  0  0  0  0
  141.7046   82.2616  224.0761 H   0  0  0  0  0  0  0  0  0  0  0  0
  143.7203   80.8545  223.6484 H   0  0  0  0  0  0  0  0  0  0  0  0
  143.4636   78.5099  222.8276 H   0  0  0  0  0  0  0  0  0  0  0  0
  1  2  2  0
  2  3  1  0
  3  4  1  0
  4  5  1  0
  5  6  2  0
  5  7  1  0
  7  8  1  0
  8  9  1  0
  9 10  1  0
  9 11  1  0
 11 12  1  0
 12 13  1  0
 13 14  2  0
 14 15  1  0
 15 16  2  0
 16 17  1  0
 17 18  2  0
  2 19  1  0
 19 20  2  0
 20 21  1  0
 21 22  2  0
 22 23  1  0
 23 24  2  0
 24 25  1  0
 25 26  2  0
 26 27  1  0
 27 28  2  0
 12  7  1  0
 18 13  1  0
 28 19  1  0
 27 22  1  0
  4 29  1  0
  4 30  1  0
  8 31  1  0
  8 32  1  0
  9 33  1  6
 10 34  1  0
 11 35  1  0
 11 36  1  0
 12 37  1  1
 14 38  1  0
 15 39  1  0
 16 40  1  0
 17 41  1  0
 18 42  1  0
 20 43  1  0
 21 44  1  0
 23 45  1  0
 24 46  1  0
 25 47  1  0
 26 48  1  0
M  CHG  1   3  -1
M  END
>  <meeko>  (13) 
{"free_energy": -7.58, "intermolecular_energy": -9.67, "internal_energy": -1.97, "cluster_size": 6, "cluster_id": 4, "rank_in_cluster": 4}

$$$$

     RDKit          3D

 48 51  0  0  0  0  0  0  0  0999 V2000
  139.7840   71.5570  221.2710 O   0  0  0  0  0  0  0  0  0  0  0  0
  140.0580   72.1290  222.3570 C   0  0  0  0  0  0  0  0  0  0  0  0
  140.2970   73.5420  222.3480 N   0  0  0  0  0  0  0  0  0  0  0  0
  139.6850   74.4930  221.4270 C   0  0  0  0  0  0  0  0  0  0  0  0
  140.1890   75.8700  221.7310 C   0  0  0  0  0  0  0  0  0  0  0  0
  141.4340   76.0760  221.7420 O   0  0  0  0  0  0  0  0  0  0  0  0
  139.2840   76.9660  221.9690 N   0  0  0  0  0  0  0  0  0  0  0  0
  138.0090   76.8310  222.6580 C   0  0  0  0  0  0  0  0  0  0  0  0
  137.4240   78.2410  222.7230 C   0  0  2  0  0  0  0  0  0  0  0  0
  136.0480   78.2180  222.4520 O   0  0  0  0  0  0  0  0  0  0  0  0
  138.1860   79.0550  221.6730 C   0  0  0  0  0  0  0  0  0  0  0  0
  139.5000   78.3060  221.4380 C   0  0  1  0  0  0  0  0  0  0  0  0
  140.6650   78.9860  222.1290 C   0  0  0  0  0  0  0  0  0  0  0  0
  140.9560   78.7340  223.4830 C   0  0  0  0  0  0  0  0  0  0  0  0
  142.0210   79.3880  224.1090 C   0  0  0  0  0  0  0  0  0  0  0  0
  142.7970   80.3060  223.3970 C   0  0  0  0  0  0  0  0  0  0  0  0
  142.5080   80.5730  222.0560 C   0  0  0  0  0  0  0  0  0  0  0  0
  141.4460   79.9190  221.4250 C   0  0  0  0  0  0  0  0  0  0  0  0
  140.0730   71.3290  223.5950 C   0  0  0  0  0  0  0  0  0  0  0  0
  139.5410   70.0300  223.6300 C   0  0  0  0  0  0  0  0  0  0  0  0
  139.5490   69.3130  224.8290 C   0  0  0  0  0  0  0  0  0  0  0  0
  140.0700   69.8980  225.9880 C   0  0  0  0  0  0  0  0  0  0  0  0
  140.0900   69.2080  227.2090 C   0  0  0  0  0  0  0  0  0  0  0  0
  140.6080   69.8260  228.3520 C   0  0  0  0  0  0  0  0  0  0  0  0
  141.1050   71.1310  228.2830 C   0  0  0  0  0  0  0  0  0  0  0  0
  141.0890   71.8270  227.0700 C   0  0  0  0  0  0  0  0  0  0  0  0
  140.5740   71.2170  225.9210 C   0  0  0  0  0  0  0  0  0  0  0  0
  140.5560   71.8890  224.7390 N   0  0  0  0  0  0  0  0  0  0  0  0
  139.9485   74.2251  220.3932 H   0  0  0  0  0  0  0  0  0  0  0  0
  138.5914   74.4667  221.5427 H   0  0  0  0  0  0  0  0  0  0  0  0
  137.3387   76.1629  222.0973 H   0  0  0  0  0  0  0  0  0  0  0  0
  138.1330   76.3958  223.6606 H   0  0  0  0  0  0  0  0  0  0  0  0
  137.5333   78.6840  223.7239 H   0  0  0  0  0  0  0  0  0  0  0  0
  135.9230   77.5940  221.6890 H   0  0  0  0  0  0  0  0  0  0  0  0
  137.6067   79.1143  220.7398 H   0  0  0  0  0  0  0  0  0  0  0  0
  138.3629   80.0869  222.0106 H   0  0  0  0  0  0  0  0  0  0  0  0
  139.7611   78.2856  220.3696 H   0  0  0  0  0  0  0  0  0  0  0  0
  140.3425   78.0192  224.0510 H   0  0  0  0  0  0  0  0  0  0  0  0
  142.2487   79.1794  225.1648 H   0  0  0  0  0  0  0  0  0  0  0  0
  143.6352   80.8185  223.8918 H   0  0  0  0  0  0  0  0  0  0  0  0
  143.1168   81.2985  221.4966 H   0  0  0  0  0  0  0  0  0  0  0  0
  141.2199   80.1358  220.3706 H   0  0  0  0  0  0  0  0  0  0  0  0
  139.1205   69.5796  222.7188 H   0  0  0  0  0  0  0  0  0  0  0  0
  139.1462   68.2899  224.8617 H   0  0  0  0  0  0  0  0  0  0  0  0
  139.6986   68.1817  227.2677 H   0  0  0  0  0  0  0  0  0  0  0  0
  140.6244   69.2833  229.3086 H   0  0  0  0  0  0  0  0  0  0  0  0
  141.5099   71.6119  229.1857 H   0  0  0  0  0  0  0  0  0  0  0  0
  141.4811   72.8535  227.0194 H   0  0  0  0  0  0  0  0  0  0  0  0
  1  2  2  0
  2  3  1  0
  3  4  1  0
  4  5  1  0
  5  6  2  0
  5  7  1  0
  7  8  1  0
  8  9  1  0
  9 10  1  0
  9 11  1  0
 11 12  1  0
 12 13  1  0
 13 14  2  0
 14 15  1  0
 15 16  2  0
 16 17  1  0
 17 18  2  0
  2 19  1  0
 19 20  2  0
 20 21  1  0
 21 22  2  0
 22 23  1  0
 23 24  2  0
 24 25  1  0
 25 26  2  0
 26 27  1  0
 27 28  2  0
 12  7  1  0
 18 13  1  0
 28 19  1  0
 27 22  1  0
  4 29  1  0
  4 30  1  0
  8 31  1  0
  8 32  1  0
  9 33  1  1
 10 34  1  0
 11 35  1  0
 11 36  1  0
 12 37  1  6
 14 38  1  0
 15 39  1  0
 16 40  1  0
 17 41  1  0
 18 42  1  0
 20 43  1  0
 21 44  1  0
 23 45  1  0
 24 46  1  0
 25 47  1  0
 26 48  1  0
M  CHG  1   3  -1
M  END
>  <meeko>  (14) 
{"free_energy": -8.21, "intermolecular_energy": -10.3, "internal_energy": -1.06, "cluster_size": 2, "cluster_id": 3, "rank_in_cluster": 2}

$$$$

     RDKit          3D

 48 51  0  0  0  0  0  0  0  0999 V2000
  140.0750   71.8090  221.1660 O   0  0  0  0  0  0  0  0  0  0  0  0
  140.3310   72.3280  222.2830 C   0  0  0  0  0  0  0  0  0  0  0  0
  140.6910   73.7140  222.3310 N   0  0  0  0  0  0  0  0  0  0  0  0
  140.0630   74.7740  221.5520 C   0  0  0  0  0  0  0  0  0  0  0  0
  140.9770   75.9600  221.5020 C   0  0  0  0  0  0  0  0  0  0  0  0
  141.0950   76.6820  222.5280 O   0  0  0  0  0  0  0  0  0  0  0  0
  141.7480   76.2640  220.3230 N   0  0  0  0  0  0  0  0  0  0  0  0
  142.0750   77.6140  219.8910 C   0  0  0  0  0  0  0  0  0  0  0  0
  142.9370   77.4510  218.6400 C   0  0  2  0  0  0  0  0  0  0  0  0
  142.5730   78.3900  217.6630 O   0  0  0  0  0  0  0  0  0  0  0  0
  142.6960   76.0190  218.1550 C   0  0  0  0  0  0  0  0  0  0  0  0
  142.1820   75.2470  219.3730 C   0  0  1  0  0  0  0  0  0  0  0  0
  143.2580   74.3640  219.9720 C   0  0  0  0  0  0  0  0  0  0  0  0
  143.0120   73.0080  220.2590 C   0  0  0  0  0  0  0  0  0  0  0  0
  144.0090   72.2150  220.8330 C   0  0  0  0  0  0  0  0  0  0  0  0
  145.2560   72.7670  221.1360 C   0  0  0  0  0  0  0  0  0  0  0  0
  145.5070   74.1150  220.8690 C   0  0  0  0  0  0  0  0  0  0  0  0
  144.5130   74.9110  220.2920 C   0  0  0  0  0  0  0  0  0  0  0  0
  140.2000   71.4990  223.4950 C   0  0  0  0  0  0  0  0  0  0  0  0
  139.5260   70.2680  223.4670 C   0  0  0  0  0  0  0  0  0  0  0  0
  139.3990   69.5230  224.6420 C   0  0  0  0  0  0  0  0  0  0  0  0
  139.9290   70.0150  225.8400 C   0  0  0  0  0  0  0  0  0  0  0  0
  139.8160   69.2950  227.0390 C   0  0  0  0  0  0  0  0  0  0  0  0
  140.3470   69.8200  228.2210 C   0  0  0  0  0  0  0  0  0  0  0  0
  140.9890   71.0630  228.2140 C   0  0  0  0  0  0  0  0  0  0  0  0
  141.1060   71.7880  227.0230 C   0  0  0  0  0  0  0  0  0  0  0  0
  140.5790   71.2700  225.8350 C   0  0  0  0  0  0  0  0  0  0  0  0
  140.6900   71.9710  224.6750 N   0  0  0  0  0  0  0  0  0  0  0  0
  139.8712   74.4147  220.5302 H   0  0  0  0  0  0  0  0  0  0  0  0
  139.1111   75.0621  222.0220 H   0  0  0  0  0  0  0  0  0  0  0  0
  141.1580   78.1736  219.6545 H   0  0  0  0  0  0  0  0  0  0  0  0
  142.6022   78.1750  220.6768 H   0  0  0  0  0  0  0  0  0  0  0  0
  144.0026   77.6242  218.8511 H   0  0  0  0  0  0  0  0  0  0  0  0
  143.4200   78.7720  217.3130 H   0  0  0  0  0  0  0  0  0  0  0  0
  141.9461   76.0082  217.3503 H   0  0  0  0  0  0  0  0  0  0  0  0
  143.6139   75.5694  217.7485 H   0  0  0  0  0  0  0  0  0  0  0  0
  141.3617   74.5680  219.0974 H   0  0  0  0  0  0  0  0  0  0  0  0
  142.0292   72.5702  220.0301 H   0  0  0  0  0  0  0  0  0  0  0  0
  143.8116   71.1541  221.0467 H   0  0  0  0  0  0  0  0  0  0  0  0
  146.0404   72.1400  221.5850 H   0  0  0  0  0  0  0  0  0  0  0  0
  146.4873   74.5504  221.1129 H   0  0  0  0  0  0  0  0  0  0  0  0
  144.7143   75.9728  220.0869 H   0  0  0  0  0  0  0  0  0  0  0  0
  139.1002   69.8920  222.5250 H   0  0  0  0  0  0  0  0  0  0  0  0
  138.8834   68.5515  224.6255 H   0  0  0  0  0  0  0  0  0  0  0  0
  139.3100   68.3183  227.0490 H   0  0  0  0  0  0  0  0  0  0  0  0
  140.2597   69.2536  229.1599 H   0  0  0  0  0  0  0  0  0  0  0  0
  141.4030   71.4716  229.1476 H   0  0  0  0  0  0  0  0  0  0  0  0
  141.6121   72.7647  227.0207 H   0  0  0  0  0  0  0  0  0  0  0  0
  1  2  2  0
  2  3  1  0
  3  4  1  0
  4  5  1  0
  5  6  2  0
  5  7  1  0
  7  8  1  0
  8  9  1  0
  9 10  1  0
  9 11  1  0
 11 12  1  0
 12 13  1  0
 13 14  2  0
 14 15  1  0
 15 16  2  0
 16 17  1  0
 17 18  2  0
  2 19  1  0
 19 20  2  0
 20 21  1  0
 21 22  2  0
 22 23  1  0
 23 24  2  0
 24 25  1  0
 25 26  2  0
 26 27  1  0
 27 28  2  0
 12  7  1  0
 18 13  1  0
 28 19  1  0
 27 22  1  0
  4 29  1  0
  4 30  1  0
  8 31  1  0
  8 32  1  0
  9 33  1  1
 10 34  1  0
 11 35  1  0
 11 36  1  0
 12 37  1  6
 14 38  1  0
 15 39  1  0
 16 40  1  0
 17 41  1  0
 18 42  1  0
 20 43  1  0
 21 44  1  0
 23 45  1  0
 24 46  1  0
 25 47  1  0
 26 48  1  0
M  CHG  1   3  -1
M  END
>  <meeko>  (15) 
{"free_energy": -8.43, "intermolecular_energy": -10.51, "internal_energy": -1.49, "cluster_size": 7, "cluster_id": 1, "rank_in_cluster": 4}

$$$$

     RDKit          3D

 48 51  0  0  0  0  0  0  0  0999 V2000
  139.8400   71.5730  221.2590 O   0  0  0  0  0  0  0  0  0  0  0  0
  140.0920   72.1490  222.3490 C   0  0  0  0  0  0  0  0  0  0  0  0
  140.3530   73.5570  222.3380 N   0  0  0  0  0  0  0  0  0  0  0  0
  139.5410   74.5580  221.6560 C   0  0  0  0  0  0  0  0  0  0  0  0
  140.0660   75.9240  221.9760 C   0  0  0  0  0  0  0  0  0  0  0  0
  141.3110   76.0840  222.1070 O   0  0  0  0  0  0  0  0  0  0  0  0
  139.1850   77.0580  222.0990 N   0  0  0  0  0  0  0  0  0  0  0  0
  137.8800   77.0080  222.7390 C   0  0  0  0  0  0  0  0  0  0  0  0
  137.3360   78.4340  222.6810 C   0  0  2  0  0  0  0  0  0  0  0  0
  135.9720   78.4300  222.3530 O   0  0  0  0  0  0  0  0  0  0  0  0
  138.1640   79.1500  221.6100 C   0  0  0  0  0  0  0  0  0  0  0  0
  139.4630   78.3500  221.4840 C   0  0  1  0  0  0  0  0  0  0  0  0
  140.6190   79.0460  222.1740 C   0  0  0  0  0  0  0  0  0  0  0  0
  141.4810   79.9050  221.4670 C   0  0  0  0  0  0  0  0  0  0  0  0
  142.5550   80.5190  222.1160 C   0  0  0  0  0  0  0  0  0  0  0  0
  142.7880   80.2750  223.4710 C   0  0  0  0  0  0  0  0  0  0  0  0
  141.9470   79.4130  224.1800 C   0  0  0  0  0  0  0  0  0  0  0  0
  140.8700   78.7990  223.5360 C   0  0  0  0  0  0  0  0  0  0  0  0
  140.0580   71.3570  223.5920 C   0  0  0  0  0  0  0  0  0  0  0  0
  139.4470   70.0940  223.6360 C   0  0  0  0  0  0  0  0  0  0  0  0
  139.4120   69.3850  224.8380 C   0  0  0  0  0  0  0  0  0  0  0  0
  139.9690   69.9440  225.9940 C   0  0  0  0  0  0  0  0  0  0  0  0
  139.9470   69.2620  227.2190 C   0  0  0  0  0  0  0  0  0  0  0  0
  140.5030   69.8540  228.3580 C   0  0  0  0  0  0  0  0  0  0  0  0
  141.0790   71.1260  228.2810 C   0  0  0  0  0  0  0  0  0  0  0  0
  141.1050   71.8140  227.0630 C   0  0  0  0  0  0  0  0  0  0  0  0
  140.5530   71.2290  225.9180 C   0  0  0  0  0  0  0  0  0  0  0  0
  140.5750   71.8940  224.7320 N   0  0  0  0  0  0  0  0  0  0  0  0
  139.5884   74.3914  220.5697 H   0  0  0  0  0  0  0  0  0  0  0  0
  138.4969   74.4767  221.9925 H   0  0  0  0  0  0  0  0  0  0  0  0
  137.2133   76.3209  222.1973 H   0  0  0  0  0  0  0  0  0  0  0  0
  137.9493   76.6418  223.7739 H   0  0  0  0  0  0  0  0  0  0  0  0
  137.4179   78.9430  223.6527 H   0  0  0  0  0  0  0  0  0  0  0  0
  135.8940   77.9550  221.4840 H   0  0  0  0  0  0  0  0  0  0  0  0
  137.6249   79.1588  220.6512 H   0  0  0  0  0  0  0  0  0  0  0  0
  138.3584   80.1980  221.8817 H   0  0  0  0  0  0  0  0  0  0  0  0
  139.7662   78.2453  220.4318 H   0  0  0  0  0  0  0  0  0  0  0  0
  141.3081   80.0940  220.3972 H   0  0  0  0  0  0  0  0  0  0  0  0
  143.2186   81.1962  221.5583 H   0  0  0  0  0  0  0  0  0  0  0  0
  143.6332   80.7611  223.9802 H   0  0  0  0  0  0  0  0  0  0  0  0
  142.1333   79.2177  225.2464 H   0  0  0  0  0  0  0  0  0  0  0  0
  140.2138   78.1179  224.0977 H   0  0  0  0  0  0  0  0  0  0  0  0
  138.9981   69.6651  222.7280 H   0  0  0  0  0  0  0  0  0  0  0  0
  138.9475   68.3887  224.8766 H   0  0  0  0  0  0  0  0  0  0  0  0
  139.4929   68.2622  227.2843 H   0  0  0  0  0  0  0  0  0  0  0  0
  140.4871   69.3169  229.3178 H   0  0  0  0  0  0  0  0  0  0  0  0
  141.5129   71.5869  229.1806 H   0  0  0  0  0  0  0  0  0  0  0  0
  141.5591   72.8142  227.0055 H   0  0  0  0  0  0  0  0  0  0  0  0
  1  2  2  0
  2  3  1  0
  3  4  1  0
  4  5  1  0
  5  6  2  0
  5  7  1  0
  7  8  1  0
  8  9  1  0
  9 10  1  0
  9 11  1  0
 11 12  1  0
 12 13  1  0
 13 14  2  0
 14 15  1  0
 15 16  2  0
 16 17  1  0
 17 18  2  0
  2 19  1  0
 19 20  2  0
 20 21  1  0
 21 22  2  0
 22 23  1  0
 23 24  2  0
 24 25  1  0
 25 26  2  0
 26 27  1  0
 27 28  2  0
 12  7  1  0
 18 13  1  0
 28 19  1  0
 27 22  1  0
  4 29  1  0
  4 30  1  0
  8 31  1  0
  8 32  1  0
  9 33  1  1
 10 34  1  0
 11 35  1  0
 11 36  1  0
 12 37  1  6
 14 38  1  0
 15 39  1  0
 16 40  1  0
 17 41  1  0
 18 42  1  0
 20 43  1  0
 21 44  1  0
 23 45  1  0
 24 46  1  0
 25 47  1  0
 26 48  1  0
M  CHG  1   3  -1
M  END
>  <meeko>  (16) 
{"free_energy": -8.23, "intermolecular_energy": -10.32, "internal_energy": -1.04, "cluster_size": 2, "cluster_id": 3, "rank_in_cluster": 1}

$$$$

     RDKit          3D

 48 51  0  0  0  0  0  0  0  0999 V2000
  140.4950   71.6680  221.2040 O   0  0  0  0  0  0  0  0  0  0  0  0
  140.3720   72.2540  222.3110 C   0  0  0  0  0  0  0  0  0  0  0  0
  140.3350   73.6860  222.3310 N   0  0  0  0  0  0  0  0  0  0  0  0
  140.0340   74.5350  221.1840 C   0  0  0  0  0  0  0  0  0  0  0  0
  140.8760   75.7730  221.2510 C   0  0  0  0  0  0  0  0  0  0  0  0
  140.8780   76.4520  222.3140 O   0  0  0  0  0  0  0  0  0  0  0  0
  141.7070   76.1760  220.1450 N   0  0  0  0  0  0  0  0  0  0  0  0
  142.0170   77.5610  219.8240 C   0  0  0  0  0  0  0  0  0  0  0  0
  142.9570   77.5060  218.6210 C   0  0  2  0  0  0  0  0  0  0  0  0
  142.6250   78.4990  217.6880 O   0  0  0  0  0  0  0  0  0  0  0  0
  142.7900   76.1040  218.0280 C   0  0  0  0  0  0  0  0  0  0  0  0
  142.2270   75.2380  219.1580 C   0  0  1  0  0  0  0  0  0  0  0  0
  143.2910   74.3440  219.7630 C   0  0  0  0  0  0  0  0  0  0  0  0
  143.0870   72.9590  219.9000 C   0  0  0  0  0  0  0  0  0  0  0  0
  144.0710   72.1540  220.4820 C   0  0  0  0  0  0  0  0  0  0  0  0
  145.2610   72.7230  220.9410 C   0  0  0  0  0  0  0  0  0  0  0  0
  145.4680   74.1000  220.8220 C   0  0  0  0  0  0  0  0  0  0  0  0
  144.4880   74.9080  220.2390 C   0  0  0  0  0  0  0  0  0  0  0  0
  140.2230   71.4380  223.5300 C   0  0  0  0  0  0  0  0  0  0  0  0
  139.5440   70.2100  223.5080 C   0  0  0  0  0  0  0  0  0  0  0  0
  139.4000   69.4790  224.6890 C   0  0  0  0  0  0  0  0  0  0  0  0
  139.9180   69.9820  225.8880 C   0  0  0  0  0  0  0  0  0  0  0  0
  139.7870   69.2760  227.0930 C   0  0  0  0  0  0  0  0  0  0  0  0
  140.3070   69.8120  228.2760 C   0  0  0  0  0  0  0  0  0  0  0  0
  140.9540   71.0520  228.2630 C   0  0  0  0  0  0  0  0  0  0  0  0
  141.0880   71.7630  227.0660 C   0  0  0  0  0  0  0  0  0  0  0  0
  140.5730   71.2340  225.8770 C   0  0  0  0  0  0  0  0  0  0  0  0
  140.7000   71.9220  224.7110 N   0  0  0  0  0  0  0  0  0  0  0  0
  140.2554   73.9896  220.2547 H   0  0  0  0  0  0  0  0  0  0  0  0
  138.9694   74.8116  221.1990 H   0  0  0  0  0  0  0  0  0  0  0  0
  141.0988   78.1103  219.5685 H   0  0  0  0  0  0  0  0  0  0  0  0
  142.4781   78.0819  220.6761 H   0  0  0  0  0  0  0  0  0  0  0  0
  144.0021   77.6924  218.9092 H   0  0  0  0  0  0  0  0  0  0  0  0
  143.4840   78.8830  217.3700 H   0  0  0  0  0  0  0  0  0  0  0  0
  142.0910   76.1279  217.1790 H   0  0  0  0  0  0  0  0  0  0  0  0
  143.7442   75.7075  217.6508 H   0  0  0  0  0  0  0  0  0  0  0  0
  141.4452   74.5588  218.7871 H   0  0  0  0  0  0  0  0  0  0  0  0
  142.1483   72.5068  219.5474 H   0  0  0  0  0  0  0  0  0  0  0  0
  143.9076   71.0705  220.5785 H   0  0  0  0  0  0  0  0  0  0  0  0
  146.0351   72.0876  221.3960 H   0  0  0  0  0  0  0  0  0  0  0  0
  146.4035   74.5484  221.1877 H   0  0  0  0  0  0  0  0  0  0  0  0
  144.6540   75.9919  220.1519 H   0  0  0  0  0  0  0  0  0  0  0  0
  139.1274   69.8254  222.5654 H   0  0  0  0  0  0  0  0  0  0  0  0
  138.8804   68.5095  224.6770 H   0  0  0  0  0  0  0  0  0  0  0  0
  139.2760   68.3020  227.1078 H   0  0  0  0  0  0  0  0  0  0  0  0
  140.2067   69.2562  229.2199 H   0  0  0  0  0  0  0  0  0  0  0  0
  141.3586   71.4692  229.1969 H   0  0  0  0  0  0  0  0  0  0  0  0
  141.5980   72.7376  227.0591 H   0  0  0  0  0  0  0  0  0  0  0  0
  1  2  2  0
  2  3  1  0
  3  4  1  0
  4  5  1  0
  5  6  2  0
  5  7  1  0
  7  8  1  0
  8  9  1  0
  9 10  1  0
  9 11  1  0
 11 12  1  0
 12 13  1  0
 13 14  2  0
 14 15  1  0
 15 16  2  0
 16 17  1  0
 17 18  2  0
  2 19  1  0
 19 20  2  0
 20 21  1  0
 21 22  2  0
 22 23  1  0
 23 24  2  0
 24 25  1  0
 25 26  2  0
 26 27  1  0
 27 28  2  0
 12  7  1  0
 18 13  1  0
 28 19  1  0
 27 22  1  0
  4 29  1  0
  4 30  1  0
  8 31  1  0
  8 32  1  0
  9 33  1  1
 10 34  1  0
 11 35  1  0
 11 36  1  0
 12 37  1  6
 14 38  1  0
 15 39  1  0
 16 40  1  0
 17 41  1  0
 18 42  1  0
 20 43  1  0
 21 44  1  0
 23 45  1  0
 24 46  1  0
 25 47  1  0
 26 48  1  0
M  CHG  1   3  -1
M  END
>  <meeko>  (17) 
{"free_energy": -8.56, "intermolecular_energy": -10.65, "internal_energy": -1.44, "cluster_size": 7, "cluster_id": 1, "rank_in_cluster": 1}

$$$$

     RDKit          3D

 48 51  0  0  0  0  0  0  0  0999 V2000
  141.4700   72.0110  221.4810 O   0  0  0  0  0  0  0  0  0  0  0  0
  140.6820   72.4310  222.3680 C   0  0  0  0  0  0  0  0  0  0  0  0
  140.1060   73.7330  222.2140 N   0  0  0  0  0  0  0  0  0  0  0  0
  140.7620   74.8750  221.5900 C   0  0  0  0  0  0  0  0  0  0  0  0
  141.0450   74.5590  220.1530 C   0  0  0  0  0  0  0  0  0  0  0  0
  140.4090   73.6220  219.5980 O   0  0  0  0  0  0  0  0  0  0  0  0
  141.9940   75.3280  219.3880 N   0  0  0  0  0  0  0  0  0  0  0  0
  141.9940   76.7810  219.3150 C   0  0  0  0  0  0  0  0  0  0  0  0
  143.1920   77.1520  218.4440 C   0  0  2  0  0  0  0  0  0  0  0  0
  142.8590   78.1890  217.5600 O   0  0  0  0  0  0  0  0  0  0  0  0
  143.5660   75.8730  217.6880 C   0  0  0  0  0  0  0  0  0  0  0  0
  142.9840   74.7190  218.5070 C   0  0  1  0  0  0  0  0  0  0  0  0
  144.0550   74.0010  219.3050 C   0  0  0  0  0  0  0  0  0  0  0  0
  144.4860   72.7100  218.9480 C   0  0  0  0  0  0  0  0  0  0  0  0
  145.4580   72.0540  219.7090 C   0  0  0  0  0  0  0  0  0  0  0  0
  146.0010   72.6740  220.8370 C   0  0  0  0  0  0  0  0  0  0  0  0
  145.5690   73.9500  221.2080 C   0  0  0  0  0  0  0  0  0  0  0  0
  144.6000   74.6100  220.4490 C   0  0  0  0  0  0  0  0  0  0  0  0
  140.3520   71.5440  223.4980 C   0  0  0  0  0  0  0  0  0  0  0  0
  139.5740   70.3890  223.3160 C   0  0  0  0  0  0  0  0  0  0  0  0
  139.2590   69.5880  224.4160 C   0  0  0  0  0  0  0  0  0  0  0  0
  139.7050   69.9500  225.6920 C   0  0  0  0  0  0  0  0  0  0  0  0
  139.4030   69.1700  226.8190 C   0  0  0  0  0  0  0  0  0  0  0  0
  139.8560   69.5650  228.0820 C   0  0  0  0  0  0  0  0  0  0  0  0
  140.6060   70.7370  228.2280 C   0  0  0  0  0  0  0  0  0  0  0  0
  140.9110   71.5200  227.1090 C   0  0  0  0  0  0  0  0  0  0  0  0
  140.4640   71.1320  225.8410 C   0  0  0  0  0  0  0  0  0  0  0  0
  140.7580   71.8900  224.7510 N   0  0  0  0  0  0  0  0  0  0  0  0
  140.1043   75.7546  221.6502 H   0  0  0  0  0  0  0  0  0  0  0  0
  141.7057   75.0890  222.1131 H   0  0  0  0  0  0  0  0  0  0  0  0
  141.0610   77.1418  218.8575 H   0  0  0  0  0  0  0  0  0  0  0  0
  142.0618   77.2372  220.3136 H   0  0  0  0  0  0  0  0  0  0  0  0
  144.0369   77.5197  219.0448 H   0  0  0  0  0  0  0  0  0  0  0  0
  143.7170   78.5880  217.2600 H   0  0  0  0  0  0  0  0  0  0  0  0
  143.1303   75.8838  216.6780 H   0  0  0  0  0  0  0  0  0  0  0  0
  144.6554   75.7765  217.5700 H   0  0  0  0  0  0  0  0  0  0  0  0
  142.5371   73.9540  217.8551 H   0  0  0  0  0  0  0  0  0  0  0  0
  144.0558   72.2142  218.0653 H   0  0  0  0  0  0  0  0  0  0  0  0
  145.7958   71.0481  219.4192 H   0  0  0  0  0  0  0  0  0  0  0  0
  146.7683   72.1579  221.4328 H   0  0  0  0  0  0  0  0  0  0  0  0
  145.9928   74.4355  222.0994 H   0  0  0  0  0  0  0  0  0  0  0  0
  144.2610   75.6128  220.7482 H   0  0  0  0  0  0  0  0  0  0  0  0
  139.2147   70.1167  222.3126 H   0  0  0  0  0  0  0  0  0  0  0  0
  138.6616   68.6745  224.2796 H   0  0  0  0  0  0  0  0  0  0  0  0
  138.8110   68.2494  226.7092 H   0  0  0  0  0  0  0  0  0  0  0  0
  139.6215   68.9515  228.9644 H   0  0  0  0  0  0  0  0  0  0  0  0
  140.9567   71.0436  229.2245 H   0  0  0  0  0  0  0  0  0  0  0  0
  141.5020   72.4403  227.2261 H   0  0  0  0  0  0  0  0  0  0  0  0
  1  2  2  0
  2  3  1  0
  3  4  1  0
  4  5  1  0
  5  6  2  0
  5  7  1  0
  7  8  1  0
  8  9  1  0
  9 10  1  0
  9 11  1  0
 11 12  1  0
 12 13  1  0
 13 14  2  0
 14 15  1  0
 15 16  2  0
 16 17  1  0
 17 18  2  0
  2 19  1  0
 19 20  2  0
 20 21  1  0
 21 22  2  0
 22 23  1  0
 23 24  2  0
 24 25  1  0
 25 26  2  0
 26 27  1  0
 27 28  2  0
 12  7  1  0
 18 13  1  0
 28 19  1  0
 27 22  1  0
  4 29  1  0
  4 30  1  0
  8 31  1  0
  8 32  1  0
  9 33  1  1
 10 34  1  0
 11 35  1  0
 11 36  1  0
 12 37  1  6
 14 38  1  0
 15 39  1  0
 16 40  1  0
 17 41  1  0
 18 42  1  0
 20 43  1  0
 21 44  1  0
 23 45  1  0
 24 46  1  0
 25 47  1  0
 26 48  1  0
M  CHG  1   3  -1
M  END
>  <meeko>  (18) 
{"free_energy": -8.08, "intermolecular_energy": -10.16, "internal_energy": -1.28, "cluster_size": 7, "cluster_id": 1, "rank_in_cluster": 6}

$$$$

     RDKit          3D

 48 51  0  0  0  0  0  0  0  0999 V2000
  140.4400   73.8810  222.3440 O   0  0  0  0  0  0  0  0  0  0  0  0
  140.0340   74.7630  221.5430 C   0  0  0  0  0  0  0  0  0  0  0  0
  139.6630   74.3680  220.2170 N   0  0  0  0  0  0  0  0  0  0  0  0
  140.5910   73.9690  219.1670 C   0  0  0  0  0  0  0  0  0  0  0  0
  141.5800   72.9920  219.7240 C   0  0  0  0  0  0  0  0  0  0  0  0
  141.1680   71.8710  220.1290 O   0  0  0  0  0  0  0  0  0  0  0  0
  142.9890   73.2920  219.7690 N   0  0  0  0  0  0  0  0  0  0  0  0
  144.0320   72.3600  219.3680 C   0  0  0  0  0  0  0  0  0  0  0  0
  145.3490   73.1170  219.5340 C   0  0  2  0  0  0  0  0  0  0  0  0
  146.3290   72.2860  220.0970 O   0  0  0  0  0  0  0  0  0  0  0  0
  145.0320   74.3040  220.4480 C   0  0  0  0  0  0  0  0  0  0  0  0
  143.5210   74.5250  220.3370 C   0  0  1  0  0  0  0  0  0  0  0  0
  143.1920   75.7160  219.4590 C   0  0  0  0  0  0  0  0  0  0  0  0
  143.5380   75.7330  218.0940 C   0  0  0  0  0  0  0  0  0  0  0  0
  143.2470   76.8500  217.3060 C   0  0  0  0  0  0  0  0  0  0  0  0
  142.6200   77.9630  217.8710 C   0  0  0  0  0  0  0  0  0  0  0  0
  142.2850   77.9620  219.2280 C   0  0  0  0  0  0  0  0  0  0  0  0
  142.5710   76.8460  220.0190 C   0  0  0  0  0  0  0  0  0  0  0  0
  139.9150   76.1520  222.0220 C   0  0  0  0  0  0  0  0  0  0  0  0
  138.6940   76.8430  221.9570 C   0  0  0  0  0  0  0  0  0  0  0  0
  138.6270   78.1680  222.3950 C   0  0  0  0  0  0  0  0  0  0  0  0
  139.7770   78.8010  222.8780 C   0  0  0  0  0  0  0  0  0  0  0  0
  139.7460   80.1320  223.3230 C   0  0  0  0  0  0  0  0  0  0  0  0
  140.9160   80.7400  223.7890 C   0  0  0  0  0  0  0  0  0  0  0  0
  142.1190   80.0270  223.8130 C   0  0  0  0  0  0  0  0  0  0  0  0
  142.1600   78.7000  223.3720 C   0  0  0  0  0  0  0  0  0  0  0  0
  140.9930   78.0830  222.9050 C   0  0  0  0  0  0  0  0  0  0  0  0
  141.0280   76.7930  222.4740 N   0  0  0  0  0  0  0  0  0  0  0  0
  140.0337   73.4984  218.3437 H   0  0  0  0  0  0  0  0  0  0  0  0
  141.1220   74.8551  218.7889 H   0  0  0  0  0  0  0  0  0  0  0  0
  144.0182   71.4685  220.0123 H   0  0  0  0  0  0  0  0  0  0  0  0
  143.8907   72.0130  218.3338 H   0  0  0  0  0  0  0  0  0  0  0  0
  145.7511   73.4564  218.5680 H   0  0  0  0  0  0  0  0  0  0  0  0
  145.9070   71.8480  220.8830 H   0  0  0  0  0  0  0  0  0  0  0  0
  145.3098   74.0723  221.4868 H   0  0  0  0  0  0  0  0  0  0  0  0
  145.5949   75.2023  220.1544 H   0  0  0  0  0  0  0  0  0  0  0  0
  143.0776   74.7487  221.3185 H   0  0  0  0  0  0  0  0  0  0  0  0
  144.0398   74.8628  217.6458 H   0  0  0  0  0  0  0  0  0  0  0  0
  143.5123   76.8527  216.2385 H   0  0  0  0  0  0  0  0  0  0  0  0
  142.3899   78.8400  217.2482 H   0  0  0  0  0  0  0  0  0  0  0  0
  141.7957   78.8406  219.6738 H   0  0  0  0  0  0  0  0  0  0  0  0
  142.3084   76.8518  221.0872 H   0  0  0  0  0  0  0  0  0  0  0  0
  137.7960   76.3441  221.5637 H   0  0  0  0  0  0  0  0  0  0  0  0
  137.6718   78.7123  222.3601 H   0  0  0  0  0  0  0  0  0  0  0  0
  138.8020   80.6964  223.3052 H   0  0  0  0  0  0  0  0  0  0  0  0
  140.8901   81.7829  224.1380 H   0  0  0  0  0  0  0  0  0  0  0  0
  143.0360   80.5113  224.1799 H   0  0  0  0  0  0  0  0  0  0  0  0
  143.1078   78.1420  223.3921 H   0  0  0  0  0  0  0  0  0  0  0  0
  1  2  2  0
  2  3  1  0
  3  4  1  0
  4  5  1  0
  5  6  2  0
  5  7  1  0
  7  8  1  0
  8  9  1  0
  9 10  1  0
  9 11  1  0
 11 12  1  0
 12 13  1  0
 13 14  2  0
 14 15  1  0
 15 16  2  0
 16 17  1  0
 17 18  2  0
  2 19  1  0
 19 20  2  0
 20 21  1  0
 21 22  2  0
 22 23  1  0
 23 24  2  0
 24 25  1  0
 25 26  2  0
 26 27  1  0
 27 28  2  0
 12  7  1  0
 18 13  1  0
 28 19  1  0
 27 22  1  0
  4 29  1  0
  4 30  1  0
  8 31  1  0
  8 32  1  0
  9 33  1  6
 10 34  1  0
 11 35  1  0
 11 36  1  0
 12 37  1  1
 14 38  1  0
 15 39  1  0
 16 40  1  0
 17 41  1  0
 18 42  1  0
 20 43  1  0
 21 44  1  0
 23 45  1  0
 24 46  1  0
 25 47  1  0
 26 48  1  0
M  CHG  1   3  -1
M  END
>  <meeko>  (19) 
{"free_energy": -7.19, "intermolecular_energy": -9.28, "internal_energy": -2.08, "cluster_size": 6, "cluster_id": 4, "rank_in_cluster": 6}

$$$$

     RDKit          3D

 48 51  0  0  0  0  0  0  0  0999 V2000
  139.9350   73.7540  222.5700 O   0  0  0  0  0  0  0  0  0  0  0  0
  139.7640   74.6650  221.7180 C   0  0  0  0  0  0  0  0  0  0  0  0
  139.5690   74.2960  220.3480 N   0  0  0  0  0  0  0  0  0  0  0  0
  140.6300   73.9470  219.4110 C   0  0  0  0  0  0  0  0  0  0  0  0
  141.6100   73.0380  220.0890 C   0  0  0  0  0  0  0  0  0  0  0  0
  141.1760   72.0380  220.7220 O   0  0  0  0  0  0  0  0  0  0  0  0
  143.0300   73.2640  219.9970 N   0  0  0  0  0  0  0  0  0  0  0  0
  143.9840   72.2640  219.5420 C   0  0  0  0  0  0  0  0  0  0  0  0
  145.3470   72.9540  219.5620 C   0  0  2  0  0  0  0  0  0  0  0  0
  146.3310   72.0910  220.0670 O   0  0  0  0  0  0  0  0  0  0  0  0
  145.1740   74.1870  220.4530 C   0  0  0  0  0  0  0  0  0  0  0  0
  143.6730   74.4850  220.4670 C   0  0  1  0  0  0  0  0  0  0  0  0
  143.3270   75.6610  219.5750 C   0  0  0  0  0  0  0  0  0  0  0  0
  142.6280   76.7750  220.0770 C   0  0  0  0  0  0  0  0  0  0  0  0
  142.2970   77.8400  219.2350 C   0  0  0  0  0  0  0  0  0  0  0  0
  142.6490   77.8000  217.8830 C   0  0  0  0  0  0  0  0  0  0  0  0
  143.3310   76.6930  217.3710 C   0  0  0  0  0  0  0  0  0  0  0  0
  143.6660   75.6270  218.2110 C   0  0  0  0  0  0  0  0  0  0  0  0
  139.7240   76.0650  222.1780 C   0  0  0  0  0  0  0  0  0  0  0  0
  138.5090   76.7540  222.3120 C   0  0  0  0  0  0  0  0  0  0  0  0
  138.5140   78.0890  222.7240 C   0  0  0  0  0  0  0  0  0  0  0  0
  139.7280   78.7340  222.9840 C   0  0  0  0  0  0  0  0  0  0  0  0
  139.7700   80.0740  223.3960 C   0  0  0  0  0  0  0  0  0  0  0  0
  141.0010   80.6930  223.6370 C   0  0  0  0  0  0  0  0  0  0  0  0
  142.1930   79.9810  223.4660 C   0  0  0  0  0  0  0  0  0  0  0  0
  142.1610   78.6440  223.0550 C   0  0  0  0  0  0  0  0  0  0  0  0
  140.9330   78.0160  222.8140 C   0  0  0  0  0  0  0  0  0  0  0  0
  140.8970   76.7170  222.4140 N   0  0  0  0  0  0  0  0  0  0  0  0
  140.1966   73.4353  218.5390 H   0  0  0  0  0  0  0  0  0  0  0  0
  141.1439   74.8611  219.0789 H   0  0  0  0  0  0  0  0  0  0  0  0
  143.9830   71.3970  220.2190 H   0  0  0  0  0  0  0  0  0  0  0  0
  143.7328   71.8901  218.5385 H   0  0  0  0  0  0  0  0  0  0  0  0
  145.6772   73.2383  218.5520 H   0  0  0  0  0  0  0  0  0  0  0  0
  145.9920   71.7610  220.9410 H   0  0  0  0  0  0  0  0  0  0  0  0
  145.5321   73.9767  221.4716 H   0  0  0  0  0  0  0  0  0  0  0  0
  145.7529   75.0430  220.0760 H   0  0  0  0  0  0  0  0  0  0  0  0
  143.3319   74.7660  221.4743 H   0  0  0  0  0  0  0  0  0  0  0  0
  142.3407   76.8074  221.1383 H   0  0  0  0  0  0  0  0  0  0  0  0
  141.7586   78.7110  219.6368 H   0  0  0  0  0  0  0  0  0  0  0  0
  142.3892   78.6399  217.2219 H   0  0  0  0  0  0  0  0  0  0  0  0
  143.6045   76.6604  216.3060 H   0  0  0  0  0  0  0  0  0  0  0  0
  144.1985   74.7557  217.8020 H   0  0  0  0  0  0  0  0  0  0  0  0
  137.5580   76.2460  222.0939 H   0  0  0  0  0  0  0  0  0  0  0  0
  137.5650   78.6321  222.8438 H   0  0  0  0  0  0  0  0  0  0  0  0
  138.8351   80.6380  223.5296 H   0  0  0  0  0  0  0  0  0  0  0  0
  141.0319   81.7434  223.9621 H   0  0  0  0  0  0  0  0  0  0  0  0
  143.1581   80.4737  223.6552 H   0  0  0  0  0  0  0  0  0  0  0  0
  143.0999   78.0866  222.9213 H   0  0  0  0  0  0  0  0  0  0  0  0
  1  2  2  0
  2  3  1  0
  3  4  1  0
  4  5  1  0
  5  6  2  0
  5  7  1  0
  7  8  1  0
  8  9  1  0
  9 10  1  0
  9 11  1  0
 11 12  1  0
 12 13  1  0
 13 14  2  0
 14 15  1  0
 15 16  2  0
 16 17  1  0
 17 18  2  0
  2 19  1  0
 19 20  2  0
 20 21  1  0
 21 22  2  0
 22 23  1  0
 23 24  2  0
 24 25  1  0
 25 26  2  0
 26 27  1  0
 27 28  2  0
 12  7  1  0
 18 13  1  0
 28 19  1  0
 27 22  1  0
  4 29  1  0
  4 30  1  0
  8 31  1  0
  8 32  1  0
  9 33  1  6
 10 34  1  0
 11 35  1  0
 11 36  1  0
 12 37  1  1
 14 38  1  0
 15 39  1  0
 16 40  1  0
 17 41  1  0
 18 42  1  0
 20 43  1  0
 21 44  1  0
 23 45  1  0
 24 46  1  0
 25 47  1  0
 26 48  1  0
M  CHG  1   3  -1
M  END
>  <meeko>  (20) 
{"free_energy": -7.3, "intermolecular_energy": -9.38, "internal_energy": -2.02, "cluster_size": 6, "cluster_id": 4, "rank_in_cluster": 5}

$$$$
