
     RDKit          3D

 48 51  0  0  0  0  0  0  0  0999 V2000
  141.8680   73.3660  221.0420 O   0  0  0  0  0  0  0  0  0  0  0  0
  141.0050   74.1230  221.5960 C   0  0  0  0  0  0  0  0  0  0  0  0
  139.8940   73.6150  222.3010 N   0  0  0  0  0  0  0  0  0  0  0  0
  139.7170   72.1740  222.4050 C   0  0  0  0  0  0  0  0  0  0  0  0
  138.3140   71.8820  222.7740 C   0  0  0  0  0  0  0  0  0  0  0  0
  137.4400   72.7800  222.6630 O   0  0  0  0  0  0  0  0  0  0  0  0
  137.8900   70.6230  223.2550 N   0  0  0  0  0  0  0  0  0  0  0  0
  136.6270   70.2490  223.8950 C   0  0  0  0  0  0  0  0  0  0  0  0
  136.2410   69.0820  223.0110 C   0  0  0  0  0  0  0  0  0  0  0  0
  137.5510   68.3660  222.7940 C   0  0  0  0  0  0  0  0  0  0  0  0
  138.6220   69.3360  223.2350 C   0  0  2  0  0  0  0  0  0  0  0  0
  139.2050   69.0650  224.5460 C   0  0  0  0  0  0  0  0  0  0  0  0
  139.2470   67.8620  225.1870 C   0  0  0  0  0  0  0  0  0  0  0  0
  139.8120   67.6800  226.4460 C   0  0  0  0  0  0  0  0  0  0  0  0
  140.3730   68.7440  227.1190 C   0  0  0  0  0  0  0  0  0  0  0  0
  141.0740   68.4790  228.6960 Cl  0  0  0  0  0  0  0  0  0  0  0  0
  140.3440   69.9670  226.4940 C   0  0  0  0  0  0  0  0  0  0  0  0
  139.7760   70.1470  225.2320 C   0  0  0  0  0  0  0  0  0  0  0  0
  141.1880   75.5710  221.4890 C   0  0  0  0  0  0  0  0  0  0  0  0
  141.6740   76.1450  220.3320 C   0  0  0  0  0  0  0  0  0  0  0  0
  141.8650   77.4990  220.1790 C   0  0  0  0  0  0  0  0  0  0  0  0
  141.5550   78.3290  221.2340 C   0  0  0  0  0  0  0  0  0  0  0  0
  141.7450   79.6880  221.0830 C   0  0  0  0  0  0  0  0  0  0  0  0
  141.4380   80.5310  222.1340 C   0  0  0  0  0  0  0  0  0  0  0  0
  141.6260   81.8630  221.9790 F   0  0  0  0  0  0  0  0  0  0  0  0
  140.9510   79.9600  223.2910 C   0  0  0  0  0  0  0  0  0  0  0  0
  140.7610   78.6030  223.4470 C   0  0  0  0  0  0  0  0  0  0  0  0
  141.0670   77.7600  222.3950 C   0  0  0  0  0  0  0  0  0  0  0  0
  140.8950   76.4100  222.5010 N   0  0  0  0  0  0  0  0  0  0  0  0
  139.1870   74.2470  222.7550 H   0  0  0  0  0  0  0  0  0  0  0  0
  139.9486   71.7040  221.4378 H   0  0  0  0  0  0  0  0  0  0  0  0
  140.3929   71.7730  223.1746 H   0  0  0  0  0  0  0  0  0  0  0  0
  136.7713   69.9421  224.9414 H   0  0  0  0  0  0  0  0  0  0  0  0
  135.8795   71.0529  223.9654 H   0  0  0  0  0  0  0  0  0  0  0  0
  135.5133   68.4290  223.5151 H   0  0  0  0  0  0  0  0  0  0  0  0
  135.7586   69.3927  222.0725 H   0  0  0  0  0  0  0  0  0  0  0  0
  137.5917   67.4481  223.3988 H   0  0  0  0  0  0  0  0  0  0  0  0
  137.6815   68.0653  221.7440 H   0  0  0  0  0  0  0  0  0  0  0  0
  139.4926   69.2910  222.5642 H   0  0  0  0  0  0  0  0  0  0  0  0
  138.8106   66.9879  224.6815 H   0  0  0  0  0  0  0  0  0  0  0  0
  139.8108   66.6811  226.9066 H   0  0  0  0  0  0  0  0  0  0  0  0
  140.7841   70.8352  227.0064 H   0  0  0  0  0  0  0  0  0  0  0  0
  139.7761   71.1459  224.7714 H   0  0  0  0  0  0  0  0  0  0  0  0
  141.9218   75.4852  219.4874 H   0  0  0  0  0  0  0  0  0  0  0  0
  142.2561   77.9092  219.2363 H   0  0  0  0  0  0  0  0  0  0  0  0
  142.1356   80.0945  220.1384 H   0  0  0  0  0  0  0  0  0  0  0  0
  140.7010   80.6216  224.1335 H   0  0  0  0  0  0  0  0  0  0  0  0
  140.3723   78.1981  224.3930 H   0  0  0  0  0  0  0  0  0  0  0  0
  1  2  2  0
  2  3  1  0
  3  4  1  0
  4  5  1  0
  5  6  2  0
  5  7  1  0
  7  8  1  0
  8  9  1  0
  9 10  1  0
 10 11  1  0
 11 12  1  0
 12 13  2  0
 13 14  1  0
 14 15  2  0
 15 16  1  0
 15 17  1  0
 17 18  2  0
  2 19  1  0
 19 20  2  0
 20 21  1  0
 21 22  2  0
 22 23  1  0
 23 24  2  0
 24 25  1  0
 24 26  1  0
 26 27  2  0
 27 28  1  0
 28 29  2  0
 11  7  1  0
 18 12  1  0
 29 19  1  0
 28 22  1  0
  3 30  1  0
  4 31  1  0
  4 32  1  0
  8 33  1  0
  8 34  1  0
  9 35  1  0
  9 36  1  0
 10 37  1  0
 10 38  1  0
 11 39  1  6
 13 40  1  0
 14 41  1  0
 17 42  1  0
 18 43  1  0
 20 44  1  0
 21 45  1  0
 23 46  1  0
 26 47  1  0
 27 48  1  0
M  END
>  <meeko>  (1) 
{"free_energy": -8.08, "intermolecular_energy": -9.57, "internal_energy": -1.8, "cluster_size": 2, "cluster_id": 2, "rank_in_cluster": 2}

$$$$

     RDKit          3D

 48 51  0  0  0  0  0  0  0  0999 V2000
  137.1740   76.1220  221.9760 O   0  0  0  0  0  0  0  0  0  0  0  0
  138.4060   76.1130  222.3040 C   0  0  0  0  0  0  0  0  0  0  0  0
  139.1820   74.9350  222.3040 N   0  0  0  0  0  0  0  0  0  0  0  0
  138.5600   73.6770  221.9170 C   0  0  0  0  0  0  0  0  0  0  0  0
  139.2770   72.5590  222.5700 C   0  0  0  0  0  0  0  0  0  0  0  0
  140.5020   72.6720  222.8310 O   0  0  0  0  0  0  0  0  0  0  0  0
  138.6490   71.3440  222.9270 N   0  0  0  0  0  0  0  0  0  0  0  0
  137.2810   71.1050  223.3900 C   0  0  0  0  0  0  0  0  0  0  0  0
  136.8710   70.0340  222.4030 C   0  0  0  0  0  0  0  0  0  0  0  0
  138.1030   69.1680  222.3020 C   0  0  0  0  0  0  0  0  0  0  0  0
  139.2190   69.9780  222.9200 C   0  0  2  0  0  0  0  0  0  0  0  0
  139.5980   69.5820  224.2730 C   0  0  0  0  0  0  0  0  0  0  0  0
  139.2400   68.4340  224.9180 C   0  0  0  0  0  0  0  0  0  0  0  0
  139.6320   68.1270  226.2180 C   0  0  0  0  0  0  0  0  0  0  0  0
  140.4250   69.0000  226.9310 C   0  0  0  0  0  0  0  0  0  0  0  0
  140.8980   68.5810  228.5600 Cl  0  0  0  0  0  0  0  0  0  0  0  0
  140.8000   70.1630  226.3040 C   0  0  0  0  0  0  0  0  0  0  0  0
  140.4050   70.4690  225.0010 C   0  0  0  0  0  0  0  0  0  0  0  0
  139.0260   77.3810  222.6920 C   0  0  0  0  0  0  0  0  0  0  0  0
  138.2590   78.4720  223.0440 C   0  0  0  0  0  0  0  0  0  0  0  0
  138.7890   79.6850  223.4170 C   0  0  0  0  0  0  0  0  0  0  0  0
  140.1610   79.8220  223.4410 C   0  0  0  0  0  0  0  0  0  0  0  0
  140.6970   81.0390  223.8140 C   0  0  0  0  0  0  0  0  0  0  0  0
  142.0700   81.1880  223.8430 C   0  0  0  0  0  0  0  0  0  0  0  0
  142.5890   82.3830  224.2100 F   0  0  0  0  0  0  0  0  0  0  0  0
  142.8400   80.0990  223.4920 C   0  0  0  0  0  0  0  0  0  0  0  0
  142.3090   78.8820  223.1170 C   0  0  0  0  0  0  0  0  0  0  0  0
  140.9340   78.7330  223.0900 C   0  0  0  0  0  0  0  0  0  0  0  0
  140.3620   77.5480  222.7260 N   0  0  0  0  0  0  0  0  0  0  0  0
  140.1970   74.9360  222.5760 H   0  0  0  0  0  0  0  0  0  0  0  0
  137.5068   73.6742  222.2345 H   0  0  0  0  0  0  0  0  0  0  0  0
  138.6101   73.5605  220.8243 H   0  0  0  0  0  0  0  0  0  0  0  0
  137.2561   70.7393  224.4271 H   0  0  0  0  0  0  0  0  0  0  0  0
  136.6321   71.9929  223.4161 H   0  0  0  0  0  0  0  0  0  0  0  0
  136.0135   69.4575  222.7802 H   0  0  0  0  0  0  0  0  0  0  0  0
  136.5495   70.4415  221.4332 H   0  0  0  0  0  0  0  0  0  0  0  0
  137.9585   68.2282  222.8552 H   0  0  0  0  0  0  0  0  0  0  0  0
  138.3257   68.8959  221.2597 H   0  0  0  0  0  0  0  0  0  0  0  0
  140.1541   69.8529  222.3544 H   0  0  0  0  0  0  0  0  0  0  0  0
  138.6072   67.7118  224.3814 H   0  0  0  0  0  0  0  0  0  0  0  0
  139.3070   67.1824  226.6787 H   0  0  0  0  0  0  0  0  0  0  0  0
  141.4341   70.8785  226.8481 H   0  0  0  0  0  0  0  0  0  0  0  0
  140.7293   71.4140  224.5407 H   0  0  0  0  0  0  0  0  0  0  0  0
  137.1643   78.3662  223.0254 H   0  0  0  0  0  0  0  0  0  0  0  0
  138.1342   80.5258  223.6897 H   0  0  0  0  0  0  0  0  0  0  0  0
  140.0394   81.8783  224.0843 H   0  0  0  0  0  0  0  0  0  0  0  0
  143.9346   80.2063  223.5121 H   0  0  0  0  0  0  0  0  0  0  0  0
  142.9679   78.0445  222.8441 H   0  0  0  0  0  0  0  0  0  0  0  0
  1  2  2  0
  2  3  1  0
  3  4  1  0
  4  5  1  0
  5  6  2  0
  5  7  1  0
  7  8  1  0
  8  9  1  0
  9 10  1  0
 10 11  1  0
 11 12  1  0
 12 13  2  0
 13 14  1  0
 14 15  2  0
 15 16  1  0
 15 17  1  0
 17 18  2  0
  2 19  1  0
 19 20  2  0
 20 21  1  0
 21 22  2  0
 22 23  1  0
 23 24  2  0
 24 25  1  0
 24 26  1  0
 26 27  2  0
 27 28  1  0
 28 29  2  0
 11  7  1  0
 18 12  1  0
 29 19  1  0
 28 22  1  0
  3 30  1  0
  4 31  1  0
  4 32  1  0
  8 33  1  0
  8 34  1  0
  9 35  1  0
  9 36  1  0
 10 37  1  0
 10 38  1  0
 11 39  1  6
 13 40  1  0
 14 41  1  0
 17 42  1  0
 18 43  1  0
 20 44  1  0
 21 45  1  0
 23 46  1  0
 26 47  1  0
 27 48  1  0
M  END
>  <meeko>  (2) 
{"free_energy": -8.09, "intermolecular_energy": -9.58, "internal_energy": -1.85, "cluster_size": 2, "cluster_id": 2, "rank_in_cluster": 1}

$$$$

     RDKit          3D

 48 51  0  0  0  0  0  0  0  0999 V2000
  138.4410   70.6460  221.7960 O   0  0  0  0  0  0  0  0  0  0  0  0
  138.9930   71.2150  222.7940 C   0  0  0  0  0  0  0  0  0  0  0  0
  139.3240   72.5860  222.7970 N   0  0  0  0  0  0  0  0  0  0  0  0
  139.0290   73.3890  221.6200 C   0  0  0  0  0  0  0  0  0  0  0  0
  139.8460   74.6220  221.6560 C   0  0  0  0  0  0  0  0  0  0  0  0
  141.0740   74.5490  221.9230 O   0  0  0  0  0  0  0  0  0  0  0  0
  139.3150   75.9060  221.4010 N   0  0  0  0  0  0  0  0  0  0  0  0
  139.2180   76.6380  220.1360 C   0  0  0  0  0  0  0  0  0  0  0  0
  137.7430   76.9720  220.1590 C   0  0  0  0  0  0  0  0  0  0  0  0
  137.4950   77.3450  221.5990 C   0  0  0  0  0  0  0  0  0  0  0  0
  138.7070   76.8580  222.3580 C   0  0  2  0  0  0  0  0  0  0  0  0
  139.6700   77.8930  222.7230 C   0  0  0  0  0  0  0  0  0  0  0  0
  141.0300   77.7870  222.6950 C   0  0  0  0  0  0  0  0  0  0  0  0
  141.8890   78.8160  223.0680 C   0  0  0  0  0  0  0  0  0  0  0  0
  141.3850   80.0260  223.4960 C   0  0  0  0  0  0  0  0  0  0  0  0
  142.4930   81.2950  223.9550 Cl  0  0  0  0  0  0  0  0  0  0  0  0
  140.0180   80.1580  223.5310 C   0  0  0  0  0  0  0  0  0  0  0  0
  139.1580   79.1240  223.1570 C   0  0  0  0  0  0  0  0  0  0  0  0
  139.2870   70.4020  223.9750 C   0  0  0  0  0  0  0  0  0  0  0  0
  138.9470   69.0650  224.0250 C   0  0  0  0  0  0  0  0  0  0  0  0
  139.2000   68.2570  225.1080 C   0  0  0  0  0  0  0  0  0  0  0  0
  139.8270   68.8080  226.2060 C   0  0  0  0  0  0  0  0  0  0  0  0
  140.0820   67.9990  227.2950 C   0  0  0  0  0  0  0  0  0  0  0  0
  140.7100   68.5390  228.4020 C   0  0  0  0  0  0  0  0  0  0  0  0
  140.9580   67.7410  229.4660 F   0  0  0  0  0  0  0  0  0  0  0  0
  141.0510   69.8750  228.3550 C   0  0  0  0  0  0  0  0  0  0  0  0
  140.7970   70.6860  227.2690 C   0  0  0  0  0  0  0  0  0  0  0  0
  140.1700   70.1450  226.1620 C   0  0  0  0  0  0  0  0  0  0  0  0
  139.8970   70.9090  225.0640 N   0  0  0  0  0  0  0  0  0  0  0  0
  139.7790   73.0470  223.6250 H   0  0  0  0  0  0  0  0  0  0  0  0
  139.2691   72.8147  220.7130 H   0  0  0  0  0  0  0  0  0  0  0  0
  137.9612   73.6529  221.6104 H   0  0  0  0  0  0  0  0  0  0  0  0
  139.8443   77.5423  220.1352 H   0  0  0  0  0  0  0  0  0  0  0  0
  139.5617   76.0883  219.2473 H   0  0  0  0  0  0  0  0  0  0  0  0
  137.5193   77.8154  219.4892 H   0  0  0  0  0  0  0  0  0  0  0  0
  137.1081   76.1429  219.8133 H   0  0  0  0  0  0  0  0  0  0  0  0
  137.3904   78.4353  221.7009 H   0  0  0  0  0  0  0  0  0  0  0  0
  136.5667   76.8962  221.9822 H   0  0  0  0  0  0  0  0  0  0  0  0
  138.4166   76.4373  223.3320 H   0  0  0  0  0  0  0  0  0  0  0  0
  141.4711   76.8368  222.3595 H   0  0  0  0  0  0  0  0  0  0  0  0
  142.9773   78.6633  223.0211 H   0  0  0  0  0  0  0  0  0  0  0  0
  139.5857   81.1125  223.8657 H   0  0  0  0  0  0  0  0  0  0  0  0
  138.0696   79.2763  223.2031 H   0  0  0  0  0  0  0  0  0  0  0  0
  138.4467   68.6223  223.1511 H   0  0  0  0  0  0  0  0  0  0  0  0
  138.9093   67.1962  225.0991 H   0  0  0  0  0  0  0  0  0  0  0  0
  139.7894   66.9387  227.2822 H   0  0  0  0  0  0  0  0  0  0  0  0
  141.5516   70.3163  229.2294 H   0  0  0  0  0  0  0  0  0  0  0  0
  141.0886   71.7465  227.2833 H   0  0  0  0  0  0  0  0  0  0  0  0
  1  2  2  0
  2  3  1  0
  3  4  1  0
  4  5  1  0
  5  6  2  0
  5  7  1  0
  7  8  1  0
  8  9  1  0
  9 10  1  0
 10 11  1  0
 11 12  1  0
 12 13  2  0
 13 14  1  0
 14 15  2  0
 15 16  1  0
 15 17  1  0
 17 18  2  0
  2 19  1  0
 19 20  2  0
 20 21  1  0
 21 22  2  0
 22 23  1  0
 23 24  2  0
 24 25  1  0
 24 26  1  0
 26 27  2  0
 27 28  1  0
 28 29  2  0
 11  7  1  0
 18 12  1  0
 29 19  1  0
 28 22  1  0
  3 30  1  0
  4 31  1  0
  4 32  1  0
  8 33  1  0
  8 34  1  0
  9 35  1  0
  9 36  1  0
 10 37  1  0
 10 38  1  0
 11 39  1  1
 13 40  1  0
 14 41  1  0
 17 42  1  0
 18 43  1  0
 20 44  1  0
 21 45  1  0
 23 46  1  0
 26 47  1  0
 27 48  1  0
M  END
>  <meeko>  (3) 
{"free_energy": -8.83, "intermolecular_energy": -10.33, "internal_energy": -1.56, "cluster_size": 18, "cluster_id": 1, "rank_in_cluster": 14}

$$$$

     RDKit          3D

 48 51  0  0  0  0  0  0  0  0999 V2000
  140.8790   72.1350  221.7190 O   0  0  0  0  0  0  0  0  0  0  0  0
  139.9080   72.1510  222.5460 C   0  0  0  0  0  0  0  0  0  0  0  0
  138.7870   72.9910  222.3820 N   0  0  0  0  0  0  0  0  0  0  0  0
  138.7280   73.8790  221.2300 C   0  0  0  0  0  0  0  0  0  0  0  0
  139.2340   75.2140  221.6190 C   0  0  0  0  0  0  0  0  0  0  0  0
  138.5790   75.9170  222.4310 O   0  0  0  0  0  0  0  0  0  0  0  0
  140.4390   75.7570  221.1190 N   0  0  0  0  0  0  0  0  0  0  0  0
  141.8040   75.2350  221.2130 C   0  0  0  0  0  0  0  0  0  0  0  0
  142.1810   75.2720  219.7480 C   0  0  0  0  0  0  0  0  0  0  0  0
  141.5960   76.5790  219.2730 C   0  0  0  0  0  0  0  0  0  0  0  0
  140.6370   77.0120  220.3570 C   0  0  2  0  0  0  0  0  0  0  0  0
  141.1280   78.0660  221.2390 C   0  0  0  0  0  0  0  0  0  0  0  0
  141.7730   79.2090  220.8640 C   0  0  0  0  0  0  0  0  0  0  0  0
  142.2240   80.1680  221.7650 C   0  0  0  0  0  0  0  0  0  0  0  0
  142.0320   79.9990  223.1190 C   0  0  0  0  0  0  0  0  0  0  0  0
  142.6110   81.2250  224.2200 Cl  0  0  0  0  0  0  0  0  0  0  0  0
  141.3840   78.8570  223.5230 C   0  0  0  0  0  0  0  0  0  0  0  0
  140.9330   77.8950  222.6170 C   0  0  0  0  0  0  0  0  0  0  0  0
  139.9730   71.2560  223.7020 C   0  0  0  0  0  0  0  0  0  0  0  0
  139.5300   69.9520  223.6210 C   0  0  0  0  0  0  0  0  0  0  0  0
  139.5680   69.0700  224.6760 C   0  0  0  0  0  0  0  0  0  0  0  0
  140.0750   69.5090  225.8800 C   0  0  0  0  0  0  0  0  0  0  0  0
  140.1150   68.6260  226.9410 C   0  0  0  0  0  0  0  0  0  0  0  0
  140.6210   69.0540  228.1540 C   0  0  0  0  0  0  0  0  0  0  0  0
  140.6570   68.1840  229.1900 F   0  0  0  0  0  0  0  0  0  0  0  0
  141.0650   70.3570  228.2370 C   0  0  0  0  0  0  0  0  0  0  0  0
  141.0270   71.2430  227.1810 C   0  0  0  0  0  0  0  0  0  0  0  0
  140.5210   70.8140  225.9670 C   0  0  0  0  0  0  0  0  0  0  0  0
  140.4620   71.6540  224.8920 N   0  0  0  0  0  0  0  0  0  0  0  0
  137.9910   72.9980  223.0690 H   0  0  0  0  0  0  0  0  0  0  0  0
  139.3498   73.4717  220.4191 H   0  0  0  0  0  0  0  0  0  0  0  0
  137.6880   73.9647  220.8820 H   0  0  0  0  0  0  0  0  0  0  0  0
  142.4516   75.8840  221.8208 H   0  0  0  0  0  0  0  0  0  0  0  0
  141.8994   74.2525  221.6985 H   0  0  0  0  0  0  0  0  0  0  0  0
  143.2737   75.2601  219.6217 H   0  0  0  0  0  0  0  0  0  0  0  0
  141.8085   74.4034  219.1852 H   0  0  0  0  0  0  0  0  0  0  0  0
  142.3894   77.3292  219.1400 H   0  0  0  0  0  0  0  0  0  0  0  0
  141.0908   76.4701  218.3020 H   0  0  0  0  0  0  0  0  0  0  0  0
  139.7300   77.4576  219.9226 H   0  0  0  0  0  0  0  0  0  0  0  0
  141.9455   79.3811  219.7913 H   0  0  0  0  0  0  0  0  0  0  0  0
  142.7374   81.0674  221.3941 H   0  0  0  0  0  0  0  0  0  0  0  0
  141.2145   78.6948  224.5977 H   0  0  0  0  0  0  0  0  0  0  0  0
  140.4202   76.9951  222.9875 H   0  0  0  0  0  0  0  0  0  0  0  0
  139.1247   69.5986  222.6614 H   0  0  0  0  0  0  0  0  0  0  0  0
  139.2024   68.0389  224.5613 H   0  0  0  0  0  0  0  0  0  0  0  0
  139.7490   67.5955  226.8224 H   0  0  0  0  0  0  0  0  0  0  0  0
  141.4712   70.7084  229.1970 H   0  0  0  0  0  0  0  0  0  0  0  0
  141.3928   72.2733  227.3019 H   0  0  0  0  0  0  0  0  0  0  0  0
  1  2  2  0
  2  3  1  0
  3  4  1  0
  4  5  1  0
  5  6  2  0
  5  7  1  0
  7  8  1  0
  8  9  1  0
  9 10  1  0
 10 11  1  0
 11 12  1  0
 12 13  2  0
 13 14  1  0
 14 15  2  0
 15 16  1  0
 15 17  1  0
 17 18  2  0
  2 19  1  0
 19 20  2  0
 20 21  1  0
 21 22  2  0
 22 23  1  0
 23 24  2  0
 24 25  1  0
 24 26  1  0
 26 27  2  0
 27 28  1  0
 28 29  2  0
 11  7  1  0
 18 12  1  0
 29 19  1  0
 28 22  1  0
  3 30  1  0
  4 31  1  0
  4 32  1  0
  8 33  1  0
  8 34  1  0
  9 35  1  0
  9 36  1  0
 10 37  1  0
 10 38  1  0
 11 39  1  6
 13 40  1  0
 14 41  1  0
 17 42  1  0
 18 43  1  0
 20 44  1  0
 21 45  1  0
 23 46  1  0
 26 47  1  0
 27 48  1  0
M  END
>  <meeko>  (4) 
{"free_energy": -9.11, "intermolecular_energy": -10.6, "internal_energy": -1.34, "cluster_size": 18, "cluster_id": 1, "rank_in_cluster": 4}

$$$$

     RDKit          3D

 48 51  0  0  0  0  0  0  0  0999 V2000
  140.0650   70.6770  221.3790 O   0  0  0  0  0  0  0  0  0  0  0  0
  139.9600   71.3010  222.4850 C   0  0  0  0  0  0  0  0  0  0  0  0
  139.8430   72.7050  222.5550 N   0  0  0  0  0  0  0  0  0  0  0  0
  139.8440   73.4780  221.3220 C   0  0  0  0  0  0  0  0  0  0  0  0
  139.9970   74.9140  221.6490 C   0  0  0  0  0  0  0  0  0  0  0  0
  139.3630   75.4030  222.6190 O   0  0  0  0  0  0  0  0  0  0  0  0
  140.8330   75.7860  220.9170 N   0  0  0  0  0  0  0  0  0  0  0  0
  142.2190   75.5990  220.4820 C   0  0  0  0  0  0  0  0  0  0  0  0
  142.0560   75.9020  219.0080 C   0  0  0  0  0  0  0  0  0  0  0  0
  141.1120   77.0780  218.9990 C   0  0  0  0  0  0  0  0  0  0  0  0
  140.5200   77.1330  220.3880 C   0  0  2  0  0  0  0  0  0  0  0  0
  141.0790   78.1610  221.2610 C   0  0  0  0  0  0  0  0  0  0  0  0
  141.6760   79.3250  220.8730 C   0  0  0  0  0  0  0  0  0  0  0  0
  142.1980   80.2570  221.7650 C   0  0  0  0  0  0  0  0  0  0  0  0
  142.1300   80.0350  223.1240 C   0  0  0  0  0  0  0  0  0  0  0  0
  142.7940   81.2270  224.2140 Cl  0  0  0  0  0  0  0  0  0  0  0  0
  141.5320   78.8710  223.5410 C   0  0  0  0  0  0  0  0  0  0  0  0
  141.0110   77.9370  222.6440 C   0  0  0  0  0  0  0  0  0  0  0  0
  139.9590   70.5180  223.7220 C   0  0  0  0  0  0  0  0  0  0  0  0
  139.3840   69.2640  223.7730 C   0  0  0  0  0  0  0  0  0  0  0  0
  139.3560   68.4870  224.9070 C   0  0  0  0  0  0  0  0  0  0  0  0
  139.9320   68.9840  226.0570 C   0  0  0  0  0  0  0  0  0  0  0  0
  139.9050   68.2060  227.1980 C   0  0  0  0  0  0  0  0  0  0  0  0
  140.4790   68.6930  228.3570 C   0  0  0  0  0  0  0  0  0  0  0  0
  140.4500   67.9250  229.4710 F   0  0  0  0  0  0  0  0  0  0  0  0
  141.0540   69.9450  228.3090 C   0  0  0  0  0  0  0  0  0  0  0  0
  141.0820   70.7260  227.1720 C   0  0  0  0  0  0  0  0  0  0  0  0
  140.5090   70.2380  226.0120 C   0  0  0  0  0  0  0  0  0  0  0  0
  140.5120   70.9740  224.8620 N   0  0  0  0  0  0  0  0  0  0  0  0
  139.7560   73.2120  223.4710 H   0  0  0  0  0  0  0  0  0  0  0  0
  140.6805   73.1543  220.6853 H   0  0  0  0  0  0  0  0  0  0  0  0
  138.8970   73.3196  220.7852 H   0  0  0  0  0  0  0  0  0  0  0  0
  142.9032   76.3060  220.9739 H   0  0  0  0  0  0  0  0  0  0  0  0
  142.6561   74.6167  220.7144 H   0  0  0  0  0  0  0  0  0  0  0  0
  143.0208   76.1674  218.5510 H   0  0  0  0  0  0  0  0  0  0  0  0
  141.6810   75.0441  218.4306 H   0  0  0  0  0  0  0  0  0  0  0  0
  141.6576   78.0069  218.7769 H   0  0  0  0  0  0  0  0  0  0  0  0
  140.3343   76.9704  218.2286 H   0  0  0  0  0  0  0  0  0  0  0  0
  139.4524   77.3950  220.3491 H   0  0  0  0  0  0  0  0  0  0  0  0
  141.7486   79.5384  219.7963 H   0  0  0  0  0  0  0  0  0  0  0  0
  142.6674   81.1758  221.3837 H   0  0  0  0  0  0  0  0  0  0  0  0
  141.4611   78.6677  224.6197 H   0  0  0  0  0  0  0  0  0  0  0  0
  140.5430   77.0173  223.0250 H   0  0  0  0  0  0  0  0  0  0  0  0
  138.9235   68.8650  222.8572 H   0  0  0  0  0  0  0  0  0  0  0  0
  138.8854   67.4928  224.8971 H   0  0  0  0  0  0  0  0  0  0  0  0
  139.4331   67.2125  227.1843 H   0  0  0  0  0  0  0  0  0  0  0  0
  141.5147   70.3422  229.2255 H   0  0  0  0  0  0  0  0  0  0  0  0
  141.5523   71.7203  227.1880 H   0  0  0  0  0  0  0  0  0  0  0  0
  1  2  2  0
  2  3  1  0
  3  4  1  0
  4  5  1  0
  5  6  2  0
  5  7  1  0
  7  8  1  0
  8  9  1  0
  9 10  1  0
 10 11  1  0
 11 12  1  0
 12 13  2  0
 13 14  1  0
 14 15  2  0
 15 16  1  0
 15 17  1  0
 17 18  2  0
  2 19  1  0
 19 20  2  0
 20 21  1  0
 21 22  2  0
 22 23  1  0
 23 24  2  0
 24 25  1  0
 24 26  1  0
 26 27  2  0
 27 28  1  0
 28 29  2  0
 11  7  1  0
 18 12  1  0
 29 19  1  0
 28 22  1  0
  3 30  1  0
  4 31  1  0
  4 32  1  0
  8 33  1  0
  8 34  1  0
  9 35  1  0
  9 36  1  0
 10 37  1  0
 10 38  1  0
 11 39  1  6
 13 40  1  0
 14 41  1  0
 17 42  1  0
 18 43  1  0
 20 44  1  0
 21 45  1  0
 23 46  1  0
 26 47  1  0
 27 48  1  0
M  END
>  <meeko>  (5) 
{"free_energy": -8.99, "intermolecular_energy": -10.48, "internal_energy": -1.66, "cluster_size": 18, "cluster_id": 1, "rank_in_cluster": 7}

$$$$

     RDKit          3D

 48 51  0  0  0  0  0  0  0  0999 V2000
  140.1740   70.6950  221.3990 O   0  0  0  0  0  0  0  0  0  0  0  0
  140.0040   71.3160  222.5000 C   0  0  0  0  0  0  0  0  0  0  0  0
  139.8420   72.7160  222.5630 N   0  0  0  0  0  0  0  0  0  0  0  0
  139.8700   73.4890  221.3310 C   0  0  0  0  0  0  0  0  0  0  0  0
  140.0150   74.9240  221.6610 C   0  0  0  0  0  0  0  0  0  0  0  0
  139.3840   75.4060  222.6370 O   0  0  0  0  0  0  0  0  0  0  0  0
  140.8400   75.8050  220.9260 N   0  0  0  0  0  0  0  0  0  0  0  0
  142.2250   75.6300  220.4840 C   0  0  0  0  0  0  0  0  0  0  0  0
  142.0520   75.9330  219.0110 C   0  0  0  0  0  0  0  0  0  0  0  0
  141.0980   77.1010  219.0080 C   0  0  0  0  0  0  0  0  0  0  0  0
  140.5130   77.1500  220.4000 C   0  0  2  0  0  0  0  0  0  0  0  0
  141.0670   78.1810  221.2720 C   0  0  0  0  0  0  0  0  0  0  0  0
  141.6530   79.3500  220.8820 C   0  0  0  0  0  0  0  0  0  0  0  0
  142.1710   80.2850  221.7730 C   0  0  0  0  0  0  0  0  0  0  0  0
  142.1120   80.0620  223.1320 C   0  0  0  0  0  0  0  0  0  0  0  0
  142.7710   81.2590  224.2200 Cl  0  0  0  0  0  0  0  0  0  0  0  0
  141.5250   78.8920  223.5500 C   0  0  0  0  0  0  0  0  0  0  0  0
  141.0070   77.9550  222.6550 C   0  0  0  0  0  0  0  0  0  0  0  0
  139.9780   70.5330  223.7360 C   0  0  0  0  0  0  0  0  0  0  0  0
  139.3820   69.2890  223.7800 C   0  0  0  0  0  0  0  0  0  0  0  0
  139.3290   68.5120  224.9140 C   0  0  0  0  0  0  0  0  0  0  0  0
  139.9000   68.9990  226.0710 C   0  0  0  0  0  0  0  0  0  0  0  0
  139.8480   68.2220  227.2110 C   0  0  0  0  0  0  0  0  0  0  0  0
  140.4170   68.6980  228.3760 C   0  0  0  0  0  0  0  0  0  0  0  0
  140.3640   67.9310  229.4900 F   0  0  0  0  0  0  0  0  0  0  0  0
  141.0140   69.9410  228.3350 C   0  0  0  0  0  0  0  0  0  0  0  0
  141.0670   70.7210  227.1990 C   0  0  0  0  0  0  0  0  0  0  0  0
  140.4980   70.2430  226.0320 C   0  0  0  0  0  0  0  0  0  0  0  0
  140.5260   70.9790  224.8830 N   0  0  0  0  0  0  0  0  0  0  0  0
  139.7030   73.2190  223.4750 H   0  0  0  0  0  0  0  0  0  0  0  0
  140.7206   73.1657  220.7129 H   0  0  0  0  0  0  0  0  0  0  0  0
  138.9351   73.3303  220.7735 H   0  0  0  0  0  0  0  0  0  0  0  0
  142.9058   76.3422  220.9731 H   0  0  0  0  0  0  0  0  0  0  0  0
  142.6715   74.6512  220.7133 H   0  0  0  0  0  0  0  0  0  0  0  0
  143.0121   76.2070  218.5494 H   0  0  0  0  0  0  0  0  0  0  0  0
  141.6814   75.0725  218.4347 H   0  0  0  0  0  0  0  0  0  0  0  0
  141.6346   78.0347  218.7837 H   0  0  0  0  0  0  0  0  0  0  0  0
  140.3171   76.9873  218.2416 H   0  0  0  0  0  0  0  0  0  0  0  0
  139.4432   77.4039  220.3661 H   0  0  0  0  0  0  0  0  0  0  0  0
  141.7195   79.5648  219.8052 H   0  0  0  0  0  0  0  0  0  0  0  0
  142.6306   81.2082  221.3903 H   0  0  0  0  0  0  0  0  0  0  0  0
  141.4611   78.6866  224.6288 H   0  0  0  0  0  0  0  0  0  0  0  0
  140.5478   77.0314  223.0373 H   0  0  0  0  0  0  0  0  0  0  0  0
  138.9249   68.8979  222.8591 H   0  0  0  0  0  0  0  0  0  0  0  0
  138.8426   67.5255  224.8983 H   0  0  0  0  0  0  0  0  0  0  0  0
  139.3597   67.2365  227.1917 H   0  0  0  0  0  0  0  0  0  0  0  0
  141.4716   70.3302  229.2565 H   0  0  0  0  0  0  0  0  0  0  0  0
  141.5538   71.7072  227.2204 H   0  0  0  0  0  0  0  0  0  0  0  0
  1  2  2  0
  2  3  1  0
  3  4  1  0
  4  5  1  0
  5  6  2  0
  5  7  1  0
  7  8  1  0
  8  9  1  0
  9 10  1  0
 10 11  1  0
 11 12  1  0
 12 13  2  0
 13 14  1  0
 14 15  2  0
 15 16  1  0
 15 17  1  0
 17 18  2  0
  2 19  1  0
 19 20  2  0
 20 21  1  0
 21 22  2  0
 22 23  1  0
 23 24  2  0
 24 25  1  0
 24 26  1  0
 26 27  2  0
 27 28  1  0
 28 29  2  0
 11  7  1  0
 18 12  1  0
 29 19  1  0
 28 22  1  0
  3 30  1  0
  4 31  1  0
  4 32  1  0
  8 33  1  0
  8 34  1  0
  9 35  1  0
  9 36  1  0
 10 37  1  0
 10 38  1  0
 11 39  1  6
 13 40  1  0
 14 41  1  0
 17 42  1  0
 18 43  1  0
 20 44  1  0
 21 45  1  0
 23 46  1  0
 26 47  1  0
 27 48  1  0
M  END
>  <meeko>  (6) 
{"free_energy": -8.99, "intermolecular_energy": -10.48, "internal_energy": -1.67, "cluster_size": 18, "cluster_id": 1, "rank_in_cluster": 8}

$$$$

     RDKit          3D

 48 51  0  0  0  0  0  0  0  0999 V2000
  140.1720   70.6820  221.3830 O   0  0  0  0  0  0  0  0  0  0  0  0
  139.9620   71.2970  222.4800 C   0  0  0  0  0  0  0  0  0  0  0  0
  139.7540   72.6910  222.5400 N   0  0  0  0  0  0  0  0  0  0  0  0
  139.7800   73.4650  221.3080 C   0  0  0  0  0  0  0  0  0  0  0  0
  139.9530   74.8970  221.6370 C   0  0  0  0  0  0  0  0  0  0  0  0
  139.3180   75.3960  222.6020 O   0  0  0  0  0  0  0  0  0  0  0  0
  140.8100   75.7570  220.9140 N   0  0  0  0  0  0  0  0  0  0  0  0
  142.1990   75.5510  220.4990 C   0  0  0  0  0  0  0  0  0  0  0  0
  142.0610   75.8500  219.0220 C   0  0  0  0  0  0  0  0  0  0  0  0
  141.1310   77.0380  218.9960 C   0  0  0  0  0  0  0  0  0  0  0  0
  140.5210   77.1060  220.3760 C   0  0  2  0  0  0  0  0  0  0  0  0
  141.0810   78.1300  221.2540 C   0  0  0  0  0  0  0  0  0  0  0  0
  141.6680   79.3000  220.8710 C   0  0  0  0  0  0  0  0  0  0  0  0
  142.1910   80.2280  221.7670 C   0  0  0  0  0  0  0  0  0  0  0  0
  142.1340   79.9950  223.1240 C   0  0  0  0  0  0  0  0  0  0  0  0
  142.8000   81.1820  224.2190 Cl  0  0  0  0  0  0  0  0  0  0  0  0
  141.5470   78.8240  223.5360 C   0  0  0  0  0  0  0  0  0  0  0  0
  141.0240   77.8940  222.6350 C   0  0  0  0  0  0  0  0  0  0  0  0
  139.9370   70.5130  223.7160 C   0  0  0  0  0  0  0  0  0  0  0  0
  139.3230   69.2780  223.7660 C   0  0  0  0  0  0  0  0  0  0  0  0
  139.2700   68.5020  224.9000 C   0  0  0  0  0  0  0  0  0  0  0  0
  139.8620   68.9780  226.0500 C   0  0  0  0  0  0  0  0  0  0  0  0
  139.8110   68.2010  227.1900 C   0  0  0  0  0  0  0  0  0  0  0  0
  140.4010   68.6680  228.3490 C   0  0  0  0  0  0  0  0  0  0  0  0
  140.3480   67.9000  229.4630 F   0  0  0  0  0  0  0  0  0  0  0  0
  141.0160   69.9010  228.3020 C   0  0  0  0  0  0  0  0  0  0  0  0
  141.0680   70.6820  227.1660 C   0  0  0  0  0  0  0  0  0  0  0  0
  140.4790   70.2140  226.0060 C   0  0  0  0  0  0  0  0  0  0  0  0
  140.5050   70.9500  224.8570 N   0  0  0  0  0  0  0  0  0  0  0  0
  139.5820   73.1900  223.4490 H   0  0  0  0  0  0  0  0  0  0  0  0
  140.6175   73.1281  220.6794 H   0  0  0  0  0  0  0  0  0  0  0  0
  138.8358   73.3226  220.7620 H   0  0  0  0  0  0  0  0  0  0  0  0
  142.8852   76.2513  220.9978 H   0  0  0  0  0  0  0  0  0  0  0  0
  142.6202   74.5641  220.7411 H   0  0  0  0  0  0  0  0  0  0  0  0
  143.0353   76.1020  218.5779 H   0  0  0  0  0  0  0  0  0  0  0  0
  141.6843   74.9945  218.4421 H   0  0  0  0  0  0  0  0  0  0  0  0
  141.6909   77.9593  218.7778 H   0  0  0  0  0  0  0  0  0  0  0  0
  140.3624   76.9365  218.2156 H   0  0  0  0  0  0  0  0  0  0  0  0
  139.4576   77.3819  220.3211 H   0  0  0  0  0  0  0  0  0  0  0  0
  141.7316   79.5224  219.7956 H   0  0  0  0  0  0  0  0  0  0  0  0
  142.6524   81.1525  221.3897 H   0  0  0  0  0  0  0  0  0  0  0  0
  141.4866   78.6110  224.6135 H   0  0  0  0  0  0  0  0  0  0  0  0
  140.5636   76.9688  223.0118 H   0  0  0  0  0  0  0  0  0  0  0  0
  138.8508   68.8939  222.8498 H   0  0  0  0  0  0  0  0  0  0  0  0
  138.7668   67.5239  224.8895 H   0  0  0  0  0  0  0  0  0  0  0  0
  139.3074   67.2231  227.1759 H   0  0  0  0  0  0  0  0  0  0  0  0
  141.4902   70.2821  229.2185 H   0  0  0  0  0  0  0  0  0  0  0  0
  141.5697   71.6608  227.1828 H   0  0  0  0  0  0  0  0  0  0  0  0
  1  2  2  0
  2  3  1  0
  3  4  1  0
  4  5  1  0
  5  6  2  0
  5  7  1  0
  7  8  1  0
  8  9  1  0
  9 10  1  0
 10 11  1  0
 11 12  1  0
 12 13  2  0
 13 14  1  0
 14 15  2  0
 15 16  1  0
 15 17  1  0
 17 18  2  0
  2 19  1  0
 19 20  2  0
 20 21  1  0
 21 22  2  0
 22 23  1  0
 23 24  2  0
 24 25  1  0
 24 26  1  0
 26 27  2  0
 27 28  1  0
 28 29  2  0
 11  7  1  0
 18 12  1  0
 29 19  1  0
 28 22  1  0
  3 30  1  0
  4 31  1  0
  4 32  1  0
  8 33  1  0
  8 34  1  0
  9 35  1  0
  9 36  1  0
 10 37  1  0
 10 38  1  0
 11 39  1  6
 13 40  1  0
 14 41  1  0
 17 42  1  0
 18 43  1  0
 20 44  1  0
 21 45  1  0
 23 46  1  0
 26 47  1  0
 27 48  1  0
M  END
>  <meeko>  (7) 
{"free_energy": -9.02, "intermolecular_energy": -10.51, "internal_energy": -1.64, "cluster_size": 18, "cluster_id": 1, "rank_in_cluster": 5}

$$$$

     RDKit          3D

 48 51  0  0  0  0  0  0  0  0999 V2000
  141.0910   71.9910  221.3840 O   0  0  0  0  0  0  0  0  0  0  0  0
  140.3460   72.3930  222.3370 C   0  0  0  0  0  0  0  0  0  0  0  0
  139.6590   73.6250  222.2940 N   0  0  0  0  0  0  0  0  0  0  0  0
  139.8010   74.4750  221.1220 C   0  0  0  0  0  0  0  0  0  0  0  0
  138.4930   75.0930  220.8090 C   0  0  0  0  0  0  0  0  0  0  0  0
  137.6530   74.4580  220.1190 O   0  0  0  0  0  0  0  0  0  0  0  0
  138.1240   76.3840  221.2490 N   0  0  0  0  0  0  0  0  0  0  0  0
  137.6090   77.5180  220.4790 C   0  0  0  0  0  0  0  0  0  0  0  0
  136.3690   77.8210  221.2910 C   0  0  0  0  0  0  0  0  0  0  0  0
  136.8390   77.6580  222.7150 C   0  0  0  0  0  0  0  0  0  0  0  0
  138.1610   76.9320  222.6240 C   0  0  2  0  0  0  0  0  0  0  0  0
  139.3430   77.7700  222.8020 C   0  0  0  0  0  0  0  0  0  0  0  0
  140.6160   77.4800  222.4040 C   0  0  0  0  0  0  0  0  0  0  0  0
  141.7000   78.3260  222.6180 C   0  0  0  0  0  0  0  0  0  0  0  0
  141.5280   79.5310  223.2630 C   0  0  0  0  0  0  0  0  0  0  0  0
  142.9120   80.5670  223.5130 Cl  0  0  0  0  0  0  0  0  0  0  0  0
  140.2560   79.8470  223.6730 C   0  0  0  0  0  0  0  0  0  0  0  0
  139.1700   78.9970  223.4580 C   0  0  0  0  0  0  0  0  0  0  0  0
  140.2060   71.5340  223.5130 C   0  0  0  0  0  0  0  0  0  0  0  0
  139.5650   70.3140  223.4340 C   0  0  0  0  0  0  0  0  0  0  0  0
  139.4060   69.4690  224.5070 C   0  0  0  0  0  0  0  0  0  0  0  0
  139.9140   69.8550  225.7280 C   0  0  0  0  0  0  0  0  0  0  0  0
  139.7570   69.0090  226.8070 C   0  0  0  0  0  0  0  0  0  0  0  0
  140.2620   69.3850  228.0370 C   0  0  0  0  0  0  0  0  0  0  0  0
  140.1050   68.5500  229.0910 F   0  0  0  0  0  0  0  0  0  0  0  0
  140.9050   70.6030  228.1190 C   0  0  0  0  0  0  0  0  0  0  0  0
  141.0630   71.4520  227.0440 C   0  0  0  0  0  0  0  0  0  0  0  0
  140.5580   71.0750  225.8140 C   0  0  0  0  0  0  0  0  0  0  0  0
  140.6910   71.8820  224.7210 N   0  0  0  0  0  0  0  0  0  0  0  0
  139.0460   73.9480  223.0850 H   0  0  0  0  0  0  0  0  0  0  0  0
  140.5410   75.2629  221.3261 H   0  0  0  0  0  0  0  0  0  0  0  0
  140.1396   73.8721  220.2665 H   0  0  0  0  0  0  0  0  0  0  0  0
  138.3125   78.3635  220.4716 H   0  0  0  0  0  0  0  0  0  0  0  0
  137.4353   77.3212  219.4108 H   0  0  0  0  0  0  0  0  0  0  0  0
  136.0182   78.8472  221.1067 H   0  0  0  0  0  0  0  0  0  0  0  0
  135.5199   77.1682  221.0403 H   0  0  0  0  0  0  0  0  0  0  0  0
  136.9723   78.6409  223.1906 H   0  0  0  0  0  0  0  0  0  0  0  0
  136.1101   77.1031  223.3240 H   0  0  0  0  0  0  0  0  0  0  0  0
  138.2586   76.1916  223.4316 H   0  0  0  0  0  0  0  0  0  0  0  0
  140.7947   76.5261  221.8862 H   0  0  0  0  0  0  0  0  0  0  0  0
  142.7007   78.0306  222.2698 H   0  0  0  0  0  0  0  0  0  0  0  0
  140.0871   80.8037  224.1890 H   0  0  0  0  0  0  0  0  0  0  0  0
  138.1693   79.2924  223.8064 H   0  0  0  0  0  0  0  0  0  0  0  0
  139.1597   70.0010  222.4605 H   0  0  0  0  0  0  0  0  0  0  0  0
  138.8851   68.5069  224.3931 H   0  0  0  0  0  0  0  0  0  0  0  0
  139.2363   68.0472  226.6893 H   0  0  0  0  0  0  0  0  0  0  0  0
  141.3128   70.9129  229.0925 H   0  0  0  0  0  0  0  0  0  0  0  0
  141.5827   72.4141  227.1635 H   0  0  0  0  0  0  0  0  0  0  0  0
  1  2  2  0
  2  3  1  0
  3  4  1  0
  4  5  1  0
  5  6  2  0
  5  7  1  0
  7  8  1  0
  8  9  1  0
  9 10  1  0
 10 11  1  0
 11 12  1  0
 12 13  2  0
 13 14  1  0
 14 15  2  0
 15 16  1  0
 15 17  1  0
 17 18  2  0
  2 19  1  0
 19 20  2  0
 20 21  1  0
 21 22  2  0
 22 23  1  0
 23 24  2  0
 24 25  1  0
 24 26  1  0
 26 27  2  0
 27 28  1  0
 28 29  2  0
 11  7  1  0
 18 12  1  0
 29 19  1  0
 28 22  1  0
  3 30  1  0
  4 31  1  0
  4 32  1  0
  8 33  1  0
  8 34  1  0
  9 35  1  0
  9 36  1  0
 10 37  1  0
 10 38  1  0
 11 39  1  1
 13 40  1  0
 14 41  1  0
 17 42  1  0
 18 43  1  0
 20 44  1  0
 21 45  1  0
 23 46  1  0
 26 47  1  0
 27 48  1  0
M  END
>  <meeko>  (8) 
{"free_energy": -8.45, "intermolecular_energy": -9.94, "internal_energy": -1.31, "cluster_size": 18, "cluster_id": 1, "rank_in_cluster": 18}

$$$$

     RDKit          3D

 48 51  0  0  0  0  0  0  0  0999 V2000
  140.9880   72.3130  221.9120 O   0  0  0  0  0  0  0  0  0  0  0  0
  139.9550   72.2260  222.6540 C   0  0  0  0  0  0  0  0  0  0  0  0
  138.7840   72.9750  222.4160 N   0  0  0  0  0  0  0  0  0  0  0  0
  138.7450   73.8860  221.2810 C   0  0  0  0  0  0  0  0  0  0  0  0
  139.2730   75.2040  221.6990 C   0  0  0  0  0  0  0  0  0  0  0  0
  138.6590   75.8740  222.5690 O   0  0  0  0  0  0  0  0  0  0  0  0
  140.4530   75.7660  221.1630 N   0  0  0  0  0  0  0  0  0  0  0  0
  141.8280   75.2640  221.2130 C   0  0  0  0  0  0  0  0  0  0  0  0
  142.1590   75.3090  219.7370 C   0  0  0  0  0  0  0  0  0  0  0  0
  141.5410   76.6080  219.2840 C   0  0  0  0  0  0  0  0  0  0  0  0
  140.6090   77.0240  220.3980 C   0  0  2  0  0  0  0  0  0  0  0  0
  141.1120   78.0850  221.2660 C   0  0  0  0  0  0  0  0  0  0  0  0
  141.7310   79.2360  220.8740 C   0  0  0  0  0  0  0  0  0  0  0  0
  142.1960   80.2000  221.7620 C   0  0  0  0  0  0  0  0  0  0  0  0
  142.0430   80.0280  223.1210 C   0  0  0  0  0  0  0  0  0  0  0  0
  142.6380   81.2610  224.2060 Cl  0  0  0  0  0  0  0  0  0  0  0  0
  141.4220   78.8780  223.5430 C   0  0  0  0  0  0  0  0  0  0  0  0
  140.9570   77.9110  222.6490 C   0  0  0  0  0  0  0  0  0  0  0  0
  140.0010   71.3080  223.7940 C   0  0  0  0  0  0  0  0  0  0  0  0
  139.5350   70.0130  223.6860 C   0  0  0  0  0  0  0  0  0  0  0  0
  139.5540   69.1110  224.7240 C   0  0  0  0  0  0  0  0  0  0  0  0
  140.0660   69.5170  225.9370 C   0  0  0  0  0  0  0  0  0  0  0  0
  140.0870   68.6130  226.9810 C   0  0  0  0  0  0  0  0  0  0  0  0
  140.5980   69.0080  228.2030 C   0  0  0  0  0  0  0  0  0  0  0  0
  140.6160   68.1170  229.2210 F   0  0  0  0  0  0  0  0  0  0  0  0
  141.0650   70.3010  228.3130 C   0  0  0  0  0  0  0  0  0  0  0  0
  141.0450   71.2070  227.2730 C   0  0  0  0  0  0  0  0  0  0  0  0
  140.5350   70.8110  226.0510 C   0  0  0  0  0  0  0  0  0  0  0  0
  140.4940   71.6730  224.9920 N   0  0  0  0  0  0  0  0  0  0  0  0
  137.9370   72.8970  223.0330 H   0  0  0  0  0  0  0  0  0  0  0  0
  139.3628   73.4839  220.4646 H   0  0  0  0  0  0  0  0  0  0  0  0
  137.7083   73.9966  220.9303 H   0  0  0  0  0  0  0  0  0  0  0  0
  142.4846   75.9215  221.8018 H   0  0  0  0  0  0  0  0  0  0  0  0
  141.9527   74.2821  221.6929 H   0  0  0  0  0  0  0  0  0  0  0  0
  143.2473   75.3131  219.5769 H   0  0  0  0  0  0  0  0  0  0  0  0
  141.7819   74.4362  219.1838 H   0  0  0  0  0  0  0  0  0  0  0  0
  142.3190   77.3701  219.1294 H   0  0  0  0  0  0  0  0  0  0  0  0
  141.0082   76.4942  218.3284 H   0  0  0  0  0  0  0  0  0  0  0  0
  139.6817   77.4556  219.9931 H   0  0  0  0  0  0  0  0  0  0  0  0
  141.8698   79.4110  219.7969 H   0  0  0  0  0  0  0  0  0  0  0  0
  142.6888   81.1051  221.3775 H   0  0  0  0  0  0  0  0  0  0  0  0
  141.2862   78.7129  224.6220 H   0  0  0  0  0  0  0  0  0  0  0  0
  140.4650   77.0052  223.0329 H   0  0  0  0  0  0  0  0  0  0  0  0
  139.1269   69.6853  222.7185 H   0  0  0  0  0  0  0  0  0  0  0  0
  139.1694   68.0893  224.5890 H   0  0  0  0  0  0  0  0  0  0  0  0
  139.7021   67.5920  226.8418 H   0  0  0  0  0  0  0  0  0  0  0  0
  141.4748   70.6268  229.2804 H   0  0  0  0  0  0  0  0  0  0  0  0
  141.4288   72.2282  227.4140 H   0  0  0  0  0  0  0  0  0  0  0  0
  1  2  2  0
  2  3  1  0
  3  4  1  0
  4  5  1  0
  5  6  2  0
  5  7  1  0
  7  8  1  0
  8  9  1  0
  9 10  1  0
 10 11  1  0
 11 12  1  0
 12 13  2  0
 13 14  1  0
 14 15  2  0
 15 16  1  0
 15 17  1  0
 17 18  2  0
  2 19  1  0
 19 20  2  0
 20 21  1  0
 21 22  2  0
 22 23  1  0
 23 24  2  0
 24 25  1  0
 24 26  1  0
 26 27  2  0
 27 28  1  0
 28 29  2  0
 11  7  1  0
 18 12  1  0
 29 19  1  0
 28 22  1  0
  3 30  1  0
  4 31  1  0
  4 32  1  0
  8 33  1  0
  8 34  1  0
  9 35  1  0
  9 36  1  0
 10 37  1  0
 10 38  1  0
 11 39  1  6
 13 40  1  0
 14 41  1  0
 17 42  1  0
 18 43  1  0
 20 44  1  0
 21 45  1  0
 23 46  1  0
 26 47  1  0
 27 48  1  0
M  END
>  <meeko>  (9) 
{"free_energy": -9.14, "intermolecular_energy": -10.63, "internal_energy": -1.34, "cluster_size": 18, "cluster_id": 1, "rank_in_cluster": 2}

$$$$

     RDKit          3D

 48 51  0  0  0  0  0  0  0  0999 V2000
  138.0860   70.8190  221.9420 O   0  0  0  0  0  0  0  0  0  0  0  0
  138.8270   71.3250  222.8490 C   0  0  0  0  0  0  0  0  0  0  0  0
  139.3170   72.6450  222.7770 N   0  0  0  0  0  0  0  0  0  0  0  0
  138.9710   73.4690  221.6290 C   0  0  0  0  0  0  0  0  0  0  0  0
  139.7100   74.7490  221.7080 C   0  0  0  0  0  0  0  0  0  0  0  0
  140.9340   74.7450  221.9990 O   0  0  0  0  0  0  0  0  0  0  0  0
  139.1060   76.0040  221.4690 N   0  0  0  0  0  0  0  0  0  0  0  0
  138.9570   76.7400  220.2120 C   0  0  0  0  0  0  0  0  0  0  0  0
  137.4650   76.9910  220.2510 C   0  0  0  0  0  0  0  0  0  0  0  0
  137.2110   77.3370  221.6970 C   0  0  0  0  0  0  0  0  0  0  0  0
  138.4550   76.9110  222.4410 C   0  0  2  0  0  0  0  0  0  0  0  0
  139.3620   77.9950  222.8070 C   0  0  0  0  0  0  0  0  0  0  0  0
  139.0130   79.2550  223.1970 C   0  0  0  0  0  0  0  0  0  0  0  0
  139.9370   80.2430  223.5220 C   0  0  0  0  0  0  0  0  0  0  0  0
  141.2890   79.9820  223.4610 C   0  0  0  0  0  0  0  0  0  0  0  0
  142.4190   81.2470  223.8770 Cl  0  0  0  0  0  0  0  0  0  0  0  0
  141.6670   78.7200  223.0720 C   0  0  0  0  0  0  0  0  0  0  0  0
  140.7380   77.7300  222.7460 C   0  0  0  0  0  0  0  0  0  0  0  0
  139.1710   70.4920  224.0020 C   0  0  0  0  0  0  0  0  0  0  0  0
  138.8860   69.1410  224.0180 C   0  0  0  0  0  0  0  0  0  0  0  0
  139.1880   68.3140  225.0740 C   0  0  0  0  0  0  0  0  0  0  0  0
  139.8090   68.8590  226.1780 C   0  0  0  0  0  0  0  0  0  0  0  0
  140.1130   68.0310  227.2400 C   0  0  0  0  0  0  0  0  0  0  0  0
  140.7360   68.5640  228.3520 C   0  0  0  0  0  0  0  0  0  0  0  0
  141.0320   67.7470  229.3890 F   0  0  0  0  0  0  0  0  0  0  0  0
  141.0230   69.9130  228.3390 C   0  0  0  0  0  0  0  0  0  0  0  0
  140.7200   70.7440  227.2800 C   0  0  0  0  0  0  0  0  0  0  0  0
  140.0970   70.2100  226.1670 C   0  0  0  0  0  0  0  0  0  0  0  0
  139.7780   70.9920  225.0950 N   0  0  0  0  0  0  0  0  0  0  0  0
  139.9270   73.0540  223.5290 H   0  0  0  0  0  0  0  0  0  0  0  0
  139.2447   72.9428  220.7026 H   0  0  0  0  0  0  0  0  0  0  0  0
  137.8889   73.6665  221.6287 H   0  0  0  0  0  0  0  0  0  0  0  0
  139.5319   77.6778  220.2140 H   0  0  0  0  0  0  0  0  0  0  0  0
  139.3227   76.2181  219.3154 H   0  0  0  0  0  0  0  0  0  0  0  0
  137.1882   77.8264  219.5911 H   0  0  0  0  0  0  0  0  0  0  0  0
  136.8738   76.1311  219.9031 H   0  0  0  0  0  0  0  0  0  0  0  0
  137.0475   78.4189  221.8100 H   0  0  0  0  0  0  0  0  0  0  0  0
  136.3127   76.8339  222.0843 H   0  0  0  0  0  0  0  0  0  0  0  0
  138.1979   76.4654  223.4133 H   0  0  0  0  0  0  0  0  0  0  0  0
  137.9431   79.5031  223.2578 H   0  0  0  0  0  0  0  0  0  0  0  0
  139.5862   81.2391  223.8297 H   0  0  0  0  0  0  0  0  0  0  0  0
  142.7392   78.4810  223.0154 H   0  0  0  0  0  0  0  0  0  0  0  0
  141.0883   76.7336  222.4387 H   0  0  0  0  0  0  0  0  0  0  0  0
  138.3908   68.7030  223.1388 H   0  0  0  0  0  0  0  0  0  0  0  0
  138.9401   67.2429  225.0390 H   0  0  0  0  0  0  0  0  0  0  0  0
  139.8624   66.9606  227.2013 H   0  0  0  0  0  0  0  0  0  0  0  0
  141.5192   70.3490  229.2186 H   0  0  0  0  0  0  0  0  0  0  0  0
  140.9701   71.8144  227.3205 H   0  0  0  0  0  0  0  0  0  0  0  0
  1  2  2  0
  2  3  1  0
  3  4  1  0
  4  5  1  0
  5  6  2  0
  5  7  1  0
  7  8  1  0
  8  9  1  0
  9 10  1  0
 10 11  1  0
 11 12  1  0
 12 13  2  0
 13 14  1  0
 14 15  2  0
 15 16  1  0
 15 17  1  0
 17 18  2  0
  2 19  1  0
 19 20  2  0
 20 21  1  0
 21 22  2  0
 22 23  1  0
 23 24  2  0
 24 25  1  0
 24 26  1  0
 26 27  2  0
 27 28  1  0
 28 29  2  0
 11  7  1  0
 18 12  1  0
 29 19  1  0
 28 22  1  0
  3 30  1  0
  4 31  1  0
  4 32  1  0
  8 33  1  0
  8 34  1  0
  9 35  1  0
  9 36  1  0
 10 37  1  0
 10 38  1  0
 11 39  1  1
 13 40  1  0
 14 41  1  0
 17 42  1  0
 18 43  1  0
 20 44  1  0
 21 45  1  0
 23 46  1  0
 26 47  1  0
 27 48  1  0
M  END
>  <meeko>  (10) 
{"free_energy": -8.78, "intermolecular_energy": -10.27, "internal_energy": -1.62, "cluster_size": 18, "cluster_id": 1, "rank_in_cluster": 16}

$$$$

     RDKit          3D

 48 51  0  0  0  0  0  0  0  0999 V2000
  140.9700   72.0520  221.8350 O   0  0  0  0  0  0  0  0  0  0  0  0
  139.9560   72.0580  222.6080 C   0  0  0  0  0  0  0  0  0  0  0  0
  138.8290   72.8740  222.3740 N   0  0  0  0  0  0  0  0  0  0  0  0
  138.8150   73.7450  221.2080 C   0  0  0  0  0  0  0  0  0  0  0  0
  139.2450   75.1030  221.6110 C   0  0  0  0  0  0  0  0  0  0  0  0
  138.5280   75.7770  222.3940 O   0  0  0  0  0  0  0  0  0  0  0  0
  140.4430   75.6990  221.1570 N   0  0  0  0  0  0  0  0  0  0  0  0
  141.8160   75.1940  221.2240 C   0  0  0  0  0  0  0  0  0  0  0  0
  142.2010   75.3360  219.7670 C   0  0  0  0  0  0  0  0  0  0  0  0
  141.5960   76.6620  219.3770 C   0  0  0  0  0  0  0  0  0  0  0  0
  140.6240   77.0040  220.4810 C   0  0  2  0  0  0  0  0  0  0  0  0
  141.0920   78.0050  221.4350 C   0  0  0  0  0  0  0  0  0  0  0  0
  141.0470   77.9200  222.7960 C   0  0  0  0  0  0  0  0  0  0  0  0
  141.5050   78.9220  223.6450 C   0  0  0  0  0  0  0  0  0  0  0  0
  142.0420   80.0820  223.1300 C   0  0  0  0  0  0  0  0  0  0  0  0
  142.6070   81.3180  224.2260 Cl  0  0  0  0  0  0  0  0  0  0  0  0
  142.1000   80.1920  221.7620 C   0  0  0  0  0  0  0  0  0  0  0  0
  141.6400   79.1860  220.9120 C   0  0  0  0  0  0  0  0  0  0  0  0
  139.9760   71.1800  223.7790 C   0  0  0  0  0  0  0  0  0  0  0  0
  139.4430   69.9080  223.7260 C   0  0  0  0  0  0  0  0  0  0  0  0
  139.4350   69.0430  224.7950 C   0  0  0  0  0  0  0  0  0  0  0  0
  139.9880   69.4650  225.9850 C   0  0  0  0  0  0  0  0  0  0  0  0
  139.9830   68.5980  227.0600 C   0  0  0  0  0  0  0  0  0  0  0  0
  140.5350   69.0100  228.2580 C   0  0  0  0  0  0  0  0  0  0  0  0
  140.5260   68.1550  229.3080 F   0  0  0  0  0  0  0  0  0  0  0  0
  141.0690   70.2800  228.3140 C   0  0  0  0  0  0  0  0  0  0  0  0
  141.0760   71.1490  227.2430 C   0  0  0  0  0  0  0  0  0  0  0  0
  140.5240   70.7370  226.0440 C   0  0  0  0  0  0  0  0  0  0  0  0
  140.5080   71.5610  224.9560 N   0  0  0  0  0  0  0  0  0  0  0  0
  137.9970   72.8730  223.0160 H   0  0  0  0  0  0  0  0  0  0  0  0
  139.5042   73.3515  220.4463 H   0  0  0  0  0  0  0  0  0  0  0  0
  137.7984   73.7876  220.7901 H   0  0  0  0  0  0  0  0  0  0  0  0
  142.4494   75.8108  221.8785 H   0  0  0  0  0  0  0  0  0  0  0  0
  141.9247   74.1825  221.6423 H   0  0  0  0  0  0  0  0  0  0  0  0
  143.2944   75.3512  219.6478 H   0  0  0  0  0  0  0  0  0  0  0  0
  141.8471   74.5011  219.1444 H   0  0  0  0  0  0  0  0  0  0  0  0
  142.3769   77.4329  219.3003 H   0  0  0  0  0  0  0  0  0  0  0  0
  141.0983   76.6105  218.3974 H   0  0  0  0  0  0  0  0  0  0  0  0
  139.7117   77.4613  220.0704 H   0  0  0  0  0  0  0  0  0  0  0  0
  140.6255   77.0093  223.2464 H   0  0  0  0  0  0  0  0  0  0  0  0
  141.4382   78.7876  224.7347 H   0  0  0  0  0  0  0  0  0  0  0  0
  142.5243   81.1060  221.3210 H   0  0  0  0  0  0  0  0  0  0  0  0
  141.7075   79.3198  219.8223 H   0  0  0  0  0  0  0  0  0  0  0  0
  139.0009   69.5679  222.7779 H   0  0  0  0  0  0  0  0  0  0  0  0
  138.9976   68.0379  224.7026 H   0  0  0  0  0  0  0  0  0  0  0  0
  139.5456   67.5933  226.9639 H   0  0  0  0  0  0  0  0  0  0  0  0
  141.5125   70.6177  229.2623 H   0  0  0  0  0  0  0  0  0  0  0  0
  141.5136   72.1535  227.3410 H   0  0  0  0  0  0  0  0  0  0  0  0
  1  2  2  0
  2  3  1  0
  3  4  1  0
  4  5  1  0
  5  6  2  0
  5  7  1  0
  7  8  1  0
  8  9  1  0
  9 10  1  0
 10 11  1  0
 11 12  1  0
 12 13  2  0
 13 14  1  0
 14 15  2  0
 15 16  1  0
 15 17  1  0
 17 18  2  0
  2 19  1  0
 19 20  2  0
 20 21  1  0
 21 22  2  0
 22 23  1  0
 23 24  2  0
 24 25  1  0
 24 26  1  0
 26 27  2  0
 27 28  1  0
 28 29  2  0
 11  7  1  0
 18 12  1  0
 29 19  1  0
 28 22  1  0
  3 30  1  0
  4 31  1  0
  4 32  1  0
  8 33  1  0
  8 34  1  0
  9 35  1  0
  9 36  1  0
 10 37  1  0
 10 38  1  0
 11 39  1  6
 13 40  1  0
 14 41  1  0
 17 42  1  0
 18 43  1  0
 20 44  1  0
 21 45  1  0
 23 46  1  0
 26 47  1  0
 27 48  1  0
M  END
>  <meeko>  (11) 
{"free_energy": -9.15, "intermolecular_energy": -10.64, "internal_energy": -1.37, "cluster_size": 18, "cluster_id": 1, "rank_in_cluster": 1}

$$$$

     RDKit          3D

 48 51  0  0  0  0  0  0  0  0999 V2000
  140.5880   71.7500  221.1370 O   0  0  0  0  0  0  0  0  0  0  0  0
  140.1990   72.3060  222.2160 C   0  0  0  0  0  0  0  0  0  0  0  0
  139.8660   73.6740  222.2870 N   0  0  0  0  0  0  0  0  0  0  0  0
  139.9670   74.4910  221.0870 C   0  0  0  0  0  0  0  0  0  0  0  0
  141.3900   74.8210  220.8430 C   0  0  0  0  0  0  0  0  0  0  0  0
  142.2880   74.0230  221.2170 O   0  0  0  0  0  0  0  0  0  0  0  0
  141.8060   76.0080  220.1990 N   0  0  0  0  0  0  0  0  0  0  0  0
  143.0980   76.3310  219.5900 C   0  0  0  0  0  0  0  0  0  0  0  0
  142.6200   76.7740  218.2230 C   0  0  0  0  0  0  0  0  0  0  0  0
  141.3850   77.5810  218.5340 C   0  0  0  0  0  0  0  0  0  0  0  0
  141.0330   77.2490  219.9650 C   0  0  2  0  0  0  0  0  0  0  0  0
  141.3990   78.2640  220.9480 C   0  0  0  0  0  0  0  0  0  0  0  0
  141.8250   79.5340  220.6880 C   0  0  0  0  0  0  0  0  0  0  0  0
  142.1680   80.4480  221.6800 C   0  0  0  0  0  0  0  0  0  0  0  0
  142.0890   80.0970  223.0100 C   0  0  0  0  0  0  0  0  0  0  0  0
  142.5270   81.2710  224.2270 Cl  0  0  0  0  0  0  0  0  0  0  0  0
  141.6610   78.8240  223.2980 C   0  0  0  0  0  0  0  0  0  0  0  0
  141.3180   77.9080  222.3020 C   0  0  0  0  0  0  0  0  0  0  0  0
  140.0990   71.4790  223.4200 C   0  0  0  0  0  0  0  0  0  0  0  0
  139.4880   70.2410  223.3870 C   0  0  0  0  0  0  0  0  0  0  0  0
  139.3670   69.4250  224.4870 C   0  0  0  0  0  0  0  0  0  0  0  0
  139.8820   69.8620  225.6880 C   0  0  0  0  0  0  0  0  0  0  0  0
  139.7620   69.0440  226.7950 C   0  0  0  0  0  0  0  0  0  0  0  0
  140.2740   69.4710  228.0050 C   0  0  0  0  0  0  0  0  0  0  0  0
  140.1530   68.6650  229.0850 F   0  0  0  0  0  0  0  0  0  0  0  0
  140.8850   70.7070  228.0410 C   0  0  0  0  0  0  0  0  0  0  0  0
  141.0070   71.5270  226.9390 C   0  0  0  0  0  0  0  0  0  0  0  0
  140.4950   71.0990  225.7280 C   0  0  0  0  0  0  0  0  0  0  0  0
  140.5910   71.8760  224.6090 N   0  0  0  0  0  0  0  0  0  0  0  0
  139.5460   74.1240  223.1820 H   0  0  0  0  0  0  0  0  0  0  0  0
  139.5655   73.9341  220.2275 H   0  0  0  0  0  0  0  0  0  0  0  0
  139.3895   75.4177  221.2203 H   0  0  0  0  0  0  0  0  0  0  0  0
  143.6150   77.1400  220.1270 H   0  0  0  0  0  0  0  0  0  0  0  0
  143.8346   75.5140  219.5886 H   0  0  0  0  0  0  0  0  0  0  0  0
  143.3789   77.3921  217.7211 H   0  0  0  0  0  0  0  0  0  0  0  0
  142.4252   75.9332  217.5411 H   0  0  0  0  0  0  0  0  0  0  0  0
  141.5923   78.6562  218.4290 H   0  0  0  0  0  0  0  0  0  0  0  0
  140.5599   77.3441  217.8462 H   0  0  0  0  0  0  0  0  0  0  0  0
  139.9434   77.1655  220.0904 H   0  0  0  0  0  0  0  0  0  0  0  0
  141.9014   79.8525  219.6379 H   0  0  0  0  0  0  0  0  0  0  0  0
  142.5044   81.4573  221.4003 H   0  0  0  0  0  0  0  0  0  0  0  0
  141.5858   78.5153  224.3511 H   0  0  0  0  0  0  0  0  0  0  0  0
  140.9814   76.8987  222.5815 H   0  0  0  0  0  0  0  0  0  0  0  0
  139.0762   69.8889  222.4297 H   0  0  0  0  0  0  0  0  0  0  0  0
  138.8707   68.4463  224.4101 H   0  0  0  0  0  0  0  0  0  0  0  0
  139.2654   68.0658  226.7140 H   0  0  0  0  0  0  0  0  0  0  0  0
  141.2966   71.0571  228.9991 H   0  0  0  0  0  0  0  0  0  0  0  0
  141.5033   72.5052  227.0220 H   0  0  0  0  0  0  0  0  0  0  0  0
  1  2  2  0
  2  3  1  0
  3  4  1  0
  4  5  1  0
  5  6  2  0
  5  7  1  0
  7  8  1  0
  8  9  1  0
  9 10  1  0
 10 11  1  0
 11 12  1  0
 12 13  2  0
 13 14  1  0
 14 15  2  0
 15 16  1  0
 15 17  1  0
 17 18  2  0
  2 19  1  0
 19 20  2  0
 20 21  1  0
 21 22  2  0
 22 23  1  0
 23 24  2  0
 24 25  1  0
 24 26  1  0
 26 27  2  0
 27 28  1  0
 28 29  2  0
 11  7  1  0
 18 12  1  0
 29 19  1  0
 28 22  1  0
  3 30  1  0
  4 31  1  0
  4 32  1  0
  8 33  1  0
  8 34  1  0
  9 35  1  0
  9 36  1  0
 10 37  1  0
 10 38  1  0
 11 39  1  6
 13 40  1  0
 14 41  1  0
 17 42  1  0
 18 43  1  0
 20 44  1  0
 21 45  1  0
 23 46  1  0
 26 47  1  0
 27 48  1  0
M  END
>  <meeko>  (12) 
{"free_energy": -9.14, "intermolecular_energy": -10.63, "internal_energy": -1.31, "cluster_size": 18, "cluster_id": 1, "rank_in_cluster": 3}

$$$$

     RDKit          3D

 48 51  0  0  0  0  0  0  0  0999 V2000
  140.2520   70.7730  221.3560 O   0  0  0  0  0  0  0  0  0  0  0  0
  140.0180   71.3940  222.4450 C   0  0  0  0  0  0  0  0  0  0  0  0
  139.7950   72.7870  222.4900 N   0  0  0  0  0  0  0  0  0  0  0  0
  139.8320   73.5500  221.2510 C   0  0  0  0  0  0  0  0  0  0  0  0
  139.9760   74.9880  221.5720 C   0  0  0  0  0  0  0  0  0  0  0  0
  139.3070   75.4870  222.5130 O   0  0  0  0  0  0  0  0  0  0  0  0
  140.8430   75.8520  220.8650 N   0  0  0  0  0  0  0  0  0  0  0  0
  142.2370   75.6490  220.4680 C   0  0  0  0  0  0  0  0  0  0  0  0
  142.1180   75.9570  218.9910 C   0  0  0  0  0  0  0  0  0  0  0  0
  141.1890   77.1450  218.9590 C   0  0  0  0  0  0  0  0  0  0  0  0
  140.5610   77.2050  220.3320 C   0  0  2  0  0  0  0  0  0  0  0  0
  141.1080   78.2230  221.2230 C   0  0  0  0  0  0  0  0  0  0  0  0
  141.6990   79.3970  220.8550 C   0  0  0  0  0  0  0  0  0  0  0  0
  142.2090   80.3190  221.7630 C   0  0  0  0  0  0  0  0  0  0  0  0
  142.1370   80.0770  223.1180 C   0  0  0  0  0  0  0  0  0  0  0  0
  142.7870   81.2580  224.2290 Cl  0  0  0  0  0  0  0  0  0  0  0  0
  141.5450   78.9020  223.5150 C   0  0  0  0  0  0  0  0  0  0  0  0
  141.0350   77.9780  222.6020 C   0  0  0  0  0  0  0  0  0  0  0  0
  139.9820   70.6210  223.6870 C   0  0  0  0  0  0  0  0  0  0  0  0
  139.3830   69.3780  223.7360 C   0  0  0  0  0  0  0  0  0  0  0  0
  139.3210   68.6100  224.8750 C   0  0  0  0  0  0  0  0  0  0  0  0
  139.8860   69.1040  226.0320 C   0  0  0  0  0  0  0  0  0  0  0  0
  139.8260   68.3360  227.1770 C   0  0  0  0  0  0  0  0  0  0  0  0
  140.3890   68.8200  228.3420 C   0  0  0  0  0  0  0  0  0  0  0  0
  140.3270   68.0610  229.4610 F   0  0  0  0  0  0  0  0  0  0  0  0
  140.9890   70.0610  228.2960 C   0  0  0  0  0  0  0  0  0  0  0  0
  141.0510   70.8320  227.1540 C   0  0  0  0  0  0  0  0  0  0  0  0
  140.4880   70.3470  225.9880 C   0  0  0  0  0  0  0  0  0  0  0  0
  140.5240   71.0740  224.8330 N   0  0  0  0  0  0  0  0  0  0  0  0
  139.6030   73.2910  223.3910 H   0  0  0  0  0  0  0  0  0  0  0  0
  140.6865   73.2213  220.6413 H   0  0  0  0  0  0  0  0  0  0  0  0
  138.9013   73.3874  220.6876 H   0  0  0  0  0  0  0  0  0  0  0  0
  142.9161   76.3465  220.9801 H   0  0  0  0  0  0  0  0  0  0  0  0
  142.6557   74.6610  220.7100 H   0  0  0  0  0  0  0  0  0  0  0  0
  143.0981   76.2113  218.5611 H   0  0  0  0  0  0  0  0  0  0  0  0
  141.7483   75.1050  218.4016 H   0  0  0  0  0  0  0  0  0  0  0  0
  141.7518   78.0674  218.7533 H   0  0  0  0  0  0  0  0  0  0  0  0
  140.4308   77.0484  218.1679 H   0  0  0  0  0  0  0  0  0  0  0  0
  139.4985   77.4818  220.2651 H   0  0  0  0  0  0  0  0  0  0  0  0
  141.7762   79.6265  219.7820 H   0  0  0  0  0  0  0  0  0  0  0  0
  142.6727   81.2471  221.3974 H   0  0  0  0  0  0  0  0  0  0  0  0
  141.4705   78.6821  224.5902 H   0  0  0  0  0  0  0  0  0  0  0  0
  140.5718   77.0495  222.9671 H   0  0  0  0  0  0  0  0  0  0  0  0
  138.9313   68.9809  222.8149 H   0  0  0  0  0  0  0  0  0  0  0  0
  138.8322   67.6247  224.8635 H   0  0  0  0  0  0  0  0  0  0  0  0
  139.3362   67.3512  227.1622 H   0  0  0  0  0  0  0  0  0  0  0  0
  141.4414   70.4562  229.2175 H   0  0  0  0  0  0  0  0  0  0  0  0
  141.5405   71.8169  227.1706 H   0  0  0  0  0  0  0  0  0  0  0  0
  1  2  2  0
  2  3  1  0
  3  4  1  0
  4  5  1  0
  5  6  2  0
  5  7  1  0
  7  8  1  0
  8  9  1  0
  9 10  1  0
 10 11  1  0
 11 12  1  0
 12 13  2  0
 13 14  1  0
 14 15  2  0
 15 16  1  0
 15 17  1  0
 17 18  2  0
  2 19  1  0
 19 20  2  0
 20 21  1  0
 21 22  2  0
 22 23  1  0
 23 24  2  0
 24 25  1  0
 24 26  1  0
 26 27  2  0
 27 28  1  0
 28 29  2  0
 11  7  1  0
 18 12  1  0
 29 19  1  0
 28 22  1  0
  3 30  1  0
  4 31  1  0
  4 32  1  0
  8 33  1  0
  8 34  1  0
  9 35  1  0
  9 36  1  0
 10 37  1  0
 10 38  1  0
 11 39  1  6
 13 40  1  0
 14 41  1  0
 17 42  1  0
 18 43  1  0
 20 44  1  0
 21 45  1  0
 23 46  1  0
 26 47  1  0
 27 48  1  0
M  END
>  <meeko>  (13) 
{"free_energy": -9.0, "intermolecular_energy": -10.49, "internal_energy": -1.64, "cluster_size": 18, "cluster_id": 1, "rank_in_cluster": 6}

$$$$

     RDKit          3D

 48 51  0  0  0  0  0  0  0  0999 V2000
  140.0310   70.6890  221.3790 O   0  0  0  0  0  0  0  0  0  0  0  0
  139.9480   71.3080  222.4900 C   0  0  0  0  0  0  0  0  0  0  0  0
  139.8570   72.7140  222.5690 N   0  0  0  0  0  0  0  0  0  0  0  0
  139.8610   73.4940  221.3410 C   0  0  0  0  0  0  0  0  0  0  0  0
  140.0160   74.9270  221.6760 C   0  0  0  0  0  0  0  0  0  0  0  0
  139.4090   75.4040  222.6700 O   0  0  0  0  0  0  0  0  0  0  0  0
  140.8260   75.8110  220.9280 N   0  0  0  0  0  0  0  0  0  0  0  0
  142.2020   75.6380  220.4570 C   0  0  0  0  0  0  0  0  0  0  0  0
  141.9990   75.9470  218.9900 C   0  0  0  0  0  0  0  0  0  0  0  0
  141.0450   77.1150  219.0110 C   0  0  0  0  0  0  0  0  0  0  0  0
  140.4890   77.1580  220.4150 C   0  0  2  0  0  0  0  0  0  0  0  0
  141.0610   78.1860  221.2800 C   0  0  0  0  0  0  0  0  0  0  0  0
  141.6430   79.3540  220.8820 C   0  0  0  0  0  0  0  0  0  0  0  0
  142.1790   80.2860  221.7670 C   0  0  0  0  0  0  0  0  0  0  0  0
  142.1420   80.0590  223.1260 C   0  0  0  0  0  0  0  0  0  0  0  0
  142.8240   81.2510  224.2050 Cl  0  0  0  0  0  0  0  0  0  0  0  0
  141.5600   78.8900  223.5510 C   0  0  0  0  0  0  0  0  0  0  0  0
  141.0240   77.9570  222.6630 C   0  0  0  0  0  0  0  0  0  0  0  0
  139.9440   70.5180  223.7220 C   0  0  0  0  0  0  0  0  0  0  0  0
  139.3610   69.2670  223.7660 C   0  0  0  0  0  0  0  0  0  0  0  0
  139.3300   68.4840  224.8960 C   0  0  0  0  0  0  0  0  0  0  0  0
  139.9120   68.9690  226.0480 C   0  0  0  0  0  0  0  0  0  0  0  0
  139.8830   68.1850  227.1840 C   0  0  0  0  0  0  0  0  0  0  0  0
  140.4630   68.6600  228.3440 C   0  0  0  0  0  0  0  0  0  0  0  0
  140.4310   67.8860  229.4540 F   0  0  0  0  0  0  0  0  0  0  0  0
  141.0460   69.9090  228.3030 C   0  0  0  0  0  0  0  0  0  0  0  0
  141.0770   70.6960  227.1710 C   0  0  0  0  0  0  0  0  0  0  0  0
  140.4980   70.2200  226.0090 C   0  0  0  0  0  0  0  0  0  0  0  0
  140.5030   70.9630  224.8640 N   0  0  0  0  0  0  0  0  0  0  0  0
  139.7890   73.2160  223.4890 H   0  0  0  0  0  0  0  0  0  0  0  0
  140.6978   73.1725  220.7035 H   0  0  0  0  0  0  0  0  0  0  0  0
  138.9143   73.3405  220.8023 H   0  0  0  0  0  0  0  0  0  0  0  0
  142.8926   76.3483  220.9351 H   0  0  0  0  0  0  0  0  0  0  0  0
  142.6532   74.6583  220.6730 H   0  0  0  0  0  0  0  0  0  0  0  0
  142.9495   76.2230  218.5101 H   0  0  0  0  0  0  0  0  0  0  0  0
  141.6167   75.0888  218.4179 H   0  0  0  0  0  0  0  0  0  0  0  0
  141.5767   78.0497  218.7795 H   0  0  0  0  0  0  0  0  0  0  0  0
  140.2486   77.0045  218.2603 H   0  0  0  0  0  0  0  0  0  0  0  0
  139.4188   77.4121  220.4046 H   0  0  0  0  0  0  0  0  0  0  0  0
  141.6914   79.5710  219.8047 H   0  0  0  0  0  0  0  0  0  0  0  0
  142.6347   81.2090  221.3791 H   0  0  0  0  0  0  0  0  0  0  0  0
  141.5148   78.6818  224.6302 H   0  0  0  0  0  0  0  0  0  0  0  0
  140.5685   77.0339  223.0509 H   0  0  0  0  0  0  0  0  0  0  0  0
  138.8968   68.8761  222.8486 H   0  0  0  0  0  0  0  0  0  0  0  0
  138.8519   67.4935  224.8812 H   0  0  0  0  0  0  0  0  0  0  0  0
  139.4042   67.1949  227.1655 H   0  0  0  0  0  0  0  0  0  0  0  0
  141.5106   70.2978  229.2211 H   0  0  0  0  0  0  0  0  0  0  0  0
  141.5547   71.6866  227.1921 H   0  0  0  0  0  0  0  0  0  0  0  0
  1  2  2  0
  2  3  1  0
  3  4  1  0
  4  5  1  0
  5  6  2  0
  5  7  1  0
  7  8  1  0
  8  9  1  0
  9 10  1  0
 10 11  1  0
 11 12  1  0
 12 13  2  0
 13 14  1  0
 14 15  2  0
 15 16  1  0
 15 17  1  0
 17 18  2  0
  2 19  1  0
 19 20  2  0
 20 21  1  0
 21 22  2  0
 22 23  1  0
 23 24  2  0
 24 25  1  0
 24 26  1  0
 26 27  2  0
 27 28  1  0
 28 29  2  0
 11  7  1  0
 18 12  1  0
 29 19  1  0
 28 22  1  0
  3 30  1  0
  4 31  1  0
  4 32  1  0
  8 33  1  0
  8 34  1  0
  9 35  1  0
  9 36  1  0
 10 37  1  0
 10 38  1  0
 11 39  1  6
 13 40  1  0
 14 41  1  0
 17 42  1  0
 18 43  1  0
 20 44  1  0
 21 45  1  0
 23 46  1  0
 26 47  1  0
 27 48  1  0
M  END
>  <meeko>  (14) 
{"free_energy": -8.98, "intermolecular_energy": -10.47, "internal_energy": -1.67, "cluster_size": 18, "cluster_id": 1, "rank_in_cluster": 9}

$$$$

     RDKit          3D

 48 51  0  0  0  0  0  0  0  0999 V2000
  139.9760   70.6580  221.3760 O   0  0  0  0  0  0  0  0  0  0  0  0
  139.8990   71.2760  222.4880 C   0  0  0  0  0  0  0  0  0  0  0  0
  139.8160   72.6820  222.5690 N   0  0  0  0  0  0  0  0  0  0  0  0
  139.8190   73.4640  221.3420 C   0  0  0  0  0  0  0  0  0  0  0  0
  139.9860   74.8960  221.6780 C   0  0  0  0  0  0  0  0  0  0  0  0
  139.3730   75.3800  222.6650 O   0  0  0  0  0  0  0  0  0  0  0  0
  140.8130   75.7700  220.9380 N   0  0  0  0  0  0  0  0  0  0  0  0
  142.1960   75.5880  220.4940 C   0  0  0  0  0  0  0  0  0  0  0  0
  142.0220   75.8870  219.0210 C   0  0  0  0  0  0  0  0  0  0  0  0
  141.0720   77.0590  219.0160 C   0  0  0  0  0  0  0  0  0  0  0  0
  140.4910   77.1150  220.4090 C   0  0  2  0  0  0  0  0  0  0  0  0
  141.0520   78.1470  221.2760 C   0  0  0  0  0  0  0  0  0  0  0  0
  141.6540   79.3060  220.8810 C   0  0  0  0  0  0  0  0  0  0  0  0
  142.1770   80.2420  221.7680 C   0  0  0  0  0  0  0  0  0  0  0  0
  142.1060   80.0300  223.1280 C   0  0  0  0  0  0  0  0  0  0  0  0
  142.7730   81.2270  224.2110 Cl  0  0  0  0  0  0  0  0  0  0  0  0
  141.5040   78.8710  223.5520 C   0  0  0  0  0  0  0  0  0  0  0  0
  140.9800   77.9330  222.6610 C   0  0  0  0  0  0  0  0  0  0  0  0
  139.8970   70.4840  223.7190 C   0  0  0  0  0  0  0  0  0  0  0  0
  139.3030   69.2400  223.7660 C   0  0  0  0  0  0  0  0  0  0  0  0
  139.2720   68.4550  224.8950 C   0  0  0  0  0  0  0  0  0  0  0  0
  139.8650   68.9340  226.0430 C   0  0  0  0  0  0  0  0  0  0  0  0
  139.8360   68.1480  227.1780 C   0  0  0  0  0  0  0  0  0  0  0  0
  140.4280   68.6170  228.3360 C   0  0  0  0  0  0  0  0  0  0  0  0
  140.3960   67.8420  229.4450 F   0  0  0  0  0  0  0  0  0  0  0  0
  141.0230   69.8600  228.2920 C   0  0  0  0  0  0  0  0  0  0  0  0
  141.0540   70.6480  227.1610 C   0  0  0  0  0  0  0  0  0  0  0  0
  140.4620   70.1790  226.0020 C   0  0  0  0  0  0  0  0  0  0  0  0
  140.4670   70.9230  224.8580 N   0  0  0  0  0  0  0  0  0  0  0  0
  139.7530   73.1840  223.4900 H   0  0  0  0  0  0  0  0  0  0  0  0
  140.6501   73.1375  220.6996 H   0  0  0  0  0  0  0  0  0  0  0  0
  138.8683   73.3180  220.8083 H   0  0  0  0  0  0  0  0  0  0  0  0
  142.8806   76.2989  220.9797 H   0  0  0  0  0  0  0  0  0  0  0  0
  142.6387   74.6080  220.7254 H   0  0  0  0  0  0  0  0  0  0  0  0
  142.9825   76.1560  218.5571 H   0  0  0  0  0  0  0  0  0  0  0  0
  141.6474   75.0261  218.4478 H   0  0  0  0  0  0  0  0  0  0  0  0
  141.6115   77.9899  218.7870 H   0  0  0  0  0  0  0  0  0  0  0  0
  140.2888   76.9456  218.2520 H   0  0  0  0  0  0  0  0  0  0  0  0
  139.4222   77.3734  220.3778 H   0  0  0  0  0  0  0  0  0  0  0  0
  141.7300   79.5116  219.8031 H   0  0  0  0  0  0  0  0  0  0  0  0
  142.6500   81.1567  221.3814 H   0  0  0  0  0  0  0  0  0  0  0  0
  141.4321   78.6748  224.6320 H   0  0  0  0  0  0  0  0  0  0  0  0
  140.5067   77.0184  223.0477 H   0  0  0  0  0  0  0  0  0  0  0  0
  138.8285   68.8550  222.8513 H   0  0  0  0  0  0  0  0  0  0  0  0
  138.7855   67.4685  224.8819 H   0  0  0  0  0  0  0  0  0  0  0  0
  139.3485   67.1621  227.1610 H   0  0  0  0  0  0  0  0  0  0  0  0
  141.4979   70.2431  229.2073 H   0  0  0  0  0  0  0  0  0  0  0  0
  141.5417   71.6338  227.1800 H   0  0  0  0  0  0  0  0  0  0  0  0
  1  2  2  0
  2  3  1  0
  3  4  1  0
  4  5  1  0
  5  6  2  0
  5  7  1  0
  7  8  1  0
  8  9  1  0
  9 10  1  0
 10 11  1  0
 11 12  1  0
 12 13  2  0
 13 14  1  0
 14 15  2  0
 15 16  1  0
 15 17  1  0
 17 18  2  0
  2 19  1  0
 19 20  2  0
 20 21  1  0
 21 22  2  0
 22 23  1  0
 23 24  2  0
 24 25  1  0
 24 26  1  0
 26 27  2  0
 27 28  1  0
 28 29  2  0
 11  7  1  0
 18 12  1  0
 29 19  1  0
 28 22  1  0
  3 30  1  0
  4 31  1  0
  4 32  1  0
  8 33  1  0
  8 34  1  0
  9 35  1  0
  9 36  1  0
 10 37  1  0
 10 38  1  0
 11 39  1  6
 13 40  1  0
 14 41  1  0
 17 42  1  0
 18 43  1  0
 20 44  1  0
 21 45  1  0
 23 46  1  0
 26 47  1  0
 27 48  1  0
M  END
>  <meeko>  (15) 
{"free_energy": -8.98, "intermolecular_energy": -10.47, "internal_energy": -1.66, "cluster_size": 18, "cluster_id": 1, "rank_in_cluster": 10}

$$$$

     RDKit          3D

 48 51  0  0  0  0  0  0  0  0999 V2000
  138.5090   70.7030  221.7040 O   0  0  0  0  0  0  0  0  0  0  0  0
  139.0470   71.2700  222.7110 C   0  0  0  0  0  0  0  0  0  0  0  0
  139.3630   72.6440  222.7290 N   0  0  0  0  0  0  0  0  0  0  0  0
  139.0680   73.4540  221.5560 C   0  0  0  0  0  0  0  0  0  0  0  0
  139.8460   74.7120  221.6260 C   0  0  0  0  0  0  0  0  0  0  0  0
  141.0630   74.6750  221.9440 O   0  0  0  0  0  0  0  0  0  0  0  0
  139.2880   75.9800  221.3490 N   0  0  0  0  0  0  0  0  0  0  0  0
  139.2370   76.7180  220.0860 C   0  0  0  0  0  0  0  0  0  0  0  0
  137.7520   77.0030  220.0280 C   0  0  0  0  0  0  0  0  0  0  0  0
  137.4120   77.3560  221.4550 C   0  0  0  0  0  0  0  0  0  0  0  0
  138.5960   76.9030  222.2770 C   0  0  2  0  0  0  0  0  0  0  0  0
  139.5020   77.9660  222.7010 C   0  0  0  0  0  0  0  0  0  0  0  0
  139.1550   79.2250  223.0960 C   0  0  0  0  0  0  0  0  0  0  0  0
  140.0780   80.1930  223.4790 C   0  0  0  0  0  0  0  0  0  0  0  0
  141.4270   79.9110  223.4750 C   0  0  0  0  0  0  0  0  0  0  0  0
  142.5560   81.1510  223.9620 Cl  0  0  0  0  0  0  0  0  0  0  0  0
  141.8030   78.6500  223.0820 C   0  0  0  0  0  0  0  0  0  0  0  0
  140.8750   77.6800  222.6980 C   0  0  0  0  0  0  0  0  0  0  0  0
  139.3420   70.4500  223.8880 C   0  0  0  0  0  0  0  0  0  0  0  0
  139.0000   69.1130  223.9300 C   0  0  0  0  0  0  0  0  0  0  0  0
  139.2530   68.2990  225.0090 C   0  0  0  0  0  0  0  0  0  0  0  0
  139.8810   68.8430  226.1090 C   0  0  0  0  0  0  0  0  0  0  0  0
  140.1360   68.0280  227.1940 C   0  0  0  0  0  0  0  0  0  0  0  0
  140.7650   68.5610  228.3020 C   0  0  0  0  0  0  0  0  0  0  0  0
  141.0130   67.7570  229.3620 F   0  0  0  0  0  0  0  0  0  0  0  0
  141.1080   69.8960  228.2630 C   0  0  0  0  0  0  0  0  0  0  0  0
  140.8540   70.7150  227.1820 C   0  0  0  0  0  0  0  0  0  0  0  0
  140.2250   70.1800  226.0720 C   0  0  0  0  0  0  0  0  0  0  0  0
  139.9530   70.9500  224.9780 N   0  0  0  0  0  0  0  0  0  0  0  0
  139.8070   73.1030  223.5640 H   0  0  0  0  0  0  0  0  0  0  0  0
  139.3450   72.9000  220.6470 H   0  0  0  0  0  0  0  0  0  0  0  0
  137.9929   73.6850  221.5267 H   0  0  0  0  0  0  0  0  0  0  0  0
  139.8317   77.6425  220.1258 H   0  0  0  0  0  0  0  0  0  0  0  0
  139.6478   76.1870  219.2147 H   0  0  0  0  0  0  0  0  0  0  0  0
  137.5380   77.8440  219.3520 H   0  0  0  0  0  0  0  0  0  0  0  0
  137.1653   76.1564  219.6418 H   0  0  0  0  0  0  0  0  0  0  0  0
  137.2655   78.4413  221.5579 H   0  0  0  0  0  0  0  0  0  0  0  0
  136.4794   76.8737  221.7832 H   0  0  0  0  0  0  0  0  0  0  0  0
  138.2663   76.4647  223.2305 H   0  0  0  0  0  0  0  0  0  0  0  0
  138.0873   79.4891  223.1125 H   0  0  0  0  0  0  0  0  0  0  0  0
  139.7289   81.1896  223.7869 H   0  0  0  0  0  0  0  0  0  0  0  0
  142.8730   78.3951  223.0693 H   0  0  0  0  0  0  0  0  0  0  0  0
  141.2237   76.6831  222.3905 H   0  0  0  0  0  0  0  0  0  0  0  0
  138.4986   68.6758  223.0539 H   0  0  0  0  0  0  0  0  0  0  0  0
  138.9611   67.2385  224.9947 H   0  0  0  0  0  0  0  0  0  0  0  0
  139.8420   66.9682  227.1761 H   0  0  0  0  0  0  0  0  0  0  0  0
  141.6104   70.3308  229.1396 H   0  0  0  0  0  0  0  0  0  0  0  0
  141.1466   71.7752  227.2024 H   0  0  0  0  0  0  0  0  0  0  0  0
  1  2  2  0
  2  3  1  0
  3  4  1  0
  4  5  1  0
  5  6  2  0
  5  7  1  0
  7  8  1  0
  8  9  1  0
  9 10  1  0
 10 11  1  0
 11 12  1  0
 12 13  2  0
 13 14  1  0
 14 15  2  0
 15 16  1  0
 15 17  1  0
 17 18  2  0
  2 19  1  0
 19 20  2  0
 20 21  1  0
 21 22  2  0
 22 23  1  0
 23 24  2  0
 24 25  1  0
 24 26  1  0
 26 27  2  0
 27 28  1  0
 28 29  2  0
 11  7  1  0
 18 12  1  0
 29 19  1  0
 28 22  1  0
  3 30  1  0
  4 31  1  0
  4 32  1  0
  8 33  1  0
  8 34  1  0
  9 35  1  0
  9 36  1  0
 10 37  1  0
 10 38  1  0
 11 39  1  1
 13 40  1  0
 14 41  1  0
 17 42  1  0
 18 43  1  0
 20 44  1  0
 21 45  1  0
 23 46  1  0
 26 47  1  0
 27 48  1  0
M  END
>  <meeko>  (16) 
{"free_energy": -8.87, "intermolecular_energy": -10.36, "internal_energy": -1.55, "cluster_size": 18, "cluster_id": 1, "rank_in_cluster": 12}

$$$$

     RDKit          3D

 48 51  0  0  0  0  0  0  0  0999 V2000
  139.7500   70.6530  221.4050 O   0  0  0  0  0  0  0  0  0  0  0  0
  139.8390   71.2710  222.5160 C   0  0  0  0  0  0  0  0  0  0  0  0
  139.9050   72.6770  222.5990 N   0  0  0  0  0  0  0  0  0  0  0  0
  139.8750   73.4610  221.3730 C   0  0  0  0  0  0  0  0  0  0  0  0
  140.0180   74.8960  221.7100 C   0  0  0  0  0  0  0  0  0  0  0  0
  139.4100   75.3660  222.7070 O   0  0  0  0  0  0  0  0  0  0  0  0
  140.8160   75.7880  220.9600 N   0  0  0  0  0  0  0  0  0  0  0  0
  142.1950   75.6320  220.4910 C   0  0  0  0  0  0  0  0  0  0  0  0
  141.9890   75.9340  219.0220 C   0  0  0  0  0  0  0  0  0  0  0  0
  141.0190   77.0890  219.0390 C   0  0  0  0  0  0  0  0  0  0  0  0
  140.4610   77.1290  220.4420 C   0  0  2  0  0  0  0  0  0  0  0  0
  141.0190   78.1670  221.3040 C   0  0  0  0  0  0  0  0  0  0  0  0
  141.6530   79.3060  220.9030 C   0  0  0  0  0  0  0  0  0  0  0  0
  142.1710   80.2500  221.7860 C   0  0  0  0  0  0  0  0  0  0  0  0
  142.0600   80.0660  223.1470 C   0  0  0  0  0  0  0  0  0  0  0  0
  142.7210   81.2720  224.2240 Cl  0  0  0  0  0  0  0  0  0  0  0  0
  141.4240   78.9270  223.5770 C   0  0  0  0  0  0  0  0  0  0  0  0
  140.9070   77.9810  222.6900 C   0  0  0  0  0  0  0  0  0  0  0  0
  139.8690   70.4770  223.7460 C   0  0  0  0  0  0  0  0  0  0  0  0
  139.2970   69.2220  223.8000 C   0  0  0  0  0  0  0  0  0  0  0  0
  139.2970   68.4350  224.9270 C   0  0  0  0  0  0  0  0  0  0  0  0
  139.9000   68.9220  226.0670 C   0  0  0  0  0  0  0  0  0  0  0  0
  139.9030   68.1340  227.2010 C   0  0  0  0  0  0  0  0  0  0  0  0
  140.5050   68.6110  228.3500 C   0  0  0  0  0  0  0  0  0  0  0  0
  140.5040   67.8340  229.4580 F   0  0  0  0  0  0  0  0  0  0  0  0
  141.0780   69.8640  228.2990 C   0  0  0  0  0  0  0  0  0  0  0  0
  141.0770   70.6550  227.1690 C   0  0  0  0  0  0  0  0  0  0  0  0
  140.4760   70.1770  226.0190 C   0  0  0  0  0  0  0  0  0  0  0  0
  140.4500   70.9230  224.8760 N   0  0  0  0  0  0  0  0  0  0  0  0
  139.9780   73.1790  223.5200 H   0  0  0  0  0  0  0  0  0  0  0  0
  140.7034   73.1523  220.7184 H   0  0  0  0  0  0  0  0  0  0  0  0
  138.9202   73.2967  220.8521 H   0  0  0  0  0  0  0  0  0  0  0  0
  142.8755   76.3530  220.9676 H   0  0  0  0  0  0  0  0  0  0  0  0
  142.6592   74.6592  220.7106 H   0  0  0  0  0  0  0  0  0  0  0  0
  142.9361   76.2216  218.5421 H   0  0  0  0  0  0  0  0  0  0  0  0
  141.6190   75.0690  218.4520 H   0  0  0  0  0  0  0  0  0  0  0  0
  141.5382   78.0301  218.8051 H   0  0  0  0  0  0  0  0  0  0  0  0
  140.2248   76.9651  218.2881 H   0  0  0  0  0  0  0  0  0  0  0  0
  139.3875   77.3685  220.4297 H   0  0  0  0  0  0  0  0  0  0  0  0
  141.7610   79.4888  219.8237 H   0  0  0  0  0  0  0  0  0  0  0  0
  142.6717   81.1478  221.3947 H   0  0  0  0  0  0  0  0  0  0  0  0
  141.3183   78.7542  224.6582 H   0  0  0  0  0  0  0  0  0  0  0  0
  140.4077   77.0823  223.0811 H   0  0  0  0  0  0  0  0  0  0  0  0
  138.8151   68.8304  222.8920 H   0  0  0  0  0  0  0  0  0  0  0  0
  138.8271   67.4404  224.9194 H   0  0  0  0  0  0  0  0  0  0  0  0
  139.4325   67.1398  227.1900 H   0  0  0  0  0  0  0  0  0  0  0  0
  141.5614   70.2533  229.2072 H   0  0  0  0  0  0  0  0  0  0  0  0
  141.5465   71.6497  227.1824 H   0  0  0  0  0  0  0  0  0  0  0  0
  1  2  2  0
  2  3  1  0
  3  4  1  0
  4  5  1  0
  5  6  2  0
  5  7  1  0
  7  8  1  0
  8  9  1  0
  9 10  1  0
 10 11  1  0
 11 12  1  0
 12 13  2  0
 13 14  1  0
 14 15  2  0
 15 16  1  0
 15 17  1  0
 17 18  2  0
  2 19  1  0
 19 20  2  0
 20 21  1  0
 21 22  2  0
 22 23  1  0
 23 24  2  0
 24 25  1  0
 24 26  1  0
 26 27  2  0
 27 28  1  0
 28 29  2  0
 11  7  1  0
 18 12  1  0
 29 19  1  0
 28 22  1  0
  3 30  1  0
  4 31  1  0
  4 32  1  0
  8 33  1  0
  8 34  1  0
  9 35  1  0
  9 36  1  0
 10 37  1  0
 10 38  1  0
 11 39  1  6
 13 40  1  0
 14 41  1  0
 17 42  1  0
 18 43  1  0
 20 44  1  0
 21 45  1  0
 23 46  1  0
 26 47  1  0
 27 48  1  0
M  END
>  <meeko>  (17) 
{"free_energy": -8.94, "intermolecular_energy": -10.43, "internal_energy": -1.67, "cluster_size": 18, "cluster_id": 1, "rank_in_cluster": 11}

$$$$

     RDKit          3D

 48 51  0  0  0  0  0  0  0  0999 V2000
  138.2600   70.7980  221.8840 O   0  0  0  0  0  0  0  0  0  0  0  0
  138.9360   71.3290  222.8250 C   0  0  0  0  0  0  0  0  0  0  0  0
  139.3780   72.6680  222.7790 N   0  0  0  0  0  0  0  0  0  0  0  0
  139.0560   73.4800  221.6150 C   0  0  0  0  0  0  0  0  0  0  0  0
  139.8430   74.7330  221.6650 C   0  0  0  0  0  0  0  0  0  0  0  0
  141.0620   74.6910  221.9740 O   0  0  0  0  0  0  0  0  0  0  0  0
  139.2920   76.0010  221.3770 N   0  0  0  0  0  0  0  0  0  0  0  0
  139.2430   76.7280  220.1060 C   0  0  0  0  0  0  0  0  0  0  0  0
  137.7590   77.0210  220.0490 C   0  0  0  0  0  0  0  0  0  0  0  0
  137.4250   77.3900  221.4730 C   0  0  0  0  0  0  0  0  0  0  0  0
  138.6080   76.9380  222.2970 C   0  0  2  0  0  0  0  0  0  0  0  0
  139.5220   77.9990  222.7090 C   0  0  0  0  0  0  0  0  0  0  0  0
  139.1830   79.2670  223.0850 C   0  0  0  0  0  0  0  0  0  0  0  0
  140.1130   80.2330  223.4570 C   0  0  0  0  0  0  0  0  0  0  0  0
  141.4600   79.9400  223.4600 C   0  0  0  0  0  0  0  0  0  0  0  0
  142.5980   81.1780  223.9330 Cl  0  0  0  0  0  0  0  0  0  0  0  0
  141.8270   78.6700  223.0860 C   0  0  0  0  0  0  0  0  0  0  0  0
  140.8920   77.7030  222.7130 C   0  0  0  0  0  0  0  0  0  0  0  0
  139.2570   70.5070  223.9930 C   0  0  0  0  0  0  0  0  0  0  0  0
  138.9400   69.1640  224.0290 C   0  0  0  0  0  0  0  0  0  0  0  0
  139.2190   68.3470  225.0990 C   0  0  0  0  0  0  0  0  0  0  0  0
  139.8480   68.8940  226.1970 C   0  0  0  0  0  0  0  0  0  0  0  0
  140.1290   68.0760  227.2730 C   0  0  0  0  0  0  0  0  0  0  0  0
  140.7600   68.6130  228.3790 C   0  0  0  0  0  0  0  0  0  0  0  0
  141.0330   67.8050  229.4310 F   0  0  0  0  0  0  0  0  0  0  0  0
  141.0790   69.9540  228.3460 C   0  0  0  0  0  0  0  0  0  0  0  0
  140.7990   70.7750  227.2730 C   0  0  0  0  0  0  0  0  0  0  0  0
  140.1690   70.2370  226.1660 C   0  0  0  0  0  0  0  0  0  0  0  0
  139.8710   71.0100  225.0810 N   0  0  0  0  0  0  0  0  0  0  0  0
  139.9350   73.0980  223.5600 H   0  0  0  0  0  0  0  0  0  0  0  0
  139.3051   72.9250  220.6985 H   0  0  0  0  0  0  0  0  0  0  0  0
  137.9819   73.7171  221.6145 H   0  0  0  0  0  0  0  0  0  0  0  0
  139.8432   77.6493  220.1359 H   0  0  0  0  0  0  0  0  0  0  0  0
  139.6490   76.1867  219.2388 H   0  0  0  0  0  0  0  0  0  0  0  0
  137.5480   77.8565  219.3653 H   0  0  0  0  0  0  0  0  0  0  0  0
  137.1664   76.1741  219.6727 H   0  0  0  0  0  0  0  0  0  0  0  0
  137.2854   78.4772  221.5655 H   0  0  0  0  0  0  0  0  0  0  0  0
  136.4904   76.9165  221.8081 H   0  0  0  0  0  0  0  0  0  0  0  0
  138.2773   76.5119  223.2557 H   0  0  0  0  0  0  0  0  0  0  0  0
  138.1174   79.5397  223.0944 H   0  0  0  0  0  0  0  0  0  0  0  0
  139.7712   81.2365  223.7504 H   0  0  0  0  0  0  0  0  0  0  0  0
  142.8948   78.4060  223.0803 H   0  0  0  0  0  0  0  0  0  0  0  0
  141.2335   76.6994  222.4195 H   0  0  0  0  0  0  0  0  0  0  0  0
  138.4374   68.7240  223.1551 H   0  0  0  0  0  0  0  0  0  0  0  0
  138.9466   67.2814  225.0794 H   0  0  0  0  0  0  0  0  0  0  0  0
  139.8543   67.0111  227.2503 H   0  0  0  0  0  0  0  0  0  0  0  0
  141.5828   70.3920  229.2203 H   0  0  0  0  0  0  0  0  0  0  0  0
  141.0725   71.8402  227.2978 H   0  0  0  0  0  0  0  0  0  0  0  0
  1  2  2  0
  2  3  1  0
  3  4  1  0
  4  5  1  0
  5  6  2  0
  5  7  1  0
  7  8  1  0
  8  9  1  0
  9 10  1  0
 10 11  1  0
 11 12  1  0
 12 13  2  0
 13 14  1  0
 14 15  2  0
 15 16  1  0
 15 17  1  0
 17 18  2  0
  2 19  1  0
 19 20  2  0
 20 21  1  0
 21 22  2  0
 22 23  1  0
 23 24  2  0
 24 25  1  0
 24 26  1  0
 26 27  2  0
 27 28  1  0
 28 29  2  0
 11  7  1  0
 18 12  1  0
 29 19  1  0
 28 22  1  0
  3 30  1  0
  4 31  1  0
  4 32  1  0
  8 33  1  0
  8 34  1  0
  9 35  1  0
  9 36  1  0
 10 37  1  0
 10 38  1  0
 11 39  1  1
 13 40  1  0
 14 41  1  0
 17 42  1  0
 18 43  1  0
 20 44  1  0
 21 45  1  0
 23 46  1  0
 26 47  1  0
 27 48  1  0
M  END
>  <meeko>  (18) 
{"free_energy": -8.84, "intermolecular_energy": -10.33, "internal_energy": -1.61, "cluster_size": 18, "cluster_id": 1, "rank_in_cluster": 13}

$$$$

     RDKit          3D

 48 51  0  0  0  0  0  0  0  0999 V2000
  138.1830   70.7260  221.9170 O   0  0  0  0  0  0  0  0  0  0  0  0
  138.8820   71.2510  222.8460 C   0  0  0  0  0  0  0  0  0  0  0  0
  139.3310   72.5870  222.7940 N   0  0  0  0  0  0  0  0  0  0  0  0
  138.9900   73.4050  221.6390 C   0  0  0  0  0  0  0  0  0  0  0  0
  139.8250   74.6260  221.6450 C   0  0  0  0  0  0  0  0  0  0  0  0
  141.0550   74.5390  221.8990 O   0  0  0  0  0  0  0  0  0  0  0  0
  139.3100   75.9140  221.3750 N   0  0  0  0  0  0  0  0  0  0  0  0
  139.2450   76.6420  220.1060 C   0  0  0  0  0  0  0  0  0  0  0  0
  137.7720   76.9880  220.0980 C   0  0  0  0  0  0  0  0  0  0  0  0
  137.4980   77.3680  221.5310 C   0  0  0  0  0  0  0  0  0  0  0  0
  138.6900   76.8740  222.3170 C   0  0  2  0  0  0  0  0  0  0  0  0
  139.6540   77.9020  222.6980 C   0  0  0  0  0  0  0  0  0  0  0  0
  141.0130   77.7810  222.7100 C   0  0  0  0  0  0  0  0  0  0  0  0
  141.8720   78.8050  223.0970 C   0  0  0  0  0  0  0  0  0  0  0  0
  141.3690   80.0240  223.4960 C   0  0  0  0  0  0  0  0  0  0  0  0
  142.4790   81.2860  223.9740 Cl  0  0  0  0  0  0  0  0  0  0  0  0
  140.0040   80.1720  223.4910 C   0  0  0  0  0  0  0  0  0  0  0  0
  139.1440   79.1430  223.1040 C   0  0  0  0  0  0  0  0  0  0  0  0
  139.2210   70.4240  224.0050 C   0  0  0  0  0  0  0  0  0  0  0  0
  138.9080   69.0800  224.0390 C   0  0  0  0  0  0  0  0  0  0  0  0
  139.2030   68.2590  225.1020 C   0  0  0  0  0  0  0  0  0  0  0  0
  139.8480   68.8020  226.1930 C   0  0  0  0  0  0  0  0  0  0  0  0
  140.1460   67.9800  227.2610 C   0  0  0  0  0  0  0  0  0  0  0  0
  140.7920   68.5130  228.3600 C   0  0  0  0  0  0  0  0  0  0  0  0
  141.0820   67.7020  229.4030 F   0  0  0  0  0  0  0  0  0  0  0  0
  141.1070   69.8550  228.3280 C   0  0  0  0  0  0  0  0  0  0  0  0
  140.8100   70.6810  227.2640 C   0  0  0  0  0  0  0  0  0  0  0  0
  140.1650   70.1470  226.1640 C   0  0  0  0  0  0  0  0  0  0  0  0
  139.8500   70.9240  225.0860 N   0  0  0  0  0  0  0  0  0  0  0  0
  139.9060   73.0120  223.5640 H   0  0  0  0  0  0  0  0  0  0  0  0
  139.1772   72.8356  220.7166 H   0  0  0  0  0  0  0  0  0  0  0  0
  137.9269   73.6837  221.6841 H   0  0  0  0  0  0  0  0  0  0  0  0
  139.8786   77.5412  220.1148 H   0  0  0  0  0  0  0  0  0  0  0  0
  139.6023   76.0865  219.2264 H   0  0  0  0  0  0  0  0  0  0  0  0
  137.5687   77.8308  219.4209 H   0  0  0  0  0  0  0  0  0  0  0  0
  137.1376   76.1627  219.7423 H   0  0  0  0  0  0  0  0  0  0  0  0
  137.4003   78.4594  221.6269 H   0  0  0  0  0  0  0  0  0  0  0  0
  136.5585   76.9278  221.8965 H   0  0  0  0  0  0  0  0  0  0  0  0
  138.3760   76.4594  223.2863 H   0  0  0  0  0  0  0  0  0  0  0  0
  141.4531   76.8227  222.3970 H   0  0  0  0  0  0  0  0  0  0  0  0
  142.9595   78.6402  223.0843 H   0  0  0  0  0  0  0  0  0  0  0  0
  139.5732   81.1349  223.8028 H   0  0  0  0  0  0  0  0  0  0  0  0
  138.0564   79.3073  223.1177 H   0  0  0  0  0  0  0  0  0  0  0  0
  138.3954   68.6425  223.1696 H   0  0  0  0  0  0  0  0  0  0  0  0
  138.9306   67.1934  225.0824 H   0  0  0  0  0  0  0  0  0  0  0  0
  139.8728   66.9147  227.2376 H   0  0  0  0  0  0  0  0  0  0  0  0
  141.6224   70.2899  229.1970 H   0  0  0  0  0  0  0  0  0  0  0  0
  141.0818   71.7466  227.2903 H   0  0  0  0  0  0  0  0  0  0  0  0
  1  2  2  0
  2  3  1  0
  3  4  1  0
  4  5  1  0
  5  6  2  0
  5  7  1  0
  7  8  1  0
  8  9  1  0
  9 10  1  0
 10 11  1  0
 11 12  1  0
 12 13  2  0
 13 14  1  0
 14 15  2  0
 15 16  1  0
 15 17  1  0
 17 18  2  0
  2 19  1  0
 19 20  2  0
 20 21  1  0
 21 22  2  0
 22 23  1  0
 23 24  2  0
 24 25  1  0
 24 26  1  0
 26 27  2  0
 27 28  1  0
 28 29  2  0
 11  7  1  0
 18 12  1  0
 29 19  1  0
 28 22  1  0
  3 30  1  0
  4 31  1  0
  4 32  1  0
  8 33  1  0
  8 34  1  0
  9 35  1  0
  9 36  1  0
 10 37  1  0
 10 38  1  0
 11 39  1  1
 13 40  1  0
 14 41  1  0
 17 42  1  0
 18 43  1  0
 20 44  1  0
 21 45  1  0
 23 46  1  0
 26 47  1  0
 27 48  1  0
M  END
>  <meeko>  (19) 
{"free_energy": -8.81, "intermolecular_energy": -10.3, "internal_energy": -1.61, "cluster_size": 18, "cluster_id": 1, "rank_in_cluster": 15}

$$$$

     RDKit          3D

 48 51  0  0  0  0  0  0  0  0999 V2000
  138.3860   72.4280  222.1830 O   0  0  0  0  0  0  0  0  0  0  0  0
  139.5340   72.2880  222.7190 C   0  0  0  0  0  0  0  0  0  0  0  0
  140.6640   73.0160  222.2910 N   0  0  0  0  0  0  0  0  0  0  0  0
  140.5230   73.9640  221.1960 C   0  0  0  0  0  0  0  0  0  0  0  0
  141.8670   74.3950  220.7500 C   0  0  0  0  0  0  0  0  0  0  0  0
  142.8540   73.6330  220.9210 O   0  0  0  0  0  0  0  0  0  0  0  0
  142.1110   75.6410  220.1300 N   0  0  0  0  0  0  0  0  0  0  0  0
  143.3400   76.1510  219.5190 C   0  0  0  0  0  0  0  0  0  0  0  0
  142.7920   76.5530  218.1670 C   0  0  0  0  0  0  0  0  0  0  0  0
  141.4610   77.1770  218.5050 C   0  0  0  0  0  0  0  0  0  0  0  0
  141.1730   76.7690  219.9310 C   0  0  2  0  0  0  0  0  0  0  0  0
  141.4070   77.8040  220.9340 C   0  0  0  0  0  0  0  0  0  0  0  0
  141.2540   77.6800  222.2840 C   0  0  0  0  0  0  0  0  0  0  0  0
  141.4870   78.7170  223.1820 C   0  0  0  0  0  0  0  0  0  0  0  0
  141.8970   79.9530  222.7300 C   0  0  0  0  0  0  0  0  0  0  0  0
  142.1800   81.2310  223.8870 Cl  0  0  0  0  0  0  0  0  0  0  0  0
  142.0600   80.1030  221.3740 C   0  0  0  0  0  0  0  0  0  0  0  0
  141.8240   79.0610  220.4750 C   0  0  0  0  0  0  0  0  0  0  0  0
  139.6700   71.3330  223.8200 C   0  0  0  0  0  0  0  0  0  0  0  0
  139.1970   70.0420  223.7070 C   0  0  0  0  0  0  0  0  0  0  0  0
  139.2980   69.1060  224.7100 C   0  0  0  0  0  0  0  0  0  0  0  0
  139.9040   69.4730  225.8920 C   0  0  0  0  0  0  0  0  0  0  0  0
  140.0070   68.5360  226.9010 C   0  0  0  0  0  0  0  0  0  0  0  0
  140.6130   68.8920  228.0910 C   0  0  0  0  0  0  0  0  0  0  0  0
  140.7110   67.9680  229.0750 F   0  0  0  0  0  0  0  0  0  0  0  0
  141.0870   70.1820  228.2060 C   0  0  0  0  0  0  0  0  0  0  0  0
  140.9850   71.1220  227.2020 C   0  0  0  0  0  0  0  0  0  0  0  0
  140.3800   70.7650  226.0110 C   0  0  0  0  0  0  0  0  0  0  0  0
  140.2550   71.6600  224.9880 N   0  0  0  0  0  0  0  0  0  0  0  0
  141.6070   72.8950  222.7390 H   0  0  0  0  0  0  0  0  0  0  0  0
  139.9940   73.4840  220.3595 H   0  0  0  0  0  0  0  0  0  0  0  0
  139.9480   74.8382  221.5354 H   0  0  0  0  0  0  0  0  0  0  0  0
  143.7469   77.0116  220.0702 H   0  0  0  0  0  0  0  0  0  0  0  0
  144.1815   75.4430  219.4937 H   0  0  0  0  0  0  0  0  0  0  0  0
  143.4541   77.2796  217.6734 H   0  0  0  0  0  0  0  0  0  0  0  0
  142.7067   75.7079  217.4680 H   0  0  0  0  0  0  0  0  0  0  0  0
  141.5183   78.2724  218.4229 H   0  0  0  0  0  0  0  0  0  0  0  0
  140.6688   76.8446  217.8180 H   0  0  0  0  0  0  0  0  0  0  0  0
  140.1066   76.5340  220.0636 H   0  0  0  0  0  0  0  0  0  0  0  0
  140.9290   76.7082  222.6840 H   0  0  0  0  0  0  0  0  0  0  0  0
  141.3431   78.5494  224.2596 H   0  0  0  0  0  0  0  0  0  0  0  0
  142.3877   81.0776  220.9831 H   0  0  0  0  0  0  0  0  0  0  0  0
  141.9666   79.2280  219.3972 H   0  0  0  0  0  0  0  0  0  0  0  0
  138.7133   69.7453  222.7647 H   0  0  0  0  0  0  0  0  0  0  0  0
  138.9042   68.0883  224.5718 H   0  0  0  0  0  0  0  0  0  0  0  0
  139.6118   67.5193  226.7595 H   0  0  0  0  0  0  0  0  0  0  0  0
  141.5720   70.4767  229.1483 H   0  0  0  0  0  0  0  0  0  0  0  0
  141.3785   72.1390  227.3463 H   0  0  0  0  0  0  0  0  0  0  0  0
  1  2  2  0
  2  3  1  0
  3  4  1  0
  4  5  1  0
  5  6  2  0
  5  7  1  0
  7  8  1  0
  8  9  1  0
  9 10  1  0
 10 11  1  0
 11 12  1  0
 12 13  2  0
 13 14  1  0
 14 15  2  0
 15 16  1  0
 15 17  1  0
 17 18  2  0
  2 19  1  0
 19 20  2  0
 20 21  1  0
 21 22  2  0
 22 23  1  0
 23 24  2  0
 24 25  1  0
 24 26  1  0
 26 27  2  0
 27 28  1  0
 28 29  2  0
 11  7  1  0
 18 12  1  0
 29 19  1  0
 28 22  1  0
  3 30  1  0
  4 31  1  0
  4 32  1  0
  8 33  1  0
  8 34  1  0
  9 35  1  0
  9 36  1  0
 10 37  1  0
 10 38  1  0
 11 39  1  6
 13 40  1  0
 14 41  1  0
 17 42  1  0
 18 43  1  0
 20 44  1  0
 21 45  1  0
 23 46  1  0
 26 47  1  0
 27 48  1  0
M  END
>  <meeko>  (20) 
{"free_energy": -8.49, "intermolecular_energy": -9.98, "internal_energy": -1.69, "cluster_size": 18, "cluster_id": 1, "rank_in_cluster": 17}

$$$$
