
     RDKit          3D

 48 51  0  0  0  0  0  0  0  0999 V2000
  138.8490   71.0710  221.5760 O   0  0  0  0  0  0  0  0  0  0  0  0
  139.2960   71.5100  222.6730 C   0  0  0  0  0  0  0  0  0  0  0  0
  139.5950   72.8980  222.7240 N   0  0  0  0  0  0  0  0  0  0  0  0
  139.3580   73.6660  221.5160 C   0  0  0  0  0  0  0  0  0  0  0  0
  139.5300   75.1310  221.7750 C   0  0  0  0  0  0  0  0  0  0  0  0
  140.6020   75.4690  222.3260 O   0  0  0  0  0  0  0  0  0  0  0  0
  138.4930   76.0050  221.3870 N   0  0  0  0  0  0  0  0  0  0  0  0
  137.2210   75.6090  220.7330 C   0  0  0  0  0  0  0  0  0  0  0  0
  136.2220   76.4530  221.5310 C   0  0  0  0  0  0  0  0  0  0  0  0
  137.0540   77.5020  222.2820 C   0  0  0  0  0  0  0  0  0  0  0  0
  138.3430   77.4440  221.5060 C   0  0  1  0  0  0  0  0  0  0  0  0
  139.4650   78.1640  222.0710 C   0  0  0  0  0  0  0  0  0  0  0  0
  139.4060   78.8110  223.3040 C   0  0  0  0  0  0  0  0  0  0  0  0
  140.4390   79.5110  223.8410 C   0  0  0  0  0  0  0  0  0  0  0  0
  141.6350   79.6130  223.1610 C   0  0  0  0  0  0  0  0  0  0  0  0
  142.9910   80.5040  223.8180 Cl  0  0  0  0  0  0  0  0  0  0  0  0
  141.7260   78.9840  221.9370 C   0  0  0  0  0  0  0  0  0  0  0  0
  140.6560   78.2650  221.3920 C   0  0  0  0  0  0  0  0  0  0  0  0
  139.4980   70.6470  223.8330 C   0  0  0  0  0  0  0  0  0  0  0  0
  139.0750   69.3370  223.7380 C   0  0  0  0  0  0  0  0  0  0  0  0
  139.2460   68.4970  224.8030 C   0  0  0  0  0  0  0  0  0  0  0  0
  139.8410   68.9880  225.9480 C   0  0  0  0  0  0  0  0  0  0  0  0
  140.0300   68.1660  227.0430 C   0  0  0  0  0  0  0  0  0  0  0  0
  140.6310   68.6560  228.2050 C   0  0  0  0  0  0  0  0  0  0  0  0
  140.7900   67.8160  229.2370 F   0  0  0  0  0  0  0  0  0  0  0  0
  141.0480   69.9780  228.2760 C   0  0  0  0  0  0  0  0  0  0  0  0
  140.8610   70.8120  227.1770 C   0  0  0  0  0  0  0  0  0  0  0  0
  140.2650   70.3040  226.0400 C   0  0  0  0  0  0  0  0  0  0  0  0
  140.0800   71.1110  224.9650 N   0  0  0  0  0  0  0  0  0  0  0  0
  139.9710   73.3310  223.6050 H   0  0  0  0  0  0  0  0  0  0  0  0
  140.0728   73.3503  220.7418 H   0  0  0  0  0  0  0  0  0  0  0  0
  138.3260   73.4860  221.1805 H   0  0  0  0  0  0  0  0  0  0  0  0
  137.2140   75.8732  219.6652 H   0  0  0  0  0  0  0  0  0  0  0  0
  137.0180   74.5279  220.7424 H   0  0  0  0  0  0  0  0  0  0  0  0
  135.5102   76.9452  220.8520 H   0  0  0  0  0  0  0  0  0  0  0  0
  135.6367   75.8324  222.2255 H   0  0  0  0  0  0  0  0  0  0  0  0
  136.5930   78.4993  222.2281 H   0  0  0  0  0  0  0  0  0  0  0  0
  137.1614   77.3129  223.3603 H   0  0  0  0  0  0  0  0  0  0  0  0
  138.3172   77.9762  220.5437 H   0  0  0  0  0  0  0  0  0  0  0  0
  138.4682   78.7513  223.8758 H   0  0  0  0  0  0  0  0  0  0  0  0
  140.3215   79.9977  224.8205 H   0  0  0  0  0  0  0  0  0  0  0  0
  142.6677   79.0494  221.3722 H   0  0  0  0  0  0  0  0  0  0  0  0
  140.7690   77.7769  220.4127 H   0  0  0  0  0  0  0  0  0  0  0  0
  138.6043   68.9717  222.8134 H   0  0  0  0  0  0  0  0  0  0  0  0
  138.9156   67.4492  224.7486 H   0  0  0  0  0  0  0  0  0  0  0  0
  139.7042   67.1163  226.9991 H   0  0  0  0  0  0  0  0  0  0  0  0
  141.5214   70.3628  229.1913 H   0  0  0  0  0  0  0  0  0  0  0  0
  141.1841   71.8628  227.2142 H   0  0  0  0  0  0  0  0  0  0  0  0
  1  2  2  0
  2  3  1  0
  3  4  1  0
  4  5  1  0
  5  6  2  0
  5  7  1  0
  7  8  1  0
  8  9  1  0
  9 10  1  0
 10 11  1  0
 11 12  1  0
 12 13  2  0
 13 14  1  0
 14 15  2  0
 15 16  1  0
 15 17  1  0
 17 18  2  0
  2 19  1  0
 19 20  2  0
 20 21  1  0
 21 22  2  0
 22 23  1  0
 23 24  2  0
 24 25  1  0
 24 26  1  0
 26 27  2  0
 27 28  1  0
 28 29  2  0
 11  7  1  0
 18 12  1  0
 29 19  1  0
 28 22  1  0
  3 30  1  0
  4 31  1  0
  4 32  1  0
  8 33  1  0
  8 34  1  0
  9 35  1  0
  9 36  1  0
 10 37  1  0
 10 38  1  0
 11 39  1  6
 13 40  1  0
 14 41  1  0
 17 42  1  0
 18 43  1  0
 20 44  1  0
 21 45  1  0
 23 46  1  0
 26 47  1  0
 27 48  1  0
M  END
>  <meeko>  (1) 
{"free_energy": -8.49, "intermolecular_energy": -9.98, "internal_energy": -1.57, "cluster_size": 11, "cluster_id": 1, "rank_in_cluster": 10}

$$$$

     RDKit          3D

 48 51  0  0  0  0  0  0  0  0999 V2000
  141.4520   71.9600  221.5830 O   0  0  0  0  0  0  0  0  0  0  0  0
  140.6360   72.2680  222.4980 C   0  0  0  0  0  0  0  0  0  0  0  0
  139.9440   73.4990  222.3390 N   0  0  0  0  0  0  0  0  0  0  0  0
  140.2430   74.2730  221.1480 C   0  0  0  0  0  0  0  0  0  0  0  0
  140.3230   75.7330  221.4680 C   0  0  0  0  0  0  0  0  0  0  0  0
  139.4510   76.1710  222.2530 O   0  0  0  0  0  0  0  0  0  0  0  0
  141.3530   76.4930  220.8750 N   0  0  0  0  0  0  0  0  0  0  0  0
  142.4280   75.9650  219.9990 C   0  0  0  0  0  0  0  0  0  0  0  0
  142.4320   77.0240  218.8910 C   0  0  0  0  0  0  0  0  0  0  0  0
  141.6380   78.2170  219.4410 C   0  0  0  0  0  0  0  0  0  0  0  0
  141.6580   77.9110  220.9150 C   0  0  1  0  0  0  0  0  0  0  0  0
  140.8050   78.7290  221.7510 C   0  0  0  0  0  0  0  0  0  0  0  0
  141.1630   79.1260  223.0380 C   0  0  0  0  0  0  0  0  0  0  0  0
  140.3670   79.8740  223.8480 C   0  0  0  0  0  0  0  0  0  0  0  0
  139.1250   80.2860  223.4100 C   0  0  0  0  0  0  0  0  0  0  0  0
  138.0710   81.2520  224.4210 Cl  0  0  0  0  0  0  0  0  0  0  0  0
  138.7410   79.9090  222.1400 C   0  0  0  0  0  0  0  0  0  0  0  0
  139.5670   79.1390  221.3150 C   0  0  0  0  0  0  0  0  0  0  0  0
  140.4090   71.4150  223.6590 C   0  0  0  0  0  0  0  0  0  0  0  0
  139.7370   70.2260  223.4590 C   0  0  0  0  0  0  0  0  0  0  0  0
  139.5040   69.3980  224.5220 C   0  0  0  0  0  0  0  0  0  0  0  0
  139.9520   69.7790  225.7710 C   0  0  0  0  0  0  0  0  0  0  0  0
  139.7340   68.9660  226.8680 C   0  0  0  0  0  0  0  0  0  0  0  0
  140.1840   69.3440  228.1350 C   0  0  0  0  0  0  0  0  0  0  0  0
  139.9460   68.5180  229.1630 F   0  0  0  0  0  0  0  0  0  0  0  0
  140.8580   70.5450  228.3110 C   0  0  0  0  0  0  0  0  0  0  0  0
  141.0810   71.3690  227.2110 C   0  0  0  0  0  0  0  0  0  0  0  0
  140.6260   70.9730  225.9690 C   0  0  0  0  0  0  0  0  0  0  0  0
  140.8410   71.7710  224.8940 N   0  0  0  0  0  0  0  0  0  0  0  0
  139.2500   73.8190  223.0620 H   0  0  0  0  0  0  0  0  0  0  0  0
  141.2070   73.9411  220.7350 H   0  0  0  0  0  0  0  0  0  0  0  0
  139.4378   74.1167  220.4150 H   0  0  0  0  0  0  0  0  0  0  0  0
  143.3942   75.9220  220.5230 H   0  0  0  0  0  0  0  0  0  0  0  0
  142.2680   74.9350  219.6476 H   0  0  0  0  0  0  0  0  0  0  0  0
  143.4630   77.3271  218.6561 H   0  0  0  0  0  0  0  0  0  0  0  0
  141.9856   76.6371  217.9631 H   0  0  0  0  0  0  0  0  0  0  0  0
  142.1360   79.1723  219.2187 H   0  0  0  0  0  0  0  0  0  0  0  0
  140.6314   78.3317  219.0124 H   0  0  0  0  0  0  0  0  0  0  0  0
  142.6065   78.1549  221.4158 H   0  0  0  0  0  0  0  0  0  0  0  0
  142.1466   78.8163  223.4209 H   0  0  0  0  0  0  0  0  0  0  0  0
  140.7139   80.1512  224.8544 H   0  0  0  0  0  0  0  0  0  0  0  0
  137.7558   80.2233  221.7650 H   0  0  0  0  0  0  0  0  0  0  0  0
  139.2233   78.8588  220.3083 H   0  0  0  0  0  0  0  0  0  0  0  0
  139.3917   69.9468  222.4526 H   0  0  0  0  0  0  0  0  0  0  0  0
  138.9697   68.4464  224.3845 H   0  0  0  0  0  0  0  0  0  0  0  0
  139.2009   68.0122  226.7416 H   0  0  0  0  0  0  0  0  0  0  0  0
  141.2121   70.8424  229.3091 H   0  0  0  0  0  0  0  0  0  0  0  0
  141.6134   72.3242  227.3301 H   0  0  0  0  0  0  0  0  0  0  0  0
  1  2  2  0
  2  3  1  0
  3  4  1  0
  4  5  1  0
  5  6  2  0
  5  7  1  0
  7  8  1  0
  8  9  1  0
  9 10  1  0
 10 11  1  0
 11 12  1  0
 12 13  2  0
 13 14  1  0
 14 15  2  0
 15 16  1  0
 15 17  1  0
 17 18  2  0
  2 19  1  0
 19 20  2  0
 20 21  1  0
 21 22  2  0
 22 23  1  0
 23 24  2  0
 24 25  1  0
 24 26  1  0
 26 27  2  0
 27 28  1  0
 28 29  2  0
 11  7  1  0
 18 12  1  0
 29 19  1  0
 28 22  1  0
  3 30  1  0
  4 31  1  0
  4 32  1  0
  8 33  1  0
  8 34  1  0
  9 35  1  0
  9 36  1  0
 10 37  1  0
 10 38  1  0
 11 39  1  1
 13 40  1  0
 14 41  1  0
 17 42  1  0
 18 43  1  0
 20 44  1  0
 21 45  1  0
 23 46  1  0
 26 47  1  0
 27 48  1  0
M  END
>  <meeko>  (2) 
{"free_energy": -8.6, "intermolecular_energy": -10.09, "internal_energy": -1.51, "cluster_size": 11, "cluster_id": 1, "rank_in_cluster": 6}

$$$$

     RDKit          3D

 48 51  0  0  0  0  0  0  0  0999 V2000
  141.1780   72.1390  221.8280 O   0  0  0  0  0  0  0  0  0  0  0  0
  140.2110   72.1430  222.6420 C   0  0  0  0  0  0  0  0  0  0  0  0
  139.1850   73.0960  222.4000 N   0  0  0  0  0  0  0  0  0  0  0  0
  139.3530   73.9650  221.2500 C   0  0  0  0  0  0  0  0  0  0  0  0
  139.5240   75.3890  221.6790 C   0  0  0  0  0  0  0  0  0  0  0  0
  140.6380   75.6840  222.1680 O   0  0  0  0  0  0  0  0  0  0  0  0
  138.4410   76.2760  221.5050 N   0  0  0  0  0  0  0  0  0  0  0  0
  137.0860   75.9080  221.0240 C   0  0  0  0  0  0  0  0  0  0  0  0
  136.2160   76.6930  222.0120 C   0  0  0  0  0  0  0  0  0  0  0  0
  137.1510   77.7010  222.6940 C   0  0  0  0  0  0  0  0  0  0  0  0
  138.3090   77.7030  221.7330 C   0  0  1  0  0  0  0  0  0  0  0  0
  139.5030   78.3970  222.1690 C   0  0  0  0  0  0  0  0  0  0  0  0
  140.6350   78.5320  221.3690 C   0  0  0  0  0  0  0  0  0  0  0  0
  141.7740   79.1600  221.7670 C   0  0  0  0  0  0  0  0  0  0  0  0
  141.8560   79.7090  223.0300 C   0  0  0  0  0  0  0  0  0  0  0  0
  143.3020   80.5270  223.5810 Cl  0  0  0  0  0  0  0  0  0  0  0  0
  140.7510   79.5920  223.8470 C   0  0  0  0  0  0  0  0  0  0  0  0
  139.5840   78.9440  223.4280 C   0  0  0  0  0  0  0  0  0  0  0  0
  140.1400   71.2220  223.7710 C   0  0  0  0  0  0  0  0  0  0  0  0
  139.5580   69.9890  223.5570 C   0  0  0  0  0  0  0  0  0  0  0  0
  139.4730   69.0970  224.5900 C   0  0  0  0  0  0  0  0  0  0  0  0
  139.9750   69.4600  225.8240 C   0  0  0  0  0  0  0  0  0  0  0  0
  139.9060   68.5830  226.8900 C   0  0  0  0  0  0  0  0  0  0  0  0
  140.4120   68.9430  228.1410 C   0  0  0  0  0  0  0  0  0  0  0  0
  140.3190   68.0540  229.1400 F   0  0  0  0  0  0  0  0  0  0  0  0
  140.9930   70.1890  228.3320 C   0  0  0  0  0  0  0  0  0  0  0  0
  141.0670   71.0780  227.2630 C   0  0  0  0  0  0  0  0  0  0  0  0
  140.5590   70.6980  226.0360 C   0  0  0  0  0  0  0  0  0  0  0  0
  140.6290   71.5590  224.9900 N   0  0  0  0  0  0  0  0  0  0  0  0
  138.3510   73.1550  223.0370 H   0  0  0  0  0  0  0  0  0  0  0  0
  140.2432   73.6490  220.6864 H   0  0  0  0  0  0  0  0  0  0  0  0
  138.4544   73.8926  220.6196 H   0  0  0  0  0  0  0  0  0  0  0  0
  136.9201   76.2361  219.9873 H   0  0  0  0  0  0  0  0  0  0  0  0
  136.8872   74.8264  220.9972 H   0  0  0  0  0  0  0  0  0  0  0  0
  135.4115   77.2195  221.4776 H   0  0  0  0  0  0  0  0  0  0  0  0
  135.7395   76.0263  222.7458 H   0  0  0  0  0  0  0  0  0  0  0  0
  136.6873   78.6954  222.7718 H   0  0  0  0  0  0  0  0  0  0  0  0
  137.4184   77.4465  223.7302 H   0  0  0  0  0  0  0  0  0  0  0  0
  138.1388   78.2927  220.8201 H   0  0  0  0  0  0  0  0  0  0  0  0
  140.6063   78.1056  220.3554 H   0  0  0  0  0  0  0  0  0  0  0  0
  142.6309   79.2302  221.0809 H   0  0  0  0  0  0  0  0  0  0  0  0
  140.7884   80.0213  224.8591 H   0  0  0  0  0  0  0  0  0  0  0  0
  138.7247   78.8715  224.1109 H   0  0  0  0  0  0  0  0  0  0  0  0
  139.1657   69.7259  222.5636 H   0  0  0  0  0  0  0  0  0  0  0  0
  139.0134   68.1089  224.4407 H   0  0  0  0  0  0  0  0  0  0  0  0
  139.4483   67.5923  226.7518 H   0  0  0  0  0  0  0  0  0  0  0  0
  141.3909   70.4712  229.3179 H   0  0  0  0  0  0  0  0  0  0  0  0
  141.5240   72.0700  227.3938 H   0  0  0  0  0  0  0  0  0  0  0  0
  1  2  2  0
  2  3  1  0
  3  4  1  0
  4  5  1  0
  5  6  2  0
  5  7  1  0
  7  8  1  0
  8  9  1  0
  9 10  1  0
 10 11  1  0
 11 12  1  0
 12 13  2  0
 13 14  1  0
 14 15  2  0
 15 16  1  0
 15 17  1  0
 17 18  2  0
  2 19  1  0
 19 20  2  0
 20 21  1  0
 21 22  2  0
 22 23  1  0
 23 24  2  0
 24 25  1  0
 24 26  1  0
 26 27  2  0
 27 28  1  0
 28 29  2  0
 11  7  1  0
 18 12  1  0
 29 19  1  0
 28 22  1  0
  3 30  1  0
  4 31  1  0
  4 32  1  0
  8 33  1  0
  8 34  1  0
  9 35  1  0
  9 36  1  0
 10 37  1  0
 10 38  1  0
 11 39  1  6
 13 40  1  0
 14 41  1  0
 17 42  1  0
 18 43  1  0
 20 44  1  0
 21 45  1  0
 23 46  1  0
 26 47  1  0
 27 48  1  0
M  END
>  <meeko>  (3) 
{"free_energy": -8.86, "intermolecular_energy": -10.35, "internal_energy": -1.21, "cluster_size": 11, "cluster_id": 1, "rank_in_cluster": 1}

$$$$

     RDKit          3D

 48 51  0  0  0  0  0  0  0  0999 V2000
  133.5650   70.0670  226.6850 O   0  0  0  0  0  0  0  0  0  0  0  0
  133.8340   71.1910  226.1740 C   0  0  0  0  0  0  0  0  0  0  0  0
  134.7870   71.1950  225.1200 N   0  0  0  0  0  0  0  0  0  0  0  0
  135.3520   69.9140  224.7390 C   0  0  0  0  0  0  0  0  0  0  0  0
  136.4190   70.0890  223.7030 C   0  0  0  0  0  0  0  0  0  0  0  0
  136.5370   71.2400  223.2270 O   0  0  0  0  0  0  0  0  0  0  0  0
  137.1960   68.9670  223.3470 N   0  0  0  0  0  0  0  0  0  0  0  0
  136.8140   67.9200  222.3680 C   0  0  0  0  0  0  0  0  0  0  0  0
  138.1260   67.7690  221.5910 C   0  0  0  0  0  0  0  0  0  0  0  0
  139.2040   68.4590  222.4400 C   0  0  0  0  0  0  0  0  0  0  0  0
  138.5100   68.5230  223.7740 C   0  0  1  0  0  0  0  0  0  0  0  0
  139.1580   69.3200  224.7960 C   0  0  0  0  0  0  0  0  0  0  0  0
  139.2260   68.9280  226.1310 C   0  0  0  0  0  0  0  0  0  0  0  0
  139.8090   69.6710  227.1090 C   0  0  0  0  0  0  0  0  0  0  0  0
  140.3780   70.8910  226.8060 C   0  0  0  0  0  0  0  0  0  0  0  0
  141.1390   71.8780  228.0350 Cl  0  0  0  0  0  0  0  0  0  0  0  0
  140.3260   71.3080  225.4920 C   0  0  0  0  0  0  0  0  0  0  0  0
  139.7240   70.5350  224.4930 C   0  0  0  0  0  0  0  0  0  0  0  0
  133.2060   72.4250  226.6330 C   0  0  0  0  0  0  0  0  0  0  0  0
  131.9870   72.3250  227.2720 C   0  0  0  0  0  0  0  0  0  0  0  0
  131.3660   73.4590  227.7180 C   0  0  0  0  0  0  0  0  0  0  0  0
  131.9810   74.6770  227.5130 C   0  0  0  0  0  0  0  0  0  0  0  0
  131.3810   75.8430  227.9510 C   0  0  0  0  0  0  0  0  0  0  0  0
  131.9980   77.0800  227.7470 C   0  0  0  0  0  0  0  0  0  0  0  0
  131.3720   78.1790  228.1920 F   0  0  0  0  0  0  0  0  0  0  0  0
  133.2240   77.1560  227.1010 C   0  0  0  0  0  0  0  0  0  0  0  0
  133.8340   75.9860  226.6580 C   0  0  0  0  0  0  0  0  0  0  0  0
  133.2040   74.7750  226.8710 C   0  0  0  0  0  0  0  0  0  0  0  0
  133.7940   73.6310  226.4420 N   0  0  0  0  0  0  0  0  0  0  0  0
  135.0580   72.0950  224.6490 H   0  0  0  0  0  0  0  0  0  0  0  0
  135.7877   69.4337  225.6275 H   0  0  0  0  0  0  0  0  0  0  0  0
  134.5518   69.2876  224.3179 H   0  0  0  0  0  0  0  0  0  0  0  0
  136.5280   66.9825  222.8674 H   0  0  0  0  0  0  0  0  0  0  0  0
  135.9410   68.1705  221.7474 H   0  0  0  0  0  0  0  0  0  0  0  0
  138.3695   66.7049  221.4556 H   0  0  0  0  0  0  0  0  0  0  0  0
  138.0544   68.2177  220.5892 H   0  0  0  0  0  0  0  0  0  0  0  0
  140.1251   67.8598  222.4907 H   0  0  0  0  0  0  0  0  0  0  0  0
  139.5372   69.4327  222.0515 H   0  0  0  0  0  0  0  0  0  0  0  0
  138.5066   67.5732  224.3289 H   0  0  0  0  0  0  0  0  0  0  0  0
  138.7821   67.9610  226.4102 H   0  0  0  0  0  0  0  0  0  0  0  0
  139.8271   69.2988  228.1440 H   0  0  0  0  0  0  0  0  0  0  0  0
  140.7710   72.2769  225.2216 H   0  0  0  0  0  0  0  0  0  0  0  0
  139.7036   70.9029  223.4566 H   0  0  0  0  0  0  0  0  0  0  0  0
  131.5185   71.3410  227.4215 H   0  0  0  0  0  0  0  0  0  0  0  0
  130.3944   73.4011  228.2305 H   0  0  0  0  0  0  0  0  0  0  0  0
  130.4094   75.7965  228.4646 H   0  0  0  0  0  0  0  0  0  0  0  0
  133.7084   78.1305  226.9408 H   0  0  0  0  0  0  0  0  0  0  0  0
  134.8060   76.0250  226.1445 H   0  0  0  0  0  0  0  0  0  0  0  0
  1  2  2  0
  2  3  1  0
  3  4  1  0
  4  5  1  0
  5  6  2  0
  5  7  1  0
  7  8  1  0
  8  9  1  0
  9 10  1  0
 10 11  1  0
 11 12  1  0
 12 13  2  0
 13 14  1  0
 14 15  2  0
 15 16  1  0
 15 17  1  0
 17 18  2  0
  2 19  1  0
 19 20  2  0
 20 21  1  0
 21 22  2  0
 22 23  1  0
 23 24  2  0
 24 25  1  0
 24 26  1  0
 26 27  2  0
 27 28  1  0
 28 29  2  0
 11  7  1  0
 18 12  1  0
 29 19  1  0
 28 22  1  0
  3 30  1  0
  4 31  1  0
  4 32  1  0
  8 33  1  0
  8 34  1  0
  9 35  1  0
  9 36  1  0
 10 37  1  0
 10 38  1  0
 11 39  1  1
 13 40  1  0
 14 41  1  0
 17 42  1  0
 18 43  1  0
 20 44  1  0
 21 45  1  0
 23 46  1  0
 26 47  1  0
 27 48  1  0
M  END
>  <meeko>  (4) 
{"free_energy": -8.21, "intermolecular_energy": -9.7, "internal_energy": -2.0, "cluster_size": 6, "cluster_id": 2, "rank_in_cluster": 2}

$$$$

     RDKit          3D

 48 51  0  0  0  0  0  0  0  0999 V2000
  141.4400   71.9150  221.5940 O   0  0  0  0  0  0  0  0  0  0  0  0
  140.6260   72.2320  222.5070 C   0  0  0  0  0  0  0  0  0  0  0  0
  139.9390   73.4650  222.3410 N   0  0  0  0  0  0  0  0  0  0  0  0
  140.2410   74.2300  221.1460 C   0  0  0  0  0  0  0  0  0  0  0  0
  140.3160   75.6940  221.4560 C   0  0  0  0  0  0  0  0  0  0  0  0
  139.4370   76.1360  222.2300 O   0  0  0  0  0  0  0  0  0  0  0  0
  141.3490   76.4500  220.8650 N   0  0  0  0  0  0  0  0  0  0  0  0
  142.4220   75.9210  219.9880 C   0  0  0  0  0  0  0  0  0  0  0  0
  142.4300   76.9830  218.8830 C   0  0  0  0  0  0  0  0  0  0  0  0
  141.6410   78.1780  219.4360 C   0  0  0  0  0  0  0  0  0  0  0  0
  141.6590   77.8670  220.9080 C   0  0  1  0  0  0  0  0  0  0  0  0
  140.8090   78.6870  221.7470 C   0  0  0  0  0  0  0  0  0  0  0  0
  141.1640   79.0720  223.0380 C   0  0  0  0  0  0  0  0  0  0  0  0
  140.3710   79.8210  223.8490 C   0  0  0  0  0  0  0  0  0  0  0  0
  139.1350   80.2460  223.4090 C   0  0  0  0  0  0  0  0  0  0  0  0
  138.0840   81.2130  224.4220 Cl  0  0  0  0  0  0  0  0  0  0  0  0
  138.7540   79.8810  222.1350 C   0  0  0  0  0  0  0  0  0  0  0  0
  139.5770   79.1100  221.3070 C   0  0  0  0  0  0  0  0  0  0  0  0
  140.3950   71.3860  223.6720 C   0  0  0  0  0  0  0  0  0  0  0  0
  139.7220   70.1970  223.4790 C   0  0  0  0  0  0  0  0  0  0  0  0
  139.4870   69.3760  224.5460 C   0  0  0  0  0  0  0  0  0  0  0  0
  139.9320   69.7630  225.7940 C   0  0  0  0  0  0  0  0  0  0  0  0
  139.7120   68.9570  226.8950 C   0  0  0  0  0  0  0  0  0  0  0  0
  140.1600   69.3430  228.1600 C   0  0  0  0  0  0  0  0  0  0  0  0
  139.9180   68.5230  229.1930 F   0  0  0  0  0  0  0  0  0  0  0  0
  140.8350   70.5440  228.3310 C   0  0  0  0  0  0  0  0  0  0  0  0
  141.0610   71.3610  227.2260 C   0  0  0  0  0  0  0  0  0  0  0  0
  140.6080   70.9580  225.9860 C   0  0  0  0  0  0  0  0  0  0  0  0
  140.8260   71.7490  224.9060 N   0  0  0  0  0  0  0  0  0  0  0  0
  139.2460   73.7910  223.0620 H   0  0  0  0  0  0  0  0  0  0  0  0
  141.2076   73.8975  220.7397 H   0  0  0  0  0  0  0  0  0  0  0  0
  139.4396   74.0660  220.4106 H   0  0  0  0  0  0  0  0  0  0  0  0
  143.3879   75.8732  220.5121 H   0  0  0  0  0  0  0  0  0  0  0  0
  142.2585   74.8926  219.6336 H   0  0  0  0  0  0  0  0  0  0  0  0
  143.4622   77.2824  218.6486 H   0  0  0  0  0  0  0  0  0  0  0  0
  141.9816   76.6003  217.9543 H   0  0  0  0  0  0  0  0  0  0  0  0
  142.1435   79.1317  219.2171 H   0  0  0  0  0  0  0  0  0  0  0  0
  140.6353   78.2989  219.0072 H   0  0  0  0  0  0  0  0  0  0  0  0
  142.6087   78.1052  221.4094 H   0  0  0  0  0  0  0  0  0  0  0  0
  142.1430   78.7512  223.4234 H   0  0  0  0  0  0  0  0  0  0  0  0
  140.7159   80.0888  224.8586 H   0  0  0  0  0  0  0  0  0  0  0  0
  137.7730   80.2060  221.7582 H   0  0  0  0  0  0  0  0  0  0  0  0
  139.2359   78.8403  220.2966 H   0  0  0  0  0  0  0  0  0  0  0  0
  139.3773   69.9121  222.4740 H   0  0  0  0  0  0  0  0  0  0  0  0
  138.9527   68.4237  224.4126 H   0  0  0  0  0  0  0  0  0  0  0  0
  139.1790   68.0025  226.7736 H   0  0  0  0  0  0  0  0  0  0  0  0
  141.1874   70.8469  229.3280 H   0  0  0  0  0  0  0  0  0  0  0  0
  141.5943   72.3163  227.3401 H   0  0  0  0  0  0  0  0  0  0  0  0
  1  2  2  0
  2  3  1  0
  3  4  1  0
  4  5  1  0
  5  6  2  0
  5  7  1  0
  7  8  1  0
  8  9  1  0
  9 10  1  0
 10 11  1  0
 11 12  1  0
 12 13  2  0
 13 14  1  0
 14 15  2  0
 15 16  1  0
 15 17  1  0
 17 18  2  0
  2 19  1  0
 19 20  2  0
 20 21  1  0
 21 22  2  0
 22 23  1  0
 23 24  2  0
 24 25  1  0
 24 26  1  0
 26 27  2  0
 27 28  1  0
 28 29  2  0
 11  7  1  0
 18 12  1  0
 29 19  1  0
 28 22  1  0
  3 30  1  0
  4 31  1  0
  4 32  1  0
  8 33  1  0
  8 34  1  0
  9 35  1  0
  9 36  1  0
 10 37  1  0
 10 38  1  0
 11 39  1  1
 13 40  1  0
 14 41  1  0
 17 42  1  0
 18 43  1  0
 20 44  1  0
 21 45  1  0
 23 46  1  0
 26 47  1  0
 27 48  1  0
M  END
>  <meeko>  (5) 
{"free_energy": -8.59, "intermolecular_energy": -10.08, "internal_energy": -1.51, "cluster_size": 11, "cluster_id": 1, "rank_in_cluster": 7}

$$$$

     RDKit          3D

 48 51  0  0  0  0  0  0  0  0999 V2000
  141.4300   71.9390  221.6960 O   0  0  0  0  0  0  0  0  0  0  0  0
  140.5350   72.1570  222.5610 C   0  0  0  0  0  0  0  0  0  0  0  0
  139.7360   73.3160  222.3660 N   0  0  0  0  0  0  0  0  0  0  0  0
  140.0280   74.1270  221.1990 C   0  0  0  0  0  0  0  0  0  0  0  0
  140.1560   75.5720  221.5740 C   0  0  0  0  0  0  0  0  0  0  0  0
  139.3310   75.9950  222.4150 O   0  0  0  0  0  0  0  0  0  0  0  0
  141.1750   76.3330  220.9640 N   0  0  0  0  0  0  0  0  0  0  0  0
  142.2330   75.8080  220.0660 C   0  0  0  0  0  0  0  0  0  0  0  0
  142.2170   76.8720  218.9630 C   0  0  0  0  0  0  0  0  0  0  0  0
  141.4340   78.0630  219.5320 C   0  0  0  0  0  0  0  0  0  0  0  0
  141.4810   77.7510  221.0040 C   0  0  1  0  0  0  0  0  0  0  0  0
  140.6440   78.5660  221.8600 C   0  0  0  0  0  0  0  0  0  0  0  0
  139.3240   78.8840  221.5470 C   0  0  0  0  0  0  0  0  0  0  0  0
  138.5290   79.6670  222.3240 C   0  0  0  0  0  0  0  0  0  0  0  0
  139.0170   80.1970  223.5000 C   0  0  0  0  0  0  0  0  0  0  0  0
  138.0270   81.2080  224.5300 Cl  0  0  0  0  0  0  0  0  0  0  0  0
  140.3210   79.9010  223.8380 C   0  0  0  0  0  0  0  0  0  0  0  0
  141.1310   79.0950  223.0310 C   0  0  0  0  0  0  0  0  0  0  0  0
  140.3240   71.2730  223.7020 C   0  0  0  0  0  0  0  0  0  0  0  0
  139.6370   70.0960  223.4830 C   0  0  0  0  0  0  0  0  0  0  0  0
  139.4190   69.2410  224.5270 C   0  0  0  0  0  0  0  0  0  0  0  0
  139.8960   69.5820  225.7760 C   0  0  0  0  0  0  0  0  0  0  0  0
  139.6940   68.7400  226.8540 C   0  0  0  0  0  0  0  0  0  0  0  0
  140.1740   69.0790  228.1210 C   0  0  0  0  0  0  0  0  0  0  0  0
  139.9490   68.2260  229.1310 F   0  0  0  0  0  0  0  0  0  0  0  0
  140.8620   70.2680  228.3170 C   0  0  0  0  0  0  0  0  0  0  0  0
  141.0700   71.1210  227.2360 C   0  0  0  0  0  0  0  0  0  0  0  0
  140.5850   70.7640  225.9940 C   0  0  0  0  0  0  0  0  0  0  0  0
  140.7860   71.5900  224.9370 N   0  0  0  0  0  0  0  0  0  0  0  0
  138.9720   73.5580  223.0470 H   0  0  0  0  0  0  0  0  0  0  0  0
  140.9724   73.7859  220.7499 H   0  0  0  0  0  0  0  0  0  0  0  0
  139.2021   74.0210  220.4802 H   0  0  0  0  0  0  0  0  0  0  0  0
  143.2088   75.7620  220.5717 H   0  0  0  0  0  0  0  0  0  0  0  0
  142.0658   74.7796  219.7131 H   0  0  0  0  0  0  0  0  0  0  0  0
  143.2437   77.1756  218.7105 H   0  0  0  0  0  0  0  0  0  0  0  0
  141.7531   76.4892  218.0420 H   0  0  0  0  0  0  0  0  0  0  0  0
  141.9284   79.0189  219.3044 H   0  0  0  0  0  0  0  0  0  0  0  0
  140.4198   78.1800  219.1224 H   0  0  0  0  0  0  0  0  0  0  0  0
  142.4388   77.9929  221.4879 H   0  0  0  0  0  0  0  0  0  0  0  0
  138.9002   78.4778  220.6167 H   0  0  0  0  0  0  0  0  0  0  0  0
  137.4949   79.8781  222.0141 H   0  0  0  0  0  0  0  0  0  0  0  0
  140.7366   80.3111  224.7703 H   0  0  0  0  0  0  0  0  0  0  0  0
  142.1663   78.8829  223.3364 H   0  0  0  0  0  0  0  0  0  0  0  0
  139.2680   69.8482  222.4768 H   0  0  0  0  0  0  0  0  0  0  0  0
  138.8732   68.2982  224.3742 H   0  0  0  0  0  0  0  0  0  0  0  0
  139.1502   67.7944  226.7124 H   0  0  0  0  0  0  0  0  0  0  0  0
  141.2391   70.5339  229.3155 H   0  0  0  0  0  0  0  0  0  0  0  0
  141.6141   72.0676  227.3703 H   0  0  0  0  0  0  0  0  0  0  0  0
  1  2  2  0
  2  3  1  0
  3  4  1  0
  4  5  1  0
  5  6  2  0
  5  7  1  0
  7  8  1  0
  8  9  1  0
  9 10  1  0
 10 11  1  0
 11 12  1  0
 12 13  2  0
 13 14  1  0
 14 15  2  0
 15 16  1  0
 15 17  1  0
 17 18  2  0
  2 19  1  0
 19 20  2  0
 20 21  1  0
 21 22  2  0
 22 23  1  0
 23 24  2  0
 24 25  1  0
 24 26  1  0
 26 27  2  0
 27 28  1  0
 28 29  2  0
 11  7  1  0
 18 12  1  0
 29 19  1  0
 28 22  1  0
  3 30  1  0
  4 31  1  0
  4 32  1  0
  8 33  1  0
  8 34  1  0
  9 35  1  0
  9 36  1  0
 10 37  1  0
 10 38  1  0
 11 39  1  1
 13 40  1  0
 14 41  1  0
 17 42  1  0
 18 43  1  0
 20 44  1  0
 21 45  1  0
 23 46  1  0
 26 47  1  0
 27 48  1  0
M  END
>  <meeko>  (6) 
{"free_energy": -8.62, "intermolecular_energy": -10.11, "internal_energy": -1.45, "cluster_size": 11, "cluster_id": 1, "rank_in_cluster": 3}

$$$$

     RDKit          3D

 48 51  0  0  0  0  0  0  0  0999 V2000
  133.7440   70.1070  226.8450 O   0  0  0  0  0  0  0  0  0  0  0  0
  133.9520   71.2090  226.2620 C   0  0  0  0  0  0  0  0  0  0  0  0
  134.8740   71.1880  225.1810 N   0  0  0  0  0  0  0  0  0  0  0  0
  135.4810   69.9100  224.8580 C   0  0  0  0  0  0  0  0  0  0  0  0
  136.3480   70.0240  223.6430 C   0  0  0  0  0  0  0  0  0  0  0  0
  136.2830   71.1100  223.0230 O   0  0  0  0  0  0  0  0  0  0  0  0
  137.1570   68.9240  223.2920 N   0  0  0  0  0  0  0  0  0  0  0  0
  136.8090   67.8680  222.3090 C   0  0  0  0  0  0  0  0  0  0  0  0
  138.1320   67.7520  221.5430 C   0  0  0  0  0  0  0  0  0  0  0  0
  139.1840   68.4680  222.4000 C   0  0  0  0  0  0  0  0  0  0  0  0
  138.4780   68.5130  223.7290 C   0  0  1  0  0  0  0  0  0  0  0  0
  139.0970   69.3250  224.7570 C   0  0  0  0  0  0  0  0  0  0  0  0
  139.7110   70.5470  224.4890 C   0  0  0  0  0  0  0  0  0  0  0  0
  140.3180   71.3130  225.4340 C   0  0  0  0  0  0  0  0  0  0  0  0
  140.3500   70.8940  226.7480 C   0  0  0  0  0  0  0  0  0  0  0  0
  141.1190   71.8500  227.9960 Cl  0  0  0  0  0  0  0  0  0  0  0  0
  139.7520   69.6880  227.0460 C   0  0  0  0  0  0  0  0  0  0  0  0
  139.1300   68.9070  226.0660 C   0  0  0  0  0  0  0  0  0  0  0  0
  133.2860   72.4420  226.6680 C   0  0  0  0  0  0  0  0  0  0  0  0
  132.0470   72.3340  227.2650 C   0  0  0  0  0  0  0  0  0  0  0  0
  131.3900   73.4670  227.6600 C   0  0  0  0  0  0  0  0  0  0  0  0
  131.9910   74.6910  227.4480 C   0  0  0  0  0  0  0  0  0  0  0  0
  131.3560   75.8560  227.8350 C   0  0  0  0  0  0  0  0  0  0  0  0
  131.9570   77.0990  227.6240 C   0  0  0  0  0  0  0  0  0  0  0  0
  131.2970   78.1960  228.0180 F   0  0  0  0  0  0  0  0  0  0  0  0
  133.2050   77.1820  227.0200 C   0  0  0  0  0  0  0  0  0  0  0  0
  133.8510   76.0130  226.6270 C   0  0  0  0  0  0  0  0  0  0  0  0
  133.2350   74.7970  226.8480 C   0  0  0  0  0  0  0  0  0  0  0  0
  133.8600   73.6540  226.4680 N   0  0  0  0  0  0  0  0  0  0  0  0
  135.0940   72.0690  224.6510 H   0  0  0  0  0  0  0  0  0  0  0  0
  136.0942   69.5770  225.7084 H   0  0  0  0  0  0  0  0  0  0  0  0
  134.6819   69.1823  224.6533 H   0  0  0  0  0  0  0  0  0  0  0  0
  136.5429   66.9231  222.8053 H   0  0  0  0  0  0  0  0  0  0  0  0
  135.9347   68.0960  221.6816 H   0  0  0  0  0  0  0  0  0  0  0  0
  138.4041   66.6946  221.4090 H   0  0  0  0  0  0  0  0  0  0  0  0
  138.0570   68.2001  220.5412 H   0  0  0  0  0  0  0  0  0  0  0  0
  140.1198   67.8927  222.4575 H   0  0  0  0  0  0  0  0  0  0  0  0
  139.4950   69.4503  222.0148 H   0  0  0  0  0  0  0  0  0  0  0  0
  138.4948   67.5628  224.2829 H   0  0  0  0  0  0  0  0  0  0  0  0
  139.7041   70.9133  223.4518 H   0  0  0  0  0  0  0  0  0  0  0  0
  140.7842   72.2681  225.1505 H   0  0  0  0  0  0  0  0  0  0  0  0
  139.7643   69.3290  228.0857 H   0  0  0  0  0  0  0  0  0  0  0  0
  138.6636   67.9507  226.3453 H   0  0  0  0  0  0  0  0  0  0  0  0
  131.5913   71.3452  227.4221 H   0  0  0  0  0  0  0  0  0  0  0  0
  130.4012   73.4036  228.1377 H   0  0  0  0  0  0  0  0  0  0  0  0
  130.3672   75.8037  228.3141 H   0  0  0  0  0  0  0  0  0  0  0  0
  133.6780   78.1611  226.8539 H   0  0  0  0  0  0  0  0  0  0  0  0
  134.8395   76.0574  226.1465 H   0  0  0  0  0  0  0  0  0  0  0  0
  1  2  2  0
  2  3  1  0
  3  4  1  0
  4  5  1  0
  5  6  2  0
  5  7  1  0
  7  8  1  0
  8  9  1  0
  9 10  1  0
 10 11  1  0
 11 12  1  0
 12 13  2  0
 13 14  1  0
 14 15  2  0
 15 16  1  0
 15 17  1  0
 17 18  2  0
  2 19  1  0
 19 20  2  0
 20 21  1  0
 21 22  2  0
 22 23  1  0
 23 24  2  0
 24 25  1  0
 24 26  1  0
 26 27  2  0
 27 28  1  0
 28 29  2  0
 11  7  1  0
 18 12  1  0
 29 19  1  0
 28 22  1  0
  3 30  1  0
  4 31  1  0
  4 32  1  0
  8 33  1  0
  8 34  1  0
  9 35  1  0
  9 36  1  0
 10 37  1  0
 10 38  1  0
 11 39  1  1
 13 40  1  0
 14 41  1  0
 17 42  1  0
 18 43  1  0
 20 44  1  0
 21 45  1  0
 23 46  1  0
 26 47  1  0
 27 48  1  0
M  END
>  <meeko>  (7) 
{"free_energy": -8.19, "intermolecular_energy": -9.68, "internal_energy": -1.99, "cluster_size": 6, "cluster_id": 2, "rank_in_cluster": 4}

$$$$

     RDKit          3D

 48 51  0  0  0  0  0  0  0  0999 V2000
  140.5570   73.5760  222.3430 O   0  0  0  0  0  0  0  0  0  0  0  0
  140.5270   72.3130  222.3030 C   0  0  0  0  0  0  0  0  0  0  0  0
  140.7090   71.7180  221.0260 N   0  0  0  0  0  0  0  0  0  0  0  0
  140.9090   72.6160  219.9040 C   0  0  0  0  0  0  0  0  0  0  0  0
  142.0790   72.1800  219.0750 C   0  0  0  0  0  0  0  0  0  0  0  0
  141.8660   71.2370  218.2800 O   0  0  0  0  0  0  0  0  0  0  0  0
  143.3080   72.8500  219.2480 N   0  0  0  0  0  0  0  0  0  0  0  0
  143.4900   74.3190  219.3500 C   0  0  0  0  0  0  0  0  0  0  0  0
  144.4740   74.3990  220.5230 C   0  0  0  0  0  0  0  0  0  0  0  0
  145.0280   72.9790  220.7100 C   0  0  0  0  0  0  0  0  0  0  0  0
  144.6670   72.3610  219.3850 C   0  0  1  0  0  0  0  0  0  0  0  0
  144.8500   70.9290  219.2750 C   0  0  0  0  0  0  0  0  0  0  0  0
  144.0950   70.0110  220.0010 C   0  0  0  0  0  0  0  0  0  0  0  0
  144.2670   68.6640  219.9290 C   0  0  0  0  0  0  0  0  0  0  0  0
  145.2340   68.1330  219.1020 C   0  0  0  0  0  0  0  0  0  0  0  0
  145.4860   66.4050  218.9790 Cl  0  0  0  0  0  0  0  0  0  0  0  0
  146.0000   69.0160  218.3690 C   0  0  0  0  0  0  0  0  0  0  0  0
  145.8150   70.4000  218.4500 C   0  0  0  0  0  0  0  0  0  0  0  0
  140.3190   71.5010  223.4960 C   0  0  0  0  0  0  0  0  0  0  0  0
  139.6510   70.3030  223.3470 C   0  0  0  0  0  0  0  0  0  0  0  0
  139.4350   69.5120  224.4420 C   0  0  0  0  0  0  0  0  0  0  0  0
  139.8960   69.9390  225.6710 C   0  0  0  0  0  0  0  0  0  0  0  0
  139.6960   69.1650  226.7980 C   0  0  0  0  0  0  0  0  0  0  0  0
  140.1600   69.5900  228.0450 C   0  0  0  0  0  0  0  0  0  0  0  0
  139.9380   68.8000  229.1050 F   0  0  0  0  0  0  0  0  0  0  0  0
  140.8290   70.8000  228.1710 C   0  0  0  0  0  0  0  0  0  0  0  0
  141.0350   71.5850  227.0390 C   0  0  0  0  0  0  0  0  0  0  0  0
  140.5670   71.1420  225.8180 C   0  0  0  0  0  0  0  0  0  0  0  0
  140.7640   71.9030  224.7120 N   0  0  0  0  0  0  0  0  0  0  0  0
  140.6960   70.6720  220.9180 H   0  0  0  0  0  0  0  0  0  0  0  0
  140.0044   72.6181  219.2781 H   0  0  0  0  0  0  0  0  0  0  0  0
  141.1087   73.6258  220.2920 H   0  0  0  0  0  0  0  0  0  0  0  0
  143.9208   74.7395  218.4294 H   0  0  0  0  0  0  0  0  0  0  0  0
  142.5590   74.8869  219.4937 H   0  0  0  0  0  0  0  0  0  0  0  0
  145.2895   75.0996  220.2904 H   0  0  0  0  0  0  0  0  0  0  0  0
  143.9818   74.7625  221.4371 H   0  0  0  0  0  0  0  0  0  0  0  0
  146.1162   72.9865  220.8706 H   0  0  0  0  0  0  0  0  0  0  0  0
  144.6300   72.4456  221.5858 H   0  0  0  0  0  0  0  0  0  0  0  0
  145.3334   72.6432  218.5565 H   0  0  0  0  0  0  0  0  0  0  0  0
  143.3139   70.3982  220.6718 H   0  0  0  0  0  0  0  0  0  0  0  0
  143.6334   67.9967  220.5317 H   0  0  0  0  0  0  0  0  0  0  0  0
  146.7792   68.6198  217.7012 H   0  0  0  0  0  0  0  0  0  0  0  0
  146.4464   71.0709  217.8490 H   0  0  0  0  0  0  0  0  0  0  0  0
  139.2949   69.9864  222.3555 H   0  0  0  0  0  0  0  0  0  0  0  0
  138.9039   68.5536  224.3449 H   0  0  0  0  0  0  0  0  0  0  0  0
  139.1662   68.2048  226.7123 H   0  0  0  0  0  0  0  0  0  0  0  0
  141.1923   71.1350  229.1538 H   0  0  0  0  0  0  0  0  0  0  0  0
  141.5641   72.5462  227.1169 H   0  0  0  0  0  0  0  0  0  0  0  0
  1  2  2  0
  2  3  1  0
  3  4  1  0
  4  5  1  0
  5  6  2  0
  5  7  1  0
  7  8  1  0
  8  9  1  0
  9 10  1  0
 10 11  1  0
 11 12  1  0
 12 13  2  0
 13 14  1  0
 14 15  2  0
 15 16  1  0
 15 17  1  0
 17 18  2  0
  2 19  1  0
 19 20  2  0
 20 21  1  0
 21 22  2  0
 22 23  1  0
 23 24  2  0
 24 25  1  0
 24 26  1  0
 26 27  2  0
 27 28  1  0
 28 29  2  0
 11  7  1  0
 18 12  1  0
 29 19  1  0
 28 22  1  0
  3 30  1  0
  4 31  1  0
  4 32  1  0
  8 33  1  0
  8 34  1  0
  9 35  1  0
  9 36  1  0
 10 37  1  0
 10 38  1  0
 11 39  1  6
 13 40  1  0
 14 41  1  0
 17 42  1  0
 18 43  1  0
 20 44  1  0
 21 45  1  0
 23 46  1  0
 26 47  1  0
 27 48  1  0
M  END
>  <meeko>  (8) 
{"free_energy": -8.17, "intermolecular_energy": -9.66, "internal_energy": -1.47, "cluster_size": 1, "cluster_id": 3, "rank_in_cluster": 1}

$$$$

     RDKit          3D

 48 51  0  0  0  0  0  0  0  0999 V2000
  141.4060   71.9100  221.5650 O   0  0  0  0  0  0  0  0  0  0  0  0
  140.6190   72.2460  222.4960 C   0  0  0  0  0  0  0  0  0  0  0  0
  139.9600   73.4960  222.3450 N   0  0  0  0  0  0  0  0  0  0  0  0
  140.2550   74.2550  221.1450 C   0  0  0  0  0  0  0  0  0  0  0  0
  140.3190   75.7210  221.4440 C   0  0  0  0  0  0  0  0  0  0  0  0
  139.4330   76.1630  222.2100 O   0  0  0  0  0  0  0  0  0  0  0  0
  141.3500   76.4810  220.8530 N   0  0  0  0  0  0  0  0  0  0  0  0
  142.4220   75.9540  219.9720 C   0  0  0  0  0  0  0  0  0  0  0  0
  142.4270   77.0190  218.8700 C   0  0  0  0  0  0  0  0  0  0  0  0
  141.6380   78.2120  219.4280 C   0  0  0  0  0  0  0  0  0  0  0  0
  141.6590   77.8980  220.9000 C   0  0  1  0  0  0  0  0  0  0  0  0
  140.8100   78.7140  221.7420 C   0  0  0  0  0  0  0  0  0  0  0  0
  141.1700   79.1010  223.0310 C   0  0  0  0  0  0  0  0  0  0  0  0
  140.3780   79.8470  223.8460 C   0  0  0  0  0  0  0  0  0  0  0  0
  139.1370   80.2670  223.4110 C   0  0  0  0  0  0  0  0  0  0  0  0
  138.0880   81.2300  224.4290 Cl  0  0  0  0  0  0  0  0  0  0  0  0
  138.7510   79.9000  222.1400 C   0  0  0  0  0  0  0  0  0  0  0  0
  139.5730   79.1310  221.3080 C   0  0  0  0  0  0  0  0  0  0  0  0
  140.3920   71.4040  223.6650 C   0  0  0  0  0  0  0  0  0  0  0  0
  139.7160   70.2160  223.4790 C   0  0  0  0  0  0  0  0  0  0  0  0
  139.4840   69.3990  224.5500 C   0  0  0  0  0  0  0  0  0  0  0  0
  139.9360   69.7900  225.7950 C   0  0  0  0  0  0  0  0  0  0  0  0
  139.7190   68.9890  226.8990 C   0  0  0  0  0  0  0  0  0  0  0  0
  140.1730   69.3780  228.1620 C   0  0  0  0  0  0  0  0  0  0  0  0
  139.9350   68.5630  229.1980 F   0  0  0  0  0  0  0  0  0  0  0  0
  140.8510   70.5790  228.3250 C   0  0  0  0  0  0  0  0  0  0  0  0
  141.0740   71.3920  227.2160 C   0  0  0  0  0  0  0  0  0  0  0  0
  140.6140   70.9840  225.9790 C   0  0  0  0  0  0  0  0  0  0  0  0
  140.8290   71.7720  224.8950 N   0  0  0  0  0  0  0  0  0  0  0  0
  139.2910   73.8380  223.0810 H   0  0  0  0  0  0  0  0  0  0  0  0
  141.2238   73.9271  220.7402 H   0  0  0  0  0  0  0  0  0  0  0  0
  139.4540   74.0798  220.4118 H   0  0  0  0  0  0  0  0  0  0  0  0
  143.3891   75.9052  220.4939 H   0  0  0  0  0  0  0  0  0  0  0  0
  142.2583   74.9264  219.6154 H   0  0  0  0  0  0  0  0  0  0  0  0
  143.4585   77.3199  218.6345 H   0  0  0  0  0  0  0  0  0  0  0  0
  141.9772   76.6385  217.9411 H   0  0  0  0  0  0  0  0  0  0  0  0
  142.1392   79.1667  219.2102 H   0  0  0  0  0  0  0  0  0  0  0  0
  140.6312   78.3326  219.0016 H   0  0  0  0  0  0  0  0  0  0  0  0
  142.6090   78.1366  221.4006 H   0  0  0  0  0  0  0  0  0  0  0  0
  142.1524   78.7845  223.4115 H   0  0  0  0  0  0  0  0  0  0  0  0
  140.7266   80.1165  224.8539 H   0  0  0  0  0  0  0  0  0  0  0  0
  137.7669   80.2212  221.7680 H   0  0  0  0  0  0  0  0  0  0  0  0
  139.2274   78.8582  220.3000 H   0  0  0  0  0  0  0  0  0  0  0  0
  139.3663   69.9284  222.4765 H   0  0  0  0  0  0  0  0  0  0  0  0
  138.9471   68.4475  224.4226 H   0  0  0  0  0  0  0  0  0  0  0  0
  139.1834   68.0352  226.7829 H   0  0  0  0  0  0  0  0  0  0  0  0
  141.2082   70.8851  229.3193 H   0  0  0  0  0  0  0  0  0  0  0  0
  141.6096   72.3467  227.3239 H   0  0  0  0  0  0  0  0  0  0  0  0
  1  2  2  0
  2  3  1  0
  3  4  1  0
  4  5  1  0
  5  6  2  0
  5  7  1  0
  7  8  1  0
  8  9  1  0
  9 10  1  0
 10 11  1  0
 11 12  1  0
 12 13  2  0
 13 14  1  0
 14 15  2  0
 15 16  1  0
 15 17  1  0
 17 18  2  0
  2 19  1  0
 19 20  2  0
 20 21  1  0
 21 22  2  0
 22 23  1  0
 23 24  2  0
 24 25  1  0
 24 26  1  0
 26 27  2  0
 27 28  1  0
 28 29  2  0
 11  7  1  0
 18 12  1  0
 29 19  1  0
 28 22  1  0
  3 30  1  0
  4 31  1  0
  4 32  1  0
  8 33  1  0
  8 34  1  0
  9 35  1  0
  9 36  1  0
 10 37  1  0
 10 38  1  0
 11 39  1  1
 13 40  1  0
 14 41  1  0
 17 42  1  0
 18 43  1  0
 20 44  1  0
 21 45  1  0
 23 46  1  0
 26 47  1  0
 27 48  1  0
M  END
>  <meeko>  (9) 
{"free_energy": -8.58, "intermolecular_energy": -10.08, "internal_energy": -1.51, "cluster_size": 11, "cluster_id": 1, "rank_in_cluster": 8}

$$$$

     RDKit          3D

 48 51  0  0  0  0  0  0  0  0999 V2000
  141.4790   71.9680  221.6300 O   0  0  0  0  0  0  0  0  0  0  0  0
  140.6310   72.2480  222.5240 C   0  0  0  0  0  0  0  0  0  0  0  0
  139.9000   73.4540  222.3460 N   0  0  0  0  0  0  0  0  0  0  0  0
  140.2010   74.2360  221.1610 C   0  0  0  0  0  0  0  0  0  0  0  0
  140.3060   75.6920  221.4970 C   0  0  0  0  0  0  0  0  0  0  0  0
  139.4520   76.1320  222.3000 O   0  0  0  0  0  0  0  0  0  0  0  0
  141.3370   76.4440  220.8970 N   0  0  0  0  0  0  0  0  0  0  0  0
  142.4110   75.9070  220.0250 C   0  0  0  0  0  0  0  0  0  0  0  0
  142.4160   76.9570  218.9090 C   0  0  0  0  0  0  0  0  0  0  0  0
  141.6240   78.1560  219.4480 C   0  0  0  0  0  0  0  0  0  0  0  0
  141.6440   77.8620  220.9250 C   0  0  1  0  0  0  0  0  0  0  0  0
  140.7920   78.6890  221.7540 C   0  0  0  0  0  0  0  0  0  0  0  0
  141.1350   79.0670  223.0510 C   0  0  0  0  0  0  0  0  0  0  0  0
  140.3400   79.8230  223.8540 C   0  0  0  0  0  0  0  0  0  0  0  0
  139.1150   80.2630  223.3990 C   0  0  0  0  0  0  0  0  0  0  0  0
  138.0620   81.2390  224.4010 Cl  0  0  0  0  0  0  0  0  0  0  0  0
  138.7460   79.9050  222.1190 C   0  0  0  0  0  0  0  0  0  0  0  0
  139.5710   79.1270  221.3000 C   0  0  0  0  0  0  0  0  0  0  0  0
  140.4050   71.3880  223.6810 C   0  0  0  0  0  0  0  0  0  0  0  0
  139.7360   70.1990  223.4750 C   0  0  0  0  0  0  0  0  0  0  0  0
  139.5050   69.3660  224.5340 C   0  0  0  0  0  0  0  0  0  0  0  0
  139.9520   69.7410  225.7850 C   0  0  0  0  0  0  0  0  0  0  0  0
  139.7360   68.9220  226.8770 C   0  0  0  0  0  0  0  0  0  0  0  0
  140.1860   69.2950  228.1460 C   0  0  0  0  0  0  0  0  0  0  0  0
  139.9490   68.4630  229.1700 F   0  0  0  0  0  0  0  0  0  0  0  0
  140.8570   70.4960  228.3280 C   0  0  0  0  0  0  0  0  0  0  0  0
  141.0790   71.3260  227.2320 C   0  0  0  0  0  0  0  0  0  0  0  0
  140.6240   70.9350  225.9890 C   0  0  0  0  0  0  0  0  0  0  0  0
  140.8380   71.7390  224.9170 N   0  0  0  0  0  0  0  0  0  0  0  0
  139.1790   73.7500  223.0510 H   0  0  0  0  0  0  0  0  0  0  0  0
  141.1564   73.8941  220.7364 H   0  0  0  0  0  0  0  0  0  0  0  0
  139.3878   74.0999  220.4328 H   0  0  0  0  0  0  0  0  0  0  0  0
  143.3773   75.8667  220.5490 H   0  0  0  0  0  0  0  0  0  0  0  0
  142.2495   74.8744  219.6820 H   0  0  0  0  0  0  0  0  0  0  0  0
  143.4474   77.2566  218.6715 H   0  0  0  0  0  0  0  0  0  0  0  0
  141.9683   76.5628  217.9848 H   0  0  0  0  0  0  0  0  0  0  0  0
  142.1235   79.1085  219.2174 H   0  0  0  0  0  0  0  0  0  0  0  0
  140.6177   78.2691  219.0184 H   0  0  0  0  0  0  0  0  0  0  0  0
  142.5930   78.1081  221.4239 H   0  0  0  0  0  0  0  0  0  0  0  0
  142.1054   78.7343  223.4480 H   0  0  0  0  0  0  0  0  0  0  0  0
  140.6747   80.0842  224.8688 H   0  0  0  0  0  0  0  0  0  0  0  0
  137.7735   80.2415  221.7305 H   0  0  0  0  0  0  0  0  0  0  0  0
  139.2399   78.8637  220.2846 H   0  0  0  0  0  0  0  0  0  0  0  0
  139.3915   69.9237  222.4673 H   0  0  0  0  0  0  0  0  0  0  0  0
  138.9725   68.4140  224.3918 H   0  0  0  0  0  0  0  0  0  0  0  0
  139.2049   67.9677  226.7459 H   0  0  0  0  0  0  0  0  0  0  0  0
  141.2099   70.7894  229.3277 H   0  0  0  0  0  0  0  0  0  0  0  0
  141.6103   72.2812  227.3554 H   0  0  0  0  0  0  0  0  0  0  0  0
  1  2  2  0
  2  3  1  0
  3  4  1  0
  4  5  1  0
  5  6  2  0
  5  7  1  0
  7  8  1  0
  8  9  1  0
  9 10  1  0
 10 11  1  0
 11 12  1  0
 12 13  2  0
 13 14  1  0
 14 15  2  0
 15 16  1  0
 15 17  1  0
 17 18  2  0
  2 19  1  0
 19 20  2  0
 20 21  1  0
 21 22  2  0
 22 23  1  0
 23 24  2  0
 24 25  1  0
 24 26  1  0
 26 27  2  0
 27 28  1  0
 28 29  2  0
 11  7  1  0
 18 12  1  0
 29 19  1  0
 28 22  1  0
  3 30  1  0
  4 31  1  0
  4 32  1  0
  8 33  1  0
  8 34  1  0
  9 35  1  0
  9 36  1  0
 10 37  1  0
 10 38  1  0
 11 39  1  1
 13 40  1  0
 14 41  1  0
 17 42  1  0
 18 43  1  0
 20 44  1  0
 21 45  1  0
 23 46  1  0
 26 47  1  0
 27 48  1  0
M  END
>  <meeko>  (10) 
{"free_energy": -8.6, "intermolecular_energy": -10.1, "internal_energy": -1.5, "cluster_size": 11, "cluster_id": 1, "rank_in_cluster": 5}

$$$$

     RDKit          3D

 48 51  0  0  0  0  0  0  0  0999 V2000
  133.6590   70.0680  226.7960 O   0  0  0  0  0  0  0  0  0  0  0  0
  133.9250   71.1870  226.2730 C   0  0  0  0  0  0  0  0  0  0  0  0
  134.9120   71.1880  225.2500 N   0  0  0  0  0  0  0  0  0  0  0  0
  135.5110   69.9100  224.9130 C   0  0  0  0  0  0  0  0  0  0  0  0
  136.3680   70.0300  223.6910 C   0  0  0  0  0  0  0  0  0  0  0  0
  136.3100   71.1240  223.0850 O   0  0  0  0  0  0  0  0  0  0  0  0
  137.1620   68.9240  223.3200 N   0  0  0  0  0  0  0  0  0  0  0  0
  136.7870   67.8760  222.3380 C   0  0  0  0  0  0  0  0  0  0  0  0
  138.0940   67.7550  221.5460 C   0  0  0  0  0  0  0  0  0  0  0  0
  139.1680   68.4580  222.3880 C   0  0  0  0  0  0  0  0  0  0  0  0
  138.4880   68.5010  223.7300 C   0  0  1  0  0  0  0  0  0  0  0  0
  139.1320   69.3030  224.7500 C   0  0  0  0  0  0  0  0  0  0  0  0
  139.1960   68.9170  226.0870 C   0  0  0  0  0  0  0  0  0  0  0  0
  139.7750   69.6650  227.0630 C   0  0  0  0  0  0  0  0  0  0  0  0
  140.3450   70.8830  226.7560 C   0  0  0  0  0  0  0  0  0  0  0  0
  141.1020   71.8760  227.9830 Cl  0  0  0  0  0  0  0  0  0  0  0  0
  140.2980   71.2940  225.4400 C   0  0  0  0  0  0  0  0  0  0  0  0
  139.6990   70.5170  224.4430 C   0  0  0  0  0  0  0  0  0  0  0  0
  133.2610   72.4180  226.6870 C   0  0  0  0  0  0  0  0  0  0  0  0
  132.0340   72.3070  227.3080 C   0  0  0  0  0  0  0  0  0  0  0  0
  131.3800   73.4380  227.7120 C   0  0  0  0  0  0  0  0  0  0  0  0
  131.9710   74.6640  227.4850 C   0  0  0  0  0  0  0  0  0  0  0  0
  131.3380   75.8280  227.8800 C   0  0  0  0  0  0  0  0  0  0  0  0
  131.9300   77.0720  227.6540 C   0  0  0  0  0  0  0  0  0  0  0  0
  131.2710   78.1680  228.0580 F   0  0  0  0  0  0  0  0  0  0  0  0
  133.1650   77.1590  227.0280 C   0  0  0  0  0  0  0  0  0  0  0  0
  133.8100   75.9920  226.6270 C   0  0  0  0  0  0  0  0  0  0  0  0
  133.2030   74.7730  226.8610 C   0  0  0  0  0  0  0  0  0  0  0  0
  133.8260   73.6320  226.4740 N   0  0  0  0  0  0  0  0  0  0  0  0
  135.1830   72.0840  224.7710 H   0  0  0  0  0  0  0  0  0  0  0  0
  136.1302   69.5686  225.7556 H   0  0  0  0  0  0  0  0  0  0  0  0
  134.7075   69.1866  224.7104 H   0  0  0  0  0  0  0  0  0  0  0  0
  136.5237   66.9302  222.8341 H   0  0  0  0  0  0  0  0  0  0  0  0
  135.9023   68.1138  221.7291 H   0  0  0  0  0  0  0  0  0  0  0  0
  138.3554   66.6965  221.4000 H   0  0  0  0  0  0  0  0  0  0  0  0
  138.0034   68.2100  220.5486 H   0  0  0  0  0  0  0  0  0  0  0  0
  140.1001   67.8750  222.4246 H   0  0  0  0  0  0  0  0  0  0  0  0
  139.4793   69.4401  222.0026 H   0  0  0  0  0  0  0  0  0  0  0  0
  138.5084   67.5478  224.2787 H   0  0  0  0  0  0  0  0  0  0  0  0
  138.7522   67.9509  226.3692 H   0  0  0  0  0  0  0  0  0  0  0  0
  139.7891   69.2983  228.1000 H   0  0  0  0  0  0  0  0  0  0  0  0
  140.7448   72.2613  225.1666 H   0  0  0  0  0  0  0  0  0  0  0  0
  139.6815   70.8804  223.4049 H   0  0  0  0  0  0  0  0  0  0  0  0
  131.5855   71.3169  227.4768 H   0  0  0  0  0  0  0  0  0  0  0  0
  130.4008   73.3716  228.2088 H   0  0  0  0  0  0  0  0  0  0  0  0
  130.3583   75.7734  228.3772 H   0  0  0  0  0  0  0  0  0  0  0  0
  133.6299   78.1399  226.8503 H   0  0  0  0  0  0  0  0  0  0  0  0
  134.7903   76.0399  226.1303 H   0  0  0  0  0  0  0  0  0  0  0  0
  1  2  2  0
  2  3  1  0
  3  4  1  0
  4  5  1  0
  5  6  2  0
  5  7  1  0
  7  8  1  0
  8  9  1  0
  9 10  1  0
 10 11  1  0
 11 12  1  0
 12 13  2  0
 13 14  1  0
 14 15  2  0
 15 16  1  0
 15 17  1  0
 17 18  2  0
  2 19  1  0
 19 20  2  0
 20 21  1  0
 21 22  2  0
 22 23  1  0
 23 24  2  0
 24 25  1  0
 24 26  1  0
 26 27  2  0
 27 28  1  0
 28 29  2  0
 11  7  1  0
 18 12  1  0
 29 19  1  0
 28 22  1  0
  3 30  1  0
  4 31  1  0
  4 32  1  0
  8 33  1  0
  8 34  1  0
  9 35  1  0
  9 36  1  0
 10 37  1  0
 10 38  1  0
 11 39  1  1
 13 40  1  0
 14 41  1  0
 17 42  1  0
 18 43  1  0
 20 44  1  0
 21 45  1  0
 23 46  1  0
 26 47  1  0
 27 48  1  0
M  END
>  <meeko>  (11) 
{"free_energy": -8.2, "intermolecular_energy": -9.69, "internal_energy": -2.0, "cluster_size": 6, "cluster_id": 2, "rank_in_cluster": 3}

$$$$

     RDKit          3D

 48 51  0  0  0  0  0  0  0  0999 V2000
  138.6220   71.1520  221.6480 O   0  0  0  0  0  0  0  0  0  0  0  0
  139.1620   71.5830  222.7060 C   0  0  0  0  0  0  0  0  0  0  0  0
  139.5100   72.9610  222.7210 N   0  0  0  0  0  0  0  0  0  0  0  0
  139.2110   73.7280  221.5260 C   0  0  0  0  0  0  0  0  0  0  0  0
  139.4090   75.1920  221.7700 C   0  0  0  0  0  0  0  0  0  0  0  0
  140.4830   75.5150  222.3250 O   0  0  0  0  0  0  0  0  0  0  0  0
  138.3910   76.0810  221.3660 N   0  0  0  0  0  0  0  0  0  0  0  0
  137.1140   75.7010  220.7130 C   0  0  0  0  0  0  0  0  0  0  0  0
  136.1280   76.5760  221.4950 C   0  0  0  0  0  0  0  0  0  0  0  0
  136.9790   77.6180  222.2340 C   0  0  0  0  0  0  0  0  0  0  0  0
  138.2680   77.5240  221.4640 C   0  0  1  0  0  0  0  0  0  0  0  0
  139.4030   78.2290  222.0230 C   0  0  0  0  0  0  0  0  0  0  0  0
  139.3690   78.8470  223.2710 C   0  0  0  0  0  0  0  0  0  0  0  0
  140.4140   79.5340  223.8040 C   0  0  0  0  0  0  0  0  0  0  0  0
  141.5960   79.6500  223.1030 C   0  0  0  0  0  0  0  0  0  0  0  0
  142.9660   80.5240  223.7530 Cl  0  0  0  0  0  0  0  0  0  0  0  0
  141.6610   79.0500  221.8630 C   0  0  0  0  0  0  0  0  0  0  0  0
  140.5800   78.3450  221.3230 C   0  0  0  0  0  0  0  0  0  0  0  0
  139.4190   70.7230  223.8560 C   0  0  0  0  0  0  0  0  0  0  0  0
  139.0370   69.4000  223.7650 C   0  0  0  0  0  0  0  0  0  0  0  0
  139.2600   68.5620  224.8220 C   0  0  0  0  0  0  0  0  0  0  0  0
  139.8650   69.0670  225.9540 C   0  0  0  0  0  0  0  0  0  0  0  0
  140.1070   68.2470  227.0410 C   0  0  0  0  0  0  0  0  0  0  0  0
  140.7190   68.7520  228.1910 C   0  0  0  0  0  0  0  0  0  0  0  0
  140.9290   67.9130  229.2150 F   0  0  0  0  0  0  0  0  0  0  0  0
  141.0950   70.0870  228.2590 C   0  0  0  0  0  0  0  0  0  0  0  0
  140.8550   70.9180  227.1680 C   0  0  0  0  0  0  0  0  0  0  0  0
  140.2480   70.3960  226.0430 C   0  0  0  0  0  0  0  0  0  0  0  0
  140.0130   71.2010  224.9770 N   0  0  0  0  0  0  0  0  0  0  0  0
  139.9630   73.3870  223.5680 H   0  0  0  0  0  0  0  0  0  0  0  0
  139.8782   73.4044  220.7135 H   0  0  0  0  0  0  0  0  0  0  0  0
  138.1601   73.5556  221.2503 H   0  0  0  0  0  0  0  0  0  0  0  0
  137.1162   75.9499  219.6415 H   0  0  0  0  0  0  0  0  0  0  0  0
  136.8898   74.6244  220.7373 H   0  0  0  0  0  0  0  0  0  0  0  0
  135.4288   77.0728  220.8063 H   0  0  0  0  0  0  0  0  0  0  0  0
  135.5269   75.9775  222.1953 H   0  0  0  0  0  0  0  0  0  0  0  0
  136.5383   78.6235  222.1651 H   0  0  0  0  0  0  0  0  0  0  0  0
  137.0795   77.4411  223.3150 H   0  0  0  0  0  0  0  0  0  0  0  0
  138.2545   78.0435  220.4945 H   0  0  0  0  0  0  0  0  0  0  0  0
  138.4425   78.7749  223.8595 H   0  0  0  0  0  0  0  0  0  0  0  0
  140.3166   79.9983  224.7964 H   0  0  0  0  0  0  0  0  0  0  0  0
  142.5910   79.1281  221.2809 H   0  0  0  0  0  0  0  0  0  0  0  0
  140.6728   77.8799  220.3305 H   0  0  0  0  0  0  0  0  0  0  0  0
  138.5572   69.0229  222.8498 H   0  0  0  0  0  0  0  0  0  0  0  0
  138.9623   67.5043  224.7706 H   0  0  0  0  0  0  0  0  0  0  0  0
  139.8149   67.1873  226.9998 H   0  0  0  0  0  0  0  0  0  0  0  0
  141.5771   70.4836  229.1647 H   0  0  0  0  0  0  0  0  0  0  0  0
  141.1456   71.9784  227.2019 H   0  0  0  0  0  0  0  0  0  0  0  0
  1  2  2  0
  2  3  1  0
  3  4  1  0
  4  5  1  0
  5  6  2  0
  5  7  1  0
  7  8  1  0
  8  9  1  0
  9 10  1  0
 10 11  1  0
 11 12  1  0
 12 13  2  0
 13 14  1  0
 14 15  2  0
 15 16  1  0
 15 17  1  0
 17 18  2  0
  2 19  1  0
 19 20  2  0
 20 21  1  0
 21 22  2  0
 22 23  1  0
 23 24  2  0
 24 25  1  0
 24 26  1  0
 26 27  2  0
 27 28  1  0
 28 29  2  0
 11  7  1  0
 18 12  1  0
 29 19  1  0
 28 22  1  0
  3 30  1  0
  4 31  1  0
  4 32  1  0
  8 33  1  0
  8 34  1  0
  9 35  1  0
  9 36  1  0
 10 37  1  0
 10 38  1  0
 11 39  1  6
 13 40  1  0
 14 41  1  0
 17 42  1  0
 18 43  1  0
 20 44  1  0
 21 45  1  0
 23 46  1  0
 26 47  1  0
 27 48  1  0
M  END
>  <meeko>  (12) 
{"free_energy": -8.41, "intermolecular_energy": -9.9, "internal_energy": -1.63, "cluster_size": 11, "cluster_id": 1, "rank_in_cluster": 11}

$$$$

     RDKit          3D

 48 51  0  0  0  0  0  0  0  0999 V2000
  139.0190   71.0050  221.5810 O   0  0  0  0  0  0  0  0  0  0  0  0
  139.3990   71.4590  222.6980 C   0  0  0  0  0  0  0  0  0  0  0  0
  139.6530   72.8560  222.7580 N   0  0  0  0  0  0  0  0  0  0  0  0
  139.4510   73.6150  221.5380 C   0  0  0  0  0  0  0  0  0  0  0  0
  139.5770   75.0840  221.7980 C   0  0  0  0  0  0  0  0  0  0  0  0
  140.6890   75.4730  222.2210 O   0  0  0  0  0  0  0  0  0  0  0  0
  138.4560   75.9050  221.5520 N   0  0  0  0  0  0  0  0  0  0  0  0
  137.1340   75.4470  221.0580 C   0  0  0  0  0  0  0  0  0  0  0  0
  136.2010   76.2340  221.9840 C   0  0  0  0  0  0  0  0  0  0  0  0
  137.0670   77.3210  222.6360 C   0  0  0  0  0  0  0  0  0  0  0  0
  138.2490   77.3330  221.7050 C   0  0  1  0  0  0  0  0  0  0  0  0
  139.3950   78.1080  222.1340 C   0  0  0  0  0  0  0  0  0  0  0  0
  140.5430   78.2540  221.3580 C   0  0  0  0  0  0  0  0  0  0  0  0
  141.6390   78.9560  221.7520 C   0  0  0  0  0  0  0  0  0  0  0  0
  141.6570   79.5770  222.9840 C   0  0  0  0  0  0  0  0  0  0  0  0
  143.0460   80.4930  223.5280 Cl  0  0  0  0  0  0  0  0  0  0  0  0
  140.5350   79.4510  223.7760 C   0  0  0  0  0  0  0  0  0  0  0  0
  139.4130   78.7260  223.3620 C   0  0  0  0  0  0  0  0  0  0  0  0
  139.5710   70.6050  223.8680 C   0  0  0  0  0  0  0  0  0  0  0  0
  139.1130   69.3060  223.7870 C   0  0  0  0  0  0  0  0  0  0  0  0
  139.2560   68.4740  224.8620 C   0  0  0  0  0  0  0  0  0  0  0  0
  139.8580   68.9620  226.0040 C   0  0  0  0  0  0  0  0  0  0  0  0
  140.0190   68.1490  227.1100 C   0  0  0  0  0  0  0  0  0  0  0  0
  140.6280   68.6360  228.2690 C   0  0  0  0  0  0  0  0  0  0  0  0
  140.7580   67.8040  229.3120 F   0  0  0  0  0  0  0  0  0  0  0  0
  141.0810   69.9470  228.3280 C   0  0  0  0  0  0  0  0  0  0  0  0
  140.9220   70.7720  227.2170 C   0  0  0  0  0  0  0  0  0  0  0  0
  140.3170   70.2670  226.0840 C   0  0  0  0  0  0  0  0  0  0  0  0
  140.1610   71.0660  224.9980 N   0  0  0  0  0  0  0  0  0  0  0  0
  139.9720   73.3020  223.6550 H   0  0  0  0  0  0  0  0  0  0  0  0
  140.2061   73.3140  220.7969 H   0  0  0  0  0  0  0  0  0  0  0  0
  138.4390   73.4098  221.1589 H   0  0  0  0  0  0  0  0  0  0  0  0
  136.9797   75.7157  220.0025 H   0  0  0  0  0  0  0  0  0  0  0  0
  136.9891   74.3568  221.0807 H   0  0  0  0  0  0  0  0  0  0  0  0
  135.3854   76.6918  221.4050 H   0  0  0  0  0  0  0  0  0  0  0  0
  135.7393   75.5809  222.7392 H   0  0  0  0  0  0  0  0  0  0  0  0
  136.5532   78.2935  222.6510 H   0  0  0  0  0  0  0  0  0  0  0  0
  137.3185   77.1326  223.6902 H   0  0  0  0  0  0  0  0  0  0  0  0
  138.0757   77.8671  220.7591 H   0  0  0  0  0  0  0  0  0  0  0  0
  140.5640   77.7733  220.3688 H   0  0  0  0  0  0  0  0  0  0  0  0
  142.5126   79.0289  221.0875 H   0  0  0  0  0  0  0  0  0  0  0  0
  140.5222   79.9355  224.7635 H   0  0  0  0  0  0  0  0  0  0  0  0
  138.5379   78.6496  224.0241 H   0  0  0  0  0  0  0  0  0  0  0  0
  138.6365   68.9428  222.8645 H   0  0  0  0  0  0  0  0  0  0  0  0
  138.8979   67.4349  224.8177 H   0  0  0  0  0  0  0  0  0  0  0  0
  139.6641   67.1083  227.0773 H   0  0  0  0  0  0  0  0  0  0  0  0
  141.5598   70.3297  229.2414 H   0  0  0  0  0  0  0  0  0  0  0  0
  141.2745   71.8137  227.2424 H   0  0  0  0  0  0  0  0  0  0  0  0
  1  2  2  0
  2  3  1  0
  3  4  1  0
  4  5  1  0
  5  6  2  0
  5  7  1  0
  7  8  1  0
  8  9  1  0
  9 10  1  0
 10 11  1  0
 11 12  1  0
 12 13  2  0
 13 14  1  0
 14 15  2  0
 15 16  1  0
 15 17  1  0
 17 18  2  0
  2 19  1  0
 19 20  2  0
 20 21  1  0
 21 22  2  0
 22 23  1  0
 23 24  2  0
 24 25  1  0
 24 26  1  0
 26 27  2  0
 27 28  1  0
 28 29  2  0
 11  7  1  0
 18 12  1  0
 29 19  1  0
 28 22  1  0
  3 30  1  0
  4 31  1  0
  4 32  1  0
  8 33  1  0
  8 34  1  0
  9 35  1  0
  9 36  1  0
 10 37  1  0
 10 38  1  0
 11 39  1  6
 13 40  1  0
 14 41  1  0
 17 42  1  0
 18 43  1  0
 20 44  1  0
 21 45  1  0
 23 46  1  0
 26 47  1  0
 27 48  1  0
M  END
>  <meeko>  (13) 
{"free_energy": -8.53, "intermolecular_energy": -10.02, "internal_energy": -1.5, "cluster_size": 11, "cluster_id": 1, "rank_in_cluster": 9}

$$$$

     RDKit          3D

 48 51  0  0  0  0  0  0  0  0999 V2000
  133.5690   70.0720  226.7210 O   0  0  0  0  0  0  0  0  0  0  0  0
  133.8310   71.1930  226.2020 C   0  0  0  0  0  0  0  0  0  0  0  0
  134.7780   71.1940  225.1420 N   0  0  0  0  0  0  0  0  0  0  0  0
  135.3440   69.9120  224.7660 C   0  0  0  0  0  0  0  0  0  0  0  0
  136.3700   70.0780  223.6870 C   0  0  0  0  0  0  0  0  0  0  0  0
  136.4520   71.2200  223.1810 O   0  0  0  0  0  0  0  0  0  0  0  0
  137.1510   68.9600  223.3280 N   0  0  0  0  0  0  0  0  0  0  0  0
  136.7690   67.9120  222.3500 C   0  0  0  0  0  0  0  0  0  0  0  0
  138.0800   67.7680  221.5680 C   0  0  0  0  0  0  0  0  0  0  0  0
  139.1570   68.4620  222.4140 C   0  0  0  0  0  0  0  0  0  0  0  0
  138.4680   68.5220  223.7500 C   0  0  1  0  0  0  0  0  0  0  0  0
  139.1160   69.3210  224.7700 C   0  0  0  0  0  0  0  0  0  0  0  0
  139.1830   68.9320  226.1060 C   0  0  0  0  0  0  0  0  0  0  0  0
  139.7660   69.6770  227.0830 C   0  0  0  0  0  0  0  0  0  0  0  0
  140.3350   70.8960  226.7770 C   0  0  0  0  0  0  0  0  0  0  0  0
  141.0960   71.8860  228.0040 Cl  0  0  0  0  0  0  0  0  0  0  0  0
  140.2840   71.3100  225.4630 C   0  0  0  0  0  0  0  0  0  0  0  0
  139.6820   70.5350  224.4650 C   0  0  0  0  0  0  0  0  0  0  0  0
  133.2030   72.4280  226.6580 C   0  0  0  0  0  0  0  0  0  0  0  0
  131.9860   72.3290  227.3010 C   0  0  0  0  0  0  0  0  0  0  0  0
  131.3650   73.4640  227.7440 C   0  0  0  0  0  0  0  0  0  0  0  0
  131.9770   74.6820  227.5320 C   0  0  0  0  0  0  0  0  0  0  0  0
  131.3770   75.8490  227.9660 C   0  0  0  0  0  0  0  0  0  0  0  0
  131.9910   77.0860  227.7560 C   0  0  0  0  0  0  0  0  0  0  0  0
  131.3650   78.1860  228.1980 F   0  0  0  0  0  0  0  0  0  0  0  0
  133.2160   77.1610  227.1060 C   0  0  0  0  0  0  0  0  0  0  0  0
  133.8260   75.9900  226.6660 C   0  0  0  0  0  0  0  0  0  0  0  0
  133.1990   74.7800  226.8860 C   0  0  0  0  0  0  0  0  0  0  0  0
  133.7890   73.6350  226.4600 N   0  0  0  0  0  0  0  0  0  0  0  0
  135.0450   72.0910  224.6650 H   0  0  0  0  0  0  0  0  0  0  0  0
  135.8182   69.4551  225.6471 H   0  0  0  0  0  0  0  0  0  0  0  0
  134.5364   69.2679  224.3879 H   0  0  0  0  0  0  0  0  0  0  0  0
  136.4890   66.9729  222.8497 H   0  0  0  0  0  0  0  0  0  0  0  0
  135.8922   68.1585  221.7332 H   0  0  0  0  0  0  0  0  0  0  0  0
  138.3281   66.7052  221.4306 H   0  0  0  0  0  0  0  0  0  0  0  0
  138.0030   68.2174  220.5669 H   0  0  0  0  0  0  0  0  0  0  0  0
  140.0810   67.8670  222.4610 H   0  0  0  0  0  0  0  0  0  0  0  0
  139.4840   69.4376  222.0252 H   0  0  0  0  0  0  0  0  0  0  0  0
  138.4710   67.5720  224.3045 H   0  0  0  0  0  0  0  0  0  0  0  0
  138.7384   67.9659  226.3871 H   0  0  0  0  0  0  0  0  0  0  0  0
  139.7839   69.3071  228.1188 H   0  0  0  0  0  0  0  0  0  0  0  0
  140.7296   72.2782  225.1908 H   0  0  0  0  0  0  0  0  0  0  0  0
  139.6619   70.9010  223.4279 H   0  0  0  0  0  0  0  0  0  0  0  0
  131.5192   71.3451  227.4559 H   0  0  0  0  0  0  0  0  0  0  0  0
  130.3952   73.4068  228.2600 H   0  0  0  0  0  0  0  0  0  0  0  0
  130.4065   75.8032  228.4818 H   0  0  0  0  0  0  0  0  0  0  0  0
  133.6989   78.1354  226.9407 H   0  0  0  0  0  0  0  0  0  0  0  0
  134.7962   76.0282  226.1491 H   0  0  0  0  0  0  0  0  0  0  0  0
  1  2  2  0
  2  3  1  0
  3  4  1  0
  4  5  1  0
  5  6  2  0
  5  7  1  0
  7  8  1  0
  8  9  1  0
  9 10  1  0
 10 11  1  0
 11 12  1  0
 12 13  2  0
 13 14  1  0
 14 15  2  0
 15 16  1  0
 15 17  1  0
 17 18  2  0
  2 19  1  0
 19 20  2  0
 20 21  1  0
 21 22  2  0
 22 23  1  0
 23 24  2  0
 24 25  1  0
 24 26  1  0
 26 27  2  0
 27 28  1  0
 28 29  2  0
 11  7  1  0
 18 12  1  0
 29 19  1  0
 28 22  1  0
  3 30  1  0
  4 31  1  0
  4 32  1  0
  8 33  1  0
  8 34  1  0
  9 35  1  0
  9 36  1  0
 10 37  1  0
 10 38  1  0
 11 39  1  1
 13 40  1  0
 14 41  1  0
 17 42  1  0
 18 43  1  0
 20 44  1  0
 21 45  1  0
 23 46  1  0
 26 47  1  0
 27 48  1  0
M  END
>  <meeko>  (14) 
{"free_energy": -8.22, "intermolecular_energy": -9.71, "internal_energy": -2.0, "cluster_size": 6, "cluster_id": 2, "rank_in_cluster": 1}

$$$$

     RDKit          3D

 48 51  0  0  0  0  0  0  0  0999 V2000
  133.6380   70.1710  226.7430 O   0  0  0  0  0  0  0  0  0  0  0  0
  133.8250   71.2790  226.1640 C   0  0  0  0  0  0  0  0  0  0  0  0
  134.6760   71.2620  225.0260 N   0  0  0  0  0  0  0  0  0  0  0  0
  135.2410   69.9800  224.6470 C   0  0  0  0  0  0  0  0  0  0  0  0
  136.4540   70.1660  223.7880 C   0  0  0  0  0  0  0  0  0  0  0  0
  136.7120   71.3440  223.4520 O   0  0  0  0  0  0  0  0  0  0  0  0
  137.2000   69.0250  223.4280 N   0  0  0  0  0  0  0  0  0  0  0  0
  136.8110   68.0180  222.4100 C   0  0  0  0  0  0  0  0  0  0  0  0
  138.1410   67.8370  221.6720 C   0  0  0  0  0  0  0  0  0  0  0  0
  139.2160   68.4640  222.5710 C   0  0  0  0  0  0  0  0  0  0  0  0
  138.4820   68.5210  223.8840 C   0  0  1  0  0  0  0  0  0  0  0  0
  139.1250   69.2660  224.9460 C   0  0  0  0  0  0  0  0  0  0  0  0
  139.6420   70.5470  224.7660 C   0  0  0  0  0  0  0  0  0  0  0  0
  140.2700   71.2550  225.7430 C   0  0  0  0  0  0  0  0  0  0  0  0
  140.4260   70.7100  227.0010 C   0  0  0  0  0  0  0  0  0  0  0  0
  141.2260   71.5870  228.2870 Cl  0  0  0  0  0  0  0  0  0  0  0  0
  139.9250   69.4420  227.2120 C   0  0  0  0  0  0  0  0  0  0  0  0
  139.2810   68.7230  226.2000 C   0  0  0  0  0  0  0  0  0  0  0  0
  133.2060   72.5150  226.6300 C   0  0  0  0  0  0  0  0  0  0  0  0
  131.9870   72.4200  227.2700 C   0  0  0  0  0  0  0  0  0  0  0  0
  131.3740   73.5550  227.7220 C   0  0  0  0  0  0  0  0  0  0  0  0
  131.9970   74.7710  227.5220 C   0  0  0  0  0  0  0  0  0  0  0  0
  131.4060   75.9390  227.9660 C   0  0  0  0  0  0  0  0  0  0  0  0
  132.0310   77.1720  227.7680 C   0  0  0  0  0  0  0  0  0  0  0  0
  131.4130   78.2730  228.2180 F   0  0  0  0  0  0  0  0  0  0  0  0
  133.2570   77.2430  227.1200 C   0  0  0  0  0  0  0  0  0  0  0  0
  133.8580   76.0710  226.6700 C   0  0  0  0  0  0  0  0  0  0  0  0
  133.2210   74.8640  226.8790 C   0  0  0  0  0  0  0  0  0  0  0  0
  133.8020   73.7180  226.4430 N   0  0  0  0  0  0  0  0  0  0  0  0
  134.8760   72.1470  224.4960 H   0  0  0  0  0  0  0  0  0  0  0  0
  135.5237   69.4278  225.5554 H   0  0  0  0  0  0  0  0  0  0  0  0
  134.4875   69.4178  224.0759 H   0  0  0  0  0  0  0  0  0  0  0  0
  136.4740   67.0799  222.8752 H   0  0  0  0  0  0  0  0  0  0  0  0
  135.9686   68.3168  221.7689 H   0  0  0  0  0  0  0  0  0  0  0  0
  138.3491   66.7680  221.5169 H   0  0  0  0  0  0  0  0  0  0  0  0
  138.1184   68.3134  220.6808 H   0  0  0  0  0  0  0  0  0  0  0  0
  140.1121   67.8292  222.6346 H   0  0  0  0  0  0  0  0  0  0  0  0
  139.5978   69.4335  222.2185 H   0  0  0  0  0  0  0  0  0  0  0  0
  138.4257   67.5583  224.4132 H   0  0  0  0  0  0  0  0  0  0  0  0
  139.5361   71.0134  223.7754 H   0  0  0  0  0  0  0  0  0  0  0  0
  140.6541   72.2635  225.5299 H   0  0  0  0  0  0  0  0  0  0  0  0
  140.0353   68.9830  228.2055 H   0  0  0  0  0  0  0  0  0  0  0  0
  138.8958   67.7141  226.4088 H   0  0  0  0  0  0  0  0  0  0  0  0
  131.5123   71.4384  227.4153 H   0  0  0  0  0  0  0  0  0  0  0  0
  130.4027   73.5008  228.2354 H   0  0  0  0  0  0  0  0  0  0  0  0
  130.4344   75.8969  228.4800 H   0  0  0  0  0  0  0  0  0  0  0  0
  133.7479   78.2149  226.9640 H   0  0  0  0  0  0  0  0  0  0  0  0
  134.8289   76.1060  226.1540 H   0  0  0  0  0  0  0  0  0  0  0  0
  1  2  2  0
  2  3  1  0
  3  4  1  0
  4  5  1  0
  5  6  2  0
  5  7  1  0
  7  8  1  0
  8  9  1  0
  9 10  1  0
 10 11  1  0
 11 12  1  0
 12 13  2  0
 13 14  1  0
 14 15  2  0
 15 16  1  0
 15 17  1  0
 17 18  2  0
  2 19  1  0
 19 20  2  0
 20 21  1  0
 21 22  2  0
 22 23  1  0
 23 24  2  0
 24 25  1  0
 24 26  1  0
 26 27  2  0
 27 28  1  0
 28 29  2  0
 11  7  1  0
 18 12  1  0
 29 19  1  0
 28 22  1  0
  3 30  1  0
  4 31  1  0
  4 32  1  0
  8 33  1  0
  8 34  1  0
  9 35  1  0
  9 36  1  0
 10 37  1  0
 10 38  1  0
 11 39  1  1
 13 40  1  0
 14 41  1  0
 17 42  1  0
 18 43  1  0
 20 44  1  0
 21 45  1  0
 23 46  1  0
 26 47  1  0
 27 48  1  0
M  END
>  <meeko>  (15) 
{"free_energy": -8.11, "intermolecular_energy": -9.61, "internal_energy": -1.92, "cluster_size": 6, "cluster_id": 2, "rank_in_cluster": 6}

$$$$

     RDKit          3D

 48 51  0  0  0  0  0  0  0  0999 V2000
  141.4500   71.9190  221.7100 O   0  0  0  0  0  0  0  0  0  0  0  0
  140.5560   72.1300  222.5780 C   0  0  0  0  0  0  0  0  0  0  0  0
  139.7540   73.2880  222.3920 N   0  0  0  0  0  0  0  0  0  0  0  0
  140.0420   74.1070  221.2290 C   0  0  0  0  0  0  0  0  0  0  0  0
  140.2420   75.5390  221.6230 C   0  0  0  0  0  0  0  0  0  0  0  0
  139.4860   75.9700  222.5230 O   0  0  0  0  0  0  0  0  0  0  0  0
  141.2450   76.2800  220.9640 N   0  0  0  0  0  0  0  0  0  0  0  0
  142.2850   75.7250  220.0630 C   0  0  0  0  0  0  0  0  0  0  0  0
  142.2410   76.7480  218.9220 C   0  0  0  0  0  0  0  0  0  0  0  0
  141.4660   77.9570  219.4640 C   0  0  0  0  0  0  0  0  0  0  0  0
  141.5460   77.6990  220.9450 C   0  0  1  0  0  0  0  0  0  0  0  0
  140.7250   78.5430  221.7880 C   0  0  0  0  0  0  0  0  0  0  0  0
  141.1460   79.0090  223.0320 C   0  0  0  0  0  0  0  0  0  0  0  0
  140.3820   79.7820  223.8490 C   0  0  0  0  0  0  0  0  0  0  0  0
  139.1090   80.1510  223.4620 C   0  0  0  0  0  0  0  0  0  0  0  0
  138.0940   81.1460  224.4830 Cl  0  0  0  0  0  0  0  0  0  0  0  0
  138.6630   79.7050  222.2360 C   0  0  0  0  0  0  0  0  0  0  0  0
  139.4570   78.9090  221.4030 C   0  0  0  0  0  0  0  0  0  0  0  0
  140.3490   71.2380  223.7140 C   0  0  0  0  0  0  0  0  0  0  0  0
  139.6730   70.0570  223.4880 C   0  0  0  0  0  0  0  0  0  0  0  0
  139.4590   69.1950  224.5270 C   0  0  0  0  0  0  0  0  0  0  0  0
  139.9290   69.5340  225.7790 C   0  0  0  0  0  0  0  0  0  0  0  0
  139.7310   68.6850  226.8520 C   0  0  0  0  0  0  0  0  0  0  0  0
  140.2040   69.0220  228.1230 C   0  0  0  0  0  0  0  0  0  0  0  0
  139.9840   68.1620  229.1270 F   0  0  0  0  0  0  0  0  0  0  0  0
  140.8820   70.2160  228.3260 C   0  0  0  0  0  0  0  0  0  0  0  0
  141.0860   71.0760  227.2500 C   0  0  0  0  0  0  0  0  0  0  0  0
  140.6080   70.7210  226.0040 C   0  0  0  0  0  0  0  0  0  0  0  0
  140.8040   71.5540  224.9520 N   0  0  0  0  0  0  0  0  0  0  0  0
  138.9920   73.5250  223.0760 H   0  0  0  0  0  0  0  0  0  0  0  0
  140.9566   73.7354  220.7437 H   0  0  0  0  0  0  0  0  0  0  0  0
  139.1897   74.0476  220.5361 H   0  0  0  0  0  0  0  0  0  0  0  0
  143.2718   75.7003  220.5485 H   0  0  0  0  0  0  0  0  0  0  0  0
  142.1139   74.6838  219.7520 H   0  0  0  0  0  0  0  0  0  0  0  0
  143.2608   77.0452  218.6361 H   0  0  0  0  0  0  0  0  0  0  0  0
  141.7586   76.3302  218.0260 H   0  0  0  0  0  0  0  0  0  0  0  0
  141.9519   78.9054  219.1910 H   0  0  0  0  0  0  0  0  0  0  0  0
  140.4428   78.0561  219.0725 H   0  0  0  0  0  0  0  0  0  0  0  0
  142.5131   77.9607  221.3991 H   0  0  0  0  0  0  0  0  0  0  0  0
  142.1554   78.7355  223.3729 H   0  0  0  0  0  0  0  0  0  0  0  0
  140.7787   80.1139  224.8198 H   0  0  0  0  0  0  0  0  0  0  0  0
  137.6524   79.9834  221.9026 H   0  0  0  0  0  0  0  0  0  0  0  0
  139.0634   78.5733  220.4322 H   0  0  0  0  0  0  0  0  0  0  0  0
  139.3090   69.8109  222.4796 H   0  0  0  0  0  0  0  0  0  0  0  0
  138.9219   68.2483  224.3678 H   0  0  0  0  0  0  0  0  0  0  0  0
  139.1961   67.7353  226.7039 H   0  0  0  0  0  0  0  0  0  0  0  0
  141.2544   70.4802  229.3268 H   0  0  0  0  0  0  0  0  0  0  0  0
  141.6214   72.0265  227.3908 H   0  0  0  0  0  0  0  0  0  0  0  0
  1  2  2  0
  2  3  1  0
  3  4  1  0
  4  5  1  0
  5  6  2  0
  5  7  1  0
  7  8  1  0
  8  9  1  0
  9 10  1  0
 10 11  1  0
 11 12  1  0
 12 13  2  0
 13 14  1  0
 14 15  2  0
 15 16  1  0
 15 17  1  0
 17 18  2  0
  2 19  1  0
 19 20  2  0
 20 21  1  0
 21 22  2  0
 22 23  1  0
 23 24  2  0
 24 25  1  0
 24 26  1  0
 26 27  2  0
 27 28  1  0
 28 29  2  0
 11  7  1  0
 18 12  1  0
 29 19  1  0
 28 22  1  0
  3 30  1  0
  4 31  1  0
  4 32  1  0
  8 33  1  0
  8 34  1  0
  9 35  1  0
  9 36  1  0
 10 37  1  0
 10 38  1  0
 11 39  1  1
 13 40  1  0
 14 41  1  0
 17 42  1  0
 18 43  1  0
 20 44  1  0
 21 45  1  0
 23 46  1  0
 26 47  1  0
 27 48  1  0
M  END
>  <meeko>  (16) 
{"free_energy": -8.62, "intermolecular_energy": -10.11, "internal_energy": -1.47, "cluster_size": 11, "cluster_id": 1, "rank_in_cluster": 4}

$$$$

     RDKit          3D

 48 51  0  0  0  0  0  0  0  0999 V2000
  138.5440   70.5500  221.6900 O   0  0  0  0  0  0  0  0  0  0  0  0
  139.0300   71.0810  222.7290 C   0  0  0  0  0  0  0  0  0  0  0  0
  139.2710   72.4800  222.6700 N   0  0  0  0  0  0  0  0  0  0  0  0
  138.9370   73.1530  221.4280 C   0  0  0  0  0  0  0  0  0  0  0  0
  139.7820   74.3750  221.2410 C   0  0  0  0  0  0  0  0  0  0  0  0
  140.2480   74.8850  222.2860 O   0  0  0  0  0  0  0  0  0  0  0  0
  139.9870   74.8530  219.9300 N   0  0  0  0  0  0  0  0  0  0  0  0
  138.9350   75.3640  219.0170 C   0  0  0  0  0  0  0  0  0  0  0  0
  139.6270   76.6140  218.4630 C   0  0  0  0  0  0  0  0  0  0  0  0
  141.1120   76.4730  218.8250 C   0  0  0  0  0  0  0  0  0  0  0  0
  141.1880   75.0010  219.1280 C   0  0  1  0  0  0  0  0  0  0  0  0
  142.4210   74.5310  219.7250 C   0  0  0  0  0  0  0  0  0  0  0  0
  143.5270   75.3550  219.9230 C   0  0  0  0  0  0  0  0  0  0  0  0
  144.7020   74.9290  220.4590 C   0  0  0  0  0  0  0  0  0  0  0  0
  144.8500   73.6120  220.8430 C   0  0  0  0  0  0  0  0  0  0  0  0
  146.3450   73.0230  221.5380 Cl  0  0  0  0  0  0  0  0  0  0  0  0
  143.7730   72.7710  220.6590 C   0  0  0  0  0  0  0  0  0  0  0  0
  142.5690   73.2190  220.1070 C   0  0  0  0  0  0  0  0  0  0  0  0
  139.3300   70.3100  223.9300 C   0  0  0  0  0  0  0  0  0  0  0  0
  138.9950   68.9710  223.9330 C   0  0  0  0  0  0  0  0  0  0  0  0
  139.2610   68.2130  225.0390 C   0  0  0  0  0  0  0  0  0  0  0  0
  139.8590   68.8150  226.1280 C   0  0  0  0  0  0  0  0  0  0  0  0
  140.1420   68.0790  227.2630 C   0  0  0  0  0  0  0  0  0  0  0  0
  140.7480   68.6800  228.3690 C   0  0  0  0  0  0  0  0  0  0  0  0
  141.0000   67.9200  229.4440 F   0  0  0  0  0  0  0  0  0  0  0  0
  141.0760   70.0290  228.3430 C   0  0  0  0  0  0  0  0  0  0  0  0
  140.7940   70.7770  227.2030 C   0  0  0  0  0  0  0  0  0  0  0  0
  140.1950   70.1590  226.1230 C   0  0  0  0  0  0  0  0  0  0  0  0
  139.9180   70.8820  225.0090 N   0  0  0  0  0  0  0  0  0  0  0  0
  139.6740   72.9880  223.4970 H   0  0  0  0  0  0  0  0  0  0  0  0
  139.1080   72.4643  220.5875 H   0  0  0  0  0  0  0  0  0  0  0  0
  137.8806   73.4573  221.4651 H   0  0  0  0  0  0  0  0  0  0  0  0
  138.7031   74.6418  218.2204 H   0  0  0  0  0  0  0  0  0  0  0  0
  137.9640   75.5534  219.4979 H   0  0  0  0  0  0  0  0  0  0  0  0
  139.5034   76.6668  217.3712 H   0  0  0  0  0  0  0  0  0  0  0  0
  139.1955   77.5333  218.8856 H   0  0  0  0  0  0  0  0  0  0  0  0
  141.7624   76.7470  217.9813 H   0  0  0  0  0  0  0  0  0  0  0  0
  141.4454   77.1254  219.6455 H   0  0  0  0  0  0  0  0  0  0  0  0
  141.2189   74.3568  218.2369 H   0  0  0  0  0  0  0  0  0  0  0  0
  143.4449   76.4117  219.6286 H   0  0  0  0  0  0  0  0  0  0  0  0
  145.5356   75.6353  220.5866 H   0  0  0  0  0  0  0  0  0  0  0  0
  143.8637   71.7156  220.9555 H   0  0  0  0  0  0  0  0  0  0  0  0
  141.7333   72.5156  219.9774 H   0  0  0  0  0  0  0  0  0  0  0  0
  138.5175   68.5173  223.0520 H   0  0  0  0  0  0  0  0  0  0  0  0
  139.0035   67.1438  225.0609 H   0  0  0  0  0  0  0  0  0  0  0  0
  139.8876   67.0093  227.2959 H   0  0  0  0  0  0  0  0  0  0  0  0
  141.5536   70.5017  229.2139 H   0  0  0  0  0  0  0  0  0  0  0  0
  141.0453   71.8472  227.1631 H   0  0  0  0  0  0  0  0  0  0  0  0
  1  2  2  0
  2  3  1  0
  3  4  1  0
  4  5  1  0
  5  6  2  0
  5  7  1  0
  7  8  1  0
  8  9  1  0
  9 10  1  0
 10 11  1  0
 11 12  1  0
 12 13  2  0
 13 14  1  0
 14 15  2  0
 15 16  1  0
 15 17  1  0
 17 18  2  0
  2 19  1  0
 19 20  2  0
 20 21  1  0
 21 22  2  0
 22 23  1  0
 23 24  2  0
 24 25  1  0
 24 26  1  0
 26 27  2  0
 27 28  1  0
 28 29  2  0
 11  7  1  0
 18 12  1  0
 29 19  1  0
 28 22  1  0
  3 30  1  0
  4 31  1  0
  4 32  1  0
  8 33  1  0
  8 34  1  0
  9 35  1  0
  9 36  1  0
 10 37  1  0
 10 38  1  0
 11 39  1  6
 13 40  1  0
 14 41  1  0
 17 42  1  0
 18 43  1  0
 20 44  1  0
 21 45  1  0
 23 46  1  0
 26 47  1  0
 27 48  1  0
M  END
>  <meeko>  (17) 
{"free_energy": -8.03, "intermolecular_energy": -9.53, "internal_energy": -1.96, "cluster_size": 1, "cluster_id": 4, "rank_in_cluster": 1}

$$$$

     RDKit          3D

 48 51  0  0  0  0  0  0  0  0999 V2000
  140.1220   73.6050  222.3170 O   0  0  0  0  0  0  0  0  0  0  0  0
  140.2090   72.3470  222.2400 C   0  0  0  0  0  0  0  0  0  0  0  0
  140.3690   71.8040  220.9360 N   0  0  0  0  0  0  0  0  0  0  0  0
  140.4160   72.7450  219.8330 C   0  0  0  0  0  0  0  0  0  0  0  0
  141.7940   72.8170  219.2520 C   0  0  0  0  0  0  0  0  0  0  0  0
  141.8750   72.6690  218.0120 O   0  0  0  0  0  0  0  0  0  0  0  0
  142.8780   73.0410  220.1270 N   0  0  0  0  0  0  0  0  0  0  0  0
  143.6670   71.9920  220.8190 C   0  0  0  0  0  0  0  0  0  0  0  0
  145.0890   72.5210  220.5980 C   0  0  0  0  0  0  0  0  0  0  0  0
  144.9350   73.9790  220.1440 C   0  0  0  0  0  0  0  0  0  0  0  0
  143.5220   74.2600  220.5810 C   0  0  1  0  0  0  0  0  0  0  0  0
  142.9430   75.5040  220.1180 C   0  0  0  0  0  0  0  0  0  0  0  0
  143.4710   76.2360  219.0560 C   0  0  0  0  0  0  0  0  0  0  0  0
  142.9570   77.4170  218.6210 C   0  0  0  0  0  0  0  0  0  0  0  0
  141.8480   77.9590  219.2380 C   0  0  0  0  0  0  0  0  0  0  0  0
  141.1550   79.4760  218.7090 Cl  0  0  0  0  0  0  0  0  0  0  0  0
  141.3020   77.2590  220.2940 C   0  0  0  0  0  0  0  0  0  0  0  0
  141.8390   76.0440  220.7340 C   0  0  0  0  0  0  0  0  0  0  0  0
  140.1500   71.4890  223.4180 C   0  0  0  0  0  0  0  0  0  0  0  0
  139.5650   70.2470  223.2770 C   0  0  0  0  0  0  0  0  0  0  0  0
  139.4910   69.4120  224.3570 C   0  0  0  0  0  0  0  0  0  0  0  0
  140.0060   69.8400  225.5640 C   0  0  0  0  0  0  0  0  0  0  0  0
  139.9490   69.0220  226.6770 C   0  0  0  0  0  0  0  0  0  0  0  0
  140.4690   69.4480  227.9010 C   0  0  0  0  0  0  0  0  0  0  0  0
  140.3850   68.6140  228.9480 F   0  0  0  0  0  0  0  0  0  0  0  0
  141.0520   70.7020  228.0190 C   0  0  0  0  0  0  0  0  0  0  0  0
  141.1140   71.5320  226.9020 C   0  0  0  0  0  0  0  0  0  0  0  0
  140.5930   71.0870  225.7030 C   0  0  0  0  0  0  0  0  0  0  0  0
  140.6520   71.8910  224.6110 N   0  0  0  0  0  0  0  0  0  0  0  0
  140.4480   70.7650  220.7970 H   0  0  0  0  0  0  0  0  0  0  0  0
  139.7123   72.4206  219.0523 H   0  0  0  0  0  0  0  0  0  0  0  0
  140.1398   73.7414  220.2084 H   0  0  0  0  0  0  0  0  0  0  0  0
  143.4166   71.9347  221.8886 H   0  0  0  0  0  0  0  0  0  0  0  0
  143.4953   70.9703  220.4493 H   0  0  0  0  0  0  0  0  0  0  0  0
  145.6645   72.4714  221.5341 H   0  0  0  0  0  0  0  0  0  0  0  0
  145.6288   71.9220  219.8498 H   0  0  0  0  0  0  0  0  0  0  0  0
  145.6546   74.6392  220.6502 H   0  0  0  0  0  0  0  0  0  0  0  0
  145.1233   74.1459  219.0732 H   0  0  0  0  0  0  0  0  0  0  0  0
  143.4111   74.4554  221.6578 H   0  0  0  0  0  0  0  0  0  0  0  0
  144.3554   75.8346  218.5395 H   0  0  0  0  0  0  0  0  0  0  0  0
  143.4260   77.9416  217.7755 H   0  0  0  0  0  0  0  0  0  0  0  0
  140.4182   77.6681  220.8054 H   0  0  0  0  0  0  0  0  0  0  0  0
  141.3739   75.5166  221.5798 H   0  0  0  0  0  0  0  0  0  0  0  0
  139.1615   69.9315  222.3035 H   0  0  0  0  0  0  0  0  0  0  0  0
  139.0296   68.4176  224.2658 H   0  0  0  0  0  0  0  0  0  0  0  0
  139.4895   68.0257  226.5977 H   0  0  0  0  0  0  0  0  0  0  0  0
  141.4606   71.0367  228.9839 H   0  0  0  0  0  0  0  0  0  0  0  0
  141.5722   72.5294  226.9741 H   0  0  0  0  0  0  0  0  0  0  0  0
  1  2  2  0
  2  3  1  0
  3  4  1  0
  4  5  1  0
  5  6  2  0
  5  7  1  0
  7  8  1  0
  8  9  1  0
  9 10  1  0
 10 11  1  0
 11 12  1  0
 12 13  2  0
 13 14  1  0
 14 15  2  0
 15 16  1  0
 15 17  1  0
 17 18  2  0
  2 19  1  0
 19 20  2  0
 20 21  1  0
 21 22  2  0
 22 23  1  0
 23 24  2  0
 24 25  1  0
 24 26  1  0
 26 27  2  0
 27 28  1  0
 28 29  2  0
 11  7  1  0
 18 12  1  0
 29 19  1  0
 28 22  1  0
  3 30  1  0
  4 31  1  0
  4 32  1  0
  8 33  1  0
  8 34  1  0
  9 35  1  0
  9 36  1  0
 10 37  1  0
 10 38  1  0
 11 39  1  1
 13 40  1  0
 14 41  1  0
 17 42  1  0
 18 43  1  0
 20 44  1  0
 21 45  1  0
 23 46  1  0
 26 47  1  0
 27 48  1  0
M  END
>  <meeko>  (18) 
{"free_energy": -7.87, "intermolecular_energy": -9.36, "internal_energy": -1.67, "cluster_size": 1, "cluster_id": 5, "rank_in_cluster": 1}

$$$$

     RDKit          3D

 48 51  0  0  0  0  0  0  0  0999 V2000
  141.4430   71.9880  221.7500 O   0  0  0  0  0  0  0  0  0  0  0  0
  140.5240   72.1680  222.5990 C   0  0  0  0  0  0  0  0  0  0  0  0
  139.6860   73.2970  222.3940 N   0  0  0  0  0  0  0  0  0  0  0  0
  139.9690   74.1250  221.2360 C   0  0  0  0  0  0  0  0  0  0  0  0
  140.1330   75.5590  221.6340 C   0  0  0  0  0  0  0  0  0  0  0  0
  139.3330   75.9820  222.4990 O   0  0  0  0  0  0  0  0  0  0  0  0
  141.1530   76.3130  221.0180 N   0  0  0  0  0  0  0  0  0  0  0  0
  142.2090   75.7770  220.1230 C   0  0  0  0  0  0  0  0  0  0  0  0
  142.1950   76.8320  219.0120 C   0  0  0  0  0  0  0  0  0  0  0  0
  141.4160   78.0300  219.5720 C   0  0  0  0  0  0  0  0  0  0  0  0
  141.4640   77.7300  221.0460 C   0  0  1  0  0  0  0  0  0  0  0  0
  140.6300   78.5540  221.8960 C   0  0  0  0  0  0  0  0  0  0  0  0
  139.2970   78.8370  221.6050 C   0  0  0  0  0  0  0  0  0  0  0  0
  138.5040   79.6270  222.3760 C   0  0  0  0  0  0  0  0  0  0  0  0
  139.0080   80.2030  223.5240 C   0  0  0  0  0  0  0  0  0  0  0  0
  138.0210   81.2250  224.5460 Cl  0  0  0  0  0  0  0  0  0  0  0  0
  140.3250   79.9430  223.8410 C   0  0  0  0  0  0  0  0  0  0  0  0
  141.1330   79.1280  223.0400 C   0  0  0  0  0  0  0  0  0  0  0  0
  140.3250   71.2710  223.7320 C   0  0  0  0  0  0  0  0  0  0  0  0
  139.6590   70.0850  223.5020 C   0  0  0  0  0  0  0  0  0  0  0  0
  139.4530   69.2170  224.5380 C   0  0  0  0  0  0  0  0  0  0  0  0
  139.9200   69.5560  225.7920 C   0  0  0  0  0  0  0  0  0  0  0  0
  139.7300   68.7020  226.8620 C   0  0  0  0  0  0  0  0  0  0  0  0
  140.2000   69.0390  228.1340 C   0  0  0  0  0  0  0  0  0  0  0  0
  139.9870   68.1740  229.1350 F   0  0  0  0  0  0  0  0  0  0  0  0
  140.8670   70.2390  228.3410 C   0  0  0  0  0  0  0  0  0  0  0  0
  141.0630   71.1040  227.2680 C   0  0  0  0  0  0  0  0  0  0  0  0
  140.5890   70.7480  226.0210 C   0  0  0  0  0  0  0  0  0  0  0  0
  140.7780   71.5870  224.9710 N   0  0  0  0  0  0  0  0  0  0  0  0
  138.9020   73.5070  223.0610 H   0  0  0  0  0  0  0  0  0  0  0  0
  140.8969   73.7745  220.7603 H   0  0  0  0  0  0  0  0  0  0  0  0
  139.1257   74.0486  220.5338 H   0  0  0  0  0  0  0  0  0  0  0  0
  143.1851   75.7320  220.6281 H   0  0  0  0  0  0  0  0  0  0  0  0
  142.0385   74.7463  219.7787 H   0  0  0  0  0  0  0  0  0  0  0  0
  143.2223   77.1306  218.7562 H   0  0  0  0  0  0  0  0  0  0  0  0
  141.7290   76.4432  218.0946 H   0  0  0  0  0  0  0  0  0  0  0  0
  141.9128   78.9826  219.3359 H   0  0  0  0  0  0  0  0  0  0  0  0
  140.4017   78.1465  219.1627 H   0  0  0  0  0  0  0  0  0  0  0  0
  142.4233   77.9729  221.5264 H   0  0  0  0  0  0  0  0  0  0  0  0
  138.8605   78.3947  220.6973 H   0  0  0  0  0  0  0  0  0  0  0  0
  137.4588   79.8074  222.0843 H   0  0  0  0  0  0  0  0  0  0  0  0
  140.7530   80.3896  224.7506 H   0  0  0  0  0  0  0  0  0  0  0  0
  142.1788   78.9451  223.3278 H   0  0  0  0  0  0  0  0  0  0  0  0
  139.2965   69.8396  222.4929 H   0  0  0  0  0  0  0  0  0  0  0  0
  138.9248   68.2659  224.3753 H   0  0  0  0  0  0  0  0  0  0  0  0
  139.2038   67.7480  226.7108 H   0  0  0  0  0  0  0  0  0  0  0  0
  141.2368   70.5035  229.3426 H   0  0  0  0  0  0  0  0  0  0  0  0
  141.5890   72.0593  227.4118 H   0  0  0  0  0  0  0  0  0  0  0  0
  1  2  2  0
  2  3  1  0
  3  4  1  0
  4  5  1  0
  5  6  2  0
  5  7  1  0
  7  8  1  0
  8  9  1  0
  9 10  1  0
 10 11  1  0
 11 12  1  0
 12 13  2  0
 13 14  1  0
 14 15  2  0
 15 16  1  0
 15 17  1  0
 17 18  2  0
  2 19  1  0
 19 20  2  0
 20 21  1  0
 21 22  2  0
 22 23  1  0
 23 24  2  0
 24 25  1  0
 24 26  1  0
 26 27  2  0
 27 28  1  0
 28 29  2  0
 11  7  1  0
 18 12  1  0
 29 19  1  0
 28 22  1  0
  3 30  1  0
  4 31  1  0
  4 32  1  0
  8 33  1  0
  8 34  1  0
  9 35  1  0
  9 36  1  0
 10 37  1  0
 10 38  1  0
 11 39  1  1
 13 40  1  0
 14 41  1  0
 17 42  1  0
 18 43  1  0
 20 44  1  0
 21 45  1  0
 23 46  1  0
 26 47  1  0
 27 48  1  0
M  END
>  <meeko>  (19) 
{"free_energy": -8.65, "intermolecular_energy": -10.14, "internal_energy": -1.43, "cluster_size": 11, "cluster_id": 1, "rank_in_cluster": 2}

$$$$

     RDKit          3D

 48 51  0  0  0  0  0  0  0  0999 V2000
  133.5480   70.1060  226.6620 O   0  0  0  0  0  0  0  0  0  0  0  0
  133.8300   71.2290  226.1550 C   0  0  0  0  0  0  0  0  0  0  0  0
  134.7840   71.2260  225.1030 N   0  0  0  0  0  0  0  0  0  0  0  0
  135.3370   69.9410  224.7190 C   0  0  0  0  0  0  0  0  0  0  0  0
  136.3780   70.1050  223.6550 C   0  0  0  0  0  0  0  0  0  0  0  0
  136.4670   71.2450  223.1460 O   0  0  0  0  0  0  0  0  0  0  0  0
  137.1660   68.9860  223.3120 N   0  0  0  0  0  0  0  0  0  0  0  0
  136.7970   67.9300  222.3370 C   0  0  0  0  0  0  0  0  0  0  0  0
  138.1160   67.7840  221.5700 C   0  0  0  0  0  0  0  0  0  0  0  0
  139.1830   68.4860  222.4220 C   0  0  0  0  0  0  0  0  0  0  0  0
  138.4800   68.5540  223.7510 C   0  0  1  0  0  0  0  0  0  0  0  0
  139.1150   69.3610  224.7720 C   0  0  0  0  0  0  0  0  0  0  0  0
  139.6960   70.5990  224.5050 C   0  0  0  0  0  0  0  0  0  0  0  0
  140.3170   71.3620  225.4440 C   0  0  0  0  0  0  0  0  0  0  0  0
  140.4000   70.9220  226.7490 C   0  0  0  0  0  0  0  0  0  0  0  0
  141.1890   71.8740  227.9880 Cl  0  0  0  0  0  0  0  0  0  0  0  0
  139.8350   69.6990  227.0450 C   0  0  0  0  0  0  0  0  0  0  0  0
  139.1980   68.9220  226.0720 C   0  0  0  0  0  0  0  0  0  0  0  0
  133.2140   72.4680  226.6180 C   0  0  0  0  0  0  0  0  0  0  0  0
  131.9940   72.3780  227.2580 C   0  0  0  0  0  0  0  0  0  0  0  0
  131.3850   73.5160  227.7070 C   0  0  0  0  0  0  0  0  0  0  0  0
  132.0110   74.7290  227.5040 C   0  0  0  0  0  0  0  0  0  0  0  0
  131.4230   75.9000  227.9450 C   0  0  0  0  0  0  0  0  0  0  0  0
  132.0510   77.1320  227.7440 C   0  0  0  0  0  0  0  0  0  0  0  0
  131.4360   78.2350  228.1910 F   0  0  0  0  0  0  0  0  0  0  0  0
  133.2770   77.1970  227.0960 C   0  0  0  0  0  0  0  0  0  0  0  0
  133.8760   76.0220  226.6500 C   0  0  0  0  0  0  0  0  0  0  0  0
  133.2350   74.8170  226.8610 C   0  0  0  0  0  0  0  0  0  0  0  0
  133.8140   73.6690  226.4280 N   0  0  0  0  0  0  0  0  0  0  0  0
  135.0660   72.1250  224.6350 H   0  0  0  0  0  0  0  0  0  0  0  0
  135.7941   69.4675  225.6004 H   0  0  0  0  0  0  0  0  0  0  0  0
  134.5254   69.3126  224.3235 H   0  0  0  0  0  0  0  0  0  0  0  0
  136.5142   66.9937  222.8403 H   0  0  0  0  0  0  0  0  0  0  0  0
  135.9261   68.1700  221.7093 H   0  0  0  0  0  0  0  0  0  0  0  0
  138.3679   66.7209  221.4424 H   0  0  0  0  0  0  0  0  0  0  0  0
  138.0482   68.2268  220.5654 H   0  0  0  0  0  0  0  0  0  0  0  0
  140.1076   67.8932  222.4826 H   0  0  0  0  0  0  0  0  0  0  0  0
  139.5121   69.4595  222.0297 H   0  0  0  0  0  0  0  0  0  0  0  0
  138.4798   67.6080  224.3123 H   0  0  0  0  0  0  0  0  0  0  0  0
  139.6497   70.9815  223.4747 H   0  0  0  0  0  0  0  0  0  0  0  0
  140.7538   72.3315  225.1626 H   0  0  0  0  0  0  0  0  0  0  0  0
  139.8870   69.3234  228.0776 H   0  0  0  0  0  0  0  0  0  0  0  0
  138.7599   67.9518  226.3493 H   0  0  0  0  0  0  0  0  0  0  0  0
  131.5161   71.3983  227.4053 H   0  0  0  0  0  0  0  0  0  0  0  0
  130.4136   73.4661  228.2208 H   0  0  0  0  0  0  0  0  0  0  0  0
  130.4513   75.8615  228.4591 H   0  0  0  0  0  0  0  0  0  0  0  0
  133.7702   78.1672  226.9365 H   0  0  0  0  0  0  0  0  0  0  0  0
  134.8480   76.0530  226.1358 H   0  0  0  0  0  0  0  0  0  0  0  0
  1  2  2  0
  2  3  1  0
  3  4  1  0
  4  5  1  0
  5  6  2  0
  5  7  1  0
  7  8  1  0
  8  9  1  0
  9 10  1  0
 10 11  1  0
 11 12  1  0
 12 13  2  0
 13 14  1  0
 14 15  2  0
 15 16  1  0
 15 17  1  0
 17 18  2  0
  2 19  1  0
 19 20  2  0
 20 21  1  0
 21 22  2  0
 22 23  1  0
 23 24  2  0
 24 25  1  0
 24 26  1  0
 26 27  2  0
 27 28  1  0
 28 29  2  0
 11  7  1  0
 18 12  1  0
 29 19  1  0
 28 22  1  0
  3 30  1  0
  4 31  1  0
  4 32  1  0
  8 33  1  0
  8 34  1  0
  9 35  1  0
  9 36  1  0
 10 37  1  0
 10 38  1  0
 11 39  1  1
 13 40  1  0
 14 41  1  0
 17 42  1  0
 18 43  1  0
 20 44  1  0
 21 45  1  0
 23 46  1  0
 26 47  1  0
 27 48  1  0
M  END
>  <meeko>  (20) 
{"free_energy": -8.18, "intermolecular_energy": -9.67, "internal_energy": -1.98, "cluster_size": 6, "cluster_id": 2, "rank_in_cluster": 5}

$$$$
