
     RDKit          3D

 58 61  0  0  0  0  0  0  0  0999 V2000
  142.3080   78.2780  218.4730 C   0  0  0  0  0  0  0  0  0  0  0  0
  141.9720   76.8170  218.2550 C   0  0  1  0  0  0  0  0  0  0  0  0
  143.2450   76.0490  218.5520 C   0  0  0  0  0  0  0  0  0  0  0  0
  143.1710   76.0130  220.0850 C   0  0  0  0  0  0  0  0  0  0  0  0
  141.8180   75.4760  220.2270 N   0  0  0  0  0  0  0  0  0  0  0  0
  141.3680   74.4370  221.0600 C   0  0  0  0  0  0  0  0  0  0  0  0
  140.8660   74.7560  222.1780 O   0  0  0  0  0  0  0  0  0  0  0  0
  141.4970   73.0380  220.6040 C   0  0  0  0  0  0  0  0  0  0  0  0
  141.3270   72.1580  221.7460 N   0  0  0  0  0  0  0  0  0  0  0  0
  140.0970   72.0660  222.4570 C   0  0  0  0  0  0  0  0  0  0  0  0
  139.0900   72.7470  222.1280 O   0  0  0  0  0  0  0  0  0  0  0  0
  140.0250   71.1420  223.6040 C   0  0  0  0  0  0  0  0  0  0  0  0
  139.4130   69.9140  223.4500 C   0  0  0  0  0  0  0  0  0  0  0  0
  139.3670   69.0730  224.5550 C   0  0  0  0  0  0  0  0  0  0  0  0
  139.9050   69.4240  225.7770 C   0  0  0  0  0  0  0  0  0  0  0  0
  139.8660   68.5980  226.8830 C   0  0  0  0  0  0  0  0  0  0  0  0
  140.4250   69.0170  228.0730 C   0  0  0  0  0  0  0  0  0  0  0  0
  140.3920   68.2120  229.1670 F   0  0  0  0  0  0  0  0  0  0  0  0
  141.0380   70.2680  228.1920 C   0  0  0  0  0  0  0  0  0  0  0  0
  141.0730   71.0910  227.0790 C   0  0  0  0  0  0  0  0  0  0  0  0
  140.5050   70.6650  225.8740 C   0  0  0  0  0  0  0  0  0  0  0  0
  140.5480   71.4760  224.8010 N   0  0  0  0  0  0  0  0  0  0  0  0
  141.0210   76.2730  219.2910 C   0  0  1  0  0  0  0  0  0  0  0  0
  140.3930   77.3530  220.0950 C   0  0  0  0  0  0  0  0  0  0  0  0
  139.6260   78.2250  219.6070 O   0  0  0  0  0  0  0  0  0  0  0  0
  140.7170   77.3550  221.5010 N   0  0  0  0  0  0  0  0  0  0  0  0
  140.1750   78.3530  222.4050 C   0  0  0  0  0  0  0  0  0  0  0  0
  141.2090   79.3060  222.8860 C   0  0  0  0  0  0  0  0  0  0  0  0
  140.7400   80.3590  223.6780 C   0  0  0  0  0  0  0  0  0  0  0  0
  141.6180   81.3150  224.1850 C   0  0  0  0  0  0  0  0  0  0  0  0
  142.9580   81.1650  223.8650 C   0  0  0  0  0  0  0  0  0  0  0  0
  143.4190   80.1240  223.0810 C   0  0  0  0  0  0  0  0  0  0  0  0
  142.5490   79.1840  222.5830 C   0  0  0  0  0  0  0  0  0  0  0  0
  142.3559   78.4862  219.5521 H   0  0  0  0  0  0  0  0  0  0  0  0
  143.2813   78.5030  218.0126 H   0  0  0  0  0  0  0  0  0  0  0  0
  141.5308   78.9056  218.0126 H   0  0  0  0  0  0  0  0  0  0  0  0
  141.5481   76.7215  217.2445 H   0  0  0  0  0  0  0  0  0  0  0  0
  143.2253   75.0389  218.1169 H   0  0  0  0  0  0  0  0  0  0  0  0
  144.1640   76.4905  218.1390 H   0  0  0  0  0  0  0  0  0  0  0  0
  143.9292   75.3455  220.5205 H   0  0  0  0  0  0  0  0  0  0  0  0
  143.3599   76.9697  220.5939 H   0  0  0  0  0  0  0  0  0  0  0  0
  140.7244   72.8213  219.8516 H   0  0  0  0  0  0  0  0  0  0  0  0
  142.4884   72.8806  220.1542 H   0  0  0  0  0  0  0  0  0  0  0  0
  142.1350   71.5560  222.0770 H   0  0  0  0  0  0  0  0  0  0  0  0
  138.9771   69.6121  222.4862 H   0  0  0  0  0  0  0  0  0  0  0  0
  138.8836   68.0903  224.4523 H   0  0  0  0  0  0  0  0  0  0  0  0
  139.3905   67.6084  226.8155 H   0  0  0  0  0  0  0  0  0  0  0  0
  141.4813   70.5903  229.1458 H   0  0  0  0  0  0  0  0  0  0  0  0
  141.5481   72.0811  227.1426 H   0  0  0  0  0  0  0  0  0  0  0  0
  140.2338   75.7038  218.7749 H   0  0  0  0  0  0  0  0  0  0  0  0
  141.3610   76.6210  221.9010 H   0  0  0  0  0  0  0  0  0  0  0  0
  139.3920   78.9182  221.8782 H   0  0  0  0  0  0  0  0  0  0  0  0
  139.7721   77.8258  223.2824 H   0  0  0  0  0  0  0  0  0  0  0  0
  139.6659   80.4334  223.9032 H   0  0  0  0  0  0  0  0  0  0  0  0
  141.2644   82.1488  224.8093 H   0  0  0  0  0  0  0  0  0  0  0  0
  143.6805   81.9005  224.2485 H   0  0  0  0  0  0  0  0  0  0  0  0
  144.4925   80.0473  222.8536 H   0  0  0  0  0  0  0  0  0  0  0  0
  142.9123   78.3548  221.9582 H   0  0  0  0  0  0  0  0  0  0  0  0
  1  2  1  0
  2  3  1  0
  3  4  1  0
  4  5  1  0
  5  6  1  0
  6  7  2  0
  6  8  1  0
  8  9  1  0
  9 10  1  0
 10 11  2  0
 10 12  1  0
 12 13  2  0
 13 14  1  0
 14 15  2  0
 15 16  1  0
 16 17  2  0
 17 18  1  0
 17 19  1  0
 19 20  2  0
 20 21  1  0
 21 22  2  0
  5 23  1  0
 23 24  1  0
 24 25  2  0
 24 26  1  0
 26 27  1  0
 27 28  1  0
 28 29  2  0
 29 30  1  0
 30 31  2  0
 31 32  1  0
 32 33  2  0
 23  2  1  0
 33 28  1  0
 22 12  1  0
 21 15  1  0
  1 34  1  0
  1 35  1  0
  1 36  1  0
  2 37  1  6
  3 38  1  0
  3 39  1  0
  4 40  1  0
  4 41  1  0
  8 42  1  0
  8 43  1  0
  9 44  1  0
 13 45  1  0
 14 46  1  0
 16 47  1  0
 19 48  1  0
 20 49  1  0
 23 50  1  6
 26 51  1  0
 27 52  1  0
 27 53  1  0
 29 54  1  0
 30 55  1  0
 31 56  1  0
 32 57  1  0
 33 58  1  0
M  END
>  <meeko>  (1) 
{"free_energy": -8.91, "intermolecular_energy": -11.0, "internal_energy": -2.35, "cluster_size": 17, "cluster_id": 1, "rank_in_cluster": 6}

$$$$

     RDKit          3D

 58 61  0  0  0  0  0  0  0  0999 V2000
  143.7060   75.3120  218.1980 C   0  0  0  0  0  0  0  0  0  0  0  0
  142.5630   74.3720  218.5220 C   0  0  1  0  0  0  0  0  0  0  0  0
  143.0500   73.5050  219.6670 C   0  0  0  0  0  0  0  0  0  0  0  0
  142.8130   74.4690  220.8380 C   0  0  0  0  0  0  0  0  0  0  0  0
  141.4120   74.7960  220.5730 N   0  0  0  0  0  0  0  0  0  0  0  0
  140.3340   74.8360  221.4740 C   0  0  0  0  0  0  0  0  0  0  0  0
  140.3410   75.7410  222.3600 O   0  0  0  0  0  0  0  0  0  0  0  0
  139.2530   73.8360  221.3520 C   0  0  0  0  0  0  0  0  0  0  0  0
  139.3340   72.9230  222.4770 N   0  0  0  0  0  0  0  0  0  0  0  0
  139.6460   71.5430  222.3150 C   0  0  0  0  0  0  0  0  0  0  0  0
  139.8680   71.0440  221.1800 O   0  0  0  0  0  0  0  0  0  0  0  0
  139.7040   70.6970  223.5220 C   0  0  0  0  0  0  0  0  0  0  0  0
  139.1760   69.4220  223.4840 C   0  0  0  0  0  0  0  0  0  0  0  0
  139.2520   68.6590  224.6420 C   0  0  0  0  0  0  0  0  0  0  0  0
  139.8270   69.1290  225.8050 C   0  0  0  0  0  0  0  0  0  0  0  0
  139.9080   68.3820  226.9630 C   0  0  0  0  0  0  0  0  0  0  0  0
  140.4980   68.9190  228.0880 C   0  0  0  0  0  0  0  0  0  0  0  0
  140.5830   68.1920  229.2320 F   0  0  0  0  0  0  0  0  0  0  0  0
  141.0230   70.2160  228.0900 C   0  0  0  0  0  0  0  0  0  0  0  0
  140.9370   70.9600  226.9260 C   0  0  0  0  0  0  0  0  0  0  0  0
  140.3390   70.4130  225.7850 C   0  0  0  0  0  0  0  0  0  0  0  0
  140.2640   71.1490  224.6620 N   0  0  0  0  0  0  0  0  0  0  0  0
  141.3800   75.0780  219.1350 C   0  0  1  0  0  0  0  0  0  0  0  0
  141.4770   76.5540  218.9990 C   0  0  0  0  0  0  0  0  0  0  0  0
  141.4070   77.1540  217.8940 O   0  0  0  0  0  0  0  0  0  0  0  0
  141.6620   77.2850  220.2280 N   0  0  0  0  0  0  0  0  0  0  0  0
  141.7730   78.7320  220.2430 C   0  0  0  0  0  0  0  0  0  0  0  0
  141.9440   79.2750  221.6170 C   0  0  0  0  0  0  0  0  0  0  0  0
  141.5780   78.4160  222.6570 C   0  0  0  0  0  0  0  0  0  0  0  0
  141.6940   78.8160  223.9870 C   0  0  0  0  0  0  0  0  0  0  0  0
  142.1850   80.0920  224.2150 C   0  0  0  0  0  0  0  0  0  0  0  0
  142.5470   80.9400  223.1840 C   0  0  0  0  0  0  0  0  0  0  0  0
  142.4290   80.5410  221.8750 C   0  0  0  0  0  0  0  0  0  0  0  0
  144.1540   75.6804  219.1327 H   0  0  0  0  0  0  0  0  0  0  0  0
  144.4675   74.7754  217.6130 H   0  0  0  0  0  0  0  0  0  0  0  0
  143.3265   76.1628  217.6130 H   0  0  0  0  0  0  0  0  0  0  0  0
  142.2766   73.8634  217.5897 H   0  0  0  0  0  0  0  0  0  0  0  0
  142.4548   72.5853  219.7665 H   0  0  0  0  0  0  0  0  0  0  0  0
  144.0815   73.1361  219.5674 H   0  0  0  0  0  0  0  0  0  0  0  0
  142.9461   73.9770  221.8128 H   0  0  0  0  0  0  0  0  0  0  0  0
  143.4998   75.3263  220.8962 H   0  0  0  0  0  0  0  0  0  0  0  0
  138.2771   74.3435  221.3568 H   0  0  0  0  0  0  0  0  0  0  0  0
  139.3621   73.2796  220.4094 H   0  0  0  0  0  0  0  0  0  0  0  0
  139.1580   73.2760  223.4610 H   0  0  0  0  0  0  0  0  0  0  0  0
  138.7117   69.0246  222.5693 H   0  0  0  0  0  0  0  0  0  0  0  0
  138.8376   67.6401  224.6317 H   0  0  0  0  0  0  0  0  0  0  0  0
  139.5025   67.3598  226.9885 H   0  0  0  0  0  0  0  0  0  0  0  0
  141.4919   70.6335  228.9932 H   0  0  0  0  0  0  0  0  0  0  0  0
  141.3395   71.9833  226.8977 H   0  0  0  0  0  0  0  0  0  0  0  0
  140.4674   74.7293  218.6294 H   0  0  0  0  0  0  0  0  0  0  0  0
  141.7200   76.7740  221.1490 H   0  0  0  0  0  0  0  0  0  0  0  0
  142.6426   79.0256  219.6367 H   0  0  0  0  0  0  0  0  0  0  0  0
  140.8383   79.1436  219.8345 H   0  0  0  0  0  0  0  0  0  0  0  0
  141.1938   77.4122  222.4230 H   0  0  0  0  0  0  0  0  0  0  0  0
  141.4096   78.1511  224.8159 H   0  0  0  0  0  0  0  0  0  0  0  0
  142.2905   80.4425  225.2523 H   0  0  0  0  0  0  0  0  0  0  0  0
  142.9332   81.9438  223.4147 H   0  0  0  0  0  0  0  0  0  0  0  0
  142.7140   81.2138  221.0528 H   0  0  0  0  0  0  0  0  0  0  0  0
  1  2  1  0
  2  3  1  0
  3  4  1  0
  4  5  1  0
  5  6  1  0
  6  7  2  0
  6  8  1  0
  8  9  1  0
  9 10  1  0
 10 11  2  0
 10 12  1  0
 12 13  2  0
 13 14  1  0
 14 15  2  0
 15 16  1  0
 16 17  2  0
 17 18  1  0
 17 19  1  0
 19 20  2  0
 20 21  1  0
 21 22  2  0
  5 23  1  0
 23 24  1  0
 24 25  2  0
 24 26  1  0
 26 27  1  0
 27 28  1  0
 28 29  2  0
 29 30  1  0
 30 31  2  0
 31 32  1  0
 32 33  2  0
 23  2  1  0
 33 28  1  0
 22 12  1  0
 21 15  1  0
  1 34  1  0
  1 35  1  0
  1 36  1  0
  2 37  1  6
  3 38  1  0
  3 39  1  0
  4 40  1  0
  4 41  1  0
  8 42  1  0
  8 43  1  0
  9 44  1  0
 13 45  1  0
 14 46  1  0
 16 47  1  0
 19 48  1  0
 20 49  1  0
 23 50  1  6
 26 51  1  0
 27 52  1  0
 27 53  1  0
 29 54  1  0
 30 55  1  0
 31 56  1  0
 32 57  1  0
 33 58  1  0
M  END
>  <meeko>  (2) 
{"free_energy": -8.83, "intermolecular_energy": -10.92, "internal_energy": -2.69, "cluster_size": 17, "cluster_id": 1, "rank_in_cluster": 7}

$$$$

     RDKit          3D

 58 61  0  0  0  0  0  0  0  0999 V2000
  143.6810   75.9140  217.8930 C   0  0  0  0  0  0  0  0  0  0  0  0
  142.8060   74.7090  218.1740 C   0  0  1  0  0  0  0  0  0  0  0  0
  143.5690   73.8680  219.1800 C   0  0  0  0  0  0  0  0  0  0  0  0
  143.2220   74.6310  220.4660 C   0  0  0  0  0  0  0  0  0  0  0  0
  141.7670   74.6510  220.3250 N   0  0  0  0  0  0  0  0  0  0  0  0
  140.7870   74.3520  221.2860 C   0  0  0  0  0  0  0  0  0  0  0  0
  140.6920   75.1220  222.2880 O   0  0  0  0  0  0  0  0  0  0  0  0
  139.9210   73.1710  221.0930 C   0  0  0  0  0  0  0  0  0  0  0  0
  139.9790   72.3500  222.2880 N   0  0  0  0  0  0  0  0  0  0  0  0
  139.5010   71.0090  222.3130 C   0  0  0  0  0  0  0  0  0  0  0  0
  139.0020   70.4660  221.2920 O   0  0  0  0  0  0  0  0  0  0  0  0
  139.6050   70.2570  223.5780 C   0  0  0  0  0  0  0  0  0  0  0  0
  139.0860   68.9800  223.6530 C   0  0  0  0  0  0  0  0  0  0  0  0
  139.2050   68.3070  224.8620 C   0  0  0  0  0  0  0  0  0  0  0  0
  139.8150   68.8670  225.9670 C   0  0  0  0  0  0  0  0  0  0  0  0
  139.9390   68.2100  227.1750 C   0  0  0  0  0  0  0  0  0  0  0  0
  140.5620   68.8340  228.2360 C   0  0  0  0  0  0  0  0  0  0  0  0
  140.6890   68.1960  229.4280 F   0  0  0  0  0  0  0  0  0  0  0  0
  141.0760   70.1300  228.1230 C   0  0  0  0  0  0  0  0  0  0  0  0
  140.9470   70.7840  226.9090 C   0  0  0  0  0  0  0  0  0  0  0  0
  140.3160   70.1480  225.8340 C   0  0  0  0  0  0  0  0  0  0  0  0
  140.1990   70.7970  224.6610 N   0  0  0  0  0  0  0  0  0  0  0  0
  141.5520   75.0580  218.9330 C   0  0  1  0  0  0  0  0  0  0  0  0
  141.3060   76.5230  218.9620 C   0  0  0  0  0  0  0  0  0  0  0  0
  140.9380   77.1850  217.9550 O   0  0  0  0  0  0  0  0  0  0  0  0
  141.5160   77.1680  220.2350 N   0  0  0  0  0  0  0  0  0  0  0  0
  141.3130   78.5950  220.4080 C   0  0  0  0  0  0  0  0  0  0  0  0
  141.6700   79.0580  221.7750 C   0  0  0  0  0  0  0  0  0  0  0  0
  142.2540   80.3260  221.8510 C   0  0  0  0  0  0  0  0  0  0  0  0
  142.6310   80.8650  223.0800 C   0  0  0  0  0  0  0  0  0  0  0  0
  142.3990   80.0850  224.2010 C   0  0  0  0  0  0  0  0  0  0  0  0
  141.8230   78.8310  224.1230 C   0  0  0  0  0  0  0  0  0  0  0  0
  141.4530   78.3040  222.9100 C   0  0  0  0  0  0  0  0  0  0  0  0
  144.0057   76.3611  218.8441 H   0  0  0  0  0  0  0  0  0  0  0  0
  144.5630   75.6000  217.3155 H   0  0  0  0  0  0  0  0  0  0  0  0
  143.1095   76.6555  217.3155 H   0  0  0  0  0  0  0  0  0  0  0  0
  142.5617   74.2438  217.2076 H   0  0  0  0  0  0  0  0  0  0  0  0
  143.2043   72.8306  219.2077 H   0  0  0  0  0  0  0  0  0  0  0  0
  144.6446   73.7582  218.9774 H   0  0  0  0  0  0  0  0  0  0  0  0
  143.5429   74.0892  221.3679 H   0  0  0  0  0  0  0  0  0  0  0  0
  143.7028   75.6137  220.5811 H   0  0  0  0  0  0  0  0  0  0  0  0
  138.8850   73.4966  220.9178 H   0  0  0  0  0  0  0  0  0  0  0  0
  140.2661   72.5918  220.2238 H   0  0  0  0  0  0  0  0  0  0  0  0
  140.3880   72.7450  223.1830 H   0  0  0  0  0  0  0  0  0  0  0  0
  138.5958   68.5123  222.7864 H   0  0  0  0  0  0  0  0  0  0  0  0
  138.7975   67.2884  224.9424 H   0  0  0  0  0  0  0  0  0  0  0  0
  139.5417   67.1908  227.2912 H   0  0  0  0  0  0  0  0  0  0  0  0
  141.5700   70.6173  228.9765 H   0  0  0  0  0  0  0  0  0  0  0  0
  141.3409   71.8041  226.7897 H   0  0  0  0  0  0  0  0  0  0  0  0
  140.7010   74.5591  218.4462 H   0  0  0  0  0  0  0  0  0  0  0  0
  141.8250   76.6060  221.0730 H   0  0  0  0  0  0  0  0  0  0  0  0
  141.9383   79.1314  219.6791 H   0  0  0  0  0  0  0  0  0  0  0  0
  140.2439   78.8023  220.2529 H   0  0  0  0  0  0  0  0  0  0  0  0
  142.4179   80.9051  220.9302 H   0  0  0  0  0  0  0  0  0  0  0  0
  143.0905   81.8615  223.1560 H   0  0  0  0  0  0  0  0  0  0  0  0
  142.6833   80.4776  225.1884 H   0  0  0  0  0  0  0  0  0  0  0  0
  141.6592   78.2491  225.0420 H   0  0  0  0  0  0  0  0  0  0  0  0
  140.9952   77.3059  222.8449 H   0  0  0  0  0  0  0  0  0  0  0  0
  1  2  1  0
  2  3  1  0
  3  4  1  0
  4  5  1  0
  5  6  1  0
  6  7  2  0
  6  8  1  0
  8  9  1  0
  9 10  1  0
 10 11  2  0
 10 12  1  0
 12 13  2  0
 13 14  1  0
 14 15  2  0
 15 16  1  0
 16 17  2  0
 17 18  1  0
 17 19  1  0
 19 20  2  0
 20 21  1  0
 21 22  2  0
  5 23  1  0
 23 24  1  0
 24 25  2  0
 24 26  1  0
 26 27  1  0
 27 28  1  0
 28 29  2  0
 29 30  1  0
 30 31  2  0
 31 32  1  0
 32 33  2  0
 23  2  1  0
 33 28  1  0
 22 12  1  0
 21 15  1  0
  1 34  1  0
  1 35  1  0
  1 36  1  0
  2 37  1  6
  3 38  1  0
  3 39  1  0
  4 40  1  0
  4 41  1  0
  8 42  1  0
  8 43  1  0
  9 44  1  0
 13 45  1  0
 14 46  1  0
 16 47  1  0
 19 48  1  0
 20 49  1  0
 23 50  1  6
 26 51  1  0
 27 52  1  0
 27 53  1  0
 29 54  1  0
 30 55  1  0
 31 56  1  0
 32 57  1  0
 33 58  1  0
M  END
>  <meeko>  (3) 
{"free_energy": -8.58, "intermolecular_energy": -10.67, "internal_energy": -2.85, "cluster_size": 17, "cluster_id": 1, "rank_in_cluster": 12}

$$$$

     RDKit          3D

 58 61  0  0  0  0  0  0  0  0999 V2000
  143.7130   74.8160  219.8840 C   0  0  0  0  0  0  0  0  0  0  0  0
  142.4780   74.0090  219.5380 C   0  0  1  0  0  0  0  0  0  0  0  0
  142.1460   73.2040  220.7800 C   0  0  0  0  0  0  0  0  0  0  0  0
  141.4190   74.2820  221.5960 C   0  0  0  0  0  0  0  0  0  0  0  0
  140.4470   74.7050  220.5890 N   0  0  0  0  0  0  0  0  0  0  0  0
  139.0650   74.9140  220.7340 C   0  0  0  0  0  0  0  0  0  0  0  0
  138.6520   76.1110  220.7700 O   0  0  0  0  0  0  0  0  0  0  0  0
  138.1650   73.7470  220.8380 C   0  0  0  0  0  0  0  0  0  0  0  0
  138.5300   72.9800  222.0150 N   0  0  0  0  0  0  0  0  0  0  0  0
  138.9870   71.6340  221.9330 C   0  0  0  0  0  0  0  0  0  0  0  0
  139.1000   71.0400  220.8280 O   0  0  0  0  0  0  0  0  0  0  0  0
  139.3340   70.9410  223.1880 C   0  0  0  0  0  0  0  0  0  0  0  0
  139.1100   69.5820  223.2960 C   0  0  0  0  0  0  0  0  0  0  0  0
  139.4500   68.9680  224.4950 C   0  0  0  0  0  0  0  0  0  0  0  0
  139.9940   69.6620  225.5570 C   0  0  0  0  0  0  0  0  0  0  0  0
  140.3350   69.0640  226.7540 C   0  0  0  0  0  0  0  0  0  0  0  0
  140.8740   69.8220  227.7720 C   0  0  0  0  0  0  0  0  0  0  0  0
  141.2140   69.2430  228.9530 F   0  0  0  0  0  0  0  0  0  0  0  0
  141.0870   71.1970  227.6260 C   0  0  0  0  0  0  0  0  0  0  0  0
  140.7410   71.7910  226.4240 C   0  0  0  0  0  0  0  0  0  0  0  0
  140.1950   71.0190  225.3920 C   0  0  0  0  0  0  0  0  0  0  0  0
  139.8640   71.6110  224.2300 N   0  0  0  0  0  0  0  0  0  0  0  0
  141.2470   74.8630  219.3710 C   0  0  1  0  0  0  0  0  0  0  0  0
  141.5780   76.3080  219.2770 C   0  0  0  0  0  0  0  0  0  0  0  0
  142.2910   76.7980  218.3610 O   0  0  0  0  0  0  0  0  0  0  0  0
  141.0290   77.1450  220.3150 N   0  0  0  0  0  0  0  0  0  0  0  0
  141.2710   78.5760  220.3470 C   0  0  0  0  0  0  0  0  0  0  0  0
  141.6310   79.0610  221.7060 C   0  0  0  0  0  0  0  0  0  0  0  0
  142.2430   80.3170  221.7580 C   0  0  0  0  0  0  0  0  0  0  0  0
  142.6260   80.8740  222.9770 C   0  0  0  0  0  0  0  0  0  0  0  0
  142.3700   80.1240  224.1140 C   0  0  0  0  0  0  0  0  0  0  0  0
  141.7650   78.8820  224.0600 C   0  0  0  0  0  0  0  0  0  0  0  0
  141.3910   78.3370  222.8560 C   0  0  0  0  0  0  0  0  0  0  0  0
  143.8136   74.8817  220.9774 H   0  0  0  0  0  0  0  0  0  0  0  0
  144.6023   74.3242  219.4629 H   0  0  0  0  0  0  0  0  0  0  0  0
  143.6197   75.8279  219.4629 H   0  0  0  0  0  0  0  0  0  0  0  0
  142.6950   73.4495  218.6161 H   0  0  0  0  0  0  0  0  0  0  0  0
  141.4906   72.3504  220.5523 H   0  0  0  0  0  0  0  0  0  0  0  0
  143.0086   72.7406  221.2812 H   0  0  0  0  0  0  0  0  0  0  0  0
  140.9330   73.8659  222.4908 H   0  0  0  0  0  0  0  0  0  0  0  0
  142.0567   75.0791  222.0059 H   0  0  0  0  0  0  0  0  0  0  0  0
  137.1236   74.0898  220.9280 H   0  0  0  0  0  0  0  0  0  0  0  0
  138.2591   73.1204  219.9388 H   0  0  0  0  0  0  0  0  0  0  0  0
  138.4590   73.4200  222.9770 H   0  0  0  0  0  0  0  0  0  0  0  0
  138.6783   69.0073  222.4633 H   0  0  0  0  0  0  0  0  0  0  0  0
  139.2790   67.8867  224.6022 H   0  0  0  0  0  0  0  0  0  0  0  0
  140.1769   67.9846  226.8952 H   0  0  0  0  0  0  0  0  0  0  0  0
  141.5183   71.7911  228.4452 H   0  0  0  0  0  0  0  0  0  0  0  0
  140.8954   72.8706  226.2800 H   0  0  0  0  0  0  0  0  0  0  0  0
  140.7303   74.5506  218.4515 H   0  0  0  0  0  0  0  0  0  0  0  0
  140.4330   76.7260  221.0780 H   0  0  0  0  0  0  0  0  0  0  0  0
  142.0964   78.8100  219.6585 H   0  0  0  0  0  0  0  0  0  0  0  0
  140.3402   79.0798  220.0473 H   0  0  0  0  0  0  0  0  0  0  0  0
  142.4244   80.8722  220.8259 H   0  0  0  0  0  0  0  0  0  0  0  0
  143.1081   81.8611  223.0338 H   0  0  0  0  0  0  0  0  0  0  0  0
  142.6584   80.5314  225.0942 H   0  0  0  0  0  0  0  0  0  0  0  0
  141.5814   78.3248  224.9905 H   0  0  0  0  0  0  0  0  0  0  0  0
  140.9120   77.3478  222.8096 H   0  0  0  0  0  0  0  0  0  0  0  0
  1  2  1  0
  2  3  1  0
  3  4  1  0
  4  5  1  0
  5  6  1  0
  6  7  2  0
  6  8  1  0
  8  9  1  0
  9 10  1  0
 10 11  2  0
 10 12  1  0
 12 13  2  0
 13 14  1  0
 14 15  2  0
 15 16  1  0
 16 17  2  0
 17 18  1  0
 17 19  1  0
 19 20  2  0
 20 21  1  0
 21 22  2  0
  5 23  1  0
 23 24  1  0
 24 25  2  0
 24 26  1  0
 26 27  1  0
 27 28  1  0
 28 29  2  0
 29 30  1  0
 30 31  2  0
 31 32  1  0
 32 33  2  0
 23  2  1  0
 33 28  1  0
 22 12  1  0
 21 15  1  0
  1 34  1  0
  1 35  1  0
  1 36  1  0
  2 37  1  6
  3 38  1  0
  3 39  1  0
  4 40  1  0
  4 41  1  0
  8 42  1  0
  8 43  1  0
  9 44  1  0
 13 45  1  0
 14 46  1  0
 16 47  1  0
 19 48  1  0
 20 49  1  0
 23 50  1  6
 26 51  1  0
 27 52  1  0
 27 53  1  0
 29 54  1  0
 30 55  1  0
 31 56  1  0
 32 57  1  0
 33 58  1  0
M  END
>  <meeko>  (4) 
{"free_energy": -8.01, "intermolecular_energy": -10.1, "internal_energy": -2.88, "cluster_size": 17, "cluster_id": 1, "rank_in_cluster": 16}

$$$$

     RDKit          3D

 58 61  0  0  0  0  0  0  0  0999 V2000
  142.9360   78.4550  217.9900 C   0  0  0  0  0  0  0  0  0  0  0  0
  142.1680   77.1500  217.9280 C   0  0  1  0  0  0  0  0  0  0  0  0
  143.2070   76.0520  218.0430 C   0  0  0  0  0  0  0  0  0  0  0  0
  143.4140   76.0540  219.5640 C   0  0  0  0  0  0  0  0  0  0  0  0
  142.0160   75.9300  219.9770 N   0  0  0  0  0  0  0  0  0  0  0  0
  141.4570   75.0730  220.9400 C   0  0  0  0  0  0  0  0  0  0  0  0
  141.1320   75.5760  222.0560 O   0  0  0  0  0  0  0  0  0  0  0  0
  141.2740   73.6430  220.6170 C   0  0  0  0  0  0  0  0  0  0  0  0
  140.9480   72.9280  221.8360 N   0  0  0  0  0  0  0  0  0  0  0  0
  140.4470   71.5950  221.8240 C   0  0  0  0  0  0  0  0  0  0  0  0
  140.2620   70.9680  220.7480 O   0  0  0  0  0  0  0  0  0  0  0  0
  140.1450   70.9550  223.1180 C   0  0  0  0  0  0  0  0  0  0  0  0
  139.3820   69.8040  223.1450 C   0  0  0  0  0  0  0  0  0  0  0  0
  139.1210   69.2330  224.3840 C   0  0  0  0  0  0  0  0  0  0  0  0
  139.5940   69.7720  225.5640 C   0  0  0  0  0  0  0  0  0  0  0  0
  139.3410   69.2140  226.8020 C   0  0  0  0  0  0  0  0  0  0  0  0
  139.8470   69.8090  227.9390 C   0  0  0  0  0  0  0  0  0  0  0  0
  139.6050   69.2690  229.1620 F   0  0  0  0  0  0  0  0  0  0  0  0
  140.6170   70.9750  227.8740 C   0  0  0  0  0  0  0  0  0  0  0  0
  140.8650   71.5290  226.6290 C   0  0  0  0  0  0  0  0  0  0  0  0
  140.3510   70.9240  225.4770 C   0  0  0  0  0  0  0  0  0  0  0  0
  140.6020   71.4740  224.2750 N   0  0  0  0  0  0  0  0  0  0  0  0
  141.3140   76.9140  219.1480 C   0  0  1  0  0  0  0  0  0  0  0  0
  141.1780   78.1370  219.9800 C   0  0  0  0  0  0  0  0  0  0  0  0
  140.5430   79.1600  219.6100 O   0  0  0  0  0  0  0  0  0  0  0  0
  141.8270   78.0930  221.2670 N   0  0  0  0  0  0  0  0  0  0  0  0
  141.7750   79.2170  222.1840 C   0  0  0  0  0  0  0  0  0  0  0  0
  140.4100   79.4460  222.7280 C   0  0  0  0  0  0  0  0  0  0  0  0
  140.2280   80.6460  223.4220 C   0  0  0  0  0  0  0  0  0  0  0  0
  138.9910   80.9680  223.9770 C   0  0  0  0  0  0  0  0  0  0  0  0
  137.9700   80.0470  223.8040 C   0  0  0  0  0  0  0  0  0  0  0  0
  138.1530   78.8600  223.1170 C   0  0  0  0  0  0  0  0  0  0  0  0
  139.3750   78.5470  222.5730 C   0  0  0  0  0  0  0  0  0  0  0  0
  143.1003   78.7342  219.0412 H   0  0  0  0  0  0  0  0  0  0  0  0
  143.9066   78.3335  217.4869 H   0  0  0  0  0  0  0  0  0  0  0  0
  142.3585   79.2446  217.4869 H   0  0  0  0  0  0  0  0  0  0  0  0
  141.5522   77.1694  217.0167 H   0  0  0  0  0  0  0  0  0  0  0  0
  142.8240   75.0858  217.6827 H   0  0  0  0  0  0  0  0  0  0  0  0
  144.1186   76.2070  217.4471 H   0  0  0  0  0  0  0  0  0  0  0  0
  144.0220   75.2011  219.9000 H   0  0  0  0  0  0  0  0  0  0  0  0
  143.9554   76.9213  219.9698 H   0  0  0  0  0  0  0  0  0  0  0  0
  140.4552   73.5295  219.8913 H   0  0  0  0  0  0  0  0  0  0  0  0
  142.1982   73.2366  220.1804 H   0  0  0  0  0  0  0  0  0  0  0  0
  141.0800   73.3970  222.7780 H   0  0  0  0  0  0  0  0  0  0  0  0
  138.9948   69.3555  222.2182 H   0  0  0  0  0  0  0  0  0  0  0  0
  138.5143   68.3164  224.4268 H   0  0  0  0  0  0  0  0  0  0  0  0
  138.7377   68.2976  226.8810 H   0  0  0  0  0  0  0  0  0  0  0  0
  141.0152   71.4399  228.7879 H   0  0  0  0  0  0  0  0  0  0  0  0
  141.4669   72.4459  226.5459 H   0  0  0  0  0  0  0  0  0  0  0  0
  140.3160   76.5912  218.8167 H   0  0  0  0  0  0  0  0  0  0  0  0
  142.3570   77.2310  221.5680 H   0  0  0  0  0  0  0  0  0  0  0  0
  142.4602   79.0206  223.0218 H   0  0  0  0  0  0  0  0  0  0  0  0
  142.0673   80.1181  221.6249 H   0  0  0  0  0  0  0  0  0  0  0  0
  141.0711   81.3441  223.5312 H   0  0  0  0  0  0  0  0  0  0  0  0
  138.8326   81.9080  224.5260 H   0  0  0  0  0  0  0  0  0  0  0  0
  136.9791   80.2674  224.2278 H   0  0  0  0  0  0  0  0  0  0  0  0
  137.3118   78.1601  223.0053 H   0  0  0  0  0  0  0  0  0  0  0  0
  139.5245   77.6035  222.0276 H   0  0  0  0  0  0  0  0  0  0  0  0
  1  2  1  0
  2  3  1  0
  3  4  1  0
  4  5  1  0
  5  6  1  0
  6  7  2  0
  6  8  1  0
  8  9  1  0
  9 10  1  0
 10 11  2  0
 10 12  1  0
 12 13  2  0
 13 14  1  0
 14 15  2  0
 15 16  1  0
 16 17  2  0
 17 18  1  0
 17 19  1  0
 19 20  2  0
 20 21  1  0
 21 22  2  0
  5 23  1  0
 23 24  1  0
 24 25  2  0
 24 26  1  0
 26 27  1  0
 27 28  1  0
 28 29  2  0
 29 30  1  0
 30 31  2  0
 31 32  1  0
 32 33  2  0
 23  2  1  0
 33 28  1  0
 22 12  1  0
 21 15  1  0
  1 34  1  0
  1 35  1  0
  1 36  1  0
  2 37  1  6
  3 38  1  0
  3 39  1  0
  4 40  1  0
  4 41  1  0
  8 42  1  0
  8 43  1  0
  9 44  1  0
 13 45  1  0
 14 46  1  0
 16 47  1  0
 19 48  1  0
 20 49  1  0
 23 50  1  6
 26 51  1  0
 27 52  1  0
 27 53  1  0
 29 54  1  0
 30 55  1  0
 31 56  1  0
 32 57  1  0
 33 58  1  0
M  END
>  <meeko>  (5) 
{"free_energy": -8.11, "intermolecular_energy": -10.2, "internal_energy": -3.09, "cluster_size": 17, "cluster_id": 1, "rank_in_cluster": 15}

$$$$

     RDKit          3D

 58 61  0  0  0  0  0  0  0  0999 V2000
  141.8770   78.1600  218.5680 C   0  0  0  0  0  0  0  0  0  0  0  0
  141.1990   76.8060  218.5140 C   0  0  1  0  0  0  0  0  0  0  0  0
  142.2460   75.8010  218.9530 C   0  0  0  0  0  0  0  0  0  0  0  0
  142.1490   75.9770  220.4740 C   0  0  0  0  0  0  0  0  0  0  0  0
  140.7050   75.8010  220.6250 N   0  0  0  0  0  0  0  0  0  0  0  0
  140.0090   75.0130  221.5580 C   0  0  0  0  0  0  0  0  0  0  0  0
  139.8250   75.4960  222.7140 O   0  0  0  0  0  0  0  0  0  0  0  0
  139.5270   73.6750  221.1580 C   0  0  0  0  0  0  0  0  0  0  0  0
  139.5620   72.8020  222.3150 N   0  0  0  0  0  0  0  0  0  0  0  0
  139.5690   71.3830  222.1980 C   0  0  0  0  0  0  0  0  0  0  0  0
  139.5450   70.8130  221.0740 O   0  0  0  0  0  0  0  0  0  0  0  0
  139.6060   70.5820  223.4360 C   0  0  0  0  0  0  0  0  0  0  0  0
  139.1010   69.2970  223.4290 C   0  0  0  0  0  0  0  0  0  0  0  0
  139.1550   68.5780  224.6160 C   0  0  0  0  0  0  0  0  0  0  0  0
  139.6880   69.1000  225.7770 C   0  0  0  0  0  0  0  0  0  0  0  0
  139.7470   68.3960  226.9640 C   0  0  0  0  0  0  0  0  0  0  0  0
  140.2950   68.9840  228.0850 C   0  0  0  0  0  0  0  0  0  0  0  0
  140.3590   68.3000  229.2560 F   0  0  0  0  0  0  0  0  0  0  0  0
  140.7980   70.2890  228.0540 C   0  0  0  0  0  0  0  0  0  0  0  0
  140.7340   70.9900  226.8610 C   0  0  0  0  0  0  0  0  0  0  0  0
  140.1790   70.3910  225.7250 C   0  0  0  0  0  0  0  0  0  0  0  0
  140.1250   71.0850  224.5740 N   0  0  0  0  0  0  0  0  0  0  0  0
  140.1340   76.6410  219.5690 C   0  0  1  0  0  0  0  0  0  0  0  0
  139.7790   77.9320  220.2110 C   0  0  0  0  0  0  0  0  0  0  0  0
  139.3320   78.9230  219.5760 O   0  0  0  0  0  0  0  0  0  0  0  0
  139.9770   77.9960  221.6380 N   0  0  0  0  0  0  0  0  0  0  0  0
  139.6710   79.1960  222.3960 C   0  0  0  0  0  0  0  0  0  0  0  0
  140.8890   79.8470  222.9470 C   0  0  0  0  0  0  0  0  0  0  0  0
  142.1050   79.2610  222.5820 C   0  0  0  0  0  0  0  0  0  0  0  0
  143.3140   79.7840  223.0390 C   0  0  0  0  0  0  0  0  0  0  0  0
  143.2410   80.8980  223.8600 C   0  0  0  0  0  0  0  0  0  0  0  0
  142.0370   81.4750  224.2200 C   0  0  0  0  0  0  0  0  0  0  0  0
  140.8490   80.9550  223.7670 C   0  0  0  0  0  0  0  0  0  0  0  0
  142.0245   78.4546  219.6175 H   0  0  0  0  0  0  0  0  0  0  0  0
  142.8524   78.1020  218.0628 H   0  0  0  0  0  0  0  0  0  0  0  0
  141.2462   78.9063  218.0628 H   0  0  0  0  0  0  0  0  0  0  0  0
  140.7744   76.6867  217.5063 H   0  0  0  0  0  0  0  0  0  0  0  0
  141.9881   74.7780  218.6416 H   0  0  0  0  0  0  0  0  0  0  0  0
  143.2488   75.9557  218.5281 H   0  0  0  0  0  0  0  0  0  0  0  0
  142.7185   75.2081  221.0167 H   0  0  0  0  0  0  0  0  0  0  0  0
  142.5582   76.9175  220.8715 H   0  0  0  0  0  0  0  0  0  0  0  0
  138.4958   73.7503  220.7824 H   0  0  0  0  0  0  0  0  0  0  0  0
  140.1689   73.2683  220.3627 H   0  0  0  0  0  0  0  0  0  0  0  0
  139.5840   73.2160  223.2920 H   0  0  0  0  0  0  0  0  0  0  0  0
  138.6714   68.8585  222.5162 H   0  0  0  0  0  0  0  0  0  0  0  0
  138.7574   67.5525  224.6313 H   0  0  0  0  0  0  0  0  0  0  0  0
  139.3577   67.3685  227.0152 H   0  0  0  0  0  0  0  0  0  0  0  0
  141.2334   70.7470  228.9544 H   0  0  0  0  0  0  0  0  0  0  0  0
  141.1199   72.0186  226.8067 H   0  0  0  0  0  0  0  0  0  0  0  0
  139.2371   76.2165  219.0942 H   0  0  0  0  0  0  0  0  0  0  0  0
  140.3520   77.1610  222.1630 H   0  0  0  0  0  0  0  0  0  0  0  0
  139.1579   79.9098  221.7347 H   0  0  0  0  0  0  0  0  0  0  0  0
  139.0357   78.9026  223.2447 H   0  0  0  0  0  0  0  0  0  0  0  0
  142.1078   78.3774  221.9269 H   0  0  0  0  0  0  0  0  0  0  0  0
  144.2787   79.3343  222.7614 H   0  0  0  0  0  0  0  0  0  0  0  0
  144.1746   81.3393  224.2390 H   0  0  0  0  0  0  0  0  0  0  0  0
  142.0305   82.3586  224.8752 H   0  0  0  0  0  0  0  0  0  0  0  0
  139.8893   81.4112  224.0514 H   0  0  0  0  0  0  0  0  0  0  0  0
  1  2  1  0
  2  3  1  0
  3  4  1  0
  4  5  1  0
  5  6  1  0
  6  7  2  0
  6  8  1  0
  8  9  1  0
  9 10  1  0
 10 11  2  0
 10 12  1  0
 12 13  2  0
 13 14  1  0
 14 15  2  0
 15 16  1  0
 16 17  2  0
 17 18  1  0
 17 19  1  0
 19 20  2  0
 20 21  1  0
 21 22  2  0
  5 23  1  0
 23 24  1  0
 24 25  2  0
 24 26  1  0
 26 27  1  0
 27 28  1  0
 28 29  2  0
 29 30  1  0
 30 31  2  0
 31 32  1  0
 32 33  2  0
 23  2  1  0
 33 28  1  0
 22 12  1  0
 21 15  1  0
  1 34  1  0
  1 35  1  0
  1 36  1  0
  2 37  1  6
  3 38  1  0
  3 39  1  0
  4 40  1  0
  4 41  1  0
  8 42  1  0
  8 43  1  0
  9 44  1  0
 13 45  1  0
 14 46  1  0
 16 47  1  0
 19 48  1  0
 20 49  1  0
 23 50  1  6
 26 51  1  0
 27 52  1  0
 27 53  1  0
 29 54  1  0
 30 55  1  0
 31 56  1  0
 32 57  1  0
 33 58  1  0
M  END
>  <meeko>  (6) 
{"free_energy": -8.47, "intermolecular_energy": -10.56, "internal_energy": -3.01, "cluster_size": 17, "cluster_id": 1, "rank_in_cluster": 14}

$$$$

     RDKit          3D

 58 61  0  0  0  0  0  0  0  0999 V2000
  141.7000   78.6900  218.8170 C   0  0  0  0  0  0  0  0  0  0  0  0
  141.5190   77.2800  218.2930 C   0  0  1  0  0  0  0  0  0  0  0  0
  142.9070   76.7890  217.9330 C   0  0  0  0  0  0  0  0  0  0  0  0
  143.4070   76.3880  219.3280 C   0  0  0  0  0  0  0  0  0  0  0  0
  142.2920   75.5280  219.7220 N   0  0  0  0  0  0  0  0  0  0  0  0
  142.3320   74.2510  220.3070 C   0  0  0  0  0  0  0  0  0  0  0  0
  143.2190   74.0340  221.1850 O   0  0  0  0  0  0  0  0  0  0  0  0
  141.3540   73.2290  219.8800 C   0  0  0  0  0  0  0  0  0  0  0  0
  141.0930   72.3390  220.9950 N   0  0  0  0  0  0  0  0  0  0  0  0
  140.4650   72.7840  222.1930 C   0  0  0  0  0  0  0  0  0  0  0  0
  140.1030   73.9800  222.3440 O   0  0  0  0  0  0  0  0  0  0  0  0
  140.2440   71.8000  223.2690 C   0  0  0  0  0  0  0  0  0  0  0  0
  139.5680   70.6280  222.9890 C   0  0  0  0  0  0  0  0  0  0  0  0
  139.3820   69.7290  224.0310 C   0  0  0  0  0  0  0  0  0  0  0  0
  139.8430   69.9670  225.3100 C   0  0  0  0  0  0  0  0  0  0  0  0
  139.6640   69.0820  226.3550 C   0  0  0  0  0  0  0  0  0  0  0  0
  140.1530   69.3890  227.6070 C   0  0  0  0  0  0  0  0  0  0  0  0
  139.9830   68.5240  228.6410 F   0  0  0  0  0  0  0  0  0  0  0  0
  140.8340   70.5850  227.8530 C   0  0  0  0  0  0  0  0  0  0  0  0
  141.0090   71.4690  226.8010 C   0  0  0  0  0  0  0  0  0  0  0  0
  140.5120   71.1560  225.5320 C   0  0  0  0  0  0  0  0  0  0  0  0
  140.6910   72.0240  224.5210 N   0  0  0  0  0  0  0  0  0  0  0  0
  141.1020   76.3050  219.3650 C   0  0  1  0  0  0  0  0  0  0  0  0
  140.6670   76.9940  220.6080 C   0  0  0  0  0  0  0  0  0  0  0  0
  139.7380   77.8420  220.6420 O   0  0  0  0  0  0  0  0  0  0  0  0
  141.3830   76.6320  221.8070 N   0  0  0  0  0  0  0  0  0  0  0  0
  141.0640   77.2260  223.0920 C   0  0  0  0  0  0  0  0  0  0  0  0
  141.2990   78.6940  223.1150 C   0  0  0  0  0  0  0  0  0  0  0  0
  142.5800   79.1080  222.7360 C   0  0  0  0  0  0  0  0  0  0  0  0
  142.9160   80.4610  222.7200 C   0  0  0  0  0  0  0  0  0  0  0  0
  141.9260   81.3550  223.0930 C   0  0  0  0  0  0  0  0  0  0  0  0
  140.6600   80.9430  223.4680 C   0  0  0  0  0  0  0  0  0  0  0  0
  140.3340   79.6080  223.4830 C   0  0  0  0  0  0  0  0  0  0  0  0
  141.6981   78.6755  219.9169 H   0  0  0  0  0  0  0  0  0  0  0  0
  142.6575   79.0948  218.4573 H   0  0  0  0  0  0  0  0  0  0  0  0
  140.8758   79.3235  218.4573 H   0  0  0  0  0  0  0  0  0  0  0  0
  140.7721   77.3193  217.4864 H   0  0  0  0  0  0  0  0  0  0  0  0
  142.8727   75.9296  217.2472 H   0  0  0  0  0  0  0  0  0  0  0  0
  143.5373   77.5180  217.4026 H   0  0  0  0  0  0  0  0  0  0  0  0
  144.3587   75.8381  219.2844 H   0  0  0  0  0  0  0  0  0  0  0  0
  143.6315   77.2203  220.0113 H   0  0  0  0  0  0  0  0  0  0  0  0
  140.4188   73.7184  219.5705 H   0  0  0  0  0  0  0  0  0  0  0  0
  141.7567   72.6572  219.0310 H   0  0  0  0  0  0  0  0  0  0  0  0
  141.3730   71.3170  220.9350 H   0  0  0  0  0  0  0  0  0  0  0  0
  139.1910   70.4148  221.9779 H   0  0  0  0  0  0  0  0  0  0  0  0
  138.8460   68.7899  223.8290 H   0  0  0  0  0  0  0  0  0  0  0  0
  139.1321   68.1336  226.1887 H   0  0  0  0  0  0  0  0  0  0  0  0
  141.2208   70.8180  228.8560 H   0  0  0  0  0  0  0  0  0  0  0  0
  141.5397   72.4186  226.9641 H   0  0  0  0  0  0  0  0  0  0  0  0
  140.2695   75.6984  218.9790 H   0  0  0  0  0  0  0  0  0  0  0  0
  142.1620   75.9200  221.7690 H   0  0  0  0  0  0  0  0  0  0  0  0
  140.0040   77.0349  223.3155 H   0  0  0  0  0  0  0  0  0  0  0  0
  141.7246   76.7700  223.8441 H   0  0  0  0  0  0  0  0  0  0  0  0
  143.3308   78.3577  222.4473 H   0  0  0  0  0  0  0  0  0  0  0  0
  143.9193   80.8022  222.4253 H   0  0  0  0  0  0  0  0  0  0  0  0
  142.1547   82.4310  223.0909 H   0  0  0  0  0  0  0  0  0  0  0  0
  139.9070   81.6910  223.7570 H   0  0  0  0  0  0  0  0  0  0  0  0
  139.3283   79.2767  223.7811 H   0  0  0  0  0  0  0  0  0  0  0  0
  1  2  1  0
  2  3  1  0
  3  4  1  0
  4  5  1  0
  5  6  1  0
  6  7  2  0
  6  8  1  0
  8  9  1  0
  9 10  1  0
 10 11  2  0
 10 12  1  0
 12 13  2  0
 13 14  1  0
 14 15  2  0
 15 16  1  0
 16 17  2  0
 17 18  1  0
 17 19  1  0
 19 20  2  0
 20 21  1  0
 21 22  2  0
  5 23  1  0
 23 24  1  0
 24 25  2  0
 24 26  1  0
 26 27  1  0
 27 28  1  0
 28 29  2  0
 29 30  1  0
 30 31  2  0
 31 32  1  0
 32 33  2  0
 23  2  1  0
 33 28  1  0
 22 12  1  0
 21 15  1  0
  1 34  1  0
  1 35  1  0
  1 36  1  0
  2 37  1  6
  3 38  1  0
  3 39  1  0
  4 40  1  0
  4 41  1  0
  8 42  1  0
  8 43  1  0
  9 44  1  0
 13 45  1  0
 14 46  1  0
 16 47  1  0
 19 48  1  0
 20 49  1  0
 23 50  1  6
 26 51  1  0
 27 52  1  0
 27 53  1  0
 29 54  1  0
 30 55  1  0
 31 56  1  0
 32 57  1  0
 33 58  1  0
M  END
>  <meeko>  (7) 
{"free_energy": -9.06, "intermolecular_energy": -11.15, "internal_energy": -2.8, "cluster_size": 17, "cluster_id": 1, "rank_in_cluster": 3}

$$$$

     RDKit          3D

 58 61  0  0  0  0  0  0  0  0999 V2000
  142.9500   78.0870  217.9900 C   0  0  0  0  0  0  0  0  0  0  0  0
  141.9160   76.9800  218.0460 C   0  0  1  0  0  0  0  0  0  0  0  0
  142.6960   75.6930  218.2330 C   0  0  0  0  0  0  0  0  0  0  0  0
  142.9490   75.7650  219.7460 C   0  0  0  0  0  0  0  0  0  0  0  0
  141.5730   75.9810  220.1900 N   0  0  0  0  0  0  0  0  0  0  0  0
  140.8740   75.3420  221.2280 C   0  0  0  0  0  0  0  0  0  0  0  0
  141.0190   75.7980  222.4010 O   0  0  0  0  0  0  0  0  0  0  0  0
  140.0140   74.1830  220.9150 C   0  0  0  0  0  0  0  0  0  0  0  0
  139.9380   73.3280  222.0850 N   0  0  0  0  0  0  0  0  0  0  0  0
  139.9050   71.9080  221.9880 C   0  0  0  0  0  0  0  0  0  0  0  0
  139.9400   71.3210  220.8740 O   0  0  0  0  0  0  0  0  0  0  0  0
  139.8280   71.1280  223.2370 C   0  0  0  0  0  0  0  0  0  0  0  0
  139.2660   69.8670  223.2160 C   0  0  0  0  0  0  0  0  0  0  0  0
  139.2130   69.1660  224.4140 C   0  0  0  0  0  0  0  0  0  0  0  0
  139.6970   69.6830  225.5990 C   0  0  0  0  0  0  0  0  0  0  0  0
  139.6500   68.9970  226.7970 C   0  0  0  0  0  0  0  0  0  0  0  0
  140.1530   69.5790  227.9420 C   0  0  0  0  0  0  0  0  0  0  0  0
  140.1120   68.9120  229.1250 F   0  0  0  0  0  0  0  0  0  0  0  0
  140.7150   70.8590  227.9250 C   0  0  0  0  0  0  0  0  0  0  0  0
  140.7580   71.5420  226.7210 C   0  0  0  0  0  0  0  0  0  0  0  0
  140.2480   70.9500  225.5600 C   0  0  0  0  0  0  0  0  0  0  0  0
  140.2970   71.6250  224.3990 N   0  0  0  0  0  0  0  0  0  0  0  0
  141.0730   77.0290  219.2950 C   0  0  1  0  0  0  0  0  0  0  0  0
  141.2330   78.3110  220.0280 C   0  0  0  0  0  0  0  0  0  0  0  0
  140.7690   79.4070  219.6160 O   0  0  0  0  0  0  0  0  0  0  0  0
  141.9650   78.2370  221.2680 N   0  0  0  0  0  0  0  0  0  0  0  0
  142.1970   79.4120  222.0870 C   0  0  0  0  0  0  0  0  0  0  0  0
  140.9340   80.0010  222.6070 C   0  0  0  0  0  0  0  0  0  0  0  0
  140.3000   79.2760  223.6210 C   0  0  0  0  0  0  0  0  0  0  0  0
  139.1090   79.7290  224.1840 C   0  0  0  0  0  0  0  0  0  0  0  0
  138.5980   80.9190  223.6910 C   0  0  0  0  0  0  0  0  0  0  0  0
  139.2270   81.6340  222.6880 C   0  0  0  0  0  0  0  0  0  0  0  0
  140.4000   81.1820  222.1350 C   0  0  0  0  0  0  0  0  0  0  0  0
  143.2263   78.3828  219.0128 H   0  0  0  0  0  0  0  0  0  0  0  0
  143.8434   77.7277  217.4583 H   0  0  0  0  0  0  0  0  0  0  0  0
  142.5307   78.9538  217.4583 H   0  0  0  0  0  0  0  0  0  0  0  0
  141.2891   77.0645  217.1461 H   0  0  0  0  0  0  0  0  0  0  0  0
  142.1011   74.8094  217.9584 H   0  0  0  0  0  0  0  0  0  0  0  0
  143.5991   75.5994  217.6120 H   0  0  0  0  0  0  0  0  0  0  0  0
  143.3687   74.8278  220.1404 H   0  0  0  0  0  0  0  0  0  0  0  0
  143.6785   76.5214  220.0712 H   0  0  0  0  0  0  0  0  0  0  0  0
  139.0062   74.5323  220.6462 H   0  0  0  0  0  0  0  0  0  0  0  0
  140.4365   73.6217  220.0686 H   0  0  0  0  0  0  0  0  0  0  0  0
  139.9050   73.7580  223.0540 H   0  0  0  0  0  0  0  0  0  0  0  0
  138.8744   69.4331  222.2841 H   0  0  0  0  0  0  0  0  0  0  0  0
  138.7681   68.1600  224.4187 H   0  0  0  0  0  0  0  0  0  0  0  0
  139.2123   67.9886  226.8379 H   0  0  0  0  0  0  0  0  0  0  0  0
  141.1130   71.3123  228.8449 H   0  0  0  0  0  0  0  0  0  0  0  0
  141.1936   72.5511  226.6772 H   0  0  0  0  0  0  0  0  0  0  0  0
  140.0184   76.9079  219.0067 H   0  0  0  0  0  0  0  0  0  0  0  0
  142.3500   77.3130  221.6050 H   0  0  0  0  0  0  0  0  0  0  0  0
  142.8314   79.1283  222.9397 H   0  0  0  0  0  0  0  0  0  0  0  0
  142.6843   80.1693  221.4554 H   0  0  0  0  0  0  0  0  0  0  0  0
  140.7472   78.3367  223.9784 H   0  0  0  0  0  0  0  0  0  0  0  0
  138.5987   79.1690  224.9815 H   0  0  0  0  0  0  0  0  0  0  0  0
  137.6594   81.3085  224.1120 H   0  0  0  0  0  0  0  0  0  0  0  0
  138.7831   82.5745  222.3295 H   0  0  0  0  0  0  0  0  0  0  0  0
  140.9011   81.7476  221.3356 H   0  0  0  0  0  0  0  0  0  0  0  0
  1  2  1  0
  2  3  1  0
  3  4  1  0
  4  5  1  0
  5  6  1  0
  6  7  2  0
  6  8  1  0
  8  9  1  0
  9 10  1  0
 10 11  2  0
 10 12  1  0
 12 13  2  0
 13 14  1  0
 14 15  2  0
 15 16  1  0
 16 17  2  0
 17 18  1  0
 17 19  1  0
 19 20  2  0
 20 21  1  0
 21 22  2  0
  5 23  1  0
 23 24  1  0
 24 25  2  0
 24 26  1  0
 26 27  1  0
 27 28  1  0
 28 29  2  0
 29 30  1  0
 30 31  2  0
 31 32  1  0
 32 33  2  0
 23  2  1  0
 33 28  1  0
 22 12  1  0
 21 15  1  0
  1 34  1  0
  1 35  1  0
  1 36  1  0
  2 37  1  6
  3 38  1  0
  3 39  1  0
  4 40  1  0
  4 41  1  0
  8 42  1  0
  8 43  1  0
  9 44  1  0
 13 45  1  0
 14 46  1  0
 16 47  1  0
 19 48  1  0
 20 49  1  0
 23 50  1  6
 26 51  1  0
 27 52  1  0
 27 53  1  0
 29 54  1  0
 30 55  1  0
 31 56  1  0
 32 57  1  0
 33 58  1  0
M  END
>  <meeko>  (8) 
{"free_energy": -8.59, "intermolecular_energy": -10.67, "internal_energy": -3.0, "cluster_size": 17, "cluster_id": 1, "rank_in_cluster": 11}

$$$$

     RDKit          3D

 58 61  0  0  0  0  0  0  0  0999 V2000
  143.6900   75.6810  217.7680 C   0  0  0  0  0  0  0  0  0  0  0  0
  142.6480   74.6510  218.1550 C   0  0  1  0  0  0  0  0  0  0  0  0
  143.3080   73.7610  219.1900 C   0  0  0  0  0  0  0  0  0  0  0  0
  143.1390   74.6460  220.4330 C   0  0  0  0  0  0  0  0  0  0  0  0
  141.7010   74.8920  220.3350 N   0  0  0  0  0  0  0  0  0  0  0  0
  140.7260   74.8120  221.3440 C   0  0  0  0  0  0  0  0  0  0  0  0
  140.8410   75.5910  222.3360 O   0  0  0  0  0  0  0  0  0  0  0  0
  139.6230   73.8390  221.2090 C   0  0  0  0  0  0  0  0  0  0  0  0
  139.6470   72.9450  222.3510 N   0  0  0  0  0  0  0  0  0  0  0  0
  139.6680   71.5280  222.2090 C   0  0  0  0  0  0  0  0  0  0  0  0
  139.6670   70.9780  221.0750 O   0  0  0  0  0  0  0  0  0  0  0  0
  139.6920   70.7060  223.4330 C   0  0  0  0  0  0  0  0  0  0  0  0
  139.1770   69.4260  223.4010 C   0  0  0  0  0  0  0  0  0  0  0  0
  139.2190   68.6850  224.5760 C   0  0  0  0  0  0  0  0  0  0  0  0
  139.7510   69.1830  225.7480 C   0  0  0  0  0  0  0  0  0  0  0  0
  139.7980   68.4590  226.9230 C   0  0  0  0  0  0  0  0  0  0  0  0
  140.3450   69.0230  228.0570 C   0  0  0  0  0  0  0  0  0  0  0  0
  140.3970   68.3180  229.2170 F   0  0  0  0  0  0  0  0  0  0  0  0
  140.8580   70.3240  228.0520 C   0  0  0  0  0  0  0  0  0  0  0  0
  140.8060   71.0460  226.8710 C   0  0  0  0  0  0  0  0  0  0  0  0
  140.2520   70.4710  225.7220 C   0  0  0  0  0  0  0  0  0  0  0  0
  140.2090   71.1850  224.5820 N   0  0  0  0  0  0  0  0  0  0  0  0
  141.4970   75.2430  218.9270 C   0  0  1  0  0  0  0  0  0  0  0  0
  141.4870   76.7270  218.8670 C   0  0  0  0  0  0  0  0  0  0  0  0
  141.2330   77.3770  217.8180 O   0  0  0  0  0  0  0  0  0  0  0  0
  141.7930   77.4060  220.1020 N   0  0  0  0  0  0  0  0  0  0  0  0
  141.8200   78.8550  220.1880 C   0  0  0  0  0  0  0  0  0  0  0  0
  141.9690   79.3380  221.5860 C   0  0  0  0  0  0  0  0  0  0  0  0
  141.4750   78.4860  222.5780 C   0  0  0  0  0  0  0  0  0  0  0  0
  141.5590   78.8340  223.9250 C   0  0  0  0  0  0  0  0  0  0  0  0
  142.1510   80.0520  224.2190 C   0  0  0  0  0  0  0  0  0  0  0  0
  142.6390   80.8940  223.2360 C   0  0  0  0  0  0  0  0  0  0  0  0
  142.5520   80.5460  221.9100 C   0  0  0  0  0  0  0  0  0  0  0  0
  144.1305   76.1164  218.6771 H   0  0  0  0  0  0  0  0  0  0  0  0
  144.4793   75.1984  217.1730 H   0  0  0  0  0  0  0  0  0  0  0  0
  143.2166   76.4759  217.1730 H   0  0  0  0  0  0  0  0  0  0  0  0
  142.2942   74.1728  217.2297 H   0  0  0  0  0  0  0  0  0  0  0  0
  142.7849   72.7993  219.2972 H   0  0  0  0  0  0  0  0  0  0  0  0
  144.3434   73.4677  218.9623 H   0  0  0  0  0  0  0  0  0  0  0  0
  143.4058   74.1148  221.3585 H   0  0  0  0  0  0  0  0  0  0  0  0
  143.7742   75.5433  220.4685 H   0  0  0  0  0  0  0  0  0  0  0  0
  138.6614   74.3721  221.1768 H   0  0  0  0  0  0  0  0  0  0  0  0
  139.7443   73.2625  220.2800 H   0  0  0  0  0  0  0  0  0  0  0  0
  139.6500   73.3410  223.3350 H   0  0  0  0  0  0  0  0  0  0  0  0
  138.7486   69.0072  222.4784 H   0  0  0  0  0  0  0  0  0  0  0  0
  138.8128   67.6628  224.5717 H   0  0  0  0  0  0  0  0  0  0  0  0
  139.3999   67.4341  226.9547 H   0  0  0  0  0  0  0  0  0  0  0  0
  141.2917   70.7628  228.9627 H   0  0  0  0  0  0  0  0  0  0  0  0
  141.2006   72.0722  226.8364 H   0  0  0  0  0  0  0  0  0  0  0  0
  140.5589   74.8590  218.4997 H   0  0  0  0  0  0  0  0  0  0  0  0
  142.0050   76.8530  220.9760 H   0  0  0  0  0  0  0  0  0  0  0  0
  142.6668   79.2283  219.5934 H   0  0  0  0  0  0  0  0  0  0  0  0
  140.8603   79.2313  219.8041 H   0  0  0  0  0  0  0  0  0  0  0  0
  141.0142   77.5290  222.2920 H   0  0  0  0  0  0  0  0  0  0  0  0
  141.1741   78.1739  224.7163 H   0  0  0  0  0  0  0  0  0  0  0  0
  142.2359   80.3602  225.2715 H   0  0  0  0  0  0  0  0  0  0  0  0
  143.1011   81.8513  223.5188 H   0  0  0  0  0  0  0  0  0  0  0  0
  142.9376   81.2139  221.1257 H   0  0  0  0  0  0  0  0  0  0  0  0
  1  2  1  0
  2  3  1  0
  3  4  1  0
  4  5  1  0
  5  6  1  0
  6  7  2  0
  6  8  1  0
  8  9  1  0
  9 10  1  0
 10 11  2  0
 10 12  1  0
 12 13  2  0
 13 14  1  0
 14 15  2  0
 15 16  1  0
 16 17  2  0
 17 18  1  0
 17 19  1  0
 19 20  2  0
 20 21  1  0
 21 22  2  0
  5 23  1  0
 23 24  1  0
 24 25  2  0
 24 26  1  0
 26 27  1  0
 27 28  1  0
 28 29  2  0
 29 30  1  0
 30 31  2  0
 31 32  1  0
 32 33  2  0
 23  2  1  0
 33 28  1  0
 22 12  1  0
 21 15  1  0
  1 34  1  0
  1 35  1  0
  1 36  1  0
  2 37  1  6
  3 38  1  0
  3 39  1  0
  4 40  1  0
  4 41  1  0
  8 42  1  0
  8 43  1  0
  9 44  1  0
 13 45  1  0
 14 46  1  0
 16 47  1  0
 19 48  1  0
 20 49  1  0
 23 50  1  6
 26 51  1  0
 27 52  1  0
 27 53  1  0
 29 54  1  0
 30 55  1  0
 31 56  1  0
 32 57  1  0
 33 58  1  0
M  END
>  <meeko>  (9) 
{"free_energy": -8.94, "intermolecular_energy": -11.02, "internal_energy": -2.77, "cluster_size": 17, "cluster_id": 1, "rank_in_cluster": 5}

$$$$

     RDKit          3D

 58 61  0  0  0  0  0  0  0  0999 V2000
  141.7780   78.3740  218.8440 C   0  0  0  0  0  0  0  0  0  0  0  0
  141.8330   76.9900  218.2290 C   0  0  1  0  0  0  0  0  0  0  0  0
  143.3040   76.6290  218.1520 C   0  0  0  0  0  0  0  0  0  0  0  0
  143.5330   76.1780  219.6010 C   0  0  0  0  0  0  0  0  0  0  0  0
  142.4390   75.2130  219.7070 N   0  0  0  0  0  0  0  0  0  0  0  0
  142.4660   73.9080  220.2270 C   0  0  0  0  0  0  0  0  0  0  0  0
  143.4500   73.5860  220.9560 O   0  0  0  0  0  0  0  0  0  0  0  0
  141.3620   72.9800  219.9070 C   0  0  0  0  0  0  0  0  0  0  0  0
  141.1190   72.1300  221.0570 N   0  0  0  0  0  0  0  0  0  0  0  0
  140.4440   72.5990  222.2200 C   0  0  0  0  0  0  0  0  0  0  0  0
  140.0210   73.7820  222.3060 O   0  0  0  0  0  0  0  0  0  0  0  0
  140.2460   71.6560  223.3370 C   0  0  0  0  0  0  0  0  0  0  0  0
  139.5670   70.4750  223.1160 C   0  0  0  0  0  0  0  0  0  0  0  0
  139.4020   69.6150  224.1940 C   0  0  0  0  0  0  0  0  0  0  0  0
  139.8890   69.9030  225.4540 C   0  0  0  0  0  0  0  0  0  0  0  0
  139.7320   69.0570  226.5350 C   0  0  0  0  0  0  0  0  0  0  0  0
  140.2460   69.4120  227.7640 C   0  0  0  0  0  0  0  0  0  0  0  0
  140.0970   68.5870  228.8340 F   0  0  0  0  0  0  0  0  0  0  0  0
  140.9290   70.6180  227.9510 C   0  0  0  0  0  0  0  0  0  0  0  0
  141.0820   71.4610  226.8630 C   0  0  0  0  0  0  0  0  0  0  0  0
  140.5600   71.0990  225.6170 C   0  0  0  0  0  0  0  0  0  0  0  0
  140.7170   71.9290  224.5700 N   0  0  0  0  0  0  0  0  0  0  0  0
  141.2870   75.9210  219.1410 C   0  0  1  0  0  0  0  0  0  0  0  0
  140.5440   76.4940  220.2920 C   0  0  0  0  0  0  0  0  0  0  0  0
  139.3260   76.8120  220.2430 O   0  0  0  0  0  0  0  0  0  0  0  0
  141.3070   76.6730  221.5030 N   0  0  0  0  0  0  0  0  0  0  0  0
  140.7090   77.2230  222.7050 C   0  0  0  0  0  0  0  0  0  0  0  0
  141.0450   78.6570  222.9040 C   0  0  0  0  0  0  0  0  0  0  0  0
  142.3590   79.0190  222.5910 C   0  0  0  0  0  0  0  0  0  0  0  0
  142.7900   80.3370  222.7390 C   0  0  0  0  0  0  0  0  0  0  0  0
  141.8580   81.2500  223.2050 C   0  0  0  0  0  0  0  0  0  0  0  0
  140.5600   80.8890  223.5130 C   0  0  0  0  0  0  0  0  0  0  0  0
  140.1400   79.5890  223.3670 C   0  0  0  0  0  0  0  0  0  0  0  0
  141.7814   78.2883  219.9406 H   0  0  0  0  0  0  0  0  0  0  0  0
  142.6538   78.9548  218.5189 H   0  0  0  0  0  0  0  0  0  0  0  0
  140.8589   78.8835  218.5189 H   0  0  0  0  0  0  0  0  0  0  0  0
  141.2706   77.0234  217.2842 H   0  0  0  0  0  0  0  0  0  0  0  0
  143.4895   75.8154  217.4353 H   0  0  0  0  0  0  0  0  0  0  0  0
  143.9655   77.4359  217.8037 H   0  0  0  0  0  0  0  0  0  0  0  0
  144.5168   75.7049  219.7366 H   0  0  0  0  0  0  0  0  0  0  0  0
  143.5359   76.9794  220.3545 H   0  0  0  0  0  0  0  0  0  0  0  0
  140.4531   73.5534  219.6722 H   0  0  0  0  0  0  0  0  0  0  0  0
  141.6315   72.3638  219.0365 H   0  0  0  0  0  0  0  0  0  0  0  0
  141.4490   71.1220  221.0520 H   0  0  0  0  0  0  0  0  0  0  0  0
  139.1705   70.2237  222.1212 H   0  0  0  0  0  0  0  0  0  0  0  0
  138.8631   68.6688  224.0385 H   0  0  0  0  0  0  0  0  0  0  0  0
  139.1982   68.1026  226.4154 H   0  0  0  0  0  0  0  0  0  0  0  0
  141.3342   70.8899  228.9368 H   0  0  0  0  0  0  0  0  0  0  0  0
  141.6147   72.4164  226.9789 H   0  0  0  0  0  0  0  0  0  0  0  0
  140.6087   75.2802  218.5585 H   0  0  0  0  0  0  0  0  0  0  0  0
  142.3270   76.4040  221.5350 H   0  0  0  0  0  0  0  0  0  0  0  0
  139.6159   77.1238  222.6322 H   0  0  0  0  0  0  0  0  0  0  0  0
  141.1100   76.6639  223.5633 H   0  0  0  0  0  0  0  0  0  0  0  0
  143.0606   78.2555  222.2239 H   0  0  0  0  0  0  0  0  0  0  0  0
  143.8203   80.6372  222.4974 H   0  0  0  0  0  0  0  0  0  0  0  0
  142.1618   82.2993  223.3344 H   0  0  0  0  0  0  0  0  0  0  0  0
  139.8556   81.6506  223.8789 H   0  0  0  0  0  0  0  0  0  0  0  0
  139.1079   79.2989  223.6132 H   0  0  0  0  0  0  0  0  0  0  0  0
  1  2  1  0
  2  3  1  0
  3  4  1  0
  4  5  1  0
  5  6  1  0
  6  7  2  0
  6  8  1  0
  8  9  1  0
  9 10  1  0
 10 11  2  0
 10 12  1  0
 12 13  2  0
 13 14  1  0
 14 15  2  0
 15 16  1  0
 16 17  2  0
 17 18  1  0
 17 19  1  0
 19 20  2  0
 20 21  1  0
 21 22  2  0
  5 23  1  0
 23 24  1  0
 24 25  2  0
 24 26  1  0
 26 27  1  0
 27 28  1  0
 28 29  2  0
 29 30  1  0
 30 31  2  0
 31 32  1  0
 32 33  2  0
 23  2  1  0
 33 28  1  0
 22 12  1  0
 21 15  1  0
  1 34  1  0
  1 35  1  0
  1 36  1  0
  2 37  1  6
  3 38  1  0
  3 39  1  0
  4 40  1  0
  4 41  1  0
  8 42  1  0
  8 43  1  0
  9 44  1  0
 13 45  1  0
 14 46  1  0
 16 47  1  0
 19 48  1  0
 20 49  1  0
 23 50  1  6
 26 51  1  0
 27 52  1  0
 27 53  1  0
 29 54  1  0
 30 55  1  0
 31 56  1  0
 32 57  1  0
 33 58  1  0
M  END
>  <meeko>  (10) 
{"free_energy": -9.57, "intermolecular_energy": -11.65, "internal_energy": -2.24, "cluster_size": 17, "cluster_id": 1, "rank_in_cluster": 1}

$$$$

     RDKit          3D

 58 61  0  0  0  0  0  0  0  0999 V2000
  135.7410   69.2860  224.4930 C   0  0  0  0  0  0  0  0  0  0  0  0
  135.4720   70.1280  223.2630 C   0  0  1  0  0  0  0  0  0  0  0  0
  134.8170   71.4000  223.7660 C   0  0  0  0  0  0  0  0  0  0  0  0
  136.0660   72.1660  224.2260 C   0  0  0  0  0  0  0  0  0  0  0  0
  136.8530   72.0600  222.9980 N   0  0  0  0  0  0  0  0  0  0  0  0
  137.5660   73.0650  222.3220 C   0  0  0  0  0  0  0  0  0  0  0  0
  138.7940   72.8610  222.0890 O   0  0  0  0  0  0  0  0  0  0  0  0
  136.8640   74.3000  221.9160 C   0  0  0  0  0  0  0  0  0  0  0  0
  137.6730   75.4430  222.2980 N   0  0  0  0  0  0  0  0  0  0  0  0
  137.1620   76.7720  222.2940 C   0  0  0  0  0  0  0  0  0  0  0  0
  135.9740   77.0220  221.9570 O   0  0  0  0  0  0  0  0  0  0  0  0
  138.0650   77.8650  222.6990 C   0  0  0  0  0  0  0  0  0  0  0  0
  137.5320   79.0840  223.0680 C   0  0  0  0  0  0  0  0  0  0  0  0
  138.4170   80.0870  223.4420 C   0  0  0  0  0  0  0  0  0  0  0  0
  139.7850   79.9030  223.4550 C   0  0  0  0  0  0  0  0  0  0  0  0
  140.6760   80.8910  223.8240 C   0  0  0  0  0  0  0  0  0  0  0  0
  142.0310   80.6340  223.8120 C   0  0  0  0  0  0  0  0  0  0  0  0
  142.9160   81.5990  224.1740 F   0  0  0  0  0  0  0  0  0  0  0  0
  142.5350   79.3860  223.4320 C   0  0  0  0  0  0  0  0  0  0  0  0
  141.6360   78.4000  223.0620 C   0  0  0  0  0  0  0  0  0  0  0  0
  140.2620   78.6630  223.0750 C   0  0  0  0  0  0  0  0  0  0  0  0
  139.4020   77.6940  222.7140 N   0  0  0  0  0  0  0  0  0  0  0  0
  136.7330   70.6490  222.6220 C   0  0  1  0  0  0  0  0  0  0  0  0
  137.9480   69.9740  223.1480 C   0  0  0  0  0  0  0  0  0  0  0  0
  138.1800   68.7460  222.9930 O   0  0  0  0  0  0  0  0  0  0  0  0
  138.8720   70.8180  223.8640 N   0  0  0  0  0  0  0  0  0  0  0  0
  140.1000   70.2920  224.4320 C   0  0  0  0  0  0  0  0  0  0  0  0
  140.2890   70.6940  225.8500 C   0  0  0  0  0  0  0  0  0  0  0  0
  141.0880   71.8220  226.0580 C   0  0  0  0  0  0  0  0  0  0  0  0
  141.3370   72.2930  227.3470 C   0  0  0  0  0  0  0  0  0  0  0  0
  140.7550   71.5910  228.3900 C   0  0  0  0  0  0  0  0  0  0  0  0
  139.9650   70.4760  228.1820 C   0  0  0  0  0  0  0  0  0  0  0  0
  139.7240   70.0150  226.9100 C   0  0  0  0  0  0  0  0  0  0  0  0
  135.5498   69.8844  225.3960 H   0  0  0  0  0  0  0  0  0  0  0  0
  135.0787   68.4077  224.4881 H   0  0  0  0  0  0  0  0  0  0  0  0
  136.7898   68.9544  224.4881 H   0  0  0  0  0  0  0  0  0  0  0  0
  134.8992   69.5097  222.5561 H   0  0  0  0  0  0  0  0  0  0  0  0
  134.2827   71.9307  222.9643 H   0  0  0  0  0  0  0  0  0  0  0  0
  134.0467   71.2554  224.5379 H   0  0  0  0  0  0  0  0  0  0  0  0
  135.8392   73.2111  224.4835 H   0  0  0  0  0  0  0  0  0  0  0  0
  136.5504   71.7847  225.1370 H   0  0  0  0  0  0  0  0  0  0  0  0
  136.7151   74.2997  220.8261 H   0  0  0  0  0  0  0  0  0  0  0  0
  135.8831   74.3532  222.4111 H   0  0  0  0  0  0  0  0  0  0  0  0
  138.6820   75.3040  222.5920 H   0  0  0  0  0  0  0  0  0  0  0  0
  136.4453   79.2547  223.0658 H   0  0  0  0  0  0  0  0  0  0  0  0
  138.0122   81.0656  223.7393 H   0  0  0  0  0  0  0  0  0  0  0  0
  140.3058   81.8815  224.1271 H   0  0  0  0  0  0  0  0  0  0  0  0
  143.6179   79.1926  223.4272 H   0  0  0  0  0  0  0  0  0  0  0  0
  142.0026   77.4086  222.7574 H   0  0  0  0  0  0  0  0  0  0  0  0
  136.6671   70.4781  221.5374 H   0  0  0  0  0  0  0  0  0  0  0  0
  138.6690   71.8460  223.9880 H   0  0  0  0  0  0  0  0  0  0  0  0
  140.0718   69.1937  224.3775 H   0  0  0  0  0  0  0  0  0  0  0  0
  140.9395   70.7043  223.8530 H   0  0  0  0  0  0  0  0  0  0  0  0
  141.5257   72.3445  225.1946 H   0  0  0  0  0  0  0  0  0  0  0  0
  141.9646   73.1783  227.5266 H   0  0  0  0  0  0  0  0  0  0  0  0
  140.9279   71.9334  229.4210 H   0  0  0  0  0  0  0  0  0  0  0  0
  139.5247   69.9524  229.0434 H   0  0  0  0  0  0  0  0  0  0  0  0
  139.0967   69.1273  226.7412 H   0  0  0  0  0  0  0  0  0  0  0  0
  1  2  1  0
  2  3  1  0
  3  4  1  0
  4  5  1  0
  5  6  1  0
  6  7  2  0
  6  8  1  0
  8  9  1  0
  9 10  1  0
 10 11  2  0
 10 12  1  0
 12 13  2  0
 13 14  1  0
 14 15  2  0
 15 16  1  0
 16 17  2  0
 17 18  1  0
 17 19  1  0
 19 20  2  0
 20 21  1  0
 21 22  2  0
  5 23  1  0
 23 24  1  0
 24 25  2  0
 24 26  1  0
 26 27  1  0
 27 28  1  0
 28 29  2  0
 29 30  1  0
 30 31  2  0
 31 32  1  0
 32 33  2  0
 23  2  1  0
 33 28  1  0
 22 12  1  0
 21 15  1  0
  1 34  1  0
  1 35  1  0
  1 36  1  0
  2 37  1  6
  3 38  1  0
  3 39  1  0
  4 40  1  0
  4 41  1  0
  8 42  1  0
  8 43  1  0
  9 44  1  0
 13 45  1  0
 14 46  1  0
 16 47  1  0
 19 48  1  0
 20 49  1  0
 23 50  1  6
 26 51  1  0
 27 52  1  0
 27 53  1  0
 29 54  1  0
 30 55  1  0
 31 56  1  0
 32 57  1  0
 33 58  1  0
M  END
>  <meeko>  (11) 
{"free_energy": -8.09, "intermolecular_energy": -10.18, "internal_energy": -2.8, "cluster_size": 2, "cluster_id": 3, "rank_in_cluster": 1}

$$$$

     RDKit          3D

 58 61  0  0  0  0  0  0  0  0999 V2000
  136.1480   69.0580  223.5950 C   0  0  0  0  0  0  0  0  0  0  0  0
  135.9730   70.0780  222.4880 C   0  0  1  0  0  0  0  0  0  0  0  0
  135.1490   71.2020  223.0860 C   0  0  0  0  0  0  0  0  0  0  0  0
  136.2550   71.9570  223.8370 C   0  0  0  0  0  0  0  0  0  0  0  0
  137.2050   72.1100  222.7360 N   0  0  0  0  0  0  0  0  0  0  0  0
  137.9110   73.2590  222.3380 C   0  0  0  0  0  0  0  0  0  0  0  0
  139.1760   73.2010  222.3400 O   0  0  0  0  0  0  0  0  0  0  0  0
  137.1600   74.4670  221.9400 C   0  0  0  0  0  0  0  0  0  0  0  0
  137.9300   75.6390  222.3130 N   0  0  0  0  0  0  0  0  0  0  0  0
  137.3580   76.9420  222.3600 C   0  0  0  0  0  0  0  0  0  0  0  0
  136.1470   77.1420  222.0790 O   0  0  0  0  0  0  0  0  0  0  0  0
  138.2260   78.0680  222.7520 C   0  0  0  0  0  0  0  0  0  0  0  0
  137.6560   79.2840  223.0740 C   0  0  0  0  0  0  0  0  0  0  0  0
  138.5080   80.3180  223.4370 C   0  0  0  0  0  0  0  0  0  0  0  0
  139.8800   80.1680  223.4850 C   0  0  0  0  0  0  0  0  0  0  0  0
  140.7390   81.1880  223.8440 C   0  0  0  0  0  0  0  0  0  0  0  0
  142.1000   80.9640  223.8690 C   0  0  0  0  0  0  0  0  0  0  0  0
  142.9530   81.9600  224.2220 F   0  0  0  0  0  0  0  0  0  0  0  0
  142.6420   79.7180  223.5380 C   0  0  0  0  0  0  0  0  0  0  0  0
  141.7740   78.7000  223.1770 C   0  0  0  0  0  0  0  0  0  0  0  0
  140.3950   78.9300  223.1530 C   0  0  0  0  0  0  0  0  0  0  0  0
  139.5660   77.9300  222.8010 N   0  0  0  0  0  0  0  0  0  0  0  0
  137.2580   70.7780  222.1270 C   0  0  1  0  0  0  0  0  0  0  0  0
  138.4460   70.1030  222.7100 C   0  0  0  0  0  0  0  0  0  0  0  0
  138.8160   68.9450  222.3820 O   0  0  0  0  0  0  0  0  0  0  0  0
  139.1740   70.8590  223.6990 N   0  0  0  0  0  0  0  0  0  0  0  0
  140.3540   70.3230  224.3510 C   0  0  0  0  0  0  0  0  0  0  0  0
  140.4280   70.6940  225.7890 C   0  0  0  0  0  0  0  0  0  0  0  0
  141.1530   71.8540  226.0780 C   0  0  0  0  0  0  0  0  0  0  0  0
  141.2920   72.3000  227.3910 C   0  0  0  0  0  0  0  0  0  0  0  0
  140.6800   71.5410  228.3760 C   0  0  0  0  0  0  0  0  0  0  0  0
  139.9640   70.3930  228.0870 C   0  0  0  0  0  0  0  0  0  0  0  0
  139.8320   69.9580  226.7910 C   0  0  0  0  0  0  0  0  0  0  0  0
  136.0622   69.5579  224.5711 H   0  0  0  0  0  0  0  0  0  0  0  0
  135.3692   68.2860  223.5087 H   0  0  0  0  0  0  0  0  0  0  0  0
  137.1396   68.5897  223.5087 H   0  0  0  0  0  0  0  0  0  0  0  0
  135.5547   69.5536  221.6162 H   0  0  0  0  0  0  0  0  0  0  0  0
  134.6812   71.8254  222.3098 H   0  0  0  0  0  0  0  0  0  0  0  0
  134.2988   70.8802  223.7054 H   0  0  0  0  0  0  0  0  0  0  0  0
  135.9065   72.9273  224.2206 H   0  0  0  0  0  0  0  0  0  0  0  0
  136.6452   71.4586  224.7366 H   0  0  0  0  0  0  0  0  0  0  0  0
  136.9993   74.4609  220.8518 H   0  0  0  0  0  0  0  0  0  0  0  0
  136.1835   74.4842  222.4460 H   0  0  0  0  0  0  0  0  0  0  0  0
  138.9560   75.5410  222.5630 H   0  0  0  0  0  0  0  0  0  0  0  0
  136.5659   79.4280  223.0439 H   0  0  0  0  0  0  0  0  0  0  0  0
  138.0735   81.2947  223.6965 H   0  0  0  0  0  0  0  0  0  0  0  0
  140.3386   82.1775  224.1096 H   0  0  0  0  0  0  0  0  0  0  0  0
  143.7289   79.5505  223.5635 H   0  0  0  0  0  0  0  0  0  0  0  0
  142.1704   77.7095  222.9089 H   0  0  0  0  0  0  0  0  0  0  0  0
  137.3512   70.7884  221.0310 H   0  0  0  0  0  0  0  0  0  0  0  0
  138.8560   71.8290  223.9680 H   0  0  0  0  0  0  0  0  0  0  0  0
  140.3341   69.2261  224.2702 H   0  0  0  0  0  0  0  0  0  0  0  0
  141.2355   70.7495  223.8500 H   0  0  0  0  0  0  0  0  0  0  0  0
  141.6193   72.4215  225.2591 H   0  0  0  0  0  0  0  0  0  0  0  0
  141.8599   73.2102  227.6338 H   0  0  0  0  0  0  0  0  0  0  0  0
  140.7666   71.8626  229.4244 H   0  0  0  0  0  0  0  0  0  0  0  0
  139.4959   69.8231  228.9032 H   0  0  0  0  0  0  0  0  0  0  0  0
  139.2647   69.0448  226.5581 H   0  0  0  0  0  0  0  0  0  0  0  0
  1  2  1  0
  2  3  1  0
  3  4  1  0
  4  5  1  0
  5  6  1  0
  6  7  2  0
  6  8  1  0
  8  9  1  0
  9 10  1  0
 10 11  2  0
 10 12  1  0
 12 13  2  0
 13 14  1  0
 14 15  2  0
 15 16  1  0
 16 17  2  0
 17 18  1  0
 17 19  1  0
 19 20  2  0
 20 21  1  0
 21 22  2  0
  5 23  1  0
 23 24  1  0
 24 25  2  0
 24 26  1  0
 26 27  1  0
 27 28  1  0
 28 29  2  0
 29 30  1  0
 30 31  2  0
 31 32  1  0
 32 33  2  0
 23  2  1  0
 33 28  1  0
 22 12  1  0
 21 15  1  0
  1 34  1  0
  1 35  1  0
  1 36  1  0
  2 37  1  6
  3 38  1  0
  3 39  1  0
  4 40  1  0
  4 41  1  0
  8 42  1  0
  8 43  1  0
  9 44  1  0
 13 45  1  0
 14 46  1  0
 16 47  1  0
 19 48  1  0
 20 49  1  0
 23 50  1  6
 26 51  1  0
 27 52  1  0
 27 53  1  0
 29 54  1  0
 30 55  1  0
 31 56  1  0
 32 57  1  0
 33 58  1  0
M  END
>  <meeko>  (12) 
{"free_energy": -7.83, "intermolecular_energy": -9.92, "internal_energy": -2.96, "cluster_size": 2, "cluster_id": 3, "rank_in_cluster": 2}

$$$$

     RDKit          3D

 58 61  0  0  0  0  0  0  0  0999 V2000
  143.3190   77.1910  218.5290 C   0  0  0  0  0  0  0  0  0  0  0  0
  142.0860   76.3110  218.4690 C   0  0  1  0  0  0  0  0  0  0  0  0
  142.5420   74.9290  218.8950 C   0  0  0  0  0  0  0  0  0  0  0  0
  142.5400   75.1170  220.4190 C   0  0  0  0  0  0  0  0  0  0  0  0
  141.1820   75.6360  220.5750 N   0  0  0  0  0  0  0  0  0  0  0  0
  140.1990   75.2580  221.5060 C   0  0  0  0  0  0  0  0  0  0  0  0
  140.0670   75.9720  222.5440 O   0  0  0  0  0  0  0  0  0  0  0  0
  139.3740   74.0620  221.2400 C   0  0  0  0  0  0  0  0  0  0  0  0
  139.4940   73.1530  222.3660 N   0  0  0  0  0  0  0  0  0  0  0  0
  139.4500   71.7390  222.2090 C   0  0  0  0  0  0  0  0  0  0  0  0
  139.3040   71.2030  221.0780 O   0  0  0  0  0  0  0  0  0  0  0  0
  139.5810   70.9020  223.4160 C   0  0  0  0  0  0  0  0  0  0  0  0
  139.1480   69.5910  223.3830 C   0  0  0  0  0  0  0  0  0  0  0  0
  139.2900   68.8370  224.5410 C   0  0  0  0  0  0  0  0  0  0  0  0
  139.8390   69.3500  225.6990 C   0  0  0  0  0  0  0  0  0  0  0  0
  139.9850   68.6120  226.8570 C   0  0  0  0  0  0  0  0  0  0  0  0
  140.5440   69.1930  227.9760 C   0  0  0  0  0  0  0  0  0  0  0  0
  140.6920   68.4750  229.1200 F   0  0  0  0  0  0  0  0  0  0  0  0
  140.9720   70.5240  227.9730 C   0  0  0  0  0  0  0  0  0  0  0  0
  140.8210   71.2590  226.8080 C   0  0  0  0  0  0  0  0  0  0  0  0
  140.2550   70.6680  225.6740 C   0  0  0  0  0  0  0  0  0  0  0  0
  140.1160   71.3950  224.5510 N   0  0  0  0  0  0  0  0  0  0  0  0
  141.0690   76.6540  219.5280 C   0  0  1  0  0  0  0  0  0  0  0  0
  141.3590   77.9570  220.1810 C   0  0  0  0  0  0  0  0  0  0  0  0
  141.2280   79.0670  219.6020 O   0  0  0  0  0  0  0  0  0  0  0  0
  141.8130   77.8830  221.5480 N   0  0  0  0  0  0  0  0  0  0  0  0
  142.1330   79.0770  222.3090 C   0  0  0  0  0  0  0  0  0  0  0  0
  140.9290   79.8910  222.6230 C   0  0  0  0  0  0  0  0  0  0  0  0
  140.1010   79.3840  223.6280 C   0  0  0  0  0  0  0  0  0  0  0  0
  138.9430   80.0610  224.0070 C   0  0  0  0  0  0  0  0  0  0  0  0
  138.6650   81.2450  223.3420 C   0  0  0  0  0  0  0  0  0  0  0  0
  139.4860   81.7440  222.3470 C   0  0  0  0  0  0  0  0  0  0  0  0
  140.6260   81.0720  221.9770 C   0  0  0  0  0  0  0  0  0  0  0  0
  143.5838   77.3800  219.5798 H   0  0  0  0  0  0  0  0  0  0  0  0
  144.1557   76.6847  218.0254 H   0  0  0  0  0  0  0  0  0  0  0  0
  143.1122   78.1468  218.0254 H   0  0  0  0  0  0  0  0  0  0  0  0
  141.6536   76.4128  217.4627 H   0  0  0  0  0  0  0  0  0  0  0  0
  141.8353   74.1482  218.5774 H   0  0  0  0  0  0  0  0  0  0  0  0
  143.5001   74.6004  218.4661 H   0  0  0  0  0  0  0  0  0  0  0  0
  142.6837   74.1664  220.9535 H   0  0  0  0  0  0  0  0  0  0  0  0
  143.3422   75.7529  220.8216 H   0  0  0  0  0  0  0  0  0  0  0  0
  138.3222   74.3585  221.1143 H   0  0  0  0  0  0  0  0  0  0  0  0
  139.7184   73.5665  220.3203 H   0  0  0  0  0  0  0  0  0  0  0  0
  139.6180   73.5380  223.3460 H   0  0  0  0  0  0  0  0  0  0  0  0
  138.7066   69.1594  222.4726 H   0  0  0  0  0  0  0  0  0  0  0  0
  138.9518   67.7903  224.5350 H   0  0  0  0  0  0  0  0  0  0  0  0
  139.6561   67.5628  226.8869 H   0  0  0  0  0  0  0  0  0  0  0  0
  141.4169   70.9759  228.8718 H   0  0  0  0  0  0  0  0  0  0  0  0
  141.1469   72.3091  226.7752 H   0  0  0  0  0  0  0  0  0  0  0  0
  140.0772   76.7019  219.0546 H   0  0  0  0  0  0  0  0  0  0  0  0
  141.9200   76.9480  222.0250 H   0  0  0  0  0  0  0  0  0  0  0  0
  142.6116   78.7763  223.2527 H   0  0  0  0  0  0  0  0  0  0  0  0
  142.8040   79.6954  221.6947 H   0  0  0  0  0  0  0  0  0  0  0  0
  140.3661   78.4396  224.1259 H   0  0  0  0  0  0  0  0  0  0  0  0
  138.2814   79.6742  224.7961 H   0  0  0  0  0  0  0  0  0  0  0  0
  137.7599   81.8073  223.6151 H   0  0  0  0  0  0  0  0  0  0  0  0
  139.2237   82.6880  221.8470 H   0  0  0  0  0  0  0  0  0  0  0  0
  141.2807   81.4657  221.1856 H   0  0  0  0  0  0  0  0  0  0  0  0
  1  2  1  0
  2  3  1  0
  3  4  1  0
  4  5  1  0
  5  6  1  0
  6  7  2  0
  6  8  1  0
  8  9  1  0
  9 10  1  0
 10 11  2  0
 10 12  1  0
 12 13  2  0
 13 14  1  0
 14 15  2  0
 15 16  1  0
 16 17  2  0
 17 18  1  0
 17 19  1  0
 19 20  2  0
 20 21  1  0
 21 22  2  0
  5 23  1  0
 23 24  1  0
 24 25  2  0
 24 26  1  0
 26 27  1  0
 27 28  1  0
 28 29  2  0
 29 30  1  0
 30 31  2  0
 31 32  1  0
 32 33  2  0
 23  2  1  0
 33 28  1  0
 22 12  1  0
 21 15  1  0
  1 34  1  0
  1 35  1  0
  1 36  1  0
  2 37  1  6
  3 38  1  0
  3 39  1  0
  4 40  1  0
  4 41  1  0
  8 42  1  0
  8 43  1  0
  9 44  1  0
 13 45  1  0
 14 46  1  0
 16 47  1  0
 19 48  1  0
 20 49  1  0
 23 50  1  6
 26 51  1  0
 27 52  1  0
 27 53  1  0
 29 54  1  0
 30 55  1  0
 31 56  1  0
 32 57  1  0
 33 58  1  0
M  END
>  <meeko>  (13) 
{"free_energy": -8.67, "intermolecular_energy": -10.75, "internal_energy": -2.88, "cluster_size": 17, "cluster_id": 1, "rank_in_cluster": 10}

$$$$

     RDKit          3D

 58 61  0  0  0  0  0  0  0  0999 V2000
  141.5830   78.6480  218.7830 C   0  0  0  0  0  0  0  0  0  0  0  0
  141.4560   77.2270  218.2720 C   0  0  1  0  0  0  0  0  0  0  0  0
  142.8630   76.7870  217.9170 C   0  0  0  0  0  0  0  0  0  0  0  0
  143.3770   76.4180  219.3150 C   0  0  0  0  0  0  0  0  0  0  0  0
  142.2960   75.5190  219.7170 N   0  0  0  0  0  0  0  0  0  0  0  0
  142.3840   74.2490  220.3130 C   0  0  0  0  0  0  0  0  0  0  0  0
  143.2600   74.0820  221.2130 O   0  0  0  0  0  0  0  0  0  0  0  0
  141.4670   73.1780  219.8720 C   0  0  0  0  0  0  0  0  0  0  0  0
  141.1840   72.3130  221.0020 N   0  0  0  0  0  0  0  0  0  0  0  0
  140.5110   72.7790  222.1680 C   0  0  0  0  0  0  0  0  0  0  0  0
  140.1260   73.9740  222.2750 O   0  0  0  0  0  0  0  0  0  0  0  0
  140.2710   71.8200  223.2620 C   0  0  0  0  0  0  0  0  0  0  0  0
  139.5700   70.6580  223.0050 C   0  0  0  0  0  0  0  0  0  0  0  0
  139.3660   69.7820  224.0630 C   0  0  0  0  0  0  0  0  0  0  0  0
  139.8340   70.0350  225.3370 C   0  0  0  0  0  0  0  0  0  0  0  0
  139.6370   69.1730  226.3980 C   0  0  0  0  0  0  0  0  0  0  0  0
  140.1350   69.4930  227.6440 C   0  0  0  0  0  0  0  0  0  0  0  0
  139.9470   68.6510  228.6940 F   0  0  0  0  0  0  0  0  0  0  0  0
  140.8410   70.6790  227.8680 C   0  0  0  0  0  0  0  0  0  0  0  0
  141.0330   71.5400  226.8000 C   0  0  0  0  0  0  0  0  0  0  0  0
  140.5280   71.2130  225.5360 C   0  0  0  0  0  0  0  0  0  0  0  0
  140.7240   72.0590  224.5090 N   0  0  0  0  0  0  0  0  0  0  0  0
  141.0770   76.2470  219.3530 C   0  0  1  0  0  0  0  0  0  0  0  0
  140.6150   76.9290  220.5890 C   0  0  0  0  0  0  0  0  0  0  0  0
  139.6350   77.7190  220.6200 O   0  0  0  0  0  0  0  0  0  0  0  0
  141.3660   76.6330  221.7850 N   0  0  0  0  0  0  0  0  0  0  0  0
  141.0260   77.2290  223.0640 C   0  0  0  0  0  0  0  0  0  0  0  0
  141.2810   78.6930  223.0950 C   0  0  0  0  0  0  0  0  0  0  0  0
  142.5730   79.0900  222.7370 C   0  0  0  0  0  0  0  0  0  0  0  0
  142.9290   80.4380  222.7300 C   0  0  0  0  0  0  0  0  0  0  0  0
  141.9460   81.3450  223.0930 C   0  0  0  0  0  0  0  0  0  0  0  0
  140.6690   80.9490  223.4480 C   0  0  0  0  0  0  0  0  0  0  0  0
  140.3240   79.6200  223.4530 C   0  0  0  0  0  0  0  0  0  0  0  0
  141.5826   78.6435  219.8830 H   0  0  0  0  0  0  0  0  0  0  0  0
  142.5239   79.0860  218.4185 H   0  0  0  0  0  0  0  0  0  0  0  0
  140.7347   79.2459  218.4185 H   0  0  0  0  0  0  0  0  0  0  0  0
  140.7082   77.2295  217.4653 H   0  0  0  0  0  0  0  0  0  0  0  0
  142.8627   75.9210  217.2387 H   0  0  0  0  0  0  0  0  0  0  0  0
  143.4649   77.5354  217.3807 H   0  0  0  0  0  0  0  0  0  0  0  0
  144.3492   75.9049  219.2764 H   0  0  0  0  0  0  0  0  0  0  0  0
  143.5686   77.2645  219.9908 H   0  0  0  0  0  0  0  0  0  0  0  0
  140.5309   73.6214  219.5018 H   0  0  0  0  0  0  0  0  0  0  0  0
  141.9319   72.5965  219.0622 H   0  0  0  0  0  0  0  0  0  0  0  0
  141.4810   71.2950  220.9780 H   0  0  0  0  0  0  0  0  0  0  0  0
  139.1871   70.4345  221.9983 H   0  0  0  0  0  0  0  0  0  0  0  0
  138.8102   68.8508  223.8790 H   0  0  0  0  0  0  0  0  0  0  0  0
  139.0843   68.2335  226.2498 H   0  0  0  0  0  0  0  0  0  0  0  0
  141.2337   70.9220  228.8664 H   0  0  0  0  0  0  0  0  0  0  0  0
  141.5828   72.4816  226.9453 H   0  0  0  0  0  0  0  0  0  0  0  0
  140.2685   75.6055  218.9724 H   0  0  0  0  0  0  0  0  0  0  0  0
  142.1860   75.9690  221.7490 H   0  0  0  0  0  0  0  0  0  0  0  0
  139.9586   77.0525  223.2629 H   0  0  0  0  0  0  0  0  0  0  0  0
  141.6626   76.7623  223.8302 H   0  0  0  0  0  0  0  0  0  0  0  0
  143.3173   78.3298  222.4576 H   0  0  0  0  0  0  0  0  0  0  0  0
  143.9410   80.7657  222.4499 H   0  0  0  0  0  0  0  0  0  0  0  0
  142.1898   82.4176  223.0990 H   0  0  0  0  0  0  0  0  0  0  0  0
  139.9225   81.7064  223.7291 H   0  0  0  0  0  0  0  0  0  0  0  0
  139.3095   79.3022  223.7355 H   0  0  0  0  0  0  0  0  0  0  0  0
  1  2  1  0
  2  3  1  0
  3  4  1  0
  4  5  1  0
  5  6  1  0
  6  7  2  0
  6  8  1  0
  8  9  1  0
  9 10  1  0
 10 11  2  0
 10 12  1  0
 12 13  2  0
 13 14  1  0
 14 15  2  0
 15 16  1  0
 16 17  2  0
 17 18  1  0
 17 19  1  0
 19 20  2  0
 20 21  1  0
 21 22  2  0
  5 23  1  0
 23 24  1  0
 24 25  2  0
 24 26  1  0
 26 27  1  0
 27 28  1  0
 28 29  2  0
 29 30  1  0
 30 31  2  0
 31 32  1  0
 32 33  2  0
 23  2  1  0
 33 28  1  0
 22 12  1  0
 21 15  1  0
  1 34  1  0
  1 35  1  0
  1 36  1  0
  2 37  1  6
  3 38  1  0
  3 39  1  0
  4 40  1  0
  4 41  1  0
  8 42  1  0
  8 43  1  0
  9 44  1  0
 13 45  1  0
 14 46  1  0
 16 47  1  0
 19 48  1  0
 20 49  1  0
 23 50  1  6
 26 51  1  0
 27 52  1  0
 27 53  1  0
 29 54  1  0
 30 55  1  0
 31 56  1  0
 32 57  1  0
 33 58  1  0
M  END
>  <meeko>  (14) 
{"free_energy": -8.99, "intermolecular_energy": -11.08, "internal_energy": -2.81, "cluster_size": 17, "cluster_id": 1, "rank_in_cluster": 4}

$$$$

     RDKit          3D

 58 61  0  0  0  0  0  0  0  0999 V2000
  135.6320   77.7540  222.3790 C   0  0  0  0  0  0  0  0  0  0  0  0
  136.2270   76.5360  223.0550 C   0  0  1  0  0  0  0  0  0  0  0  0
  135.9310   75.3660  222.1370 C   0  0  0  0  0  0  0  0  0  0  0  0
  137.0550   75.5550  221.1100 C   0  0  0  0  0  0  0  0  0  0  0  0
  138.1870   75.6280  222.0330 N   0  0  0  0  0  0  0  0  0  0  0  0
  139.4270   74.9700  221.9570 C   0  0  0  0  0  0  0  0  0  0  0  0
  140.4560   75.6130  222.3190 O   0  0  0  0  0  0  0  0  0  0  0  0
  139.4780   73.5780  221.4650 C   0  0  0  0  0  0  0  0  0  0  0  0
  139.6090   72.6860  222.6020 N   0  0  0  0  0  0  0  0  0  0  0  0
  139.3250   71.2940  222.5130 C   0  0  0  0  0  0  0  0  0  0  0  0
  138.9430   70.7650  221.4360 O   0  0  0  0  0  0  0  0  0  0  0  0
  139.4900   70.4720  223.7270 C   0  0  0  0  0  0  0  0  0  0  0  0
  139.0480   69.1640  223.7260 C   0  0  0  0  0  0  0  0  0  0  0  0
  139.2220   68.4240  224.8890 C   0  0  0  0  0  0  0  0  0  0  0  0
  139.8120   68.9500  226.0210 C   0  0  0  0  0  0  0  0  0  0  0  0
  139.9910   68.2260  227.1840 C   0  0  0  0  0  0  0  0  0  0  0  0
  140.5890   68.8190  228.2760 C   0  0  0  0  0  0  0  0  0  0  0  0
  140.7690   68.1160  229.4250 F   0  0  0  0  0  0  0  0  0  0  0  0
  141.0240   70.1470  228.2410 C   0  0  0  0  0  0  0  0  0  0  0  0
  140.8400   70.8680  227.0720 C   0  0  0  0  0  0  0  0  0  0  0  0
  140.2340   70.2640  225.9650 C   0  0  0  0  0  0  0  0  0  0  0  0
  140.0640   70.9770  224.8370 N   0  0  0  0  0  0  0  0  0  0  0  0
  137.7350   76.5540  223.0750 C   0  0  1  0  0  0  0  0  0  0  0  0
  138.2830   77.8860  222.7130 C   0  0  0  0  0  0  0  0  0  0  0  0
  138.0080   78.9430  223.3410 O   0  0  0  0  0  0  0  0  0  0  0  0
  139.1680   77.9110  221.5750 N   0  0  0  0  0  0  0  0  0  0  0  0
  139.7760   79.1440  221.1100 C   0  0  0  0  0  0  0  0  0  0  0  0
  140.7420   79.7070  222.0900 C   0  0  0  0  0  0  0  0  0  0  0  0
  141.9670   79.0390  222.1850 C   0  0  0  0  0  0  0  0  0  0  0  0
  142.9500   79.4750  223.0710 C   0  0  0  0  0  0  0  0  0  0  0  0
  142.6500   80.5890  223.8380 C   0  0  0  0  0  0  0  0  0  0  0  0
  141.4380   81.2480  223.7420 C   0  0  0  0  0  0  0  0  0  0  0  0
  140.4710   80.8130  222.8680 C   0  0  0  0  0  0  0  0  0  0  0  0
  135.2848   78.4647  223.1435 H   0  0  0  0  0  0  0  0  0  0  0  0
  136.3966   78.2351  221.7513 H   0  0  0  0  0  0  0  0  0  0  0  0
  134.7826   77.4467  221.7513 H   0  0  0  0  0  0  0  0  0  0  0  0
  135.8218   76.4923  224.0767 H   0  0  0  0  0  0  0  0  0  0  0  0
  136.0129   74.4026  222.6615 H   0  0  0  0  0  0  0  0  0  0  0  0
  134.9141   75.3467  221.7181 H   0  0  0  0  0  0  0  0  0  0  0  0
  137.1358   74.6999  220.4228 H   0  0  0  0  0  0  0  0  0  0  0  0
  136.9393   76.4115  220.4295 H   0  0  0  0  0  0  0  0  0  0  0  0
  138.5531   73.3453  220.9168 H   0  0  0  0  0  0  0  0  0  0  0  0
  140.3364   73.4512  220.7889 H   0  0  0  0  0  0  0  0  0  0  0  0
  139.9260   73.0660  223.5400 H   0  0  0  0  0  0  0  0  0  0  0  0
  138.5749   68.7234  222.8360 H   0  0  0  0  0  0  0  0  0  0  0  0
  138.8767   67.3798  224.9086 H   0  0  0  0  0  0  0  0  0  0  0  0
  139.6574   67.1792  227.2388 H   0  0  0  0  0  0  0  0  0  0  0  0
  141.5002   70.6079  229.1190 H   0  0  0  0  0  0  0  0  0  0  0  0
  141.1705   71.9156  227.0144 H   0  0  0  0  0  0  0  0  0  0  0  0
  138.0724   76.2892  224.0879 H   0  0  0  0  0  0  0  0  0  0  0  0
  139.3930   77.0200  221.0550 H   0  0  0  0  0  0  0  0  0  0  0  0
  140.3065   78.9423  220.1677 H   0  0  0  0  0  0  0  0  0  0  0  0
  138.9720   79.8818  220.9714 H   0  0  0  0  0  0  0  0  0  0  0  0
  142.1567   78.1590  221.5528 H   0  0  0  0  0  0  0  0  0  0  0  0
  143.9178   78.9594  223.1573 H   0  0  0  0  0  0  0  0  0  0  0  0
  143.4023   80.9625  224.5483 H   0  0  0  0  0  0  0  0  0  0  0  0
  141.2461   82.1293  224.3717 H   0  0  0  0  0  0  0  0  0  0  0  0
  139.5052   81.3338  222.7908 H   0  0  0  0  0  0  0  0  0  0  0  0
  1  2  1  0
  2  3  1  0
  3  4  1  0
  4  5  1  0
  5  6  1  0
  6  7  2  0
  6  8  1  0
  8  9  1  0
  9 10  1  0
 10 11  2  0
 10 12  1  0
 12 13  2  0
 13 14  1  0
 14 15  2  0
 15 16  1  0
 16 17  2  0
 17 18  1  0
 17 19  1  0
 19 20  2  0
 20 21  1  0
 21 22  2  0
  5 23  1  0
 23 24  1  0
 24 25  2  0
 24 26  1  0
 26 27  1  0
 27 28  1  0
 28 29  2  0
 29 30  1  0
 30 31  2  0
 31 32  1  0
 32 33  2  0
 23  2  1  0
 33 28  1  0
 22 12  1  0
 21 15  1  0
  1 34  1  0
  1 35  1  0
  1 36  1  0
  2 37  1  1
  3 38  1  0
  3 39  1  0
  4 40  1  0
  4 41  1  0
  8 42  1  0
  8 43  1  0
  9 44  1  0
 13 45  1  0
 14 46  1  0
 16 47  1  0
 19 48  1  0
 20 49  1  0
 23 50  1  1
 26 51  1  0
 27 52  1  0
 27 53  1  0
 29 54  1  0
 30 55  1  0
 31 56  1  0
 32 57  1  0
 33 58  1  0
M  END
>  <meeko>  (15) 
{"free_energy": -8.46, "intermolecular_energy": -10.55, "internal_energy": -2.7, "cluster_size": 1, "cluster_id": 2, "rank_in_cluster": 1}

$$$$

     RDKit          3D

 58 61  0  0  0  0  0  0  0  0999 V2000
  141.6980   78.6510  218.8110 C   0  0  0  0  0  0  0  0  0  0  0  0
  141.5430   77.2480  218.2600 C   0  0  1  0  0  0  0  0  0  0  0  0
  142.9450   76.7740  217.9290 C   0  0  0  0  0  0  0  0  0  0  0  0
  143.4110   76.3540  219.3300 C   0  0  0  0  0  0  0  0  0  0  0  0
  142.2930   75.4790  219.6810 N   0  0  0  0  0  0  0  0  0  0  0  0
  142.3280   74.1930  220.2460 C   0  0  0  0  0  0  0  0  0  0  0  0
  143.2670   73.9320  221.0550 O   0  0  0  0  0  0  0  0  0  0  0  0
  141.2850   73.2130  219.8790 C   0  0  0  0  0  0  0  0  0  0  0  0
  141.0600   72.3280  221.0060 N   0  0  0  0  0  0  0  0  0  0  0  0
  140.4180   72.7640  222.2000 C   0  0  0  0  0  0  0  0  0  0  0  0
  140.0110   73.9490  222.3360 O   0  0  0  0  0  0  0  0  0  0  0  0
  140.2360   71.7870  223.2890 C   0  0  0  0  0  0  0  0  0  0  0  0
  139.5980   70.5900  223.0280 C   0  0  0  0  0  0  0  0  0  0  0  0
  139.4470   69.6980  224.0810 C   0  0  0  0  0  0  0  0  0  0  0  0
  139.9070   69.9670  225.3540 C   0  0  0  0  0  0  0  0  0  0  0  0
  139.7630   69.0890  226.4110 C   0  0  0  0  0  0  0  0  0  0  0  0
  140.2490   69.4280  227.6570 C   0  0  0  0  0  0  0  0  0  0  0  0
  140.1130   68.5710  228.7020 F   0  0  0  0  0  0  0  0  0  0  0  0
  140.8910   70.6490  227.8840 C   0  0  0  0  0  0  0  0  0  0  0  0
  141.0300   71.5260  226.8210 C   0  0  0  0  0  0  0  0  0  0  0  0
  140.5380   71.1800  225.5580 C   0  0  0  0  0  0  0  0  0  0  0  0
  140.6820   72.0420  224.5350 N   0  0  0  0  0  0  0  0  0  0  0  0
  141.1060   76.2520  219.3050 C   0  0  1  0  0  0  0  0  0  0  0  0
  140.6330   76.9170  220.5470 C   0  0  0  0  0  0  0  0  0  0  0  0
  139.6520   77.7060  220.5800 O   0  0  0  0  0  0  0  0  0  0  0  0
  141.3740   76.6060  221.7450 N   0  0  0  0  0  0  0  0  0  0  0  0
  141.0220   77.1830  223.0290 C   0  0  0  0  0  0  0  0  0  0  0  0
  141.2790   78.6470  223.0840 C   0  0  0  0  0  0  0  0  0  0  0  0
  142.5700   79.0480  222.7300 C   0  0  0  0  0  0  0  0  0  0  0  0
  142.9270   80.3960  222.7450 C   0  0  0  0  0  0  0  0  0  0  0  0
  141.9460   81.2970  223.1230 C   0  0  0  0  0  0  0  0  0  0  0  0
  140.6690   80.8980  223.4730 C   0  0  0  0  0  0  0  0  0  0  0  0
  140.3230   79.5680  223.4580 C   0  0  0  0  0  0  0  0  0  0  0  0
  141.6941   78.6157  219.9104 H   0  0  0  0  0  0  0  0  0  0  0  0
  142.6489   79.0793  218.4613 H   0  0  0  0  0  0  0  0  0  0  0  0
  140.8635   79.2765  218.4613 H   0  0  0  0  0  0  0  0  0  0  0  0
  140.8173   77.2943  217.4347 H   0  0  0  0  0  0  0  0  0  0  0  0
  142.9363   75.9259  217.2286 H   0  0  0  0  0  0  0  0  0  0  0  0
  143.5830   77.5167  217.4277 H   0  0  0  0  0  0  0  0  0  0  0  0
  144.3679   75.8121  219.3027 H   0  0  0  0  0  0  0  0  0  0  0  0
  143.6105   77.1769  220.0322 H   0  0  0  0  0  0  0  0  0  0  0  0
  140.3523   73.7407  219.6310 H   0  0  0  0  0  0  0  0  0  0  0  0
  141.6099   72.6303  219.0044 H   0  0  0  0  0  0  0  0  0  0  0  0
  141.3780   71.3170  220.9590 H   0  0  0  0  0  0  0  0  0  0  0  0
  139.2230   70.3520  222.0217 H   0  0  0  0  0  0  0  0  0  0  0  0
  138.9410   68.7395  223.8934 H   0  0  0  0  0  0  0  0  0  0  0  0
  139.2619   68.1216  226.2594 H   0  0  0  0  0  0  0  0  0  0  0  0
  141.2761   70.9067  228.8817 H   0  0  0  0  0  0  0  0  0  0  0  0
  141.5278   72.4955  226.9701 H   0  0  0  0  0  0  0  0  0  0  0  0
  140.2891   75.6452  218.8873 H   0  0  0  0  0  0  0  0  0  0  0  0
  142.1950   75.9430  221.7070 H   0  0  0  0  0  0  0  0  0  0  0  0
  139.9525   77.0052  223.2146 H   0  0  0  0  0  0  0  0  0  0  0  0
  141.6499   76.7039  223.7947 H   0  0  0  0  0  0  0  0  0  0  0  0
  143.3130   78.2919  222.4362 H   0  0  0  0  0  0  0  0  0  0  0  0
  143.9391   80.7275  222.4698 H   0  0  0  0  0  0  0  0  0  0  0  0
  142.1913   82.3691  223.1457 H   0  0  0  0  0  0  0  0  0  0  0  0
  139.9235   81.6519  223.7661 H   0  0  0  0  0  0  0  0  0  0  0  0
  139.3089   79.2461  223.7373 H   0  0  0  0  0  0  0  0  0  0  0  0
  1  2  1  0
  2  3  1  0
  3  4  1  0
  4  5  1  0
  5  6  1  0
  6  7  2  0
  6  8  1  0
  8  9  1  0
  9 10  1  0
 10 11  2  0
 10 12  1  0
 12 13  2  0
 13 14  1  0
 14 15  2  0
 15 16  1  0
 16 17  2  0
 17 18  1  0
 17 19  1  0
 19 20  2  0
 20 21  1  0
 21 22  2  0
  5 23  1  0
 23 24  1  0
 24 25  2  0
 24 26  1  0
 26 27  1  0
 27 28  1  0
 28 29  2  0
 29 30  1  0
 30 31  2  0
 31 32  1  0
 32 33  2  0
 23  2  1  0
 33 28  1  0
 22 12  1  0
 21 15  1  0
  1 34  1  0
  1 35  1  0
  1 36  1  0
  2 37  1  6
  3 38  1  0
  3 39  1  0
  4 40  1  0
  4 41  1  0
  8 42  1  0
  8 43  1  0
  9 44  1  0
 13 45  1  0
 14 46  1  0
 16 47  1  0
 19 48  1  0
 20 49  1  0
 23 50  1  6
 26 51  1  0
 27 52  1  0
 27 53  1  0
 29 54  1  0
 30 55  1  0
 31 56  1  0
 32 57  1  0
 33 58  1  0
M  END
>  <meeko>  (16) 
{"free_energy": -9.16, "intermolecular_energy": -11.25, "internal_energy": -2.67, "cluster_size": 17, "cluster_id": 1, "rank_in_cluster": 2}

$$$$

     RDKit          3D

 58 61  0  0  0  0  0  0  0  0999 V2000
  142.9390   78.0750  217.9530 C   0  0  0  0  0  0  0  0  0  0  0  0
  141.9000   76.9750  218.0290 C   0  0  1  0  0  0  0  0  0  0  0  0
  142.6720   75.6890  218.2500 C   0  0  0  0  0  0  0  0  0  0  0  0
  142.9170   75.7940  219.7610 C   0  0  0  0  0  0  0  0  0  0  0  0
  141.5390   76.0260  220.1920 N   0  0  0  0  0  0  0  0  0  0  0  0
  140.8310   75.4140  221.2410 C   0  0  0  0  0  0  0  0  0  0  0  0
  141.0340   75.8430  222.4160 O   0  0  0  0  0  0  0  0  0  0  0  0
  139.8950   74.3130  220.9350 C   0  0  0  0  0  0  0  0  0  0  0  0
  139.8110   73.4380  222.0900 N   0  0  0  0  0  0  0  0  0  0  0  0
  140.0190   72.0320  221.9950 C   0  0  0  0  0  0  0  0  0  0  0  0
  140.2870   71.4760  220.8970 O   0  0  0  0  0  0  0  0  0  0  0  0
  139.9120   71.2290  223.2270 C   0  0  0  0  0  0  0  0  0  0  0  0
  139.3270   69.9800  223.1750 C   0  0  0  0  0  0  0  0  0  0  0  0
  139.2460   69.2560  224.3580 C   0  0  0  0  0  0  0  0  0  0  0  0
  139.7250   69.7410  225.5590 C   0  0  0  0  0  0  0  0  0  0  0  0
  139.6500   69.0330  226.7420 C   0  0  0  0  0  0  0  0  0  0  0  0
  140.1510   69.5830  227.9040 C   0  0  0  0  0  0  0  0  0  0  0  0
  140.0830   68.8940  229.0730 F   0  0  0  0  0  0  0  0  0  0  0  0
  140.7370   70.8520  227.9200 C   0  0  0  0  0  0  0  0  0  0  0  0
  140.8070   71.5570  226.7300 C   0  0  0  0  0  0  0  0  0  0  0  0
  140.3000   70.9980  225.5520 C   0  0  0  0  0  0  0  0  0  0  0  0
  140.3770   71.6950  224.4040 N   0  0  0  0  0  0  0  0  0  0  0  0
  141.0490   77.0550  219.2710 C   0  0  1  0  0  0  0  0  0  0  0  0
  141.2100   78.3530  219.9760 C   0  0  0  0  0  0  0  0  0  0  0  0
  140.7620   79.4430  219.5320 O   0  0  0  0  0  0  0  0  0  0  0  0
  141.9260   78.3020  221.2270 N   0  0  0  0  0  0  0  0  0  0  0  0
  142.1570   79.4940  222.0210 C   0  0  0  0  0  0  0  0  0  0  0  0
  140.8990   80.0630  222.5720 C   0  0  0  0  0  0  0  0  0  0  0  0
  140.2960   79.3230  223.5930 C   0  0  0  0  0  0  0  0  0  0  0  0
  139.1110   79.7580  224.1860 C   0  0  0  0  0  0  0  0  0  0  0  0
  138.5760   80.9450  223.7120 C   0  0  0  0  0  0  0  0  0  0  0  0
  139.1740   81.6750  222.7020 C   0  0  0  0  0  0  0  0  0  0  0  0
  140.3410   81.2420  222.1210 C   0  0  0  0  0  0  0  0  0  0  0  0
  143.2262   78.3790  218.9704 H   0  0  0  0  0  0  0  0  0  0  0  0
  143.8255   77.7056  217.4167 H   0  0  0  0  0  0  0  0  0  0  0  0
  142.5197   78.9390  217.4167 H   0  0  0  0  0  0  0  0  0  0  0  0
  141.2790   77.0430  217.1236 H   0  0  0  0  0  0  0  0  0  0  0  0
  142.0740   74.8025  217.9923 H   0  0  0  0  0  0  0  0  0  0  0  0
  143.5781   75.5767  217.6365 H   0  0  0  0  0  0  0  0  0  0  0  0
  143.3304   74.8642  220.1788 H   0  0  0  0  0  0  0  0  0  0  0  0
  143.6482   76.5542  220.0733 H   0  0  0  0  0  0  0  0  0  0  0  0
  138.9002   74.7249  220.7097 H   0  0  0  0  0  0  0  0  0  0  0  0
  140.2542   73.7478  220.0624 H   0  0  0  0  0  0  0  0  0  0  0  0
  139.5890   73.8400  223.0460 H   0  0  0  0  0  0  0  0  0  0  0  0
  138.9385   69.5721  222.2301 H   0  0  0  0  0  0  0  0  0  0  0  0
  138.7827   68.2585  224.3372 H   0  0  0  0  0  0  0  0  0  0  0  0
  139.1920   68.0330  226.7581 H   0  0  0  0  0  0  0  0  0  0  0  0
  141.1322   71.2795  228.8533 H   0  0  0  0  0  0  0  0  0  0  0  0
  141.2621   72.5583  226.7110 H   0  0  0  0  0  0  0  0  0  0  0  0
  139.9957   76.9313  218.9790 H   0  0  0  0  0  0  0  0  0  0  0  0
  142.2990   77.3840  221.5910 H   0  0  0  0  0  0  0  0  0  0  0  0
  142.8241   79.2372  222.8571 H   0  0  0  0  0  0  0  0  0  0  0  0
  142.6070   80.2521  221.3631 H   0  0  0  0  0  0  0  0  0  0  0  0
  140.7617   78.3862  223.9329 H   0  0  0  0  0  0  0  0  0  0  0  0
  138.6249   79.1867  224.9906 H   0  0  0  0  0  0  0  0  0  0  0  0
  137.6418   81.3199  224.1554 H   0  0  0  0  0  0  0  0  0  0  0  0
  138.7107   82.6122  222.3600 H   0  0  0  0  0  0  0  0  0  0  0  0
  140.8188   81.8204  221.3165 H   0  0  0  0  0  0  0  0  0  0  0  0
  1  2  1  0
  2  3  1  0
  3  4  1  0
  4  5  1  0
  5  6  1  0
  6  7  2  0
  6  8  1  0
  8  9  1  0
  9 10  1  0
 10 11  2  0
 10 12  1  0
 12 13  2  0
 13 14  1  0
 14 15  2  0
 15 16  1  0
 16 17  2  0
 17 18  1  0
 17 19  1  0
 19 20  2  0
 20 21  1  0
 21 22  2  0
  5 23  1  0
 23 24  1  0
 24 25  2  0
 24 26  1  0
 26 27  1  0
 27 28  1  0
 28 29  2  0
 29 30  1  0
 30 31  2  0
 31 32  1  0
 32 33  2  0
 23  2  1  0
 33 28  1  0
 22 12  1  0
 21 15  1  0
  1 34  1  0
  1 35  1  0
  1 36  1  0
  2 37  1  6
  3 38  1  0
  3 39  1  0
  4 40  1  0
  4 41  1  0
  8 42  1  0
  8 43  1  0
  9 44  1  0
 13 45  1  0
 14 46  1  0
 16 47  1  0
 19 48  1  0
 20 49  1  0
 23 50  1  6
 26 51  1  0
 27 52  1  0
 27 53  1  0
 29 54  1  0
 30 55  1  0
 31 56  1  0
 32 57  1  0
 33 58  1  0
M  END
>  <meeko>  (17) 
{"free_energy": -8.76, "intermolecular_energy": -10.85, "internal_energy": -2.83, "cluster_size": 17, "cluster_id": 1, "rank_in_cluster": 9}

$$$$

     RDKit          3D

 58 61  0  0  0  0  0  0  0  0999 V2000
  143.2940   74.2100  220.7650 C   0  0  0  0  0  0  0  0  0  0  0  0
  142.3600   74.1500  219.5740 C   0  0  1  0  0  0  0  0  0  0  0  0
  142.3440   72.7000  219.1320 C   0  0  0  0  0  0  0  0  0  0  0  0
  141.3490   72.1320  220.1540 C   0  0  0  0  0  0  0  0  0  0  0  0
  140.2560   73.0810  219.9490 N   0  0  0  0  0  0  0  0  0  0  0  0
  138.8840   72.8200  219.7890 C   0  0  0  0  0  0  0  0  0  0  0  0
  138.5060   72.3180  218.6890 O   0  0  0  0  0  0  0  0  0  0  0  0
  137.9540   73.1370  220.8920 C   0  0  0  0  0  0  0  0  0  0  0  0
  138.5370   72.6790  222.1390 N   0  0  0  0  0  0  0  0  0  0  0  0
  138.8480   71.3100  222.3750 C   0  0  0  0  0  0  0  0  0  0  0  0
  138.6320   70.4240  221.5070 O   0  0  0  0  0  0  0  0  0  0  0  0
  139.4380   70.9460  223.6770 C   0  0  0  0  0  0  0  0  0  0  0  0
  140.3190   71.8150  224.2900 C   0  0  0  0  0  0  0  0  0  0  0  0
  140.8520   71.4340  225.5150 C   0  0  0  0  0  0  0  0  0  0  0  0
  140.5330   70.2360  226.1230 C   0  0  0  0  0  0  0  0  0  0  0  0
  141.0560   69.8450  227.3400 C   0  0  0  0  0  0  0  0  0  0  0  0
  140.6900   68.6320  227.8870 C   0  0  0  0  0  0  0  0  0  0  0  0
  141.1990   68.2390  229.0830 F   0  0  0  0  0  0  0  0  0  0  0  0
  139.7950   67.7770  227.2370 C   0  0  0  0  0  0  0  0  0  0  0  0
  139.2750   68.1750  226.0160 C   0  0  0  0  0  0  0  0  0  0  0  0
  139.6470   69.4060  225.4640 C   0  0  0  0  0  0  0  0  0  0  0  0
  139.1330   69.7780  224.2780 N   0  0  0  0  0  0  0  0  0  0  0  0
  140.9180   74.3880  219.9460 C   0  0  1  0  0  0  0  0  0  0  0  0
  140.7780   74.9280  221.3230 C   0  0  0  0  0  0  0  0  0  0  0  0
  140.5610   74.2060  222.3320 O   0  0  0  0  0  0  0  0  0  0  0  0
  140.9070   76.3590  221.4510 N   0  0  0  0  0  0  0  0  0  0  0  0
  140.7930   77.0210  222.7370 C   0  0  0  0  0  0  0  0  0  0  0  0
  141.4050   78.3760  222.7350 C   0  0  0  0  0  0  0  0  0  0  0  0
  141.6180   78.9420  221.4740 C   0  0  0  0  0  0  0  0  0  0  0  0
  142.1880   80.2080  221.3480 C   0  0  0  0  0  0  0  0  0  0  0  0
  142.5250   80.8610  222.5230 C   0  0  0  0  0  0  0  0  0  0  0  0
  142.3140   80.2990  223.7690 C   0  0  0  0  0  0  0  0  0  0  0  0
  141.7530   79.0500  223.8880 C   0  0  0  0  0  0  0  0  0  0  0  0
  142.7063   74.1722  221.6941 H   0  0  0  0  0  0  0  0  0  0  0  0
  143.9846   73.3544  220.7329 H   0  0  0  0  0  0  0  0  0  0  0  0
  143.8694   75.1470  220.7329 H   0  0  0  0  0  0  0  0  0  0  0  0
  142.7047   74.8973  218.8441 H   0  0  0  0  0  0  0  0  0  0  0  0
  141.9794   72.5900  218.1000 H   0  0  0  0  0  0  0  0  0  0  0  0
  143.3269   72.2065  219.1126 H   0  0  0  0  0  0  0  0  0  0  0  0
  141.0521   71.1006  219.9133 H   0  0  0  0  0  0  0  0  0  0  0  0
  141.7211   72.0500  221.1859 H   0  0  0  0  0  0  0  0  0  0  0  0
  137.7903   74.2238  220.9372 H   0  0  0  0  0  0  0  0  0  0  0  0
  136.9890   72.6366  220.7237 H   0  0  0  0  0  0  0  0  0  0  0  0
  138.7450   73.3730  222.9140 H   0  0  0  0  0  0  0  0  0  0  0  0
  140.5891   72.7746  223.8249 H   0  0  0  0  0  0  0  0  0  0  0  0
  141.5551   72.1127  226.0200 H   0  0  0  0  0  0  0  0  0  0  0  0
  141.7626   70.4989  227.8720 H   0  0  0  0  0  0  0  0  0  0  0  0
  139.5109   66.8127  227.6836 H   0  0  0  0  0  0  0  0  0  0  0  0
  138.5694   67.5231  225.4802 H   0  0  0  0  0  0  0  0  0  0  0  0
  140.4888   75.1064  219.2320 H   0  0  0  0  0  0  0  0  0  0  0  0
  141.0890   76.9560  220.6000 H   0  0  0  0  0  0  0  0  0  0  0  0
  139.7272   77.1155  222.9921 H   0  0  0  0  0  0  0  0  0  0  0  0
  141.3327   76.4111  223.4764 H   0  0  0  0  0  0  0  0  0  0  0  0
  141.3325   78.3819  220.5713 H   0  0  0  0  0  0  0  0  0  0  0  0
  142.3619   80.6665  220.3634 H   0  0  0  0  0  0  0  0  0  0  0  0
  142.9765   81.8622  222.4625 H   0  0  0  0  0  0  0  0  0  0  0  0
  142.5979   80.8571  224.6734 H   0  0  0  0  0  0  0  0  0  0  0  0
  141.5856   78.5989  224.8772 H   0  0  0  0  0  0  0  0  0  0  0  0
  1  2  1  0
  2  3  1  0
  3  4  1  0
  4  5  1  0
  5  6  1  0
  6  7  2  0
  6  8  1  0
  8  9  1  0
  9 10  1  0
 10 11  2  0
 10 12  1  0
 12 13  2  0
 13 14  1  0
 14 15  2  0
 15 16  1  0
 16 17  2  0
 17 18  1  0
 17 19  1  0
 19 20  2  0
 20 21  1  0
 21 22  2  0
  5 23  1  0
 23 24  1  0
 24 25  2  0
 24 26  1  0
 26 27  1  0
 27 28  1  0
 28 29  2  0
 29 30  1  0
 30 31  2  0
 31 32  1  0
 32 33  2  0
 23  2  1  0
 33 28  1  0
 22 12  1  0
 21 15  1  0
  1 34  1  0
  1 35  1  0
  1 36  1  0
  2 37  1  6
  3 38  1  0
  3 39  1  0
  4 40  1  0
  4 41  1  0
  8 42  1  0
  8 43  1  0
  9 44  1  0
 13 45  1  0
 14 46  1  0
 16 47  1  0
 19 48  1  0
 20 49  1  0
 23 50  1  6
 26 51  1  0
 27 52  1  0
 27 53  1  0
 29 54  1  0
 30 55  1  0
 31 56  1  0
 32 57  1  0
 33 58  1  0
M  END
>  <meeko>  (18) 
{"free_energy": -8.82, "intermolecular_energy": -10.91, "internal_energy": -2.58, "cluster_size": 17, "cluster_id": 1, "rank_in_cluster": 8}

$$$$

     RDKit          3D

 58 61  0  0  0  0  0  0  0  0999 V2000
  143.6000   73.9080  220.3910 C   0  0  0  0  0  0  0  0  0  0  0  0
  142.3080   73.2320  219.9780 C   0  0  1  0  0  0  0  0  0  0  0  0
  141.7250   72.6420  221.2480 C   0  0  0  0  0  0  0  0  0  0  0  0
  141.0750   73.9000  221.8400 C   0  0  0  0  0  0  0  0  0  0  0  0
  140.2950   74.3150  220.6750 N   0  0  0  0  0  0  0  0  0  0  0  0
  138.9500   74.7190  220.6170 C   0  0  0  0  0  0  0  0  0  0  0  0
  138.7090   75.9070  220.2500 O   0  0  0  0  0  0  0  0  0  0  0  0
  137.8890   73.7580  220.9820 C   0  0  0  0  0  0  0  0  0  0  0  0
  138.3440   72.9680  222.1110 N   0  0  0  0  0  0  0  0  0  0  0  0
  138.4580   71.5490  222.0500 C   0  0  0  0  0  0  0  0  0  0  0  0
  138.1670   70.9070  221.0060 O   0  0  0  0  0  0  0  0  0  0  0  0
  138.9300   70.8380  223.2520 C   0  0  0  0  0  0  0  0  0  0  0  0
  138.7430   69.4730  223.3510 C   0  0  0  0  0  0  0  0  0  0  0  0
  139.2030   68.8420  224.4990 C   0  0  0  0  0  0  0  0  0  0  0  0
  139.8280   69.5260  225.5230 C   0  0  0  0  0  0  0  0  0  0  0  0
  140.2890   68.9100  226.6710 C   0  0  0  0  0  0  0  0  0  0  0  0
  140.9040   69.6590  227.6520 C   0  0  0  0  0  0  0  0  0  0  0  0
  141.3620   69.0640  228.7840 F   0  0  0  0  0  0  0  0  0  0  0  0
  141.0760   71.0410  227.5170 C   0  0  0  0  0  0  0  0  0  0  0  0
  140.6100   71.6510  226.3650 C   0  0  0  0  0  0  0  0  0  0  0  0
  139.9870   70.8900  225.3700 C   0  0  0  0  0  0  0  0  0  0  0  0
  139.5410   71.4980  224.2570 N   0  0  0  0  0  0  0  0  0  0  0  0
  141.2410   74.2120  219.5610 C   0  0  1  0  0  0  0  0  0  0  0  0
  141.7870   75.5780  219.3520 C   0  0  0  0  0  0  0  0  0  0  0  0
  142.5880   75.8700  218.4250 O   0  0  0  0  0  0  0  0  0  0  0  0
  141.3430   76.5790  220.2900 N   0  0  0  0  0  0  0  0  0  0  0  0
  141.7960   77.9550  220.2060 C   0  0  0  0  0  0  0  0  0  0  0  0
  141.7900   78.6380  221.5270 C   0  0  0  0  0  0  0  0  0  0  0  0
  142.2100   79.9720  221.5210 C   0  0  0  0  0  0  0  0  0  0  0  0
  142.2470   80.7130  222.7000 C   0  0  0  0  0  0  0  0  0  0  0  0
  141.8500   80.0640  223.8580 C   0  0  0  0  0  0  0  0  0  0  0  0
  141.4350   78.7450  223.8620 C   0  0  0  0  0  0  0  0  0  0  0  0
  141.4010   78.0180  222.6960 C   0  0  0  0  0  0  0  0  0  0  0  0
  143.6622   73.9405  221.4888 H   0  0  0  0  0  0  0  0  0  0  0  0
  144.4542   73.3413  219.9920 H   0  0  0  0  0  0  0  0  0  0  0  0
  143.6214   74.9329  219.9920 H   0  0  0  0  0  0  0  0  0  0  0  0
  142.5436   72.5367  219.1588 H   0  0  0  0  0  0  0  0  0  0  0  0
  140.9825   71.8594  221.0331 H   0  0  0  0  0  0  0  0  0  0  0  0
  142.4496   72.1376  221.9042 H   0  0  0  0  0  0  0  0  0  0  0  0
  140.4357   73.6676  222.7045 H   0  0  0  0  0  0  0  0  0  0  0  0
  141.7710   74.6524  222.2394 H   0  0  0  0  0  0  0  0  0  0  0  0
  136.9742   74.3036  221.2568 H   0  0  0  0  0  0  0  0  0  0  0  0
  137.6702   73.0997  220.1283 H   0  0  0  0  0  0  0  0  0  0  0  0
  138.6060   73.4450  223.0210 H   0  0  0  0  0  0  0  0  0  0  0  0
  138.2474   68.9062  222.5490 H   0  0  0  0  0  0  0  0  0  0  0  0
  139.0642   67.7552  224.5966 H   0  0  0  0  0  0  0  0  0  0  0  0
  140.1656   67.8248  226.8019 H   0  0  0  0  0  0  0  0  0  0  0  0
  141.5689   71.6278  228.3061 H   0  0  0  0  0  0  0  0  0  0  0  0
  140.7298   72.7363  226.2317 H   0  0  0  0  0  0  0  0  0  0  0  0
  140.7911   73.8563  218.6223 H   0  0  0  0  0  0  0  0  0  0  0  0
  140.6710   76.3240  221.0640 H   0  0  0  0  0  0  0  0  0  0  0  0
  142.8215   77.9651  219.8083 H   0  0  0  0  0  0  0  0  0  0  0  0
  141.1013   78.4960  219.5467 H   0  0  0  0  0  0  0  0  0  0  0  0
  142.5147   80.4416  220.5741 H   0  0  0  0  0  0  0  0  0  0  0  0
  142.5755   81.7627  222.7111 H   0  0  0  0  0  0  0  0  0  0  0  0
  141.8655   80.6179  224.8082 H   0  0  0  0  0  0  0  0  0  0  0  0
  141.1291   78.2730  224.8074 H   0  0  0  0  0  0  0  0  0  0  0  0
  141.0719   76.9684  222.6952 H   0  0  0  0  0  0  0  0  0  0  0  0
  1  2  1  0
  2  3  1  0
  3  4  1  0
  4  5  1  0
  5  6  1  0
  6  7  2  0
  6  8  1  0
  8  9  1  0
  9 10  1  0
 10 11  2  0
 10 12  1  0
 12 13  2  0
 13 14  1  0
 14 15  2  0
 15 16  1  0
 16 17  2  0
 17 18  1  0
 17 19  1  0
 19 20  2  0
 20 21  1  0
 21 22  2  0
  5 23  1  0
 23 24  1  0
 24 25  2  0
 24 26  1  0
 26 27  1  0
 27 28  1  0
 28 29  2  0
 29 30  1  0
 30 31  2  0
 31 32  1  0
 32 33  2  0
 23  2  1  0
 33 28  1  0
 22 12  1  0
 21 15  1  0
  1 34  1  0
  1 35  1  0
  1 36  1  0
  2 37  1  6
  3 38  1  0
  3 39  1  0
  4 40  1  0
  4 41  1  0
  8 42  1  0
  8 43  1  0
  9 44  1  0
 13 45  1  0
 14 46  1  0
 16 47  1  0
 19 48  1  0
 20 49  1  0
 23 50  1  6
 26 51  1  0
 27 52  1  0
 27 53  1  0
 29 54  1  0
 30 55  1  0
 31 56  1  0
 32 57  1  0
 33 58  1  0
M  END
>  <meeko>  (19) 
{"free_energy": -7.76, "intermolecular_energy": -9.84, "internal_energy": -3.02, "cluster_size": 17, "cluster_id": 1, "rank_in_cluster": 17}

$$$$

     RDKit          3D

 58 61  0  0  0  0  0  0  0  0999 V2000
  142.9820   74.4060  220.7550 C   0  0  0  0  0  0  0  0  0  0  0  0
  142.0340   74.2570  219.5830 C   0  0  1  0  0  0  0  0  0  0  0  0
  142.0650   72.7870  219.2090 C   0  0  0  0  0  0  0  0  0  0  0  0
  141.1060   72.2330  220.2720 C   0  0  0  0  0  0  0  0  0  0  0  0
  139.9760   73.1310  220.0400 N   0  0  0  0  0  0  0  0  0  0  0  0
  138.6130   72.8140  219.9140 C   0  0  0  0  0  0  0  0  0  0  0  0
  138.2200   72.3390  218.8070 O   0  0  0  0  0  0  0  0  0  0  0  0
  137.7080   73.0460  221.0580 C   0  0  0  0  0  0  0  0  0  0  0  0
  138.2480   72.3710  222.2230 N   0  0  0  0  0  0  0  0  0  0  0  0
  138.2260   70.9530  222.3590 C   0  0  0  0  0  0  0  0  0  0  0  0
  137.7340   70.2120  221.4680 O   0  0  0  0  0  0  0  0  0  0  0  0
  138.8000   70.3630  223.5830 C   0  0  0  0  0  0  0  0  0  0  0  0
  138.7310   68.9980  223.7750 C   0  0  0  0  0  0  0  0  0  0  0  0
  139.2840   68.4830  224.9410 C   0  0  0  0  0  0  0  0  0  0  0  0
  139.8880   69.2810  225.8910 C   0  0  0  0  0  0  0  0  0  0  0  0
  140.4420   68.7820  227.0540 C   0  0  0  0  0  0  0  0  0  0  0  0
  141.0300   69.6420  227.9590 C   0  0  0  0  0  0  0  0  0  0  0  0
  141.5770   69.1610  229.1050 F   0  0  0  0  0  0  0  0  0  0  0  0
  141.0830   71.0200  227.7300 C   0  0  0  0  0  0  0  0  0  0  0  0
  140.5250   71.5140  226.5620 C   0  0  0  0  0  0  0  0  0  0  0  0
  139.9290   70.6400  225.6460 C   0  0  0  0  0  0  0  0  0  0  0  0
  139.3930   71.1350  224.5160 N   0  0  0  0  0  0  0  0  0  0  0  0
  140.5900   74.4600  219.9660 C   0  0  1  0  0  0  0  0  0  0  0  0
  140.4500   75.0580  221.3190 C   0  0  0  0  0  0  0  0  0  0  0  0
  140.1390   74.3940  222.3420 O   0  0  0  0  0  0  0  0  0  0  0  0
  140.6940   76.4770  221.4040 N   0  0  0  0  0  0  0  0  0  0  0  0
  140.5930   77.1930  222.6620 C   0  0  0  0  0  0  0  0  0  0  0  0
  141.3080   78.4960  222.6340 C   0  0  0  0  0  0  0  0  0  0  0  0
  141.8130   78.9360  223.8620 C   0  0  0  0  0  0  0  0  0  0  0  0
  142.5010   80.1450  223.9580 C   0  0  0  0  0  0  0  0  0  0  0  0
  142.6530   80.8720  222.7880 C   0  0  0  0  0  0  0  0  0  0  0  0
  142.1520   80.4350  221.5760 C   0  0  0  0  0  0  0  0  0  0  0  0
  141.4740   79.2430  221.4860 C   0  0  0  0  0  0  0  0  0  0  0  0
  142.4188   74.3175  221.6957 H   0  0  0  0  0  0  0  0  0  0  0  0
  143.7473   73.6171  220.7102 H   0  0  0  0  0  0  0  0  0  0  0  0
  143.4684   75.3916  220.7102 H   0  0  0  0  0  0  0  0  0  0  0  0
  142.3406   74.9814  218.8140 H   0  0  0  0  0  0  0  0  0  0  0  0
  141.6902   72.6153  218.1892 H   0  0  0  0  0  0  0  0  0  0  0  0
  143.0649   72.3286  219.1970 H   0  0  0  0  0  0  0  0  0  0  0  0
  140.8438   71.1812  220.0848 H   0  0  0  0  0  0  0  0  0  0  0  0
  141.4953   72.2139  221.3006 H   0  0  0  0  0  0  0  0  0  0  0  0
  137.6326   74.1252  221.2574 H   0  0  0  0  0  0  0  0  0  0  0  0
  136.7062   72.6539  220.8287 H   0  0  0  0  0  0  0  0  0  0  0  0
  138.6770   72.9350  223.0120 H   0  0  0  0  0  0  0  0  0  0  0  0
  138.2553   68.3414  223.0316 H   0  0  0  0  0  0  0  0  0  0  0  0
  139.2386   67.3975  225.1134 H   0  0  0  0  0  0  0  0  0  0  0  0
  140.4145   67.7015  227.2582 H   0  0  0  0  0  0  0  0  0  0  0  0
  141.5557   71.6950  228.4586 H   0  0  0  0  0  0  0  0  0  0  0  0
  140.5505   72.5940  226.3546 H   0  0  0  0  0  0  0  0  0  0  0  0
  140.1248   75.1283  219.2264 H   0  0  0  0  0  0  0  0  0  0  0  0
  140.9540   77.0270  220.5400 H   0  0  0  0  0  0  0  0  0  0  0  0
  139.5305   77.3782  222.8783 H   0  0  0  0  0  0  0  0  0  0  0  0
  141.0614   76.5712  223.4392 H   0  0  0  0  0  0  0  0  0  0  0  0
  141.6657   78.3212  224.7622 H   0  0  0  0  0  0  0  0  0  0  0  0
  142.9038   80.5045  224.9164 H   0  0  0  0  0  0  0  0  0  0  0  0
  143.1913   81.8306  222.8251 H   0  0  0  0  0  0  0  0  0  0  0  0
  142.2975   81.0478  220.6742 H   0  0  0  0  0  0  0  0  0  0  0  0
  141.0738   78.8933  220.5229 H   0  0  0  0  0  0  0  0  0  0  0  0
  1  2  1  0
  2  3  1  0
  3  4  1  0
  4  5  1  0
  5  6  1  0
  6  7  2  0
  6  8  1  0
  8  9  1  0
  9 10  1  0
 10 11  2  0
 10 12  1  0
 12 13  2  0
 13 14  1  0
 14 15  2  0
 15 16  1  0
 16 17  2  0
 17 18  1  0
 17 19  1  0
 19 20  2  0
 20 21  1  0
 21 22  2  0
  5 23  1  0
 23 24  1  0
 24 25  2  0
 24 26  1  0
 26 27  1  0
 27 28  1  0
 28 29  2  0
 29 30  1  0
 30 31  2  0
 31 32  1  0
 32 33  2  0
 23  2  1  0
 33 28  1  0
 22 12  1  0
 21 15  1  0
  1 34  1  0
  1 35  1  0
  1 36  1  0
  2 37  1  6
  3 38  1  0
  3 39  1  0
  4 40  1  0
  4 41  1  0
  8 42  1  0
  8 43  1  0
  9 44  1  0
 13 45  1  0
 14 46  1  0
 16 47  1  0
 19 48  1  0
 20 49  1  0
 23 50  1  6
 26 51  1  0
 27 52  1  0
 27 53  1  0
 29 54  1  0
 30 55  1  0
 31 56  1  0
 32 57  1  0
 33 58  1  0
M  END
>  <meeko>  (20) 
{"free_energy": -8.49, "intermolecular_energy": -10.58, "internal_energy": -2.86, "cluster_size": 17, "cluster_id": 1, "rank_in_cluster": 13}

$$$$
