
     RDKit          3D

 53 55  0  0  0  0  0  0  0  0999 V2000
  139.0430   73.0360  221.8930 C   0  0  0  0  0  0  0  0  0  0  0  0
  140.0170   71.9230  222.2030 C   0  0  0  0  0  0  0  0  0  0  0  0
  141.3300   72.2690  221.5190 C   0  0  0  0  0  0  0  0  0  0  0  0
  140.3250   71.8500  223.6820 C   0  0  0  0  0  0  0  0  0  0  0  0
  139.7180   70.6670  224.3750 C   0  0  2  0  0  0  0  0  0  0  0  0
  138.2540   70.7840  224.3500 N   0  0  0  0  0  0  0  0  0  0  0  0
  137.4130   69.6550  224.4640 C   0  0  0  0  0  0  0  0  0  0  0  0
  138.0010   68.5300  224.5870 O   0  0  0  0  0  0  0  0  0  0  0  0
  135.9570   69.6560  224.4520 C   0  0  0  0  0  0  0  0  0  0  0  0
  135.3020   70.8110  224.9650 N   0  0  0  0  0  0  0  0  0  0  0  0
  134.1660   70.7110  225.8380 C   0  0  0  0  0  0  0  0  0  0  0  0
  133.6810   69.6110  226.1970 O   0  0  0  0  0  0  0  0  0  0  0  0
  133.5490   71.9400  226.3310 C   0  0  0  0  0  0  0  0  0  0  0  0
  132.4110   71.9040  227.1080 C   0  0  0  0  0  0  0  0  0  0  0  0
  131.8220   73.0810  227.5770 C   0  0  0  0  0  0  0  0  0  0  0  0
  132.4150   74.3030  227.2400 C   0  0  0  0  0  0  0  0  0  0  0  0
  131.8750   75.5020  227.6760 C   0  0  0  0  0  0  0  0  0  0  0  0
  132.5070   76.6800  227.3100 C   0  0  0  0  0  0  0  0  0  0  0  0
  131.8670   78.2240  227.8350 Cl  0  0  0  0  0  0  0  0  0  0  0  0
  133.6450   76.7030  226.5320 C   0  0  0  0  0  0  0  0  0  0  0  0
  134.1880   75.4980  226.0930 C   0  0  0  0  0  0  0  0  0  0  0  0
  133.5550   74.3050  226.4580 C   0  0  0  0  0  0  0  0  0  0  0  0
  134.0750   73.1420  226.0370 N   0  0  0  0  0  0  0  0  0  0  0  0
  140.2380   70.4540  225.7330 C   0  0  0  0  0  0  0  0  0  0  0  0
  140.3750   69.1900  226.2750 C   0  0  0  0  0  0  0  0  0  0  0  0
  140.8590   68.9580  227.5440 C   0  0  0  0  0  0  0  0  0  0  0  0
  141.2400   70.0370  228.3470 C   0  0  0  0  0  0  0  0  0  0  0  0
  141.1080   71.3040  227.8170 C   0  0  0  0  0  0  0  0  0  0  0  0
  140.6210   71.5200  226.5430 C   0  0  0  0  0  0  0  0  0  0  0  0
  138.6666   73.4662  222.8328 H   0  0  0  0  0  0  0  0  0  0  0  0
  139.5526   73.8175  221.3103 H   0  0  0  0  0  0  0  0  0  0  0  0
  138.2008   72.6345  221.3103 H   0  0  0  0  0  0  0  0  0  0  0  0
  139.5780   70.9718  221.8677 H   0  0  0  0  0  0  0  0  0  0  0  0
  142.0978   72.4713  222.2802 H   0  0  0  0  0  0  0  0  0  0  0  0
  141.6499   71.4245  220.8909 H   0  0  0  0  0  0  0  0  0  0  0  0
  141.1922   73.1615  220.8909 H   0  0  0  0  0  0  0  0  0  0  0  0
  141.4169   71.8003  223.8056 H   0  0  0  0  0  0  0  0  0  0  0  0
  139.8863   72.7475  224.1425 H   0  0  0  0  0  0  0  0  0  0  0  0
  140.0148   69.7646  223.8204 H   0  0  0  0  0  0  0  0  0  0  0  0
  137.8440   71.7250  224.2360 H   0  0  0  0  0  0  0  0  0  0  0  0
  135.6348   69.5295  223.4079 H   0  0  0  0  0  0  0  0  0  0  0  0
  135.6678   68.8412  225.1320 H   0  0  0  0  0  0  0  0  0  0  0  0
  135.6240   71.7970  224.7250 H   0  0  0  0  0  0  0  0  0  0  0  0
  131.9596   70.9337  227.3627 H   0  0  0  0  0  0  0  0  0  0  0  0
  130.9136   73.0479  228.1965 H   0  0  0  0  0  0  0  0  0  0  0  0
  130.9673   75.5187  228.2971 H   0  0  0  0  0  0  0  0  0  0  0  0
  134.1172   77.6591  226.2620 H   0  0  0  0  0  0  0  0  0  0  0  0
  135.0959   75.4846  225.4721 H   0  0  0  0  0  0  0  0  0  0  0  0
  140.0826   68.3248  225.6618 H   0  0  0  0  0  0  0  0  0  0  0  0
  140.9451   67.9291  227.9233 H   0  0  0  0  0  0  0  0  0  0  0  0
  141.6305   69.8817  229.3636 H   0  0  0  0  0  0  0  0  0  0  0  0
  141.4001   72.1701  228.4291 H   0  0  0  0  0  0  0  0  0  0  0  0
  140.5344   72.5485  226.1627 H   0  0  0  0  0  0  0  0  0  0  0  0
  1  2  1  0
  2  3  1  0
  2  4  1  0
  4  5  1  0
  5  6  1  0
  6  7  1  0
  7  8  2  0
  7  9  1  0
  9 10  1  0
 10 11  1  0
 11 12  2  0
 11 13  1  0
 13 14  2  0
 14 15  1  0
 15 16  2  0
 16 17  1  0
 17 18  2  0
 18 19  1  0
 18 20  1  0
 20 21  2  0
 21 22  1  0
 22 23  2  0
  5 24  1  0
 24 25  2  0
 25 26  1  0
 26 27  2  0
 27 28  1  0
 28 29  2  0
 23 13  1  0
 29 24  1  0
 22 16  1  0
  1 30  1  0
  1 31  1  0
  1 32  1  0
  2 33  1  0
  3 34  1  0
  3 35  1  0
  3 36  1  0
  4 37  1  0
  4 38  1  0
  5 39  1  6
  6 40  1  0
  9 41  1  0
  9 42  1  0
 10 43  1  0
 14 44  1  0
 15 45  1  0
 17 46  1  0
 20 47  1  0
 21 48  1  0
 25 49  1  0
 26 50  1  0
 27 51  1  0
 28 52  1  0
 29 53  1  0
M  END
>  <meeko>  (1) 
{"free_energy": -8.81, "intermolecular_energy": -10.9, "internal_energy": -1.64, "cluster_size": 8, "cluster_id": 2, "rank_in_cluster": 2}

$$$$

     RDKit          3D

 53 55  0  0  0  0  0  0  0  0999 V2000
  142.5230   79.8400  223.3540 C   0  0  0  0  0  0  0  0  0  0  0  0
  141.4250   78.9370  223.8680 C   0  0  0  0  0  0  0  0  0  0  0  0
  140.1000   79.5980  223.5250 C   0  0  0  0  0  0  0  0  0  0  0  0
  141.4220   77.6040  223.1550 C   0  0  0  0  0  0  0  0  0  0  0  0
  140.5780   77.5760  221.9170 C   0  0  2  0  0  0  0  0  0  0  0  0
  140.0960   76.2070  221.6840 N   0  0  0  0  0  0  0  0  0  0  0  0
  138.7770   75.9450  221.2500 C   0  0  0  0  0  0  0  0  0  0  0  0
  138.0320   76.9640  221.0760 O   0  0  0  0  0  0  0  0  0  0  0  0
  138.1980   74.6350  220.9890 C   0  0  0  0  0  0  0  0  0  0  0  0
  138.4100   73.6220  221.9680 N   0  0  0  0  0  0  0  0  0  0  0  0
  139.6870   72.9890  222.1360 C   0  0  0  0  0  0  0  0  0  0  0  0
  140.6870   73.2830  221.4360 O   0  0  0  0  0  0  0  0  0  0  0  0
  139.8330   71.9620  223.1650 C   0  0  0  0  0  0  0  0  0  0  0  0
  139.4540   70.6590  222.9300 C   0  0  0  0  0  0  0  0  0  0  0  0
  139.5930   69.6790  223.9160 C   0  0  0  0  0  0  0  0  0  0  0  0
  140.1290   70.0510  225.1540 C   0  0  0  0  0  0  0  0  0  0  0  0
  140.2910   69.1230  226.1690 C   0  0  0  0  0  0  0  0  0  0  0  0
  140.8270   69.5510  227.3730 C   0  0  0  0  0  0  0  0  0  0  0  0
  141.0530   68.4180  228.6910 Cl  0  0  0  0  0  0  0  0  0  0  0  0
  141.2020   70.8590  227.5970 C   0  0  0  0  0  0  0  0  0  0  0  0
  141.0400   71.7930  226.5760 C   0  0  0  0  0  0  0  0  0  0  0  0
  140.4990   71.3670  225.3580 C   0  0  0  0  0  0  0  0  0  0  0  0
  140.3420   72.2640  224.3730 N   0  0  0  0  0  0  0  0  0  0  0  0
  141.2500   78.1390  220.7370 C   0  0  0  0  0  0  0  0  0  0  0  0
  141.9840   77.3530  219.8680 C   0  0  0  0  0  0  0  0  0  0  0  0
  142.6240   77.8520  218.7540 C   0  0  0  0  0  0  0  0  0  0  0  0
  142.5450   79.2160  218.4630 C   0  0  0  0  0  0  0  0  0  0  0  0
  141.8160   80.0110  219.3240 C   0  0  0  0  0  0  0  0  0  0  0  0
  141.1800   79.4960  220.4360 C   0  0  0  0  0  0  0  0  0  0  0  0
  143.0617   80.2830  224.2046 H   0  0  0  0  0  0  0  0  0  0  0  0
  143.2236   79.2533  222.7417 H   0  0  0  0  0  0  0  0  0  0  0  0
  142.0827   80.6407  222.7417 H   0  0  0  0  0  0  0  0  0  0  0  0
  141.5782   78.7806  224.9460 H   0  0  0  0  0  0  0  0  0  0  0  0
  139.5709   79.8619  224.4526 H   0  0  0  0  0  0  0  0  0  0  0  0
  140.2860   80.5089  222.9371 H   0  0  0  0  0  0  0  0  0  0  0  0
  139.4841   78.9015  222.9371 H   0  0  0  0  0  0  0  0  0  0  0  0
  142.4570   77.3602  222.8734 H   0  0  0  0  0  0  0  0  0  0  0  0
  140.9885   76.8717  223.8519 H   0  0  0  0  0  0  0  0  0  0  0  0
  139.7146   78.2364  222.0855 H   0  0  0  0  0  0  0  0  0  0  0  0
  140.7490   75.4270  221.8550 H   0  0  0  0  0  0  0  0  0  0  0  0
  137.1115   74.7690  220.8816 H   0  0  0  0  0  0  0  0  0  0  0  0
  138.7147   74.2713  220.0886 H   0  0  0  0  0  0  0  0  0  0  0  0
  137.6330   73.2900  222.6150 H   0  0  0  0  0  0  0  0  0  0  0  0
  139.0351   70.3855  221.9503 H   0  0  0  0  0  0  0  0  0  0  0  0
  139.2884   68.6397  223.7237 H   0  0  0  0  0  0  0  0  0  0  0  0
  140.0013   68.0719  226.0231 H   0  0  0  0  0  0  0  0  0  0  0  0
  141.6229   71.1605  228.5676 H   0  0  0  0  0  0  0  0  0  0  0  0
  141.3313   72.8433  226.7243 H   0  0  0  0  0  0  0  0  0  0  0  0
  142.0610   76.2756  220.0761 H   0  0  0  0  0  0  0  0  0  0  0  0
  143.1945   77.1791  218.0969 H   0  0  0  0  0  0  0  0  0  0  0  0
  143.0453   79.6407  217.5802 H   0  0  0  0  0  0  0  0  0  0  0  0
  141.7393   81.0888  219.1178 H   0  0  0  0  0  0  0  0  0  0  0  0
  140.6095   80.1682  221.0938 H   0  0  0  0  0  0  0  0  0  0  0  0
  1  2  1  0
  2  3  1  0
  2  4  1  0
  4  5  1  0
  5  6  1  0
  6  7  1  0
  7  8  2  0
  7  9  1  0
  9 10  1  0
 10 11  1  0
 11 12  2  0
 11 13  1  0
 13 14  2  0
 14 15  1  0
 15 16  2  0
 16 17  1  0
 17 18  2  0
 18 19  1  0
 18 20  1  0
 20 21  2  0
 21 22  1  0
 22 23  2  0
  5 24  1  0
 24 25  2  0
 25 26  1  0
 26 27  2  0
 27 28  1  0
 28 29  2  0
 23 13  1  0
 29 24  1  0
 22 16  1  0
  1 30  1  0
  1 31  1  0
  1 32  1  0
  2 33  1  0
  3 34  1  0
  3 35  1  0
  3 36  1  0
  4 37  1  0
  4 38  1  0
  5 39  1  1
  6 40  1  0
  9 41  1  0
  9 42  1  0
 10 43  1  0
 14 44  1  0
 15 45  1  0
 17 46  1  0
 20 47  1  0
 21 48  1  0
 25 49  1  0
 26 50  1  0
 27 51  1  0
 28 52  1  0
 29 53  1  0
M  END
>  <meeko>  (2) 
{"free_energy": -8.02, "intermolecular_energy": -10.11, "internal_energy": -2.13, "cluster_size": 5, "cluster_id": 1, "rank_in_cluster": 4}

$$$$

     RDKit          3D

 53 55  0  0  0  0  0  0  0  0999 V2000
  140.2620   73.4810  221.7600 C   0  0  0  0  0  0  0  0  0  0  0  0
  139.6040   72.2410  222.3190 C   0  0  0  0  0  0  0  0  0  0  0  0
  139.4230   71.2680  221.1650 C   0  0  0  0  0  0  0  0  0  0  0  0
  140.4960   71.5400  223.3190 C   0  0  0  0  0  0  0  0  0  0  0  0
  139.7580   70.6620  224.2850 C   0  0  2  0  0  0  0  0  0  0  0  0
  138.3140   70.9070  224.1650 N   0  0  0  0  0  0  0  0  0  0  0  0
  137.3770   69.8510  224.1410 C   0  0  0  0  0  0  0  0  0  0  0  0
  137.8590   68.6740  224.2270 O   0  0  0  0  0  0  0  0  0  0  0  0
  135.9310   69.9800  224.0270 C   0  0  0  0  0  0  0  0  0  0  0  0
  135.3310   71.1290  224.6160 N   0  0  0  0  0  0  0  0  0  0  0  0
  135.6530   72.4580  224.1780 C   0  0  0  0  0  0  0  0  0  0  0  0
  136.4790   72.6890  223.2610 O   0  0  0  0  0  0  0  0  0  0  0  0
  134.9930   73.5900  224.8230 C   0  0  0  0  0  0  0  0  0  0  0  0
  135.3410   74.8870  224.5180 C   0  0  0  0  0  0  0  0  0  0  0  0
  134.7090   75.9680  225.1380 C   0  0  0  0  0  0  0  0  0  0  0  0
  133.7080   75.7040  226.0800 C   0  0  0  0  0  0  0  0  0  0  0  0
  133.0470   76.7350  226.7260 C   0  0  0  0  0  0  0  0  0  0  0  0
  132.0650   76.4100  227.6490 C   0  0  0  0  0  0  0  0  0  0  0  0
  131.1970   77.6760  228.4950 Cl  0  0  0  0  0  0  0  0  0  0  0  0
  131.7250   75.1080  227.9460 C   0  0  0  0  0  0  0  0  0  0  0  0
  132.3900   74.0700  227.2960 C   0  0  0  0  0  0  0  0  0  0  0  0
  133.3820   74.3900  226.3640 C   0  0  0  0  0  0  0  0  0  0  0  0
  134.0250   73.3950  225.7360 N   0  0  0  0  0  0  0  0  0  0  0  0
  140.2330   70.7870  225.6700 C   0  0  0  0  0  0  0  0  0  0  0  0
  139.9850   69.8140  226.6200 C   0  0  0  0  0  0  0  0  0  0  0  0
  140.4160   69.9030  227.9260 C   0  0  0  0  0  0  0  0  0  0  0  0
  141.1450   71.0220  228.3390 C   0  0  0  0  0  0  0  0  0  0  0  0
  141.3990   72.0000  227.3990 C   0  0  0  0  0  0  0  0  0  0  0  0
  140.9590   71.8960  226.0950 C   0  0  0  0  0  0  0  0  0  0  0  0
  140.6015   74.1208  222.5878 H   0  0  0  0  0  0  0  0  0  0  0  0
  141.1251   73.1915  221.1426 H   0  0  0  0  0  0  0  0  0  0  0  0
  139.5384   74.0334  221.1426 H   0  0  0  0  0  0  0  0  0  0  0  0
  138.6621   72.5350  222.8052 H   0  0  0  0  0  0  0  0  0  0  0  0
  139.2354   70.2594  221.5618 H   0  0  0  0  0  0  0  0  0  0  0  0
  138.5683   71.5846  220.5491 H   0  0  0  0  0  0  0  0  0  0  0  0
  140.3343   71.2560  220.5491 H   0  0  0  0  0  0  0  0  0  0  0  0
  141.2141   70.9175  222.7650 H   0  0  0  0  0  0  0  0  0  0  0  0
  140.9859   72.3253  223.9134 H   0  0  0  0  0  0  0  0  0  0  0  0
  139.9668   69.6164  224.0145 H   0  0  0  0  0  0  0  0  0  0  0  0
  137.9930   71.8860  224.0890 H   0  0  0  0  0  0  0  0  0  0  0  0
  135.6833   69.9902  222.9553 H   0  0  0  0  0  0  0  0  0  0  0  0
  135.5253   69.1277  224.5918 H   0  0  0  0  0  0  0  0  0  0  0  0
  134.6190   71.0550  225.4030 H   0  0  0  0  0  0  0  0  0  0  0  0
  136.1293   75.0751  223.7742 H   0  0  0  0  0  0  0  0  0  0  0  0
  134.9915   77.0022  224.8916 H   0  0  0  0  0  0  0  0  0  0  0  0
  133.2948   77.7852  226.5123 H   0  0  0  0  0  0  0  0  0  0  0  0
  130.9400   74.8911  228.6855 H   0  0  0  0  0  0  0  0  0  0  0  0
  132.1397   73.0208  227.5117 H   0  0  0  0  0  0  0  0  0  0  0  0
  139.4145   68.9232  226.3182 H   0  0  0  0  0  0  0  0  0  0  0  0
  140.1876   69.0977  228.6397 H   0  0  0  0  0  0  0  0  0  0  0  0
  141.5028   71.1194  229.3746 H   0  0  0  0  0  0  0  0  0  0  0  0
  141.9704   72.8909  227.6986 H   0  0  0  0  0  0  0  0  0  0  0  0
  141.1854   72.7015  225.3809 H   0  0  0  0  0  0  0  0  0  0  0  0
  1  2  1  0
  2  3  1  0
  2  4  1  0
  4  5  1  0
  5  6  1  0
  6  7  1  0
  7  8  2  0
  7  9  1  0
  9 10  1  0
 10 11  1  0
 11 12  2  0
 11 13  1  0
 13 14  2  0
 14 15  1  0
 15 16  2  0
 16 17  1  0
 17 18  2  0
 18 19  1  0
 18 20  1  0
 20 21  2  0
 21 22  1  0
 22 23  2  0
  5 24  1  0
 24 25  2  0
 25 26  1  0
 26 27  2  0
 27 28  1  0
 28 29  2  0
 23 13  1  0
 29 24  1  0
 22 16  1  0
  1 30  1  0
  1 31  1  0
  1 32  1  0
  2 33  1  0
  3 34  1  0
  3 35  1  0
  3 36  1  0
  4 37  1  0
  4 38  1  0
  5 39  1  6
  6 40  1  0
  9 41  1  0
  9 42  1  0
 10 43  1  0
 14 44  1  0
 15 45  1  0
 17 46  1  0
 20 47  1  0
 21 48  1  0
 25 49  1  0
 26 50  1  0
 27 51  1  0
 28 52  1  0
 29 53  1  0
M  END
>  <meeko>  (3) 
{"free_energy": -7.87, "intermolecular_energy": -9.96, "internal_energy": -2.64, "cluster_size": 8, "cluster_id": 2, "rank_in_cluster": 6}

$$$$

     RDKit          3D

 53 55  0  0  0  0  0  0  0  0999 V2000
  142.5750   78.2590  216.8510 C   0  0  0  0  0  0  0  0  0  0  0  0
  142.0350   77.5740  218.0860 C   0  0  0  0  0  0  0  0  0  0  0  0
  143.0900   76.5810  218.5480 C   0  0  0  0  0  0  0  0  0  0  0  0
  141.8520   78.5480  219.2270 C   0  0  0  0  0  0  0  0  0  0  0  0
  141.7150   77.8960  220.5700 C   0  0  2  0  0  0  0  0  0  0  0  0
  140.4900   77.0850  220.5980 N   0  0  0  0  0  0  0  0  0  0  0  0
  140.4840   75.7600  221.0870 C   0  0  0  0  0  0  0  0  0  0  0  0
  141.6030   75.3100  221.4990 O   0  0  0  0  0  0  0  0  0  0  0  0
  139.3330   74.8710  221.1600 C   0  0  0  0  0  0  0  0  0  0  0  0
  139.3540   73.8580  222.1610 N   0  0  0  0  0  0  0  0  0  0  0  0
  140.0640   72.6250  221.9730 C   0  0  0  0  0  0  0  0  0  0  0  0
  140.7020   72.3620  220.9240 O   0  0  0  0  0  0  0  0  0  0  0  0
  140.0480   71.6340  223.0460 C   0  0  0  0  0  0  0  0  0  0  0  0
  139.5350   70.3710  222.8440 C   0  0  0  0  0  0  0  0  0  0  0  0
  139.5190   69.4260  223.8720 C   0  0  0  0  0  0  0  0  0  0  0  0
  140.0390   69.7900  225.1190 C   0  0  0  0  0  0  0  0  0  0  0  0
  140.0510   68.8940  226.1760 C   0  0  0  0  0  0  0  0  0  0  0  0
  140.5790   69.3130  227.3870 C   0  0  0  0  0  0  0  0  0  0  0  0
  140.6190   68.2200  228.7560 Cl  0  0  0  0  0  0  0  0  0  0  0  0
  141.0900   70.5780  227.5780 C   0  0  0  0  0  0  0  0  0  0  0  0
  141.0790   71.4790  226.5160 C   0  0  0  0  0  0  0  0  0  0  0  0
  140.5470   71.0640  225.2900 C   0  0  0  0  0  0  0  0  0  0  0  0
  140.5350   71.9290  224.2650 N   0  0  0  0  0  0  0  0  0  0  0  0
  141.7820   78.8450  221.6910 C   0  0  0  0  0  0  0  0  0  0  0  0
  142.1360   80.1690  221.5100 C   0  0  0  0  0  0  0  0  0  0  0  0
  142.2070   81.0810  222.5410 C   0  0  0  0  0  0  0  0  0  0  0  0
  141.9110   80.6760  223.8450 C   0  0  0  0  0  0  0  0  0  0  0  0
  141.5550   79.3570  224.0380 C   0  0  0  0  0  0  0  0  0  0  0  0
  141.4890   78.4550  222.9950 C   0  0  0  0  0  0  0  0  0  0  0  0
  143.2304   79.0904  217.1498 H   0  0  0  0  0  0  0  0  0  0  0  0
  143.1491   77.5365  216.2523 H   0  0  0  0  0  0  0  0  0  0  0  0
  141.7384   78.6485  216.2523 H   0  0  0  0  0  0  0  0  0  0  0  0
  141.0689   77.1121  217.8346 H   0  0  0  0  0  0  0  0  0  0  0  0
  143.1149   76.5575  219.6475 H   0  0  0  0  0  0  0  0  0  0  0  0
  142.8435   75.5796  218.1654 H   0  0  0  0  0  0  0  0  0  0  0  0
  144.0747   76.8876  218.1654 H   0  0  0  0  0  0  0  0  0  0  0  0
  142.7253   79.2163  219.2546 H   0  0  0  0  0  0  0  0  0  0  0  0
  140.9118   79.0866  219.0376 H   0  0  0  0  0  0  0  0  0  0  0  0
  142.5840   77.2369  220.7126 H   0  0  0  0  0  0  0  0  0  0  0  0
  139.6190   77.5080  220.2390 H   0  0  0  0  0  0  0  0  0  0  0  0
  138.4445   75.4944  221.3390 H   0  0  0  0  0  0  0  0  0  0  0  0
  139.3359   74.3252  220.2050 H   0  0  0  0  0  0  0  0  0  0  0  0
  138.8470   73.9700  223.0900 H   0  0  0  0  0  0  0  0  0  0  0  0
  139.1314   70.1028  221.8565 H   0  0  0  0  0  0  0  0  0  0  0  0
  139.1075   68.4196  223.7054 H   0  0  0  0  0  0  0  0  0  0  0  0
  139.6516   67.8760  226.0569 H   0  0  0  0  0  0  0  0  0  0  0  0
  141.5007   70.8722  228.5551 H   0  0  0  0  0  0  0  0  0  0  0  0
  141.4802   72.4959  226.6384 H   0  0  0  0  0  0  0  0  0  0  0  0
  142.3729   80.5119  220.4920 H   0  0  0  0  0  0  0  0  0  0  0  0
  142.4954   82.1229  222.3381 H   0  0  0  0  0  0  0  0  0  0  0  0
  141.9600   81.3826  224.6867 H   0  0  0  0  0  0  0  0  0  0  0  0
  141.3162   79.0132  225.0552 H   0  0  0  0  0  0  0  0  0  0  0  0
  141.2007   77.4129  223.1972 H   0  0  0  0  0  0  0  0  0  0  0  0
  1  2  1  0
  2  3  1  0
  2  4  1  0
  4  5  1  0
  5  6  1  0
  6  7  1  0
  7  8  2  0
  7  9  1  0
  9 10  1  0
 10 11  1  0
 11 12  2  0
 11 13  1  0
 13 14  2  0
 14 15  1  0
 15 16  2  0
 16 17  1  0
 17 18  2  0
 18 19  1  0
 18 20  1  0
 20 21  2  0
 21 22  1  0
 22 23  2  0
  5 24  1  0
 24 25  2  0
 25 26  1  0
 26 27  2  0
 27 28  1  0
 28 29  2  0
 23 13  1  0
 29 24  1  0
 22 16  1  0
  1 30  1  0
  1 31  1  0
  1 32  1  0
  2 33  1  0
  3 34  1  0
  3 35  1  0
  3 36  1  0
  4 37  1  0
  4 38  1  0
  5 39  1  1
  6 40  1  0
  9 41  1  0
  9 42  1  0
 10 43  1  0
 14 44  1  0
 15 45  1  0
 17 46  1  0
 20 47  1  0
 21 48  1  0
 25 49  1  0
 26 50  1  0
 27 51  1  0
 28 52  1  0
 29 53  1  0
M  END
>  <meeko>  (4) 
{"free_energy": -8.92, "intermolecular_energy": -11.01, "internal_energy": -1.42, "cluster_size": 5, "cluster_id": 1, "rank_in_cluster": 1}

$$$$

     RDKit          3D

 53 55  0  0  0  0  0  0  0  0999 V2000
  143.9710   72.1190  220.4530 C   0  0  0  0  0  0  0  0  0  0  0  0
  144.2480   73.5940  220.6370 C   0  0  0  0  0  0  0  0  0  0  0  0
  145.7560   73.7610  220.7250 C   0  0  0  0  0  0  0  0  0  0  0  0
  143.8100   74.3960  219.4320 C   0  0  0  0  0  0  0  0  0  0  0  0
  143.3360   75.7800  219.7590 C   0  0  2  0  0  0  0  0  0  0  0  0
  142.1800   75.7000  220.6630 N   0  0  0  0  0  0  0  0  0  0  0  0
  140.9350   75.1850  220.2380 C   0  0  0  0  0  0  0  0  0  0  0  0
  140.8740   74.7980  219.0250 O   0  0  0  0  0  0  0  0  0  0  0  0
  139.7300   75.0600  221.0460 C   0  0  0  0  0  0  0  0  0  0  0  0
  139.7320   74.0720  222.0720 N   0  0  0  0  0  0  0  0  0  0  0  0
  140.0280   72.6950  221.7940 C   0  0  0  0  0  0  0  0  0  0  0  0
  140.2970   72.2780  220.6410 O   0  0  0  0  0  0  0  0  0  0  0  0
  140.0190   71.7380  222.8980 C   0  0  0  0  0  0  0  0  0  0  0  0
  139.5260   70.4620  222.7320 C   0  0  0  0  0  0  0  0  0  0  0  0
  139.5170   69.5490  223.7890 C   0  0  0  0  0  0  0  0  0  0  0  0
  140.0230   69.9600  225.0280 C   0  0  0  0  0  0  0  0  0  0  0  0
  140.0410   69.0980  226.1120 C   0  0  0  0  0  0  0  0  0  0  0  0
  140.5550   69.5620  227.3130 C   0  0  0  0  0  0  0  0  0  0  0  0
  140.6010   68.5130  228.7160 Cl  0  0  0  0  0  0  0  0  0  0  0  0
  141.0460   70.8410  227.4670 C   0  0  0  0  0  0  0  0  0  0  0  0
  141.0290   71.7080  226.3770 C   0  0  0  0  0  0  0  0  0  0  0  0
  140.5110   71.2470  225.1620 C   0  0  0  0  0  0  0  0  0  0  0  0
  140.4930   72.0780  224.1100 N   0  0  0  0  0  0  0  0  0  0  0  0
  143.0600   76.6010  218.5720 C   0  0  0  0  0  0  0  0  0  0  0  0
  143.3140   76.1450  217.2920 C   0  0  0  0  0  0  0  0  0  0  0  0
  143.0660   76.8910  216.1600 C   0  0  0  0  0  0  0  0  0  0  0  0
  142.5300   78.1760  216.2820 C   0  0  0  0  0  0  0  0  0  0  0  0
  142.2720   78.6420  217.5550 C   0  0  0  0  0  0  0  0  0  0  0  0
  142.5260   77.8820  218.6790 C   0  0  0  0  0  0  0  0  0  0  0  0
  143.8805   71.6373  221.4378 H   0  0  0  0  0  0  0  0  0  0  0  0
  143.0328   71.9891  219.8937 H   0  0  0  0  0  0  0  0  0  0  0  0
  144.7982   71.6576  219.8937 H   0  0  0  0  0  0  0  0  0  0  0  0
  143.7088   73.9421  221.5303 H   0  0  0  0  0  0  0  0  0  0  0  0
  146.0601   73.7947  221.7816 H   0  0  0  0  0  0  0  0  0  0  0  0
  146.2485   72.9119  220.2286 H   0  0  0  0  0  0  0  0  0  0  0  0
  146.0508   74.6973  220.2286 H   0  0  0  0  0  0  0  0  0  0  0  0
  144.6628   74.4767  218.7419 H   0  0  0  0  0  0  0  0  0  0  0  0
  142.9552   73.8636  218.9895 H   0  0  0  0  0  0  0  0  0  0  0  0
  144.1571   76.3027  220.2715 H   0  0  0  0  0  0  0  0  0  0  0  0
  142.2960   76.0420  221.6310 H   0  0  0  0  0  0  0  0  0  0  0  0
  139.5507   76.0338  221.5251 H   0  0  0  0  0  0  0  0  0  0  0  0
  138.9499   74.7349  220.3419 H   0  0  0  0  0  0  0  0  0  0  0  0
  139.5160   74.3100  223.0870 H   0  0  0  0  0  0  0  0  0  0  0  0
  139.1330   70.1574  221.7508 H   0  0  0  0  0  0  0  0  0  0  0  0
  139.1219   68.5317  223.6513 H   0  0  0  0  0  0  0  0  0  0  0  0
  139.6571   68.0711  226.0222 H   0  0  0  0  0  0  0  0  0  0  0  0
  141.4455   71.1721  228.4369 H   0  0  0  0  0  0  0  0  0  0  0  0
  141.4149   72.7339  226.4696 H   0  0  0  0  0  0  0  0  0  0  0  0
  143.7352   75.1361  217.1709 H   0  0  0  0  0  0  0  0  0  0  0  0
  143.2888   76.4771  215.1655 H   0  0  0  0  0  0  0  0  0  0  0  0
  142.3214   78.7933  215.3957 H   0  0  0  0  0  0  0  0  0  0  0  0
  141.8507   79.6507  217.6779 H   0  0  0  0  0  0  0  0  0  0  0  0
  142.3031   78.2948  219.6739 H   0  0  0  0  0  0  0  0  0  0  0  0
  1  2  1  0
  2  3  1  0
  2  4  1  0
  4  5  1  0
  5  6  1  0
  6  7  1  0
  7  8  2  0
  7  9  1  0
  9 10  1  0
 10 11  1  0
 11 12  2  0
 11 13  1  0
 13 14  2  0
 14 15  1  0
 15 16  2  0
 16 17  1  0
 17 18  2  0
 18 19  1  0
 18 20  1  0
 20 21  2  0
 21 22  1  0
 22 23  2  0
  5 24  1  0
 24 25  2  0
 25 26  1  0
 26 27  2  0
 27 28  1  0
 28 29  2  0
 23 13  1  0
 29 24  1  0
 22 16  1  0
  1 30  1  0
  1 31  1  0
  1 32  1  0
  2 33  1  0
  3 34  1  0
  3 35  1  0
  3 36  1  0
  4 37  1  0
  4 38  1  0
  5 39  1  1
  6 40  1  0
  9 41  1  0
  9 42  1  0
 10 43  1  0
 14 44  1  0
 15 45  1  0
 17 46  1  0
 20 47  1  0
 21 48  1  0
 25 49  1  0
 26 50  1  0
 27 51  1  0
 28 52  1  0
 29 53  1  0
M  END
>  <meeko>  (5) 
{"free_energy": -8.37, "intermolecular_energy": -10.46, "internal_energy": -1.86, "cluster_size": 3, "cluster_id": 3, "rank_in_cluster": 1}

$$$$

     RDKit          3D

 53 55  0  0  0  0  0  0  0  0999 V2000
  142.7810   76.1590  217.1880 C   0  0  0  0  0  0  0  0  0  0  0  0
  143.2950   76.9990  218.3350 C   0  0  0  0  0  0  0  0  0  0  0  0
  142.5520   78.3250  218.2910 C   0  0  0  0  0  0  0  0  0  0  0  0
  142.9600   76.3780  219.6730 C   0  0  0  0  0  0  0  0  0  0  0  0
  142.6520   74.9130  219.6060 C   0  0  2  0  0  0  0  0  0  0  0  0
  141.5230   74.6090  220.4960 N   0  0  0  0  0  0  0  0  0  0  0  0
  140.2370   75.1530  220.2830 C   0  0  0  0  0  0  0  0  0  0  0  0
  140.1160   75.9250  219.2760 O   0  0  0  0  0  0  0  0  0  0  0  0
  139.0540   74.9190  221.0980 C   0  0  0  0  0  0  0  0  0  0  0  0
  139.1470   73.9240  222.1130 N   0  0  0  0  0  0  0  0  0  0  0  0
  139.7920   72.6640  221.8780 C   0  0  0  0  0  0  0  0  0  0  0  0
  140.3050   72.3600  220.7740 O   0  0  0  0  0  0  0  0  0  0  0  0
  139.8560   71.6930  222.9680 C   0  0  0  0  0  0  0  0  0  0  0  0
  139.4060   70.4020  222.8010 C   0  0  0  0  0  0  0  0  0  0  0  0
  139.4670   69.4760  223.8450 C   0  0  0  0  0  0  0  0  0  0  0  0
  139.9990   69.8900  225.0720 C   0  0  0  0  0  0  0  0  0  0  0  0
  140.0850   69.0170  226.1430 C   0  0  0  0  0  0  0  0  0  0  0  0
  140.6210   69.4850  227.3320 C   0  0  0  0  0  0  0  0  0  0  0  0
  140.7540   68.4220  228.7190 Cl  0  0  0  0  0  0  0  0  0  0  0  0
  141.0680   70.7790  227.4890 C   0  0  0  0  0  0  0  0  0  0  0  0
  140.9820   71.6590  226.4110 C   0  0  0  0  0  0  0  0  0  0  0  0
  140.4420   71.1930  225.2080 C   0  0  0  0  0  0  0  0  0  0  0  0
  140.3570   72.0360  224.1680 N   0  0  0  0  0  0  0  0  0  0  0  0
  143.8180   74.0570  219.8700 C   0  0  0  0  0  0  0  0  0  0  0  0
  144.9450   74.5330  220.5110 C   0  0  0  0  0  0  0  0  0  0  0  0
  146.0530   73.7560  220.7730 C   0  0  0  0  0  0  0  0  0  0  0  0
  146.0640   72.4140  220.3820 C   0  0  0  0  0  0  0  0  0  0  0  0
  144.9430   71.9270  219.7410 C   0  0  0  0  0  0  0  0  0  0  0  0
  143.8420   72.7190  219.4860 C   0  0  0  0  0  0  0  0  0  0  0  0
  142.2456   75.2841  217.5854 H   0  0  0  0  0  0  0  0  0  0  0  0
  142.0956   76.7596  216.5720 H   0  0  0  0  0  0  0  0  0  0  0  0
  143.6278   75.8221  216.5720 H   0  0  0  0  0  0  0  0  0  0  0  0
  144.3860   77.0968  218.2344 H   0  0  0  0  0  0  0  0  0  0  0  0
  142.3582   78.6709  219.3170 H   0  0  0  0  0  0  0  0  0  0  0  0
  143.1637   79.0707  217.7621 H   0  0  0  0  0  0  0  0  0  0  0  0
  141.5967   78.1926  217.7621 H   0  0  0  0  0  0  0  0  0  0  0  0
  143.8192   76.5203  220.3450 H   0  0  0  0  0  0  0  0  0  0  0  0
  142.0500   76.8778  220.0365 H   0  0  0  0  0  0  0  0  0  0  0  0
  142.3648   74.6777  218.5706 H   0  0  0  0  0  0  0  0  0  0  0  0
  141.6940   73.9840  221.3000 H   0  0  0  0  0  0  0  0  0  0  0  0
  138.7978   75.8693  221.5892 H   0  0  0  0  0  0  0  0  0  0  0  0
  138.2982   74.5369  220.3960 H   0  0  0  0  0  0  0  0  0  0  0  0
  138.7450   74.0710  223.0870 H   0  0  0  0  0  0  0  0  0  0  0  0
  138.9917   70.0951  221.8293 H   0  0  0  0  0  0  0  0  0  0  0  0
  139.1057   68.4463  223.7064 H   0  0  0  0  0  0  0  0  0  0  0  0
  139.7365   67.9776  226.0524 H   0  0  0  0  0  0  0  0  0  0  0  0
  141.4863   71.1126  228.4501 H   0  0  0  0  0  0  0  0  0  0  0  0
  141.3315   72.6978  226.5047 H   0  0  0  0  0  0  0  0  0  0  0  0
  144.9591   75.5860  220.8287 H   0  0  0  0  0  0  0  0  0  0  0  0
  146.9236   74.1895  221.2869 H   0  0  0  0  0  0  0  0  0  0  0  0
  146.9339   71.7699  220.5780 H   0  0  0  0  0  0  0  0  0  0  0  0
  144.9266   70.8740  219.4232 H   0  0  0  0  0  0  0  0  0  0  0  0
  142.9708   72.2869  218.9719 H   0  0  0  0  0  0  0  0  0  0  0  0
  1  2  1  0
  2  3  1  0
  2  4  1  0
  4  5  1  0
  5  6  1  0
  6  7  1  0
  7  8  2  0
  7  9  1  0
  9 10  1  0
 10 11  1  0
 11 12  2  0
 11 13  1  0
 13 14  2  0
 14 15  1  0
 15 16  2  0
 16 17  1  0
 17 18  2  0
 18 19  1  0
 18 20  1  0
 20 21  2  0
 21 22  1  0
 22 23  2  0
  5 24  1  0
 24 25  2  0
 25 26  1  0
 26 27  2  0
 27 28  1  0
 28 29  2  0
 23 13  1  0
 29 24  1  0
 22 16  1  0
  1 30  1  0
  1 31  1  0
  1 32  1  0
  2 33  1  0
  3 34  1  0
  3 35  1  0
  3 36  1  0
  4 37  1  0
  4 38  1  0
  5 39  1  6
  6 40  1  0
  9 41  1  0
  9 42  1  0
 10 43  1  0
 14 44  1  0
 15 45  1  0
 17 46  1  0
 20 47  1  0
 21 48  1  0
 25 49  1  0
 26 50  1  0
 27 51  1  0
 28 52  1  0
 29 53  1  0
M  END
>  <meeko>  (6) 
{"free_energy": -8.08, "intermolecular_energy": -10.17, "internal_energy": -2.16, "cluster_size": 1, "cluster_id": 5, "rank_in_cluster": 1}

$$$$

     RDKit          3D

 53 55  0  0  0  0  0  0  0  0999 V2000
  135.3640   69.7030  225.3160 C   0  0  0  0  0  0  0  0  0  0  0  0
  135.9110   70.1090  223.9660 C   0  0  0  0  0  0  0  0  0  0  0  0
  135.8580   71.6270  223.8970 C   0  0  0  0  0  0  0  0  0  0  0  0
  137.3700   69.7360  223.8230 C   0  0  0  0  0  0  0  0  0  0  0  0
  138.3050   70.6280  224.5830 C   0  0  2  0  0  0  0  0  0  0  0  0
  139.0000   71.5220  223.6460 N   0  0  0  0  0  0  0  0  0  0  0  0
  139.8250   71.0240  222.6140 C   0  0  0  0  0  0  0  0  0  0  0  0
  139.9340   69.7560  222.5460 O   0  0  0  0  0  0  0  0  0  0  0  0
  140.5560   71.8150  221.6340 C   0  0  0  0  0  0  0  0  0  0  0  0
  140.5440   73.2300  221.7990 N   0  0  0  0  0  0  0  0  0  0  0  0
  139.3180   73.9640  221.9320 C   0  0  0  0  0  0  0  0  0  0  0  0
  138.1910   73.4130  221.9090 O   0  0  0  0  0  0  0  0  0  0  0  0
  139.3830   75.4140  222.1050 C   0  0  0  0  0  0  0  0  0  0  0  0
  138.3070   76.1220  222.5940 C   0  0  0  0  0  0  0  0  0  0  0  0
  138.3710   77.5090  222.7570 C   0  0  0  0  0  0  0  0  0  0  0  0
  139.5580   78.1650  222.4110 C   0  0  0  0  0  0  0  0  0  0  0  0
  139.6790   79.5380  222.5520 C   0  0  0  0  0  0  0  0  0  0  0  0
  140.8790   80.1320  222.1930 C   0  0  0  0  0  0  0  0  0  0  0  0
  141.0870   81.8650  222.3500 Cl  0  0  0  0  0  0  0  0  0  0  0  0
  141.9490   79.4130  221.7040 C   0  0  0  0  0  0  0  0  0  0  0  0
  141.8270   78.0320  221.5630 C   0  0  0  0  0  0  0  0  0  0  0  0
  140.6190   77.4260  221.9230 C   0  0  0  0  0  0  0  0  0  0  0  0
  140.4970   76.0970  221.7890 N   0  0  0  0  0  0  0  0  0  0  0  0
  139.2380   69.8940  225.4500 C   0  0  0  0  0  0  0  0  0  0  0  0
  139.1880   68.5190  225.5820 C   0  0  0  0  0  0  0  0  0  0  0  0
  140.0490   67.8040  226.3870 C   0  0  0  0  0  0  0  0  0  0  0  0
  141.0330   68.4760  227.1170 C   0  0  0  0  0  0  0  0  0  0  0  0
  141.0930   69.8490  226.9930 C   0  0  0  0  0  0  0  0  0  0  0  0
  140.2220   70.5510  226.1830 C   0  0  0  0  0  0  0  0  0  0  0  0
  135.9748   70.1564  226.1105 H   0  0  0  0  0  0  0  0  0  0  0  0
  134.3243   70.0498  225.4097 H   0  0  0  0  0  0  0  0  0  0  0  0
  135.3949   68.6074  225.4097 H   0  0  0  0  0  0  0  0  0  0  0  0
  135.3215   69.6073  223.1845 H   0  0  0  0  0  0  0  0  0  0  0  0
  135.8436   72.0401  224.9164 H   0  0  0  0  0  0  0  0  0  0  0  0
  136.7436   72.0009  223.3624 H   0  0  0  0  0  0  0  0  0  0  0  0
  134.9484   71.9382  223.3624 H   0  0  0  0  0  0  0  0  0  0  0  0
  137.5011   68.7065  224.1877 H   0  0  0  0  0  0  0  0  0  0  0  0
  137.6230   69.8436  222.7579 H   0  0  0  0  0  0  0  0  0  0  0  0
  137.7016   71.2341  225.2747 H   0  0  0  0  0  0  0  0  0  0  0  0
  138.8760   72.5400  223.7650 H   0  0  0  0  0  0  0  0  0  0  0  0
  141.6058   71.4877  221.6613 H   0  0  0  0  0  0  0  0  0  0  0  0
  140.0361   71.6365  220.6812 H   0  0  0  0  0  0  0  0  0  0  0  0
  141.4400   73.8030  221.8300 H   0  0  0  0  0  0  0  0  0  0  0  0
  137.3832   75.5876  222.8603 H   0  0  0  0  0  0  0  0  0  0  0  0
  137.5098   78.0709  223.1475 H   0  0  0  0  0  0  0  0  0  0  0  0
  138.8444   80.1412  222.9388 H   0  0  0  0  0  0  0  0  0  0  0  0
  142.8848   79.9218  221.4293 H   0  0  0  0  0  0  0  0  0  0  0  0
  142.6634   77.4310  221.1766 H   0  0  0  0  0  0  0  0  0  0  0  0
  138.4227   67.9675  225.0162 H   0  0  0  0  0  0  0  0  0  0  0  0
  139.9618   66.7095  226.4544 H   0  0  0  0  0  0  0  0  0  0  0  0
  141.7337   67.9307  227.7664 H   0  0  0  0  0  0  0  0  0  0  0  0
  141.8587   70.4018  227.5570 H   0  0  0  0  0  0  0  0  0  0  0  0
  140.3072   71.6457  226.1162 H   0  0  0  0  0  0  0  0  0  0  0  0
  1  2  1  0
  2  3  1  0
  2  4  1  0
  4  5  1  0
  5  6  1  0
  6  7  1  0
  7  8  2  0
  7  9  1  0
  9 10  1  0
 10 11  1  0
 11 12  2  0
 11 13  1  0
 13 14  2  0
 14 15  1  0
 15 16  2  0
 16 17  1  0
 17 18  2  0
 18 19  1  0
 18 20  1  0
 20 21  2  0
 21 22  1  0
 22 23  2  0
  5 24  1  0
 24 25  2  0
 25 26  1  0
 26 27  2  0
 27 28  1  0
 28 29  2  0
 23 13  1  0
 29 24  1  0
 22 16  1  0
  1 30  1  0
  1 31  1  0
  1 32  1  0
  2 33  1  0
  3 34  1  0
  3 35  1  0
  3 36  1  0
  4 37  1  0
  4 38  1  0
  5 39  1  1
  6 40  1  0
  9 41  1  0
  9 42  1  0
 10 43  1  0
 14 44  1  0
 15 45  1  0
 17 46  1  0
 20 47  1  0
 21 48  1  0
 25 49  1  0
 26 50  1  0
 27 51  1  0
 28 52  1  0
 29 53  1  0
M  END
>  <meeko>  (7) 
{"free_energy": -7.03, "intermolecular_energy": -9.12, "internal_energy": -2.47, "cluster_size": 1, "cluster_id": 6, "rank_in_cluster": 1}

$$$$

     RDKit          3D

 53 55  0  0  0  0  0  0  0  0999 V2000
  140.1760   73.5650  221.8980 C   0  0  0  0  0  0  0  0  0  0  0  0
  139.5550   72.2690  222.3680 C   0  0  0  0  0  0  0  0  0  0  0  0
  139.4360   71.3600  221.1550 C   0  0  0  0  0  0  0  0  0  0  0  0
  140.4530   71.5450  223.3450 C   0  0  0  0  0  0  0  0  0  0  0  0
  139.7210   70.6520  224.3010 C   0  0  2  0  0  0  0  0  0  0  0  0
  138.2770   70.9030  224.1970 N   0  0  0  0  0  0  0  0  0  0  0  0
  137.3270   69.8700  224.3560 C   0  0  0  0  0  0  0  0  0  0  0  0
  137.7970   68.7090  224.5920 O   0  0  0  0  0  0  0  0  0  0  0  0
  135.8800   70.0060  224.2740 C   0  0  0  0  0  0  0  0  0  0  0  0
  135.3020   71.1780  224.8400 N   0  0  0  0  0  0  0  0  0  0  0  0
  135.5870   72.4870  224.3220 C   0  0  0  0  0  0  0  0  0  0  0  0
  136.3590   72.6790  223.3510 O   0  0  0  0  0  0  0  0  0  0  0  0
  134.9530   73.6440  224.9490 C   0  0  0  0  0  0  0  0  0  0  0  0
  135.3210   74.9280  224.6130 C   0  0  0  0  0  0  0  0  0  0  0  0
  134.7140   76.0330  225.2150 C   0  0  0  0  0  0  0  0  0  0  0  0
  133.7180   75.8060  226.1720 C   0  0  0  0  0  0  0  0  0  0  0  0
  133.0810   76.8630  226.8010 C   0  0  0  0  0  0  0  0  0  0  0  0
  132.1020   76.5750  227.7400 C   0  0  0  0  0  0  0  0  0  0  0  0
  131.2640   77.8740  228.5660 Cl  0  0  0  0  0  0  0  0  0  0  0  0
  131.7420   75.2860  228.0690 C   0  0  0  0  0  0  0  0  0  0  0  0
  132.3830   74.2230  227.4350 C   0  0  0  0  0  0  0  0  0  0  0  0
  133.3720   74.5060  226.4870 C   0  0  0  0  0  0  0  0  0  0  0  0
  133.9900   73.4850  225.8750 N   0  0  0  0  0  0  0  0  0  0  0  0
  140.2070   70.7540  225.6850 C   0  0  0  0  0  0  0  0  0  0  0  0
  139.9820   69.7560  226.6150 C   0  0  0  0  0  0  0  0  0  0  0  0
  140.4240   69.8220  227.9180 C   0  0  0  0  0  0  0  0  0  0  0  0
  141.1400   70.9420  228.3500 C   0  0  0  0  0  0  0  0  0  0  0  0
  141.3710   71.9450  227.4300 C   0  0  0  0  0  0  0  0  0  0  0  0
  140.9200   71.8630  226.1280 C   0  0  0  0  0  0  0  0  0  0  0  0
  140.4659   74.1700  222.7697 H   0  0  0  0  0  0  0  0  0  0  0  0
  141.0669   73.3458  221.2912 H   0  0  0  0  0  0  0  0  0  0  0  0
  139.4470   74.1220  221.2912 H   0  0  0  0  0  0  0  0  0  0  0  0
  138.5921   72.4973  222.8484 H   0  0  0  0  0  0  0  0  0  0  0  0
  139.2999   70.3204  221.4878 H   0  0  0  0  0  0  0  0  0  0  0  0
  138.5705   71.6676  220.5498 H   0  0  0  0  0  0  0  0  0  0  0  0
  140.3516   71.4344  220.5498 H   0  0  0  0  0  0  0  0  0  0  0  0
  141.1627   70.9302  222.7720 H   0  0  0  0  0  0  0  0  0  0  0  0
  140.9522   72.3165  223.9496 H   0  0  0  0  0  0  0  0  0  0  0  0
  139.9252   69.6107  224.0111 H   0  0  0  0  0  0  0  0  0  0  0  0
  137.9650   71.8660  223.9930 H   0  0  0  0  0  0  0  0  0  0  0  0
  135.6056   69.9832  223.2090 H   0  0  0  0  0  0  0  0  0  0  0  0
  135.4833   69.1756  224.8766 H   0  0  0  0  0  0  0  0  0  0  0  0
  134.6350   71.1370  225.6680 H   0  0  0  0  0  0  0  0  0  0  0  0
  136.1056   75.0860  223.8584 H   0  0  0  0  0  0  0  0  0  0  0  0
  135.0116   77.0566  224.9435 H   0  0  0  0  0  0  0  0  0  0  0  0
  133.3448   77.9038  226.5619 H   0  0  0  0  0  0  0  0  0  0  0  0
  130.9608   75.0989  228.8204 H   0  0  0  0  0  0  0  0  0  0  0  0
  132.1167   73.1831  227.6751 H   0  0  0  0  0  0  0  0  0  0  0  0
  139.4216   68.8640  226.2984 H   0  0  0  0  0  0  0  0  0  0  0  0
  140.2145   68.9973  228.6151 H   0  0  0  0  0  0  0  0  0  0  0  0
  141.5057   71.0213  229.3844 H   0  0  0  0  0  0  0  0  0  0  0  0
  141.9320   72.8374  227.7443 H   0  0  0  0  0  0  0  0  0  0  0  0
  141.1277   72.6874  225.4300 H   0  0  0  0  0  0  0  0  0  0  0  0
  1  2  1  0
  2  3  1  0
  2  4  1  0
  4  5  1  0
  5  6  1  0
  6  7  1  0
  7  8  2  0
  7  9  1  0
  9 10  1  0
 10 11  1  0
 11 12  2  0
 11 13  1  0
 13 14  2  0
 14 15  1  0
 15 16  2  0
 16 17  1  0
 17 18  2  0
 18 19  1  0
 18 20  1  0
 20 21  2  0
 21 22  1  0
 22 23  2  0
  5 24  1  0
 24 25  2  0
 25 26  1  0
 26 27  2  0
 27 28  1  0
 28 29  2  0
 23 13  1  0
 29 24  1  0
 22 16  1  0
  1 30  1  0
  1 31  1  0
  1 32  1  0
  2 33  1  0
  3 34  1  0
  3 35  1  0
  3 36  1  0
  4 37  1  0
  4 38  1  0
  5 39  1  6
  6 40  1  0
  9 41  1  0
  9 42  1  0
 10 43  1  0
 14 44  1  0
 15 45  1  0
 17 46  1  0
 20 47  1  0
 21 48  1  0
 25 49  1  0
 26 50  1  0
 27 51  1  0
 28 52  1  0
 29 53  1  0
M  END
>  <meeko>  (8) 
{"free_energy": -7.84, "intermolecular_energy": -9.92, "internal_energy": -2.64, "cluster_size": 8, "cluster_id": 2, "rank_in_cluster": 7}

$$$$

     RDKit          3D

 53 55  0  0  0  0  0  0  0  0999 V2000
  140.2230   73.4800  221.7380 C   0  0  0  0  0  0  0  0  0  0  0  0
  139.5820   72.2550  222.3480 C   0  0  0  0  0  0  0  0  0  0  0  0
  139.4130   71.2340  221.2350 C   0  0  0  0  0  0  0  0  0  0  0  0
  140.4850   71.6080  223.3740 C   0  0  0  0  0  0  0  0  0  0  0  0
  139.7730   70.6850  224.3170 C   0  0  2  0  0  0  0  0  0  0  0  0
  138.3240   70.9120  224.2250 N   0  0  0  0  0  0  0  0  0  0  0  0
  137.3990   69.8460  224.2500 C   0  0  0  0  0  0  0  0  0  0  0  0
  137.8950   68.6760  224.3540 O   0  0  0  0  0  0  0  0  0  0  0  0
  135.9490   69.9570  224.1670 C   0  0  0  0  0  0  0  0  0  0  0  0
  135.3510   71.1220  224.7280 N   0  0  0  0  0  0  0  0  0  0  0  0
  135.6430   72.4360  224.2290 C   0  0  0  0  0  0  0  0  0  0  0  0
  136.4390   72.6400  223.2800 O   0  0  0  0  0  0  0  0  0  0  0  0
  134.9880   73.5840  224.8500 C   0  0  0  0  0  0  0  0  0  0  0  0
  135.3390   74.8730  224.5140 C   0  0  0  0  0  0  0  0  0  0  0  0
  134.7110   75.9700  225.1100 C   0  0  0  0  0  0  0  0  0  0  0  0
  133.7110   75.7300  226.0600 C   0  0  0  0  0  0  0  0  0  0  0  0
  133.0540   76.7780  226.6830 C   0  0  0  0  0  0  0  0  0  0  0  0
  132.0730   76.4770  227.6150 C   0  0  0  0  0  0  0  0  0  0  0  0
  131.2100   77.7650  228.4330 Cl  0  0  0  0  0  0  0  0  0  0  0  0
  131.7300   75.1840  227.9430 C   0  0  0  0  0  0  0  0  0  0  0  0
  132.3910   74.1290  227.3160 C   0  0  0  0  0  0  0  0  0  0  0  0
  133.3820   74.4250  226.3750 C   0  0  0  0  0  0  0  0  0  0  0  0
  134.0210   73.4130  225.7690 N   0  0  0  0  0  0  0  0  0  0  0  0
  140.2650   70.7680  225.7000 C   0  0  0  0  0  0  0  0  0  0  0  0
  140.9370   71.8790  226.1720 C   0  0  0  0  0  0  0  0  0  0  0  0
  141.4090   71.9860  227.4630 C   0  0  0  0  0  0  0  0  0  0  0  0
  141.2120   70.9340  228.3610 C   0  0  0  0  0  0  0  0  0  0  0  0
  140.5410   69.8200  227.9010 C   0  0  0  0  0  0  0  0  0  0  0  0
  140.0740   69.7280  226.6050 C   0  0  0  0  0  0  0  0  0  0  0  0
  140.5726   74.1482  222.5388 H   0  0  0  0  0  0  0  0  0  0  0  0
  141.0773   73.1754  221.1156 H   0  0  0  0  0  0  0  0  0  0  0  0
  139.4857   74.0082  221.1156 H   0  0  0  0  0  0  0  0  0  0  0  0
  138.6365   72.5552  222.8233 H   0  0  0  0  0  0  0  0  0  0  0  0
  139.2482   70.2384  221.6727 H   0  0  0  0  0  0  0  0  0  0  0  0
  138.5481   71.5090  220.6134 H   0  0  0  0  0  0  0  0  0  0  0  0
  140.3203   71.2157  220.6134 H   0  0  0  0  0  0  0  0  0  0  0  0
  141.2560   71.0315  222.8418 H   0  0  0  0  0  0  0  0  0  0  0  0
  140.9086   72.4204  223.9828 H   0  0  0  0  0  0  0  0  0  0  0  0
  139.9934   69.6531  224.0060 H   0  0  0  0  0  0  0  0  0  0  0  0
  137.9910   71.8850  224.1320 H   0  0  0  0  0  0  0  0  0  0  0  0
  135.6753   69.9249  223.1021 H   0  0  0  0  0  0  0  0  0  0  0  0
  135.5661   69.1226  224.7730 H   0  0  0  0  0  0  0  0  0  0  0  0
  134.6640   71.0700  225.5380 H   0  0  0  0  0  0  0  0  0  0  0  0
  136.1263   75.0415  223.7645 H   0  0  0  0  0  0  0  0  0  0  0  0
  134.9956   76.9975  224.8392 H   0  0  0  0  0  0  0  0  0  0  0  0
  133.3042   77.8223  226.4444 H   0  0  0  0  0  0  0  0  0  0  0  0
  130.9459   74.9868  228.6888 H   0  0  0  0  0  0  0  0  0  0  0  0
  132.1384   73.0857  227.5564 H   0  0  0  0  0  0  0  0  0  0  0  0
  141.1038   72.7204  225.4833 H   0  0  0  0  0  0  0  0  0  0  0  0
  141.9381   72.8952  227.7844 H   0  0  0  0  0  0  0  0  0  0  0  0
  141.5784   70.9919  229.3965 H   0  0  0  0  0  0  0  0  0  0  0  0
  140.3726   68.9781  228.5887 H   0  0  0  0  0  0  0  0  0  0  0  0
  139.5434   68.8198  226.2831 H   0  0  0  0  0  0  0  0  0  0  0  0
  1  2  1  0
  2  3  1  0
  2  4  1  0
  4  5  1  0
  5  6  1  0
  6  7  1  0
  7  8  2  0
  7  9  1  0
  9 10  1  0
 10 11  1  0
 11 12  2  0
 11 13  1  0
 13 14  2  0
 14 15  1  0
 15 16  2  0
 16 17  1  0
 17 18  2  0
 18 19  1  0
 18 20  1  0
 20 21  2  0
 21 22  1  0
 22 23  2  0
  5 24  1  0
 24 25  2  0
 25 26  1  0
 26 27  2  0
 27 28  1  0
 28 29  2  0
 23 13  1  0
 29 24  1  0
 22 16  1  0
  1 30  1  0
  1 31  1  0
  1 32  1  0
  2 33  1  0
  3 34  1  0
  3 35  1  0
  3 36  1  0
  4 37  1  0
  4 38  1  0
  5 39  1  6
  6 40  1  0
  9 41  1  0
  9 42  1  0
 10 43  1  0
 14 44  1  0
 15 45  1  0
 17 46  1  0
 20 47  1  0
 21 48  1  0
 25 49  1  0
 26 50  1  0
 27 51  1  0
 28 52  1  0
 29 53  1  0
M  END
>  <meeko>  (9) 
{"free_energy": -7.89, "intermolecular_energy": -9.98, "internal_energy": -2.64, "cluster_size": 8, "cluster_id": 2, "rank_in_cluster": 3}

$$$$

     RDKit          3D

 53 55  0  0  0  0  0  0  0  0999 V2000
  142.4460   81.1080  223.8450 C   0  0  0  0  0  0  0  0  0  0  0  0
  141.7790   79.7530  223.7910 C   0  0  0  0  0  0  0  0  0  0  0  0
  140.2830   79.9930  223.6560 C   0  0  0  0  0  0  0  0  0  0  0  0
  142.1890   78.9800  222.5580 C   0  0  0  0  0  0  0  0  0  0  0  0
  141.1800   79.0180  221.4500 C   0  0  2  0  0  0  0  0  0  0  0  0
  141.0060   77.6670  220.8990 N   0  0  0  0  0  0  0  0  0  0  0  0
  140.2400   76.6840  221.5630 C   0  0  0  0  0  0  0  0  0  0  0  0
  139.7110   77.0370  222.6680 O   0  0  0  0  0  0  0  0  0  0  0  0
  140.0030   75.3210  221.1090 C   0  0  0  0  0  0  0  0  0  0  0  0
  139.9130   74.3080  222.1070 N   0  0  0  0  0  0  0  0  0  0  0  0
  140.2890   72.9490  221.8400 C   0  0  0  0  0  0  0  0  0  0  0  0
  140.7130   72.5690  220.7210 O   0  0  0  0  0  0  0  0  0  0  0  0
  140.1760   71.9650  222.9140 C   0  0  0  0  0  0  0  0  0  0  0  0
  139.5850   70.7390  222.6980 C   0  0  0  0  0  0  0  0  0  0  0  0
  139.4770   69.8000  223.7280 C   0  0  0  0  0  0  0  0  0  0  0  0
  139.9870   70.1320  224.9880 C   0  0  0  0  0  0  0  0  0  0  0  0
  139.9080   69.2410  226.0460 C   0  0  0  0  0  0  0  0  0  0  0  0
  140.4310   69.6270  227.2710 C   0  0  0  0  0  0  0  0  0  0  0  0
  140.3580   68.5390  228.6420 Cl  0  0  0  0  0  0  0  0  0  0  0  0
  141.0200   70.8560  227.4740 C   0  0  0  0  0  0  0  0  0  0  0  0
  141.0990   71.7530  226.4100 C   0  0  0  0  0  0  0  0  0  0  0  0
  140.5740   71.3700  225.1710 C   0  0  0  0  0  0  0  0  0  0  0  0
  140.6480   72.2300  224.1450 N   0  0  0  0  0  0  0  0  0  0  0  0
  141.4900   80.0100  220.4090 C   0  0  0  0  0  0  0  0  0  0  0  0
  142.1370   79.6630  219.2380 C   0  0  0  0  0  0  0  0  0  0  0  0
  142.4410   80.5690  218.2450 C   0  0  0  0  0  0  0  0  0  0  0  0
  142.0890   81.9120  218.4030 C   0  0  0  0  0  0  0  0  0  0  0  0
  141.4430   82.2700  219.5680 C   0  0  0  0  0  0  0  0  0  0  0  0
  141.1450   81.3500  220.5540 C   0  0  0  0  0  0  0  0  0  0  0  0
  142.5915   81.4035  224.8945 H   0  0  0  0  0  0  0  0  0  0  0  0
  143.4218   81.0567  223.3399 H   0  0  0  0  0  0  0  0  0  0  0  0
  141.8102   81.8500  223.3399 H   0  0  0  0  0  0  0  0  0  0  0  0
  142.0603   79.1892  224.6926 H   0  0  0  0  0  0  0  0  0  0  0  0
  139.8315   80.0654  224.6565 H   0  0  0  0  0  0  0  0  0  0  0  0
  140.1101   80.9304  223.1070 H   0  0  0  0  0  0  0  0  0  0  0  0
  139.8256   79.1568  223.1070 H   0  0  0  0  0  0  0  0  0  0  0  0
  143.1317   79.4039  222.1818 H   0  0  0  0  0  0  0  0  0  0  0  0
  142.2886   77.9273  222.8613 H   0  0  0  0  0  0  0  0  0  0  0  0
  140.2248   79.3554  221.8787 H   0  0  0  0  0  0  0  0  0  0  0  0
  141.4710   77.4440  220.0040 H   0  0  0  0  0  0  0  0  0  0  0  0
  139.0562   75.3188  220.5490 H   0  0  0  0  0  0  0  0  0  0  0  0
  140.8944   75.0597  220.5197 H   0  0  0  0  0  0  0  0  0  0  0  0
  139.5640   74.5130  223.0910 H   0  0  0  0  0  0  0  0  0  0  0  0
  139.1922   70.4955  221.6998 H   0  0  0  0  0  0  0  0  0  0  0  0
  139.0024   68.8234  223.5521 H   0  0  0  0  0  0  0  0  0  0  0  0
  139.4424   68.2527  225.9176 H   0  0  0  0  0  0  0  0  0  0  0  0
  141.4222   71.1255  228.4617 H   0  0  0  0  0  0  0  0  0  0  0  0
  141.5642   72.7410  226.5417 H   0  0  0  0  0  0  0  0  0  0  0  0
  142.4236   78.6112  219.0913 H   0  0  0  0  0  0  0  0  0  0  0  0
  142.9580   80.2366  217.3328 H   0  0  0  0  0  0  0  0  0  0  0  0
  142.3187   82.6566  217.6266 H   0  0  0  0  0  0  0  0  0  0  0  0
  141.1561   83.3215  219.7164 H   0  0  0  0  0  0  0  0  0  0  0  0
  140.6278   81.6813  221.4665 H   0  0  0  0  0  0  0  0  0  0  0  0
  1  2  1  0
  2  3  1  0
  2  4  1  0
  4  5  1  0
  5  6  1  0
  6  7  1  0
  7  8  2  0
  7  9  1  0
  9 10  1  0
 10 11  1  0
 11 12  2  0
 11 13  1  0
 13 14  2  0
 14 15  1  0
 15 16  2  0
 16 17  1  0
 17 18  2  0
 18 19  1  0
 18 20  1  0
 20 21  2  0
 21 22  1  0
 22 23  2  0
  5 24  1  0
 24 25  2  0
 25 26  1  0
 26 27  2  0
 27 28  1  0
 28 29  2  0
 23 13  1  0
 29 24  1  0
 22 16  1  0
  1 30  1  0
  1 31  1  0
  1 32  1  0
  2 33  1  0
  3 34  1  0
  3 35  1  0
  3 36  1  0
  4 37  1  0
  4 38  1  0
  5 39  1  1
  6 40  1  0
  9 41  1  0
  9 42  1  0
 10 43  1  0
 14 44  1  0
 15 45  1  0
 17 46  1  0
 20 47  1  0
 21 48  1  0
 25 49  1  0
 26 50  1  0
 27 51  1  0
 28 52  1  0
 29 53  1  0
M  END
>  <meeko>  (10) 
{"free_energy": -8.66, "intermolecular_energy": -10.75, "internal_energy": -1.64, "cluster_size": 5, "cluster_id": 1, "rank_in_cluster": 2}

$$$$

     RDKit          3D

 53 55  0  0  0  0  0  0  0  0999 V2000
  139.8880   73.3860  221.8920 C   0  0  0  0  0  0  0  0  0  0  0  0
  139.4190   72.0880  222.5090 C   0  0  0  0  0  0  0  0  0  0  0  0
  139.3930   71.0460  221.4020 C   0  0  0  0  0  0  0  0  0  0  0  0
  140.4000   71.5760  223.5400 C   0  0  0  0  0  0  0  0  0  0  0  0
  139.7870   70.6800  224.5730 C   0  0  2  0  0  0  0  0  0  0  0  0
  138.3220   70.7720  224.4950 N   0  0  0  0  0  0  0  0  0  0  0  0
  137.4980   69.6280  224.5740 C   0  0  0  0  0  0  0  0  0  0  0  0
  138.0990   68.5130  224.7150 O   0  0  0  0  0  0  0  0  0  0  0  0
  136.0430   69.6050  224.5090 C   0  0  0  0  0  0  0  0  0  0  0  0
  135.3510   70.7550  224.9840 N   0  0  0  0  0  0  0  0  0  0  0  0
  134.2980   70.6560  225.9550 C   0  0  0  0  0  0  0  0  0  0  0  0
  133.9230   69.5610  226.4400 O   0  0  0  0  0  0  0  0  0  0  0  0
  133.6370   71.8800  226.4010 C   0  0  0  0  0  0  0  0  0  0  0  0
  132.4890   71.8330  227.1630 C   0  0  0  0  0  0  0  0  0  0  0  0
  131.8570   73.0050  227.5870 C   0  0  0  0  0  0  0  0  0  0  0  0
  132.4190   74.2340  227.2210 C   0  0  0  0  0  0  0  0  0  0  0  0
  131.8370   75.4280  227.6130 C   0  0  0  0  0  0  0  0  0  0  0  0
  132.4380   76.6130  227.2200 C   0  0  0  0  0  0  0  0  0  0  0  0
  131.7440   78.1520  227.6890 Cl  0  0  0  0  0  0  0  0  0  0  0  0
  133.5860   76.6480  226.4580 C   0  0  0  0  0  0  0  0  0  0  0  0
  134.1720   75.4470  226.0640 C   0  0  0  0  0  0  0  0  0  0  0  0
  133.5700   74.2460  226.4570 C   0  0  0  0  0  0  0  0  0  0  0  0
  134.1310   73.0880  226.0790 N   0  0  0  0  0  0  0  0  0  0  0  0
  140.2900   70.9250  225.9330 C   0  0  0  0  0  0  0  0  0  0  0  0
  140.0030   70.0740  226.9840 C   0  0  0  0  0  0  0  0  0  0  0  0
  140.4600   70.2760  228.2680 C   0  0  0  0  0  0  0  0  0  0  0  0
  141.2550   71.3900  228.5520 C   0  0  0  0  0  0  0  0  0  0  0  0
  141.5480   72.2460  227.5100 C   0  0  0  0  0  0  0  0  0  0  0  0
  141.0830   72.0300  226.2290 C   0  0  0  0  0  0  0  0  0  0  0  0
  140.1456   74.0989  222.6891 H   0  0  0  0  0  0  0  0  0  0  0  0
  140.7745   73.1966  221.2690 H   0  0  0  0  0  0  0  0  0  0  0  0
  139.0851   73.8070  221.2690 H   0  0  0  0  0  0  0  0  0  0  0  0
  138.4405   72.2597  222.9813 H   0  0  0  0  0  0  0  0  0  0  0  0
  139.3679   70.0399  221.8460 H   0  0  0  0  0  0  0  0  0  0  0  0
  138.4983   71.1945  220.7796 H   0  0  0  0  0  0  0  0  0  0  0  0
  140.2940   71.1497  220.7796 H   0  0  0  0  0  0  0  0  0  0  0  0
  141.1881   71.0134  223.0180 H   0  0  0  0  0  0  0  0  0  0  0  0
  140.7895   72.4559  224.0729 H   0  0  0  0  0  0  0  0  0  0  0  0
  140.0933   69.6483  224.3455 H   0  0  0  0  0  0  0  0  0  0  0  0
  137.9010   71.7070  224.3700 H   0  0  0  0  0  0  0  0  0  0  0  0
  135.7613   69.4613  223.4554 H   0  0  0  0  0  0  0  0  0  0  0  0
  135.7423   68.7934  225.1878 H   0  0  0  0  0  0  0  0  0  0  0  0
  135.5810   71.7360  224.6410 H   0  0  0  0  0  0  0  0  0  0  0  0
  132.0638   70.8575  227.4416 H   0  0  0  0  0  0  0  0  0  0  0  0
  130.9403   72.9630  228.1936 H   0  0  0  0  0  0  0  0  0  0  0  0
  130.9205   75.4354  228.2212 H   0  0  0  0  0  0  0  0  0  0  0  0
  134.0328   77.6097  226.1654 H   0  0  0  0  0  0  0  0  0  0  0  0
  135.0890   75.4427  225.4565 H   0  0  0  0  0  0  0  0  0  0  0  0
  139.3781   69.1908  226.7851 H   0  0  0  0  0  0  0  0  0  0  0  0
  140.2005   69.5642  229.0655 H   0  0  0  0  0  0  0  0  0  0  0  0
  141.6329   71.5773  229.5679 H   0  0  0  0  0  0  0  0  0  0  0  0
  142.1728   73.1296  227.7071 H   0  0  0  0  0  0  0  0  0  0  0  0
  141.3425   72.7408  225.4307 H   0  0  0  0  0  0  0  0  0  0  0  0
  1  2  1  0
  2  3  1  0
  2  4  1  0
  4  5  1  0
  5  6  1  0
  6  7  1  0
  7  8  2  0
  7  9  1  0
  9 10  1  0
 10 11  1  0
 11 12  2  0
 11 13  1  0
 13 14  2  0
 14 15  1  0
 15 16  2  0
 16 17  1  0
 17 18  2  0
 18 19  1  0
 18 20  1  0
 20 21  2  0
 21 22  1  0
 22 23  2  0
  5 24  1  0
 24 25  2  0
 25 26  1  0
 26 27  2  0
 27 28  1  0
 28 29  2  0
 23 13  1  0
 29 24  1  0
 22 16  1  0
  1 30  1  0
  1 31  1  0
  1 32  1  0
  2 33  1  0
  3 34  1  0
  3 35  1  0
  3 36  1  0
  4 37  1  0
  4 38  1  0
  5 39  1  6
  6 40  1  0
  9 41  1  0
  9 42  1  0
 10 43  1  0
 14 44  1  0
 15 45  1  0
 17 46  1  0
 20 47  1  0
 21 48  1  0
 25 49  1  0
 26 50  1  0
 27 51  1  0
 28 52  1  0
 29 53  1  0
M  END
>  <meeko>  (11) 
{"free_energy": -8.85, "intermolecular_energy": -10.94, "internal_energy": -1.71, "cluster_size": 8, "cluster_id": 2, "rank_in_cluster": 1}

$$$$

     RDKit          3D

 53 55  0  0  0  0  0  0  0  0999 V2000
  139.7730   70.6770  221.7520 C   0  0  0  0  0  0  0  0  0  0  0  0
  140.3320   71.9450  222.3570 C   0  0  0  0  0  0  0  0  0  0  0  0
  139.3830   73.0750  221.9910 C   0  0  0  0  0  0  0  0  0  0  0  0
  140.3410   71.8820  223.8680 C   0  0  0  0  0  0  0  0  0  0  0  0
  139.6360   70.6860  224.4340 C   0  0  2  0  0  0  0  0  0  0  0  0
  138.1860   70.9240  224.4250 N   0  0  0  0  0  0  0  0  0  0  0  0
  137.2640   69.8990  224.1150 C   0  0  0  0  0  0  0  0  0  0  0  0
  137.7650   68.7600  223.8410 O   0  0  0  0  0  0  0  0  0  0  0  0
  135.8140   70.0240  224.0770 C   0  0  0  0  0  0  0  0  0  0  0  0
  135.2430   71.1820  224.6780 N   0  0  0  0  0  0  0  0  0  0  0  0
  135.5900   72.5060  224.2470 C   0  0  0  0  0  0  0  0  0  0  0  0
  136.4120   72.7260  223.3240 O   0  0  0  0  0  0  0  0  0  0  0  0
  134.9590   73.6470  224.9060 C   0  0  0  0  0  0  0  0  0  0  0  0
  135.3340   74.9390  224.6090 C   0  0  0  0  0  0  0  0  0  0  0  0
  134.7300   76.0290  225.2410 C   0  0  0  0  0  0  0  0  0  0  0  0
  133.7300   75.7790  226.1870 C   0  0  0  0  0  0  0  0  0  0  0  0
  133.0960   76.8190  226.8460 C   0  0  0  0  0  0  0  0  0  0  0  0
  132.1120   76.5090  227.7720 C   0  0  0  0  0  0  0  0  0  0  0  0
  131.2780   77.7870  228.6340 Cl  0  0  0  0  0  0  0  0  0  0  0  0
  131.7450   75.2130  228.0610 C   0  0  0  0  0  0  0  0  0  0  0  0
  132.3820   74.1660  227.3990 C   0  0  0  0  0  0  0  0  0  0  0  0
  133.3760   74.4710  226.4630 C   0  0  0  0  0  0  0  0  0  0  0  0
  133.9920   73.4660  225.8230 N   0  0  0  0  0  0  0  0  0  0  0  0
  140.1280   70.2900  225.7610 C   0  0  0  0  0  0  0  0  0  0  0  0
  140.5630   71.2180  226.6880 C   0  0  0  0  0  0  0  0  0  0  0  0
  141.0290   70.8770  227.9400 C   0  0  0  0  0  0  0  0  0  0  0  0
  141.0760   69.5330  228.3180 C   0  0  0  0  0  0  0  0  0  0  0  0
  140.6440   68.5970  227.4010 C   0  0  0  0  0  0  0  0  0  0  0  0
  140.1800   68.9540  226.1510 C   0  0  0  0  0  0  0  0  0  0  0  0
  139.4700   69.9898  222.5558 H   0  0  0  0  0  0  0  0  0  0  0  0
  138.8993   70.9217  221.1301 H   0  0  0  0  0  0  0  0  0  0  0  0
  140.5430   70.1971  221.1301 H   0  0  0  0  0  0  0  0  0  0  0  0
  141.3574   72.0872  221.9851 H   0  0  0  0  0  0  0  0  0  0  0  0
  138.9936   73.5387  222.9093 H   0  0  0  0  0  0  0  0  0  0  0  0
  139.9222   73.8295  221.3994 H   0  0  0  0  0  0  0  0  0  0  0  0
  138.5466   72.6743  221.3994 H   0  0  0  0  0  0  0  0  0  0  0  0
  141.3873   71.8588  224.2067 H   0  0  0  0  0  0  0  0  0  0  0  0
  139.7986   72.7694  224.2262 H   0  0  0  0  0  0  0  0  0  0  0  0
  139.8625   69.8258  223.7869 H   0  0  0  0  0  0  0  0  0  0  0  0
  137.8480   71.8740  224.6460 H   0  0  0  0  0  0  0  0  0  0  0  0
  135.5091   70.0156  223.0201 H   0  0  0  0  0  0  0  0  0  0  0  0
  135.4417   69.1810  224.6776 H   0  0  0  0  0  0  0  0  0  0  0  0
  134.5360   71.1170  225.4720 H   0  0  0  0  0  0  0  0  0  0  0  0
  136.1219   75.1154  223.8620 H   0  0  0  0  0  0  0  0  0  0  0  0
  135.0334   77.0587  225.0006 H   0  0  0  0  0  0  0  0  0  0  0  0
  133.3665   77.8651  226.6398 H   0  0  0  0  0  0  0  0  0  0  0  0
  130.9601   75.0079  228.8039 H   0  0  0  0  0  0  0  0  0  0  0  0
  132.1091   73.1210  227.6078 H   0  0  0  0  0  0  0  0  0  0  0  0
  140.5361   72.2827  226.4131 H   0  0  0  0  0  0  0  0  0  0  0  0
  141.3621   71.6594  228.6378 H   0  0  0  0  0  0  0  0  0  0  0  0
  141.4438   69.2321  229.3100 H   0  0  0  0  0  0  0  0  0  0  0  0
  140.6702   67.5320  227.6749 H   0  0  0  0  0  0  0  0  0  0  0  0
  139.8465   68.1721  225.4529 H   0  0  0  0  0  0  0  0  0  0  0  0
  1  2  1  0
  2  3  1  0
  2  4  1  0
  4  5  1  0
  5  6  1  0
  6  7  1  0
  7  8  2  0
  7  9  1  0
  9 10  1  0
 10 11  1  0
 11 12  2  0
 11 13  1  0
 13 14  2  0
 14 15  1  0
 15 16  2  0
 16 17  1  0
 17 18  2  0
 18 19  1  0
 18 20  1  0
 20 21  2  0
 21 22  1  0
 22 23  2  0
  5 24  1  0
 24 25  2  0
 25 26  1  0
 26 27  2  0
 27 28  1  0
 28 29  2  0
 23 13  1  0
 29 24  1  0
 22 16  1  0
  1 30  1  0
  1 31  1  0
  1 32  1  0
  2 33  1  0
  3 34  1  0
  3 35  1  0
  3 36  1  0
  4 37  1  0
  4 38  1  0
  5 39  1  6
  6 40  1  0
  9 41  1  0
  9 42  1  0
 10 43  1  0
 14 44  1  0
 15 45  1  0
 17 46  1  0
 20 47  1  0
 21 48  1  0
 25 49  1  0
 26 50  1  0
 27 51  1  0
 28 52  1  0
 29 53  1  0
M  END
>  <meeko>  (12) 
{"free_energy": -7.8, "intermolecular_energy": -9.88, "internal_energy": -2.65, "cluster_size": 8, "cluster_id": 2, "rank_in_cluster": 8}

$$$$

     RDKit          3D

 53 55  0  0  0  0  0  0  0  0999 V2000
  139.5970   73.3480  221.9740 C   0  0  0  0  0  0  0  0  0  0  0  0
  139.9080   71.8710  222.0410 C   0  0  0  0  0  0  0  0  0  0  0  0
  140.8550   71.5570  220.8930 C   0  0  0  0  0  0  0  0  0  0  0  0
  140.6570   71.5180  223.3070 C   0  0  0  0  0  0  0  0  0  0  0  0
  139.8750   70.6680  224.2620 C   0  0  2  0  0  0  0  0  0  0  0  0
  138.4390   70.9120  224.0720 N   0  0  0  0  0  0  0  0  0  0  0  0
  137.4830   69.8800  224.1980 C   0  0  0  0  0  0  0  0  0  0  0  0
  137.9410   68.7250  224.4830 O   0  0  0  0  0  0  0  0  0  0  0  0
  136.0420   70.0100  224.0310 C   0  0  0  0  0  0  0  0  0  0  0  0
  135.4170   71.1440  224.6260 N   0  0  0  0  0  0  0  0  0  0  0  0
  135.7290   72.4830  224.2120 C   0  0  0  0  0  0  0  0  0  0  0  0
  136.5670   72.7370  223.3120 O   0  0  0  0  0  0  0  0  0  0  0  0
  135.0440   73.5970  224.8620 C   0  0  0  0  0  0  0  0  0  0  0  0
  135.3610   74.9030  224.5600 C   0  0  0  0  0  0  0  0  0  0  0  0
  134.7050   75.9670  225.1840 C   0  0  0  0  0  0  0  0  0  0  0  0
  133.7130   75.6760  226.1270 C   0  0  0  0  0  0  0  0  0  0  0  0
  133.0290   76.6890  226.7780 C   0  0  0  0  0  0  0  0  0  0  0  0
  132.0570   76.3390  227.7020 C   0  0  0  0  0  0  0  0  0  0  0  0
  131.1610   77.5810  228.5540 Cl  0  0  0  0  0  0  0  0  0  0  0  0
  131.7480   75.0280  227.9970 C   0  0  0  0  0  0  0  0  0  0  0  0
  132.4360   74.0090  227.3430 C   0  0  0  0  0  0  0  0  0  0  0  0
  133.4190   74.3550  226.4090 C   0  0  0  0  0  0  0  0  0  0  0  0
  134.0830   73.3760  225.7770 N   0  0  0  0  0  0  0  0  0  0  0  0
  140.2880   70.8300  225.6640 C   0  0  0  0  0  0  0  0  0  0  0  0
  141.0550   71.9020  226.0810 C   0  0  0  0  0  0  0  0  0  0  0  0
  141.4580   72.0810  227.3870 C   0  0  0  0  0  0  0  0  0  0  0  0
  141.0850   71.1500  228.3600 C   0  0  0  0  0  0  0  0  0  0  0  0
  140.3180   70.0760  227.9550 C   0  0  0  0  0  0  0  0  0  0  0  0
  139.9240   69.9110  226.6430 C   0  0  0  0  0  0  0  0  0  0  0  0
  139.5120   73.7514  222.9938 H   0  0  0  0  0  0  0  0  0  0  0  0
  140.4051   73.8690  221.4397 H   0  0  0  0  0  0  0  0  0  0  0  0
  138.6474   73.4989  221.4397 H   0  0  0  0  0  0  0  0  0  0  0  0
  138.9611   71.3126  222.0018 H   0  0  0  0  0  0  0  0  0  0  0  0
  141.8263   71.2349  221.2966 H   0  0  0  0  0  0  0  0  0  0  0  0
  140.4291   70.7520  220.2761 H   0  0  0  0  0  0  0  0  0  0  0  0
  140.9945   72.4570  220.2761 H   0  0  0  0  0  0  0  0  0  0  0  0
  141.5707   70.9730  223.0276 H   0  0  0  0  0  0  0  0  0  0  0  0
  140.8697   72.4648  223.8250 H   0  0  0  0  0  0  0  0  0  0  0  0
  140.0933   69.6154  224.0288 H   0  0  0  0  0  0  0  0  0  0  0  0
  138.1370   71.8700  223.8310 H   0  0  0  0  0  0  0  0  0  0  0  0
  135.8361   70.0473  222.9511 H   0  0  0  0  0  0  0  0  0  0  0  0
  135.6163   69.1430  224.5574 H   0  0  0  0  0  0  0  0  0  0  0  0
  134.6940   71.0490  225.4000 H   0  0  0  0  0  0  0  0  0  0  0  0
  136.1433   75.1116  223.8154 H   0  0  0  0  0  0  0  0  0  0  0  0
  134.9621   77.0083  224.9399 H   0  0  0  0  0  0  0  0  0  0  0  0
  133.2516   77.7454  226.5670 H   0  0  0  0  0  0  0  0  0  0  0  0
  130.9700   74.7907  228.7375 H   0  0  0  0  0  0  0  0  0  0  0  0
  132.2113   72.9535  227.5563 H   0  0  0  0  0  0  0  0  0  0  0  0
  141.3588   72.6494  225.3333 H   0  0  0  0  0  0  0  0  0  0  0  0
  142.0703   72.9525  227.6619 H   0  0  0  0  0  0  0  0  0  0  0  0
  141.3912   71.2685  229.4098 H   0  0  0  0  0  0  0  0  0  0  0  0
  140.0114   69.3285  228.7015 H   0  0  0  0  0  0  0  0  0  0  0  0
  139.3126   69.0393  226.3668 H   0  0  0  0  0  0  0  0  0  0  0  0
  1  2  1  0
  2  3  1  0
  2  4  1  0
  4  5  1  0
  5  6  1  0
  6  7  1  0
  7  8  2  0
  7  9  1  0
  9 10  1  0
 10 11  1  0
 11 12  2  0
 11 13  1  0
 13 14  2  0
 14 15  1  0
 15 16  2  0
 16 17  1  0
 17 18  2  0
 18 19  1  0
 18 20  1  0
 20 21  2  0
 21 22  1  0
 22 23  2  0
  5 24  1  0
 24 25  2  0
 25 26  1  0
 26 27  2  0
 27 28  1  0
 28 29  2  0
 23 13  1  0
 29 24  1  0
 22 16  1  0
  1 30  1  0
  1 31  1  0
  1 32  1  0
  2 33  1  0
  3 34  1  0
  3 35  1  0
  3 36  1  0
  4 37  1  0
  4 38  1  0
  5 39  1  6
  6 40  1  0
  9 41  1  0
  9 42  1  0
 10 43  1  0
 14 44  1  0
 15 45  1  0
 17 46  1  0
 20 47  1  0
 21 48  1  0
 25 49  1  0
 26 50  1  0
 27 51  1  0
 28 52  1  0
 29 53  1  0
M  END
>  <meeko>  (13) 
{"free_energy": -7.88, "intermolecular_energy": -9.96, "internal_energy": -2.62, "cluster_size": 8, "cluster_id": 2, "rank_in_cluster": 4}

$$$$

     RDKit          3D

 53 55  0  0  0  0  0  0  0  0999 V2000
  139.8190   70.6880  221.7770 C   0  0  0  0  0  0  0  0  0  0  0  0
  140.3790   71.9490  222.3940 C   0  0  0  0  0  0  0  0  0  0  0  0
  139.4340   73.0850  222.0350 C   0  0  0  0  0  0  0  0  0  0  0  0
  140.3840   71.8730  223.9050 C   0  0  0  0  0  0  0  0  0  0  0  0
  139.6720   70.6760  224.4580 C   0  0  2  0  0  0  0  0  0  0  0  0
  138.2220   70.9150  224.4350 N   0  0  0  0  0  0  0  0  0  0  0  0
  137.2940   69.8610  224.2860 C   0  0  0  0  0  0  0  0  0  0  0  0
  137.7890   68.6920  224.1700 O   0  0  0  0  0  0  0  0  0  0  0  0
  135.8440   69.9840  224.2500 C   0  0  0  0  0  0  0  0  0  0  0  0
  135.2750   71.1590  224.8190 N   0  0  0  0  0  0  0  0  0  0  0  0
  135.5670   72.4660  224.3040 C   0  0  0  0  0  0  0  0  0  0  0  0
  136.3380   72.6550  223.3310 O   0  0  0  0  0  0  0  0  0  0  0  0
  134.9420   73.6260  224.9350 C   0  0  0  0  0  0  0  0  0  0  0  0
  135.3320   74.9080  224.6160 C   0  0  0  0  0  0  0  0  0  0  0  0
  134.7330   76.0160  225.2210 C   0  0  0  0  0  0  0  0  0  0  0  0
  133.7220   75.7940  226.1640 C   0  0  0  0  0  0  0  0  0  0  0  0
  133.0930   76.8530  226.7960 C   0  0  0  0  0  0  0  0  0  0  0  0
  132.0990   76.5700  227.7200 C   0  0  0  0  0  0  0  0  0  0  0  0
  131.2690   77.8720  228.5490 Cl  0  0  0  0  0  0  0  0  0  0  0  0
  131.7170   75.2830  228.0320 C   0  0  0  0  0  0  0  0  0  0  0  0
  132.3500   74.2170  227.3950 C   0  0  0  0  0  0  0  0  0  0  0  0
  133.3540   74.4950  226.4620 C   0  0  0  0  0  0  0  0  0  0  0  0
  133.9660   73.4720  225.8470 N   0  0  0  0  0  0  0  0  0  0  0  0
  140.1490   70.2740  225.7890 C   0  0  0  0  0  0  0  0  0  0  0  0
  140.5450   71.2000  226.7360 C   0  0  0  0  0  0  0  0  0  0  0  0
  140.9970   70.8540  227.9910 C   0  0  0  0  0  0  0  0  0  0  0  0
  141.0690   69.5060  228.3530 C   0  0  0  0  0  0  0  0  0  0  0  0
  140.6760   68.5720  227.4160 C   0  0  0  0  0  0  0  0  0  0  0  0
  140.2260   68.9350  226.1620 C   0  0  0  0  0  0  0  0  0  0  0  0
  139.5113   69.9952  222.5741 H   0  0  0  0  0  0  0  0  0  0  0  0
  138.9482   70.9401  221.1539 H   0  0  0  0  0  0  0  0  0  0  0  0
  140.5899   70.2110  221.1539 H   0  0  0  0  0  0  0  0  0  0  0  0
  141.4057   72.0918  222.0259 H   0  0  0  0  0  0  0  0  0  0  0  0
  139.0496   73.5471  222.9562 H   0  0  0  0  0  0  0  0  0  0  0  0
  139.9749   73.8392  221.4446 H   0  0  0  0  0  0  0  0  0  0  0  0
  138.5940   72.6904  221.4446 H   0  0  0  0  0  0  0  0  0  0  0  0
  141.4293   71.8418  224.2462 H   0  0  0  0  0  0  0  0  0  0  0  0
  139.8454   72.7600  224.2698 H   0  0  0  0  0  0  0  0  0  0  0  0
  139.9049   69.8189  223.8091 H   0  0  0  0  0  0  0  0  0  0  0  0
  137.8890   71.8890  224.5220 H   0  0  0  0  0  0  0  0  0  0  0  0
  135.5349   69.9444  223.1951 H   0  0  0  0  0  0  0  0  0  0  0  0
  135.4744   69.1587  224.8764 H   0  0  0  0  0  0  0  0  0  0  0  0
  134.6100   71.1200  225.6490 H   0  0  0  0  0  0  0  0  0  0  0  0
  136.1281   75.0621  223.8727 H   0  0  0  0  0  0  0  0  0  0  0  0
  135.0480   77.0378  224.9627 H   0  0  0  0  0  0  0  0  0  0  0  0
  133.3747   77.8922  226.5708 H   0  0  0  0  0  0  0  0  0  0  0  0
  130.9245   75.0999  228.7725 H   0  0  0  0  0  0  0  0  0  0  0  0
  132.0658   73.1788  227.6214 H   0  0  0  0  0  0  0  0  0  0  0  0
  140.4969   72.2674  226.4744 H   0  0  0  0  0  0  0  0  0  0  0  0
  141.2996   71.6348  228.7043 H   0  0  0  0  0  0  0  0  0  0  0  0
  141.4257   69.2008  229.3478 H   0  0  0  0  0  0  0  0  0  0  0  0
  140.7227   67.5043  227.6765 H   0  0  0  0  0  0  0  0  0  0  0  0
  139.9241   68.1550  225.4476 H   0  0  0  0  0  0  0  0  0  0  0  0
  1  2  1  0
  2  3  1  0
  2  4  1  0
  4  5  1  0
  5  6  1  0
  6  7  1  0
  7  8  2  0
  7  9  1  0
  9 10  1  0
 10 11  1  0
 11 12  2  0
 11 13  1  0
 13 14  2  0
 14 15  1  0
 15 16  2  0
 16 17  1  0
 17 18  2  0
 18 19  1  0
 18 20  1  0
 20 21  2  0
 21 22  1  0
 22 23  2  0
  5 24  1  0
 24 25  2  0
 25 26  1  0
 26 27  2  0
 27 28  1  0
 28 29  2  0
 23 13  1  0
 29 24  1  0
 22 16  1  0
  1 30  1  0
  1 31  1  0
  1 32  1  0
  2 33  1  0
  3 34  1  0
  3 35  1  0
  3 36  1  0
  4 37  1  0
  4 38  1  0
  5 39  1  6
  6 40  1  0
  9 41  1  0
  9 42  1  0
 10 43  1  0
 14 44  1  0
 15 45  1  0
 17 46  1  0
 20 47  1  0
 21 48  1  0
 25 49  1  0
 26 50  1  0
 27 51  1  0
 28 52  1  0
 29 53  1  0
M  END
>  <meeko>  (14) 
{"free_energy": -7.87, "intermolecular_energy": -9.96, "internal_energy": -2.64, "cluster_size": 8, "cluster_id": 2, "rank_in_cluster": 5}

$$$$

     RDKit          3D

 53 55  0  0  0  0  0  0  0  0999 V2000
  143.9090   72.1540  220.5670 C   0  0  0  0  0  0  0  0  0  0  0  0
  144.4240   73.5490  220.8390 C   0  0  0  0  0  0  0  0  0  0  0  0
  145.9080   73.4280  221.1520 C   0  0  0  0  0  0  0  0  0  0  0  0
  144.3270   74.4270  219.6120 C   0  0  0  0  0  0  0  0  0  0  0  0
  143.3050   75.5170  219.7200 C   0  0  2  0  0  0  0  0  0  0  0  0
  142.0180   74.9420  220.1350 N   0  0  0  0  0  0  0  0  0  0  0  0
  141.0250   75.7170  220.7740 C   0  0  0  0  0  0  0  0  0  0  0  0
  141.3140   76.9430  220.9720 O   0  0  0  0  0  0  0  0  0  0  0  0
  139.7210   75.2510  221.2250 C   0  0  0  0  0  0  0  0  0  0  0  0
  139.7010   74.2300  222.2170 N   0  0  0  0  0  0  0  0  0  0  0  0
  140.1640   72.9000  221.9420 C   0  0  0  0  0  0  0  0  0  0  0  0
  140.6090   72.5540  220.8200 O   0  0  0  0  0  0  0  0  0  0  0  0
  140.1200   71.9050  223.0110 C   0  0  0  0  0  0  0  0  0  0  0  0
  139.6090   70.6440  222.7910 C   0  0  0  0  0  0  0  0  0  0  0  0
  139.5670   69.6950  223.8160 C   0  0  0  0  0  0  0  0  0  0  0  0
  140.0570   70.0540  225.0770 C   0  0  0  0  0  0  0  0  0  0  0  0
  140.0410   69.1550  226.1300 C   0  0  0  0  0  0  0  0  0  0  0  0
  140.5400   69.5680  227.3550 C   0  0  0  0  0  0  0  0  0  0  0  0
  140.5440   68.4700  228.7210 Cl  0  0  0  0  0  0  0  0  0  0  0  0
  141.0490   70.8320  227.5630 C   0  0  0  0  0  0  0  0  0  0  0  0
  141.0650   71.7370  226.5040 C   0  0  0  0  0  0  0  0  0  0  0  0
  140.5620   71.3270  225.2650 C   0  0  0  0  0  0  0  0  0  0  0  0
  140.5770   72.1950  224.2420 N   0  0  0  0  0  0  0  0  0  0  0  0
  143.1850   76.3310  218.5020 C   0  0  0  0  0  0  0  0  0  0  0  0
  143.5400   75.8440  217.2580 C   0  0  0  0  0  0  0  0  0  0  0  0
  143.4390   76.5830  216.0990 C   0  0  0  0  0  0  0  0  0  0  0  0
  142.9570   77.8930  216.1530 C   0  0  0  0  0  0  0  0  0  0  0  0
  142.5990   78.3910  217.3900 C   0  0  0  0  0  0  0  0  0  0  0  0
  142.7070   77.6380  218.5420 C   0  0  0  0  0  0  0  0  0  0  0  0
  143.7195   71.6406  221.5212 H   0  0  0  0  0  0  0  0  0  0  0  0
  142.9738   72.2142  219.9909 H   0  0  0  0  0  0  0  0  0  0  0  0
  144.6590   71.5921  219.9909 H   0  0  0  0  0  0  0  0  0  0  0  0
  143.8312   73.9871  221.6555 H   0  0  0  0  0  0  0  0  0  0  0  0
  146.0530   73.4162  222.2423 H   0  0  0  0  0  0  0  0  0  0  0  0
  146.2990   72.4950  220.7200 H   0  0  0  0  0  0  0  0  0  0  0  0
  146.4450   74.2853  220.7200 H   0  0  0  0  0  0  0  0  0  0  0  0
  145.3097   74.8905  219.4401 H   0  0  0  0  0  0  0  0  0  0  0  0
  144.0126   73.7781  218.7813 H   0  0  0  0  0  0  0  0  0  0  0  0
  143.6484   76.2220  220.4914 H   0  0  0  0  0  0  0  0  0  0  0  0
  141.8540   73.9380  219.9530 H   0  0  0  0  0  0  0  0  0  0  0  0
  139.1826   76.1191  221.6331 H   0  0  0  0  0  0  0  0  0  0  0  0
  139.2620   74.7918  220.3371 H   0  0  0  0  0  0  0  0  0  0  0  0
  139.3420   74.4070  223.2030 H   0  0  0  0  0  0  0  0  0  0  0  0
  139.2283   70.3805  221.7932 H   0  0  0  0  0  0  0  0  0  0  0  0
  139.1585   68.6896  223.6360 H   0  0  0  0  0  0  0  0  0  0  0  0
  139.6422   68.1385  225.9974 H   0  0  0  0  0  0  0  0  0  0  0  0
  141.4369   71.1219  228.5507 H   0  0  0  0  0  0  0  0  0  0  0  0
  141.4649   72.7528  226.6394 H   0  0  0  0  0  0  0  0  0  0  0  0
  143.9223   74.8149  217.1896 H   0  0  0  0  0  0  0  0  0  0  0  0
  143.7366   76.1432  215.1357 H   0  0  0  0  0  0  0  0  0  0  0  0
  142.8660   78.5052  215.2436 H   0  0  0  0  0  0  0  0  0  0  0  0
  142.2158   79.4197  217.4597 H   0  0  0  0  0  0  0  0  0  0  0  0
  142.4109   78.0773  219.5061 H   0  0  0  0  0  0  0  0  0  0  0  0
  1  2  1  0
  2  3  1  0
  2  4  1  0
  4  5  1  0
  5  6  1  0
  6  7  1  0
  7  8  2  0
  7  9  1  0
  9 10  1  0
 10 11  1  0
 11 12  2  0
 11 13  1  0
 13 14  2  0
 14 15  1  0
 15 16  2  0
 16 17  1  0
 17 18  2  0
 18 19  1  0
 18 20  1  0
 20 21  2  0
 21 22  1  0
 22 23  2  0
  5 24  1  0
 24 25  2  0
 25 26  1  0
 26 27  2  0
 27 28  1  0
 28 29  2  0
 23 13  1  0
 29 24  1  0
 22 16  1  0
  1 30  1  0
  1 31  1  0
  1 32  1  0
  2 33  1  0
  3 34  1  0
  3 35  1  0
  3 36  1  0
  4 37  1  0
  4 38  1  0
  5 39  1  1
  6 40  1  0
  9 41  1  0
  9 42  1  0
 10 43  1  0
 14 44  1  0
 15 45  1  0
 17 46  1  0
 20 47  1  0
 21 48  1  0
 25 49  1  0
 26 50  1  0
 27 51  1  0
 28 52  1  0
 29 53  1  0
M  END
>  <meeko>  (15) 
{"free_energy": -8.01, "intermolecular_energy": -10.1, "internal_energy": -2.39, "cluster_size": 3, "cluster_id": 3, "rank_in_cluster": 3}

$$$$

     RDKit          3D

 53 55  0  0  0  0  0  0  0  0999 V2000
  144.0170   72.3030  220.6860 C   0  0  0  0  0  0  0  0  0  0  0  0
  144.4530   73.7440  220.8150 C   0  0  0  0  0  0  0  0  0  0  0  0
  145.9730   73.7510  220.8760 C   0  0  0  0  0  0  0  0  0  0  0  0
  144.0820   74.5490  219.5900 C   0  0  0  0  0  0  0  0  0  0  0  0
  143.0000   75.5590  219.8270 C   0  0  2  0  0  0  0  0  0  0  0  0
  141.7360   74.8640  220.1100 N   0  0  0  0  0  0  0  0  0  0  0  0
  140.7050   75.4680  220.8630 C   0  0  0  0  0  0  0  0  0  0  0  0
  140.9370   76.6490  221.2830 O   0  0  0  0  0  0  0  0  0  0  0  0
  139.4190   74.8740  221.2000 C   0  0  0  0  0  0  0  0  0  0  0  0
  139.4130   73.8560  222.1960 N   0  0  0  0  0  0  0  0  0  0  0  0
  140.1730   72.6470  222.0460 C   0  0  0  0  0  0  0  0  0  0  0  0
  140.8810   72.4120  221.0360 O   0  0  0  0  0  0  0  0  0  0  0  0
  140.1230   71.6490  223.1110 C   0  0  0  0  0  0  0  0  0  0  0  0
  139.6000   70.3940  222.8890 C   0  0  0  0  0  0  0  0  0  0  0  0
  139.5530   69.4420  223.9100 C   0  0  0  0  0  0  0  0  0  0  0  0
  140.0520   69.7910  225.1700 C   0  0  0  0  0  0  0  0  0  0  0  0
  140.0320   68.8880  226.2200 C   0  0  0  0  0  0  0  0  0  0  0  0
  140.5400   69.2920  227.4450 C   0  0  0  0  0  0  0  0  0  0  0  0
  140.5390   68.1900  228.8070 Cl  0  0  0  0  0  0  0  0  0  0  0  0
  141.0620   70.5510  227.6560 C   0  0  0  0  0  0  0  0  0  0  0  0
  141.0820   71.4590  226.5990 C   0  0  0  0  0  0  0  0  0  0  0  0
  140.5700   71.0590  225.3610 C   0  0  0  0  0  0  0  0  0  0  0  0
  140.5880   71.9300  224.3420 N   0  0  0  0  0  0  0  0  0  0  0  0
  142.8660   76.5400  218.7420 C   0  0  0  0  0  0  0  0  0  0  0  0
  142.5540   77.8640  218.9860 C   0  0  0  0  0  0  0  0  0  0  0  0
  142.4220   78.8080  217.9900 C   0  0  0  0  0  0  0  0  0  0  0  0
  142.6090   78.4350  216.6560 C   0  0  0  0  0  0  0  0  0  0  0  0
  142.9220   77.1160  216.3990 C   0  0  0  0  0  0  0  0  0  0  0  0
  143.0500   76.1830  217.4090 C   0  0  0  0  0  0  0  0  0  0  0  0
  143.8856   71.8686  221.6880 H   0  0  0  0  0  0  0  0  0  0  0  0
  143.0644   72.2558  220.1380 H   0  0  0  0  0  0  0  0  0  0  0  0
  144.7837   71.7356  220.1380 H   0  0  0  0  0  0  0  0  0  0  0  0
  143.9698   74.1767  221.7034 H   0  0  0  0  0  0  0  0  0  0  0  0
  146.2978   73.7525  221.9270 H   0  0  0  0  0  0  0  0  0  0  0  0
  146.3643   72.8546  220.3726 H   0  0  0  0  0  0  0  0  0  0  0  0
  146.3560   74.6509  220.3726 H   0  0  0  0  0  0  0  0  0  0  0  0
  144.9797   75.0799  219.2404 H   0  0  0  0  0  0  0  0  0  0  0  0
  143.6941   73.8364  218.8472 H   0  0  0  0  0  0  0  0  0  0  0  0
  143.2860   76.1561  220.7054 H   0  0  0  0  0  0  0  0  0  0  0  0
  141.6190   73.9040  219.7480 H   0  0  0  0  0  0  0  0  0  0  0  0
  138.7622   75.6838  221.5506 H   0  0  0  0  0  0  0  0  0  0  0  0
  139.0889   74.3713  220.2789 H   0  0  0  0  0  0  0  0  0  0  0  0
  138.8460   73.9450  223.0920 H   0  0  0  0  0  0  0  0  0  0  0  0
  139.2132   70.1375  221.8917 H   0  0  0  0  0  0  0  0  0  0  0  0
  139.1336   68.4415  223.7280 H   0  0  0  0  0  0  0  0  0  0  0  0
  139.6233   67.8757  226.0853 H   0  0  0  0  0  0  0  0  0  0  0  0
  141.4564   70.8340  228.6431 H   0  0  0  0  0  0  0  0  0  0  0  0
  141.4925   72.4703  226.7360 H   0  0  0  0  0  0  0  0  0  0  0  0
  142.4032   78.1809  220.0285 H   0  0  0  0  0  0  0  0  0  0  0  0
  142.1710   79.8485  218.2436 H   0  0  0  0  0  0  0  0  0  0  0  0
  142.5102   79.1666  215.8405 H   0  0  0  0  0  0  0  0  0  0  0  0
  143.0743   76.7977  215.3571 H   0  0  0  0  0  0  0  0  0  0  0  0
  143.3011   75.1422  217.1565 H   0  0  0  0  0  0  0  0  0  0  0  0
  1  2  1  0
  2  3  1  0
  2  4  1  0
  4  5  1  0
  5  6  1  0
  6  7  1  0
  7  8  2  0
  7  9  1  0
  9 10  1  0
 10 11  1  0
 11 12  2  0
 11 13  1  0
 13 14  2  0
 14 15  1  0
 15 16  2  0
 16 17  1  0
 17 18  2  0
 18 19  1  0
 18 20  1  0
 20 21  2  0
 21 22  1  0
 22 23  2  0
  5 24  1  0
 24 25  2  0
 25 26  1  0
 26 27  2  0
 27 28  1  0
 28 29  2  0
 23 13  1  0
 29 24  1  0
 22 16  1  0
  1 30  1  0
  1 31  1  0
  1 32  1  0
  2 33  1  0
  3 34  1  0
  3 35  1  0
  3 36  1  0
  4 37  1  0
  4 38  1  0
  5 39  1  1
  6 40  1  0
  9 41  1  0
  9 42  1  0
 10 43  1  0
 14 44  1  0
 15 45  1  0
 17 46  1  0
 20 47  1  0
 21 48  1  0
 25 49  1  0
 26 50  1  0
 27 51  1  0
 28 52  1  0
 29 53  1  0
M  END
>  <meeko>  (16) 
{"free_energy": -8.08, "intermolecular_energy": -10.17, "internal_energy": -2.3, "cluster_size": 3, "cluster_id": 3, "rank_in_cluster": 2}

$$$$

     RDKit          3D

 53 55  0  0  0  0  0  0  0  0999 V2000
  143.6950   75.3440  219.4360 C   0  0  0  0  0  0  0  0  0  0  0  0
  143.2290   76.6070  218.7480 C   0  0  0  0  0  0  0  0  0  0  0  0
  142.8820   76.2360  217.3140 C   0  0  0  0  0  0  0  0  0  0  0  0
  141.9520   77.1360  219.3610 C   0  0  0  0  0  0  0  0  0  0  0  0
  141.8060   76.8330  220.8220 C   0  0  2  0  0  0  0  0  0  0  0  0
  140.8250   75.7530  221.0020 N   0  0  0  0  0  0  0  0  0  0  0  0
  139.4390   75.9700  220.8390 C   0  0  0  0  0  0  0  0  0  0  0  0
  139.0900   77.1560  220.5290 O   0  0  0  0  0  0  0  0  0  0  0  0
  138.3850   74.9770  220.9910 C   0  0  0  0  0  0  0  0  0  0  0  0
  138.5850   73.9580  221.9660 N   0  0  0  0  0  0  0  0  0  0  0  0
  139.5870   72.9430  221.8030 C   0  0  0  0  0  0  0  0  0  0  0  0
  140.3390   72.8870  220.8000 O   0  0  0  0  0  0  0  0  0  0  0  0
  139.7400   71.9330  222.8480 C   0  0  0  0  0  0  0  0  0  0  0  0
  139.3830   70.6210  222.6290 C   0  0  0  0  0  0  0  0  0  0  0  0
  139.5290   69.6570  223.6300 C   0  0  0  0  0  0  0  0  0  0  0  0
  140.0510   70.0560  224.8660 C   0  0  0  0  0  0  0  0  0  0  0  0
  140.2190   69.1440  225.8960 C   0  0  0  0  0  0  0  0  0  0  0  0
  140.7400   69.5980  227.0970 C   0  0  0  0  0  0  0  0  0  0  0  0
  140.9730   68.4880  228.4330 Cl  0  0  0  0  0  0  0  0  0  0  0  0
  141.0940   70.9140  227.3050 C   0  0  0  0  0  0  0  0  0  0  0  0
  140.9250   71.8310  226.2700 C   0  0  0  0  0  0  0  0  0  0  0  0
  140.3990   71.3800  225.0540 C   0  0  0  0  0  0  0  0  0  0  0  0
  140.2360   72.2590  224.0550 N   0  0  0  0  0  0  0  0  0  0  0  0
  141.4900   78.0150  221.6370 C   0  0  0  0  0  0  0  0  0  0  0  0
  141.5190   79.2940  221.1130 C   0  0  0  0  0  0  0  0  0  0  0  0
  141.2280   80.4210  221.8510 C   0  0  0  0  0  0  0  0  0  0  0  0
  140.8830   80.2950  223.1990 C   0  0  0  0  0  0  0  0  0  0  0  0
  140.8500   79.0230  223.7330 C   0  0  0  0  0  0  0  0  0  0  0  0
  141.1450   77.9040  222.9800 C   0  0  0  0  0  0  0  0  0  0  0  0
  143.6447   75.4805  220.5263 H   0  0  0  0  0  0  0  0  0  0  0  0
  143.0471   74.5054  219.1411 H   0  0  0  0  0  0  0  0  0  0  0  0
  144.7323   75.1272  219.1411 H   0  0  0  0  0  0  0  0  0  0  0  0
  144.0224   77.3641  218.8332 H   0  0  0  0  0  0  0  0  0  0  0  0
  142.1306   75.4326  217.3147 H   0  0  0  0  0  0  0  0  0  0  0  0
  142.4763   77.1171  216.7952 H   0  0  0  0  0  0  0  0  0  0  0  0
  143.7882   75.8900  216.7952 H   0  0  0  0  0  0  0  0  0  0  0  0
  141.9321   78.2281  219.2305 H   0  0  0  0  0  0  0  0  0  0  0  0
  141.1198   76.6329  218.8468 H   0  0  0  0  0  0  0  0  0  0  0  0
  142.7846   76.4945  221.1932 H   0  0  0  0  0  0  0  0  0  0  0  0
  141.1750   74.8180  221.2640 H   0  0  0  0  0  0  0  0  0  0  0  0
  137.4618   75.5127  221.2571 H   0  0  0  0  0  0  0  0  0  0  0  0
  138.3557   74.4457  220.0282 H   0  0  0  0  0  0  0  0  0  0  0  0
  138.0030   73.9050  222.8560 H   0  0  0  0  0  0  0  0  0  0  0  0
  138.9763   70.3272  221.6501 H   0  0  0  0  0  0  0  0  0  0  0  0
  139.2409   68.6106  223.4511 H   0  0  0  0  0  0  0  0  0  0  0  0
  139.9457   68.0868  225.7634 H   0  0  0  0  0  0  0  0  0  0  0  0
  141.5038   71.2353  228.2739 H   0  0  0  0  0  0  0  0  0  0  0  0
  141.1993   72.8876  226.4057 H   0  0  0  0  0  0  0  0  0  0  0  0
  141.7879   79.4184  220.0537 H   0  0  0  0  0  0  0  0  0  0  0  0
  141.2672   81.4148  221.3810 H   0  0  0  0  0  0  0  0  0  0  0  0
  140.6464   81.1772  223.8120 H   0  0  0  0  0  0  0  0  0  0  0  0
  140.5802   78.8966  224.7919 H   0  0  0  0  0  0  0  0  0  0  0  0
  141.1066   76.9098  223.4491 H   0  0  0  0  0  0  0  0  0  0  0  0
  1  2  1  0
  2  3  1  0
  2  4  1  0
  4  5  1  0
  5  6  1  0
  6  7  1  0
  7  8  2  0
  7  9  1  0
  9 10  1  0
 10 11  1  0
 11 12  2  0
 11 13  1  0
 13 14  2  0
 14 15  1  0
 15 16  2  0
 16 17  1  0
 17 18  2  0
 18 19  1  0
 18 20  1  0
 20 21  2  0
 21 22  1  0
 22 23  2  0
  5 24  1  0
 24 25  2  0
 25 26  1  0
 26 27  2  0
 27 28  1  0
 28 29  2  0
 23 13  1  0
 29 24  1  0
 22 16  1  0
  1 30  1  0
  1 31  1  0
  1 32  1  0
  2 33  1  0
  3 34  1  0
  3 35  1  0
  3 36  1  0
  4 37  1  0
  4 38  1  0
  5 39  1  1
  6 40  1  0
  9 41  1  0
  9 42  1  0
 10 43  1  0
 14 44  1  0
 15 45  1  0
 17 46  1  0
 20 47  1  0
 21 48  1  0
 25 49  1  0
 26 50  1  0
 27 51  1  0
 28 52  1  0
 29 53  1  0
M  END
>  <meeko>  (17) 
{"free_energy": -7.9, "intermolecular_energy": -9.99, "internal_energy": -2.17, "cluster_size": 5, "cluster_id": 1, "rank_in_cluster": 5}

$$$$

     RDKit          3D

 53 55  0  0  0  0  0  0  0  0999 V2000
  135.4810   74.9170  224.3620 C   0  0  0  0  0  0  0  0  0  0  0  0
  135.8680   75.4940  223.0190 C   0  0  0  0  0  0  0  0  0  0  0  0
  134.5970   76.0300  222.3770 C   0  0  0  0  0  0  0  0  0  0  0  0
  136.7910   76.6820  223.1700 C   0  0  0  0  0  0  0  0  0  0  0  0
  137.9270   76.7000  222.1920 C   0  0  2  0  0  0  0  0  0  0  0  0
  138.3570   75.3220  221.9160 N   0  0  0  0  0  0  0  0  0  0  0  0
  138.0930   74.6920  220.6790 C   0  0  0  0  0  0  0  0  0  0  0  0
  137.4580   75.3890  219.8200 O   0  0  0  0  0  0  0  0  0  0  0  0
  138.4720   73.3380  220.3010 C   0  0  0  0  0  0  0  0  0  0  0  0
  138.6640   72.3970  221.3520 N   0  0  0  0  0  0  0  0  0  0  0  0
  139.7040   72.5570  222.3290 C   0  0  0  0  0  0  0  0  0  0  0  0
  140.5050   73.5230  222.3150 O   0  0  0  0  0  0  0  0  0  0  0  0
  139.8370   71.5550  223.3830 C   0  0  0  0  0  0  0  0  0  0  0  0
  139.4660   70.2450  223.1740 C   0  0  0  0  0  0  0  0  0  0  0  0
  139.5930   69.2880  224.1850 C   0  0  0  0  0  0  0  0  0  0  0  0
  140.1100   69.6920  225.4210 C   0  0  0  0  0  0  0  0  0  0  0  0
  140.2600   68.7880  226.4600 C   0  0  0  0  0  0  0  0  0  0  0  0
  140.7770   69.2460  227.6610 C   0  0  0  0  0  0  0  0  0  0  0  0
  140.9880   68.1450  229.0080 Cl  0  0  0  0  0  0  0  0  0  0  0  0
  141.1460   70.5600  227.8600 C   0  0  0  0  0  0  0  0  0  0  0  0
  140.9960   71.4690  226.8150 C   0  0  0  0  0  0  0  0  0  0  0  0
  140.4740   71.0130  225.5990 C   0  0  0  0  0  0  0  0  0  0  0  0
  140.3280   71.8860  224.5910 N   0  0  0  0  0  0  0  0  0  0  0  0
  139.0440   77.5610  222.6080 C   0  0  0  0  0  0  0  0  0  0  0  0
  138.8400   78.8260  223.1240 C   0  0  0  0  0  0  0  0  0  0  0  0
  139.8670   79.6560  223.5230 C   0  0  0  0  0  0  0  0  0  0  0  0
  141.1900   79.2210  223.4110 C   0  0  0  0  0  0  0  0  0  0  0  0
  141.4060   77.9590  222.8970 C   0  0  0  0  0  0  0  0  0  0  0  0
  140.3670   77.1400  222.5020 C   0  0  0  0  0  0  0  0  0  0  0  0
  135.9002   75.5421  225.1642 H   0  0  0  0  0  0  0  0  0  0  0  0
  134.3847   74.8949  224.4494 H   0  0  0  0  0  0  0  0  0  0  0  0
  135.8765   73.8943  224.4494 H   0  0  0  0  0  0  0  0  0  0  0  0
  136.3669   74.7091  222.4316 H   0  0  0  0  0  0  0  0  0  0  0  0
  133.8875   76.3292  223.1625 H   0  0  0  0  0  0  0  0  0  0  0  0
  134.8413   76.9017  221.7522 H   0  0  0  0  0  0  0  0  0  0  0  0
  134.1433   75.2466  221.7522 H   0  0  0  0  0  0  0  0  0  0  0  0
  136.1999   77.5991  223.0304 H   0  0  0  0  0  0  0  0  0  0  0  0
  137.2362   76.6135  224.1735 H   0  0  0  0  0  0  0  0  0  0  0  0
  137.5598   77.1540  221.2598 H   0  0  0  0  0  0  0  0  0  0  0  0
  138.8580   74.8120  222.6610 H   0  0  0  0  0  0  0  0  0  0  0  0
  137.6815   72.9443  219.6452 H   0  0  0  0  0  0  0  0  0  0  0  0
  139.4608   73.4421  219.8305 H   0  0  0  0  0  0  0  0  0  0  0  0
  138.0460   71.5370  221.4610 H   0  0  0  0  0  0  0  0  0  0  0  0
  139.0629   69.9469  222.1949 H   0  0  0  0  0  0  0  0  0  0  0  0
  139.2940   68.2434  224.0133 H   0  0  0  0  0  0  0  0  0  0  0  0
  139.9757   67.7328  226.3346 H   0  0  0  0  0  0  0  0  0  0  0  0
  141.5525   70.8852  228.8290 H   0  0  0  0  0  0  0  0  0  0  0  0
  141.2819   72.5235  226.9429 H   0  0  0  0  0  0  0  0  0  0  0  0
  137.8065   79.1898  223.2216 H   0  0  0  0  0  0  0  0  0  0  0  0
  139.6456   80.6548  223.9271 H   0  0  0  0  0  0  0  0  0  0  0  0
  142.0288   79.8614  223.7213 H   0  0  0  0  0  0  0  0  0  0  0  0
  142.4389   77.5937  222.7988 H   0  0  0  0  0  0  0  0  0  0  0  0
  140.5875   76.1409  222.0979 H   0  0  0  0  0  0  0  0  0  0  0  0
  1  2  1  0
  2  3  1  0
  2  4  1  0
  4  5  1  0
  5  6  1  0
  6  7  1  0
  7  8  2  0
  7  9  1  0
  9 10  1  0
 10 11  1  0
 11 12  2  0
 11 13  1  0
 13 14  2  0
 14 15  1  0
 15 16  2  0
 16 17  1  0
 17 18  2  0
 18 19  1  0
 18 20  1  0
 20 21  2  0
 21 22  1  0
 22 23  2  0
  5 24  1  0
 24 25  2  0
 25 26  1  0
 26 27  2  0
 27 28  1  0
 28 29  2  0
 23 13  1  0
 29 24  1  0
 22 16  1  0
  1 30  1  0
  1 31  1  0
  1 32  1  0
  2 33  1  0
  3 34  1  0
  3 35  1  0
  3 36  1  0
  4 37  1  0
  4 38  1  0
  5 39  1  6
  6 40  1  0
  9 41  1  0
  9 42  1  0
 10 43  1  0
 14 44  1  0
 15 45  1  0
 17 46  1  0
 20 47  1  0
 21 48  1  0
 25 49  1  0
 26 50  1  0
 27 51  1  0
 28 52  1  0
 29 53  1  0
M  END
>  <meeko>  (18) 
{"free_energy": -8.04, "intermolecular_energy": -10.13, "internal_energy": -2.25, "cluster_size": 2, "cluster_id": 4, "rank_in_cluster": 2}

$$$$

     RDKit          3D

 53 55  0  0  0  0  0  0  0  0999 V2000
  135.4370   75.2750  224.8490 C   0  0  0  0  0  0  0  0  0  0  0  0
  136.1190   75.2670  223.5000 C   0  0  0  0  0  0  0  0  0  0  0  0
  135.0640   74.9110  222.4650 C   0  0  0  0  0  0  0  0  0  0  0  0
  136.6230   76.6420  223.1240 C   0  0  0  0  0  0  0  0  0  0  0  0
  137.7660   76.6290  222.1540 C   0  0  2  0  0  0  0  0  0  0  0  0
  138.1510   75.2400  221.8700 N   0  0  0  0  0  0  0  0  0  0  0  0
  138.1460   74.7180  220.5580 C   0  0  0  0  0  0  0  0  0  0  0  0
  137.7860   75.5220  219.6370 O   0  0  0  0  0  0  0  0  0  0  0  0
  138.5080   73.3630  220.1650 C   0  0  0  0  0  0  0  0  0  0  0  0
  138.7080   72.4130  221.2070 N   0  0  0  0  0  0  0  0  0  0  0  0
  139.6490   72.6420  222.2670 C   0  0  0  0  0  0  0  0  0  0  0  0
  140.3500   73.6810  222.3400 O   0  0  0  0  0  0  0  0  0  0  0  0
  139.7970   71.6270  223.3070 C   0  0  0  0  0  0  0  0  0  0  0  0
  139.4260   70.3180  223.0840 C   0  0  0  0  0  0  0  0  0  0  0  0
  139.5680   69.3490  224.0800 C   0  0  0  0  0  0  0  0  0  0  0  0
  140.0970   69.7370  225.3160 C   0  0  0  0  0  0  0  0  0  0  0  0
  140.2610   68.8200  226.3410 C   0  0  0  0  0  0  0  0  0  0  0  0
  140.7900   69.2640  227.5430 C   0  0  0  0  0  0  0  0  0  0  0  0
  141.0180   68.1450  228.8720 Cl  0  0  0  0  0  0  0  0  0  0  0  0
  141.1570   70.5750  227.7550 C   0  0  0  0  0  0  0  0  0  0  0  0
  140.9930   71.4980  226.7240 C   0  0  0  0  0  0  0  0  0  0  0  0
  140.4590   71.0580  225.5080 C   0  0  0  0  0  0  0  0  0  0  0  0
  140.2990   71.9430  224.5140 N   0  0  0  0  0  0  0  0  0  0  0  0
  138.9090   77.4480  222.5840 C   0  0  0  0  0  0  0  0  0  0  0  0
  138.7410   78.6890  223.1700 C   0  0  0  0  0  0  0  0  0  0  0  0
  139.7920   79.4790  223.5830 C   0  0  0  0  0  0  0  0  0  0  0  0
  141.1040   79.0290  223.4150 C   0  0  0  0  0  0  0  0  0  0  0  0
  141.2840   77.7910  222.8320 C   0  0  0  0  0  0  0  0  0  0  0  0
  140.2200   77.0120  222.4230 C   0  0  0  0  0  0  0  0  0  0  0  0
  136.1970   75.2661  225.6442 H   0  0  0  0  0  0  0  0  0  0  0  0
  134.8194   76.1805  224.9422 H   0  0  0  0  0  0  0  0  0  0  0  0
  134.7983   74.3843  224.9422 H   0  0  0  0  0  0  0  0  0  0  0  0
  136.9615   74.5608  223.5385 H   0  0  0  0  0  0  0  0  0  0  0  0
  134.1405   74.5994  222.9750 H   0  0  0  0  0  0  0  0  0  0  0  0
  134.8569   75.7890  221.8356 H   0  0  0  0  0  0  0  0  0  0  0  0
  135.4312   74.0870  221.8356 H   0  0  0  0  0  0  0  0  0  0  0  0
  135.7920   77.2031  222.6717 H   0  0  0  0  0  0  0  0  0  0  0  0
  136.9956   77.1078  224.0482 H   0  0  0  0  0  0  0  0  0  0  0  0
  137.4205   77.1028  221.2233 H   0  0  0  0  0  0  0  0  0  0  0  0
  138.4220   74.6390  222.6650 H   0  0  0  0  0  0  0  0  0  0  0  0
  137.7044   72.9804  219.5186 H   0  0  0  0  0  0  0  0  0  0  0  0
  139.4904   73.4621  219.6802 H   0  0  0  0  0  0  0  0  0  0  0  0
  138.1710   71.4950  221.2470 H   0  0  0  0  0  0  0  0  0  0  0  0
  139.0115   70.0321  222.1060 H   0  0  0  0  0  0  0  0  0  0  0  0
  139.2710   68.3058  223.8971 H   0  0  0  0  0  0  0  0  0  0  0  0
  139.9785   67.7657  226.2047 H   0  0  0  0  0  0  0  0  0  0  0  0
  141.5733   70.8884  228.7238 H   0  0  0  0  0  0  0  0  0  0  0  0
  141.2777   72.5513  226.8634 H   0  0  0  0  0  0  0  0  0  0  0  0
  137.7171   79.0646  223.3138 H   0  0  0  0  0  0  0  0  0  0  0  0
  139.5988   80.4594  224.0428 H   0  0  0  0  0  0  0  0  0  0  0  0
  141.9616   79.6387  223.7355 H   0  0  0  0  0  0  0  0  0  0  0  0
  142.3071   77.4132  222.6887 H   0  0  0  0  0  0  0  0  0  0  0  0
  140.4120   76.0315  221.9628 H   0  0  0  0  0  0  0  0  0  0  0  0
  1  2  1  0
  2  3  1  0
  2  4  1  0
  4  5  1  0
  5  6  1  0
  6  7  1  0
  7  8  2  0
  7  9  1  0
  9 10  1  0
 10 11  1  0
 11 12  2  0
 11 13  1  0
 13 14  2  0
 14 15  1  0
 15 16  2  0
 16 17  1  0
 17 18  2  0
 18 19  1  0
 18 20  1  0
 20 21  2  0
 21 22  1  0
 22 23  2  0
  5 24  1  0
 24 25  2  0
 25 26  1  0
 26 27  2  0
 27 28  1  0
 28 29  2  0
 23 13  1  0
 29 24  1  0
 22 16  1  0
  1 30  1  0
  1 31  1  0
  1 32  1  0
  2 33  1  0
  3 34  1  0
  3 35  1  0
  3 36  1  0
  4 37  1  0
  4 38  1  0
  5 39  1  6
  6 40  1  0
  9 41  1  0
  9 42  1  0
 10 43  1  0
 14 44  1  0
 15 45  1  0
 17 46  1  0
 20 47  1  0
 21 48  1  0
 25 49  1  0
 26 50  1  0
 27 51  1  0
 28 52  1  0
 29 53  1  0
M  END
>  <meeko>  (19) 
{"free_energy": -8.17, "intermolecular_energy": -10.26, "internal_energy": -2.32, "cluster_size": 2, "cluster_id": 4, "rank_in_cluster": 1}

$$$$

     RDKit          3D

 53 55  0  0  0  0  0  0  0  0999 V2000
  137.4990   78.0450  222.7480 C   0  0  0  0  0  0  0  0  0  0  0  0
  138.8280   77.4010  222.4270 C   0  0  0  0  0  0  0  0  0  0  0  0
  138.5890   75.9020  222.3300 C   0  0  0  0  0  0  0  0  0  0  0  0
  139.3400   77.8290  221.0700 C   0  0  0  0  0  0  0  0  0  0  0  0
  140.8290   77.9950  221.0040 C   0  0  2  0  0  0  0  0  0  0  0  0
  141.4730   76.6780  221.1120 N   0  0  0  0  0  0  0  0  0  0  0  0
  141.2980   75.6800  220.1280 C   0  0  0  0  0  0  0  0  0  0  0  0
  140.5460   75.9870  219.1450 O   0  0  0  0  0  0  0  0  0  0  0  0
  141.8860   74.3480  220.1340 C   0  0  0  0  0  0  0  0  0  0  0  0
  141.5680   73.4990  221.2330 N   0  0  0  0  0  0  0  0  0  0  0  0
  140.2480   72.9650  221.4170 C   0  0  0  0  0  0  0  0  0  0  0  0
  139.3000   73.2120  220.6320 O   0  0  0  0  0  0  0  0  0  0  0  0
  139.9960   72.0960  222.5640 C   0  0  0  0  0  0  0  0  0  0  0  0
  139.0520   71.0940  222.5060 C   0  0  0  0  0  0  0  0  0  0  0  0
  138.8120   70.2650  223.6040 C   0  0  0  0  0  0  0  0  0  0  0  0
  139.5550   70.4740  224.7710 C   0  0  0  0  0  0  0  0  0  0  0  0
  139.3610   69.6830  225.8920 C   0  0  0  0  0  0  0  0  0  0  0  0
  140.1270   69.9390  227.0180 C   0  0  0  0  0  0  0  0  0  0  0  0
  139.9220   68.9680  228.4630 Cl  0  0  0  0  0  0  0  0  0  0  0  0
  141.0690   70.9440  227.0650 C   0  0  0  0  0  0  0  0  0  0  0  0
  141.2650   71.7400  225.9380 C   0  0  0  0  0  0  0  0  0  0  0  0
  140.4950   71.4880  224.7980 C   0  0  0  0  0  0  0  0  0  0  0  0
  140.6800   72.2520  223.7110 N   0  0  0  0  0  0  0  0  0  0  0  0
  141.3550   78.9550  221.9850 C   0  0  0  0  0  0  0  0  0  0  0  0
  141.5840   80.2800  221.6620 C   0  0  0  0  0  0  0  0  0  0  0  0
  142.0770   81.2030  222.5580 C   0  0  0  0  0  0  0  0  0  0  0  0
  142.3670   80.8100  223.8670 C   0  0  0  0  0  0  0  0  0  0  0  0
  142.1420   79.4900  224.2020 C   0  0  0  0  0  0  0  0  0  0  0  0
  141.6490   78.5770  223.2910 C   0  0  0  0  0  0  0  0  0  0  0  0
  137.3748   78.1052  223.8393 H   0  0  0  0  0  0  0  0  0  0  0  0
  137.4691   79.0575  222.3192 H   0  0  0  0  0  0  0  0  0  0  0  0
  136.6858   77.4410  222.3192 H   0  0  0  0  0  0  0  0  0  0  0  0
  139.5521   77.6877  223.2038 H   0  0  0  0  0  0  0  0  0  0  0  0
  138.5210   75.4753  223.3416 H   0  0  0  0  0  0  0  0  0  0  0  0
  137.6497   75.7147  221.7891 H   0  0  0  0  0  0  0  0  0  0  0  0
  139.4235   75.4319  221.7891 H   0  0  0  0  0  0  0  0  0  0  0  0
  139.0438   77.0681  220.3329 H   0  0  0  0  0  0  0  0  0  0  0  0
  138.9004   78.8154  220.8608 H   0  0  0  0  0  0  0  0  0  0  0  0
  141.0743   78.4354  220.0263 H   0  0  0  0  0  0  0  0  0  0  0  0
  142.0600   76.4920  221.9400 H   0  0  0  0  0  0  0  0  0  0  0  0
  141.5580   73.8377  219.2164 H   0  0  0  0  0  0  0  0  0  0  0  0
  142.9700   74.5178  220.2124 H   0  0  0  0  0  0  0  0  0  0  0  0
  142.2910   73.2250  221.9630 H   0  0  0  0  0  0  0  0  0  0  0  0
  138.4780   70.9446  221.5796 H   0  0  0  0  0  0  0  0  0  0  0  0
  138.0569   69.4668  223.5526 H   0  0  0  0  0  0  0  0  0  0  0  0
  138.6176   68.8722  225.8882 H   0  0  0  0  0  0  0  0  0  0  0  0
  141.6574   71.1153  227.9785 H   0  0  0  0  0  0  0  0  0  0  0  0
  142.0097   72.5495  225.9449 H   0  0  0  0  0  0  0  0  0  0  0  0
  141.3612   80.6138  220.6378 H   0  0  0  0  0  0  0  0  0  0  0  0
  142.2415   82.2444  222.2444 H   0  0  0  0  0  0  0  0  0  0  0  0
  142.7602   81.5262  224.6035 H   0  0  0  0  0  0  0  0  0  0  0  0
  142.3622   79.1551  225.2264 H   0  0  0  0  0  0  0  0  0  0  0  0
  141.4862   77.5347  223.6028 H   0  0  0  0  0  0  0  0  0  0  0  0
  1  2  1  0
  2  3  1  0
  2  4  1  0
  4  5  1  0
  5  6  1  0
  6  7  1  0
  7  8  2  0
  7  9  1  0
  9 10  1  0
 10 11  1  0
 11 12  2  0
 11 13  1  0
 13 14  2  0
 14 15  1  0
 15 16  2  0
 16 17  1  0
 17 18  2  0
 18 19  1  0
 18 20  1  0
 20 21  2  0
 21 22  1  0
 22 23  2  0
  5 24  1  0
 24 25  2  0
 25 26  1  0
 26 27  2  0
 27 28  1  0
 28 29  2  0
 23 13  1  0
 29 24  1  0
 22 16  1  0
  1 30  1  0
  1 31  1  0
  1 32  1  0
  2 33  1  0
  3 34  1  0
  3 35  1  0
  3 36  1  0
  4 37  1  0
  4 38  1  0
  5 39  1  6
  6 40  1  0
  9 41  1  0
  9 42  1  0
 10 43  1  0
 14 44  1  0
 15 45  1  0
 17 46  1  0
 20 47  1  0
 21 48  1  0
 25 49  1  0
 26 50  1  0
 27 51  1  0
 28 52  1  0
 29 53  1  0
M  END
>  <meeko>  (20) 
{"free_energy": -8.13, "intermolecular_energy": -10.22, "internal_energy": -1.9, "cluster_size": 5, "cluster_id": 1, "rank_in_cluster": 3}

$$$$
