
     RDKit          3D

 42 44  0  0  0  0  0  0  0  0999 V2000
  141.2080   71.3800  221.1630 O   0  0  0  0  0  0  0  0  0  0  0  0
  140.6470   72.2730  221.8530 C   0  0  0  0  0  0  0  0  0  0  0  0
  139.7420   71.8950  222.8830 N   0  0  0  0  0  0  0  0  0  0  0  0
  139.4910   70.5080  223.1090 C   0  0  0  0  0  0  0  0  0  0  0  0
  139.0110   70.2560  224.5060 C   0  0  0  0  0  0  0  0  0  0  0  0
  137.7880   69.9520  224.6210 O   0  0  0  0  0  0  0  0  0  0  0  0
  139.8790   70.3540  225.6020 N   0  0  0  0  0  0  0  0  0  0  0  0
  140.3290   71.6160  226.2070 C   0  0  0  0  0  0  0  0  0  0  0  0
  141.3720   71.2270  227.2200 C   0  0  0  0  0  0  0  0  0  0  0  0
  140.8210   69.8670  227.6670 C   0  0  0  0  0  0  0  0  0  0  0  0
  140.4710   69.2650  226.3190 C   0  0  1  0  0  0  0  0  0  0  0  0
  139.5500   68.0930  226.5390 C   0  0  0  0  0  0  0  0  0  0  0  0
  139.2050   67.4240  225.3910 O   0  0  0  0  0  0  0  0  0  0  0  0
  140.9210   73.6830  221.6020 C   0  0  0  0  0  0  0  0  0  0  0  0
  141.9240   74.0320  220.7150 C   0  0  0  0  0  0  0  0  0  0  0  0
  142.1590   75.3820  220.4980 C   0  0  0  0  0  0  0  0  0  0  0  0
  141.4440   76.3770  221.1230 C   0  0  0  0  0  0  0  0  0  0  0  0
  141.7100   77.7130  220.8790 C   0  0  0  0  0  0  0  0  0  0  0  0
  140.9350   78.6530  221.5550 C   0  0  0  0  0  0  0  0  0  0  0  0
  141.2430   80.3540  221.2730 Cl  0  0  0  0  0  0  0  0  0  0  0  0
  139.9440   78.2450  222.4330 C   0  0  0  0  0  0  0  0  0  0  0  0
  139.6800   76.9170  222.6750 C   0  0  0  0  0  0  0  0  0  0  0  0
  140.4540   75.9780  221.9990 C   0  0  0  0  0  0  0  0  0  0  0  0
  140.2430   74.6830  222.1930 N   0  0  0  0  0  0  0  0  0  0  0  0
  139.2450   72.5960  223.4920 H   0  0  0  0  0  0  0  0  0  0  0  0
  138.7236   70.1637  222.4001 H   0  0  0  0  0  0  0  0  0  0  0  0
  140.4333   69.9592  222.9641 H   0  0  0  0  0  0  0  0  0  0  0  0
  140.7637   72.2757  225.4416 H   0  0  0  0  0  0  0  0  0  0  0  0
  139.4964   72.1666  226.6693 H   0  0  0  0  0  0  0  0  0  0  0  0
  142.3684   71.1330  226.7635 H   0  0  0  0  0  0  0  0  0  0  0  0
  141.5211   71.9542  228.0318 H   0  0  0  0  0  0  0  0  0  0  0  0
  141.5816   69.2722  228.1940 H   0  0  0  0  0  0  0  0  0  0  0  0
  139.9857   69.9188  228.3809 H   0  0  0  0  0  0  0  0  0  0  0  0
  141.3196   68.8595  225.7485 H   0  0  0  0  0  0  0  0  0  0  0  0
  140.0503   67.3834  227.2144 H   0  0  0  0  0  0  0  0  0  0  0  0
  138.6182   68.4985  226.9601 H   0  0  0  0  0  0  0  0  0  0  0  0
  138.5660   67.9570  224.8230 H   0  0  0  0  0  0  0  0  0  0  0  0
  142.5166   73.2630  220.1979 H   0  0  0  0  0  0  0  0  0  0  0  0
  142.9536   75.6698  219.7938 H   0  0  0  0  0  0  0  0  0  0  0  0
  142.5014   78.0204  220.1796 H   0  0  0  0  0  0  0  0  0  0  0  0
  139.3482   79.0089  222.9541 H   0  0  0  0  0  0  0  0  0  0  0  0
  138.8889   76.6093  223.3747 H   0  0  0  0  0  0  0  0  0  0  0  0
  1  2  2  0
  2  3  1  0
  3  4  1  0
  4  5  1  0
  5  6  2  0
  5  7  1  0
  7  8  1  0
  8  9  1  0
  9 10  1  0
 10 11  1  0
 11 12  1  0
 12 13  1  0
  2 14  1  0
 14 15  2  0
 15 16  1  0
 16 17  2  0
 17 18  1  0
 18 19  2  0
 19 20  1  0
 19 21  1  0
 21 22  2  0
 22 23  1  0
 23 24  2  0
 11  7  1  0
 24 14  1  0
 23 17  1  0
  3 25  1  0
  4 26  1  0
  4 27  1  0
  8 28  1  0
  8 29  1  0
  9 30  1  0
  9 31  1  0
 10 32  1  0
 10 33  1  0
 11 34  1  6
 12 35  1  0
 12 36  1  0
 13 37  1  0
 15 38  1  0
 16 39  1  0
 18 40  1  0
 21 41  1  0
 22 42  1  0
M  END
>  <meeko>  (1) 
{"free_energy": -6.88, "intermolecular_energy": -8.67, "internal_energy": -1.82, "cluster_size": 11, "cluster_id": 2, "rank_in_cluster": 4}

$$$$

     RDKit          3D

 42 44  0  0  0  0  0  0  0  0999 V2000
  140.2750   71.2200  221.3670 O   0  0  0  0  0  0  0  0  0  0  0  0
  139.8040   72.2310  221.9540 C   0  0  0  0  0  0  0  0  0  0  0  0
  138.7570   72.0650  222.9020 N   0  0  0  0  0  0  0  0  0  0  0  0
  138.2640   70.7510  223.1650 C   0  0  0  0  0  0  0  0  0  0  0  0
  139.3190   69.8820  223.7810 C   0  0  0  0  0  0  0  0  0  0  0  0
  139.5440   68.7870  223.1880 O   0  0  0  0  0  0  0  0  0  0  0  0
  140.0030   70.2770  224.9390 N   0  0  0  0  0  0  0  0  0  0  0  0
  140.4450   71.6490  225.2270 C   0  0  0  0  0  0  0  0  0  0  0  0
  141.2770   71.5490  226.4760 C   0  0  0  0  0  0  0  0  0  0  0  0
  140.5590   70.3960  227.1900 C   0  0  0  0  0  0  0  0  0  0  0  0
  140.3860   69.4330  226.0300 C   0  0  1  0  0  0  0  0  0  0  0  0
  139.3550   68.4020  226.4100 C   0  0  0  0  0  0  0  0  0  0  0  0
  139.2020   67.3930  225.4930 O   0  0  0  0  0  0  0  0  0  0  0  0
  140.3240   73.5630  221.6660 C   0  0  0  0  0  0  0  0  0  0  0  0
  141.3840   73.7010  220.7870 C   0  0  0  0  0  0  0  0  0  0  0  0
  141.8560   74.9820  220.5340 C   0  0  0  0  0  0  0  0  0  0  0  0
  141.3190   76.1060  221.1170 C   0  0  0  0  0  0  0  0  0  0  0  0
  141.8190   77.3660  220.8380 C   0  0  0  0  0  0  0  0  0  0  0  0
  141.2130   78.4490  221.4720 C   0  0  0  0  0  0  0  0  0  0  0  0
  141.8190   80.0600  221.1450 Cl  0  0  0  0  0  0  0  0  0  0  0  0
  140.1550   78.2500  222.3440 C   0  0  0  0  0  0  0  0  0  0  0  0
  139.6580   76.9970  222.6200 C   0  0  0  0  0  0  0  0  0  0  0  0
  140.2630   75.9150  221.9860 C   0  0  0  0  0  0  0  0  0  0  0  0
  139.8260   74.6850  222.2150 N   0  0  0  0  0  0  0  0  0  0  0  0
  138.3250   72.8720  223.4220 H   0  0  0  0  0  0  0  0  0  0  0  0
  137.4104   70.8209  223.8553 H   0  0  0  0  0  0  0  0  0  0  0  0
  137.9587   70.2990  222.2097 H   0  0  0  0  0  0  0  0  0  0  0  0
  141.0471   72.0417  224.3944 H   0  0  0  0  0  0  0  0  0  0  0  0
  139.5936   72.3333  225.3573 H   0  0  0  0  0  0  0  0  0  0  0  0
  142.3238   71.2986  226.2491 H   0  0  0  0  0  0  0  0  0  0  0  0
  141.3478   72.4794  227.0586 H   0  0  0  0  0  0  0  0  0  0  0  0
  141.1773   69.9637  227.9905 H   0  0  0  0  0  0  0  0  0  0  0  0
  139.6264   70.6773  227.7011 H   0  0  0  0  0  0  0  0  0  0  0  0
  141.2819   68.8556  225.7579 H   0  0  0  0  0  0  0  0  0  0  0  0
  139.6532   67.9537  227.3692 H   0  0  0  0  0  0  0  0  0  0  0  0
  138.3898   68.9267  226.4655 H   0  0  0  0  0  0  0  0  0  0  0  0
  139.6150   67.6270  224.6040 H   0  0  0  0  0  0  0  0  0  0  0  0
  141.8383   72.8234  220.3040 H   0  0  0  0  0  0  0  0  0  0  0  0
  142.6973   75.1034  219.8358 H   0  0  0  0  0  0  0  0  0  0  0  0
  142.6607   77.5069  220.1439 H   0  0  0  0  0  0  0  0  0  0  0  0
  139.6970   79.1229  222.8320 H   0  0  0  0  0  0  0  0  0  0  0  0
  138.8162   76.8557  223.3139 H   0  0  0  0  0  0  0  0  0  0  0  0
  1  2  2  0
  2  3  1  0
  3  4  1  0
  4  5  1  0
  5  6  2  0
  5  7  1  0
  7  8  1  0
  8  9  1  0
  9 10  1  0
 10 11  1  0
 11 12  1  0
 12 13  1  0
  2 14  1  0
 14 15  2  0
 15 16  1  0
 16 17  2  0
 17 18  1  0
 18 19  2  0
 19 20  1  0
 19 21  1  0
 21 22  2  0
 22 23  1  0
 23 24  2  0
 11  7  1  0
 24 14  1  0
 23 17  1  0
  3 25  1  0
  4 26  1  0
  4 27  1  0
  8 28  1  0
  8 29  1  0
  9 30  1  0
  9 31  1  0
 10 32  1  0
 10 33  1  0
 11 34  1  6
 12 35  1  0
 12 36  1  0
 13 37  1  0
 15 38  1  0
 16 39  1  0
 18 40  1  0
 21 41  1  0
 22 42  1  0
M  END
>  <meeko>  (2) 
{"free_energy": -6.83, "intermolecular_energy": -8.62, "internal_energy": -1.92, "cluster_size": 11, "cluster_id": 2, "rank_in_cluster": 6}

$$$$

     RDKit          3D

 42 44  0  0  0  0  0  0  0  0999 V2000
  140.2320   72.3530  220.7060 O   0  0  0  0  0  0  0  0  0  0  0  0
  140.0260   72.7360  221.8890 C   0  0  0  0  0  0  0  0  0  0  0  0
  139.7800   74.1130  222.1460 N   0  0  0  0  0  0  0  0  0  0  0  0
  139.7730   75.0310  221.0520 C   0  0  0  0  0  0  0  0  0  0  0  0
  140.0960   76.4230  221.5000 C   0  0  0  0  0  0  0  0  0  0  0  0
  139.8350   76.6850  222.7110 O   0  0  0  0  0  0  0  0  0  0  0  0
  140.6540   77.3600  220.6200 N   0  0  0  0  0  0  0  0  0  0  0  0
  140.3080   77.4860  219.1970 C   0  0  0  0  0  0  0  0  0  0  0  0
  141.2780   78.4900  218.6350 C   0  0  0  0  0  0  0  0  0  0  0  0
  141.4700   79.3960  219.8580 C   0  0  0  0  0  0  0  0  0  0  0  0
  141.6400   78.3470  220.9410 C   0  0  1  0  0  0  0  0  0  0  0  0
  141.4470   79.0050  222.2830 C   0  0  0  0  0  0  0  0  0  0  0  0
  141.8660   78.2470  223.3480 O   0  0  0  0  0  0  0  0  0  0  0  0
  140.0400   71.7790  222.9890 C   0  0  0  0  0  0  0  0  0  0  0  0
  139.5500   70.5010  222.7820 C   0  0  0  0  0  0  0  0  0  0  0  0
  139.5770   69.6140  223.8490 C   0  0  0  0  0  0  0  0  0  0  0  0
  140.0640   69.9510  225.0910 C   0  0  0  0  0  0  0  0  0  0  0  0
  140.0730   69.0360  226.1290 C   0  0  0  0  0  0  0  0  0  0  0  0
  140.5860   69.4620  227.3520 C   0  0  0  0  0  0  0  0  0  0  0  0
  140.6140   68.3330  228.6910 Cl  0  0  0  0  0  0  0  0  0  0  0  0
  141.0620   70.7550  227.5020 C   0  0  0  0  0  0  0  0  0  0  0  0
  141.0540   71.6630  226.4680 C   0  0  0  0  0  0  0  0  0  0  0  0
  140.5420   71.2370  225.2460 C   0  0  0  0  0  0  0  0  0  0  0  0
  140.5080   72.0700  224.2160 N   0  0  0  0  0  0  0  0  0  0  0  0
  139.6010   74.4910  223.1120 H   0  0  0  0  0  0  0  0  0  0  0  0
  140.5217   74.7110  220.3124 H   0  0  0  0  0  0  0  0  0  0  0  0
  138.7646   75.0357  220.6125 H   0  0  0  0  0  0  0  0  0  0  0  0
  140.4185   76.5175  218.6872 H   0  0  0  0  0  0  0  0  0  0  0  0
  139.2644   77.8043  219.0573 H   0  0  0  0  0  0  0  0  0  0  0  0
  142.2217   78.0163  218.3267 H   0  0  0  0  0  0  0  0  0  0  0  0
  140.9329   79.0070  217.7274 H   0  0  0  0  0  0  0  0  0  0  0  0
  142.3638   80.0297  219.7600 H   0  0  0  0  0  0  0  0  0  0  0  0
  140.6560   80.1147  220.0337 H   0  0  0  0  0  0  0  0  0  0  0  0
  142.6337   77.8779  220.9918 H   0  0  0  0  0  0  0  0  0  0  0  0
  142.0116   79.9490  222.2885 H   0  0  0  0  0  0  0  0  0  0  0  0
  140.3644   79.1543  222.4085 H   0  0  0  0  0  0  0  0  0  0  0  0
  141.8570   77.2620  223.1350 H   0  0  0  0  0  0  0  0  0  0  0  0
  139.1517   70.1980  221.8024 H   0  0  0  0  0  0  0  0  0  0  0  0
  139.1916   68.5953  223.6948 H   0  0  0  0  0  0  0  0  0  0  0  0
  139.6905   68.0135  225.9938 H   0  0  0  0  0  0  0  0  0  0  0  0
  141.4592   71.0656  228.4796 H   0  0  0  0  0  0  0  0  0  0  0  0
  141.4372   72.6853  226.6021 H   0  0  0  0  0  0  0  0  0  0  0  0
  1  2  2  0
  2  3  1  0
  3  4  1  0
  4  5  1  0
  5  6  2  0
  5  7  1  0
  7  8  1  0
  8  9  1  0
  9 10  1  0
 10 11  1  0
 11 12  1  0
 12 13  1  0
  2 14  1  0
 14 15  2  0
 15 16  1  0
 16 17  2  0
 17 18  1  0
 18 19  2  0
 19 20  1  0
 19 21  1  0
 21 22  2  0
 22 23  1  0
 23 24  2  0
 11  7  1  0
 24 14  1  0
 23 17  1  0
  3 25  1  0
  4 26  1  0
  4 27  1  0
  8 28  1  0
  8 29  1  0
  9 30  1  0
  9 31  1  0
 10 32  1  0
 10 33  1  0
 11 34  1  1
 12 35  1  0
 12 36  1  0
 13 37  1  0
 15 38  1  0
 16 39  1  0
 18 40  1  0
 21 41  1  0
 22 42  1  0
M  END
>  <meeko>  (3) 
{"free_energy": -6.58, "intermolecular_energy": -8.37, "internal_energy": -2.09, "cluster_size": 8, "cluster_id": 1, "rank_in_cluster": 6}

$$$$

     RDKit          3D

 42 44  0  0  0  0  0  0  0  0999 V2000
  141.0570   71.3150  221.2900 O   0  0  0  0  0  0  0  0  0  0  0  0
  140.8050   72.3590  221.9500 C   0  0  0  0  0  0  0  0  0  0  0  0
  140.2400   72.2460  223.2500 N   0  0  0  0  0  0  0  0  0  0  0  0
  139.9690   70.9460  223.7760 C   0  0  0  0  0  0  0  0  0  0  0  0
  140.2680   70.8750  225.2430 C   0  0  0  0  0  0  0  0  0  0  0  0
  140.7170   71.9360  225.7650 O   0  0  0  0  0  0  0  0  0  0  0  0
  140.0530   69.6980  225.9720 N   0  0  0  0  0  0  0  0  0  0  0  0
  139.9390   68.3550  225.3860 C   0  0  0  0  0  0  0  0  0  0  0  0
  139.5390   67.4520  226.5220 C   0  0  0  0  0  0  0  0  0  0  0  0
  140.2630   68.1440  227.6850 C   0  0  0  0  0  0  0  0  0  0  0  0
  139.9120   69.5910  227.3930 C   0  0  1  0  0  0  0  0  0  0  0  0
  140.8420   70.4800  228.1780 C   0  0  0  0  0  0  0  0  0  0  0  0
  140.3280   71.7200  228.4650 O   0  0  0  0  0  0  0  0  0  0  0  0
  141.0900   73.6750  221.3890 C   0  0  0  0  0  0  0  0  0  0  0  0
  141.7300   73.7660  220.1650 C   0  0  0  0  0  0  0  0  0  0  0  0
  141.9870   75.0330  219.6590 C   0  0  0  0  0  0  0  0  0  0  0  0
  141.6350   76.1880  220.3180 C   0  0  0  0  0  0  0  0  0  0  0  0
  141.9090   77.4330  219.7780 C   0  0  0  0  0  0  0  0  0  0  0  0
  141.5160   78.5480  220.5140 C   0  0  0  0  0  0  0  0  0  0  0  0
  141.8460   80.1420  219.8640 Cl  0  0  0  0  0  0  0  0  0  0  0  0
  140.8790   78.3970  221.7340 C   0  0  0  0  0  0  0  0  0  0  0  0
  140.6060   77.1580  222.2700 C   0  0  0  0  0  0  0  0  0  0  0  0
  140.9980   76.0440  221.5350 C   0  0  0  0  0  0  0  0  0  0  0  0
  140.7610   74.8260  222.0020 N   0  0  0  0  0  0  0  0  0  0  0  0
  140.0080   73.0820  223.8460 H   0  0  0  0  0  0  0  0  0  0  0  0
  138.9067   70.7096  223.6157 H   0  0  0  0  0  0  0  0  0  0  0  0
  140.6135   70.2217  223.2564 H   0  0  0  0  0  0  0  0  0  0  0  0
  139.1719   68.3436  224.5977 H   0  0  0  0  0  0  0  0  0  0  0  0
  140.8820   68.0318  224.9209 H   0  0  0  0  0  0  0  0  0  0  0  0
  138.4490   67.4407  226.6694 H   0  0  0  0  0  0  0  0  0  0  0  0
  139.7973   66.3919  226.3824 H   0  0  0  0  0  0  0  0  0  0  0  0
  139.8722   67.8183  228.6603 H   0  0  0  0  0  0  0  0  0  0  0  0
  141.3407   67.9335  227.7497 H   0  0  0  0  0  0  0  0  0  0  0  0
  138.8994   69.9001  227.6914 H   0  0  0  0  0  0  0  0  0  0  0  0
  141.0800   69.9774  229.1271 H   0  0  0  0  0  0  0  0  0  0  0  0
  141.7285   70.6440  227.5478 H   0  0  0  0  0  0  0  0  0  0  0  0
  140.5180   72.3840  227.7310 H   0  0  0  0  0  0  0  0  0  0  0  0
  142.0256   72.8630  219.6108 H   0  0  0  0  0  0  0  0  0  0  0  0
  142.4952   75.1171  218.6870 H   0  0  0  0  0  0  0  0  0  0  0  0
  142.4163   77.5372  218.8075 H   0  0  0  0  0  0  0  0  0  0  0  0
  140.5812   79.2960  222.2935 H   0  0  0  0  0  0  0  0  0  0  0  0
  140.0984   77.0536  223.2403 H   0  0  0  0  0  0  0  0  0  0  0  0
  1  2  2  0
  2  3  1  0
  3  4  1  0
  4  5  1  0
  5  6  2  0
  5  7  1  0
  7  8  1  0
  8  9  1  0
  9 10  1  0
 10 11  1  0
 11 12  1  0
 12 13  1  0
  2 14  1  0
 14 15  2  0
 15 16  1  0
 16 17  2  0
 17 18  1  0
 18 19  2  0
 19 20  1  0
 19 21  1  0
 21 22  2  0
 22 23  1  0
 23 24  2  0
 11  7  1  0
 24 14  1  0
 23 17  1  0
  3 25  1  0
  4 26  1  0
  4 27  1  0
  8 28  1  0
  8 29  1  0
  9 30  1  0
  9 31  1  0
 10 32  1  0
 10 33  1  0
 11 34  1  6
 12 35  1  0
 12 36  1  0
 13 37  1  0
 15 38  1  0
 16 39  1  0
 18 40  1  0
 21 41  1  0
 22 42  1  0
M  END
>  <meeko>  (4) 
{"free_energy": -6.58, "intermolecular_energy": -8.37, "internal_energy": -2.07, "cluster_size": 11, "cluster_id": 2, "rank_in_cluster": 10}

$$$$

     RDKit          3D

 42 44  0  0  0  0  0  0  0  0999 V2000
  141.0900   71.3080  221.0570 O   0  0  0  0  0  0  0  0  0  0  0  0
  140.5560   72.2000  221.7690 C   0  0  0  0  0  0  0  0  0  0  0  0
  139.6460   71.8240  222.7960 N   0  0  0  0  0  0  0  0  0  0  0  0
  139.3610   70.4390  222.9940 C   0  0  0  0  0  0  0  0  0  0  0  0
  138.9680   70.1560  224.4120 C   0  0  0  0  0  0  0  0  0  0  0  0
  137.7800   69.7570  224.5840 O   0  0  0  0  0  0  0  0  0  0  0  0
  139.8750   70.3280  225.4670 N   0  0  0  0  0  0  0  0  0  0  0  0
  140.3310   71.6270  225.9800 C   0  0  0  0  0  0  0  0  0  0  0  0
  141.4170   71.3100  226.9730 C   0  0  0  0  0  0  0  0  0  0  0  0
  140.9020   69.9710  227.5190 C   0  0  0  0  0  0  0  0  0  0  0  0
  140.5090   69.2890  226.2220 C   0  0  1  0  0  0  0  0  0  0  0  0
  139.6120   68.1210  226.5450 C   0  0  0  0  0  0  0  0  0  0  0  0
  139.2340   67.3820  225.4520 O   0  0  0  0  0  0  0  0  0  0  0  0
  140.8630   73.6080  221.5450 C   0  0  0  0  0  0  0  0  0  0  0  0
  141.9010   73.9490  220.6960 C   0  0  0  0  0  0  0  0  0  0  0  0
  142.1680   75.2970  220.5040 C   0  0  0  0  0  0  0  0  0  0  0  0
  141.4510   76.2970  221.1190 C   0  0  0  0  0  0  0  0  0  0  0  0
  141.7490   77.6310  220.9010 C   0  0  0  0  0  0  0  0  0  0  0  0
  140.9710   78.5760  221.5640 C   0  0  0  0  0  0  0  0  0  0  0  0
  141.3190   80.2750  221.3140 Cl  0  0  0  0  0  0  0  0  0  0  0  0
  139.9440   78.1770  222.4040 C   0  0  0  0  0  0  0  0  0  0  0  0
  139.6480   76.8510  222.6190 C   0  0  0  0  0  0  0  0  0  0  0  0
  140.4250   75.9060  221.9570 C   0  0  0  0  0  0  0  0  0  0  0  0
  140.1850   74.6130  222.1270 N   0  0  0  0  0  0  0  0  0  0  0  0
  139.1690   72.5240  223.4210 H   0  0  0  0  0  0  0  0  0  0  0  0
  138.5354   70.1454  222.3290 H   0  0  0  0  0  0  0  0  0  0  0  0
  140.2706   69.8637  222.7668 H   0  0  0  0  0  0  0  0  0  0  0  0
  140.7275   72.2456  225.1614 H   0  0  0  0  0  0  0  0  0  0  0  0
  139.5093   72.1940  226.4419 H   0  0  0  0  0  0  0  0  0  0  0  0
  142.3967   71.2013  226.4847 H   0  0  0  0  0  0  0  0  0  0  0  0
  141.5865   72.0849  227.7351 H   0  0  0  0  0  0  0  0  0  0  0  0
  141.6903   69.4163  228.0490 H   0  0  0  0  0  0  0  0  0  0  0  0
  140.0943   70.0540  228.2611 H   0  0  0  0  0  0  0  0  0  0  0  0
  141.3408   68.8614  225.6430 H   0  0  0  0  0  0  0  0  0  0  0  0
  140.1464   67.4581  227.2414 H   0  0  0  0  0  0  0  0  0  0  0  0
  138.6911   68.5400  226.9767 H   0  0  0  0  0  0  0  0  0  0  0  0
  138.9770   67.9670  224.6730 H   0  0  0  0  0  0  0  0  0  0  0  0
  142.4962   73.1753  220.1889 H   0  0  0  0  0  0  0  0  0  0  0  0
  142.9901   75.5787  219.8296 H   0  0  0  0  0  0  0  0  0  0  0  0
  142.5676   77.9323  220.2309 H   0  0  0  0  0  0  0  0  0  0  0  0
  139.3459   78.9455  222.9156 H   0  0  0  0  0  0  0  0  0  0  0  0
  138.8288   76.5496  223.2884 H   0  0  0  0  0  0  0  0  0  0  0  0
  1  2  2  0
  2  3  1  0
  3  4  1  0
  4  5  1  0
  5  6  2  0
  5  7  1  0
  7  8  1  0
  8  9  1  0
  9 10  1  0
 10 11  1  0
 11 12  1  0
 12 13  1  0
  2 14  1  0
 14 15  2  0
 15 16  1  0
 16 17  2  0
 17 18  1  0
 18 19  2  0
 19 20  1  0
 19 21  1  0
 21 22  2  0
 22 23  1  0
 23 24  2  0
 11  7  1  0
 24 14  1  0
 23 17  1  0
  3 25  1  0
  4 26  1  0
  4 27  1  0
  8 28  1  0
  8 29  1  0
  9 30  1  0
  9 31  1  0
 10 32  1  0
 10 33  1  0
 11 34  1  6
 12 35  1  0
 12 36  1  0
 13 37  1  0
 15 38  1  0
 16 39  1  0
 18 40  1  0
 21 41  1  0
 22 42  1  0
M  END
>  <meeko>  (5) 
{"free_energy": -6.88, "intermolecular_energy": -8.67, "internal_energy": -1.77, "cluster_size": 11, "cluster_id": 2, "rank_in_cluster": 3}

$$$$

     RDKit          3D

 42 44  0  0  0  0  0  0  0  0999 V2000
  141.2410   71.4350  221.0730 O   0  0  0  0  0  0  0  0  0  0  0  0
  140.6970   72.3130  221.7940 C   0  0  0  0  0  0  0  0  0  0  0  0
  139.8300   71.9130  222.8480 N   0  0  0  0  0  0  0  0  0  0  0  0
  139.5980   70.5200  223.0620 C   0  0  0  0  0  0  0  0  0  0  0  0
  139.0670   70.2570  224.4380 C   0  0  0  0  0  0  0  0  0  0  0  0
  137.8430   69.9420  224.5040 O   0  0  0  0  0  0  0  0  0  0  0  0
  139.8900   70.3570  225.5680 N   0  0  0  0  0  0  0  0  0  0  0  0
  140.3230   71.6190  226.1830 C   0  0  0  0  0  0  0  0  0  0  0  0
  141.3230   71.2300  227.2390 C   0  0  0  0  0  0  0  0  0  0  0  0
  140.7470   69.8750  227.6720 C   0  0  0  0  0  0  0  0  0  0  0  0
  140.4470   69.2680  226.3140 C   0  0  1  0  0  0  0  0  0  0  0  0
  139.5120   68.1030  226.5030 C   0  0  0  0  0  0  0  0  0  0  0  0
  139.2250   67.4160  225.3490 O   0  0  0  0  0  0  0  0  0  0  0  0
  140.9500   73.7290  221.5550 C   0  0  0  0  0  0  0  0  0  0  0  0
  141.9490   74.0990  220.6700 C   0  0  0  0  0  0  0  0  0  0  0  0
  142.1650   75.4550  220.4640 C   0  0  0  0  0  0  0  0  0  0  0  0
  141.4340   76.4340  221.0970 C   0  0  0  0  0  0  0  0  0  0  0  0
  141.6810   77.7760  220.8640 C   0  0  0  0  0  0  0  0  0  0  0  0
  140.8930   78.6990  221.5470 C   0  0  0  0  0  0  0  0  0  0  0  0
  141.1770   80.4070  221.2780 Cl  0  0  0  0  0  0  0  0  0  0  0  0
  139.9080   78.2700  222.4210 C   0  0  0  0  0  0  0  0  0  0  0  0
  139.6630   76.9360  222.6520 C   0  0  0  0  0  0  0  0  0  0  0  0
  140.4500   76.0140  221.9690 C   0  0  0  0  0  0  0  0  0  0  0  0
  140.2580   74.7150  222.1530 N   0  0  0  0  0  0  0  0  0  0  0  0
  139.3480   72.6010  223.4830 H   0  0  0  0  0  0  0  0  0  0  0  0
  138.8671   70.1616  222.3222 H   0  0  0  0  0  0  0  0  0  0  0  0
  140.5559   69.9900  222.9545 H   0  0  0  0  0  0  0  0  0  0  0  0
  140.7916   72.2718  225.4318 H   0  0  0  0  0  0  0  0  0  0  0  0
  139.4761   72.1769  226.6090 H   0  0  0  0  0  0  0  0  0  0  0  0
  142.3361   71.1279  226.8229 H   0  0  0  0  0  0  0  0  0  0  0  0
  141.4438   71.9612  228.0519 H   0  0  0  0  0  0  0  0  0  0  0  0
  141.4829   69.2790  228.2316 H   0  0  0  0  0  0  0  0  0  0  0  0
  139.8849   69.9350  228.3525 H   0  0  0  0  0  0  0  0  0  0  0  0
  141.3152   68.8549  225.7797 H   0  0  0  0  0  0  0  0  0  0  0  0
  139.9734   67.4029  227.2151 H   0  0  0  0  0  0  0  0  0  0  0  0
  138.5608   68.5182  226.8674 H   0  0  0  0  0  0  0  0  0  0  0  0
  138.6660   67.9650  224.7150 H   0  0  0  0  0  0  0  0  0  0  0  0
  142.5523   73.3425  220.1468 H   0  0  0  0  0  0  0  0  0  0  0  0
  142.9560   75.7604  219.7633 H   0  0  0  0  0  0  0  0  0  0  0  0
  142.4681   78.1003  220.1673 H   0  0  0  0  0  0  0  0  0  0  0  0
  139.3012   79.0210  222.9482 H   0  0  0  0  0  0  0  0  0  0  0  0
  138.8763   76.6113  223.3489 H   0  0  0  0  0  0  0  0  0  0  0  0
  1  2  2  0
  2  3  1  0
  3  4  1  0
  4  5  1  0
  5  6  2  0
  5  7  1  0
  7  8  1  0
  8  9  1  0
  9 10  1  0
 10 11  1  0
 11 12  1  0
 12 13  1  0
  2 14  1  0
 14 15  2  0
 15 16  1  0
 16 17  2  0
 17 18  1  0
 18 19  2  0
 19 20  1  0
 19 21  1  0
 21 22  2  0
 22 23  1  0
 23 24  2  0
 11  7  1  0
 24 14  1  0
 23 17  1  0
  3 25  1  0
  4 26  1  0
  4 27  1  0
  8 28  1  0
  8 29  1  0
  9 30  1  0
  9 31  1  0
 10 32  1  0
 10 33  1  0
 11 34  1  6
 12 35  1  0
 12 36  1  0
 13 37  1  0
 15 38  1  0
 16 39  1  0
 18 40  1  0
 21 41  1  0
 22 42  1  0
M  END
>  <meeko>  (6) 
{"free_energy": -6.89, "intermolecular_energy": -8.68, "internal_energy": -1.8, "cluster_size": 11, "cluster_id": 2, "rank_in_cluster": 1}

$$$$

     RDKit          3D

 42 44  0  0  0  0  0  0  0  0999 V2000
  139.7680   74.2680  222.0830 O   0  0  0  0  0  0  0  0  0  0  0  0
  140.9190   74.4790  221.6140 C   0  0  0  0  0  0  0  0  0  0  0  0
  141.4380   75.8030  221.6030 N   0  0  0  0  0  0  0  0  0  0  0  0
  140.6370   76.8640  222.1250 C   0  0  0  0  0  0  0  0  0  0  0  0
  141.1590   78.2040  221.7040 C   0  0  0  0  0  0  0  0  0  0  0  0
  142.1120   78.1860  220.8710 O   0  0  0  0  0  0  0  0  0  0  0  0
  140.6110   79.3900  222.2100 N   0  0  0  0  0  0  0  0  0  0  0  0
  139.1720   79.6660  222.3340 C   0  0  0  0  0  0  0  0  0  0  0  0
  139.0730   81.1080  222.7510 C   0  0  0  0  0  0  0  0  0  0  0  0
  140.3470   81.2350  223.5970 C   0  0  0  0  0  0  0  0  0  0  0  0
  141.3380   80.5270  222.6910 C   0  0  1  0  0  0  0  0  0  0  0  0
  142.5650   80.1840  223.4950 C   0  0  0  0  0  0  0  0  0  0  0  0
  143.6980   79.9970  222.7430 O   0  0  0  0  0  0  0  0  0  0  0  0
  141.7160   73.3780  221.0860 C   0  0  0  0  0  0  0  0  0  0  0  0
  141.1110   72.1560  220.8480 C   0  0  0  0  0  0  0  0  0  0  0  0
  141.8970   71.1280  220.3450 C   0  0  0  0  0  0  0  0  0  0  0  0
  143.2390   71.2740  220.0780 C   0  0  0  0  0  0  0  0  0  0  0  0
  143.9880   70.2240  219.5760 C   0  0  0  0  0  0  0  0  0  0  0  0
  145.3390   70.4610  219.3340 C   0  0  0  0  0  0  0  0  0  0  0  0
  146.3200   69.1550  218.7000 Cl  0  0  0  0  0  0  0  0  0  0  0  0
  145.8910   71.7050  219.5920 C   0  0  0  0  0  0  0  0  0  0  0  0
  145.1450   72.7490  220.0900 C   0  0  0  0  0  0  0  0  0  0  0  0
  143.7950   72.5120  220.3320 C   0  0  0  0  0  0  0  0  0  0  0  0
  143.0290   73.4820  220.8120 N   0  0  0  0  0  0  0  0  0  0  0  0
  142.3910   76.0400  221.2240 H   0  0  0  0  0  0  0  0  0  0  0  0
  139.6072   76.7494  221.7558 H   0  0  0  0  0  0  0  0  0  0  0  0
  140.6672   76.8112  223.2233 H   0  0  0  0  0  0  0  0  0  0  0  0
  138.6661   79.5092  221.3699 H   0  0  0  0  0  0  0  0  0  0  0  0
  138.6897   78.9970  223.0619 H   0  0  0  0  0  0  0  0  0  0  0  0
  139.0907   81.7848  221.8840 H   0  0  0  0  0  0  0  0  0  0  0  0
  138.1431   81.3736  223.2751 H   0  0  0  0  0  0  0  0  0  0  0  0
  140.6241   82.2867  223.7620 H   0  0  0  0  0  0  0  0  0  0  0  0
  140.2711   80.8208  224.6132 H   0  0  0  0  0  0  0  0  0  0  0  0
  141.7076   81.1200  221.8415 H   0  0  0  0  0  0  0  0  0  0  0  0
  142.7531   81.0040  224.2036 H   0  0  0  0  0  0  0  0  0  0  0  0
  142.3569   79.2267  223.9952 H   0  0  0  0  0  0  0  0  0  0  0  0
  143.5450   79.3470  221.9890 H   0  0  0  0  0  0  0  0  0  0  0  0
  140.0406   72.0041  221.0511 H   0  0  0  0  0  0  0  0  0  0  0  0
  141.4259   70.1531  220.1512 H   0  0  0  0  0  0  0  0  0  0  0  0
  143.5346   69.2419  219.3762 H   0  0  0  0  0  0  0  0  0  0  0  0
  146.9610   71.8638  219.3923 H   0  0  0  0  0  0  0  0  0  0  0  0
  145.5977   73.7316  220.2888 H   0  0  0  0  0  0  0  0  0  0  0  0
  1  2  2  0
  2  3  1  0
  3  4  1  0
  4  5  1  0
  5  6  2  0
  5  7  1  0
  7  8  1  0
  8  9  1  0
  9 10  1  0
 10 11  1  0
 11 12  1  0
 12 13  1  0
  2 14  1  0
 14 15  2  0
 15 16  1  0
 16 17  2  0
 17 18  1  0
 18 19  2  0
 19 20  1  0
 19 21  1  0
 21 22  2  0
 22 23  1  0
 23 24  2  0
 11  7  1  0
 24 14  1  0
 23 17  1  0
  3 25  1  0
  4 26  1  0
  4 27  1  0
  8 28  1  0
  8 29  1  0
  9 30  1  0
  9 31  1  0
 10 32  1  0
 10 33  1  0
 11 34  1  6
 12 35  1  0
 12 36  1  0
 13 37  1  0
 15 38  1  0
 16 39  1  0
 18 40  1  0
 21 41  1  0
 22 42  1  0
M  END
>  <meeko>  (7) 
{"free_energy": -5.98, "intermolecular_energy": -7.77, "internal_energy": -2.3, "cluster_size": 1, "cluster_id": 3, "rank_in_cluster": 1}

$$$$

     RDKit          3D

 42 44  0  0  0  0  0  0  0  0999 V2000
  140.1370   72.6000  220.7930 O   0  0  0  0  0  0  0  0  0  0  0  0
  139.9250   72.9540  221.9840 C   0  0  0  0  0  0  0  0  0  0  0  0
  139.6340   74.3160  222.2680 N   0  0  0  0  0  0  0  0  0  0  0  0
  139.5910   75.2540  221.1910 C   0  0  0  0  0  0  0  0  0  0  0  0
  140.2880   76.5310  221.5470 C   0  0  0  0  0  0  0  0  0  0  0  0
  141.5270   76.5700  221.2960 O   0  0  0  0  0  0  0  0  0  0  0  0
  139.5920   77.6050  222.1190 N   0  0  0  0  0  0  0  0  0  0  0  0
  138.1500   77.6160  222.4020 C   0  0  0  0  0  0  0  0  0  0  0  0
  137.8360   79.0220  222.8380 C   0  0  0  0  0  0  0  0  0  0  0  0
  139.1510   79.3890  223.5390 C   0  0  0  0  0  0  0  0  0  0  0  0
  140.1490   78.8610  222.5240 C   0  0  1  0  0  0  0  0  0  0  0  0
  141.4990   78.7570  223.1860 C   0  0  0  0  0  0  0  0  0  0  0  0
  142.5570   79.0160  222.3510 O   0  0  0  0  0  0  0  0  0  0  0  0
  139.9760   71.9770  223.0660 C   0  0  0  0  0  0  0  0  0  0  0  0
  139.5150   70.6910  222.8410 C   0  0  0  0  0  0  0  0  0  0  0  0
  139.5770   69.7860  223.8900 C   0  0  0  0  0  0  0  0  0  0  0  0
  140.0720   70.1110  225.1320 C   0  0  0  0  0  0  0  0  0  0  0  0
  140.1170   69.1780  226.1530 C   0  0  0  0  0  0  0  0  0  0  0  0
  140.6340   69.5950  227.3770 C   0  0  0  0  0  0  0  0  0  0  0  0
  140.7060   68.4420  228.6950 Cl  0  0  0  0  0  0  0  0  0  0  0  0
  141.0800   70.8950  227.5460 C   0  0  0  0  0  0  0  0  0  0  0  0
  141.0360   71.8220  226.5290 C   0  0  0  0  0  0  0  0  0  0  0  0
  140.5190   71.4060  225.3060 C   0  0  0  0  0  0  0  0  0  0  0  0
  140.4520   72.2570  224.2920 N   0  0  0  0  0  0  0  0  0  0  0  0
  139.4480   74.6700  223.2420 H   0  0  0  0  0  0  0  0  0  0  0  0
  140.0825   74.8116  220.3119 H   0  0  0  0  0  0  0  0  0  0  0  0
  138.5371   75.4844  220.9759 H   0  0  0  0  0  0  0  0  0  0  0  0
  137.5789   77.3573  221.4981 H   0  0  0  0  0  0  0  0  0  0  0  0
  137.8801   76.8798  223.1735 H   0  0  0  0  0  0  0  0  0  0  0  0
  137.6347   79.6795  221.9794 H   0  0  0  0  0  0  0  0  0  0  0  0
  136.9365   79.1212  223.4633 H   0  0  0  0  0  0  0  0  0  0  0  0
  139.2487   80.4755  223.6801 H   0  0  0  0  0  0  0  0  0  0  0  0
  139.2637   78.9808  224.5542 H   0  0  0  0  0  0  0  0  0  0  0  0
  140.3097   79.4997  221.6429 H   0  0  0  0  0  0  0  0  0  0  0  0
  141.5317   79.4764  224.0175 H   0  0  0  0  0  0  0  0  0  0  0  0
  141.6077   77.7145  223.5196 H   0  0  0  0  0  0  0  0  0  0  0  0
  142.8350   78.1980  221.8320 H   0  0  0  0  0  0  0  0  0  0  0  0
  139.1121   70.3963  221.8608 H   0  0  0  0  0  0  0  0  0  0  0  0
  139.2138   68.7615  223.7214 H   0  0  0  0  0  0  0  0  0  0  0  0
  139.7589   68.1487  226.0038 H   0  0  0  0  0  0  0  0  0  0  0  0
  141.4824   71.1968  228.5243 H   0  0  0  0  0  0  0  0  0  0  0  0
  141.3954   72.8510  226.6775 H   0  0  0  0  0  0  0  0  0  0  0  0
  1  2  2  0
  2  3  1  0
  3  4  1  0
  4  5  1  0
  5  6  2  0
  5  7  1  0
  7  8  1  0
  8  9  1  0
  9 10  1  0
 10 11  1  0
 11 12  1  0
 12 13  1  0
  2 14  1  0
 14 15  2  0
 15 16  1  0
 16 17  2  0
 17 18  1  0
 18 19  2  0
 19 20  1  0
 19 21  1  0
 21 22  2  0
 22 23  1  0
 23 24  2  0
 11  7  1  0
 24 14  1  0
 23 17  1  0
  3 25  1  0
  4 26  1  0
  4 27  1  0
  8 28  1  0
  8 29  1  0
  9 30  1  0
  9 31  1  0
 10 32  1  0
 10 33  1  0
 11 34  1  6
 12 35  1  0
 12 36  1  0
 13 37  1  0
 15 38  1  0
 16 39  1  0
 18 40  1  0
 21 41  1  0
 22 42  1  0
M  END
>  <meeko>  (8) 
{"free_energy": -7.04, "intermolecular_energy": -8.83, "internal_energy": -1.61, "cluster_size": 8, "cluster_id": 1, "rank_in_cluster": 1}

$$$$

     RDKit          3D

 42 44  0  0  0  0  0  0  0  0999 V2000
  140.7480   72.6850  220.9080 O   0  0  0  0  0  0  0  0  0  0  0  0
  140.1410   72.9440  221.9810 C   0  0  0  0  0  0  0  0  0  0  0  0
  139.4800   74.1950  222.1270 N   0  0  0  0  0  0  0  0  0  0  0  0
  139.5220   75.1300  221.0480 C   0  0  0  0  0  0  0  0  0  0  0  0
  140.5700   76.1770  221.2690 C   0  0  0  0  0  0  0  0  0  0  0  0
  141.1480   76.1470  222.3950 O   0  0  0  0  0  0  0  0  0  0  0  0
  140.8790   77.1190  220.2790 N   0  0  0  0  0  0  0  0  0  0  0  0
  140.2270   78.4280  220.1320 C   0  0  0  0  0  0  0  0  0  0  0  0
  140.7550   78.9980  218.8430 C   0  0  0  0  0  0  0  0  0  0  0  0
  142.1720   78.4110  218.8480 C   0  0  0  0  0  0  0  0  0  0  0  0
  141.8660   76.9810  219.2510 C   0  0  1  0  0  0  0  0  0  0  0  0
  143.1450   76.3230  219.7020 C   0  0  0  0  0  0  0  0  0  0  0  0
  142.9620   75.1500  220.3910 O   0  0  0  0  0  0  0  0  0  0  0  0
  140.1140   71.9720  223.0680 C   0  0  0  0  0  0  0  0  0  0  0  0
  139.5910   70.7120  222.8380 C   0  0  0  0  0  0  0  0  0  0  0  0
  139.5800   69.8100  223.8930 C   0  0  0  0  0  0  0  0  0  0  0  0
  140.0620   70.1160  225.1450 C   0  0  0  0  0  0  0  0  0  0  0  0
  140.0320   69.1880  226.1710 C   0  0  0  0  0  0  0  0  0  0  0  0
  140.5420   69.5840  227.4050 C   0  0  0  0  0  0  0  0  0  0  0  0
  140.5210   68.4360  228.7290 Cl  0  0  0  0  0  0  0  0  0  0  0  0
  141.0520   70.8600  227.5780 C   0  0  0  0  0  0  0  0  0  0  0  0
  141.0820   71.7820  226.5570 C   0  0  0  0  0  0  0  0  0  0  0  0
  140.5730   71.3860  225.3240 C   0  0  0  0  0  0  0  0  0  0  0  0
  140.5760   72.2340  224.3040 N   0  0  0  0  0  0  0  0  0  0  0  0
  138.9570   74.4660  223.0000 H   0  0  0  0  0  0  0  0  0  0  0  0
  139.7468   74.5905  220.1161 H   0  0  0  0  0  0  0  0  0  0  0  0
  138.5437   75.6289  220.9856 H   0  0  0  0  0  0  0  0  0  0  0  0
  139.1346   78.3097  220.0810 H   0  0  0  0  0  0  0  0  0  0  0  0
  140.4385   79.0874  220.9866 H   0  0  0  0  0  0  0  0  0  0  0  0
  140.1735   78.6518  217.9758 H   0  0  0  0  0  0  0  0  0  0  0  0
  140.7098   80.0947  218.7703 H   0  0  0  0  0  0  0  0  0  0  0  0
  142.6387   78.4634  217.8533 H   0  0  0  0  0  0  0  0  0  0  0  0
  142.8863   78.9328  219.5018 H   0  0  0  0  0  0  0  0  0  0  0  0
  141.4801   76.3366  218.4474 H   0  0  0  0  0  0  0  0  0  0  0  0
  143.7551   76.1087  218.8121 H   0  0  0  0  0  0  0  0  0  0  0  0
  143.6335   77.0237  220.3951 H   0  0  0  0  0  0  0  0  0  0  0  0
  142.8270   75.3100  221.3770 H   0  0  0  0  0  0  0  0  0  0  0  0
  139.1962   70.4336  221.8498 H   0  0  0  0  0  0  0  0  0  0  0  0
  139.1673   68.8051  223.7204 H   0  0  0  0  0  0  0  0  0  0  0  0
  139.6221   68.1787  226.0182 H   0  0  0  0  0  0  0  0  0  0  0  0
  141.4462   71.1459  228.5644 H   0  0  0  0  0  0  0  0  0  0  0  0
  141.4918   72.7914  226.7094 H   0  0  0  0  0  0  0  0  0  0  0  0
  1  2  2  0
  2  3  1  0
  3  4  1  0
  4  5  1  0
  5  6  2  0
  5  7  1  0
  7  8  1  0
  8  9  1  0
  9 10  1  0
 10 11  1  0
 11 12  1  0
 12 13  1  0
  2 14  1  0
 14 15  2  0
 15 16  1  0
 16 17  2  0
 17 18  1  0
 18 19  2  0
 19 20  1  0
 19 21  1  0
 21 22  2  0
 22 23  1  0
 23 24  2  0
 11  7  1  0
 24 14  1  0
 23 17  1  0
  3 25  1  0
  4 26  1  0
  4 27  1  0
  8 28  1  0
  8 29  1  0
  9 30  1  0
  9 31  1  0
 10 32  1  0
 10 33  1  0
 11 34  1  6
 12 35  1  0
 12 36  1  0
 13 37  1  0
 15 38  1  0
 16 39  1  0
 18 40  1  0
 21 41  1  0
 22 42  1  0
M  END
>  <meeko>  (9) 
{"free_energy": -6.6, "intermolecular_energy": -8.39, "internal_energy": -1.74, "cluster_size": 8, "cluster_id": 1, "rank_in_cluster": 5}

$$$$

     RDKit          3D

 42 44  0  0  0  0  0  0  0  0999 V2000
  141.0750   71.3360  221.3170 O   0  0  0  0  0  0  0  0  0  0  0  0
  140.8070   72.3820  221.9680 C   0  0  0  0  0  0  0  0  0  0  0  0
  140.2200   72.2710  223.2590 N   0  0  0  0  0  0  0  0  0  0  0  0
  139.9470   70.9720  223.7860 C   0  0  0  0  0  0  0  0  0  0  0  0
  140.3230   70.8770  225.2340 C   0  0  0  0  0  0  0  0  0  0  0  0
  140.8420   71.9160  225.7360 O   0  0  0  0  0  0  0  0  0  0  0  0
  140.1020   69.7030  225.9670 N   0  0  0  0  0  0  0  0  0  0  0  0
  139.9490   68.3640  225.3830 C   0  0  0  0  0  0  0  0  0  0  0  0
  139.5580   67.4680  226.5270 C   0  0  0  0  0  0  0  0  0  0  0  0
  140.3200   68.1440  227.6740 C   0  0  0  0  0  0  0  0  0  0  0  0
  139.9900   69.5980  227.3910 C   0  0  1  0  0  0  0  0  0  0  0  0
  140.9540   70.4680  228.1560 C   0  0  0  0  0  0  0  0  0  0  0  0
  140.5240   71.7590  228.3390 O   0  0  0  0  0  0  0  0  0  0  0  0
  141.0940   73.6960  221.4060 C   0  0  0  0  0  0  0  0  0  0  0  0
  141.7750   73.7870  220.2050 C   0  0  0  0  0  0  0  0  0  0  0  0
  142.0330   75.0530  219.6980 C   0  0  0  0  0  0  0  0  0  0  0  0
  141.6430   76.2080  220.3340 C   0  0  0  0  0  0  0  0  0  0  0  0
  141.9190   77.4520  219.7940 C   0  0  0  0  0  0  0  0  0  0  0  0
  141.4860   78.5680  220.5060 C   0  0  0  0  0  0  0  0  0  0  0  0
  141.8190   80.1610  219.8540 Cl  0  0  0  0  0  0  0  0  0  0  0  0
  140.8090   78.4180  221.7050 C   0  0  0  0  0  0  0  0  0  0  0  0
  140.5330   77.1800  222.2400 C   0  0  0  0  0  0  0  0  0  0  0  0
  140.9660   76.0650  221.5290 C   0  0  0  0  0  0  0  0  0  0  0  0
  140.7290   74.8480  221.9980 N   0  0  0  0  0  0  0  0  0  0  0  0
  139.9740   73.1080  223.8480 H   0  0  0  0  0  0  0  0  0  0  0  0
  138.8723   70.7622  223.6812 H   0  0  0  0  0  0  0  0  0  0  0  0
  140.5453   70.2390  223.2250 H   0  0  0  0  0  0  0  0  0  0  0  0
  139.1640   68.3682  224.6124 H   0  0  0  0  0  0  0  0  0  0  0  0
  140.8746   68.0233  224.8960 H   0  0  0  0  0  0  0  0  0  0  0  0
  138.4715   67.4770  226.6986 H   0  0  0  0  0  0  0  0  0  0  0  0
  139.7936   66.4035  226.3807 H   0  0  0  0  0  0  0  0  0  0  0  0
  139.9446   67.8244  228.6573 H   0  0  0  0  0  0  0  0  0  0  0  0
  141.3947   67.9130  227.7150 H   0  0  0  0  0  0  0  0  0  0  0  0
  138.9905   69.9266  227.7118 H   0  0  0  0  0  0  0  0  0  0  0  0
  141.1169   70.0152  229.1452 H   0  0  0  0  0  0  0  0  0  0  0  0
  141.8741   70.5235  227.5558 H   0  0  0  0  0  0  0  0  0  0  0  0
  140.5020   72.2740  227.4730 H   0  0  0  0  0  0  0  0  0  0  0  0
  142.1018   72.8840  219.6686 H   0  0  0  0  0  0  0  0  0  0  0  0
  142.5741   75.1361  218.7439 H   0  0  0  0  0  0  0  0  0  0  0  0
  142.4586   77.5552  218.8410 H   0  0  0  0  0  0  0  0  0  0  0  0
  140.4813   79.3172  222.2473 H   0  0  0  0  0  0  0  0  0  0  0  0
  139.9916   77.0763  223.1919 H   0  0  0  0  0  0  0  0  0  0  0  0
  1  2  2  0
  2  3  1  0
  3  4  1  0
  4  5  1  0
  5  6  2  0
  5  7  1  0
  7  8  1  0
  8  9  1  0
  9 10  1  0
 10 11  1  0
 11 12  1  0
 12 13  1  0
  2 14  1  0
 14 15  2  0
 15 16  1  0
 16 17  2  0
 17 18  1  0
 18 19  2  0
 19 20  1  0
 19 21  1  0
 21 22  2  0
 22 23  1  0
 23 24  2  0
 11  7  1  0
 24 14  1  0
 23 17  1  0
  3 25  1  0
  4 26  1  0
  4 27  1  0
  8 28  1  0
  8 29  1  0
  9 30  1  0
  9 31  1  0
 10 32  1  0
 10 33  1  0
 11 34  1  1
 12 35  1  0
 12 36  1  0
 13 37  1  0
 15 38  1  0
 16 39  1  0
 18 40  1  0
 21 41  1  0
 22 42  1  0
M  END
>  <meeko>  (10) 
{"free_energy": -6.65, "intermolecular_energy": -8.44, "internal_energy": -2.02, "cluster_size": 11, "cluster_id": 2, "rank_in_cluster": 8}

$$$$

     RDKit          3D

 42 44  0  0  0  0  0  0  0  0999 V2000
  140.7380   72.6190  220.8060 O   0  0  0  0  0  0  0  0  0  0  0  0
  140.3150   72.9760  221.9380 C   0  0  0  0  0  0  0  0  0  0  0  0
  139.9210   74.3270  222.1440 N   0  0  0  0  0  0  0  0  0  0  0  0
  140.0170   75.2480  221.0570 C   0  0  0  0  0  0  0  0  0  0  0  0
  140.1320   76.6610  221.5430 C   0  0  0  0  0  0  0  0  0  0  0  0
  139.6410   76.8910  222.6870 O   0  0  0  0  0  0  0  0  0  0  0  0
  140.7500   77.6500  220.7670 N   0  0  0  0  0  0  0  0  0  0  0  0
  140.3880   77.9790  219.3810 C   0  0  0  0  0  0  0  0  0  0  0  0
  141.4290   78.9600  218.9140 C   0  0  0  0  0  0  0  0  0  0  0  0
  141.7240   79.6890  220.2320 C   0  0  0  0  0  0  0  0  0  0  0  0
  141.8250   78.5040  221.1740 C   0  0  1  0  0  0  0  0  0  0  0  0
  141.7180   79.0040  222.5910 C   0  0  0  0  0  0  0  0  0  0  0  0
  141.8340   78.0240  223.5450 O   0  0  0  0  0  0  0  0  0  0  0  0
  140.2270   72.0150  223.0320 C   0  0  0  0  0  0  0  0  0  0  0  0
  139.6420   70.7810  222.8060 C   0  0  0  0  0  0  0  0  0  0  0  0
  139.5750   69.8900  223.8670 C   0  0  0  0  0  0  0  0  0  0  0  0
  140.0600   70.1800  225.1210 C   0  0  0  0  0  0  0  0  0  0  0  0
  139.9740   69.2620  226.1540 C   0  0  0  0  0  0  0  0  0  0  0  0
  140.4920   69.6410  227.3900 C   0  0  0  0  0  0  0  0  0  0  0  0
  140.4000   68.5060  228.7220 Cl  0  0  0  0  0  0  0  0  0  0  0  0
  141.0660   70.8900  227.5590 C   0  0  0  0  0  0  0  0  0  0  0  0
  141.1530   71.8010  226.5310 C   0  0  0  0  0  0  0  0  0  0  0  0
  140.6350   71.4230  225.2960 C   0  0  0  0  0  0  0  0  0  0  0  0
  140.6910   72.2620  224.2700 N   0  0  0  0  0  0  0  0  0  0  0  0
  139.5600   74.6820  223.0670 H   0  0  0  0  0  0  0  0  0  0  0  0
  140.9063   75.0025  220.4580 H   0  0  0  0  0  0  0  0  0  0  0  0
  139.1021   75.1645  220.4520 H   0  0  0  0  0  0  0  0  0  0  0  0
  140.4039   77.0748  218.7548 H   0  0  0  0  0  0  0  0  0  0  0  0
  139.3734   78.3985  219.3135 H   0  0  0  0  0  0  0  0  0  0  0  0
  142.3215   78.4511  218.5211 H   0  0  0  0  0  0  0  0  0  0  0  0
  141.1113   79.6117  218.0868 H   0  0  0  0  0  0  0  0  0  0  0  0
  142.6670   80.2533  220.1838 H   0  0  0  0  0  0  0  0  0  0  0  0
  140.9789   80.4457  220.5188 H   0  0  0  0  0  0  0  0  0  0  0  0
  142.7753   77.9513  221.1360 H   0  0  0  0  0  0  0  0  0  0  0  0
  142.5159   79.7428  222.7570 H   0  0  0  0  0  0  0  0  0  0  0  0
  140.7105   79.4320  222.6993 H   0  0  0  0  0  0  0  0  0  0  0  0
  141.7890   77.1010  223.1430 H   0  0  0  0  0  0  0  0  0  0  0  0
  139.2428   70.5153  221.8161 H   0  0  0  0  0  0  0  0  0  0  0  0
  139.1127   68.9063  223.6977 H   0  0  0  0  0  0  0  0  0  0  0  0
  139.5152   68.2735  226.0045 H   0  0  0  0  0  0  0  0  0  0  0  0
  141.4653   71.1628  228.5470 H   0  0  0  0  0  0  0  0  0  0  0  0
  141.6137   72.7887  226.6797 H   0  0  0  0  0  0  0  0  0  0  0  0
  1  2  2  0
  2  3  1  0
  3  4  1  0
  4  5  1  0
  5  6  2  0
  5  7  1  0
  7  8  1  0
  8  9  1  0
  9 10  1  0
 10 11  1  0
 11 12  1  0
 12 13  1  0
  2 14  1  0
 14 15  2  0
 15 16  1  0
 16 17  2  0
 17 18  1  0
 18 19  2  0
 19 20  1  0
 19 21  1  0
 21 22  2  0
 22 23  1  0
 23 24  2  0
 11  7  1  0
 24 14  1  0
 23 17  1  0
  3 25  1  0
  4 26  1  0
  4 27  1  0
  8 28  1  0
  8 29  1  0
  9 30  1  0
  9 31  1  0
 10 32  1  0
 10 33  1  0
 11 34  1  1
 12 35  1  0
 12 36  1  0
 13 37  1  0
 15 38  1  0
 16 39  1  0
 18 40  1  0
 21 41  1  0
 22 42  1  0
M  END
>  <meeko>  (11) 
{"free_energy": -6.72, "intermolecular_energy": -8.51, "internal_energy": -2.02, "cluster_size": 8, "cluster_id": 1, "rank_in_cluster": 2}

$$$$

     RDKit          3D

 42 44  0  0  0  0  0  0  0  0999 V2000
  141.3470   73.1010  221.4160 O   0  0  0  0  0  0  0  0  0  0  0  0
  140.3700   73.0900  222.2110 C   0  0  0  0  0  0  0  0  0  0  0  0
  139.3610   74.0850  222.0930 N   0  0  0  0  0  0  0  0  0  0  0  0
  139.4820   75.0760  221.0720 C   0  0  0  0  0  0  0  0  0  0  0  0
  140.6470   75.9850  221.3230 C   0  0  0  0  0  0  0  0  0  0  0  0
  141.0030   76.1010  222.5320 O   0  0  0  0  0  0  0  0  0  0  0  0
  141.2900   76.6520  220.2720 N   0  0  0  0  0  0  0  0  0  0  0  0
  141.3530   78.1120  220.1170 C   0  0  0  0  0  0  0  0  0  0  0  0
  141.9790   78.3480  218.7690 C   0  0  0  0  0  0  0  0  0  0  0  0
  142.9210   77.1390  218.6920 C   0  0  0  0  0  0  0  0  0  0  0  0
  141.9890   76.0450  219.1790 C   0  0  1  0  0  0  0  0  0  0  0  0
  142.8150   74.8440  219.5620 C   0  0  0  0  0  0  0  0  0  0  0  0
  143.3040   74.8810  220.8440 O   0  0  0  0  0  0  0  0  0  0  0  0
  140.2710   72.0680  223.2460 C   0  0  0  0  0  0  0  0  0  0  0  0
  139.7200   70.8370  222.9330 C   0  0  0  0  0  0  0  0  0  0  0  0
  139.6390   69.8860  223.9410 C   0  0  0  0  0  0  0  0  0  0  0  0
  140.0790   70.1150  225.2240 C   0  0  0  0  0  0  0  0  0  0  0  0
  139.9810   69.1390  226.2000 C   0  0  0  0  0  0  0  0  0  0  0  0
  140.4520   69.4580  227.4720 C   0  0  0  0  0  0  0  0  0  0  0  0
  140.3440   68.2480  228.7350 Cl  0  0  0  0  0  0  0  0  0  0  0  0
  140.9930   70.7070  227.7280 C   0  0  0  0  0  0  0  0  0  0  0  0
  141.0910   71.6760  226.7560 C   0  0  0  0  0  0  0  0  0  0  0  0
  140.6210   71.3580  225.4860 C   0  0  0  0  0  0  0  0  0  0  0  0
  140.6900   72.2540  224.5110 N   0  0  0  0  0  0  0  0  0  0  0  0
  138.5230   74.1270  222.7290 H   0  0  0  0  0  0  0  0  0  0  0  0
  139.6220   74.5751  220.1027 H   0  0  0  0  0  0  0  0  0  0  0  0
  138.5649   75.6833  221.0706 H   0  0  0  0  0  0  0  0  0  0  0  0
  140.3429   78.5461  220.1528 H   0  0  0  0  0  0  0  0  0  0  0  0
  141.9336   78.5828  220.9240 H   0  0  0  0  0  0  0  0  0  0  0  0
  141.2299   78.3328  217.9636 H   0  0  0  0  0  0  0  0  0  0  0  0
  142.4714   79.3248  218.6534 H   0  0  0  0  0  0  0  0  0  0  0  0
  143.2645   76.9543  217.6634 H   0  0  0  0  0  0  0  0  0  0  0  0
  143.8536   77.2418  219.2663 H   0  0  0  0  0  0  0  0  0  0  0  0
  141.2687   75.6734  218.4352 H   0  0  0  0  0  0  0  0  0  0  0  0
  142.1872   73.9467  219.4584 H   0  0  0  0  0  0  0  0  0  0  0  0
  143.6874   74.8347  218.8920 H   0  0  0  0  0  0  0  0  0  0  0  0
  142.5640   74.9410  221.5260 H   0  0  0  0  0  0  0  0  0  0  0  0
  139.3578   70.6194  221.9174 H   0  0  0  0  0  0  0  0  0  0  0  0
  139.2031   68.9045  223.7029 H   0  0  0  0  0  0  0  0  0  0  0  0
  139.5489   68.1515  225.9806 H   0  0  0  0  0  0  0  0  0  0  0  0
  141.3563   70.9317  228.7417 H   0  0  0  0  0  0  0  0  0  0  0  0
  141.5240   72.6633  226.9747 H   0  0  0  0  0  0  0  0  0  0  0  0
  1  2  2  0
  2  3  1  0
  3  4  1  0
  4  5  1  0
  5  6  2  0
  5  7  1  0
  7  8  1  0
  8  9  1  0
  9 10  1  0
 10 11  1  0
 11 12  1  0
 12 13  1  0
  2 14  1  0
 14 15  2  0
 15 16  1  0
 16 17  2  0
 17 18  1  0
 18 19  2  0
 19 20  1  0
 19 21  1  0
 21 22  2  0
 22 23  1  0
 23 24  2  0
 11  7  1  0
 24 14  1  0
 23 17  1  0
  3 25  1  0
  4 26  1  0
  4 27  1  0
  8 28  1  0
  8 29  1  0
  9 30  1  0
  9 31  1  0
 10 32  1  0
 10 33  1  0
 11 34  1  6
 12 35  1  0
 12 36  1  0
 13 37  1  0
 15 38  1  0
 16 39  1  0
 18 40  1  0
 21 41  1  0
 22 42  1  0
M  END
>  <meeko>  (12) 
{"free_energy": -6.4, "intermolecular_energy": -8.19, "internal_energy": -2.32, "cluster_size": 8, "cluster_id": 1, "rank_in_cluster": 8}

$$$$

     RDKit          3D

 42 44  0  0  0  0  0  0  0  0999 V2000
  140.2380   72.2150  220.7290 O   0  0  0  0  0  0  0  0  0  0  0  0
  139.9780   72.5940  221.9030 C   0  0  0  0  0  0  0  0  0  0  0  0
  139.6640   73.9600  222.1430 N   0  0  0  0  0  0  0  0  0  0  0  0
  139.6510   74.8710  221.0430 C   0  0  0  0  0  0  0  0  0  0  0  0
  140.5240   76.0600  221.3040 C   0  0  0  0  0  0  0  0  0  0  0  0
  140.6400   76.4020  222.5170 O   0  0  0  0  0  0  0  0  0  0  0  0
  141.1660   76.7360  220.2570 N   0  0  0  0  0  0  0  0  0  0  0  0
  141.1400   76.3200  218.8480 C   0  0  0  0  0  0  0  0  0  0  0  0
  142.1020   77.2360  218.1400 C   0  0  0  0  0  0  0  0  0  0  0  0
  141.9170   78.5150  218.9670 C   0  0  0  0  0  0  0  0  0  0  0  0
  141.9470   77.9310  220.3680 C   0  0  1  0  0  0  0  0  0  0  0  0
  141.3880   78.9510  221.3260 C   0  0  0  0  0  0  0  0  0  0  0  0
  141.7990   78.7890  222.6260 O   0  0  0  0  0  0  0  0  0  0  0  0
  139.9990   71.6440  223.0090 C   0  0  0  0  0  0  0  0  0  0  0  0
  139.4930   70.3700  222.8180 C   0  0  0  0  0  0  0  0  0  0  0  0
  139.5270   69.4900  223.8900 C   0  0  0  0  0  0  0  0  0  0  0  0
  140.0370   69.8300  225.1220 C   0  0  0  0  0  0  0  0  0  0  0  0
  140.0530   68.9220  226.1670 C   0  0  0  0  0  0  0  0  0  0  0  0
  140.5890   69.3510  227.3780 C   0  0  0  0  0  0  0  0  0  0  0  0
  140.6250   68.2300  228.7250 Cl  0  0  0  0  0  0  0  0  0  0  0  0
  141.0810   70.6400  227.5120 C   0  0  0  0  0  0  0  0  0  0  0  0
  141.0650   71.5410  226.4730 C   0  0  0  0  0  0  0  0  0  0  0  0
  140.5300   71.1120  225.2620 C   0  0  0  0  0  0  0  0  0  0  0  0
  140.4890   71.9390  224.2260 N   0  0  0  0  0  0  0  0  0  0  0  0
  139.4390   74.3350  223.1010 H   0  0  0  0  0  0  0  0  0  0  0  0
  140.0144   74.3512  220.1442 H   0  0  0  0  0  0  0  0  0  0  0  0
  138.6194   75.2251  220.9006 H   0  0  0  0  0  0  0  0  0  0  0  0
  141.4634   75.2732  218.7503 H   0  0  0  0  0  0  0  0  0  0  0  0
  140.1277   76.3839  218.4224 H   0  0  0  0  0  0  0  0  0  0  0  0
  143.1351   76.8620  218.1935 H   0  0  0  0  0  0  0  0  0  0  0  0
  141.9191   77.3531  217.0617 H   0  0  0  0  0  0  0  0  0  0  0  0
  142.7385   79.2283  218.8046 H   0  0  0  0  0  0  0  0  0  0  0  0
  141.0139   79.0951  218.7266 H   0  0  0  0  0  0  0  0  0  0  0  0
  142.9468   77.6886  220.7574 H   0  0  0  0  0  0  0  0  0  0  0  0
  141.7011   79.9497  220.9875 H   0  0  0  0  0  0  0  0  0  0  0  0
  140.2956   78.8217  221.3222 H   0  0  0  0  0  0  0  0  0  0  0  0
  142.1790   77.8690  222.7870 H   0  0  0  0  0  0  0  0  0  0  0  0
  139.0769   70.0647  221.8466 H   0  0  0  0  0  0  0  0  0  0  0  0
  139.1282   68.4746  223.7487 H   0  0  0  0  0  0  0  0  0  0  0  0
  139.6580   67.9026  226.0453 H   0  0  0  0  0  0  0  0  0  0  0  0
  141.4978   70.9524  228.4809 H   0  0  0  0  0  0  0  0  0  0  0  0
  141.4596   72.5606  226.5944 H   0  0  0  0  0  0  0  0  0  0  0  0
  1  2  2  0
  2  3  1  0
  3  4  1  0
  4  5  1  0
  5  6  2  0
  5  7  1  0
  7  8  1  0
  8  9  1  0
  9 10  1  0
 10 11  1  0
 11 12  1  0
 12 13  1  0
  2 14  1  0
 14 15  2  0
 15 16  1  0
 16 17  2  0
 17 18  1  0
 18 19  2  0
 19 20  1  0
 19 21  1  0
 21 22  2  0
 22 23  1  0
 23 24  2  0
 11  7  1  0
 24 14  1  0
 23 17  1  0
  3 25  1  0
  4 26  1  0
  4 27  1  0
  8 28  1  0
  8 29  1  0
  9 30  1  0
  9 31  1  0
 10 32  1  0
 10 33  1  0
 11 34  1  1
 12 35  1  0
 12 36  1  0
 13 37  1  0
 15 38  1  0
 16 39  1  0
 18 40  1  0
 21 41  1  0
 22 42  1  0
M  END
>  <meeko>  (13) 
{"free_energy": -6.61, "intermolecular_energy": -8.4, "internal_energy": -1.89, "cluster_size": 8, "cluster_id": 1, "rank_in_cluster": 4}

$$$$

     RDKit          3D

 42 44  0  0  0  0  0  0  0  0999 V2000
  141.3960   71.3980  221.2040 O   0  0  0  0  0  0  0  0  0  0  0  0
  140.8250   72.2820  221.8970 C   0  0  0  0  0  0  0  0  0  0  0  0
  139.9670   71.8890  222.9610 N   0  0  0  0  0  0  0  0  0  0  0  0
  139.7750   70.4980  223.2180 C   0  0  0  0  0  0  0  0  0  0  0  0
  139.1600   70.2680  224.5650 C   0  0  0  0  0  0  0  0  0  0  0  0
  137.9120   70.0610  224.5720 O   0  0  0  0  0  0  0  0  0  0  0  0
  139.9370   70.2820  225.7310 N   0  0  0  0  0  0  0  0  0  0  0  0
  140.3360   71.4940  226.4600 C   0  0  0  0  0  0  0  0  0  0  0  0
  141.2950   71.0280  227.5220 C   0  0  0  0  0  0  0  0  0  0  0  0
  140.7120   69.6420  227.8250 C   0  0  0  0  0  0  0  0  0  0  0  0
  140.4710   69.1410  226.4120 C   0  0  1  0  0  0  0  0  0  0  0  0
  139.5360   67.9600  226.4730 C   0  0  0  0  0  0  0  0  0  0  0  0
  139.2310   67.4200  225.2480 O   0  0  0  0  0  0  0  0  0  0  0  0
  141.0370   73.6960  221.6130 C   0  0  0  0  0  0  0  0  0  0  0  0
  141.9970   74.0660  220.6870 C   0  0  0  0  0  0  0  0  0  0  0  0
  142.1750   75.4200  220.4400 C   0  0  0  0  0  0  0  0  0  0  0  0
  141.4440   76.3990  221.0730 C   0  0  0  0  0  0  0  0  0  0  0  0
  141.6520   77.7390  220.7980 C   0  0  0  0  0  0  0  0  0  0  0  0
  140.8660   78.6610  221.4850 C   0  0  0  0  0  0  0  0  0  0  0  0
  141.1020   80.3680  221.1640 Cl  0  0  0  0  0  0  0  0  0  0  0  0
  139.9210   78.2340  222.4020 C   0  0  0  0  0  0  0  0  0  0  0  0
  139.7140   76.9010  222.6740 C   0  0  0  0  0  0  0  0  0  0  0  0
  140.4990   75.9790  221.9880 C   0  0  0  0  0  0  0  0  0  0  0  0
  140.3430   74.6810  222.2110 N   0  0  0  0  0  0  0  0  0  0  0  0
  139.4630   72.5820  223.5730 H   0  0  0  0  0  0  0  0  0  0  0  0
  139.1118   70.0802  222.4463 H   0  0  0  0  0  0  0  0  0  0  0  0
  140.7580   70.0046  223.1987 H   0  0  0  0  0  0  0  0  0  0  0  0
  140.8298   72.2054  225.7817 H   0  0  0  0  0  0  0  0  0  0  0  0
  139.4685   72.0133  226.8934 H   0  0  0  0  0  0  0  0  0  0  0  0
  142.3247   70.9624  227.1407 H   0  0  0  0  0  0  0  0  0  0  0  0
  141.3778   71.6942  228.3934 H   0  0  0  0  0  0  0  0  0  0  0  0
  141.4290   69.0072  228.3662 H   0  0  0  0  0  0  0  0  0  0  0  0
  139.8229   69.6455  228.4727 H   0  0  0  0  0  0  0  0  0  0  0  0
  141.3626   68.7741  225.8825 H   0  0  0  0  0  0  0  0  0  0  0  0
  140.0071   67.1783  227.0870 H   0  0  0  0  0  0  0  0  0  0  0  0
  138.5913   68.3264  226.9011 H   0  0  0  0  0  0  0  0  0  0  0  0
  138.6190   68.0180  224.7160 H   0  0  0  0  0  0  0  0  0  0  0  0
  142.6003   73.3101  220.1630 H   0  0  0  0  0  0  0  0  0  0  0  0
  142.9347   75.7243  219.7050 H   0  0  0  0  0  0  0  0  0  0  0  0
  142.4072   78.0629  220.0667 H   0  0  0  0  0  0  0  0  0  0  0  0
  139.3156   78.9850  222.9307 H   0  0  0  0  0  0  0  0  0  0  0  0
  138.9581   76.5771  223.4046 H   0  0  0  0  0  0  0  0  0  0  0  0
  1  2  2  0
  2  3  1  0
  3  4  1  0
  4  5  1  0
  5  6  2  0
  5  7  1  0
  7  8  1  0
  8  9  1  0
  9 10  1  0
 10 11  1  0
 11 12  1  0
 12 13  1  0
  2 14  1  0
 14 15  2  0
 15 16  1  0
 16 17  2  0
 17 18  1  0
 18 19  2  0
 19 20  1  0
 19 21  1  0
 21 22  2  0
 22 23  1  0
 23 24  2  0
 11  7  1  0
 24 14  1  0
 23 17  1  0
  3 25  1  0
  4 26  1  0
  4 27  1  0
  8 28  1  0
  8 29  1  0
  9 30  1  0
  9 31  1  0
 10 32  1  0
 10 33  1  0
 11 34  1  6
 12 35  1  0
 12 36  1  0
 13 37  1  0
 15 38  1  0
 16 39  1  0
 18 40  1  0
 21 41  1  0
 22 42  1  0
M  END
>  <meeko>  (14) 
{"free_energy": -6.88, "intermolecular_energy": -8.67, "internal_energy": -1.78, "cluster_size": 11, "cluster_id": 2, "rank_in_cluster": 2}

$$$$

     RDKit          3D

 42 44  0  0  0  0  0  0  0  0999 V2000
  140.4010   72.3030  220.7770 O   0  0  0  0  0  0  0  0  0  0  0  0
  140.1060   72.6830  221.9420 C   0  0  0  0  0  0  0  0  0  0  0  0
  139.7950   74.0520  222.1730 N   0  0  0  0  0  0  0  0  0  0  0  0
  139.8270   74.9630  221.0740 C   0  0  0  0  0  0  0  0  0  0  0  0
  140.4070   76.2860  221.4740 C   0  0  0  0  0  0  0  0  0  0  0  0
  140.3470   76.5620  222.7070 O   0  0  0  0  0  0  0  0  0  0  0  0
  140.9770   77.1470  220.5260 N   0  0  0  0  0  0  0  0  0  0  0  0
  140.7800   77.0460  219.0730 C   0  0  0  0  0  0  0  0  0  0  0  0
  141.7180   78.0560  218.4690 C   0  0  0  0  0  0  0  0  0  0  0  0
  141.6980   79.1320  219.5620 C   0  0  0  0  0  0  0  0  0  0  0  0
  141.8370   78.2600  220.7960 C   0  0  1  0  0  0  0  0  0  0  0  0
  141.4430   79.0700  222.0050 C   0  0  0  0  0  0  0  0  0  0  0  0
  141.9850   78.6220  223.1840 O   0  0  0  0  0  0  0  0  0  0  0  0
  140.0820   71.7320  223.0470 C   0  0  0  0  0  0  0  0  0  0  0  0
  139.5400   70.4750  222.8480 C   0  0  0  0  0  0  0  0  0  0  0  0
  139.5320   69.5930  223.9200 C   0  0  0  0  0  0  0  0  0  0  0  0
  140.0350   69.9160  225.1590 C   0  0  0  0  0  0  0  0  0  0  0  0
  140.0080   69.0070  226.2020 C   0  0  0  0  0  0  0  0  0  0  0  0
  140.5400   69.4190  227.4220 C   0  0  0  0  0  0  0  0  0  0  0  0
  140.5230   68.2970  228.7670 Cl  0  0  0  0  0  0  0  0  0  0  0  0
  141.0690   70.6920  227.5640 C   0  0  0  0  0  0  0  0  0  0  0  0
  141.0960   71.5940  226.5250 C   0  0  0  0  0  0  0  0  0  0  0  0
  140.5650   71.1820  225.3070 C   0  0  0  0  0  0  0  0  0  0  0  0
  140.5640   72.0110  224.2720 N   0  0  0  0  0  0  0  0  0  0  0  0
  139.5420   74.4280  223.1230 H   0  0  0  0  0  0  0  0  0  0  0  0
  140.4415   74.5317  220.2700 H   0  0  0  0  0  0  0  0  0  0  0  0
  138.7945   75.1279  220.7322 H   0  0  0  0  0  0  0  0  0  0  0  0
  141.0268   76.0335  218.7210 H   0  0  0  0  0  0  0  0  0  0  0  0
  139.7350   77.2383  218.7885 H   0  0  0  0  0  0  0  0  0  0  0  0
  142.7262   77.6405  218.3247 H   0  0  0  0  0  0  0  0  0  0  0  0
  141.4324   78.4101  217.4675 H   0  0  0  0  0  0  0  0  0  0  0  0
  142.5402   79.8322  219.4604 H   0  0  0  0  0  0  0  0  0  0  0  0
  140.8116   79.7834  219.5535 H   0  0  0  0  0  0  0  0  0  0  0  0
  142.8551   77.9025  221.0094 H   0  0  0  0  0  0  0  0  0  0  0  0
  141.7714   80.1078  221.8468 H   0  0  0  0  0  0  0  0  0  0  0  0
  140.3513   78.9787  222.1044 H   0  0  0  0  0  0  0  0  0  0  0  0
  142.1580   77.6300  223.1650 H   0  0  0  0  0  0  0  0  0  0  0  0
  139.1281   70.1833  221.8706 H   0  0  0  0  0  0  0  0  0  0  0  0
  139.1041   68.5905  223.7720 H   0  0  0  0  0  0  0  0  0  0  0  0
  139.5838   68.0003  226.0732 H   0  0  0  0  0  0  0  0  0  0  0  0
  141.4808   70.9913  228.5391 H   0  0  0  0  0  0  0  0  0  0  0  0
  141.5206   72.6007  226.6525 H   0  0  0  0  0  0  0  0  0  0  0  0
  1  2  2  0
  2  3  1  0
  3  4  1  0
  4  5  1  0
  5  6  2  0
  5  7  1  0
  7  8  1  0
  8  9  1  0
  9 10  1  0
 10 11  1  0
 11 12  1  0
 12 13  1  0
  2 14  1  0
 14 15  2  0
 15 16  1  0
 16 17  2  0
 17 18  1  0
 18 19  2  0
 19 20  1  0
 19 21  1  0
 21 22  2  0
 22 23  1  0
 23 24  2  0
 11  7  1  0
 24 14  1  0
 23 17  1  0
  3 25  1  0
  4 26  1  0
  4 27  1  0
  8 28  1  0
  8 29  1  0
  9 30  1  0
  9 31  1  0
 10 32  1  0
 10 33  1  0
 11 34  1  1
 12 35  1  0
 12 36  1  0
 13 37  1  0
 15 38  1  0
 16 39  1  0
 18 40  1  0
 21 41  1  0
 22 42  1  0
M  END
>  <meeko>  (15) 
{"free_energy": -6.62, "intermolecular_energy": -8.41, "internal_energy": -1.99, "cluster_size": 8, "cluster_id": 1, "rank_in_cluster": 3}

$$$$

     RDKit          3D

 42 44  0  0  0  0  0  0  0  0999 V2000
  141.6670   71.5010  221.3710 O   0  0  0  0  0  0  0  0  0  0  0  0
  140.9950   72.3940  221.9540 C   0  0  0  0  0  0  0  0  0  0  0  0
  140.0740   72.0240  222.9720 N   0  0  0  0  0  0  0  0  0  0  0  0
  139.9330   70.6440  223.3100 C   0  0  0  0  0  0  0  0  0  0  0  0
  139.2390   70.4680  224.6260 C   0  0  0  0  0  0  0  0  0  0  0  0
  137.9760   70.5450  224.5970 O   0  0  0  0  0  0  0  0  0  0  0  0
  139.9620   70.2330  225.8040 N   0  0  0  0  0  0  0  0  0  0  0  0
  140.0880   71.1850  226.9160 C   0  0  0  0  0  0  0  0  0  0  0  0
  141.0880   70.5710  227.8590 C   0  0  0  0  0  0  0  0  0  0  0  0
  140.7850   69.0830  227.6450 C   0  0  0  0  0  0  0  0  0  0  0  0
  140.6920   69.0450  226.1310 C   0  0  1  0  0  0  0  0  0  0  0  0
  140.0110   67.7650  225.7220 C   0  0  0  0  0  0  0  0  0  0  0  0
  138.6480   67.7720  225.8920 O   0  0  0  0  0  0  0  0  0  0  0  0
  141.1570   73.7970  221.5900 C   0  0  0  0  0  0  0  0  0  0  0  0
  141.9700   74.1310  220.5200 C   0  0  0  0  0  0  0  0  0  0  0  0
  142.1030   75.4750  220.2000 C   0  0  0  0  0  0  0  0  0  0  0  0
  141.4670   76.4770  220.8950 C   0  0  0  0  0  0  0  0  0  0  0  0
  141.6260   77.8060  220.5430 C   0  0  0  0  0  0  0  0  0  0  0  0
  140.9430   78.7540  221.3010 C   0  0  0  0  0  0  0  0  0  0  0  0
  141.1210   80.4470  220.8860 Cl  0  0  0  0  0  0  0  0  0  0  0  0
  140.1440   78.3620  222.3620 C   0  0  0  0  0  0  0  0  0  0  0  0
  139.9850   77.0400  222.7110 C   0  0  0  0  0  0  0  0  0  0  0  0
  140.6670   76.0930  221.9530 C   0  0  0  0  0  0  0  0  0  0  0  0
  140.5520   74.8040  222.2440 N   0  0  0  0  0  0  0  0  0  0  0  0
  139.4860   72.7260  223.4930 H   0  0  0  0  0  0  0  0  0  0  0  0
  139.3458   70.1425  222.5266 H   0  0  0  0  0  0  0  0  0  0  0  0
  140.9381   70.2041  223.3889 H   0  0  0  0  0  0  0  0  0  0  0  0
  140.4505   72.1572  226.5507 H   0  0  0  0  0  0  0  0  0  0  0  0
  139.1215   71.3681  227.4083 H   0  0  0  0  0  0  0  0  0  0  0  0
  142.1213   70.8211  227.5764 H   0  0  0  0  0  0  0  0  0  0  0  0
  141.0090   70.9126  228.9016 H   0  0  0  0  0  0  0  0  0  0  0  0
  141.5977   68.4434  228.0198 H   0  0  0  0  0  0  0  0  0  0  0  0
  139.8936   68.7124  228.1722 H   0  0  0  0  0  0  0  0  0  0  0  0
  141.6546   69.0398  225.5986 H   0  0  0  0  0  0  0  0  0  0  0  0
  140.2248   67.5855  224.6580 H   0  0  0  0  0  0  0  0  0  0  0  0
  140.4066   66.9741  226.3762 H   0  0  0  0  0  0  0  0  0  0  0  0
  138.2230   68.5870  225.4780 H   0  0  0  0  0  0  0  0  0  0  0  0
  142.4939   73.3556  219.9418 H   0  0  0  0  0  0  0  0  0  0  0  0
  142.7465   75.7514  219.3517 H   0  0  0  0  0  0  0  0  0  0  0  0
  142.2660   78.1016  219.6986 H   0  0  0  0  0  0  0  0  0  0  0  0
  139.6189   79.1327  222.9453 H   0  0  0  0  0  0  0  0  0  0  0  0
  139.3447   76.7441  223.5550 H   0  0  0  0  0  0  0  0  0  0  0  0
  1  2  2  0
  2  3  1  0
  3  4  1  0
  4  5  1  0
  5  6  2  0
  5  7  1  0
  7  8  1  0
  8  9  1  0
  9 10  1  0
 10 11  1  0
 11 12  1  0
 12 13  1  0
  2 14  1  0
 14 15  2  0
 15 16  1  0
 16 17  2  0
 17 18  1  0
 18 19  2  0
 19 20  1  0
 19 21  1  0
 21 22  2  0
 22 23  1  0
 23 24  2  0
 11  7  1  0
 24 14  1  0
 23 17  1  0
  3 25  1  0
  4 26  1  0
  4 27  1  0
  8 28  1  0
  8 29  1  0
  9 30  1  0
  9 31  1  0
 10 32  1  0
 10 33  1  0
 11 34  1  6
 12 35  1  0
 12 36  1  0
 13 37  1  0
 15 38  1  0
 16 39  1  0
 18 40  1  0
 21 41  1  0
 22 42  1  0
M  END
>  <meeko>  (16) 
{"free_energy": -6.5, "intermolecular_energy": -8.29, "internal_energy": -1.85, "cluster_size": 11, "cluster_id": 2, "rank_in_cluster": 11}

$$$$

     RDKit          3D

 42 44  0  0  0  0  0  0  0  0999 V2000
  140.0760   72.1550  220.6930 O   0  0  0  0  0  0  0  0  0  0  0  0
  139.9240   72.5480  221.8810 C   0  0  0  0  0  0  0  0  0  0  0  0
  139.7110   73.9310  222.1380 N   0  0  0  0  0  0  0  0  0  0  0  0
  139.6770   74.8420  221.0390 C   0  0  0  0  0  0  0  0  0  0  0  0
  140.6770   75.9450  221.2080 C   0  0  0  0  0  0  0  0  0  0  0  0
  141.0330   76.1860  222.3980 O   0  0  0  0  0  0  0  0  0  0  0  0
  141.1760   76.6500  220.1050 N   0  0  0  0  0  0  0  0  0  0  0  0
  141.0650   78.1030  219.9160 C   0  0  0  0  0  0  0  0  0  0  0  0
  141.5780   78.3700  218.5270 C   0  0  0  0  0  0  0  0  0  0  0  0
  142.6440   77.2710  218.4160 C   0  0  0  0  0  0  0  0  0  0  0  0
  141.8720   76.0940  218.9830 C   0  0  1  0  0  0  0  0  0  0  0  0
  142.8500   75.0040  219.3380 C   0  0  0  0  0  0  0  0  0  0  0  0
  143.1560   74.9340  220.6750 O   0  0  0  0  0  0  0  0  0  0  0  0
  139.9640   71.5980  222.9860 C   0  0  0  0  0  0  0  0  0  0  0  0
  139.4730   70.3170  222.7970 C   0  0  0  0  0  0  0  0  0  0  0  0
  139.5260   69.4370  223.8680 C   0  0  0  0  0  0  0  0  0  0  0  0
  140.0400   69.7820  225.0970 C   0  0  0  0  0  0  0  0  0  0  0  0
  140.0740   68.8730  226.1400 C   0  0  0  0  0  0  0  0  0  0  0  0
  140.6140   69.3080  227.3490 C   0  0  0  0  0  0  0  0  0  0  0  0
  140.6730   68.1860  228.6930 Cl  0  0  0  0  0  0  0  0  0  0  0  0
  141.0900   70.6020  227.4800 C   0  0  0  0  0  0  0  0  0  0  0  0
  141.0560   71.5040  226.4420 C   0  0  0  0  0  0  0  0  0  0  0  0
  140.5170   71.0700  225.2350 C   0  0  0  0  0  0  0  0  0  0  0  0
  140.4590   71.8970  224.2000 N   0  0  0  0  0  0  0  0  0  0  0  0
  139.5770   74.3170  223.1080 H   0  0  0  0  0  0  0  0  0  0  0  0
  139.9034   74.2933  220.1129 H   0  0  0  0  0  0  0  0  0  0  0  0
  138.6735   75.2903  220.9936 H   0  0  0  0  0  0  0  0  0  0  0  0
  140.0165   78.4231  220.0063 H   0  0  0  0  0  0  0  0  0  0  0  0
  141.6367   78.6573  220.6749 H   0  0  0  0  0  0  0  0  0  0  0  0
  140.7883   78.2496  217.7708 H   0  0  0  0  0  0  0  0  0  0  0  0
  141.9494   79.3919  218.3605 H   0  0  0  0  0  0  0  0  0  0  0  0
  142.9437   77.0974  217.3719 H   0  0  0  0  0  0  0  0  0  0  0  0
  143.5918   77.4925  218.9284 H   0  0  0  0  0  0  0  0  0  0  0  0
  141.1546   75.6239  218.2943 H   0  0  0  0  0  0  0  0  0  0  0  0
  142.4175   74.0399  219.0324 H   0  0  0  0  0  0  0  0  0  0  0  0
  143.7873   75.2374  218.8117 H   0  0  0  0  0  0  0  0  0  0  0  0
  142.7930   75.7240  221.1850 H   0  0  0  0  0  0  0  0  0  0  0  0
  139.0542   70.0071  221.8282 H   0  0  0  0  0  0  0  0  0  0  0  0
  139.1395   68.4166  223.7285 H   0  0  0  0  0  0  0  0  0  0  0  0
  139.6905   67.8490  226.0197 H   0  0  0  0  0  0  0  0  0  0  0  0
  141.5092   70.9190  228.4463 H   0  0  0  0  0  0  0  0  0  0  0  0
  141.4398   72.5279  226.5615 H   0  0  0  0  0  0  0  0  0  0  0  0
  1  2  2  0
  2  3  1  0
  3  4  1  0
  4  5  1  0
  5  6  2  0
  5  7  1  0
  7  8  1  0
  8  9  1  0
  9 10  1  0
 10 11  1  0
 11 12  1  0
 12 13  1  0
  2 14  1  0
 14 15  2  0
 15 16  1  0
 16 17  2  0
 17 18  1  0
 18 19  2  0
 19 20  1  0
 19 21  1  0
 21 22  2  0
 22 23  1  0
 23 24  2  0
 11  7  1  0
 24 14  1  0
 23 17  1  0
  3 25  1  0
  4 26  1  0
  4 27  1  0
  8 28  1  0
  8 29  1  0
  9 30  1  0
  9 31  1  0
 10 32  1  0
 10 33  1  0
 11 34  1  6
 12 35  1  0
 12 36  1  0
 13 37  1  0
 15 38  1  0
 16 39  1  0
 18 40  1  0
 21 41  1  0
 22 42  1  0
M  END
>  <meeko>  (17) 
{"free_energy": -6.54, "intermolecular_energy": -8.33, "internal_energy": -1.94, "cluster_size": 8, "cluster_id": 1, "rank_in_cluster": 7}

$$$$

     RDKit          3D

 42 44  0  0  0  0  0  0  0  0999 V2000
  141.1840   71.4610  221.4970 O   0  0  0  0  0  0  0  0  0  0  0  0
  140.7760   72.5090  222.0640 C   0  0  0  0  0  0  0  0  0  0  0  0
  140.0180   72.4050  223.2630 N   0  0  0  0  0  0  0  0  0  0  0  0
  139.7370   71.1100  223.7950 C   0  0  0  0  0  0  0  0  0  0  0  0
  140.3300   70.9360  225.1600 C   0  0  0  0  0  0  0  0  0  0  0  0
  141.0600   71.8860  225.5670 O   0  0  0  0  0  0  0  0  0  0  0  0
  140.0770   69.7880  225.9230 N   0  0  0  0  0  0  0  0  0  0  0  0
  139.9340   68.4310  225.3760 C   0  0  0  0  0  0  0  0  0  0  0  0
  139.4980   67.5750  226.5340 C   0  0  0  0  0  0  0  0  0  0  0  0
  140.2260   68.2830  227.6850 C   0  0  0  0  0  0  0  0  0  0  0  0
  139.9150   69.7290  227.3440 C   0  0  1  0  0  0  0  0  0  0  0  0
  140.8590   70.6180  228.1130 C   0  0  0  0  0  0  0  0  0  0  0  0
  140.3830   71.8860  228.3360 O   0  0  0  0  0  0  0  0  0  0  0  0
  141.0750   73.8200  221.5000 C   0  0  0  0  0  0  0  0  0  0  0  0
  141.8050   73.9030  220.3270 C   0  0  0  0  0  0  0  0  0  0  0  0
  142.0730   75.1650  219.8160 C   0  0  0  0  0  0  0  0  0  0  0  0
  141.6470   76.3250  220.4230 C   0  0  0  0  0  0  0  0  0  0  0  0
  141.9360   77.5650  219.8810 C   0  0  0  0  0  0  0  0  0  0  0  0
  141.4650   78.6850  220.5620 C   0  0  0  0  0  0  0  0  0  0  0  0
  141.8110   80.2730  219.9070 Cl  0  0  0  0  0  0  0  0  0  0  0  0
  140.7400   78.5410  221.7330 C   0  0  0  0  0  0  0  0  0  0  0  0
  140.4530   77.3080  222.2710 C   0  0  0  0  0  0  0  0  0  0  0  0
  140.9230   76.1890  221.5910 C   0  0  0  0  0  0  0  0  0  0  0  0
  140.6760   74.9750  222.0640 N   0  0  0  0  0  0  0  0  0  0  0  0
  139.6500   73.2450  223.7810 H   0  0  0  0  0  0  0  0  0  0  0  0
  138.6467   70.9791  223.8597 H   0  0  0  0  0  0  0  0  0  0  0  0
  140.1829   70.3585  223.1269 H   0  0  0  0  0  0  0  0  0  0  0  0
  139.1756   68.4155  224.5794 H   0  0  0  0  0  0  0  0  0  0  0  0
  140.8728   68.0690  224.9315 H   0  0  0  0  0  0  0  0  0  0  0  0
  138.4064   67.5964  226.6681 H   0  0  0  0  0  0  0  0  0  0  0  0
  139.7307   66.5049  226.4299 H   0  0  0  0  0  0  0  0  0  0  0  0
  139.8155   67.9973  228.6647 H   0  0  0  0  0  0  0  0  0  0  0  0
  141.2970   68.0472  227.7703 H   0  0  0  0  0  0  0  0  0  0  0  0
  138.9069   70.0725  227.6194 H   0  0  0  0  0  0  0  0  0  0  0  0
  141.0583   70.1482  229.0875 H   0  0  0  0  0  0  0  0  0  0  0  0
  141.7644   70.7244  227.4975 H   0  0  0  0  0  0  0  0  0  0  0  0
  140.6050   72.5090  227.5750 H   0  0  0  0  0  0  0  0  0  0  0  0
  142.1616   72.9967  219.8157 H   0  0  0  0  0  0  0  0  0  0  0  0
  142.6519   75.2421  218.8839 H   0  0  0  0  0  0  0  0  0  0  0  0
  142.5142   77.6622  218.9503 H   0  0  0  0  0  0  0  0  0  0  0  0
  140.3815   79.4431  222.2504 H   0  0  0  0  0  0  0  0  0  0  0  0
  139.8749   77.2106  223.2018 H   0  0  0  0  0  0  0  0  0  0  0  0
  1  2  2  0
  2  3  1  0
  3  4  1  0
  4  5  1  0
  5  6  2  0
  5  7  1  0
  7  8  1  0
  8  9  1  0
  9 10  1  0
 10 11  1  0
 11 12  1  0
 12 13  1  0
  2 14  1  0
 14 15  2  0
 15 16  1  0
 16 17  2  0
 17 18  1  0
 18 19  2  0
 19 20  1  0
 19 21  1  0
 21 22  2  0
 22 23  1  0
 23 24  2  0
 11  7  1  0
 24 14  1  0
 23 17  1  0
  3 25  1  0
  4 26  1  0
  4 27  1  0
  8 28  1  0
  8 29  1  0
  9 30  1  0
  9 31  1  0
 10 32  1  0
 10 33  1  0
 11 34  1  6
 12 35  1  0
 12 36  1  0
 13 37  1  0
 15 38  1  0
 16 39  1  0
 18 40  1  0
 21 41  1  0
 22 42  1  0
M  END
>  <meeko>  (18) 
{"free_energy": -6.75, "intermolecular_energy": -8.54, "internal_energy": -1.84, "cluster_size": 11, "cluster_id": 2, "rank_in_cluster": 7}

$$$$

     RDKit          3D

 42 44  0  0  0  0  0  0  0  0999 V2000
  141.0630   71.3800  221.3110 O   0  0  0  0  0  0  0  0  0  0  0  0
  140.7970   72.4220  221.9680 C   0  0  0  0  0  0  0  0  0  0  0  0
  140.2070   72.3040  223.2570 N   0  0  0  0  0  0  0  0  0  0  0  0
  139.9300   71.0020  223.7750 C   0  0  0  0  0  0  0  0  0  0  0  0
  140.2730   70.9060  225.2310 C   0  0  0  0  0  0  0  0  0  0  0  0
  140.7530   71.9540  225.7530 O   0  0  0  0  0  0  0  0  0  0  0  0
  140.0640   69.7220  225.9510 N   0  0  0  0  0  0  0  0  0  0  0  0
  139.9150   68.3890  225.3500 C   0  0  0  0  0  0  0  0  0  0  0  0
  139.5360   67.4760  226.4850 C   0  0  0  0  0  0  0  0  0  0  0  0
  140.3030   68.1420  227.6360 C   0  0  0  0  0  0  0  0  0  0  0  0
  139.9620   69.5980  227.3740 C   0  0  1  0  0  0  0  0  0  0  0  0
  140.9260   70.4640  228.1430 C   0  0  0  0  0  0  0  0  0  0  0  0
  140.4900   71.7490  228.3480 O   0  0  0  0  0  0  0  0  0  0  0  0
  141.0890   73.7400  221.4160 C   0  0  0  0  0  0  0  0  0  0  0  0
  141.7770   73.8360  220.2190 C   0  0  0  0  0  0  0  0  0  0  0  0
  142.0390   75.1040  219.7210 C   0  0  0  0  0  0  0  0  0  0  0  0
  141.6470   76.2570  220.3620 C   0  0  0  0  0  0  0  0  0  0  0  0
  141.9280   77.5040  219.8310 C   0  0  0  0  0  0  0  0  0  0  0  0
  141.4920   78.6160  220.5470 C   0  0  0  0  0  0  0  0  0  0  0  0
  141.8310   80.2120  219.9070 Cl  0  0  0  0  0  0  0  0  0  0  0  0
  140.8080   78.4590  221.7410 C   0  0  0  0  0  0  0  0  0  0  0  0
  140.5280   77.2190  222.2680 C   0  0  0  0  0  0  0  0  0  0  0  0
  140.9630   76.1080  221.5520 C   0  0  0  0  0  0  0  0  0  0  0  0
  140.7220   74.8880  222.0130 N   0  0  0  0  0  0  0  0  0  0  0  0
  139.9630   73.1380  223.8510 H   0  0  0  0  0  0  0  0  0  0  0  0
  138.8593   70.7859  223.6449 H   0  0  0  0  0  0  0  0  0  0  0  0
  140.5457   70.2740  223.2265 H   0  0  0  0  0  0  0  0  0  0  0  0
  139.1253   68.3987  224.5843 H   0  0  0  0  0  0  0  0  0  0  0  0
  140.8394   68.0599  224.8529 H   0  0  0  0  0  0  0  0  0  0  0  0
  138.4507   67.4772  226.6640 H   0  0  0  0  0  0  0  0  0  0  0  0
  139.7757   66.4146  226.3236 H   0  0  0  0  0  0  0  0  0  0  0  0
  139.9368   67.8075  228.6178 H   0  0  0  0  0  0  0  0  0  0  0  0
  141.3793   67.9169  227.6663 H   0  0  0  0  0  0  0  0  0  0  0  0
  138.9627   69.9160  227.7059 H   0  0  0  0  0  0  0  0  0  0  0  0
  141.1001   69.9985  229.1243 H   0  0  0  0  0  0  0  0  0  0  0  0
  141.8402   70.5344  227.5354 H   0  0  0  0  0  0  0  0  0  0  0  0
  140.4580   72.2760  227.4890 H   0  0  0  0  0  0  0  0  0  0  0  0
  142.1056   72.9354  219.6796 H   0  0  0  0  0  0  0  0  0  0  0  0
  142.5851   75.1919  218.7702 H   0  0  0  0  0  0  0  0  0  0  0  0
  142.4735   77.6122  218.8820 H   0  0  0  0  0  0  0  0  0  0  0  0
  140.4775   79.3554  222.2862 H   0  0  0  0  0  0  0  0  0  0  0  0
  139.9824   77.1105  223.2169 H   0  0  0  0  0  0  0  0  0  0  0  0
  1  2  2  0
  2  3  1  0
  3  4  1  0
  4  5  1  0
  5  6  2  0
  5  7  1  0
  7  8  1  0
  8  9  1  0
  9 10  1  0
 10 11  1  0
 11 12  1  0
 12 13  1  0
  2 14  1  0
 14 15  2  0
 15 16  1  0
 16 17  2  0
 17 18  1  0
 18 19  2  0
 19 20  1  0
 19 21  1  0
 21 22  2  0
 22 23  1  0
 23 24  2  0
 11  7  1  0
 24 14  1  0
 23 17  1  0
  3 25  1  0
  4 26  1  0
  4 27  1  0
  8 28  1  0
  8 29  1  0
  9 30  1  0
  9 31  1  0
 10 32  1  0
 10 33  1  0
 11 34  1  1
 12 35  1  0
 12 36  1  0
 13 37  1  0
 15 38  1  0
 16 39  1  0
 18 40  1  0
 21 41  1  0
 22 42  1  0
M  END
>  <meeko>  (19) 
{"free_energy": -6.64, "intermolecular_energy": -8.43, "internal_energy": -2.04, "cluster_size": 11, "cluster_id": 2, "rank_in_cluster": 9}

$$$$

     RDKit          3D

 42 44  0  0  0  0  0  0  0  0999 V2000
  141.2280   71.3440  221.1620 O   0  0  0  0  0  0  0  0  0  0  0  0
  140.6370   72.2370  221.8250 C   0  0  0  0  0  0  0  0  0  0  0  0
  139.6980   71.8590  222.8250 N   0  0  0  0  0  0  0  0  0  0  0  0
  139.4480   70.4720  223.0510 C   0  0  0  0  0  0  0  0  0  0  0  0
  138.9900   70.2180  224.4550 C   0  0  0  0  0  0  0  0  0  0  0  0
  137.7710   69.9060  224.5870 O   0  0  0  0  0  0  0  0  0  0  0  0
  139.8730   70.3210  225.5390 N   0  0  0  0  0  0  0  0  0  0  0  0
  140.3300   71.5860  226.1320 C   0  0  0  0  0  0  0  0  0  0  0  0
  141.3870   71.2030  227.1320 C   0  0  0  0  0  0  0  0  0  0  0  0
  140.8450   69.8430  227.5930 C   0  0  0  0  0  0  0  0  0  0  0  0
  140.4770   69.2360  226.2510 C   0  0  1  0  0  0  0  0  0  0  0  0
  139.5610   68.0630  226.4890 C   0  0  0  0  0  0  0  0  0  0  0  0
  139.2110   67.3810  225.3500 O   0  0  0  0  0  0  0  0  0  0  0  0
  140.9090   73.6470  221.5740 C   0  0  0  0  0  0  0  0  0  0  0  0
  141.9160   73.9970  220.6920 C   0  0  0  0  0  0  0  0  0  0  0  0
  142.1500   75.3470  220.4750 C   0  0  0  0  0  0  0  0  0  0  0  0
  141.4290   76.3420  221.0950 C   0  0  0  0  0  0  0  0  0  0  0  0
  141.6940   77.6780  220.8510 C   0  0  0  0  0  0  0  0  0  0  0  0
  140.9140   78.6170  221.5220 C   0  0  0  0  0  0  0  0  0  0  0  0
  141.2210   80.3190  221.2390 Cl  0  0  0  0  0  0  0  0  0  0  0  0
  139.9200   78.2090  222.3950 C   0  0  0  0  0  0  0  0  0  0  0  0
  139.6570   76.8800  222.6370 C   0  0  0  0  0  0  0  0  0  0  0  0
  140.4350   75.9420  221.9660 C   0  0  0  0  0  0  0  0  0  0  0  0
  140.2260   74.6470  222.1610 N   0  0  0  0  0  0  0  0  0  0  0  0
  139.1740   72.5610  223.4100 H   0  0  0  0  0  0  0  0  0  0  0  0
  138.6686   70.1310  222.3536 H   0  0  0  0  0  0  0  0  0  0  0  0
  140.3864   69.9214  222.8892 H   0  0  0  0  0  0  0  0  0  0  0  0
  140.7534   72.2427  225.3577 H   0  0  0  0  0  0  0  0  0  0  0  0
  139.5033   72.1377  226.6034 H   0  0  0  0  0  0  0  0  0  0  0  0
  142.3772   71.1089  226.6623 H   0  0  0  0  0  0  0  0  0  0  0  0
  141.5454   71.9339  227.9386 H   0  0  0  0  0  0  0  0  0  0  0  0
  141.6142   69.2516  228.1112 H   0  0  0  0  0  0  0  0  0  0  0  0
  140.0204   69.8954  228.3191 H   0  0  0  0  0  0  0  0  0  0  0  0
  141.3180   68.8306  225.6694 H   0  0  0  0  0  0  0  0  0  0  0  0
  140.0679   67.3621  227.1686 H   0  0  0  0  0  0  0  0  0  0  0  0
  138.6306   68.4698  226.9118 H   0  0  0  0  0  0  0  0  0  0  0  0
  138.6080   67.9260  224.7560 H   0  0  0  0  0  0  0  0  0  0  0  0
  142.5126   73.2285  220.1787 H   0  0  0  0  0  0  0  0  0  0  0  0
  142.9483   75.6355  219.7754 H   0  0  0  0  0  0  0  0  0  0  0  0
  142.4884   77.9861  220.1553 H   0  0  0  0  0  0  0  0  0  0  0  0
  139.3205   78.9725  222.9124 H   0  0  0  0  0  0  0  0  0  0  0  0
  138.8632   76.5717  223.3333 H   0  0  0  0  0  0  0  0  0  0  0  0
  1  2  2  0
  2  3  1  0
  3  4  1  0
  4  5  1  0
  5  6  2  0
  5  7  1  0
  7  8  1  0
  8  9  1  0
  9 10  1  0
 10 11  1  0
 11 12  1  0
 12 13  1  0
  2 14  1  0
 14 15  2  0
 15 16  1  0
 16 17  2  0
 17 18  1  0
 18 19  2  0
 19 20  1  0
 19 21  1  0
 21 22  2  0
 22 23  1  0
 23 24  2  0
 11  7  1  0
 24 14  1  0
 23 17  1  0
  3 25  1  0
  4 26  1  0
  4 27  1  0
  8 28  1  0
  8 29  1  0
  9 30  1  0
  9 31  1  0
 10 32  1  0
 10 33  1  0
 11 34  1  6
 12 35  1  0
 12 36  1  0
 13 37  1  0
 15 38  1  0
 16 39  1  0
 18 40  1  0
 21 41  1  0
 22 42  1  0
M  END
>  <meeko>  (20) 
{"free_energy": -6.88, "intermolecular_energy": -8.67, "internal_energy": -1.82, "cluster_size": 11, "cluster_id": 2, "rank_in_cluster": 5}

$$$$
