
     RDKit          3D

 51 54  0  0  0  0  0  0  0  0999 V2000
  140.3980   71.3470  221.2420 O   0  0  0  0  0  0  0  0  0  0  0  0
  139.9060   71.8760  222.2730 C   0  0  0  0  0  0  0  0  0  0  0  0
  139.2780   73.1870  222.1150 N   0  0  0  0  0  0  0  0  0  0  0  0
  139.2930   73.7200  220.8080 C   0  0  0  0  0  0  0  0  0  0  0  0
  139.0720   75.1470  220.5840 C   0  0  0  0  0  0  0  0  0  0  0  0
  138.5060   75.3930  219.4300 O   0  0  0  0  0  0  0  0  0  0  0  0
  139.3530   76.2610  221.3600 N   0  0  0  0  0  0  0  0  0  0  0  0
  138.4800   76.8470  222.3690 C   0  0  0  0  0  0  0  0  0  0  0  0
  138.8690   78.3290  222.5590 C   0  0  0  0  0  0  0  0  0  0  0  0
  140.2760   78.4970  223.0300 C   0  0  0  0  0  0  0  0  0  0  0  0
  141.0820   77.2810  222.6500 C   0  0  0  0  0  0  0  0  0  0  0  0
  140.6540   76.9220  221.2080 C   0  0  1  0  0  0  0  0  0  0  0  0
  141.6970   76.0310  220.6300 C   0  0  0  0  0  0  0  0  0  0  0  0
  142.0610   74.8300  221.2030 C   0  0  0  0  0  0  0  0  0  0  0  0
  143.0100   73.9960  220.6310 C   0  0  0  0  0  0  0  0  0  0  0  0
  143.6340   74.3420  219.4540 C   0  0  0  0  0  0  0  0  0  0  0  0
  144.8410   73.3330  218.6810 Cl  0  0  0  0  0  0  0  0  0  0  0  0
  143.2910   75.5230  218.8690 C   0  0  0  0  0  0  0  0  0  0  0  0
  142.3460   76.3560  219.4340 C   0  0  0  0  0  0  0  0  0  0  0  0
  139.9380   71.2490  223.5830 C   0  0  0  0  0  0  0  0  0  0  0  0
  139.3960   69.9930  223.6970 C   0  0  0  0  0  0  0  0  0  0  0  0
  139.4060   69.3600  224.9260 C   0  0  0  0  0  0  0  0  0  0  0  0
  139.9650   70.0100  226.0250 C   0  0  0  0  0  0  0  0  0  0  0  0
  139.9620   69.3510  227.2460 C   0  0  0  0  0  0  0  0  0  0  0  0
  140.5190   70.0080  228.3240 C   0  0  0  0  0  0  0  0  0  0  0  0
  141.0630   71.2810  228.1850 C   0  0  0  0  0  0  0  0  0  0  0  0
  141.0480   71.9000  226.9560 C   0  0  0  0  0  0  0  0  0  0  0  0
  140.5010   71.2760  225.8680 C   0  0  0  0  0  0  0  0  0  0  0  0
  140.4820   71.8840  224.6460 N   0  0  0  0  0  0  0  0  0  0  0  0
  138.9120   73.5700  222.9940 H   0  0  0  0  0  0  0  0  0  0  0  0
  140.2798   73.4839  220.3832 H   0  0  0  0  0  0  0  0  0  0  0  0
  138.4093   73.2581  220.3435 H   0  0  0  0  0  0  0  0  0  0  0  0
  137.4333   76.7785  222.0379 H   0  0  0  0  0  0  0  0  0  0  0  0
  138.5899   76.3055  223.3202 H   0  0  0  0  0  0  0  0  0  0  0  0
  138.7550   78.8494  221.5966 H   0  0  0  0  0  0  0  0  0  0  0  0
  138.2069   78.7514  223.3292 H   0  0  0  0  0  0  0  0  0  0  0  0
  140.7156   79.3895  222.5608 H   0  0  0  0  0  0  0  0  0  0  0  0
  140.2848   78.6155  224.1236 H   0  0  0  0  0  0  0  0  0  0  0  0
  142.1576   77.5089  222.6843 H   0  0  0  0  0  0  0  0  0  0  0  0
  140.9042   76.4459  223.3436 H   0  0  0  0  0  0  0  0  0  0  0  0
  140.5587   77.7807  220.5271 H   0  0  0  0  0  0  0  0  0  0  0  0
  141.5826   74.5237  222.1450 H   0  0  0  0  0  0  0  0  0  0  0  0
  143.2670   73.0467  221.1238 H   0  0  0  0  0  0  0  0  0  0  0  0
  143.7766   75.8192  217.9275 H   0  0  0  0  0  0  0  0  0  0  0  0
  142.0965   77.3013  218.9299 H   0  0  0  0  0  0  0  0  0  0  0  0
  138.9581   69.4952  222.8193 H   0  0  0  0  0  0  0  0  0  0  0  0
  138.9770   68.3531  225.0355 H   0  0  0  0  0  0  0  0  0  0  0  0
  139.5323   68.3438  227.3506 H   0  0  0  0  0  0  0  0  0  0  0  0
  140.5331   69.5177  229.3086 H   0  0  0  0  0  0  0  0  0  0  0  0
  141.5036   71.7909  229.0544 H   0  0  0  0  0  0  0  0  0  0  0  0
  141.4798   72.9058  226.8472 H   0  0  0  0  0  0  0  0  0  0  0  0
  1  2  2  0
  2  3  1  0
  3  4  1  0
  4  5  1  0
  5  6  2  0
  5  7  1  0
  7  8  1  0
  8  9  1  0
  9 10  1  0
 10 11  1  0
 11 12  1  0
 12 13  1  0
 13 14  2  0
 14 15  1  0
 15 16  2  0
 16 17  1  0
 16 18  1  0
 18 19  2  0
  2 20  1  0
 20 21  2  0
 21 22  1  0
 22 23  2  0
 23 24  1  0
 24 25  2  0
 25 26  1  0
 26 27  2  0
 27 28  1  0
 28 29  2  0
 12  7  1  0
 19 13  1  0
 29 20  1  0
 28 23  1  0
  3 30  1  0
  4 31  1  0
  4 32  1  0
  8 33  1  0
  8 34  1  0
  9 35  1  0
  9 36  1  0
 10 37  1  0
 10 38  1  0
 11 39  1  0
 11 40  1  0
 12 41  1  6
 14 42  1  0
 15 43  1  0
 18 44  1  0
 19 45  1  0
 21 46  1  0
 22 47  1  0
 24 48  1  0
 25 49  1  0
 26 50  1  0
 27 51  1  0
M  END
>  <meeko>  (1) 
{"free_energy": -8.34, "intermolecular_energy": -9.83, "internal_energy": -1.56, "cluster_size": 2, "cluster_id": 2, "rank_in_cluster": 2}

$$$$

     RDKit          3D

 51 54  0  0  0  0  0  0  0  0999 V2000
  139.8300   71.2320  221.1640 O   0  0  0  0  0  0  0  0  0  0  0  0
  139.8320   71.8660  222.2520 C   0  0  0  0  0  0  0  0  0  0  0  0
  139.7220   73.3220  222.1760 N   0  0  0  0  0  0  0  0  0  0  0  0
  139.6250   73.8620  220.8750 C   0  0  0  0  0  0  0  0  0  0  0  0
  140.7660   73.8180  219.9640 C   0  0  0  0  0  0  0  0  0  0  0  0
  140.4580   74.1980  218.7500 O   0  0  0  0  0  0  0  0  0  0  0  0
  142.0900   73.4500  220.1530 N   0  0  0  0  0  0  0  0  0  0  0  0
  142.6330   72.1040  220.0310 C   0  0  0  0  0  0  0  0  0  0  0  0
  143.9320   72.0170  220.8600 C   0  0  0  0  0  0  0  0  0  0  0  0
  144.9800   72.9690  220.3870 C   0  0  0  0  0  0  0  0  0  0  0  0
  144.3270   74.1090  219.6490 C   0  0  0  0  0  0  0  0  0  0  0  0
  143.0760   74.4880  220.4740 C   0  0  1  0  0  0  0  0  0  0  0  0
  142.6460   75.8510  220.0540 C   0  0  0  0  0  0  0  0  0  0  0  0
  141.7900   76.6330  220.8010 C   0  0  0  0  0  0  0  0  0  0  0  0
  141.4290   77.9140  220.4100 C   0  0  0  0  0  0  0  0  0  0  0  0
  141.9190   78.4580  219.2440 C   0  0  0  0  0  0  0  0  0  0  0  0
  141.5010   80.0700  218.6950 Cl  0  0  0  0  0  0  0  0  0  0  0  0
  142.7650   77.7040  218.4900 C   0  0  0  0  0  0  0  0  0  0  0  0
  143.1280   76.4300  218.8750 C   0  0  0  0  0  0  0  0  0  0  0  0
  139.9370   71.2210  223.5490 C   0  0  0  0  0  0  0  0  0  0  0  0
  139.5290   69.9140  223.6420 C   0  0  0  0  0  0  0  0  0  0  0  0
  139.6130   69.2630  224.8590 C   0  0  0  0  0  0  0  0  0  0  0  0
  140.1080   69.9470  225.9670 C   0  0  0  0  0  0  0  0  0  0  0  0
  140.1810   69.2700  227.1750 C   0  0  0  0  0  0  0  0  0  0  0  0
  140.6730   69.9610  228.2630 C   0  0  0  0  0  0  0  0  0  0  0  0
  141.0810   71.2850  228.1460 C   0  0  0  0  0  0  0  0  0  0  0  0
  140.9940   71.9220  226.9290 C   0  0  0  0  0  0  0  0  0  0  0  0
  140.5080   71.2650  225.8310 C   0  0  0  0  0  0  0  0  0  0  0  0
  140.4190   71.8900  224.6220 N   0  0  0  0  0  0  0  0  0  0  0  0
  139.7470   73.7790  223.0940 H   0  0  0  0  0  0  0  0  0  0  0  0
  138.8022   73.3306  220.3744 H   0  0  0  0  0  0  0  0  0  0  0  0
  139.5026   74.9387  221.0641 H   0  0  0  0  0  0  0  0  0  0  0  0
  141.9024   71.3744  220.4103 H   0  0  0  0  0  0  0  0  0  0  0  0
  142.8466   71.8805  218.9754 H   0  0  0  0  0  0  0  0  0  0  0  0
  143.6960   72.2460  221.9097 H   0  0  0  0  0  0  0  0  0  0  0  0
  144.3318   70.9985  220.7468 H   0  0  0  0  0  0  0  0  0  0  0  0
  145.5353   73.3620  221.2514 H   0  0  0  0  0  0  0  0  0  0  0  0
  145.6736   72.4453  219.7128 H   0  0  0  0  0  0  0  0  0  0  0  0
  145.0146   74.9650  219.5820 H   0  0  0  0  0  0  0  0  0  0  0  0
  144.0608   73.8239  218.6205 H   0  0  0  0  0  0  0  0  0  0  0  0
  143.2352   74.5276  221.5617 H   0  0  0  0  0  0  0  0  0  0  0  0
  141.3800   76.2275  221.7377 H   0  0  0  0  0  0  0  0  0  0  0  0
  140.7437   78.5017  221.0385 H   0  0  0  0  0  0  0  0  0  0  0  0
  143.1676   78.1191  217.5543 H   0  0  0  0  0  0  0  0  0  0  0  0
  143.8150   75.8538  218.2378 H   0  0  0  0  0  0  0  0  0  0  0  0
  139.1391   69.3895  222.7572 H   0  0  0  0  0  0  0  0  0  0  0  0
  139.2920   68.2149  224.9513 H   0  0  0  0  0  0  0  0  0  0  0  0
  139.8589   68.2219  227.2624 H   0  0  0  0  0  0  0  0  0  0  0  0
  140.7436   69.4567  229.2380 H   0  0  0  0  0  0  0  0  0  0  0  0
  141.4720   71.8216  229.0231 H   0  0  0  0  0  0  0  0  0  0  0  0
  141.3182   72.9692  226.8379 H   0  0  0  0  0  0  0  0  0  0  0  0
  1  2  2  0
  2  3  1  0
  3  4  1  0
  4  5  1  0
  5  6  2  0
  5  7  1  0
  7  8  1  0
  8  9  1  0
  9 10  1  0
 10 11  1  0
 11 12  1  0
 12 13  1  0
 13 14  2  0
 14 15  1  0
 15 16  2  0
 16 17  1  0
 16 18  1  0
 18 19  2  0
  2 20  1  0
 20 21  2  0
 21 22  1  0
 22 23  2  0
 23 24  1  0
 24 25  2  0
 25 26  1  0
 26 27  2  0
 27 28  1  0
 28 29  2  0
 12  7  1  0
 19 13  1  0
 29 20  1  0
 28 23  1  0
  3 30  1  0
  4 31  1  0
  4 32  1  0
  8 33  1  0
  8 34  1  0
  9 35  1  0
  9 36  1  0
 10 37  1  0
 10 38  1  0
 11 39  1  0
 11 40  1  0
 12 41  1  1
 14 42  1  0
 15 43  1  0
 18 44  1  0
 19 45  1  0
 21 46  1  0
 22 47  1  0
 24 48  1  0
 25 49  1  0
 26 50  1  0
 27 51  1  0
M  END
>  <meeko>  (2) 
{"free_energy": -8.2, "intermolecular_energy": -9.7, "internal_energy": -1.91, "cluster_size": 2, "cluster_id": 3, "rank_in_cluster": 1}

$$$$

     RDKit          3D

 51 54  0  0  0  0  0  0  0  0999 V2000
  139.7820   71.1860  221.1930 O   0  0  0  0  0  0  0  0  0  0  0  0
  139.8070   71.8300  222.2750 C   0  0  0  0  0  0  0  0  0  0  0  0
  139.7050   73.2860  222.1860 N   0  0  0  0  0  0  0  0  0  0  0  0
  139.5870   73.8140  220.8820 C   0  0  0  0  0  0  0  0  0  0  0  0
  140.7380   73.8330  219.9810 C   0  0  0  0  0  0  0  0  0  0  0  0
  140.4410   74.2990  218.7950 O   0  0  0  0  0  0  0  0  0  0  0  0
  142.0590   73.4510  220.1570 N   0  0  0  0  0  0  0  0  0  0  0  0
  142.5870   72.0990  220.0240 C   0  0  0  0  0  0  0  0  0  0  0  0
  143.8930   71.9960  220.8410 C   0  0  0  0  0  0  0  0  0  0  0  0
  144.9460   72.9390  220.3610 C   0  0  0  0  0  0  0  0  0  0  0  0
  144.2980   74.0880  219.6330 C   0  0  0  0  0  0  0  0  0  0  0  0
  143.0590   74.4770  220.4730 C   0  0  1  0  0  0  0  0  0  0  0  0
  142.6390   75.8460  220.0610 C   0  0  0  0  0  0  0  0  0  0  0  0
  141.7940   76.6320  220.8160 C   0  0  0  0  0  0  0  0  0  0  0  0
  141.4430   77.9180  220.4340 C   0  0  0  0  0  0  0  0  0  0  0  0
  141.9320   78.4640  219.2690 C   0  0  0  0  0  0  0  0  0  0  0  0
  141.5250   80.0830  218.7300 Cl  0  0  0  0  0  0  0  0  0  0  0  0
  142.7680   77.7070  218.5060 C   0  0  0  0  0  0  0  0  0  0  0  0
  143.1200   76.4270  218.8840 C   0  0  0  0  0  0  0  0  0  0  0  0
  139.9310   71.1970  223.5770 C   0  0  0  0  0  0  0  0  0  0  0  0
  139.5500   69.8830  223.6810 C   0  0  0  0  0  0  0  0  0  0  0  0
  139.6520   69.2430  224.9020 C   0  0  0  0  0  0  0  0  0  0  0  0
  140.1400   69.9450  226.0030 C   0  0  0  0  0  0  0  0  0  0  0  0
  140.2310   69.2780  227.2160 C   0  0  0  0  0  0  0  0  0  0  0  0
  140.7150   69.9870  228.2950 C   0  0  0  0  0  0  0  0  0  0  0  0
  141.0960   71.3180  228.1670 C   0  0  0  0  0  0  0  0  0  0  0  0
  140.9900   71.9450  226.9460 C   0  0  0  0  0  0  0  0  0  0  0  0
  140.5120   71.2700  225.8550 C   0  0  0  0  0  0  0  0  0  0  0  0
  140.4050   71.8830  224.6410 N   0  0  0  0  0  0  0  0  0  0  0  0
  139.7490   73.7520  223.1000 H   0  0  0  0  0  0  0  0  0  0  0  0
  138.8013   73.2330  220.3769 H   0  0  0  0  0  0  0  0  0  0  0  0
  139.3988   74.8823  221.0644 H   0  0  0  0  0  0  0  0  0  0  0  0
  141.8525   71.3753  220.4071 H   0  0  0  0  0  0  0  0  0  0  0  0
  142.7882   71.8772  218.9655 H   0  0  0  0  0  0  0  0  0  0  0  0
  143.6691   72.2240  221.8936 H   0  0  0  0  0  0  0  0  0  0  0  0
  144.2813   70.9738  220.7212 H   0  0  0  0  0  0  0  0  0  0  0  0
  145.5135   73.3235  221.2213 H   0  0  0  0  0  0  0  0  0  0  0  0
  145.6276   72.4104  219.6784 H   0  0  0  0  0  0  0  0  0  0  0  0
  144.9938   74.9370  219.5616 H   0  0  0  0  0  0  0  0  0  0  0  0
  144.0187   73.8096  218.6061 H   0  0  0  0  0  0  0  0  0  0  0  0
  143.2294   74.5107  221.5592 H   0  0  0  0  0  0  0  0  0  0  0  0
  141.3848   76.2252  221.7525 H   0  0  0  0  0  0  0  0  0  0  0  0
  140.7662   78.5084  221.0691 H   0  0  0  0  0  0  0  0  0  0  0  0
  143.1704   78.1234  217.5708 H   0  0  0  0  0  0  0  0  0  0  0  0
  143.7984   75.8475  218.2407 H   0  0  0  0  0  0  0  0  0  0  0  0
  139.1673   69.3443  222.8016 H   0  0  0  0  0  0  0  0  0  0  0  0
  139.3510   68.1899  225.0038 H   0  0  0  0  0  0  0  0  0  0  0  0
  139.9289   68.2248  227.3132 H   0  0  0  0  0  0  0  0  0  0  0  0
  140.8011   69.4914  229.2732 H   0  0  0  0  0  0  0  0  0  0  0  0
  141.4808   71.8682  229.0384 H   0  0  0  0  0  0  0  0  0  0  0  0
  141.2921   72.9980  226.8460 H   0  0  0  0  0  0  0  0  0  0  0  0
  1  2  2  0
  2  3  1  0
  3  4  1  0
  4  5  1  0
  5  6  2  0
  5  7  1  0
  7  8  1  0
  8  9  1  0
  9 10  1  0
 10 11  1  0
 11 12  1  0
 12 13  1  0
 13 14  2  0
 14 15  1  0
 15 16  2  0
 16 17  1  0
 16 18  1  0
 18 19  2  0
  2 20  1  0
 20 21  2  0
 21 22  1  0
 22 23  2  0
 23 24  1  0
 24 25  2  0
 25 26  1  0
 26 27  2  0
 27 28  1  0
 28 29  2  0
 12  7  1  0
 19 13  1  0
 29 20  1  0
 28 23  1  0
  3 30  1  0
  4 31  1  0
  4 32  1  0
  8 33  1  0
  8 34  1  0
  9 35  1  0
  9 36  1  0
 10 37  1  0
 10 38  1  0
 11 39  1  0
 11 40  1  0
 12 41  1  1
 14 42  1  0
 15 43  1  0
 18 44  1  0
 19 45  1  0
 21 46  1  0
 22 47  1  0
 24 48  1  0
 25 49  1  0
 26 50  1  0
 27 51  1  0
M  END
>  <meeko>  (3) 
{"free_energy": -8.2, "intermolecular_energy": -9.69, "internal_energy": -1.91, "cluster_size": 2, "cluster_id": 3, "rank_in_cluster": 2}

$$$$

     RDKit          3D

 51 54  0  0  0  0  0  0  0  0999 V2000
  139.3870   71.0310  221.3200 O   0  0  0  0  0  0  0  0  0  0  0  0
  139.5210   71.7110  222.3710 C   0  0  0  0  0  0  0  0  0  0  0  0
  139.3800   73.1610  222.2500 N   0  0  0  0  0  0  0  0  0  0  0  0
  139.1040   73.6440  220.9520 C   0  0  0  0  0  0  0  0  0  0  0  0
  140.1810   73.8200  219.9800 C   0  0  0  0  0  0  0  0  0  0  0  0
  139.7630   74.3390  218.8550 O   0  0  0  0  0  0  0  0  0  0  0  0
  141.5380   73.5380  220.0390 N   0  0  0  0  0  0  0  0  0  0  0  0
  142.2150   72.4340  219.3720 C   0  0  0  0  0  0  0  0  0  0  0  0
  143.5260   72.1290  220.1270 C   0  0  0  0  0  0  0  0  0  0  0  0
  144.4650   73.2890  220.1400 C   0  0  0  0  0  0  0  0  0  0  0  0
  143.6890   74.5650  219.9370 C   0  0  0  0  0  0  0  0  0  0  0  0
  142.4150   74.4310  220.8040 C   0  0  1  0  0  0  0  0  0  0  0  0
  141.8430   75.7930  220.9910 C   0  0  0  0  0  0  0  0  0  0  0  0
  141.0630   76.1380  222.0750 C   0  0  0  0  0  0  0  0  0  0  0  0
  140.5680   77.4220  222.2500 C   0  0  0  0  0  0  0  0  0  0  0  0
  140.8400   78.4120  221.3330 C   0  0  0  0  0  0  0  0  0  0  0  0
  140.2440   80.0530  221.4970 Cl  0  0  0  0  0  0  0  0  0  0  0  0
  141.6080   78.0950  220.2540 C   0  0  0  0  0  0  0  0  0  0  0  0
  142.1030   76.8190  220.0770 C   0  0  0  0  0  0  0  0  0  0  0  0
  139.8050   71.1240  223.6700 C   0  0  0  0  0  0  0  0  0  0  0  0
  139.5520   69.7840  223.8280 C   0  0  0  0  0  0  0  0  0  0  0  0
  139.8090   69.1860  225.0470 C   0  0  0  0  0  0  0  0  0  0  0  0
  140.3180   69.9550  226.0920 C   0  0  0  0  0  0  0  0  0  0  0  0
  140.5660   69.3280  227.3050 C   0  0  0  0  0  0  0  0  0  0  0  0
  141.0700   70.1030  228.3280 C   0  0  0  0  0  0  0  0  0  0  0  0
  141.3190   71.4590  228.1460 C   0  0  0  0  0  0  0  0  0  0  0  0
  141.0600   72.0440  226.9270 C   0  0  0  0  0  0  0  0  0  0  0  0
  140.5590   71.3030  225.8910 C   0  0  0  0  0  0  0  0  0  0  0  0
  140.3000   71.8750  224.6800 N   0  0  0  0  0  0  0  0  0  0  0  0
  139.5170   73.6580  223.1380 H   0  0  0  0  0  0  0  0  0  0  0  0
  138.3849   72.9438  220.5018 H   0  0  0  0  0  0  0  0  0  0  0  0
  138.7691   74.6751  221.1385 H   0  0  0  0  0  0  0  0  0  0  0  0
  141.5680   71.5444  219.3794 H   0  0  0  0  0  0  0  0  0  0  0  0
  142.4373   72.7056  218.3295 H   0  0  0  0  0  0  0  0  0  0  0  0
  143.2805   71.8630  221.1657 H   0  0  0  0  0  0  0  0  0  0  0  0
  144.0268   71.3013  219.6034 H   0  0  0  0  0  0  0  0  0  0  0  0
  144.9873   73.3273  221.1073 H   0  0  0  0  0  0  0  0  0  0  0  0
  145.2010   73.1744  219.3306 H   0  0  0  0  0  0  0  0  0  0  0  0
  144.2843   75.4305  220.2634 H   0  0  0  0  0  0  0  0  0  0  0  0
  143.4406   74.7215  218.8769 H   0  0  0  0  0  0  0  0  0  0  0  0
  142.5816   74.0181  221.8099 H   0  0  0  0  0  0  0  0  0  0  0  0
  140.8256   75.3696  222.8255 H   0  0  0  0  0  0  0  0  0  0  0  0
  139.9512   77.6516  223.1314 H   0  0  0  0  0  0  0  0  0  0  0  0
  141.8383   78.8710  219.5091 H   0  0  0  0  0  0  0  0  0  0  0  0
  142.7195   76.6029  219.1920 H   0  0  0  0  0  0  0  0  0  0  0  0
  139.1489   69.1924  222.9929 H   0  0  0  0  0  0  0  0  0  0  0  0
  139.6137   68.1131  225.1912 H   0  0  0  0  0  0  0  0  0  0  0  0
  140.3683   68.2550  227.4448 H   0  0  0  0  0  0  0  0  0  0  0  0
  141.2786   69.6410  229.3043 H   0  0  0  0  0  0  0  0  0  0  0  0
  141.7215   72.0621  228.9732 H   0  0  0  0  0  0  0  0  0  0  0  0
  141.2575   73.1167  226.7843 H   0  0  0  0  0  0  0  0  0  0  0  0
  1  2  2  0
  2  3  1  0
  3  4  1  0
  4  5  1  0
  5  6  2  0
  5  7  1  0
  7  8  1  0
  8  9  1  0
  9 10  1  0
 10 11  1  0
 11 12  1  0
 12 13  1  0
 13 14  2  0
 14 15  1  0
 15 16  2  0
 16 17  1  0
 16 18  1  0
 18 19  2  0
  2 20  1  0
 20 21  2  0
 21 22  1  0
 22 23  2  0
 23 24  1  0
 24 25  2  0
 25 26  1  0
 26 27  2  0
 27 28  1  0
 28 29  2  0
 12  7  1  0
 19 13  1  0
 29 20  1  0
 28 23  1  0
  3 30  1  0
  4 31  1  0
  4 32  1  0
  8 33  1  0
  8 34  1  0
  9 35  1  0
  9 36  1  0
 10 37  1  0
 10 38  1  0
 11 39  1  0
 11 40  1  0
 12 41  1  1
 14 42  1  0
 15 43  1  0
 18 44  1  0
 19 45  1  0
 21 46  1  0
 22 47  1  0
 24 48  1  0
 25 49  1  0
 26 50  1  0
 27 51  1  0
M  END
>  <meeko>  (4) 
{"free_energy": -8.02, "intermolecular_energy": -9.51, "internal_energy": -2.06, "cluster_size": 15, "cluster_id": 1, "rank_in_cluster": 14}

$$$$

     RDKit          3D

 51 54  0  0  0  0  0  0  0  0999 V2000
  139.8120   71.0630  221.2240 O   0  0  0  0  0  0  0  0  0  0  0  0
  139.5820   71.6900  222.2920 C   0  0  0  0  0  0  0  0  0  0  0  0
  139.0440   73.0430  222.1680 N   0  0  0  0  0  0  0  0  0  0  0  0
  138.8380   73.5020  220.8490 C   0  0  0  0  0  0  0  0  0  0  0  0
  139.1900   74.8710  220.4750 C   0  0  0  0  0  0  0  0  0  0  0  0
  139.3300   75.0190  219.1820 O   0  0  0  0  0  0  0  0  0  0  0  0
  139.3990   76.0140  221.2310 N   0  0  0  0  0  0  0  0  0  0  0  0
  138.4540   76.6090  222.1670 C   0  0  0  0  0  0  0  0  0  0  0  0
  138.7990   78.1040  222.3350 C   0  0  0  0  0  0  0  0  0  0  0  0
  140.1710   78.3190  222.8840 C   0  0  0  0  0  0  0  0  0  0  0  0
  141.0240   77.1110  222.5910 C   0  0  0  0  0  0  0  0  0  0  0  0
  140.6920   76.7000  221.1370 C   0  0  1  0  0  0  0  0  0  0  0  0
  141.7870   75.8160  220.6510 C   0  0  0  0  0  0  0  0  0  0  0  0
  142.6620   76.1840  219.6490 C   0  0  0  0  0  0  0  0  0  0  0  0
  143.6970   75.3610  219.2340 C   0  0  0  0  0  0  0  0  0  0  0  0
  143.8930   74.1280  219.8140 C   0  0  0  0  0  0  0  0  0  0  0  0
  145.1840   73.0420  219.3340 Cl  0  0  0  0  0  0  0  0  0  0  0  0
  143.0430   73.7430  220.8050 C   0  0  0  0  0  0  0  0  0  0  0  0
  142.0110   74.5590  221.2220 C   0  0  0  0  0  0  0  0  0  0  0  0
  139.8260   71.1320  223.6110 C   0  0  0  0  0  0  0  0  0  0  0  0
  139.5270   69.8070  223.8040 C   0  0  0  0  0  0  0  0  0  0  0  0
  139.7440   69.2370  225.0440 C   0  0  0  0  0  0  0  0  0  0  0  0
  140.2630   70.0190  226.0750 C   0  0  0  0  0  0  0  0  0  0  0  0
  140.4710   69.4210  227.3090 C   0  0  0  0  0  0  0  0  0  0  0  0
  140.9850   70.2090  228.3180 C   0  0  0  0  0  0  0  0  0  0  0  0
  141.2820   71.5500  228.0990 C   0  0  0  0  0  0  0  0  0  0  0  0
  141.0620   72.1060  226.8600 C   0  0  0  0  0  0  0  0  0  0  0  0
  140.5510   71.3520  225.8380 C   0  0  0  0  0  0  0  0  0  0  0  0
  140.3310   71.8960  224.6070 N   0  0  0  0  0  0  0  0  0  0  0  0
  138.8950   73.5050  223.0730 H   0  0  0  0  0  0  0  0  0  0  0  0
  139.4160   72.8371  220.1903 H   0  0  0  0  0  0  0  0  0  0  0  0
  137.7422   73.4940  220.7532 H   0  0  0  0  0  0  0  0  0  0  0  0
  137.4311   76.5069  221.7755 H   0  0  0  0  0  0  0  0  0  0  0  0
  138.5172   76.0981  223.1391 H   0  0  0  0  0  0  0  0  0  0  0  0
  138.7322   78.5935  221.3522 H   0  0  0  0  0  0  0  0  0  0  0  0
  138.0827   78.5325  223.0515 H   0  0  0  0  0  0  0  0  0  0  0  0
  140.6190   79.2070  222.4142 H   0  0  0  0  0  0  0  0  0  0  0  0
  140.1112   78.4708  223.9718 H   0  0  0  0  0  0  0  0  0  0  0  0
  142.0905   77.3643  222.6830 H   0  0  0  0  0  0  0  0  0  0  0  0
  140.8220   76.2929  223.2980 H   0  0  0  0  0  0  0  0  0  0  0  0
  140.6200   77.5357  220.4254 H   0  0  0  0  0  0  0  0  0  0  0  0
  142.5336   77.1628  219.1638 H   0  0  0  0  0  0  0  0  0  0  0  0
  144.3700   75.6971  218.4314 H   0  0  0  0  0  0  0  0  0  0  0  0
  143.1814   72.7620  221.2830 H   0  0  0  0  0  0  0  0  0  0  0  0
  141.3459   74.2110  222.0261 H   0  0  0  0  0  0  0  0  0  0  0  0
  139.1184   69.2042  222.9796 H   0  0  0  0  0  0  0  0  0  0  0  0
  139.5095   68.1762  225.2160 H   0  0  0  0  0  0  0  0  0  0  0  0
  140.2353   68.3597  227.4767 H   0  0  0  0  0  0  0  0  0  0  0  0
  141.1627   69.7700  229.3108 H   0  0  0  0  0  0  0  0  0  0  0  0
  141.6917   72.1644  228.9143 H   0  0  0  0  0  0  0  0  0  0  0  0
  141.2989   73.1665  226.6889 H   0  0  0  0  0  0  0  0  0  0  0  0
  1  2  2  0
  2  3  1  0
  3  4  1  0
  4  5  1  0
  5  6  2  0
  5  7  1  0
  7  8  1  0
  8  9  1  0
  9 10  1  0
 10 11  1  0
 11 12  1  0
 12 13  1  0
 13 14  2  0
 14 15  1  0
 15 16  2  0
 16 17  1  0
 16 18  1  0
 18 19  2  0
  2 20  1  0
 20 21  2  0
 21 22  1  0
 22 23  2  0
 23 24  1  0
 24 25  2  0
 25 26  1  0
 26 27  2  0
 27 28  1  0
 28 29  2  0
 12  7  1  0
 19 13  1  0
 29 20  1  0
 28 23  1  0
  3 30  1  0
  4 31  1  0
  4 32  1  0
  8 33  1  0
  8 34  1  0
  9 35  1  0
  9 36  1  0
 10 37  1  0
 10 38  1  0
 11 39  1  0
 11 40  1  0
 12 41  1  6
 14 42  1  0
 15 43  1  0
 18 44  1  0
 19 45  1  0
 21 46  1  0
 22 47  1  0
 24 48  1  0
 25 49  1  0
 26 50  1  0
 27 51  1  0
M  END
>  <meeko>  (5) 
{"free_energy": -8.42, "intermolecular_energy": -9.91, "internal_energy": -1.67, "cluster_size": 2, "cluster_id": 2, "rank_in_cluster": 1}

$$$$

     RDKit          3D

 51 54  0  0  0  0  0  0  0  0999 V2000
  139.6770   71.0080  221.2480 O   0  0  0  0  0  0  0  0  0  0  0  0
  139.5810   71.6790  222.3100 C   0  0  0  0  0  0  0  0  0  0  0  0
  139.2070   73.0860  222.1780 N   0  0  0  0  0  0  0  0  0  0  0  0
  138.9920   73.5420  220.8600 C   0  0  0  0  0  0  0  0  0  0  0  0
  140.1200   73.7700  219.9590 C   0  0  0  0  0  0  0  0  0  0  0  0
  139.7770   74.4220  218.8780 O   0  0  0  0  0  0  0  0  0  0  0  0
  141.4600   73.4230  220.0450 N   0  0  0  0  0  0  0  0  0  0  0  0
  142.0970   72.2870  219.3920 C   0  0  0  0  0  0  0  0  0  0  0  0
  143.3760   71.9190  220.1740 C   0  0  0  0  0  0  0  0  0  0  0  0
  144.3690   73.0330  220.2060 C   0  0  0  0  0  0  0  0  0  0  0  0
  143.6600   74.3450  219.9870 C   0  0  0  0  0  0  0  0  0  0  0  0
  142.3640   74.2730  220.8280 C   0  0  1  0  0  0  0  0  0  0  0  0
  141.8540   75.6610  221.0030 C   0  0  0  0  0  0  0  0  0  0  0  0
  141.0480   76.0390  222.0560 C   0  0  0  0  0  0  0  0  0  0  0  0
  140.6120   77.3450  222.2220 C   0  0  0  0  0  0  0  0  0  0  0  0
  140.9730   78.3260  221.3260 C   0  0  0  0  0  0  0  0  0  0  0  0
  140.4540   79.9940  221.4800 Cl  0  0  0  0  0  0  0  0  0  0  0  0
  141.7680   77.9770  220.2780 C   0  0  0  0  0  0  0  0  0  0  0  0
  142.2050   76.6790  220.1100 C   0  0  0  0  0  0  0  0  0  0  0  0
  139.8220   71.1200  223.6290 C   0  0  0  0  0  0  0  0  0  0  0  0
  139.5190   69.7950  223.8210 C   0  0  0  0  0  0  0  0  0  0  0  0
  139.7330   69.2250  225.0620 C   0  0  0  0  0  0  0  0  0  0  0  0
  140.2520   70.0060  226.0940 C   0  0  0  0  0  0  0  0  0  0  0  0
  140.4570   69.4070  227.3280 C   0  0  0  0  0  0  0  0  0  0  0  0
  140.9700   70.1940  228.3380 C   0  0  0  0  0  0  0  0  0  0  0  0
  141.2700   71.5340  228.1210 C   0  0  0  0  0  0  0  0  0  0  0  0
  141.0530   72.0910  226.8810 C   0  0  0  0  0  0  0  0  0  0  0  0
  140.5430   71.3380  225.8580 C   0  0  0  0  0  0  0  0  0  0  0  0
  140.3250   71.8830  224.6260 N   0  0  0  0  0  0  0  0  0  0  0  0
  139.1630   73.5800  223.0770 H   0  0  0  0  0  0  0  0  0  0  0  0
  138.3442   72.7992  220.3716 H   0  0  0  0  0  0  0  0  0  0  0  0
  138.5892   74.5543  221.0119 H   0  0  0  0  0  0  0  0  0  0  0  0
  141.4078   71.4297  219.3855 H   0  0  0  0  0  0  0  0  0  0  0  0
  142.3542   72.5472  218.3546 H   0  0  0  0  0  0  0  0  0  0  0  0
  143.0967   71.6661  221.2074 H   0  0  0  0  0  0  0  0  0  0  0  0
  143.8468   71.0673  219.6613 H   0  0  0  0  0  0  0  0  0  0  0  0
  144.8726   73.0472  221.1838 H   0  0  0  0  0  0  0  0  0  0  0  0
  145.1147   72.8823  219.4115 H   0  0  0  0  0  0  0  0  0  0  0  0
  144.2896   75.1811  220.3254 H   0  0  0  0  0  0  0  0  0  0  0  0
  143.4412   74.5126  218.9221 H   0  0  0  0  0  0  0  0  0  0  0  0
  142.4908   73.8533  221.8368 H   0  0  0  0  0  0  0  0  0  0  0  0
  140.7404   75.2789  222.7892 H   0  0  0  0  0  0  0  0  0  0  0  0
  139.9709   77.5998  223.0787 H   0  0  0  0  0  0  0  0  0  0  0  0
  142.0683   78.7452  219.5502 H   0  0  0  0  0  0  0  0  0  0  0  0
  142.8472   76.4380  219.2500 H   0  0  0  0  0  0  0  0  0  0  0  0
  139.1102   69.1931  222.9960 H   0  0  0  0  0  0  0  0  0  0  0  0
  139.4960   68.1647  225.2339 H   0  0  0  0  0  0  0  0  0  0  0  0
  140.2198   68.3459  227.4947 H   0  0  0  0  0  0  0  0  0  0  0  0
  141.1445   69.7543  229.3311 H   0  0  0  0  0  0  0  0  0  0  0  0
  141.6794   72.1471  228.9374 H   0  0  0  0  0  0  0  0  0  0  0  0
  141.2917   73.1512  226.7106 H   0  0  0  0  0  0  0  0  0  0  0  0
  1  2  2  0
  2  3  1  0
  3  4  1  0
  4  5  1  0
  5  6  2  0
  5  7  1  0
  7  8  1  0
  8  9  1  0
  9 10  1  0
 10 11  1  0
 11 12  1  0
 12 13  1  0
 13 14  2  0
 14 15  1  0
 15 16  2  0
 16 17  1  0
 16 18  1  0
 18 19  2  0
  2 20  1  0
 20 21  2  0
 21 22  1  0
 22 23  2  0
 23 24  1  0
 24 25  2  0
 25 26  1  0
 26 27  2  0
 27 28  1  0
 28 29  2  0
 12  7  1  0
 19 13  1  0
 29 20  1  0
 28 23  1  0
  3 30  1  0
  4 31  1  0
  4 32  1  0
  8 33  1  0
  8 34  1  0
  9 35  1  0
  9 36  1  0
 10 37  1  0
 10 38  1  0
 11 39  1  0
 11 40  1  0
 12 41  1  1
 14 42  1  0
 15 43  1  0
 18 44  1  0
 19 45  1  0
 21 46  1  0
 22 47  1  0
 24 48  1  0
 25 49  1  0
 26 50  1  0
 27 51  1  0
M  END
>  <meeko>  (6) 
{"free_energy": -8.09, "intermolecular_energy": -9.58, "internal_energy": -2.06, "cluster_size": 15, "cluster_id": 1, "rank_in_cluster": 10}

$$$$

     RDKit          3D

 51 54  0  0  0  0  0  0  0  0999 V2000
  139.6880   71.0540  221.2550 O   0  0  0  0  0  0  0  0  0  0  0  0
  139.5850   71.7210  222.3190 C   0  0  0  0  0  0  0  0  0  0  0  0
  139.2130   73.1290  222.1900 N   0  0  0  0  0  0  0  0  0  0  0  0
  139.0090   73.5900  220.8710 C   0  0  0  0  0  0  0  0  0  0  0  0
  140.1330   73.7250  219.9480 C   0  0  0  0  0  0  0  0  0  0  0  0
  139.7850   74.2580  218.8050 O   0  0  0  0  0  0  0  0  0  0  0  0
  141.4740   73.3930  220.0660 N   0  0  0  0  0  0  0  0  0  0  0  0
  142.1350   72.2530  219.4440 C   0  0  0  0  0  0  0  0  0  0  0  0
  143.4010   71.9100  220.2570 C   0  0  0  0  0  0  0  0  0  0  0  0
  144.3830   73.0340  220.2900 C   0  0  0  0  0  0  0  0  0  0  0  0
  143.6660   74.3360  220.0360 C   0  0  0  0  0  0  0  0  0  0  0  0
  142.3540   74.2640  220.8530 C   0  0  1  0  0  0  0  0  0  0  0  0
  141.8280   75.6500  220.9950 C   0  0  0  0  0  0  0  0  0  0  0  0
  141.0210   76.0440  222.0420 C   0  0  0  0  0  0  0  0  0  0  0  0
  140.5690   77.3480  222.1760 C   0  0  0  0  0  0  0  0  0  0  0  0
  140.9150   78.3110  221.2550 C   0  0  0  0  0  0  0  0  0  0  0  0
  140.3770   79.9760  221.3690 Cl  0  0  0  0  0  0  0  0  0  0  0  0
  141.7110   77.9460  220.2130 C   0  0  0  0  0  0  0  0  0  0  0  0
  142.1630   76.6490  220.0750 C   0  0  0  0  0  0  0  0  0  0  0  0
  139.8150   71.1570  223.6380 C   0  0  0  0  0  0  0  0  0  0  0  0
  139.4970   69.8350  223.8260 C   0  0  0  0  0  0  0  0  0  0  0  0
  139.7010   69.2600  225.0660 C   0  0  0  0  0  0  0  0  0  0  0  0
  140.2250   70.0340  226.1010 C   0  0  0  0  0  0  0  0  0  0  0  0
  140.4200   69.4300  227.3350 C   0  0  0  0  0  0  0  0  0  0  0  0
  140.9380   70.2090  228.3480 C   0  0  0  0  0  0  0  0  0  0  0  0
  141.2540   71.5460  228.1340 C   0  0  0  0  0  0  0  0  0  0  0  0
  141.0470   72.1080  226.8950 C   0  0  0  0  0  0  0  0  0  0  0  0
  140.5320   71.3630  225.8690 C   0  0  0  0  0  0  0  0  0  0  0  0
  140.3240   71.9120  224.6380 N   0  0  0  0  0  0  0  0  0  0  0  0
  139.1630   73.6190  223.0900 H   0  0  0  0  0  0  0  0  0  0  0  0
  138.2979   72.8946  220.4012 H   0  0  0  0  0  0  0  0  0  0  0  0
  138.6875   74.6312  221.0212 H   0  0  0  0  0  0  0  0  0  0  0  0
  141.4542   71.3890  219.4373 H   0  0  0  0  0  0  0  0  0  0  0  0
  142.4106   72.4994  218.4080 H   0  0  0  0  0  0  0  0  0  0  0  0
  143.1034   71.6715  221.2888 H   0  0  0  0  0  0  0  0  0  0  0  0
  143.8897   71.0543  219.7682 H   0  0  0  0  0  0  0  0  0  0  0  0
  144.8674   73.0687  221.2770 H   0  0  0  0  0  0  0  0  0  0  0  0
  145.1453   72.8776  219.5125 H   0  0  0  0  0  0  0  0  0  0  0  0
  144.2808   75.1835  220.3733 H   0  0  0  0  0  0  0  0  0  0  0  0
  143.4669   74.4850  218.9645 H   0  0  0  0  0  0  0  0  0  0  0  0
  142.4643   73.8613  221.8707 H   0  0  0  0  0  0  0  0  0  0  0  0
  140.7262   75.2990  222.7957 H   0  0  0  0  0  0  0  0  0  0  0  0
  139.9267   77.6161  223.0278 H   0  0  0  0  0  0  0  0  0  0  0  0
  142.0000   78.6998  219.4658 H   0  0  0  0  0  0  0  0  0  0  0  0
  142.8041   76.3941  219.2182 H   0  0  0  0  0  0  0  0  0  0  0  0
  139.0841   69.2395  222.9984 H   0  0  0  0  0  0  0  0  0  0  0  0
  139.4524   68.2019  225.2350 H   0  0  0  0  0  0  0  0  0  0  0  0
  140.1711   68.3711  227.4987 H   0  0  0  0  0  0  0  0  0  0  0  0
  141.1038   69.7657  229.3410 H   0  0  0  0  0  0  0  0  0  0  0  0
  141.6683   72.1528  228.9527 H   0  0  0  0  0  0  0  0  0  0  0  0
  141.2978   73.1659  226.7278 H   0  0  0  0  0  0  0  0  0  0  0  0
  1  2  2  0
  2  3  1  0
  3  4  1  0
  4  5  1  0
  5  6  2  0
  5  7  1  0
  7  8  1  0
  8  9  1  0
  9 10  1  0
 10 11  1  0
 11 12  1  0
 12 13  1  0
 13 14  2  0
 14 15  1  0
 15 16  2  0
 16 17  1  0
 16 18  1  0
 18 19  2  0
  2 20  1  0
 20 21  2  0
 21 22  1  0
 22 23  2  0
 23 24  1  0
 24 25  2  0
 25 26  1  0
 26 27  2  0
 27 28  1  0
 28 29  2  0
 12  7  1  0
 19 13  1  0
 29 20  1  0
 28 23  1  0
  3 30  1  0
  4 31  1  0
  4 32  1  0
  8 33  1  0
  8 34  1  0
  9 35  1  0
  9 36  1  0
 10 37  1  0
 10 38  1  0
 11 39  1  0
 11 40  1  0
 12 41  1  1
 14 42  1  0
 15 43  1  0
 18 44  1  0
 19 45  1  0
 21 46  1  0
 22 47  1  0
 24 48  1  0
 25 49  1  0
 26 50  1  0
 27 51  1  0
M  END
>  <meeko>  (7) 
{"free_energy": -8.09, "intermolecular_energy": -9.58, "internal_energy": -2.06, "cluster_size": 15, "cluster_id": 1, "rank_in_cluster": 6}

$$$$

     RDKit          3D

 51 54  0  0  0  0  0  0  0  0999 V2000
  139.7520   71.0430  221.2270 O   0  0  0  0  0  0  0  0  0  0  0  0
  139.6240   71.7090  222.2880 C   0  0  0  0  0  0  0  0  0  0  0  0
  139.2490   73.1160  222.1520 N   0  0  0  0  0  0  0  0  0  0  0  0
  139.0700   73.5770  220.8300 C   0  0  0  0  0  0  0  0  0  0  0  0
  140.2010   73.6470  219.9070 C   0  0  0  0  0  0  0  0  0  0  0  0
  139.8540   74.0620  218.7160 O   0  0  0  0  0  0  0  0  0  0  0  0
  141.5470   73.3550  220.0670 N   0  0  0  0  0  0  0  0  0  0  0  0
  142.2520   72.2120  219.5020 C   0  0  0  0  0  0  0  0  0  0  0  0
  143.5070   71.9320  220.3550 C   0  0  0  0  0  0  0  0  0  0  0  0
  144.4580   73.0830  220.3710 C   0  0  0  0  0  0  0  0  0  0  0  0
  143.7140   74.3550  220.0550 C   0  0  0  0  0  0  0  0  0  0  0  0
  142.3850   74.2760  220.8430 C   0  0  1  0  0  0  0  0  0  0  0  0
  141.8200   75.6510  220.9240 C   0  0  0  0  0  0  0  0  0  0  0  0
  141.0110   76.0720  221.9590 C   0  0  0  0  0  0  0  0  0  0  0  0
  140.5220   77.3670  222.0350 C   0  0  0  0  0  0  0  0  0  0  0  0
  140.8310   78.2940  221.0660 C   0  0  0  0  0  0  0  0  0  0  0  0
  140.2450   79.9470  221.1050 Cl  0  0  0  0  0  0  0  0  0  0  0  0
  141.6280   77.9030  220.0340 C   0  0  0  0  0  0  0  0  0  0  0  0
  142.1170   76.6150  219.9540 C   0  0  0  0  0  0  0  0  0  0  0  0
  139.8290   71.1460  223.6120 C   0  0  0  0  0  0  0  0  0  0  0  0
  139.4920   69.8290  223.7990 C   0  0  0  0  0  0  0  0  0  0  0  0
  139.6710   69.2540  225.0430 C   0  0  0  0  0  0  0  0  0  0  0  0
  140.1920   70.0230  226.0830 C   0  0  0  0  0  0  0  0  0  0  0  0
  140.3610   69.4200  227.3210 C   0  0  0  0  0  0  0  0  0  0  0  0
  140.8770   70.1950  228.3390 C   0  0  0  0  0  0  0  0  0  0  0  0
  141.2130   71.5280  228.1260 C   0  0  0  0  0  0  0  0  0  0  0  0
  141.0300   72.0890  226.8830 C   0  0  0  0  0  0  0  0  0  0  0  0
  140.5190   71.3480  225.8520 C   0  0  0  0  0  0  0  0  0  0  0  0
  140.3350   71.8970  224.6170 N   0  0  0  0  0  0  0  0  0  0  0  0
  139.1780   73.6050  223.0510 H   0  0  0  0  0  0  0  0  0  0  0  0
  138.3243   72.9158  220.3644 H   0  0  0  0  0  0  0  0  0  0  0  0
  138.8022   74.6344  220.9721 H   0  0  0  0  0  0  0  0  0  0  0  0
  141.5943   71.3303  219.5111 H   0  0  0  0  0  0  0  0  0  0  0  0
  142.5456   72.4290  218.4644 H   0  0  0  0  0  0  0  0  0  0  0  0
  143.1915   71.7211  221.3875 H   0  0  0  0  0  0  0  0  0  0  0  0
  144.0297   71.0738  219.9075 H   0  0  0  0  0  0  0  0  0  0  0  0
  144.9175   73.1650  221.3671 H   0  0  0  0  0  0  0  0  0  0  0  0
  145.2424   72.9205  219.6171 H   0  0  0  0  0  0  0  0  0  0  0  0
  144.2981   75.2299  220.3767 H   0  0  0  0  0  0  0  0  0  0  0  0
  143.5371   74.4616  218.9746 H   0  0  0  0  0  0  0  0  0  0  0  0
  142.4812   73.9116  221.8764 H   0  0  0  0  0  0  0  0  0  0  0  0
  140.7449   75.3561  222.7506 H   0  0  0  0  0  0  0  0  0  0  0  0
  139.8796   77.6569  222.8796 H   0  0  0  0  0  0  0  0  0  0  0  0
  141.8874   78.6280  219.2484 H   0  0  0  0  0  0  0  0  0  0  0  0
  142.7581   76.3384  219.1040 H   0  0  0  0  0  0  0  0  0  0  0  0
  139.0834   69.2367  222.9670 H   0  0  0  0  0  0  0  0  0  0  0  0
  139.4051   68.1999  225.2110 H   0  0  0  0  0  0  0  0  0  0  0  0
  140.0941   68.3655  227.4844 H   0  0  0  0  0  0  0  0  0  0  0  0
  141.0251   69.7519  229.3349 H   0  0  0  0  0  0  0  0  0  0  0  0
  141.6237   72.1317  228.9487 H   0  0  0  0  0  0  0  0  0  0  0  0
  141.2969   73.1430  226.7163 H   0  0  0  0  0  0  0  0  0  0  0  0
  1  2  2  0
  2  3  1  0
  3  4  1  0
  4  5  1  0
  5  6  2  0
  5  7  1  0
  7  8  1  0
  8  9  1  0
  9 10  1  0
 10 11  1  0
 11 12  1  0
 12 13  1  0
 13 14  2  0
 14 15  1  0
 15 16  2  0
 16 17  1  0
 16 18  1  0
 18 19  2  0
  2 20  1  0
 20 21  2  0
 21 22  1  0
 22 23  2  0
 23 24  1  0
 24 25  2  0
 25 26  1  0
 26 27  2  0
 27 28  1  0
 28 29  2  0
 12  7  1  0
 19 13  1  0
 29 20  1  0
 28 23  1  0
  3 30  1  0
  4 31  1  0
  4 32  1  0
  8 33  1  0
  8 34  1  0
  9 35  1  0
  9 36  1  0
 10 37  1  0
 10 38  1  0
 11 39  1  0
 11 40  1  0
 12 41  1  1
 14 42  1  0
 15 43  1  0
 18 44  1  0
 19 45  1  0
 21 46  1  0
 22 47  1  0
 24 48  1  0
 25 49  1  0
 26 50  1  0
 27 51  1  0
M  END
>  <meeko>  (8) 
{"free_energy": -8.09, "intermolecular_energy": -9.58, "internal_energy": -2.04, "cluster_size": 15, "cluster_id": 1, "rank_in_cluster": 5}

$$$$

     RDKit          3D

 51 54  0  0  0  0  0  0  0  0999 V2000
  139.8330   71.0170  221.2330 O   0  0  0  0  0  0  0  0  0  0  0  0
  139.6270   71.6680  222.2910 C   0  0  0  0  0  0  0  0  0  0  0  0
  139.1380   73.0380  222.1460 N   0  0  0  0  0  0  0  0  0  0  0  0
  138.9490   73.4840  220.8200 C   0  0  0  0  0  0  0  0  0  0  0  0
  140.0950   73.8160  219.9770 C   0  0  0  0  0  0  0  0  0  0  0  0
  139.7700   74.5760  218.9620 O   0  0  0  0  0  0  0  0  0  0  0  0
  141.4360   73.4740  220.0590 N   0  0  0  0  0  0  0  0  0  0  0  0
  142.0780   72.3490  219.3920 C   0  0  0  0  0  0  0  0  0  0  0  0
  143.3580   71.9770  220.1700 C   0  0  0  0  0  0  0  0  0  0  0  0
  144.3470   73.0950  220.2160 C   0  0  0  0  0  0  0  0  0  0  0  0
  143.6320   74.4070  220.0140 C   0  0  0  0  0  0  0  0  0  0  0  0
  142.3360   74.3180  220.8530 C   0  0  1  0  0  0  0  0  0  0  0  0
  141.8200   75.7020  221.0450 C   0  0  0  0  0  0  0  0  0  0  0  0
  141.0260   76.0670  222.1120 C   0  0  0  0  0  0  0  0  0  0  0  0
  140.5840   77.3690  222.2920 C   0  0  0  0  0  0  0  0  0  0  0  0
  140.9270   78.3590  221.4000 C   0  0  0  0  0  0  0  0  0  0  0  0
  140.4000   80.0230  221.5720 Cl  0  0  0  0  0  0  0  0  0  0  0  0
  141.7100   78.0230  220.3380 C   0  0  0  0  0  0  0  0  0  0  0  0
  142.1530   76.7290  220.1550 C   0  0  0  0  0  0  0  0  0  0  0  0
  139.8500   71.1220  223.6180 C   0  0  0  0  0  0  0  0  0  0  0  0
  139.5280   69.8040  223.8240 C   0  0  0  0  0  0  0  0  0  0  0  0
  139.7260   69.2450  225.0730 C   0  0  0  0  0  0  0  0  0  0  0  0
  140.2480   70.0320  226.0990 C   0  0  0  0  0  0  0  0  0  0  0  0
  140.4360   69.4450  227.3410 C   0  0  0  0  0  0  0  0  0  0  0  0
  140.9530   70.2360  228.3450 C   0  0  0  0  0  0  0  0  0  0  0  0
  141.2740   71.5700  228.1140 C   0  0  0  0  0  0  0  0  0  0  0  0
  141.0730   72.1150  226.8660 C   0  0  0  0  0  0  0  0  0  0  0  0
  140.5600   71.3570  225.8490 C   0  0  0  0  0  0  0  0  0  0  0  0
  140.3580   71.8890  224.6100 N   0  0  0  0  0  0  0  0  0  0  0  0
  139.0060   73.5180  223.0430 H   0  0  0  0  0  0  0  0  0  0  0  0
  138.3931   72.6915  220.2976 H   0  0  0  0  0  0  0  0  0  0  0  0
  138.4528   74.4563  220.9554 H   0  0  0  0  0  0  0  0  0  0  0  0
  141.3925   71.4889  219.3744 H   0  0  0  0  0  0  0  0  0  0  0  0
  142.3344   72.6231  218.3580 H   0  0  0  0  0  0  0  0  0  0  0  0
  143.0793   71.7105  221.2002 H   0  0  0  0  0  0  0  0  0  0  0  0
  143.8325   71.1335  219.6472 H   0  0  0  0  0  0  0  0  0  0  0  0
  144.8509   73.0988  221.1938 H   0  0  0  0  0  0  0  0  0  0  0  0
  145.0931   72.9576  219.4195 H   0  0  0  0  0  0  0  0  0  0  0  0
  144.2576   75.2413  220.3640 H   0  0  0  0  0  0  0  0  0  0  0  0
  143.4131   74.5878  218.9513 H   0  0  0  0  0  0  0  0  0  0  0  0
  142.4639   73.8856  221.8563 H   0  0  0  0  0  0  0  0  0  0  0  0
  140.7337   75.3000  222.8443 H   0  0  0  0  0  0  0  0  0  0  0  0
  139.9516   77.6133  223.1583 H   0  0  0  0  0  0  0  0  0  0  0  0
  141.9951   78.7983  219.6116 H   0  0  0  0  0  0  0  0  0  0  0  0
  142.7856   76.4984  219.2851 H   0  0  0  0  0  0  0  0  0  0  0  0
  139.1163   69.1981  223.0034 H   0  0  0  0  0  0  0  0  0  0  0  0
  139.4742   68.1899  225.2555 H   0  0  0  0  0  0  0  0  0  0  0  0
  140.1826   68.3894  227.5184 H   0  0  0  0  0  0  0  0  0  0  0  0
  141.1142   69.8057  229.3444 H   0  0  0  0  0  0  0  0  0  0  0  0
  141.6869   72.1869  228.9257 H   0  0  0  0  0  0  0  0  0  0  0  0
  141.3272   73.1698  226.6847 H   0  0  0  0  0  0  0  0  0  0  0  0
  1  2  2  0
  2  3  1  0
  3  4  1  0
  4  5  1  0
  5  6  2  0
  5  7  1  0
  7  8  1  0
  8  9  1  0
  9 10  1  0
 10 11  1  0
 11 12  1  0
 12 13  1  0
 13 14  2  0
 14 15  1  0
 15 16  2  0
 16 17  1  0
 16 18  1  0
 18 19  2  0
  2 20  1  0
 20 21  2  0
 21 22  1  0
 22 23  2  0
 23 24  1  0
 24 25  2  0
 25 26  1  0
 26 27  2  0
 27 28  1  0
 28 29  2  0
 12  7  1  0
 19 13  1  0
 29 20  1  0
 28 23  1  0
  3 30  1  0
  4 31  1  0
  4 32  1  0
  8 33  1  0
  8 34  1  0
  9 35  1  0
  9 36  1  0
 10 37  1  0
 10 38  1  0
 11 39  1  0
 11 40  1  0
 12 41  1  1
 14 42  1  0
 15 43  1  0
 18 44  1  0
 19 45  1  0
 21 46  1  0
 22 47  1  0
 24 48  1  0
 25 49  1  0
 26 50  1  0
 27 51  1  0
M  END
>  <meeko>  (9) 
{"free_energy": -8.09, "intermolecular_energy": -9.58, "internal_energy": -2.03, "cluster_size": 15, "cluster_id": 1, "rank_in_cluster": 7}

$$$$

     RDKit          3D

 51 54  0  0  0  0  0  0  0  0999 V2000
  139.7240   71.0310  221.2470 O   0  0  0  0  0  0  0  0  0  0  0  0
  139.6250   71.6990  222.3100 C   0  0  0  0  0  0  0  0  0  0  0  0
  139.2470   73.1050  222.1810 N   0  0  0  0  0  0  0  0  0  0  0  0
  139.0340   73.5640  220.8630 C   0  0  0  0  0  0  0  0  0  0  0  0
  140.1630   73.8040  219.9670 C   0  0  0  0  0  0  0  0  0  0  0  0
  139.8130   74.4260  218.8710 O   0  0  0  0  0  0  0  0  0  0  0  0
  141.5110   73.4930  220.0710 N   0  0  0  0  0  0  0  0  0  0  0  0
  142.1850   72.3700  219.4320 C   0  0  0  0  0  0  0  0  0  0  0  0
  143.4640   72.0410  220.2310 C   0  0  0  0  0  0  0  0  0  0  0  0
  144.4270   73.1810  220.2670 C   0  0  0  0  0  0  0  0  0  0  0  0
  143.6860   74.4720  220.0320 C   0  0  0  0  0  0  0  0  0  0  0  0
  142.3830   74.3710  220.8590 C   0  0  1  0  0  0  0  0  0  0  0  0
  141.8350   75.7460  221.0190 C   0  0  0  0  0  0  0  0  0  0  0  0
  142.0530   76.7530  220.1030 C   0  0  0  0  0  0  0  0  0  0  0  0
  141.5050   78.0190  220.2510 C   0  0  0  0  0  0  0  0  0  0  0  0
  140.7130   78.3200  221.3360 C   0  0  0  0  0  0  0  0  0  0  0  0
  139.9920   79.8990  221.5810 Cl  0  0  0  0  0  0  0  0  0  0  0  0
  140.4840   77.3410  222.2550 C   0  0  0  0  0  0  0  0  0  0  0  0
  141.0260   76.0810  222.1100 C   0  0  0  0  0  0  0  0  0  0  0  0
  139.8640   71.1370  223.6290 C   0  0  0  0  0  0  0  0  0  0  0  0
  139.5620   69.8120  223.8180 C   0  0  0  0  0  0  0  0  0  0  0  0
  139.7750   69.2390  225.0580 C   0  0  0  0  0  0  0  0  0  0  0  0
  140.2920   70.0190  226.0910 C   0  0  0  0  0  0  0  0  0  0  0  0
  140.4960   69.4180  227.3250 C   0  0  0  0  0  0  0  0  0  0  0  0
  141.0080   70.2030  228.3370 C   0  0  0  0  0  0  0  0  0  0  0  0
  141.3070   71.5440  228.1220 C   0  0  0  0  0  0  0  0  0  0  0  0
  141.0910   72.1030  226.8840 C   0  0  0  0  0  0  0  0  0  0  0  0
  140.5830   71.3520  225.8590 C   0  0  0  0  0  0  0  0  0  0  0  0
  140.3670   71.8990  224.6280 N   0  0  0  0  0  0  0  0  0  0  0  0
  139.2000   73.5970  223.0810 H   0  0  0  0  0  0  0  0  0  0  0  0
  138.3939   72.8178  220.3696 H   0  0  0  0  0  0  0  0  0  0  0  0
  138.6234   74.5728  221.0171 H   0  0  0  0  0  0  0  0  0  0  0  0
  141.5187   71.4948  219.4231 H   0  0  0  0  0  0  0  0  0  0  0  0
  142.4469   72.6303  218.3958 H   0  0  0  0  0  0  0  0  0  0  0  0
  143.1794   71.7874  221.2628 H   0  0  0  0  0  0  0  0  0  0  0  0
  143.9630   71.1988  219.7294 H   0  0  0  0  0  0  0  0  0  0  0  0
  144.9191   73.2144  221.2502 H   0  0  0  0  0  0  0  0  0  0  0  0
  145.1854   73.0453  219.4819 H   0  0  0  0  0  0  0  0  0  0  0  0
  144.2894   75.3266  220.3720 H   0  0  0  0  0  0  0  0  0  0  0  0
  143.4747   74.6270  218.9637 H   0  0  0  0  0  0  0  0  0  0  0  0
  142.5090   73.9610  221.8719 H   0  0  0  0  0  0  0  0  0  0  0  0
  142.6826   76.5458  219.2252 H   0  0  0  0  0  0  0  0  0  0  0  0
  141.7056   78.7906  219.4931 H   0  0  0  0  0  0  0  0  0  0  0  0
  139.8544   77.5596  223.1301 H   0  0  0  0  0  0  0  0  0  0  0  0
  140.8162   75.3179  222.8739 H   0  0  0  0  0  0  0  0  0  0  0  0
  139.1545   69.2117  222.9912 H   0  0  0  0  0  0  0  0  0  0  0  0
  139.5388   68.1781  225.2277 H   0  0  0  0  0  0  0  0  0  0  0  0
  140.2586   68.3566  227.4897 H   0  0  0  0  0  0  0  0  0  0  0  0
  141.1825   69.7616  229.3293 H   0  0  0  0  0  0  0  0  0  0  0  0
  141.7152   72.1560  228.9398 H   0  0  0  0  0  0  0  0  0  0  0  0
  141.3289   73.1638  226.7162 H   0  0  0  0  0  0  0  0  0  0  0  0
  1  2  2  0
  2  3  1  0
  3  4  1  0
  4  5  1  0
  5  6  2  0
  5  7  1  0
  7  8  1  0
  8  9  1  0
  9 10  1  0
 10 11  1  0
 11 12  1  0
 12 13  1  0
 13 14  2  0
 14 15  1  0
 15 16  2  0
 16 17  1  0
 16 18  1  0
 18 19  2  0
  2 20  1  0
 20 21  2  0
 21 22  1  0
 22 23  2  0
 23 24  1  0
 24 25  2  0
 25 26  1  0
 26 27  2  0
 27 28  1  0
 28 29  2  0
 12  7  1  0
 19 13  1  0
 29 20  1  0
 28 23  1  0
  3 30  1  0
  4 31  1  0
  4 32  1  0
  8 33  1  0
  8 34  1  0
  9 35  1  0
  9 36  1  0
 10 37  1  0
 10 38  1  0
 11 39  1  0
 11 40  1  0
 12 41  1  1
 14 42  1  0
 15 43  1  0
 18 44  1  0
 19 45  1  0
 21 46  1  0
 22 47  1  0
 24 48  1  0
 25 49  1  0
 26 50  1  0
 27 51  1  0
M  END
>  <meeko>  (10) 
{"free_energy": -8.01, "intermolecular_energy": -9.5, "internal_energy": -2.06, "cluster_size": 15, "cluster_id": 1, "rank_in_cluster": 15}

$$$$

     RDKit          3D

 51 54  0  0  0  0  0  0  0  0999 V2000
  141.3130   72.3450  221.5460 O   0  0  0  0  0  0  0  0  0  0  0  0
  140.4000   72.5130  222.3960 C   0  0  0  0  0  0  0  0  0  0  0  0
  139.5310   73.6760  222.2220 N   0  0  0  0  0  0  0  0  0  0  0  0
  139.8170   74.4910  221.1050 C   0  0  0  0  0  0  0  0  0  0  0  0
  140.9570   75.4050  221.1240 C   0  0  0  0  0  0  0  0  0  0  0  0
  141.3820   75.6560  222.3360 O   0  0  0  0  0  0  0  0  0  0  0  0
  141.6510   76.0420  220.1060 N   0  0  0  0  0  0  0  0  0  0  0  0
  142.0360   75.4530  218.8300 C   0  0  0  0  0  0  0  0  0  0  0  0
  143.2410   76.2370  218.2670 C   0  0  0  0  0  0  0  0  0  0  0  0
  142.9260   77.6750  218.0210 C   0  0  0  0  0  0  0  0  0  0  0  0
  141.7660   78.0910  218.8890 C   0  0  0  0  0  0  0  0  0  0  0  0
  142.0210   77.4510  220.2740 C   0  0  1  0  0  0  0  0  0  0  0  0
  141.1730   78.1630  221.2700 C   0  0  0  0  0  0  0  0  0  0  0  0
  141.6640   78.6560  222.4610 C   0  0  0  0  0  0  0  0  0  0  0  0
  140.8660   79.3470  223.3600 C   0  0  0  0  0  0  0  0  0  0  0  0
  139.5340   79.5680  223.0930 C   0  0  0  0  0  0  0  0  0  0  0  0
  138.4720   80.4340  224.1880 Cl  0  0  0  0  0  0  0  0  0  0  0  0
  139.0260   79.0900  221.9240 C   0  0  0  0  0  0  0  0  0  0  0  0
  139.8170   78.4030  221.0260 C   0  0  0  0  0  0  0  0  0  0  0  0
  140.1810   71.6150  223.5180 C   0  0  0  0  0  0  0  0  0  0  0  0
  139.4340   70.4870  223.2900 C   0  0  0  0  0  0  0  0  0  0  0  0
  139.2030   69.6060  224.3300 C   0  0  0  0  0  0  0  0  0  0  0  0
  139.7320   69.8820  225.5900 C   0  0  0  0  0  0  0  0  0  0  0  0
  139.4840   68.9810  226.6150 C   0  0  0  0  0  0  0  0  0  0  0  0
  140.0150   69.2690  227.8550 C   0  0  0  0  0  0  0  0  0  0  0  0
  140.7700   70.4180  228.0630 C   0  0  0  0  0  0  0  0  0  0  0  0
  140.9940   71.2870  227.0200 C   0  0  0  0  0  0  0  0  0  0  0  0
  140.4800   71.0320  225.7770 C   0  0  0  0  0  0  0  0  0  0  0  0
  140.6980   71.8880  224.7380 N   0  0  0  0  0  0  0  0  0  0  0  0
  138.8200   73.7640  222.9560 H   0  0  0  0  0  0  0  0  0  0  0  0
  139.9710   73.8135  220.2522 H   0  0  0  0  0  0  0  0  0  0  0  0
  138.9547   75.1731  221.0704 H   0  0  0  0  0  0  0  0  0  0  0  0
  142.3161   74.3996  218.9780 H   0  0  0  0  0  0  0  0  0  0  0  0
  141.1935   75.5029  218.1245 H   0  0  0  0  0  0  0  0  0  0  0  0
  144.0690   76.1762  218.9886 H   0  0  0  0  0  0  0  0  0  0  0  0
  143.5105   75.7851  217.3010 H   0  0  0  0  0  0  0  0  0  0  0  0
  143.8051   78.2898  218.2645 H   0  0  0  0  0  0  0  0  0  0  0  0
  142.6613   77.8165  216.9627 H   0  0  0  0  0  0  0  0  0  0  0  0
  141.7267   79.1869  218.9755 H   0  0  0  0  0  0  0  0  0  0  0  0
  140.8059   77.7635  218.4637 H   0  0  0  0  0  0  0  0  0  0  0  0
  143.0583   77.5236  220.6327 H   0  0  0  0  0  0  0  0  0  0  0  0
  142.7243   78.4956  222.7058 H   0  0  0  0  0  0  0  0  0  0  0  0
  141.3024   79.7228  224.2972 H   0  0  0  0  0  0  0  0  0  0  0  0
  137.9637   79.2547  221.6906 H   0  0  0  0  0  0  0  0  0  0  0  0
  139.3684   78.0337  220.0920 H   0  0  0  0  0  0  0  0  0  0  0  0
  139.0230   70.2857  222.2897 H   0  0  0  0  0  0  0  0  0  0  0  0
  138.6075   68.6960  224.1650 H   0  0  0  0  0  0  0  0  0  0  0  0
  138.8873   68.0725  226.4456 H   0  0  0  0  0  0  0  0  0  0  0  0
  139.8384   68.5786  228.6929 H   0  0  0  0  0  0  0  0  0  0  0  0
  141.1869   70.6316  229.0583 H   0  0  0  0  0  0  0  0  0  0  0  0
  141.5918   72.1953  227.1865 H   0  0  0  0  0  0  0  0  0  0  0  0
  1  2  2  0
  2  3  1  0
  3  4  1  0
  4  5  1  0
  5  6  2  0
  5  7  1  0
  7  8  1  0
  8  9  1  0
  9 10  1  0
 10 11  1  0
 11 12  1  0
 12 13  1  0
 13 14  2  0
 14 15  1  0
 15 16  2  0
 16 17  1  0
 16 18  1  0
 18 19  2  0
  2 20  1  0
 20 21  2  0
 21 22  1  0
 22 23  2  0
 23 24  1  0
 24 25  2  0
 25 26  1  0
 26 27  2  0
 27 28  1  0
 28 29  2  0
 12  7  1  0
 19 13  1  0
 29 20  1  0
 28 23  1  0
  3 30  1  0
  4 31  1  0
  4 32  1  0
  8 33  1  0
  8 34  1  0
  9 35  1  0
  9 36  1  0
 10 37  1  0
 10 38  1  0
 11 39  1  0
 11 40  1  0
 12 41  1  1
 14 42  1  0
 15 43  1  0
 18 44  1  0
 19 45  1  0
 21 46  1  0
 22 47  1  0
 24 48  1  0
 25 49  1  0
 26 50  1  0
 27 51  1  0
M  END
>  <meeko>  (11) 
{"free_energy": -8.82, "intermolecular_energy": -10.32, "internal_energy": -1.31, "cluster_size": 15, "cluster_id": 1, "rank_in_cluster": 2}

$$$$

     RDKit          3D

 51 54  0  0  0  0  0  0  0  0999 V2000
  139.6110   71.0150  221.2710 O   0  0  0  0  0  0  0  0  0  0  0  0
  139.5870   71.6970  222.3300 C   0  0  0  0  0  0  0  0  0  0  0  0
  139.2830   73.1210  222.1990 N   0  0  0  0  0  0  0  0  0  0  0  0
  139.0480   73.5790  220.8850 C   0  0  0  0  0  0  0  0  0  0  0  0
  140.1600   73.7830  219.9580 C   0  0  0  0  0  0  0  0  0  0  0  0
  139.7870   74.3560  218.8430 O   0  0  0  0  0  0  0  0  0  0  0  0
  141.5100   73.4790  220.0500 N   0  0  0  0  0  0  0  0  0  0  0  0
  142.1850   72.3630  219.4020 C   0  0  0  0  0  0  0  0  0  0  0  0
  143.4730   72.0390  220.1890 C   0  0  0  0  0  0  0  0  0  0  0  0
  144.4290   73.1840  220.2220 C   0  0  0  0  0  0  0  0  0  0  0  0
  143.6790   74.4720  219.9980 C   0  0  0  0  0  0  0  0  0  0  0  0
  142.3830   74.3600  220.8340 C   0  0  1  0  0  0  0  0  0  0  0  0
  141.8280   75.7310  221.0040 C   0  0  0  0  0  0  0  0  0  0  0  0
  141.0370   76.0950  222.0750 C   0  0  0  0  0  0  0  0  0  0  0  0
  140.5580   77.3860  222.2340 C   0  0  0  0  0  0  0  0  0  0  0  0
  140.8590   78.3670  221.3160 C   0  0  0  0  0  0  0  0  0  0  0  0
  140.2850   80.0170  221.4610 Cl  0  0  0  0  0  0  0  0  0  0  0  0
  141.6380   78.0310  220.2510 C   0  0  0  0  0  0  0  0  0  0  0  0
  142.1170   76.7480  220.0880 C   0  0  0  0  0  0  0  0  0  0  0  0
  139.8420   71.1350  223.6450 C   0  0  0  0  0  0  0  0  0  0  0  0
  139.5680   69.8030  223.8290 C   0  0  0  0  0  0  0  0  0  0  0  0
  139.7970   69.2290  225.0660 C   0  0  0  0  0  0  0  0  0  0  0  0
  140.3010   70.0150  226.1010 C   0  0  0  0  0  0  0  0  0  0  0  0
  140.5210   69.4130  227.3310 C   0  0  0  0  0  0  0  0  0  0  0  0
  141.0200   70.2040  228.3450 C   0  0  0  0  0  0  0  0  0  0  0  0
  141.2900   71.5520  228.1360 C   0  0  0  0  0  0  0  0  0  0  0  0
  141.0590   72.1120  226.9000 C   0  0  0  0  0  0  0  0  0  0  0  0
  140.5630   71.3540  225.8740 C   0  0  0  0  0  0  0  0  0  0  0  0
  140.3310   71.9020  224.6460 N   0  0  0  0  0  0  0  0  0  0  0  0
  139.2950   73.6220  223.0950 H   0  0  0  0  0  0  0  0  0  0  0  0
  138.3747   72.8485  220.4128 H   0  0  0  0  0  0  0  0  0  0  0  0
  138.6694   74.5995  221.0439 H   0  0  0  0  0  0  0  0  0  0  0  0
  141.5240   71.4838  219.3958 H   0  0  0  0  0  0  0  0  0  0  0  0
  142.4365   72.6285  218.3646 H   0  0  0  0  0  0  0  0  0  0  0  0
  143.1986   71.7793  221.2221 H   0  0  0  0  0  0  0  0  0  0  0  0
  143.9731   71.2023  219.6793 H   0  0  0  0  0  0  0  0  0  0  0  0
  144.9286   73.2163  221.2015 H   0  0  0  0  0  0  0  0  0  0  0  0
  145.1817   73.0558  219.4302 H   0  0  0  0  0  0  0  0  0  0  0  0
  144.2801   75.3285  220.3372 H   0  0  0  0  0  0  0  0  0  0  0  0
  143.4590   74.6305  218.9320 H   0  0  0  0  0  0  0  0  0  0  0  0
  142.5193   73.9469  221.8443 H   0  0  0  0  0  0  0  0  0  0  0  0
  140.7782   75.3354  222.8273 H   0  0  0  0  0  0  0  0  0  0  0  0
  139.9301   77.6296  223.1037 H   0  0  0  0  0  0  0  0  0  0  0  0
  141.8906   78.7989  219.5050 H   0  0  0  0  0  0  0  0  0  0  0  0
  142.7436   76.5181  219.2136 H   0  0  0  0  0  0  0  0  0  0  0  0
  139.1702   69.1980  223.0009 H   0  0  0  0  0  0  0  0  0  0  0  0
  139.5836   68.1627  225.2316 H   0  0  0  0  0  0  0  0  0  0  0  0
  140.3059   68.3463  227.4917 H   0  0  0  0  0  0  0  0  0  0  0  0
  141.2073   69.7615  229.3345 H   0  0  0  0  0  0  0  0  0  0  0  0
  141.6869   72.1688  228.9558 H   0  0  0  0  0  0  0  0  0  0  0  0
  141.2749   73.1780  226.7354 H   0  0  0  0  0  0  0  0  0  0  0  0
  1  2  2  0
  2  3  1  0
  3  4  1  0
  4  5  1  0
  5  6  2  0
  5  7  1  0
  7  8  1  0
  8  9  1  0
  9 10  1  0
 10 11  1  0
 11 12  1  0
 12 13  1  0
 13 14  2  0
 14 15  1  0
 15 16  2  0
 16 17  1  0
 16 18  1  0
 18 19  2  0
  2 20  1  0
 20 21  2  0
 21 22  1  0
 22 23  2  0
 23 24  1  0
 24 25  2  0
 25 26  1  0
 26 27  2  0
 27 28  1  0
 28 29  2  0
 12  7  1  0
 19 13  1  0
 29 20  1  0
 28 23  1  0
  3 30  1  0
  4 31  1  0
  4 32  1  0
  8 33  1  0
  8 34  1  0
  9 35  1  0
  9 36  1  0
 10 37  1  0
 10 38  1  0
 11 39  1  0
 11 40  1  0
 12 41  1  1
 14 42  1  0
 15 43  1  0
 18 44  1  0
 19 45  1  0
 21 46  1  0
 22 47  1  0
 24 48  1  0
 25 49  1  0
 26 50  1  0
 27 51  1  0
M  END
>  <meeko>  (12) 
{"free_energy": -8.08, "intermolecular_energy": -9.57, "internal_energy": -2.06, "cluster_size": 15, "cluster_id": 1, "rank_in_cluster": 11}

$$$$

     RDKit          3D

 51 54  0  0  0  0  0  0  0  0999 V2000
  139.4750   71.0440  221.3020 O   0  0  0  0  0  0  0  0  0  0  0  0
  139.5760   71.7230  222.3580 C   0  0  0  0  0  0  0  0  0  0  0  0
  139.4080   73.1700  222.2390 N   0  0  0  0  0  0  0  0  0  0  0  0
  139.1490   73.6520  220.9380 C   0  0  0  0  0  0  0  0  0  0  0  0
  140.2330   73.8020  219.9700 C   0  0  0  0  0  0  0  0  0  0  0  0
  139.8180   74.2560  218.8150 O   0  0  0  0  0  0  0  0  0  0  0  0
  141.5940   73.5500  220.0560 N   0  0  0  0  0  0  0  0  0  0  0  0
  142.3100   72.4630  219.4030 C   0  0  0  0  0  0  0  0  0  0  0  0
  143.6110   72.1860  220.1860 C   0  0  0  0  0  0  0  0  0  0  0  0
  144.5230   73.3670  220.2200 C   0  0  0  0  0  0  0  0  0  0  0  0
  143.7230   74.6260  220.0020 C   0  0  0  0  0  0  0  0  0  0  0  0
  142.4350   74.4610  220.8420 C   0  0  1  0  0  0  0  0  0  0  0  0
  141.8280   75.8100  221.0170 C   0  0  0  0  0  0  0  0  0  0  0  0
  141.0580   76.1510  222.1100 C   0  0  0  0  0  0  0  0  0  0  0  0
  140.5300   77.4220  222.2730 C   0  0  0  0  0  0  0  0  0  0  0  0
  140.7590   78.4060  221.3370 C   0  0  0  0  0  0  0  0  0  0  0  0
  140.1200   80.0320  221.4860 Cl  0  0  0  0  0  0  0  0  0  0  0  0
  141.5170   78.0930  220.2500 C   0  0  0  0  0  0  0  0  0  0  0  0
  142.0440   76.8290  220.0840 C   0  0  0  0  0  0  0  0  0  0  0  0
  139.8460   71.1360  223.6590 C   0  0  0  0  0  0  0  0  0  0  0  0
  139.5790   69.7990  223.8190 C   0  0  0  0  0  0  0  0  0  0  0  0
  139.8210   69.2020  225.0420 C   0  0  0  0  0  0  0  0  0  0  0  0
  140.3330   69.9680  226.0880 C   0  0  0  0  0  0  0  0  0  0  0  0
  140.5670   69.3430  227.3030 C   0  0  0  0  0  0  0  0  0  0  0  0
  141.0720   70.1150  228.3280 C   0  0  0  0  0  0  0  0  0  0  0  0
  141.3360   71.4680  228.1430 C   0  0  0  0  0  0  0  0  0  0  0  0
  141.0910   72.0520  226.9210 C   0  0  0  0  0  0  0  0  0  0  0  0
  140.5880   71.3130  225.8850 C   0  0  0  0  0  0  0  0  0  0  0  0
  140.3420   71.8850  224.6700 N   0  0  0  0  0  0  0  0  0  0  0  0
  139.5190   73.6660  223.1310 H   0  0  0  0  0  0  0  0  0  0  0  0
  138.4181   72.9643  220.4876 H   0  0  0  0  0  0  0  0  0  0  0  0
  138.8352   74.6907  221.1186 H   0  0  0  0  0  0  0  0  0  0  0  0
  141.6832   71.5591  219.3952 H   0  0  0  0  0  0  0  0  0  0  0  0
  142.5490   72.7415  218.3660 H   0  0  0  0  0  0  0  0  0  0  0  0
  143.3492   71.9132  221.2190 H   0  0  0  0  0  0  0  0  0  0  0  0
  144.1413   71.3702  219.6729 H   0  0  0  0  0  0  0  0  0  0  0  0
  145.0238   73.4155  221.1982 H   0  0  0  0  0  0  0  0  0  0  0  0
  145.2781   73.2702  219.4260 H   0  0  0  0  0  0  0  0  0  0  0  0
  144.2915   75.5042  220.3419 H   0  0  0  0  0  0  0  0  0  0  0  0
  143.4937   74.7793  218.9372 H   0  0  0  0  0  0  0  0  0  0  0  0
  142.5898   74.0499  221.8505 H   0  0  0  0  0  0  0  0  0  0  0  0
  140.8566   75.3890  222.8773 H   0  0  0  0  0  0  0  0  0  0  0  0
  139.9207   77.6476  223.1606 H   0  0  0  0  0  0  0  0  0  0  0  0
  141.7129   78.8631  219.4894 H   0  0  0  0  0  0  0  0  0  0  0  0
  142.6517   76.6165  219.1920 H   0  0  0  0  0  0  0  0  0  0  0  0
  139.1766   69.2088  222.9825 H   0  0  0  0  0  0  0  0  0  0  0  0
  139.6114   68.1321  225.1885 H   0  0  0  0  0  0  0  0  0  0  0  0
  140.3579   68.2723  227.4441 H   0  0  0  0  0  0  0  0  0  0  0  0
  141.2691   69.6537  229.3070 H   0  0  0  0  0  0  0  0  0  0  0  0
  141.7394   72.0695  228.9709 H   0  0  0  0  0  0  0  0  0  0  0  0
  141.3013   73.1219  226.7760 H   0  0  0  0  0  0  0  0  0  0  0  0
  1  2  2  0
  2  3  1  0
  3  4  1  0
  4  5  1  0
  5  6  2  0
  5  7  1  0
  7  8  1  0
  8  9  1  0
  9 10  1  0
 10 11  1  0
 11 12  1  0
 12 13  1  0
 13 14  2  0
 14 15  1  0
 15 16  2  0
 16 17  1  0
 16 18  1  0
 18 19  2  0
  2 20  1  0
 20 21  2  0
 21 22  1  0
 22 23  2  0
 23 24  1  0
 24 25  2  0
 25 26  1  0
 26 27  2  0
 27 28  1  0
 28 29  2  0
 12  7  1  0
 19 13  1  0
 29 20  1  0
 28 23  1  0
  3 30  1  0
  4 31  1  0
  4 32  1  0
  8 33  1  0
  8 34  1  0
  9 35  1  0
  9 36  1  0
 10 37  1  0
 10 38  1  0
 11 39  1  0
 11 40  1  0
 12 41  1  1
 14 42  1  0
 15 43  1  0
 18 44  1  0
 19 45  1  0
 21 46  1  0
 22 47  1  0
 24 48  1  0
 25 49  1  0
 26 50  1  0
 27 51  1  0
M  END
>  <meeko>  (13) 
{"free_energy": -8.05, "intermolecular_energy": -9.54, "internal_energy": -2.07, "cluster_size": 15, "cluster_id": 1, "rank_in_cluster": 13}

$$$$

     RDKit          3D

 51 54  0  0  0  0  0  0  0  0999 V2000
  141.3080   72.3020  221.5220 O   0  0  0  0  0  0  0  0  0  0  0  0
  140.4260   72.4830  222.4030 C   0  0  0  0  0  0  0  0  0  0  0  0
  139.5780   73.6660  222.2640 N   0  0  0  0  0  0  0  0  0  0  0  0
  139.8460   74.4840  221.1450 C   0  0  0  0  0  0  0  0  0  0  0  0
  140.9930   75.3890  221.1430 C   0  0  0  0  0  0  0  0  0  0  0  0
  141.4470   75.6300  222.3460 O   0  0  0  0  0  0  0  0  0  0  0  0
  141.6690   76.0250  220.1130 N   0  0  0  0  0  0  0  0  0  0  0  0
  142.0400   75.4340  218.8340 C   0  0  0  0  0  0  0  0  0  0  0  0
  143.2320   76.2220  218.2510 C   0  0  0  0  0  0  0  0  0  0  0  0
  142.9050   77.6580  218.0040 C   0  0  0  0  0  0  0  0  0  0  0  0
  141.7550   78.0700  218.8870 C   0  0  0  0  0  0  0  0  0  0  0  0
  142.0340   77.4380  220.2710 C   0  0  1  0  0  0  0  0  0  0  0  0
  141.1950   78.1480  221.2750 C   0  0  0  0  0  0  0  0  0  0  0  0
  141.6990   78.6380  222.4630 C   0  0  0  0  0  0  0  0  0  0  0  0
  140.9090   79.3280  223.3710 C   0  0  0  0  0  0  0  0  0  0  0  0
  139.5750   79.5520  223.1160 C   0  0  0  0  0  0  0  0  0  0  0  0
  138.5250   80.4170  224.2230 Cl  0  0  0  0  0  0  0  0  0  0  0  0
  139.0560   79.0780  221.9500 C   0  0  0  0  0  0  0  0  0  0  0  0
  139.8380   78.3910  221.0440 C   0  0  0  0  0  0  0  0  0  0  0  0
  140.2230   71.5810  223.5240 C   0  0  0  0  0  0  0  0  0  0  0  0
  139.5390   70.4160  223.2850 C   0  0  0  0  0  0  0  0  0  0  0  0
  139.3240   69.5310  224.3250 C   0  0  0  0  0  0  0  0  0  0  0  0
  139.8080   69.8390  225.5960 C   0  0  0  0  0  0  0  0  0  0  0  0
  139.5790   68.9330  226.6200 C   0  0  0  0  0  0  0  0  0  0  0  0
  140.0640   69.2520  227.8710 C   0  0  0  0  0  0  0  0  0  0  0  0
  140.7560   70.4390  228.0900 C   0  0  0  0  0  0  0  0  0  0  0  0
  140.9630   71.3120  227.0470 C   0  0  0  0  0  0  0  0  0  0  0  0
  140.4940   71.0250  225.7940 C   0  0  0  0  0  0  0  0  0  0  0  0
  140.6960   71.8850  224.7550 N   0  0  0  0  0  0  0  0  0  0  0  0
  138.8930   73.7640  223.0220 H   0  0  0  0  0  0  0  0  0  0  0  0
  139.9760   73.8094  220.2860 H   0  0  0  0  0  0  0  0  0  0  0  0
  138.9886   75.1730  221.1326 H   0  0  0  0  0  0  0  0  0  0  0  0
  142.3282   74.3828  218.9819 H   0  0  0  0  0  0  0  0  0  0  0  0
  141.1874   75.4771  218.1403 H   0  0  0  0  0  0  0  0  0  0  0  0
  144.0706   76.1686  218.9608 H   0  0  0  0  0  0  0  0  0  0  0  0
  143.4904   75.7677  217.2831 H   0  0  0  0  0  0  0  0  0  0  0  0
  143.7838   78.2788  218.2327 H   0  0  0  0  0  0  0  0  0  0  0  0
  142.6247   77.7942  216.9491 H   0  0  0  0  0  0  0  0  0  0  0  0
  141.7096   79.1660  218.9692 H   0  0  0  0  0  0  0  0  0  0  0  0
  140.7911   77.7340  218.4770 H   0  0  0  0  0  0  0  0  0  0  0  0
  143.0757   77.5189  220.6151 H   0  0  0  0  0  0  0  0  0  0  0  0
  142.7615   78.4761  222.6973 H   0  0  0  0  0  0  0  0  0  0  0  0
  141.3538   79.7004  224.3056 H   0  0  0  0  0  0  0  0  0  0  0  0
  137.9923   79.2460  221.7257 H   0  0  0  0  0  0  0  0  0  0  0  0
  139.3804   78.0241  220.1134 H   0  0  0  0  0  0  0  0  0  0  0  0
  139.1653   70.1884  222.2758 H   0  0  0  0  0  0  0  0  0  0  0  0
  138.7764   68.5929  224.1516 H   0  0  0  0  0  0  0  0  0  0  0  0
  139.0315   67.9957  226.4416 H   0  0  0  0  0  0  0  0  0  0  0  0
  139.9013   68.5575  228.7083 H   0  0  0  0  0  0  0  0  0  0  0  0
  141.1364   70.6787  229.0939 H   0  0  0  0  0  0  0  0  0  0  0  0
  141.5108   72.2497  227.2220 H   0  0  0  0  0  0  0  0  0  0  0  0
  1  2  2  0
  2  3  1  0
  3  4  1  0
  4  5  1  0
  5  6  2  0
  5  7  1  0
  7  8  1  0
  8  9  1  0
  9 10  1  0
 10 11  1  0
 11 12  1  0
 12 13  1  0
 13 14  2  0
 14 15  1  0
 15 16  2  0
 16 17  1  0
 16 18  1  0
 18 19  2  0
  2 20  1  0
 20 21  2  0
 21 22  1  0
 22 23  2  0
 23 24  1  0
 24 25  2  0
 25 26  1  0
 26 27  2  0
 27 28  1  0
 28 29  2  0
 12  7  1  0
 19 13  1  0
 29 20  1  0
 28 23  1  0
  3 30  1  0
  4 31  1  0
  4 32  1  0
  8 33  1  0
  8 34  1  0
  9 35  1  0
  9 36  1  0
 10 37  1  0
 10 38  1  0
 11 39  1  0
 11 40  1  0
 12 41  1  1
 14 42  1  0
 15 43  1  0
 18 44  1  0
 19 45  1  0
 21 46  1  0
 22 47  1  0
 24 48  1  0
 25 49  1  0
 26 50  1  0
 27 51  1  0
M  END
>  <meeko>  (14) 
{"free_energy": -8.81, "intermolecular_energy": -10.3, "internal_energy": -1.33, "cluster_size": 15, "cluster_id": 1, "rank_in_cluster": 3}

$$$$

     RDKit          3D

 51 54  0  0  0  0  0  0  0  0999 V2000
  139.7220   71.0300  221.2320 O   0  0  0  0  0  0  0  0  0  0  0  0
  139.6270   71.6990  222.2950 C   0  0  0  0  0  0  0  0  0  0  0  0
  139.2640   73.1090  222.1660 N   0  0  0  0  0  0  0  0  0  0  0  0
  139.0570   73.5700  220.8480 C   0  0  0  0  0  0  0  0  0  0  0  0
  140.1840   73.7380  219.9330 C   0  0  0  0  0  0  0  0  0  0  0  0
  139.8330   74.2800  218.7950 O   0  0  0  0  0  0  0  0  0  0  0  0
  141.5310   73.4290  220.0540 N   0  0  0  0  0  0  0  0  0  0  0  0
  142.2140   72.3050  219.4280 C   0  0  0  0  0  0  0  0  0  0  0  0
  143.4830   71.9800  220.2440 C   0  0  0  0  0  0  0  0  0  0  0  0
  144.4440   73.1210  220.2890 C   0  0  0  0  0  0  0  0  0  0  0  0
  143.7050   74.4110  220.0410 C   0  0  0  0  0  0  0  0  0  0  0  0
  142.3910   74.3110  220.8510 C   0  0  1  0  0  0  0  0  0  0  0  0
  141.8400   75.6860  221.0000 C   0  0  0  0  0  0  0  0  0  0  0  0
  141.0260   76.0590  222.0490 C   0  0  0  0  0  0  0  0  0  0  0  0
  140.5500   77.3540  222.1900 C   0  0  0  0  0  0  0  0  0  0  0  0
  140.8780   78.3280  221.2740 C   0  0  0  0  0  0  0  0  0  0  0  0
  140.3090   79.9820  221.3960 Cl  0  0  0  0  0  0  0  0  0  0  0  0
  141.6800   77.9830  220.2300 C   0  0  0  0  0  0  0  0  0  0  0  0
  142.1560   76.6960  220.0860 C   0  0  0  0  0  0  0  0  0  0  0  0
  139.8600   71.1350  223.6140 C   0  0  0  0  0  0  0  0  0  0  0  0
  139.5580   69.8090  223.7980 C   0  0  0  0  0  0  0  0  0  0  0  0
  139.7640   69.2340  225.0380 C   0  0  0  0  0  0  0  0  0  0  0  0
  140.2740   70.0120  226.0760 C   0  0  0  0  0  0  0  0  0  0  0  0
  140.4710   69.4080  227.3090 C   0  0  0  0  0  0  0  0  0  0  0  0
  140.9760   70.1910  228.3260 C   0  0  0  0  0  0  0  0  0  0  0  0
  141.2760   71.5330  228.1170 C   0  0  0  0  0  0  0  0  0  0  0  0
  141.0660   72.0950  226.8780 C   0  0  0  0  0  0  0  0  0  0  0  0
  140.5650   71.3450  225.8480 C   0  0  0  0  0  0  0  0  0  0  0  0
  140.3550   71.8950  224.6170 N   0  0  0  0  0  0  0  0  0  0  0  0
  139.2200   73.6010  223.0660 H   0  0  0  0  0  0  0  0  0  0  0  0
  138.3674   72.8584  220.3705 H   0  0  0  0  0  0  0  0  0  0  0  0
  138.7074   74.6018  221.0001 H   0  0  0  0  0  0  0  0  0  0  0  0
  141.5487   71.4291  219.4137 H   0  0  0  0  0  0  0  0  0  0  0  0
  142.4888   72.5621  218.3944 H   0  0  0  0  0  0  0  0  0  0  0  0
  143.1856   71.7290  221.2729 H   0  0  0  0  0  0  0  0  0  0  0  0
  143.9894   71.1370  219.7511 H   0  0  0  0  0  0  0  0  0  0  0  0
  144.9235   73.1576  221.2783 H   0  0  0  0  0  0  0  0  0  0  0  0
  145.2122   72.9839  219.5137 H   0  0  0  0  0  0  0  0  0  0  0  0
  144.3032   75.2669  220.3868 H   0  0  0  0  0  0  0  0  0  0  0  0
  143.5077   74.5632  218.9696 H   0  0  0  0  0  0  0  0  0  0  0  0
  142.5032   73.9042  221.8669 H   0  0  0  0  0  0  0  0  0  0  0  0
  140.7450   75.3045  222.7985 H   0  0  0  0  0  0  0  0  0  0  0  0
  139.9031   77.6057  223.0433 H   0  0  0  0  0  0  0  0  0  0  0  0
  141.9542   78.7455  219.4861 H   0  0  0  0  0  0  0  0  0  0  0  0
  142.8021   76.4578  219.2282 H   0  0  0  0  0  0  0  0  0  0  0  0
  139.1562   69.2100  222.9675 H   0  0  0  0  0  0  0  0  0  0  0  0
  139.5277   68.1726  225.2040 H   0  0  0  0  0  0  0  0  0  0  0  0
  140.2337   68.3460  227.4695 H   0  0  0  0  0  0  0  0  0  0  0  0
  141.1442   69.7470  229.3183 H   0  0  0  0  0  0  0  0  0  0  0  0
  141.6795   72.1429  228.9387 H   0  0  0  0  0  0  0  0  0  0  0  0
  141.3029   73.1566  226.7140 H   0  0  0  0  0  0  0  0  0  0  0  0
  1  2  2  0
  2  3  1  0
  3  4  1  0
  4  5  1  0
  5  6  2  0
  5  7  1  0
  7  8  1  0
  8  9  1  0
  9 10  1  0
 10 11  1  0
 11 12  1  0
 12 13  1  0
 13 14  2  0
 14 15  1  0
 15 16  2  0
 16 17  1  0
 16 18  1  0
 18 19  2  0
  2 20  1  0
 20 21  2  0
 21 22  1  0
 22 23  2  0
 23 24  1  0
 24 25  2  0
 25 26  1  0
 26 27  2  0
 27 28  1  0
 28 29  2  0
 12  7  1  0
 19 13  1  0
 29 20  1  0
 28 23  1  0
  3 30  1  0
  4 31  1  0
  4 32  1  0
  8 33  1  0
  8 34  1  0
  9 35  1  0
  9 36  1  0
 10 37  1  0
 10 38  1  0
 11 39  1  0
 11 40  1  0
 12 41  1  1
 14 42  1  0
 15 43  1  0
 18 44  1  0
 19 45  1  0
 21 46  1  0
 22 47  1  0
 24 48  1  0
 25 49  1  0
 26 50  1  0
 27 51  1  0
M  END
>  <meeko>  (15) 
{"free_energy": -8.09, "intermolecular_energy": -9.58, "internal_energy": -2.06, "cluster_size": 15, "cluster_id": 1, "rank_in_cluster": 9}

$$$$

     RDKit          3D

 51 54  0  0  0  0  0  0  0  0999 V2000
  139.7540   71.0440  221.2440 O   0  0  0  0  0  0  0  0  0  0  0  0
  139.6190   71.7030  222.3090 C   0  0  0  0  0  0  0  0  0  0  0  0
  139.2310   73.1070  222.1800 N   0  0  0  0  0  0  0  0  0  0  0  0
  139.0480   73.5730  220.8600 C   0  0  0  0  0  0  0  0  0  0  0  0
  140.1790   73.6620  219.9390 C   0  0  0  0  0  0  0  0  0  0  0  0
  139.8360   74.1230  218.7630 O   0  0  0  0  0  0  0  0  0  0  0  0
  141.5220   73.3500  220.0880 N   0  0  0  0  0  0  0  0  0  0  0  0
  142.2110   72.2130  219.4920 C   0  0  0  0  0  0  0  0  0  0  0  0
  143.4650   71.8970  220.3340 C   0  0  0  0  0  0  0  0  0  0  0  0
  144.4300   73.0350  220.3750 C   0  0  0  0  0  0  0  0  0  0  0  0
  143.7010   74.3240  220.0930 C   0  0  0  0  0  0  0  0  0  0  0  0
  142.3730   74.2420  220.8830 C   0  0  1  0  0  0  0  0  0  0  0  0
  141.8250   75.6220  221.0000 C   0  0  0  0  0  0  0  0  0  0  0  0
  141.0030   76.0190  222.0340 C   0  0  0  0  0  0  0  0  0  0  0  0
  140.5310   77.3180  222.1450 C   0  0  0  0  0  0  0  0  0  0  0  0
  140.8690   78.2720  221.2120 C   0  0  0  0  0  0  0  0  0  0  0  0
  140.3050   79.9300  221.2970 Cl  0  0  0  0  0  0  0  0  0  0  0  0
  141.6790   77.9030  220.1820 C   0  0  0  0  0  0  0  0  0  0  0  0
  142.1520   76.6120  220.0680 C   0  0  0  0  0  0  0  0  0  0  0  0
  139.8290   71.1350  223.6290 C   0  0  0  0  0  0  0  0  0  0  0  0
  139.4970   69.8160  223.8120 C   0  0  0  0  0  0  0  0  0  0  0  0
  139.6820   69.2370  225.0530 C   0  0  0  0  0  0  0  0  0  0  0  0
  140.2010   70.0040  226.0950 C   0  0  0  0  0  0  0  0  0  0  0  0
  140.3760   69.3970  227.3300 C   0  0  0  0  0  0  0  0  0  0  0  0
  140.8910   70.1690  228.3500 C   0  0  0  0  0  0  0  0  0  0  0  0
  141.2220   71.5040  228.1420 C   0  0  0  0  0  0  0  0  0  0  0  0
  141.0340   72.0690  226.9020 C   0  0  0  0  0  0  0  0  0  0  0  0
  140.5230   71.3310  225.8690 C   0  0  0  0  0  0  0  0  0  0  0  0
  140.3350   71.8840  224.6360 N   0  0  0  0  0  0  0  0  0  0  0  0
  139.1540   73.5910  223.0810 H   0  0  0  0  0  0  0  0  0  0  0  0
  138.3112   72.9051  220.3899 H   0  0  0  0  0  0  0  0  0  0  0  0
  138.7670   74.6262  221.0074 H   0  0  0  0  0  0  0  0  0  0  0  0
  141.5426   71.3394  219.4813 H   0  0  0  0  0  0  0  0  0  0  0  0
  142.5038   72.4519  218.4590 H   0  0  0  0  0  0  0  0  0  0  0  0
  143.1499   71.6650  221.3620 H   0  0  0  0  0  0  0  0  0  0  0  0
  143.9757   71.0436  219.8641 H   0  0  0  0  0  0  0  0  0  0  0  0
  144.8936   73.0866  221.3712 H   0  0  0  0  0  0  0  0  0  0  0  0
  145.2098   72.8814  219.6145 H   0  0  0  0  0  0  0  0  0  0  0  0
  144.2969   75.1832  220.4346 H   0  0  0  0  0  0  0  0  0  0  0  0
  143.5225   74.4597  219.0161 H   0  0  0  0  0  0  0  0  0  0  0  0
  142.4674   73.8515  221.9070 H   0  0  0  0  0  0  0  0  0  0  0  0
  140.7123   75.2806  222.7958 H   0  0  0  0  0  0  0  0  0  0  0  0
  139.8790   77.5893  222.9883 H   0  0  0  0  0  0  0  0  0  0  0  0
  141.9622   78.6494  219.4252 H   0  0  0  0  0  0  0  0  0  0  0  0
  142.8043   76.3543  219.2206 H   0  0  0  0  0  0  0  0  0  0  0  0
  139.0877   69.2255  222.9790 H   0  0  0  0  0  0  0  0  0  0  0  0
  139.4222   68.1808  225.2171 H   0  0  0  0  0  0  0  0  0  0  0  0
  140.1141   68.3406  227.4895 H   0  0  0  0  0  0  0  0  0  0  0  0
  141.0424   69.7221  229.3437 H   0  0  0  0  0  0  0  0  0  0  0  0
  141.6326   72.1057  228.9662 H   0  0  0  0  0  0  0  0  0  0  0  0
  141.2970   73.1246  226.7391 H   0  0  0  0  0  0  0  0  0  0  0  0
  1  2  2  0
  2  3  1  0
  3  4  1  0
  4  5  1  0
  5  6  2  0
  5  7  1  0
  7  8  1  0
  8  9  1  0
  9 10  1  0
 10 11  1  0
 11 12  1  0
 12 13  1  0
 13 14  2  0
 14 15  1  0
 15 16  2  0
 16 17  1  0
 16 18  1  0
 18 19  2  0
  2 20  1  0
 20 21  2  0
 21 22  1  0
 22 23  2  0
 23 24  1  0
 24 25  2  0
 25 26  1  0
 26 27  2  0
 27 28  1  0
 28 29  2  0
 12  7  1  0
 19 13  1  0
 29 20  1  0
 28 23  1  0
  3 30  1  0
  4 31  1  0
  4 32  1  0
  8 33  1  0
  8 34  1  0
  9 35  1  0
  9 36  1  0
 10 37  1  0
 10 38  1  0
 11 39  1  0
 11 40  1  0
 12 41  1  1
 14 42  1  0
 15 43  1  0
 18 44  1  0
 19 45  1  0
 21 46  1  0
 22 47  1  0
 24 48  1  0
 25 49  1  0
 26 50  1  0
 27 51  1  0
M  END
>  <meeko>  (16) 
{"free_energy": -8.09, "intermolecular_energy": -9.58, "internal_energy": -2.05, "cluster_size": 15, "cluster_id": 1, "rank_in_cluster": 8}

$$$$

     RDKit          3D

 51 54  0  0  0  0  0  0  0  0999 V2000
  141.2870   72.2080  221.5470 O   0  0  0  0  0  0  0  0  0  0  0  0
  140.4320   72.4360  222.4430 C   0  0  0  0  0  0  0  0  0  0  0  0
  139.6190   73.6430  222.2980 N   0  0  0  0  0  0  0  0  0  0  0  0
  139.8870   74.4280  221.1560 C   0  0  0  0  0  0  0  0  0  0  0  0
  141.0030   75.3710  221.1460 C   0  0  0  0  0  0  0  0  0  0  0  0
  141.4350   75.6520  222.3490 O   0  0  0  0  0  0  0  0  0  0  0  0
  141.6690   76.0080  220.1100 N   0  0  0  0  0  0  0  0  0  0  0  0
  142.0390   75.4140  218.8320 C   0  0  0  0  0  0  0  0  0  0  0  0
  143.2210   76.2100  218.2400 C   0  0  0  0  0  0  0  0  0  0  0  0
  142.8810   77.6420  217.9880 C   0  0  0  0  0  0  0  0  0  0  0  0
  141.7320   78.0490  218.8740 C   0  0  0  0  0  0  0  0  0  0  0  0
  142.0220   77.4250  220.2590 C   0  0  1  0  0  0  0  0  0  0  0  0
  141.1820   78.1330  221.2650 C   0  0  0  0  0  0  0  0  0  0  0  0
  141.6910   78.6540  222.4360 C   0  0  0  0  0  0  0  0  0  0  0  0
  140.8990   79.3410  223.3440 C   0  0  0  0  0  0  0  0  0  0  0  0
  139.5560   79.5290  223.1060 C   0  0  0  0  0  0  0  0  0  0  0  0
  138.5030   80.3880  224.2140 Cl  0  0  0  0  0  0  0  0  0  0  0  0
  139.0320   79.0240  221.9560 C   0  0  0  0  0  0  0  0  0  0  0  0
  139.8160   78.3400  221.0500 C   0  0  0  0  0  0  0  0  0  0  0  0
  140.2270   71.5660  223.5880 C   0  0  0  0  0  0  0  0  0  0  0  0
  139.5210   70.4060  223.3850 C   0  0  0  0  0  0  0  0  0  0  0  0
  139.3040   69.5500  224.4480 C   0  0  0  0  0  0  0  0  0  0  0  0
  139.8050   69.8810  225.7060 C   0  0  0  0  0  0  0  0  0  0  0  0
  139.5720   69.0040  226.7540 C   0  0  0  0  0  0  0  0  0  0  0  0
  140.0740   69.3460  227.9920 C   0  0  0  0  0  0  0  0  0  0  0  0
  140.7870   70.5260  228.1760 C   0  0  0  0  0  0  0  0  0  0  0  0
  140.9980   71.3710  227.1090 C   0  0  0  0  0  0  0  0  0  0  0  0
  140.5110   71.0600  225.8680 C   0  0  0  0  0  0  0  0  0  0  0  0
  140.7160   71.8920  224.8060 N   0  0  0  0  0  0  0  0  0  0  0  0
  138.9550   73.7800  223.0680 H   0  0  0  0  0  0  0  0  0  0  0  0
  140.0601   73.7271  220.3261 H   0  0  0  0  0  0  0  0  0  0  0  0
  139.0079   75.0867  221.0986 H   0  0  0  0  0  0  0  0  0  0  0  0
  142.3373   74.3661  218.9834 H   0  0  0  0  0  0  0  0  0  0  0  0
  141.1828   75.4458  218.1421 H   0  0  0  0  0  0  0  0  0  0  0  0
  144.0633   76.1670  218.9461 H   0  0  0  0  0  0  0  0  0  0  0  0
  143.4783   75.7538  217.2727 H   0  0  0  0  0  0  0  0  0  0  0  0
  143.7557   78.2710  218.2098 H   0  0  0  0  0  0  0  0  0  0  0  0
  142.5945   77.7708  216.9338 H   0  0  0  0  0  0  0  0  0  0  0  0
  141.6786   79.1449  218.9518 H   0  0  0  0  0  0  0  0  0  0  0  0
  140.7688   77.7042  218.4697 H   0  0  0  0  0  0  0  0  0  0  0  0
  143.0648   77.5160  220.5972 H   0  0  0  0  0  0  0  0  0  0  0  0
  142.7602   78.5203  222.6572 H   0  0  0  0  0  0  0  0  0  0  0  0
  141.3490   79.7403  224.2649 H   0  0  0  0  0  0  0  0  0  0  0  0
  137.9616   79.1640  221.7445 H   0  0  0  0  0  0  0  0  0  0  0  0
  139.3535   77.9464  220.1328 H   0  0  0  0  0  0  0  0  0  0  0  0
  139.1319   70.1604  222.3859 H   0  0  0  0  0  0  0  0  0  0  0  0
  138.7412   68.6161  224.3028 H   0  0  0  0  0  0  0  0  0  0  0  0
  139.0085   68.0713  226.6039 H   0  0  0  0  0  0  0  0  0  0  0  0
  139.9079   68.6749  228.8476 H   0  0  0  0  0  0  0  0  0  0  0  0
  141.1810   70.7835  229.1702 H   0  0  0  0  0  0  0  0  0  0  0  0
  141.5626   72.3036  227.2553 H   0  0  0  0  0  0  0  0  0  0  0  0
  1  2  2  0
  2  3  1  0
  3  4  1  0
  4  5  1  0
  5  6  2  0
  5  7  1  0
  7  8  1  0
  8  9  1  0
  9 10  1  0
 10 11  1  0
 11 12  1  0
 12 13  1  0
 13 14  2  0
 14 15  1  0
 15 16  2  0
 16 17  1  0
 16 18  1  0
 18 19  2  0
  2 20  1  0
 20 21  2  0
 21 22  1  0
 22 23  2  0
 23 24  1  0
 24 25  2  0
 25 26  1  0
 26 27  2  0
 27 28  1  0
 28 29  2  0
 12  7  1  0
 19 13  1  0
 29 20  1  0
 28 23  1  0
  3 30  1  0
  4 31  1  0
  4 32  1  0
  8 33  1  0
  8 34  1  0
  9 35  1  0
  9 36  1  0
 10 37  1  0
 10 38  1  0
 11 39  1  0
 11 40  1  0
 12 41  1  1
 14 42  1  0
 15 43  1  0
 18 44  1  0
 19 45  1  0
 21 46  1  0
 22 47  1  0
 24 48  1  0
 25 49  1  0
 26 50  1  0
 27 51  1  0
M  END
>  <meeko>  (17) 
{"free_energy": -8.84, "intermolecular_energy": -10.33, "internal_energy": -1.3, "cluster_size": 15, "cluster_id": 1, "rank_in_cluster": 1}

$$$$

     RDKit          3D

 51 54  0  0  0  0  0  0  0  0999 V2000
  139.7530   71.0240  221.2290 O   0  0  0  0  0  0  0  0  0  0  0  0
  139.6050   71.6800  222.2950 C   0  0  0  0  0  0  0  0  0  0  0  0
  139.1810   73.0730  222.1670 N   0  0  0  0  0  0  0  0  0  0  0  0
  138.9820   73.5340  220.8480 C   0  0  0  0  0  0  0  0  0  0  0  0
  140.1170   73.7360  219.9500 C   0  0  0  0  0  0  0  0  0  0  0  0
  139.7860   74.3650  218.8520 O   0  0  0  0  0  0  0  0  0  0  0  0
  141.4540   73.3830  220.0540 N   0  0  0  0  0  0  0  0  0  0  0  0
  142.0930   72.2400  219.4170 C   0  0  0  0  0  0  0  0  0  0  0  0
  143.3620   71.8720  220.2170 C   0  0  0  0  0  0  0  0  0  0  0  0
  144.3590   72.9820  220.2520 C   0  0  0  0  0  0  0  0  0  0  0  0
  143.6590   74.2950  220.0150 C   0  0  0  0  0  0  0  0  0  0  0  0
  142.3530   74.2350  220.8420 C   0  0  1  0  0  0  0  0  0  0  0  0
  141.8480   75.6270  221.0010 C   0  0  0  0  0  0  0  0  0  0  0  0
  141.0400   76.0180  222.0480 C   0  0  0  0  0  0  0  0  0  0  0  0
  140.6080   77.3270  222.1990 C   0  0  0  0  0  0  0  0  0  0  0  0
  140.9740   78.2980  221.2930 C   0  0  0  0  0  0  0  0  0  0  0  0
  140.4610   79.9690  221.4280 Cl  0  0  0  0  0  0  0  0  0  0  0  0
  141.7710   77.9350  220.2510 C   0  0  0  0  0  0  0  0  0  0  0  0
  142.2040   76.6340  220.0980 C   0  0  0  0  0  0  0  0  0  0  0  0
  139.8350   71.1170  223.6140 C   0  0  0  0  0  0  0  0  0  0  0  0
  139.5160   69.7960  223.8040 C   0  0  0  0  0  0  0  0  0  0  0  0
  139.7190   69.2220  225.0450 C   0  0  0  0  0  0  0  0  0  0  0  0
  140.2430   69.9960  226.0790 C   0  0  0  0  0  0  0  0  0  0  0  0
  140.4360   69.3940  227.3140 C   0  0  0  0  0  0  0  0  0  0  0  0
  140.9550   70.1740  228.3260 C   0  0  0  0  0  0  0  0  0  0  0  0
  141.2720   71.5110  228.1110 C   0  0  0  0  0  0  0  0  0  0  0  0
  141.0650   72.0710  226.8710 C   0  0  0  0  0  0  0  0  0  0  0  0
  140.5510   71.3250  225.8460 C   0  0  0  0  0  0  0  0  0  0  0  0
  140.3440   71.8730  224.6140 N   0  0  0  0  0  0  0  0  0  0  0  0
  139.0960   73.5550  223.0690 H   0  0  0  0  0  0  0  0  0  0  0  0
  138.3186   72.8065  220.3575 H   0  0  0  0  0  0  0  0  0  0  0  0
  138.6037   74.5558  220.9994 H   0  0  0  0  0  0  0  0  0  0  0  0
  141.4001   71.3857  219.4088 H   0  0  0  0  0  0  0  0  0  0  0  0
  142.3632   72.4914  218.3808 H   0  0  0  0  0  0  0  0  0  0  0  0
  143.0697   71.6280  221.2490 H   0  0  0  0  0  0  0  0  0  0  0  0
  143.8350   71.0143  219.7164 H   0  0  0  0  0  0  0  0  0  0  0  0
  144.8513   73.0015  221.2355 H   0  0  0  0  0  0  0  0  0  0  0  0
  145.1128   72.8220  219.4671 H   0  0  0  0  0  0  0  0  0  0  0  0
  144.2885   75.1308  220.3542 H   0  0  0  0  0  0  0  0  0  0  0  0
  143.4532   74.4556  218.9464 H   0  0  0  0  0  0  0  0  0  0  0  0
  142.4657   73.8221  221.8553 H   0  0  0  0  0  0  0  0  0  0  0  0
  140.7278   75.2664  222.7880 H   0  0  0  0  0  0  0  0  0  0  0  0
  139.9660   77.5930  223.0517 H   0  0  0  0  0  0  0  0  0  0  0  0
  142.0761   78.6944  219.5160 H   0  0  0  0  0  0  0  0  0  0  0  0
  142.8471   76.3817  219.2420 H   0  0  0  0  0  0  0  0  0  0  0  0
  139.1029   69.1998  222.9770 H   0  0  0  0  0  0  0  0  0  0  0  0
  139.4693   68.1643  225.2150 H   0  0  0  0  0  0  0  0  0  0  0  0
  140.1849   68.3359  227.4795 H   0  0  0  0  0  0  0  0  0  0  0  0
  141.1209   69.7315  229.3193 H   0  0  0  0  0  0  0  0  0  0  0  0
  141.6866   72.1185  228.9289 H   0  0  0  0  0  0  0  0  0  0  0  0
  141.3153   73.1288  226.7025 H   0  0  0  0  0  0  0  0  0  0  0  0
  1  2  2  0
  2  3  1  0
  3  4  1  0
  4  5  1  0
  5  6  2  0
  5  7  1  0
  7  8  1  0
  8  9  1  0
  9 10  1  0
 10 11  1  0
 11 12  1  0
 12 13  1  0
 13 14  2  0
 14 15  1  0
 15 16  2  0
 16 17  1  0
 16 18  1  0
 18 19  2  0
  2 20  1  0
 20 21  2  0
 21 22  1  0
 22 23  2  0
 23 24  1  0
 24 25  2  0
 25 26  1  0
 26 27  2  0
 27 28  1  0
 28 29  2  0
 12  7  1  0
 19 13  1  0
 29 20  1  0
 28 23  1  0
  3 30  1  0
  4 31  1  0
  4 32  1  0
  8 33  1  0
  8 34  1  0
  9 35  1  0
  9 36  1  0
 10 37  1  0
 10 38  1  0
 11 39  1  0
 11 40  1  0
 12 41  1  1
 14 42  1  0
 15 43  1  0
 18 44  1  0
 19 45  1  0
 21 46  1  0
 22 47  1  0
 24 48  1  0
 25 49  1  0
 26 50  1  0
 27 51  1  0
M  END
>  <meeko>  (18) 
{"free_energy": -8.1, "intermolecular_energy": -9.59, "internal_energy": -2.05, "cluster_size": 15, "cluster_id": 1, "rank_in_cluster": 4}

$$$$

     RDKit          3D

 51 54  0  0  0  0  0  0  0  0999 V2000
  133.9640   69.6400  226.4960 O   0  0  0  0  0  0  0  0  0  0  0  0
  134.3200   70.7730  226.0760 C   0  0  0  0  0  0  0  0  0  0  0  0
  135.4630   70.8170  225.1650 N   0  0  0  0  0  0  0  0  0  0  0  0
  136.0470   69.5700  224.8540 C   0  0  0  0  0  0  0  0  0  0  0  0
  136.9080   69.4230  223.6830 C   0  0  0  0  0  0  0  0  0  0  0  0
  136.9190   68.2010  223.2160 O   0  0  0  0  0  0  0  0  0  0  0  0
  137.6990   70.3310  222.9940 N   0  0  0  0  0  0  0  0  0  0  0  0
  137.2350   71.3090  222.0190 C   0  0  0  0  0  0  0  0  0  0  0  0
  138.4130   71.6830  221.0940 C   0  0  0  0  0  0  0  0  0  0  0  0
  139.5530   72.2960  221.8370 C   0  0  0  0  0  0  0  0  0  0  0  0
  139.4980   71.8710  223.2820 C   0  0  0  0  0  0  0  0  0  0  0  0
  139.1400   70.3660  223.2690 C   0  0  1  0  0  0  0  0  0  0  0  0
  139.4940   69.8000  224.6000 C   0  0  0  0  0  0  0  0  0  0  0  0
  139.5410   68.4450  224.8510 C   0  0  0  0  0  0  0  0  0  0  0  0
  139.9080   67.9350  226.0880 C   0  0  0  0  0  0  0  0  0  0  0  0
  140.2420   68.7770  227.1250 C   0  0  0  0  0  0  0  0  0  0  0  0
  140.7140   68.1950  228.7110 Cl  0  0  0  0  0  0  0  0  0  0  0  0
  140.2030   70.1190  226.9000 C   0  0  0  0  0  0  0  0  0  0  0  0
  139.8400   70.6300  225.6710 C   0  0  0  0  0  0  0  0  0  0  0  0
  133.6530   72.0080  226.4520 C   0  0  0  0  0  0  0  0  0  0  0  0
  132.4800   71.9050  227.1560 C   0  0  0  0  0  0  0  0  0  0  0  0
  131.8140   73.0560  227.5340 C   0  0  0  0  0  0  0  0  0  0  0  0
  132.3470   74.2980  227.1920 C   0  0  0  0  0  0  0  0  0  0  0  0
  131.6580   75.4360  227.5840 C   0  0  0  0  0  0  0  0  0  0  0  0
  132.1990   76.6570  227.2370 C   0  0  0  0  0  0  0  0  0  0  0  0
  133.3900   76.7370  226.5240 C   0  0  0  0  0  0  0  0  0  0  0  0
  134.0440   75.5840  226.1540 C   0  0  0  0  0  0  0  0  0  0  0  0
  133.5330   74.3570  226.4810 C   0  0  0  0  0  0  0  0  0  0  0  0
  134.1760   73.2100  226.1180 N   0  0  0  0  0  0  0  0  0  0  0  0
  135.7120   71.7690  224.8730 H   0  0  0  0  0  0  0  0  0  0  0  0
  136.6502   69.2788  225.7265 H   0  0  0  0  0  0  0  0  0  0  0  0
  135.1767   68.9474  224.5992 H   0  0  0  0  0  0  0  0  0  0  0  0
  136.4181   70.8776  221.4219 H   0  0  0  0  0  0  0  0  0  0  0  0
  136.8646   72.2067  222.5357 H   0  0  0  0  0  0  0  0  0  0  0  0
  138.7693   70.7719  220.5911 H   0  0  0  0  0  0  0  0  0  0  0  0
  138.0466   72.4276  220.3719 H   0  0  0  0  0  0  0  0  0  0  0  0
  140.5022   71.9621  221.3925 H   0  0  0  0  0  0  0  0  0  0  0  0
  139.4842   73.3921  221.7745 H   0  0  0  0  0  0  0  0  0  0  0  0
  140.4742   72.0278  223.7642 H   0  0  0  0  0  0  0  0  0  0  0  0
  138.7581   72.4569  223.8470 H   0  0  0  0  0  0  0  0  0  0  0  0
  139.6785   69.7687  222.5184 H   0  0  0  0  0  0  0  0  0  0  0  0
  139.2788   67.7452  224.0438 H   0  0  0  0  0  0  0  0  0  0  0  0
  139.9324   66.8461  226.2420 H   0  0  0  0  0  0  0  0  0  0  0  0
  140.4662   70.8099  227.7145 H   0  0  0  0  0  0  0  0  0  0  0  0
  139.8222   71.7207  225.5296 H   0  0  0  0  0  0  0  0  0  0  0  0
  132.0736   70.9167  227.4170 H   0  0  0  0  0  0  0  0  0  0  0  0
  130.8725   72.9925  228.0992 H   0  0  0  0  0  0  0  0  0  0  0  0
  130.7169   75.3679  228.1495 H   0  0  0  0  0  0  0  0  0  0  0  0
  131.6798   77.5817  227.5291 H   0  0  0  0  0  0  0  0  0  0  0  0
  133.8081   77.7186  226.2565 H   0  0  0  0  0  0  0  0  0  0  0  0
  134.9863   75.6491  225.5902 H   0  0  0  0  0  0  0  0  0  0  0  0
  1  2  2  0
  2  3  1  0
  3  4  1  0
  4  5  1  0
  5  6  2  0
  5  7  1  0
  7  8  1  0
  8  9  1  0
  9 10  1  0
 10 11  1  0
 11 12  1  0
 12 13  1  0
 13 14  2  0
 14 15  1  0
 15 16  2  0
 16 17  1  0
 16 18  1  0
 18 19  2  0
  2 20  1  0
 20 21  2  0
 21 22  1  0
 22 23  2  0
 23 24  1  0
 24 25  2  0
 25 26  1  0
 26 27  2  0
 27 28  1  0
 28 29  2  0
 12  7  1  0
 19 13  1  0
 29 20  1  0
 28 23  1  0
  3 30  1  0
  4 31  1  0
  4 32  1  0
  8 33  1  0
  8 34  1  0
  9 35  1  0
  9 36  1  0
 10 37  1  0
 10 38  1  0
 11 39  1  0
 11 40  1  0
 12 41  1  6
 14 42  1  0
 15 43  1  0
 18 44  1  0
 19 45  1  0
 21 46  1  0
 22 47  1  0
 24 48  1  0
 25 49  1  0
 26 50  1  0
 27 51  1  0
M  END
>  <meeko>  (19) 
{"free_energy": -7.99, "intermolecular_energy": -9.48, "internal_energy": -1.68, "cluster_size": 1, "cluster_id": 4, "rank_in_cluster": 1}

$$$$

     RDKit          3D

 51 54  0  0  0  0  0  0  0  0999 V2000
  139.6440   71.0990  221.2410 O   0  0  0  0  0  0  0  0  0  0  0  0
  139.5970   71.7550  222.3150 C   0  0  0  0  0  0  0  0  0  0  0  0
  139.3210   73.1860  222.2110 N   0  0  0  0  0  0  0  0  0  0  0  0
  139.1350   73.6810  220.9020 C   0  0  0  0  0  0  0  0  0  0  0  0
  140.2300   73.6560  219.9340 C   0  0  0  0  0  0  0  0  0  0  0  0
  139.8360   73.9430  218.7200 O   0  0  0  0  0  0  0  0  0  0  0  0
  141.5830   73.3840  220.0730 N   0  0  0  0  0  0  0  0  0  0  0  0
  142.3010   72.2680  219.4720 C   0  0  0  0  0  0  0  0  0  0  0  0
  143.5710   71.9910  220.3050 C   0  0  0  0  0  0  0  0  0  0  0  0
  144.5010   73.1580  220.3380 C   0  0  0  0  0  0  0  0  0  0  0  0
  143.7310   74.4230  220.0600 C   0  0  0  0  0  0  0  0  0  0  0  0
  142.4130   74.3020  220.8610 C   0  0  1  0  0  0  0  0  0  0  0  0
  141.8240   75.6650  220.9810 C   0  0  0  0  0  0  0  0  0  0  0  0
  141.0110   76.0420  222.0290 C   0  0  0  0  0  0  0  0  0  0  0  0
  140.5000   77.3270  222.1420 C   0  0  0  0  0  0  0  0  0  0  0  0
  140.7900   78.2850  221.1980 C   0  0  0  0  0  0  0  0  0  0  0  0
  140.1760   79.9250  221.2840 Cl  0  0  0  0  0  0  0  0  0  0  0  0
  141.5910   77.9360  220.1540 C   0  0  0  0  0  0  0  0  0  0  0  0
  142.1020   76.6590  220.0380 C   0  0  0  0  0  0  0  0  0  0  0  0
  139.8030   71.1560  223.6230 C   0  0  0  0  0  0  0  0  0  0  0  0
  139.4920   69.8280  223.7680 C   0  0  0  0  0  0  0  0  0  0  0  0
  139.6720   69.2200  224.9960 C   0  0  0  0  0  0  0  0  0  0  0  0
  140.1660   69.9690  226.0630 C   0  0  0  0  0  0  0  0  0  0  0  0
  140.3380   69.3330  227.2840 C   0  0  0  0  0  0  0  0  0  0  0  0
  140.8270   70.0880  228.3300 C   0  0  0  0  0  0  0  0  0  0  0  0
  141.1370   71.4330  228.1600 C   0  0  0  0  0  0  0  0  0  0  0  0
  140.9530   72.0270  226.9320 C   0  0  0  0  0  0  0  0  0  0  0  0
  140.4670   71.3060  225.8750 C   0  0  0  0  0  0  0  0  0  0  0  0
  140.2830   71.8880  224.6550 N   0  0  0  0  0  0  0  0  0  0  0  0
  139.3130   73.6650  223.1190 H   0  0  0  0  0  0  0  0  0  0  0  0
  138.3114   73.1008  220.4603 H   0  0  0  0  0  0  0  0  0  0  0  0
  138.9762   74.7570  221.0661 H   0  0  0  0  0  0  0  0  0  0  0  0
  141.6593   71.3746  219.4670 H   0  0  0  0  0  0  0  0  0  0  0  0
  142.5781   72.5145  218.4364 H   0  0  0  0  0  0  0  0  0  0  0  0
  143.2710   71.7502  221.3355 H   0  0  0  0  0  0  0  0  0  0  0  0
  144.1040   71.1532  219.8317 H   0  0  0  0  0  0  0  0  0  0  0  0
  144.9699   73.2250  221.3308 H   0  0  0  0  0  0  0  0  0  0  0  0
  145.2798   73.0275  219.5722 H   0  0  0  0  0  0  0  0  0  0  0  0
  144.3032   75.3007  220.3951 H   0  0  0  0  0  0  0  0  0  0  0  0
  143.5395   74.5510  218.9844 H   0  0  0  0  0  0  0  0  0  0  0  0
  142.5277   73.9159  221.8846 H   0  0  0  0  0  0  0  0  0  0  0  0
  140.7593   75.2997  222.8007 H   0  0  0  0  0  0  0  0  0  0  0  0
  139.8557   77.5828  222.9961 H   0  0  0  0  0  0  0  0  0  0  0  0
  141.8358   78.6864  219.3879 H   0  0  0  0  0  0  0  0  0  0  0  0
  142.7459   76.4167  219.1797 H   0  0  0  0  0  0  0  0  0  0  0  0
  139.1031   69.2524  222.9151 H   0  0  0  0  0  0  0  0  0  0  0  0
  139.4279   68.1558  225.1301 H   0  0  0  0  0  0  0  0  0  0  0  0
  140.0940   68.2682  227.4130 H   0  0  0  0  0  0  0  0  0  0  0  0
  140.9740   69.6187  229.3140 H   0  0  0  0  0  0  0  0  0  0  0  0
  141.5279   72.0202  229.0040 H   0  0  0  0  0  0  0  0  0  0  0  0
  141.1988   73.0909  226.7989 H   0  0  0  0  0  0  0  0  0  0  0  0
  1  2  2  0
  2  3  1  0
  3  4  1  0
  4  5  1  0
  5  6  2  0
  5  7  1  0
  7  8  1  0
  8  9  1  0
  9 10  1  0
 10 11  1  0
 11 12  1  0
 12 13  1  0
 13 14  2  0
 14 15  1  0
 15 16  2  0
 16 17  1  0
 16 18  1  0
 18 19  2  0
  2 20  1  0
 20 21  2  0
 21 22  1  0
 22 23  2  0
 23 24  1  0
 24 25  2  0
 25 26  1  0
 26 27  2  0
 27 28  1  0
 28 29  2  0
 12  7  1  0
 19 13  1  0
 29 20  1  0
 28 23  1  0
  3 30  1  0
  4 31  1  0
  4 32  1  0
  8 33  1  0
  8 34  1  0
  9 35  1  0
  9 36  1  0
 10 37  1  0
 10 38  1  0
 11 39  1  0
 11 40  1  0
 12 41  1  1
 14 42  1  0
 15 43  1  0
 18 44  1  0
 19 45  1  0
 21 46  1  0
 22 47  1  0
 24 48  1  0
 25 49  1  0
 26 50  1  0
 27 51  1  0
M  END
>  <meeko>  (20) 
{"free_energy": -8.07, "intermolecular_energy": -9.56, "internal_energy": -2.02, "cluster_size": 15, "cluster_id": 1, "rank_in_cluster": 12}

$$$$
