
     RDKit          3D

 54 57  0  0  0  0  0  0  0  0999 V2000
  140.3520   71.6510  221.1360 O   0  0  0  0  0  0  0  0  0  0  0  0
  139.7860   72.0700  222.1990 C   0  0  0  0  0  0  0  0  0  0  0  0
  139.0420   73.2860  222.1820 N   0  0  0  0  0  0  0  0  0  0  0  0
  138.9120   74.0580  220.9870 C   0  0  0  0  0  0  0  0  0  0  0  0
  138.6770   75.4980  221.2470 C   0  0  0  0  0  0  0  0  0  0  0  0
  137.4810   75.8700  221.3630 O   0  0  0  0  0  0  0  0  0  0  0  0
  139.7870   76.3910  221.3540 N   0  0  0  0  0  0  0  0  0  0  0  0
  140.0180   77.0990  222.5950 C   0  0  0  0  0  0  0  0  0  0  0  0
  140.7750   78.3740  222.4430 C   0  0  0  0  0  0  0  0  0  0  0  0
  141.7900   78.3270  221.3180 C   0  0  0  0  0  0  0  0  0  0  0  0
  141.0270   77.9750  220.0870 C   0  0  0  0  0  0  0  0  0  0  0  0
  140.6230   76.5300  220.1810 C   0  0  1  0  0  0  0  0  0  0  0  0
  141.8140   75.6450  220.1810 C   0  0  0  0  0  0  0  0  0  0  0  0
  141.8770   74.4530  220.8700 C   0  0  0  0  0  0  0  0  0  0  0  0
  142.9980   73.6330  220.8520 C   0  0  0  0  0  0  0  0  0  0  0  0
  144.1130   73.9900  220.1290 C   0  0  0  0  0  0  0  0  0  0  0  0
  145.3430   73.1670  220.0640 C   0  0  0  0  0  0  0  0  0  0  0  0
  145.0690   71.8190  220.1560 F   0  0  0  0  0  0  0  0  0  0  0  0
  146.2420   73.5850  221.0370 F   0  0  0  0  0  0  0  0  0  0  0  0
  145.9290   73.3740  218.8260 F   0  0  0  0  0  0  0  0  0  0  0  0
  144.0760   75.1740  219.4320 C   0  0  0  0  0  0  0  0  0  0  0  0
  142.9590   75.9840  219.4550 C   0  0  0  0  0  0  0  0  0  0  0  0
  139.8980   71.3060  223.4400 C   0  0  0  0  0  0  0  0  0  0  0  0
  139.5120   69.9810  223.4580 C   0  0  0  0  0  0  0  0  0  0  0  0
  139.6270   69.2720  224.6500 C   0  0  0  0  0  0  0  0  0  0  0  0
  140.1210   69.8970  225.7940 C   0  0  0  0  0  0  0  0  0  0  0  0
  140.2620   69.2730  226.9940 C   0  0  0  0  0  0  0  0  0  0  0  0
  140.7570   69.9400  228.0990 C   0  0  0  0  0  0  0  0  0  0  0  0
  141.1270   71.2800  228.0090 C   0  0  0  0  0  0  0  0  0  0  0  0
  140.9890   71.9290  226.7960 C   0  0  0  0  0  0  0  0  0  0  0  0
  140.4910   71.2290  225.7160 C   0  0  0  0  0  0  0  0  0  0  0  0
  140.3720   71.8950  224.5530 N   0  0  0  0  0  0  0  0  0  0  0  0
  138.6030   73.5750  223.0850 H   0  0  0  0  0  0  0  0  0  0  0  0
  139.8373   73.9546  220.4012 H   0  0  0  0  0  0  0  0  0  0  0  0
  138.0352   73.6758  220.4437 H   0  0  0  0  0  0  0  0  0  0  0  0
  139.0419   77.3298  223.0466 H   0  0  0  0  0  0  0  0  0  0  0  0
  140.6350   76.4397  223.2232 H   0  0  0  0  0  0  0  0  0  0  0  0
  140.0601   79.1842  222.2370 H   0  0  0  0  0  0  0  0  0  0  0  0
  141.3274   78.5435  223.3790 H   0  0  0  0  0  0  0  0  0  0  0  0
  142.2743   79.3075  221.1996 H   0  0  0  0  0  0  0  0  0  0  0  0
  142.5831   77.5928  221.5228 H   0  0  0  0  0  0  0  0  0  0  0  0
  140.1306   78.6079  220.0110 H   0  0  0  0  0  0  0  0  0  0  0  0
  141.6495   78.1379  219.1949 H   0  0  0  0  0  0  0  0  0  0  0  0
  140.0426   76.2141  219.3016 H   0  0  0  0  0  0  0  0  0  0  0  0
  141.0029   74.1378  221.4588 H   0  0  0  0  0  0  0  0  0  0  0  0
  142.9944   72.6910  221.4201 H   0  0  0  0  0  0  0  0  0  0  0  0
  144.9536   75.4818  218.8446 H   0  0  0  0  0  0  0  0  0  0  0  0
  142.9702   76.9246  218.8848 H   0  0  0  0  0  0  0  0  0  0  0  0
  139.1223   69.4964  222.5507 H   0  0  0  0  0  0  0  0  0  0  0  0
  139.3270   68.2145  224.6896 H   0  0  0  0  0  0  0  0  0  0  0  0
  139.9760   68.2149  227.0874 H   0  0  0  0  0  0  0  0  0  0  0  0
  140.8595   69.4086  229.0567 H   0  0  0  0  0  0  0  0  0  0  0  0
  141.5218   71.8121  228.8871 H   0  0  0  0  0  0  0  0  0  0  0  0
  141.2718   72.9871  226.6934 H   0  0  0  0  0  0  0  0  0  0  0  0
  1  2  2  0
  2  3  1  0
  3  4  1  0
  4  5  1  0
  5  6  2  0
  5  7  1  0
  7  8  1  0
  8  9  1  0
  9 10  1  0
 10 11  1  0
 11 12  1  0
 12 13  1  0
 13 14  2  0
 14 15  1  0
 15 16  2  0
 16 17  1  0
 17 18  1  0
 17 19  1  0
 17 20  1  0
 16 21  1  0
 21 22  2  0
  2 23  1  0
 23 24  2  0
 24 25  1  0
 25 26  2  0
 26 27  1  0
 27 28  2  0
 28 29  1  0
 29 30  2  0
 30 31  1  0
 31 32  2  0
 12  7  1  0
 22 13  1  0
 32 23  1  0
 31 26  1  0
  3 33  1  0
  4 34  1  0
  4 35  1  0
  8 36  1  0
  8 37  1  0
  9 38  1  0
  9 39  1  0
 10 40  1  0
 10 41  1  0
 11 42  1  0
 11 43  1  0
 12 44  1  6
 14 45  1  0
 15 46  1  0
 21 47  1  0
 22 48  1  0
 24 49  1  0
 25 50  1  0
 27 51  1  0
 28 52  1  0
 29 53  1  0
 30 54  1  0
M  END
>  <meeko>  (1) 
{"free_energy": -8.49, "intermolecular_energy": -10.28, "internal_energy": -1.71, "cluster_size": 7, "cluster_id": 1, "rank_in_cluster": 4}

$$$$

     RDKit          3D

 54 57  0  0  0  0  0  0  0  0999 V2000
  137.7950   70.3210  222.0640 O   0  0  0  0  0  0  0  0  0  0  0  0
  138.5130   70.8880  222.9520 C   0  0  0  0  0  0  0  0  0  0  0  0
  138.8730   72.2610  222.8130 N   0  0  0  0  0  0  0  0  0  0  0  0
  138.4440   73.0290  221.6870 C   0  0  0  0  0  0  0  0  0  0  0  0
  138.4050   74.4860  221.9560 C   0  0  0  0  0  0  0  0  0  0  0  0
  139.4980   75.0470  222.2210 O   0  0  0  0  0  0  0  0  0  0  0  0
  137.1600   75.1830  221.9070 N   0  0  0  0  0  0  0  0  0  0  0  0
  136.3830   75.1740  220.6870 C   0  0  0  0  0  0  0  0  0  0  0  0
  135.4660   76.3400  220.5330 C   0  0  0  0  0  0  0  0  0  0  0  0
  134.9200   76.8390  221.8560 C   0  0  0  0  0  0  0  0  0  0  0  0
  136.1050   77.1620  222.6980 C   0  0  0  0  0  0  0  0  0  0  0  0
  136.7530   75.8710  223.1140 C   0  0  1  0  0  0  0  0  0  0  0  0
  135.8480   75.0800  223.9840 C   0  0  0  0  0  0  0  0  0  0  0  0
  135.1120   75.6250  225.0140 C   0  0  0  0  0  0  0  0  0  0  0  0
  134.2640   74.8700  225.8140 C   0  0  0  0  0  0  0  0  0  0  0  0
  134.1240   73.5180  225.6000 C   0  0  0  0  0  0  0  0  0  0  0  0
  133.2390   72.6500  226.4120 C   0  0  0  0  0  0  0  0  0  0  0  0
  132.4980   71.7910  225.6300 F   0  0  0  0  0  0  0  0  0  0  0  0
  132.4370   73.4320  227.2340 F   0  0  0  0  0  0  0  0  0  0  0  0
  134.0410   71.8650  227.2230 F   0  0  0  0  0  0  0  0  0  0  0  0
  134.8460   72.9490  224.5790 C   0  0  0  0  0  0  0  0  0  0  0  0
  135.6870   73.7060  223.7890 C   0  0  0  0  0  0  0  0  0  0  0  0
  138.9700   70.1340  224.1170 C   0  0  0  0  0  0  0  0  0  0  0  0
  138.7670   68.7690  224.1640 C   0  0  0  0  0  0  0  0  0  0  0  0
  139.2110   68.0700  225.2830 C   0  0  0  0  0  0  0  0  0  0  0  0
  139.8440   68.7430  226.3260 C   0  0  0  0  0  0  0  0  0  0  0  0
  140.3050   68.1320  227.4500 C   0  0  0  0  0  0  0  0  0  0  0  0
  140.9260   68.8480  228.4560 C   0  0  0  0  0  0  0  0  0  0  0  0
  141.0980   70.2260  228.3430 C   0  0  0  0  0  0  0  0  0  0  0  0
  140.6350   70.8620  227.2060 C   0  0  0  0  0  0  0  0  0  0  0  0
  140.0200   70.1140  226.2230 C   0  0  0  0  0  0  0  0  0  0  0  0
  139.5830   70.7690  225.1330 N   0  0  0  0  0  0  0  0  0  0  0  0
  139.4620   72.6660  223.5740 H   0  0  0  0  0  0  0  0  0  0  0  0
  139.1381   72.8456  220.8536 H   0  0  0  0  0  0  0  0  0  0  0  0
  137.4181   72.7129  221.4468 H   0  0  0  0  0  0  0  0  0  0  0  0
  137.0793   75.1689  219.8355 H   0  0  0  0  0  0  0  0  0  0  0  0
  135.7473   74.2772  220.7258 H   0  0  0  0  0  0  0  0  0  0  0  0
  136.0181   77.1594  220.0496 H   0  0  0  0  0  0  0  0  0  0  0  0
  134.6103   76.0094  219.9261 H   0  0  0  0  0  0  0  0  0  0  0  0
  134.3060   77.7383  221.7005 H   0  0  0  0  0  0  0  0  0  0  0  0
  134.2802   76.0841  222.3364 H   0  0  0  0  0  0  0  0  0  0  0  0
  136.8186   77.7672  222.1197 H   0  0  0  0  0  0  0  0  0  0  0  0
  135.7956   77.7344  223.5850 H   0  0  0  0  0  0  0  0  0  0  0  0
  137.6468   76.0469  223.7305 H   0  0  0  0  0  0  0  0  0  0  0  0
  135.1999   76.7037  225.2108 H   0  0  0  0  0  0  0  0  0  0  0  0
  133.7006   75.3561  226.6241 H   0  0  0  0  0  0  0  0  0  0  0  0
  134.7520   71.8699  224.3876 H   0  0  0  0  0  0  0  0  0  0  0  0
  136.2476   73.2126  222.9813 H   0  0  0  0  0  0  0  0  0  0  0  0
  138.2659   68.2459  223.3362 H   0  0  0  0  0  0  0  0  0  0  0  0
  139.0615   66.9819  225.3441 H   0  0  0  0  0  0  0  0  0  0  0  0
  140.1810   67.0447  227.5609 H   0  0  0  0  0  0  0  0  0  0  0  0
  141.2876   68.3253  229.3538 H   0  0  0  0  0  0  0  0  0  0  0  0
  141.5925   70.7968  229.1428 H   0  0  0  0  0  0  0  0  0  0  0  0
  140.7552   71.9489  227.0867 H   0  0  0  0  0  0  0  0  0  0  0  0
  1  2  2  0
  2  3  1  0
  3  4  1  0
  4  5  1  0
  5  6  2  0
  5  7  1  0
  7  8  1  0
  8  9  1  0
  9 10  1  0
 10 11  1  0
 11 12  1  0
 12 13  1  0
 13 14  2  0
 14 15  1  0
 15 16  2  0
 16 17  1  0
 17 18  1  0
 17 19  1  0
 17 20  1  0
 16 21  1  0
 21 22  2  0
  2 23  1  0
 23 24  2  0
 24 25  1  0
 25 26  2  0
 26 27  1  0
 27 28  2  0
 28 29  1  0
 29 30  2  0
 30 31  1  0
 31 32  2  0
 12  7  1  0
 22 13  1  0
 32 23  1  0
 31 26  1  0
  3 33  1  0
  4 34  1  0
  4 35  1  0
  8 36  1  0
  8 37  1  0
  9 38  1  0
  9 39  1  0
 10 40  1  0
 10 41  1  0
 11 42  1  0
 11 43  1  0
 12 44  1  1
 14 45  1  0
 15 46  1  0
 21 47  1  0
 22 48  1  0
 24 49  1  0
 25 50  1  0
 27 51  1  0
 28 52  1  0
 29 53  1  0
 30 54  1  0
M  END
>  <meeko>  (2) 
{"free_energy": -7.31, "intermolecular_energy": -9.1, "internal_energy": -2.12, "cluster_size": 1, "cluster_id": 5, "rank_in_cluster": 1}

$$$$

     RDKit          3D

 54 57  0  0  0  0  0  0  0  0999 V2000
  138.4900   70.6670  221.7020 O   0  0  0  0  0  0  0  0  0  0  0  0
  138.9910   71.2260  222.7330 C   0  0  0  0  0  0  0  0  0  0  0  0
  139.2750   72.6240  222.7210 N   0  0  0  0  0  0  0  0  0  0  0  0
  139.0090   73.4250  221.5690 C   0  0  0  0  0  0  0  0  0  0  0  0
  139.9980   74.5110  221.3740 C   0  0  0  0  0  0  0  0  0  0  0  0
  141.0680   74.4330  222.0290 O   0  0  0  0  0  0  0  0  0  0  0  0
  139.7090   75.5810  220.4730 N   0  0  0  0  0  0  0  0  0  0  0  0
  138.3390   75.8330  220.0780 C   0  0  0  0  0  0  0  0  0  0  0  0
  138.1960   76.5220  218.7640 C   0  0  0  0  0  0  0  0  0  0  0  0
  139.3290   77.4870  218.4770 C   0  0  0  0  0  0  0  0  0  0  0  0
  140.5830   76.6890  218.5600 C   0  0  0  0  0  0  0  0  0  0  0  0
  140.8360   76.3580  220.0040 C   0  0  1  0  0  0  0  0  0  0  0  0
  141.0910   77.5880  220.7930 C   0  0  0  0  0  0  0  0  0  0  0  0
  141.5930   78.7520  220.2500 C   0  0  0  0  0  0  0  0  0  0  0  0
  141.8180   79.8970  221.0030 C   0  0  0  0  0  0  0  0  0  0  0  0
  141.5410   79.9110  222.3510 C   0  0  0  0  0  0  0  0  0  0  0  0
  141.7570   81.0940  223.2160 C   0  0  0  0  0  0  0  0  0  0  0  0
  140.7970   81.1980  224.2000 F   0  0  0  0  0  0  0  0  0  0  0  0
  141.8310   82.2420  222.4360 F   0  0  0  0  0  0  0  0  0  0  0  0
  142.9730   80.9370  223.8580 F   0  0  0  0  0  0  0  0  0  0  0  0
  141.0400   78.7640  222.9180 C   0  0  0  0  0  0  0  0  0  0  0  0
  140.8190   77.6300  222.1630 C   0  0  0  0  0  0  0  0  0  0  0  0
  139.2760   70.4390  223.9300 C   0  0  0  0  0  0  0  0  0  0  0  0
  138.9210   69.1050  223.9650 C   0  0  0  0  0  0  0  0  0  0  0  0
  139.2030   68.3730  225.1150 C   0  0  0  0  0  0  0  0  0  0  0  0
  139.8280   68.9840  226.2000 C   0  0  0  0  0  0  0  0  0  0  0  0
  140.1360   68.3370  227.3570 C   0  0  0  0  0  0  0  0  0  0  0  0
  140.7570   68.9910  228.4040 C   0  0  0  0  0  0  0  0  0  0  0  0
  141.0880   70.3400  228.3000 C   0  0  0  0  0  0  0  0  0  0  0  0
  140.7820   71.0120  227.1300 C   0  0  0  0  0  0  0  0  0  0  0  0
  140.1610   70.3260  226.1070 C   0  0  0  0  0  0  0  0  0  0  0  0
  139.8800   71.0130  224.9860 N   0  0  0  0  0  0  0  0  0  0  0  0
  139.6840   73.0220  223.5970 H   0  0  0  0  0  0  0  0  0  0  0  0
  139.0223   72.7760  220.6809 H   0  0  0  0  0  0  0  0  0  0  0  0
  138.0276   73.8987  221.7189 H   0  0  0  0  0  0  0  0  0  0  0  0
  137.8143   74.8680  220.0198 H   0  0  0  0  0  0  0  0  0  0  0  0
  137.9119   76.5071  220.8351 H   0  0  0  0  0  0  0  0  0  0  0  0
  138.1732   75.7614  217.9697 H   0  0  0  0  0  0  0  0  0  0  0  0
  137.2651   77.1070  218.7979 H   0  0  0  0  0  0  0  0  0  0  0  0
  139.2172   77.9186  217.4714 H   0  0  0  0  0  0  0  0  0  0  0  0
  139.3363   78.3221  219.1930 H   0  0  0  0  0  0  0  0  0  0  0  0
  140.4728   75.7613  217.9794 H   0  0  0  0  0  0  0  0  0  0  0  0
  141.4262   77.2636  218.1492 H   0  0  0  0  0  0  0  0  0  0  0  0
  141.7479   75.7553  220.1273 H   0  0  0  0  0  0  0  0  0  0  0  0
  141.8250   78.7745  219.1750 H   0  0  0  0  0  0  0  0  0  0  0  0
  142.2204   80.7990  220.5187 H   0  0  0  0  0  0  0  0  0  0  0  0
  140.8108   78.7493  223.9938 H   0  0  0  0  0  0  0  0  0  0  0  0
  140.4165   76.7320  222.6546 H   0  0  0  0  0  0  0  0  0  0  0  0
  138.4267   68.6316  223.1039 H   0  0  0  0  0  0  0  0  0  0  0  0
  138.9314   67.3083  225.1673 H   0  0  0  0  0  0  0  0  0  0  0  0
  139.8853   67.2710  227.4609 H   0  0  0  0  0  0  0  0  0  0  0  0
  140.9920   68.4415  229.3275 H   0  0  0  0  0  0  0  0  0  0  0  0
  141.5834   70.8612  229.1324 H   0  0  0  0  0  0  0  0  0  0  0  0
  141.0303   72.0777  227.0172 H   0  0  0  0  0  0  0  0  0  0  0  0
  1  2  2  0
  2  3  1  0
  3  4  1  0
  4  5  1  0
  5  6  2  0
  5  7  1  0
  7  8  1  0
  8  9  1  0
  9 10  1  0
 10 11  1  0
 11 12  1  0
 12 13  1  0
 13 14  2  0
 14 15  1  0
 15 16  2  0
 16 17  1  0
 17 18  1  0
 17 19  1  0
 17 20  1  0
 16 21  1  0
 21 22  2  0
  2 23  1  0
 23 24  2  0
 24 25  1  0
 25 26  2  0
 26 27  1  0
 27 28  2  0
 28 29  1  0
 29 30  2  0
 30 31  1  0
 31 32  2  0
 12  7  1  0
 22 13  1  0
 32 23  1  0
 31 26  1  0
  3 33  1  0
  4 34  1  0
  4 35  1  0
  8 36  1  0
  8 37  1  0
  9 38  1  0
  9 39  1  0
 10 40  1  0
 10 41  1  0
 11 42  1  0
 11 43  1  0
 12 44  1  6
 14 45  1  0
 15 46  1  0
 21 47  1  0
 22 48  1  0
 24 49  1  0
 25 50  1  0
 27 51  1  0
 28 52  1  0
 29 53  1  0
 30 54  1  0
M  END
>  <meeko>  (3) 
{"free_energy": -8.13, "intermolecular_energy": -9.92, "internal_energy": -1.9, "cluster_size": 6, "cluster_id": 2, "rank_in_cluster": 5}

$$$$

     RDKit          3D

 54 57  0  0  0  0  0  0  0  0999 V2000
  138.1720   70.3330  221.9130 O   0  0  0  0  0  0  0  0  0  0  0  0
  138.7560   70.8500  222.9210 C   0  0  0  0  0  0  0  0  0  0  0  0
  139.0440   72.2470  222.9420 N   0  0  0  0  0  0  0  0  0  0  0  0
  138.6910   73.0930  221.8470 C   0  0  0  0  0  0  0  0  0  0  0  0
  139.4290   74.3780  221.8420 C   0  0  0  0  0  0  0  0  0  0  0  0
  140.6780   74.3180  221.9730 O   0  0  0  0  0  0  0  0  0  0  0  0
  138.7170   75.6060  221.6910 N   0  0  0  0  0  0  0  0  0  0  0  0
  137.5240   75.8410  222.4750 C   0  0  0  0  0  0  0  0  0  0  0  0
  136.5680   76.8090  221.8650 C   0  0  0  0  0  0  0  0  0  0  0  0
  137.2590   77.8970  221.0680 C   0  0  0  0  0  0  0  0  0  0  0  0
  138.0840   77.1980  220.0430 C   0  0  0  0  0  0  0  0  0  0  0  0
  139.2510   76.5540  220.7370 C   0  0  1  0  0  0  0  0  0  0  0  0
  140.1420   77.5770  221.3370 C   0  0  0  0  0  0  0  0  0  0  0  0
  141.0190   78.3480  220.6050 C   0  0  0  0  0  0  0  0  0  0  0  0
  141.8400   79.3070  221.1830 C   0  0  0  0  0  0  0  0  0  0  0  0
  141.8070   79.5280  222.5410 C   0  0  0  0  0  0  0  0  0  0  0  0
  142.6530   80.5320  223.2260 C   0  0  0  0  0  0  0  0  0  0  0  0
  143.9560   80.5030  222.7780 F   0  0  0  0  0  0  0  0  0  0  0  0
  142.5690   80.3590  224.6030 F   0  0  0  0  0  0  0  0  0  0  0  0
  142.1530   81.7880  222.9240 F   0  0  0  0  0  0  0  0  0  0  0  0
  140.9400   78.7730  223.2950 C   0  0  0  0  0  0  0  0  0  0  0  0
  140.1270   77.8220  222.7130 C   0  0  0  0  0  0  0  0  0  0  0  0
  139.1330   70.0150  224.0590 C   0  0  0  0  0  0  0  0  0  0  0  0
  138.8660   68.6610  224.0260 C   0  0  0  0  0  0  0  0  0  0  0  0
  139.2340   67.8840  225.1210 C   0  0  0  0  0  0  0  0  0  0  0  0
  139.8560   68.4710  226.2200 C   0  0  0  0  0  0  0  0  0  0  0  0
  140.2450   67.7800  227.3260 C   0  0  0  0  0  0  0  0  0  0  0  0
  140.8600   68.4120  228.3900 C   0  0  0  0  0  0  0  0  0  0  0  0
  141.0990   69.7840  228.3570 C   0  0  0  0  0  0  0  0  0  0  0  0
  140.7100   70.5010  227.2400 C   0  0  0  0  0  0  0  0  0  0  0  0
  140.0990   69.8350  226.1980 C   0  0  0  0  0  0  0  0  0  0  0  0
  139.7350   70.5660  225.1290 N   0  0  0  0  0  0  0  0  0  0  0  0
  139.5240   72.6090  223.7970 H   0  0  0  0  0  0  0  0  0  0  0  0
  138.9089   72.5608  220.9093 H   0  0  0  0  0  0  0  0  0  0  0  0
  137.6216   73.3300  221.9479 H   0  0  0  0  0  0  0  0  0  0  0  0
  137.0042   74.8806  222.6071 H   0  0  0  0  0  0  0  0  0  0  0  0
  137.8550   76.2832  223.4263 H   0  0  0  0  0  0  0  0  0  0  0  0
  135.8912   76.2589  221.1947 H   0  0  0  0  0  0  0  0  0  0  0  0
  136.0229   77.2970  222.6864 H   0  0  0  0  0  0  0  0  0  0  0  0
  136.5149   78.5452  220.5819 H   0  0  0  0  0  0  0  0  0  0  0  0
  137.8782   78.5367  221.7141 H   0  0  0  0  0  0  0  0  0  0  0  0
  137.4795   76.4289  219.5400 H   0  0  0  0  0  0  0  0  0  0  0  0
  138.4398   77.9153  219.2888 H   0  0  0  0  0  0  0  0  0  0  0  0
  139.8923   76.0091  220.0286 H   0  0  0  0  0  0  0  0  0  0  0  0
  141.0707   78.1972  219.5166 H   0  0  0  0  0  0  0  0  0  0  0  0
  142.5219   79.8946  220.5508 H   0  0  0  0  0  0  0  0  0  0  0  0
  140.8935   78.9300  224.3827 H   0  0  0  0  0  0  0  0  0  0  0  0
  139.4466   77.2391  223.3512 H   0  0  0  0  0  0  0  0  0  0  0  0
  138.3734   68.2061  223.1539 H   0  0  0  0  0  0  0  0  0  0  0  0
  139.0327   66.8026  225.1181 H   0  0  0  0  0  0  0  0  0  0  0  0
  140.0661   66.6957  227.3741 H   0  0  0  0  0  0  0  0  0  0  0  0
  141.1634   67.8267  229.2705 H   0  0  0  0  0  0  0  0  0  0  0  0
  141.5881   70.2879  229.2037 H   0  0  0  0  0  0  0  0  0  0  0  0
  140.8852   71.5855  227.1835 H   0  0  0  0  0  0  0  0  0  0  0  0
  1  2  2  0
  2  3  1  0
  3  4  1  0
  4  5  1  0
  5  6  2  0
  5  7  1  0
  7  8  1  0
  8  9  1  0
  9 10  1  0
 10 11  1  0
 11 12  1  0
 12 13  1  0
 13 14  2  0
 14 15  1  0
 15 16  2  0
 16 17  1  0
 17 18  1  0
 17 19  1  0
 17 20  1  0
 16 21  1  0
 21 22  2  0
  2 23  1  0
 23 24  2  0
 24 25  1  0
 25 26  2  0
 26 27  1  0
 27 28  2  0
 28 29  1  0
 29 30  2  0
 30 31  1  0
 31 32  2  0
 12  7  1  0
 22 13  1  0
 32 23  1  0
 31 26  1  0
  3 33  1  0
  4 34  1  0
  4 35  1  0
  8 36  1  0
  8 37  1  0
  9 38  1  0
  9 39  1  0
 10 40  1  0
 10 41  1  0
 11 42  1  0
 11 43  1  0
 12 44  1  6
 14 45  1  0
 15 46  1  0
 21 47  1  0
 22 48  1  0
 24 49  1  0
 25 50  1  0
 27 51  1  0
 28 52  1  0
 29 53  1  0
 30 54  1  0
M  END
>  <meeko>  (4) 
{"free_energy": -8.34, "intermolecular_energy": -10.13, "internal_energy": -1.79, "cluster_size": 6, "cluster_id": 2, "rank_in_cluster": 2}

$$$$

     RDKit          3D

 54 57  0  0  0  0  0  0  0  0999 V2000
  137.2650   76.1180  222.3650 O   0  0  0  0  0  0  0  0  0  0  0  0
  138.5280   76.2790  222.4260 C   0  0  0  0  0  0  0  0  0  0  0  0
  139.4020   75.1700  222.2220 N   0  0  0  0  0  0  0  0  0  0  0  0
  138.8910   73.8650  221.9480 C   0  0  0  0  0  0  0  0  0  0  0  0
  139.8760   72.7880  222.2030 C   0  0  0  0  0  0  0  0  0  0  0  0
  141.0780   73.1330  222.3330 O   0  0  0  0  0  0  0  0  0  0  0  0
  139.4380   71.4310  222.2900 N   0  0  0  0  0  0  0  0  0  0  0  0
  139.9260   70.4600  221.3350 C   0  0  0  0  0  0  0  0  0  0  0  0
  139.0220   69.2920  221.1300 C   0  0  0  0  0  0  0  0  0  0  0  0
  138.2630   68.9070  222.3850 C   0  0  0  0  0  0  0  0  0  0  0  0
  137.5200   70.1270  222.8090 C   0  0  0  0  0  0  0  0  0  0  0  0
  138.5110   71.1150  223.3550 C   0  0  1  0  0  0  0  0  0  0  0  0
  139.1590   70.5930  224.5840 C   0  0  0  0  0  0  0  0  0  0  0  0
  140.3550   71.0700  225.0750 C   0  0  0  0  0  0  0  0  0  0  0  0
  140.9440   70.5740  226.2320 C   0  0  0  0  0  0  0  0  0  0  0  0
  140.3380   69.5650  226.9460 C   0  0  0  0  0  0  0  0  0  0  0  0
  140.9070   68.9880  228.1860 C   0  0  0  0  0  0  0  0  0  0  0  0
  141.8080   69.8390  228.7870 F   0  0  0  0  0  0  0  0  0  0  0  0
  141.4630   67.7440  227.9150 F   0  0  0  0  0  0  0  0  0  0  0  0
  139.8690   68.8030  229.0840 F   0  0  0  0  0  0  0  0  0  0  0  0
  139.1440   69.0720  226.4780 C   0  0  0  0  0  0  0  0  0  0  0  0
  138.5660   69.5690  225.3270 C   0  0  0  0  0  0  0  0  0  0  0  0
  139.0870   77.6000  222.7050 C   0  0  0  0  0  0  0  0  0  0  0  0
  138.2360   78.6680  222.9070 C   0  0  0  0  0  0  0  0  0  0  0  0
  138.7900   79.9170  223.1720 C   0  0  0  0  0  0  0  0  0  0  0  0
  140.1730   80.0740  223.2290 C   0  0  0  0  0  0  0  0  0  0  0  0
  140.7890   81.2610  223.4810 C   0  0  0  0  0  0  0  0  0  0  0  0
  142.1660   81.3620  223.5270 C   0  0  0  0  0  0  0  0  0  0  0  0
  142.9660   80.2410  223.3130 C   0  0  0  0  0  0  0  0  0  0  0  0
  142.3550   79.0270  223.0540 C   0  0  0  0  0  0  0  0  0  0  0  0
  140.9780   78.9660  223.0180 C   0  0  0  0  0  0  0  0  0  0  0  0
  140.4210   77.7680  222.7630 N   0  0  0  0  0  0  0  0  0  0  0  0
  140.4260   75.3680  222.2850 H   0  0  0  0  0  0  0  0  0  0  0  0
  138.0115   73.6928  222.5858 H   0  0  0  0  0  0  0  0  0  0  0  0
  138.6381   73.8306  220.8780 H   0  0  0  0  0  0  0  0  0  0  0  0
  140.0599   70.9658  220.3674 H   0  0  0  0  0  0  0  0  0  0  0  0
  140.8666   70.0620  221.7436 H   0  0  0  0  0  0  0  0  0  0  0  0
  138.2954   69.5441  220.3436 H   0  0  0  0  0  0  0  0  0  0  0  0
  139.6496   68.4340  220.8470 H   0  0  0  0  0  0  0  0  0  0  0  0
  137.5610   68.0878  222.1704 H   0  0  0  0  0  0  0  0  0  0  0  0
  138.9437   68.5562  223.1747 H   0  0  0  0  0  0  0  0  0  0  0  0
  136.9968   70.5632  221.9453 H   0  0  0  0  0  0  0  0  0  0  0  0
  136.7765   69.8706  223.5781 H   0  0  0  0  0  0  0  0  0  0  0  0
  138.0196   72.0459  223.6745 H   0  0  0  0  0  0  0  0  0  0  0  0
  140.8648   71.8770  224.5284 H   0  0  0  0  0  0  0  0  0  0  0  0
  141.9009   70.9905  226.5796 H   0  0  0  0  0  0  0  0  0  0  0  0
  138.6391   68.2661  227.0308 H   0  0  0  0  0  0  0  0  0  0  0  0
  137.6100   69.1462  224.9846 H   0  0  0  0  0  0  0  0  0  0  0  0
  137.1451   78.5350  222.8596 H   0  0  0  0  0  0  0  0  0  0  0  0
  138.1331   80.7837  223.3371 H   0  0  0  0  0  0  0  0  0  0  0  0
  140.1774   82.1592  223.6517 H   0  0  0  0  0  0  0  0  0  0  0  0
  142.6349   82.3352  223.7342 H   0  0  0  0  0  0  0  0  0  0  0  0
  144.0626   80.3200  223.3493 H   0  0  0  0  0  0  0  0  0  0  0  0
  142.9586   78.1241  222.8794 H   0  0  0  0  0  0  0  0  0  0  0  0
  1  2  2  0
  2  3  1  0
  3  4  1  0
  4  5  1  0
  5  6  2  0
  5  7  1  0
  7  8  1  0
  8  9  1  0
  9 10  1  0
 10 11  1  0
 11 12  1  0
 12 13  1  0
 13 14  2  0
 14 15  1  0
 15 16  2  0
 16 17  1  0
 17 18  1  0
 17 19  1  0
 17 20  1  0
 16 21  1  0
 21 22  2  0
  2 23  1  0
 23 24  2  0
 24 25  1  0
 25 26  2  0
 26 27  1  0
 27 28  2  0
 28 29  1  0
 29 30  2  0
 30 31  1  0
 31 32  2  0
 12  7  1  0
 22 13  1  0
 32 23  1  0
 31 26  1  0
  3 33  1  0
  4 34  1  0
  4 35  1  0
  8 36  1  0
  8 37  1  0
  9 38  1  0
  9 39  1  0
 10 40  1  0
 10 41  1  0
 11 42  1  0
 11 43  1  0
 12 44  1  1
 14 45  1  0
 15 46  1  0
 21 47  1  0
 22 48  1  0
 24 49  1  0
 25 50  1  0
 27 51  1  0
 28 52  1  0
 29 53  1  0
 30 54  1  0
M  END
>  <meeko>  (5) 
{"free_energy": -8.27, "intermolecular_energy": -10.06, "internal_energy": -2.06, "cluster_size": 5, "cluster_id": 3, "rank_in_cluster": 2}

$$$$

     RDKit          3D

 54 57  0  0  0  0  0  0  0  0999 V2000
  140.0230   71.5230  221.2980 O   0  0  0  0  0  0  0  0  0  0  0  0
  139.8680   72.0830  222.4320 C   0  0  0  0  0  0  0  0  0  0  0  0
  139.6160   73.4850  222.5100 N   0  0  0  0  0  0  0  0  0  0  0  0
  139.5320   74.2890  221.3320 C   0  0  0  0  0  0  0  0  0  0  0  0
  139.5260   75.7430  221.6180 C   0  0  0  0  0  0  0  0  0  0  0  0
  138.6550   76.1630  222.4220 O   0  0  0  0  0  0  0  0  0  0  0  0
  140.4840   76.5940  220.9880 N   0  0  0  0  0  0  0  0  0  0  0  0
  141.0350   77.7150  221.7190 C   0  0  0  0  0  0  0  0  0  0  0  0
  141.5280   78.8280  220.8580 C   0  0  0  0  0  0  0  0  0  0  0  0
  142.0940   78.3440  219.5370 C   0  0  0  0  0  0  0  0  0  0  0  0
  141.0070   77.5650  218.8820 C   0  0  0  0  0  0  0  0  0  0  0  0
  140.8450   76.2680  219.6250 C   0  0  1  0  0  0  0  0  0  0  0  0
  142.0650   75.4330  219.5070 C   0  0  0  0  0  0  0  0  0  0  0  0
  142.6920   75.1640  218.3090 C   0  0  0  0  0  0  0  0  0  0  0  0
  143.8380   74.3860  218.2180 C   0  0  0  0  0  0  0  0  0  0  0  0
  144.4030   73.8410  219.3480 C   0  0  0  0  0  0  0  0  0  0  0  0
  145.6230   73.0010  219.3280 C   0  0  0  0  0  0  0  0  0  0  0  0
  145.4170   71.7750  219.9220 F   0  0  0  0  0  0  0  0  0  0  0  0
  146.6810   73.6920  219.9080 F   0  0  0  0  0  0  0  0  0  0  0  0
  145.9500   72.7570  218.0050 F   0  0  0  0  0  0  0  0  0  0  0  0
  143.7980   74.0930  220.5560 C   0  0  0  0  0  0  0  0  0  0  0  0
  142.6590   74.8680  220.6380 C   0  0  0  0  0  0  0  0  0  0  0  0
  139.9480   71.2930  223.6590 C   0  0  0  0  0  0  0  0  0  0  0  0
  139.5730   69.9640  223.6360 C   0  0  0  0  0  0  0  0  0  0  0  0
  139.6570   69.2300  224.8150 C   0  0  0  0  0  0  0  0  0  0  0  0
  140.1110   69.8320  225.9860 C   0  0  0  0  0  0  0  0  0  0  0  0
  140.2220   69.1820  227.1760 C   0  0  0  0  0  0  0  0  0  0  0  0
  140.6780   69.8280  228.3100 C   0  0  0  0  0  0  0  0  0  0  0  0
  141.0410   71.1720  228.2610 C   0  0  0  0  0  0  0  0  0  0  0  0
  140.9340   71.8480  227.0590 C   0  0  0  0  0  0  0  0  0  0  0  0
  140.4740   71.1690  225.9490 C   0  0  0  0  0  0  0  0  0  0  0  0
  140.3850   71.8590  224.7980 N   0  0  0  0  0  0  0  0  0  0  0  0
  139.4980   73.8830  223.4690 H   0  0  0  0  0  0  0  0  0  0  0  0
  140.3968   74.0621  220.6912 H   0  0  0  0  0  0  0  0  0  0  0  0
  138.5786   74.0485  220.8388 H   0  0  0  0  0  0  0  0  0  0  0  0
  140.2517   78.1128  222.3809 H   0  0  0  0  0  0  0  0  0  0  0  0
  141.9075   77.3331  222.2694 H   0  0  0  0  0  0  0  0  0  0  0  0
  140.6902   79.5105  220.6522 H   0  0  0  0  0  0  0  0  0  0  0  0
  142.3411   79.3314  221.4016 H   0  0  0  0  0  0  0  0  0  0  0  0
  142.3821   79.1998  218.9088 H   0  0  0  0  0  0  0  0  0  0  0  0
  142.9942   77.7298  219.6867 H   0  0  0  0  0  0  0  0  0  0  0  0
  140.0668   78.1348  218.9182 H   0  0  0  0  0  0  0  0  0  0  0  0
  141.2602   77.3707  217.8293 H   0  0  0  0  0  0  0  0  0  0  0  0
  140.0441   75.6506  219.1921 H   0  0  0  0  0  0  0  0  0  0  0  0
  142.2659   75.5838  217.3858 H   0  0  0  0  0  0  0  0  0  0  0  0
  144.2977   74.2039  217.2354 H   0  0  0  0  0  0  0  0  0  0  0  0
  144.2297   73.6691  221.4747 H   0  0  0  0  0  0  0  0  0  0  0  0
  142.2051   75.0462  221.6240 H   0  0  0  0  0  0  0  0  0  0  0  0
  139.2160   69.4963  222.7066 H   0  0  0  0  0  0  0  0  0  0  0  0
  139.3636   68.1699  224.8223 H   0  0  0  0  0  0  0  0  0  0  0  0
  139.9430   68.1197  227.2372 H   0  0  0  0  0  0  0  0  0  0  0  0
  140.7548   69.2763  229.2586 H   0  0  0  0  0  0  0  0  0  0  0  0
  141.4062   71.6865  229.1621 H   0  0  0  0  0  0  0  0  0  0  0  0
  141.2112   72.9102  226.9889 H   0  0  0  0  0  0  0  0  0  0  0  0
  1  2  2  0
  2  3  1  0
  3  4  1  0
  4  5  1  0
  5  6  2  0
  5  7  1  0
  7  8  1  0
  8  9  1  0
  9 10  1  0
 10 11  1  0
 11 12  1  0
 12 13  1  0
 13 14  2  0
 14 15  1  0
 15 16  2  0
 16 17  1  0
 17 18  1  0
 17 19  1  0
 17 20  1  0
 16 21  1  0
 21 22  2  0
  2 23  1  0
 23 24  2  0
 24 25  1  0
 25 26  2  0
 26 27  1  0
 27 28  2  0
 28 29  1  0
 29 30  2  0
 30 31  1  0
 31 32  2  0
 12  7  1  0
 22 13  1  0
 32 23  1  0
 31 26  1  0
  3 33  1  0
  4 34  1  0
  4 35  1  0
  8 36  1  0
  8 37  1  0
  9 38  1  0
  9 39  1  0
 10 40  1  0
 10 41  1  0
 11 42  1  0
 11 43  1  0
 12 44  1  6
 14 45  1  0
 15 46  1  0
 21 47  1  0
 22 48  1  0
 24 49  1  0
 25 50  1  0
 27 51  1  0
 28 52  1  0
 29 53  1  0
 30 54  1  0
M  END
>  <meeko>  (6) 
{"free_energy": -7.95, "intermolecular_energy": -9.74, "internal_energy": -1.93, "cluster_size": 7, "cluster_id": 1, "rank_in_cluster": 7}

$$$$

     RDKit          3D

 54 57  0  0  0  0  0  0  0  0999 V2000
  140.8120   72.1030  221.3800 O   0  0  0  0  0  0  0  0  0  0  0  0
  139.9740   72.2880  222.3230 C   0  0  0  0  0  0  0  0  0  0  0  0
  139.0280   73.3520  222.2410 N   0  0  0  0  0  0  0  0  0  0  0  0
  138.9940   74.2280  221.1150 C   0  0  0  0  0  0  0  0  0  0  0  0
  138.7780   75.6470  221.4860 C   0  0  0  0  0  0  0  0  0  0  0  0
  137.6110   75.9790  221.8150 O   0  0  0  0  0  0  0  0  0  0  0  0
  139.8730   76.5630  221.4560 N   0  0  0  0  0  0  0  0  0  0  0  0
  140.2520   77.2620  222.6650 C   0  0  0  0  0  0  0  0  0  0  0  0
  140.9550   78.5560  222.4310 C   0  0  0  0  0  0  0  0  0  0  0  0
  141.8120   78.5440  221.1810 C   0  0  0  0  0  0  0  0  0  0  0  0
  140.9000   78.1880  220.0580 C   0  0  0  0  0  0  0  0  0  0  0  0
  140.5430   76.7340  220.1850 C   0  0  1  0  0  0  0  0  0  0  0  0
  141.7410   75.8760  220.0150 C   0  0  0  0  0  0  0  0  0  0  0  0
  142.6140   75.9880  218.9530 C   0  0  0  0  0  0  0  0  0  0  0  0
  143.7360   75.1810  218.8140 C   0  0  0  0  0  0  0  0  0  0  0  0
  144.0240   74.2180  219.7540 C   0  0  0  0  0  0  0  0  0  0  0  0
  145.2000   73.3220  219.6710 C   0  0  0  0  0  0  0  0  0  0  0  0
  146.1400   73.6110  220.6370 F   0  0  0  0  0  0  0  0  0  0  0  0
  145.7370   73.3650  218.3900 F   0  0  0  0  0  0  0  0  0  0  0  0
  144.7670   72.0270  219.9070 F   0  0  0  0  0  0  0  0  0  0  0  0
  143.1700   74.0850  220.8230 C   0  0  0  0  0  0  0  0  0  0  0  0
  142.0570   74.8910  220.9540 C   0  0  0  0  0  0  0  0  0  0  0  0
  139.9790   71.4110  223.4920 C   0  0  0  0  0  0  0  0  0  0  0  0
  139.5040   70.1200  223.3740 C   0  0  0  0  0  0  0  0  0  0  0  0
  139.5180   69.3020  224.5000 C   0  0  0  0  0  0  0  0  0  0  0  0
  140.0030   69.7850  225.7130 C   0  0  0  0  0  0  0  0  0  0  0  0
  140.0500   69.0490  226.8560 C   0  0  0  0  0  0  0  0  0  0  0  0
  140.5410   69.5780  228.0340 C   0  0  0  0  0  0  0  0  0  0  0  0
  141.0060   70.8900  228.0820 C   0  0  0  0  0  0  0  0  0  0  0  0
  140.9650   71.6530  226.9290 C   0  0  0  0  0  0  0  0  0  0  0  0
  140.4680   71.0900  225.7720 C   0  0  0  0  0  0  0  0  0  0  0  0
  140.4450   71.8630  224.6710 N   0  0  0  0  0  0  0  0  0  0  0  0
  138.3690   73.4500  223.0470 H   0  0  0  0  0  0  0  0  0  0  0  0
  139.9522   74.1482  220.5808 H   0  0  0  0  0  0  0  0  0  0  0  0
  138.1445   73.9210  220.4873 H   0  0  0  0  0  0  0  0  0  0  0  0
  139.3401   77.4654  223.2455 H   0  0  0  0  0  0  0  0  0  0  0  0
  140.9608   76.6101  223.1967 H   0  0  0  0  0  0  0  0  0  0  0  0
  140.2020   79.3518  222.3326 H   0  0  0  0  0  0  0  0  0  0  0  0
  141.6232   78.7283  223.2877 H   0  0  0  0  0  0  0  0  0  0  0  0
  142.2555   79.5365  221.0127 H   0  0  0  0  0  0  0  0  0  0  0  0
  142.6406   77.8259  221.2688 H   0  0  0  0  0  0  0  0  0  0  0  0
  139.9882   78.8011  220.1103 H   0  0  0  0  0  0  0  0  0  0  0  0
  141.3947   78.3746  219.0934 H   0  0  0  0  0  0  0  0  0  0  0  0
  139.8579   76.4150  219.3857 H   0  0  0  0  0  0  0  0  0  0  0  0
  142.4133   76.7483  218.1838 H   0  0  0  0  0  0  0  0  0  0  0  0
  144.3991   75.3126  217.9463 H   0  0  0  0  0  0  0  0  0  0  0  0
  143.3773   73.3223  221.5880 H   0  0  0  0  0  0  0  0  0  0  0  0
  141.3987   74.7535  221.8245 H   0  0  0  0  0  0  0  0  0  0  0  0
  139.1232   69.7464  222.4120 H   0  0  0  0  0  0  0  0  0  0  0  0
  139.1444   68.2696  224.4316 H   0  0  0  0  0  0  0  0  0  0  0  0
  139.6892   68.0100  226.8420 H   0  0  0  0  0  0  0  0  0  0  0  0
  140.5649   68.9576  228.9420 H   0  0  0  0  0  0  0  0  0  0  0  0
  141.3985   71.3115  229.0192 H   0  0  0  0  0  0  0  0  0  0  0  0
  141.3233   72.6930  226.9347 H   0  0  0  0  0  0  0  0  0  0  0  0
  1  2  2  0
  2  3  1  0
  3  4  1  0
  4  5  1  0
  5  6  2  0
  5  7  1  0
  7  8  1  0
  8  9  1  0
  9 10  1  0
 10 11  1  0
 11 12  1  0
 12 13  1  0
 13 14  2  0
 14 15  1  0
 15 16  2  0
 16 17  1  0
 17 18  1  0
 17 19  1  0
 17 20  1  0
 16 21  1  0
 21 22  2  0
  2 23  1  0
 23 24  2  0
 24 25  1  0
 25 26  2  0
 26 27  1  0
 27 28  2  0
 28 29  1  0
 29 30  2  0
 30 31  1  0
 31 32  2  0
 12  7  1  0
 22 13  1  0
 32 23  1  0
 31 26  1  0
  3 33  1  0
  4 34  1  0
  4 35  1  0
  8 36  1  0
  8 37  1  0
  9 38  1  0
  9 39  1  0
 10 40  1  0
 10 41  1  0
 11 42  1  0
 11 43  1  0
 12 44  1  6
 14 45  1  0
 15 46  1  0
 21 47  1  0
 22 48  1  0
 24 49  1  0
 25 50  1  0
 27 51  1  0
 28 52  1  0
 29 53  1  0
 30 54  1  0
M  END
>  <meeko>  (7) 
{"free_energy": -8.42, "intermolecular_energy": -10.21, "internal_energy": -1.8, "cluster_size": 7, "cluster_id": 1, "rank_in_cluster": 5}

$$$$

     RDKit          3D

 54 57  0  0  0  0  0  0  0  0999 V2000
  140.4200   71.6860  221.2050 O   0  0  0  0  0  0  0  0  0  0  0  0
  139.7840   72.0720  222.2410 C   0  0  0  0  0  0  0  0  0  0  0  0
  138.9860   73.2520  222.1920 N   0  0  0  0  0  0  0  0  0  0  0  0
  138.8780   74.0250  220.9960 C   0  0  0  0  0  0  0  0  0  0  0  0
  138.6100   75.4600  221.2520 C   0  0  0  0  0  0  0  0  0  0  0  0
  137.4050   75.8140  221.3140 O   0  0  0  0  0  0  0  0  0  0  0  0
  139.7000   76.3680  221.4140 N   0  0  0  0  0  0  0  0  0  0  0  0
  139.8820   77.0480  222.6780 C   0  0  0  0  0  0  0  0  0  0  0  0
  140.6210   78.3400  222.5810 C   0  0  0  0  0  0  0  0  0  0  0  0
  141.6700   78.3370  221.4860 C   0  0  0  0  0  0  0  0  0  0  0  0
  140.9500   78.0040  220.2250 C   0  0  0  0  0  0  0  0  0  0  0  0
  140.5690   76.5510  220.2710 C   0  0  1  0  0  0  0  0  0  0  0  0
  141.7740   75.6860  220.2860 C   0  0  0  0  0  0  0  0  0  0  0  0
  141.8020   74.4270  220.8480 C   0  0  0  0  0  0  0  0  0  0  0  0
  142.9380   73.6280  220.8450 C   0  0  0  0  0  0  0  0  0  0  0  0
  144.1050   74.0740  220.2680 C   0  0  0  0  0  0  0  0  0  0  0  0
  145.3530   73.2790  220.2290 C   0  0  0  0  0  0  0  0  0  0  0  0
  146.0780   73.5090  219.0800 F   0  0  0  0  0  0  0  0  0  0  0  0
  145.0590   71.9310  220.4000 F   0  0  0  0  0  0  0  0  0  0  0  0
  146.1470   73.6790  221.2910 F   0  0  0  0  0  0  0  0  0  0  0  0
  144.1040   75.3260  219.7010 C   0  0  0  0  0  0  0  0  0  0  0  0
  142.9720   76.1150  219.7070 C   0  0  0  0  0  0  0  0  0  0  0  0
  139.8710   71.3060  223.4820 C   0  0  0  0  0  0  0  0  0  0  0  0
  139.4510   69.9910  223.4990 C   0  0  0  0  0  0  0  0  0  0  0  0
  139.5430   69.2800  224.6930 C   0  0  0  0  0  0  0  0  0  0  0  0
  140.0480   69.8920  225.8370 C   0  0  0  0  0  0  0  0  0  0  0  0
  140.1680   69.2660  227.0390 C   0  0  0  0  0  0  0  0  0  0  0  0
  140.6770   69.9200  228.1450 C   0  0  0  0  0  0  0  0  0  0  0  0
  141.0830   71.2500  228.0560 C   0  0  0  0  0  0  0  0  0  0  0  0
  140.9660   71.9020  226.8420 C   0  0  0  0  0  0  0  0  0  0  0  0
  140.4540   71.2150  225.7610 C   0  0  0  0  0  0  0  0  0  0  0  0
  140.3570   71.8830  224.5970 N   0  0  0  0  0  0  0  0  0  0  0  0
  138.4900   73.5140  223.0740 H   0  0  0  0  0  0  0  0  0  0  0  0
  139.8220   73.9396  220.4378 H   0  0  0  0  0  0  0  0  0  0  0  0
  138.0245   73.6291  220.4261 H   0  0  0  0  0  0  0  0  0  0  0  0
  138.8891   77.2507  223.1059 H   0  0  0  0  0  0  0  0  0  0  0  0
  140.4922   76.3835  223.3073 H   0  0  0  0  0  0  0  0  0  0  0  0
  139.8986   79.1432  222.3733 H   0  0  0  0  0  0  0  0  0  0  0  0
  141.1415   78.4961  223.5374 H   0  0  0  0  0  0  0  0  0  0  0  0
  142.1414   79.3277  221.4062 H   0  0  0  0  0  0  0  0  0  0  0  0
  142.4687   77.6105  221.6966 H   0  0  0  0  0  0  0  0  0  0  0  0
  140.0452   78.6235  220.1382 H   0  0  0  0  0  0  0  0  0  0  0  0
  141.5954   78.2001  219.3561 H   0  0  0  0  0  0  0  0  0  0  0  0
  140.0215   76.2484  219.3662 H   0  0  0  0  0  0  0  0  0  0  0  0
  140.8863   74.0394  221.3184 H   0  0  0  0  0  0  0  0  0  0  0  0
  142.9046   72.6306  221.3076 H   0  0  0  0  0  0  0  0  0  0  0  0
  145.0239   75.7066  219.2331 H   0  0  0  0  0  0  0  0  0  0  0  0
  143.0134   77.1112  219.2424 H   0  0  0  0  0  0  0  0  0  0  0  0
  139.0529   69.5157  222.5904 H   0  0  0  0  0  0  0  0  0  0  0  0
  139.2153   68.2307  224.7323 H   0  0  0  0  0  0  0  0  0  0  0  0
  139.8530   68.2162  227.1326 H   0  0  0  0  0  0  0  0  0  0  0  0
  140.7623   69.3864  229.1031 H   0  0  0  0  0  0  0  0  0  0  0  0
  141.4891   71.7717  228.9352 H   0  0  0  0  0  0  0  0  0  0  0  0
  141.2765   72.9523  226.7400 H   0  0  0  0  0  0  0  0  0  0  0  0
  1  2  2  0
  2  3  1  0
  3  4  1  0
  4  5  1  0
  5  6  2  0
  5  7  1  0
  7  8  1  0
  8  9  1  0
  9 10  1  0
 10 11  1  0
 11 12  1  0
 12 13  1  0
 13 14  2  0
 14 15  1  0
 15 16  2  0
 16 17  1  0
 17 18  1  0
 17 19  1  0
 17 20  1  0
 16 21  1  0
 21 22  2  0
  2 23  1  0
 23 24  2  0
 24 25  1  0
 25 26  2  0
 26 27  1  0
 27 28  2  0
 28 29  1  0
 29 30  2  0
 30 31  1  0
 31 32  2  0
 12  7  1  0
 22 13  1  0
 32 23  1  0
 31 26  1  0
  3 33  1  0
  4 34  1  0
  4 35  1  0
  8 36  1  0
  8 37  1  0
  9 38  1  0
  9 39  1  0
 10 40  1  0
 10 41  1  0
 11 42  1  0
 11 43  1  0
 12 44  1  6
 14 45  1  0
 15 46  1  0
 21 47  1  0
 22 48  1  0
 24 49  1  0
 25 50  1  0
 27 51  1  0
 28 52  1  0
 29 53  1  0
 30 54  1  0
M  END
>  <meeko>  (8) 
{"free_energy": -8.59, "intermolecular_energy": -10.38, "internal_energy": -1.63, "cluster_size": 7, "cluster_id": 1, "rank_in_cluster": 1}

$$$$

     RDKit          3D

 54 57  0  0  0  0  0  0  0  0999 V2000
  141.1160   72.2400  221.7170 O   0  0  0  0  0  0  0  0  0  0  0  0
  140.1560   72.3450  222.5490 C   0  0  0  0  0  0  0  0  0  0  0  0
  139.1400   73.3260  222.3490 N   0  0  0  0  0  0  0  0  0  0  0  0
  139.1690   74.2050  221.2240 C   0  0  0  0  0  0  0  0  0  0  0  0
  138.9640   75.6270  221.5900 C   0  0  0  0  0  0  0  0  0  0  0  0
  137.8500   75.9320  222.0880 O   0  0  0  0  0  0  0  0  0  0  0  0
  140.0090   76.5750  221.3710 N   0  0  0  0  0  0  0  0  0  0  0  0
  140.4240   77.4440  222.4510 C   0  0  0  0  0  0  0  0  0  0  0  0
  141.0480   78.7230  222.0060 C   0  0  0  0  0  0  0  0  0  0  0  0
  141.8290   78.5790  220.7150 C   0  0  0  0  0  0  0  0  0  0  0  0
  140.8720   78.0390  219.7090 C   0  0  0  0  0  0  0  0  0  0  0  0
  140.5940   76.6020  220.0480 C   0  0  1  0  0  0  0  0  0  0  0  0
  141.8210   75.7790  219.9140 C   0  0  0  0  0  0  0  0  0  0  0  0
  142.6440   75.8120  218.8090 C   0  0  0  0  0  0  0  0  0  0  0  0
  143.7940   75.0390  218.7040 C   0  0  0  0  0  0  0  0  0  0  0  0
  144.1620   74.1930  219.7250 C   0  0  0  0  0  0  0  0  0  0  0  0
  145.3720   73.3400  219.6830 C   0  0  0  0  0  0  0  0  0  0  0  0
  145.0860   72.0210  219.9600 F   0  0  0  0  0  0  0  0  0  0  0  0
  146.3410   73.8550  220.5350 F   0  0  0  0  0  0  0  0  0  0  0  0
  145.8760   73.3800  218.3930 F   0  0  0  0  0  0  0  0  0  0  0  0
  143.3590   74.1410  220.8390 C   0  0  0  0  0  0  0  0  0  0  0  0
  142.2180   74.9110  220.9360 C   0  0  0  0  0  0  0  0  0  0  0  0
  140.0920   71.4630  223.7120 C   0  0  0  0  0  0  0  0  0  0  0  0
  139.5570   70.1980  223.5750 C   0  0  0  0  0  0  0  0  0  0  0  0
  139.5060   69.3730  224.6950 C   0  0  0  0  0  0  0  0  0  0  0  0
  139.9880   69.8250  225.9220 C   0  0  0  0  0  0  0  0  0  0  0  0
  139.9720   69.0800  227.0600 C   0  0  0  0  0  0  0  0  0  0  0  0
  140.4630   69.5780  228.2520 C   0  0  0  0  0  0  0  0  0  0  0  0
  140.9900   70.8660  228.3190 C   0  0  0  0  0  0  0  0  0  0  0  0
  141.0130   71.6360  227.1710 C   0  0  0  0  0  0  0  0  0  0  0  0
  140.5140   71.1040  225.9990 C   0  0  0  0  0  0  0  0  0  0  0  0
  140.5530   71.8840  224.9040 N   0  0  0  0  0  0  0  0  0  0  0  0
  138.3800   73.3610  223.0670 H   0  0  0  0  0  0  0  0  0  0  0  0
  140.1469   74.1085  220.7297 H   0  0  0  0  0  0  0  0  0  0  0  0
  138.3410   73.9150  220.5605 H   0  0  0  0  0  0  0  0  0  0  0  0
  139.5389   77.6856  223.0579 H   0  0  0  0  0  0  0  0  0  0  0  0
  141.1943   76.8981  223.0155 H   0  0  0  0  0  0  0  0  0  0  0  0
  140.2527   79.4676  221.8542 H   0  0  0  0  0  0  0  0  0  0  0  0
  141.7562   79.0349  222.7878 H   0  0  0  0  0  0  0  0  0  0  0  0
  142.2123   79.5575  220.3900 H   0  0  0  0  0  0  0  0  0  0  0  0
  142.6952   77.9131  220.8424 H   0  0  0  0  0  0  0  0  0  0  0  0
  139.9360   78.6161  219.7385 H   0  0  0  0  0  0  0  0  0  0  0  0
  141.3006   78.1145  218.6987 H   0  0  0  0  0  0  0  0  0  0  0  0
  139.8790   76.1514  219.3440 H   0  0  0  0  0  0  0  0  0  0  0  0
  142.3793   76.4784  217.9749 H   0  0  0  0  0  0  0  0  0  0  0  0
  144.4147   75.1039  217.7981 H   0  0  0  0  0  0  0  0  0  0  0  0
  143.6310   73.4727  221.6693 H   0  0  0  0  0  0  0  0  0  0  0  0
  141.6022   74.8399  221.8447 H   0  0  0  0  0  0  0  0  0  0  0  0
  139.1794   69.8496  222.6024 H   0  0  0  0  0  0  0  0  0  0  0  0
  139.0837   68.3607  224.6113 H   0  0  0  0  0  0  0  0  0  0  0  0
  139.5599   68.0605  227.0309 H   0  0  0  0  0  0  0  0  0  0  0  0
  140.4375   68.9518  229.1560 H   0  0  0  0  0  0  0  0  0  0  0  0
  141.3805   71.2629  229.2677 H   0  0  0  0  0  0  0  0  0  0  0  0
  141.4225   72.6567  227.1912 H   0  0  0  0  0  0  0  0  0  0  0  0
  1  2  2  0
  2  3  1  0
  3  4  1  0
  4  5  1  0
  5  6  2  0
  5  7  1  0
  7  8  1  0
  8  9  1  0
  9 10  1  0
 10 11  1  0
 11 12  1  0
 12 13  1  0
 13 14  2  0
 14 15  1  0
 15 16  2  0
 16 17  1  0
 17 18  1  0
 17 19  1  0
 17 20  1  0
 16 21  1  0
 21 22  2  0
  2 23  1  0
 23 24  2  0
 24 25  1  0
 25 26  2  0
 26 27  1  0
 27 28  2  0
 28 29  1  0
 29 30  2  0
 30 31  1  0
 31 32  2  0
 12  7  1  0
 22 13  1  0
 32 23  1  0
 31 26  1  0
  3 33  1  0
  4 34  1  0
  4 35  1  0
  8 36  1  0
  8 37  1  0
  9 38  1  0
  9 39  1  0
 10 40  1  0
 10 41  1  0
 11 42  1  0
 11 43  1  0
 12 44  1  6
 14 45  1  0
 15 46  1  0
 21 47  1  0
 22 48  1  0
 24 49  1  0
 25 50  1  0
 27 51  1  0
 28 52  1  0
 29 53  1  0
 30 54  1  0
M  END
>  <meeko>  (9) 
{"free_energy": -8.51, "intermolecular_energy": -10.3, "internal_energy": -1.77, "cluster_size": 7, "cluster_id": 1, "rank_in_cluster": 3}

$$$$

     RDKit          3D

 54 57  0  0  0  0  0  0  0  0999 V2000
  138.3470   70.6630  221.7800 O   0  0  0  0  0  0  0  0  0  0  0  0
  138.9630   71.1650  222.7770 C   0  0  0  0  0  0  0  0  0  0  0  0
  139.3700   72.5310  222.7540 N   0  0  0  0  0  0  0  0  0  0  0  0
  139.1030   73.3650  221.6250 C   0  0  0  0  0  0  0  0  0  0  0  0
  140.0350   74.5110  221.5140 C   0  0  0  0  0  0  0  0  0  0  0  0
  141.0610   74.4850  222.2400 O   0  0  0  0  0  0  0  0  0  0  0  0
  139.7440   75.5780  220.6100 N   0  0  0  0  0  0  0  0  0  0  0  0
  138.3740   75.8320  220.2210 C   0  0  0  0  0  0  0  0  0  0  0  0
  138.2250   76.5150  218.9040 C   0  0  0  0  0  0  0  0  0  0  0  0
  139.3590   77.4760  218.6080 C   0  0  0  0  0  0  0  0  0  0  0  0
  140.6120   76.6750  218.6880 C   0  0  0  0  0  0  0  0  0  0  0  0
  140.8710   76.3500  220.1320 C   0  0  1  0  0  0  0  0  0  0  0  0
  141.1330   77.5830  220.9150 C   0  0  0  0  0  0  0  0  0  0  0  0
  141.6090   78.7510  220.3590 C   0  0  0  0  0  0  0  0  0  0  0  0
  141.8410   79.8990  221.1060 C   0  0  0  0  0  0  0  0  0  0  0  0
  141.5990   79.9110  222.4610 C   0  0  0  0  0  0  0  0  0  0  0  0
  141.8230   81.0960  223.3200 C   0  0  0  0  0  0  0  0  0  0  0  0
  143.0370   81.0410  223.9710 F   0  0  0  0  0  0  0  0  0  0  0  0
  140.7620   81.2460  224.2050 F   0  0  0  0  0  0  0  0  0  0  0  0
  141.8570   82.2140  222.5040 F   0  0  0  0  0  0  0  0  0  0  0  0
  141.1240   78.7590  223.0400 C   0  0  0  0  0  0  0  0  0  0  0  0
  140.8960   77.6220  222.2910 C   0  0  0  0  0  0  0  0  0  0  0  0
  139.2540   70.3420  223.9490 C   0  0  0  0  0  0  0  0  0  0  0  0
  138.9010   69.0070  223.9460 C   0  0  0  0  0  0  0  0  0  0  0  0
  139.1880   68.2420  225.0720 C   0  0  0  0  0  0  0  0  0  0  0  0
  139.8160   68.8200  226.1730 C   0  0  0  0  0  0  0  0  0  0  0  0
  140.1280   68.1400  227.3090 C   0  0  0  0  0  0  0  0  0  0  0  0
  140.7520   68.7630  228.3730 C   0  0  0  0  0  0  0  0  0  0  0  0
  141.0790   70.1160  228.3090 C   0  0  0  0  0  0  0  0  0  0  0  0
  140.7680   70.8220  227.1610 C   0  0  0  0  0  0  0  0  0  0  0  0
  140.1460   70.1650  226.1200 C   0  0  0  0  0  0  0  0  0  0  0  0
  139.8590   70.8860  225.0200 N   0  0  0  0  0  0  0  0  0  0  0  0
  139.8700   72.8820  223.6020 H   0  0  0  0  0  0  0  0  0  0  0  0
  139.1870   72.7562  220.7127 H   0  0  0  0  0  0  0  0  0  0  0  0
  138.0914   73.7771  221.7544 H   0  0  0  0  0  0  0  0  0  0  0  0
  137.8462   74.8682  220.1705 H   0  0  0  0  0  0  0  0  0  0  0  0
  137.9535   76.5116  220.9768 H   0  0  0  0  0  0  0  0  0  0  0  0
  138.1967   75.7509  218.1133 H   0  0  0  0  0  0  0  0  0  0  0  0
  137.2951   77.1015  218.9389 H   0  0  0  0  0  0  0  0  0  0  0  0
  139.2434   77.9041  217.6014 H   0  0  0  0  0  0  0  0  0  0  0  0
  139.3718   78.3136  219.3209 H   0  0  0  0  0  0  0  0  0  0  0  0
  140.4967   75.7450  218.1120 H   0  0  0  0  0  0  0  0  0  0  0  0
  141.4546   77.2455  218.2702 H   0  0  0  0  0  0  0  0  0  0  0  0
  141.7821   75.7456  220.2532 H   0  0  0  0  0  0  0  0  0  0  0  0
  141.8137   78.7751  219.2785 H   0  0  0  0  0  0  0  0  0  0  0  0
  142.2209   80.8050  220.6111 H   0  0  0  0  0  0  0  0  0  0  0  0
  140.9215   78.7424  224.1211 H   0  0  0  0  0  0  0  0  0  0  0  0
  140.5163   76.7198  222.7928 H   0  0  0  0  0  0  0  0  0  0  0  0
  138.4041   68.5586  223.0731 H   0  0  0  0  0  0  0  0  0  0  0  0
  138.9178   67.1759  225.0930 H   0  0  0  0  0  0  0  0  0  0  0  0
  139.8783   67.0712  227.3823 H   0  0  0  0  0  0  0  0  0  0  0  0
  140.9926   68.1860  229.2781 H   0  0  0  0  0  0  0  0  0  0  0  0
  141.5751   70.6132  229.1555 H   0  0  0  0  0  0  0  0  0  0  0  0
  141.0131   71.8913  227.0795 H   0  0  0  0  0  0  0  0  0  0  0  0
  1  2  2  0
  2  3  1  0
  3  4  1  0
  4  5  1  0
  5  6  2  0
  5  7  1  0
  7  8  1  0
  8  9  1  0
  9 10  1  0
 10 11  1  0
 11 12  1  0
 12 13  1  0
 13 14  2  0
 14 15  1  0
 15 16  2  0
 16 17  1  0
 17 18  1  0
 17 19  1  0
 17 20  1  0
 16 21  1  0
 21 22  2  0
  2 23  1  0
 23 24  2  0
 24 25  1  0
 25 26  2  0
 26 27  1  0
 27 28  2  0
 28 29  1  0
 29 30  2  0
 30 31  1  0
 31 32  2  0
 12  7  1  0
 22 13  1  0
 32 23  1  0
 31 26  1  0
  3 33  1  0
  4 34  1  0
  4 35  1  0
  8 36  1  0
  8 37  1  0
  9 38  1  0
  9 39  1  0
 10 40  1  0
 10 41  1  0
 11 42  1  0
 11 43  1  0
 12 44  1  6
 14 45  1  0
 15 46  1  0
 21 47  1  0
 22 48  1  0
 24 49  1  0
 25 50  1  0
 27 51  1  0
 28 52  1  0
 29 53  1  0
 30 54  1  0
M  END
>  <meeko>  (10) 
{"free_energy": -8.09, "intermolecular_energy": -9.88, "internal_energy": -1.98, "cluster_size": 6, "cluster_id": 2, "rank_in_cluster": 6}

$$$$

     RDKit          3D

 54 57  0  0  0  0  0  0  0  0999 V2000
  138.1140   70.4190  221.9370 O   0  0  0  0  0  0  0  0  0  0  0  0
  138.7760   70.9110  222.9100 C   0  0  0  0  0  0  0  0  0  0  0  0
  139.1530   72.2860  222.8950 N   0  0  0  0  0  0  0  0  0  0  0  0
  138.8060   73.1380  221.8030 C   0  0  0  0  0  0  0  0  0  0  0  0
  139.5170   74.4380  221.8280 C   0  0  0  0  0  0  0  0  0  0  0  0
  140.7650   74.4030  221.9810 O   0  0  0  0  0  0  0  0  0  0  0  0
  138.7810   75.6530  221.6830 N   0  0  0  0  0  0  0  0  0  0  0  0
  137.5550   75.8400  222.4280 C   0  0  0  0  0  0  0  0  0  0  0  0
  136.5990   76.8020  221.8090 C   0  0  0  0  0  0  0  0  0  0  0  0
  137.2930   77.9260  221.0660 C   0  0  0  0  0  0  0  0  0  0  0  0
  138.1700   77.2740  220.0540 C   0  0  0  0  0  0  0  0  0  0  0  0
  139.3260   76.6390  220.7740 C   0  0  1  0  0  0  0  0  0  0  0  0
  140.1700   77.6660  221.4330 C   0  0  0  0  0  0  0  0  0  0  0  0
  140.6130   77.5670  222.7350 C   0  0  0  0  0  0  0  0  0  0  0  0
  141.4090   78.5350  223.3340 C   0  0  0  0  0  0  0  0  0  0  0  0
  141.7930   79.6540  222.6330 C   0  0  0  0  0  0  0  0  0  0  0  0
  142.6390   80.7270  223.2060 C   0  0  0  0  0  0  0  0  0  0  0  0
  142.2060   81.9810  222.8340 F   0  0  0  0  0  0  0  0  0  0  0  0
  143.9690   80.5110  222.8660 F   0  0  0  0  0  0  0  0  0  0  0  0
  142.5360   80.6590  224.5850 F   0  0  0  0  0  0  0  0  0  0  0  0
  141.3650   79.7780  221.3320 C   0  0  0  0  0  0  0  0  0  0  0  0
  140.5740   78.8120  220.7440 C   0  0  0  0  0  0  0  0  0  0  0  0
  139.1490   70.0690  224.0440 C   0  0  0  0  0  0  0  0  0  0  0  0
  138.8920   68.7140  223.9980 C   0  0  0  0  0  0  0  0  0  0  0  0
  139.2560   67.9310  225.0890 C   0  0  0  0  0  0  0  0  0  0  0  0
  139.8660   68.5120  226.1980 C   0  0  0  0  0  0  0  0  0  0  0  0
  140.2500   67.8160  227.3010 C   0  0  0  0  0  0  0  0  0  0  0  0
  140.8520   68.4430  228.3760 C   0  0  0  0  0  0  0  0  0  0  0  0
  141.0820   69.8170  228.3560 C   0  0  0  0  0  0  0  0  0  0  0  0
  140.6960   70.5400  227.2420 C   0  0  0  0  0  0  0  0  0  0  0  0
  140.0990   69.8780  226.1890 C   0  0  0  0  0  0  0  0  0  0  0  0
  139.7390   70.6160  225.1230 N   0  0  0  0  0  0  0  0  0  0  0  0
  139.6940   72.6280  223.7210 H   0  0  0  0  0  0  0  0  0  0  0  0
  139.0545   72.6216  220.8640 H   0  0  0  0  0  0  0  0  0  0  0  0
  137.7301   73.3522  221.8846 H   0  0  0  0  0  0  0  0  0  0  0  0
  137.0535   74.8649  222.5157 H   0  0  0  0  0  0  0  0  0  0  0  0
  137.8409   76.2642  223.4018 H   0  0  0  0  0  0  0  0  0  0  0  0
  135.9596   76.2550  221.1006 H   0  0  0  0  0  0  0  0  0  0  0  0
  136.0133   77.2555  222.6222 H   0  0  0  0  0  0  0  0  0  0  0  0
  136.5520   78.5703  220.5703 H   0  0  0  0  0  0  0  0  0  0  0  0
  137.8739   78.5613  221.7508 H   0  0  0  0  0  0  0  0  0  0  0  0
  137.6025   76.5048  219.5097 H   0  0  0  0  0  0  0  0  0  0  0  0
  138.5352   78.0187  219.3314 H   0  0  0  0  0  0  0  0  0  0  0  0
  140.0054   76.1283  220.0757 H   0  0  0  0  0  0  0  0  0  0  0  0
  140.3239   76.6842  223.3242 H   0  0  0  0  0  0  0  0  0  0  0  0
  141.7346   78.4055  224.3767 H   0  0  0  0  0  0  0  0  0  0  0  0
  141.6586   80.6635  220.7492 H   0  0  0  0  0  0  0  0  0  0  0  0
  140.2519   78.9486  219.7011 H   0  0  0  0  0  0  0  0  0  0  0  0
  138.4100   68.2628  223.1182 H   0  0  0  0  0  0  0  0  0  0  0  0
  139.0611   66.8485  225.0756 H   0  0  0  0  0  0  0  0  0  0  0  0
  140.0779   66.7302  227.3389 H   0  0  0  0  0  0  0  0  0  0  0  0
  141.1518   67.8524  229.2542 H   0  0  0  0  0  0  0  0  0  0  0  0
  141.5616   70.3173  229.2102 H   0  0  0  0  0  0  0  0  0  0  0  0
  140.8624   71.6264  227.1962 H   0  0  0  0  0  0  0  0  0  0  0  0
  1  2  2  0
  2  3  1  0
  3  4  1  0
  4  5  1  0
  5  6  2  0
  5  7  1  0
  7  8  1  0
  8  9  1  0
  9 10  1  0
 10 11  1  0
 11 12  1  0
 12 13  1  0
 13 14  2  0
 14 15  1  0
 15 16  2  0
 16 17  1  0
 17 18  1  0
 17 19  1  0
 17 20  1  0
 16 21  1  0
 21 22  2  0
  2 23  1  0
 23 24  2  0
 24 25  1  0
 25 26  2  0
 26 27  1  0
 27 28  2  0
 28 29  1  0
 29 30  2  0
 30 31  1  0
 31 32  2  0
 12  7  1  0
 22 13  1  0
 32 23  1  0
 31 26  1  0
  3 33  1  0
  4 34  1  0
  4 35  1  0
  8 36  1  0
  8 37  1  0
  9 38  1  0
  9 39  1  0
 10 40  1  0
 10 41  1  0
 11 42  1  0
 11 43  1  0
 12 44  1  6
 14 45  1  0
 15 46  1  0
 21 47  1  0
 22 48  1  0
 24 49  1  0
 25 50  1  0
 27 51  1  0
 28 52  1  0
 29 53  1  0
 30 54  1  0
M  END
>  <meeko>  (11) 
{"free_energy": -8.36, "intermolecular_energy": -10.15, "internal_energy": -1.84, "cluster_size": 6, "cluster_id": 2, "rank_in_cluster": 1}

$$$$

     RDKit          3D

 54 57  0  0  0  0  0  0  0  0999 V2000
  140.2290   71.2750  221.2350 O   0  0  0  0  0  0  0  0  0  0  0  0
  140.0110   71.8980  222.3260 C   0  0  0  0  0  0  0  0  0  0  0  0
  139.7590   73.3020  222.3100 N   0  0  0  0  0  0  0  0  0  0  0  0
  139.7450   74.0380  221.0870 C   0  0  0  0  0  0  0  0  0  0  0  0
  140.2120   75.4360  221.2420 C   0  0  0  0  0  0  0  0  0  0  0  0
  139.9820   75.9960  222.3440 O   0  0  0  0  0  0  0  0  0  0  0  0
  140.8900   76.0820  220.1640 N   0  0  0  0  0  0  0  0  0  0  0  0
  140.4370   75.8720  218.8060 C   0  0  0  0  0  0  0  0  0  0  0  0
  141.4880   76.0750  217.7690 C   0  0  0  0  0  0  0  0  0  0  0  0
  142.4910   77.1460  218.1480 C   0  0  0  0  0  0  0  0  0  0  0  0
  143.0660   76.7300  219.4580 C   0  0  0  0  0  0  0  0  0  0  0  0
  142.0150   76.9230  220.5150 C   0  0  1  0  0  0  0  0  0  0  0  0
  141.6710   78.3580  220.6650 C   0  0  0  0  0  0  0  0  0  0  0  0
  140.8370   79.0370  219.8020 C   0  0  0  0  0  0  0  0  0  0  0  0
  140.5200   80.3790  219.9630 C   0  0  0  0  0  0  0  0  0  0  0  0
  141.0380   81.0970  221.0160 C   0  0  0  0  0  0  0  0  0  0  0  0
  140.7450   82.5300  221.2510 C   0  0  0  0  0  0  0  0  0  0  0  0
  140.5120   83.2100  220.0750 F   0  0  0  0  0  0  0  0  0  0  0  0
  141.7690   83.1060  221.9930 F   0  0  0  0  0  0  0  0  0  0  0  0
  139.5820   82.6100  221.9980 F   0  0  0  0  0  0  0  0  0  0  0  0
  141.8720   80.4450  221.8920 C   0  0  0  0  0  0  0  0  0  0  0  0
  142.1830   79.1110  221.7250 C   0  0  0  0  0  0  0  0  0  0  0  0
  140.0180   71.1780  223.5970 C   0  0  0  0  0  0  0  0  0  0  0  0
  139.5460   69.8810  223.6450 C   0  0  0  0  0  0  0  0  0  0  0  0
  139.5620   69.2130  224.8660 C   0  0  0  0  0  0  0  0  0  0  0  0
  140.0450   69.8490  226.0070 C   0  0  0  0  0  0  0  0  0  0  0  0
  140.0930   69.2640  227.2350 C   0  0  0  0  0  0  0  0  0  0  0  0
  140.5830   69.9400  228.3360 C   0  0  0  0  0  0  0  0  0  0  0  0
  141.0440   71.2500  228.2160 C   0  0  0  0  0  0  0  0  0  0  0  0
  141.0010   71.8590  226.9750 C   0  0  0  0  0  0  0  0  0  0  0  0
  140.5060   71.1510  225.8990 C   0  0  0  0  0  0  0  0  0  0  0  0
  140.4810   71.7770  224.7090 N   0  0  0  0  0  0  0  0  0  0  0  0
  139.5880   73.7530  223.2370 H   0  0  0  0  0  0  0  0  0  0  0  0
  140.3999   73.5286  220.3648 H   0  0  0  0  0  0  0  0  0  0  0  0
  138.7015   74.0782  220.7414 H   0  0  0  0  0  0  0  0  0  0  0  0
  140.0660   74.8398  218.7226 H   0  0  0  0  0  0  0  0  0  0  0  0
  139.6574   76.6241  218.6148 H   0  0  0  0  0  0  0  0  0  0  0  0
  142.0255   75.1264  217.6236 H   0  0  0  0  0  0  0  0  0  0  0  0
  140.9843   76.4052  216.8485 H   0  0  0  0  0  0  0  0  0  0  0  0
  143.2831   77.2132  217.3877 H   0  0  0  0  0  0  0  0  0  0  0  0
  142.0156   78.1358  218.2144 H   0  0  0  0  0  0  0  0  0  0  0  0
  143.3614   75.6713  219.4156 H   0  0  0  0  0  0  0  0  0  0  0  0
  143.9551   77.3341  219.6916 H   0  0  0  0  0  0  0  0  0  0  0  0
  142.3790   76.6195  221.5077 H   0  0  0  0  0  0  0  0  0  0  0  0
  140.4045   78.4922  218.9498 H   0  0  0  0  0  0  0  0  0  0  0  0
  139.8498   80.8718  219.2433 H   0  0  0  0  0  0  0  0  0  0  0  0
  142.2997   80.9967  222.7422 H   0  0  0  0  0  0  0  0  0  0  0  0
  142.8545   78.6255  222.4484 H   0  0  0  0  0  0  0  0  0  0  0  0
  139.1660   69.3870  222.7386 H   0  0  0  0  0  0  0  0  0  0  0  0
  139.1919   68.1791  224.9300 H   0  0  0  0  0  0  0  0  0  0  0  0
  139.7341   68.2310  227.3535 H   0  0  0  0  0  0  0  0  0  0  0  0
  140.6095   69.4401  229.3155 H   0  0  0  0  0  0  0  0  0  0  0  0
  141.4346   71.7891  229.0917 H   0  0  0  0  0  0  0  0  0  0  0  0
  141.3561   72.8923  226.8476 H   0  0  0  0  0  0  0  0  0  0  0  0
  1  2  2  0
  2  3  1  0
  3  4  1  0
  4  5  1  0
  5  6  2  0
  5  7  1  0
  7  8  1  0
  8  9  1  0
  9 10  1  0
 10 11  1  0
 11 12  1  0
 12 13  1  0
 13 14  2  0
 14 15  1  0
 15 16  2  0
 16 17  1  0
 17 18  1  0
 17 19  1  0
 17 20  1  0
 16 21  1  0
 21 22  2  0
  2 23  1  0
 23 24  2  0
 24 25  1  0
 25 26  2  0
 26 27  1  0
 27 28  2  0
 28 29  1  0
 29 30  2  0
 30 31  1  0
 31 32  2  0
 12  7  1  0
 22 13  1  0
 32 23  1  0
 31 26  1  0
  3 33  1  0
  4 34  1  0
  4 35  1  0
  8 36  1  0
  8 37  1  0
  9 38  1  0
  9 39  1  0
 10 40  1  0
 10 41  1  0
 11 42  1  0
 11 43  1  0
 12 44  1  1
 14 45  1  0
 15 46  1  0
 21 47  1  0
 22 48  1  0
 24 49  1  0
 25 50  1  0
 27 51  1  0
 28 52  1  0
 29 53  1  0
 30 54  1  0
M  END
>  <meeko>  (12) 
{"free_energy": -8.09, "intermolecular_energy": -9.88, "internal_energy": -1.75, "cluster_size": 1, "cluster_id": 4, "rank_in_cluster": 1}

$$$$

     RDKit          3D

 54 57  0  0  0  0  0  0  0  0999 V2000
  137.2900   76.1590  222.3440 O   0  0  0  0  0  0  0  0  0  0  0  0
  138.5530   76.3180  222.4180 C   0  0  0  0  0  0  0  0  0  0  0  0
  139.4270   75.2110  222.2080 N   0  0  0  0  0  0  0  0  0  0  0  0
  138.9180   73.9100  221.9120 C   0  0  0  0  0  0  0  0  0  0  0  0
  139.8900   72.8260  222.1890 C   0  0  0  0  0  0  0  0  0  0  0  0
  141.0930   73.1620  222.3360 O   0  0  0  0  0  0  0  0  0  0  0  0
  139.4400   71.4740  222.2770 N   0  0  0  0  0  0  0  0  0  0  0  0
  139.9160   70.4990  221.3190 C   0  0  0  0  0  0  0  0  0  0  0  0
  139.0010   69.3390  221.1170 C   0  0  0  0  0  0  0  0  0  0  0  0
  138.2420   68.9610  222.3730 C   0  0  0  0  0  0  0  0  0  0  0  0
  137.5110   70.1860  222.8000 C   0  0  0  0  0  0  0  0  0  0  0  0
  138.5130   71.1650  223.3440 C   0  0  1  0  0  0  0  0  0  0  0  0
  139.1600   70.6370  224.5710 C   0  0  0  0  0  0  0  0  0  0  0  0
  140.3840   71.0690  225.0330 C   0  0  0  0  0  0  0  0  0  0  0  0
  140.9710   70.5680  226.1880 C   0  0  0  0  0  0  0  0  0  0  0  0
  140.3360   69.5990  226.9300 C   0  0  0  0  0  0  0  0  0  0  0  0
  140.9010   69.0180  228.1700 C   0  0  0  0  0  0  0  0  0  0  0  0
  141.8000   69.8690  228.7770 F   0  0  0  0  0  0  0  0  0  0  0  0
  141.4590   67.7750  227.8970 F   0  0  0  0  0  0  0  0  0  0  0  0
  139.8600   68.8300  229.0650 F   0  0  0  0  0  0  0  0  0  0  0  0
  139.1130   69.1500  226.4910 C   0  0  0  0  0  0  0  0  0  0  0  0
  138.5360   69.6530  225.3420 C   0  0  0  0  0  0  0  0  0  0  0  0
  139.1110   77.6350  222.7190 C   0  0  0  0  0  0  0  0  0  0  0  0
  138.2590   78.6950  222.9550 C   0  0  0  0  0  0  0  0  0  0  0  0
  138.8110   79.9400  223.2400 C   0  0  0  0  0  0  0  0  0  0  0  0
  140.1940   80.1010  223.2820 C   0  0  0  0  0  0  0  0  0  0  0  0
  140.8080   81.2840  223.5530 C   0  0  0  0  0  0  0  0  0  0  0  0
  142.1860   81.3900  223.5820 C   0  0  0  0  0  0  0  0  0  0  0  0
  142.9870   80.2770  223.3340 C   0  0  0  0  0  0  0  0  0  0  0  0
  142.3780   79.0670  223.0570 C   0  0  0  0  0  0  0  0  0  0  0  0
  141.0000   79.0010  223.0370 C   0  0  0  0  0  0  0  0  0  0  0  0
  140.4440   77.8070  222.7640 N   0  0  0  0  0  0  0  0  0  0  0  0
  140.4510   75.4070  222.2820 H   0  0  0  0  0  0  0  0  0  0  0  0
  138.0196   73.7387  222.5232 H   0  0  0  0  0  0  0  0  0  0  0  0
  138.6962   73.8829  220.8349 H   0  0  0  0  0  0  0  0  0  0  0  0
  140.0503   71.0043  220.3512 H   0  0  0  0  0  0  0  0  0  0  0  0
  140.8548   70.0927  221.7234 H   0  0  0  0  0  0  0  0  0  0  0  0
  138.2747   69.5973  220.3323 H   0  0  0  0  0  0  0  0  0  0  0  0
  139.6204   68.4754  220.8331 H   0  0  0  0  0  0  0  0  0  0  0  0
  137.5323   68.1481  222.1598 H   0  0  0  0  0  0  0  0  0  0  0  0
  138.9220   68.6045  223.1607 H   0  0  0  0  0  0  0  0  0  0  0  0
  136.9890   70.6275  221.9383 H   0  0  0  0  0  0  0  0  0  0  0  0
  136.7674   69.9354  223.5709 H   0  0  0  0  0  0  0  0  0  0  0  0
  138.0302   72.0997  223.6653 H   0  0  0  0  0  0  0  0  0  0  0  0
  140.9189   71.8432  224.4633 H   0  0  0  0  0  0  0  0  0  0  0  0
  141.9508   70.9489  226.5118 H   0  0  0  0  0  0  0  0  0  0  0  0
  138.5843   68.3755  227.0660 H   0  0  0  0  0  0  0  0  0  0  0  0
  137.5560   69.2676  225.0241 H   0  0  0  0  0  0  0  0  0  0  0  0
  137.1681   78.5585  222.9186 H   0  0  0  0  0  0  0  0  0  0  0  0
  138.1530   80.8001  223.4328 H   0  0  0  0  0  0  0  0  0  0  0  0
  140.1951   82.1752  223.7533 H   0  0  0  0  0  0  0  0  0  0  0  0
  142.6540   82.3607  223.8026 H   0  0  0  0  0  0  0  0  0  0  0  0
  144.0836   80.3596  223.3582 H   0  0  0  0  0  0  0  0  0  0  0  0
  142.9829   78.1706  222.8556 H   0  0  0  0  0  0  0  0  0  0  0  0
  1  2  2  0
  2  3  1  0
  3  4  1  0
  4  5  1  0
  5  6  2  0
  5  7  1  0
  7  8  1  0
  8  9  1  0
  9 10  1  0
 10 11  1  0
 11 12  1  0
 12 13  1  0
 13 14  2  0
 14 15  1  0
 15 16  2  0
 16 17  1  0
 17 18  1  0
 17 19  1  0
 17 20  1  0
 16 21  1  0
 21 22  2  0
  2 23  1  0
 23 24  2  0
 24 25  1  0
 25 26  2  0
 26 27  1  0
 27 28  2  0
 28 29  1  0
 29 30  2  0
 30 31  1  0
 31 32  2  0
 12  7  1  0
 22 13  1  0
 32 23  1  0
 31 26  1  0
  3 33  1  0
  4 34  1  0
  4 35  1  0
  8 36  1  0
  8 37  1  0
  9 38  1  0
  9 39  1  0
 10 40  1  0
 10 41  1  0
 11 42  1  0
 11 43  1  0
 12 44  1  1
 14 45  1  0
 15 46  1  0
 21 47  1  0
 22 48  1  0
 24 49  1  0
 25 50  1  0
 27 51  1  0
 28 52  1  0
 29 53  1  0
 30 54  1  0
M  END
>  <meeko>  (13) 
{"free_energy": -8.24, "intermolecular_energy": -10.03, "internal_energy": -2.08, "cluster_size": 5, "cluster_id": 3, "rank_in_cluster": 3}

$$$$

     RDKit          3D

 54 57  0  0  0  0  0  0  0  0999 V2000
  140.0460   70.4740  221.7140 O   0  0  0  0  0  0  0  0  0  0  0  0
  139.8010   71.3240  222.6320 C   0  0  0  0  0  0  0  0  0  0  0  0
  139.2930   72.6130  222.2970 N   0  0  0  0  0  0  0  0  0  0  0  0
  139.0500   72.9840  220.9390 C   0  0  0  0  0  0  0  0  0  0  0  0
  138.6960   74.4140  220.7800 C   0  0  0  0  0  0  0  0  0  0  0  0
  137.5500   74.6720  220.3310 O   0  0  0  0  0  0  0  0  0  0  0  0
  139.6440   75.4230  221.1310 N   0  0  0  0  0  0  0  0  0  0  0  0
  139.5720   76.0490  222.4330 C   0  0  0  0  0  0  0  0  0  0  0  0
  140.1660   77.4160  222.4920 C   0  0  0  0  0  0  0  0  0  0  0  0
  141.3490   77.5840  221.5590 C   0  0  0  0  0  0  0  0  0  0  0  0
  140.8530   77.2440  220.1960 C   0  0  0  0  0  0  0  0  0  0  0  0
  140.6360   75.7590  220.1320 C   0  0  1  0  0  0  0  0  0  0  0  0
  141.9180   75.0280  220.2850 C   0  0  0  0  0  0  0  0  0  0  0  0
  142.0050   73.7310  220.7440 C   0  0  0  0  0  0  0  0  0  0  0  0
  143.2140   73.0590  220.8740 C   0  0  0  0  0  0  0  0  0  0  0  0
  144.3960   73.6790  220.5410 C   0  0  0  0  0  0  0  0  0  0  0  0
  145.7210   73.0260  220.6540 C   0  0  0  0  0  0  0  0  0  0  0  0
  146.1130   72.8750  221.9660 F   0  0  0  0  0  0  0  0  0  0  0  0
  146.6580   73.7280  219.9060 F   0  0  0  0  0  0  0  0  0  0  0  0
  145.6160   71.7540  220.1170 F   0  0  0  0  0  0  0  0  0  0  0  0
  144.3370   74.9730  220.0800 C   0  0  0  0  0  0  0  0  0  0  0  0
  143.1320   75.6340  219.9540 C   0  0  0  0  0  0  0  0  0  0  0  0
  140.0380   70.9800  224.0330 C   0  0  0  0  0  0  0  0  0  0  0  0
  140.6600   71.8940  224.8600 C   0  0  0  0  0  0  0  0  0  0  0  0
  140.8760   71.5470  226.1900 C   0  0  0  0  0  0  0  0  0  0  0  0
  140.4700   70.3020  226.6650 C   0  0  0  0  0  0  0  0  0  0  0  0
  140.6460   69.8890  227.9490 C   0  0  0  0  0  0  0  0  0  0  0  0
  140.2240   68.6420  228.3690 C   0  0  0  0  0  0  0  0  0  0  0  0
  139.6030   67.7680  227.4800 C   0  0  0  0  0  0  0  0  0  0  0  0
  139.4170   68.1720  226.1700 C   0  0  0  0  0  0  0  0  0  0  0  0
  139.8510   69.4250  225.7890 C   0  0  0  0  0  0  0  0  0  0  0  0
  139.6520   69.7820  224.5070 N   0  0  0  0  0  0  0  0  0  0  0  0
  139.1130   73.2630  223.0950 H   0  0  0  0  0  0  0  0  0  0  0  0
  139.9586   72.7813  220.3531 H   0  0  0  0  0  0  0  0  0  0  0  0
  138.1916   72.3932  220.5868 H   0  0  0  0  0  0  0  0  0  0  0  0
  138.5132   76.1210  222.7223 H   0  0  0  0  0  0  0  0  0  0  0  0
  140.1611   75.4205  223.1171 H   0  0  0  0  0  0  0  0  0  0  0  0
  139.3928   78.1473  222.2141 H   0  0  0  0  0  0  0  0  0  0  0  0
  140.5287   77.5751  223.5182 H   0  0  0  0  0  0  0  0  0  0  0  0
  141.7112   78.6223  221.5853 H   0  0  0  0  0  0  0  0  0  0  0  0
  142.1880   76.9367  221.8540 H   0  0  0  0  0  0  0  0  0  0  0  0
  139.9049   77.7674  220.0035 H   0  0  0  0  0  0  0  0  0  0  0  0
  141.5862   77.5538  219.4368 H   0  0  0  0  0  0  0  0  0  0  0  0
  140.2555   75.4484  219.1477 H   0  0  0  0  0  0  0  0  0  0  0  0
  141.0782   73.2061  221.0189 H   0  0  0  0  0  0  0  0  0  0  0  0
  143.2262   72.0238  221.2458 H   0  0  0  0  0  0  0  0  0  0  0  0
  145.2679   75.4913  219.8064 H   0  0  0  0  0  0  0  0  0  0  0  0
  143.1276   76.6691  219.5817 H   0  0  0  0  0  0  0  0  0  0  0  0
  140.9777   72.8746  224.4760 H   0  0  0  0  0  0  0  0  0  0  0  0
  141.3691   72.2583  226.8688 H   0  0  0  0  0  0  0  0  0  0  0  0
  141.1348   70.5622  228.6686 H   0  0  0  0  0  0  0  0  0  0  0  0
  140.3799   68.3370  229.4143 H   0  0  0  0  0  0  0  0  0  0  0  0
  139.2667   66.7751  227.8132 H   0  0  0  0  0  0  0  0  0  0  0  0
  138.9306   67.5045  225.4434 H   0  0  0  0  0  0  0  0  0  0  0  0
  1  2  2  0
  2  3  1  0
  3  4  1  0
  4  5  1  0
  5  6  2  0
  5  7  1  0
  7  8  1  0
  8  9  1  0
  9 10  1  0
 10 11  1  0
 11 12  1  0
 12 13  1  0
 13 14  2  0
 14 15  1  0
 15 16  2  0
 16 17  1  0
 17 18  1  0
 17 19  1  0
 17 20  1  0
 16 21  1  0
 21 22  2  0
  2 23  1  0
 23 24  2  0
 24 25  1  0
 25 26  2  0
 26 27  1  0
 27 28  2  0
 28 29  1  0
 29 30  2  0
 30 31  1  0
 31 32  2  0
 12  7  1  0
 22 13  1  0
 32 23  1  0
 31 26  1  0
  3 33  1  0
  4 34  1  0
  4 35  1  0
  8 36  1  0
  8 37  1  0
  9 38  1  0
  9 39  1  0
 10 40  1  0
 10 41  1  0
 11 42  1  0
 11 43  1  0
 12 44  1  6
 14 45  1  0
 15 46  1  0
 21 47  1  0
 22 48  1  0
 24 49  1  0
 25 50  1  0
 27 51  1  0
 28 52  1  0
 29 53  1  0
 30 54  1  0
M  END
>  <meeko>  (14) 
{"free_energy": -8.4, "intermolecular_energy": -10.19, "internal_energy": -1.57, "cluster_size": 7, "cluster_id": 1, "rank_in_cluster": 6}

$$$$

     RDKit          3D

 54 57  0  0  0  0  0  0  0  0999 V2000
  141.1450   72.3330  221.7570 O   0  0  0  0  0  0  0  0  0  0  0  0
  140.1550   72.3860  222.5590 C   0  0  0  0  0  0  0  0  0  0  0  0
  139.1120   73.3350  222.3470 N   0  0  0  0  0  0  0  0  0  0  0  0
  139.1480   74.2420  221.2440 C   0  0  0  0  0  0  0  0  0  0  0  0
  138.9550   75.6550  221.6450 C   0  0  0  0  0  0  0  0  0  0  0  0
  137.8490   75.9560  222.1630 O   0  0  0  0  0  0  0  0  0  0  0  0
  140.0030   76.6020  221.4360 N   0  0  0  0  0  0  0  0  0  0  0  0
  140.4330   77.4470  222.5290 C   0  0  0  0  0  0  0  0  0  0  0  0
  141.0600   78.7310  222.1050 C   0  0  0  0  0  0  0  0  0  0  0  0
  141.8270   78.6100  220.8030 C   0  0  0  0  0  0  0  0  0  0  0  0
  140.8570   78.0970  219.7960 C   0  0  0  0  0  0  0  0  0  0  0  0
  140.5750   76.6540  220.1070 C   0  0  1  0  0  0  0  0  0  0  0  0
  141.7960   75.8280  219.9440 C   0  0  0  0  0  0  0  0  0  0  0  0
  142.6120   75.8850  218.8340 C   0  0  0  0  0  0  0  0  0  0  0  0
  143.7570   75.1090  218.7020 C   0  0  0  0  0  0  0  0  0  0  0  0
  144.1260   74.2340  219.6980 C   0  0  0  0  0  0  0  0  0  0  0  0
  145.3310   73.3760  219.6250 C   0  0  0  0  0  0  0  0  0  0  0  0
  145.8860   73.3690  218.3640 F   0  0  0  0  0  0  0  0  0  0  0  0
  145.0250   72.0950  220.0680 F   0  0  0  0  0  0  0  0  0  0  0  0
  146.2830   73.9050  220.4800 F   0  0  0  0  0  0  0  0  0  0  0  0
  143.3300   74.1580  220.8150 C   0  0  0  0  0  0  0  0  0  0  0  0
  142.1940   74.9320  220.9400 C   0  0  0  0  0  0  0  0  0  0  0  0
  140.0850   71.4740  223.6980 C   0  0  0  0  0  0  0  0  0  0  0  0
  139.5470   70.2140  223.5270 C   0  0  0  0  0  0  0  0  0  0  0  0
  139.4900   69.3620  224.6260 C   0  0  0  0  0  0  0  0  0  0  0  0
  139.9680   69.7810  225.8650 C   0  0  0  0  0  0  0  0  0  0  0  0
  139.9460   69.0080  226.9850 C   0  0  0  0  0  0  0  0  0  0  0  0
  140.4340   69.4740  228.1910 C   0  0  0  0  0  0  0  0  0  0  0  0
  140.9640   70.7580  228.2920 C   0  0  0  0  0  0  0  0  0  0  0  0
  140.9920   71.5570  227.1640 C   0  0  0  0  0  0  0  0  0  0  0  0
  140.4970   71.0570  225.9780 C   0  0  0  0  0  0  0  0  0  0  0  0
  140.5420   71.8640  224.9020 N   0  0  0  0  0  0  0  0  0  0  0  0
  138.3300   73.3270  223.0400 H   0  0  0  0  0  0  0  0  0  0  0  0
  140.1250   74.1498  220.7470 H   0  0  0  0  0  0  0  0  0  0  0  0
  138.3173   73.9756  220.5739 H   0  0  0  0  0  0  0  0  0  0  0  0
  139.5549   77.6811  223.1488 H   0  0  0  0  0  0  0  0  0  0  0  0
  141.2057   76.8855  223.0746 H   0  0  0  0  0  0  0  0  0  0  0  0
  140.2678   79.4834  221.9773 H   0  0  0  0  0  0  0  0  0  0  0  0
  141.7780   79.0220  222.8859 H   0  0  0  0  0  0  0  0  0  0  0  0
  142.2127   79.5930  220.4948 H   0  0  0  0  0  0  0  0  0  0  0  0
  142.6905   77.9366  220.9073 H   0  0  0  0  0  0  0  0  0  0  0  0
  139.9244   78.6781  219.8478 H   0  0  0  0  0  0  0  0  0  0  0  0
  141.2753   78.1923  218.7831 H   0  0  0  0  0  0  0  0  0  0  0  0
  139.8510   76.2221  219.4003 H   0  0  0  0  0  0  0  0  0  0  0  0
  142.3453   76.5737  218.0188 H   0  0  0  0  0  0  0  0  0  0  0  0
  144.3730   75.1947  217.7947 H   0  0  0  0  0  0  0  0  0  0  0  0
  143.6033   73.4667  221.6258 H   0  0  0  0  0  0  0  0  0  0  0  0
  141.5838   74.8409  221.8507 H   0  0  0  0  0  0  0  0  0  0  0  0
  139.1720   69.8909  222.5446 H   0  0  0  0  0  0  0  0  0  0  0  0
  139.0655   68.3532  224.5154 H   0  0  0  0  0  0  0  0  0  0  0  0
  139.5310   67.9908  226.9291 H   0  0  0  0  0  0  0  0  0  0  0  0
  140.4036   68.8252  229.0788 H   0  0  0  0  0  0  0  0  0  0  0  0
  141.3531   71.1295  229.2515 H   0  0  0  0  0  0  0  0  0  0  0  0
  141.4030   72.5762  227.2119 H   0  0  0  0  0  0  0  0  0  0  0  0
  1  2  2  0
  2  3  1  0
  3  4  1  0
  4  5  1  0
  5  6  2  0
  5  7  1  0
  7  8  1  0
  8  9  1  0
  9 10  1  0
 10 11  1  0
 11 12  1  0
 12 13  1  0
 13 14  2  0
 14 15  1  0
 15 16  2  0
 16 17  1  0
 17 18  1  0
 17 19  1  0
 17 20  1  0
 16 21  1  0
 21 22  2  0
  2 23  1  0
 23 24  2  0
 24 25  1  0
 25 26  2  0
 26 27  1  0
 27 28  2  0
 28 29  1  0
 29 30  2  0
 30 31  1  0
 31 32  2  0
 12  7  1  0
 22 13  1  0
 32 23  1  0
 31 26  1  0
  3 33  1  0
  4 34  1  0
  4 35  1  0
  8 36  1  0
  8 37  1  0
  9 38  1  0
  9 39  1  0
 10 40  1  0
 10 41  1  0
 11 42  1  0
 11 43  1  0
 12 44  1  6
 14 45  1  0
 15 46  1  0
 21 47  1  0
 22 48  1  0
 24 49  1  0
 25 50  1  0
 27 51  1  0
 28 52  1  0
 29 53  1  0
 30 54  1  0
M  END
>  <meeko>  (15) 
{"free_energy": -8.51, "intermolecular_energy": -10.3, "internal_energy": -1.75, "cluster_size": 7, "cluster_id": 1, "rank_in_cluster": 2}

$$$$

     RDKit          3D

 54 57  0  0  0  0  0  0  0  0999 V2000
  137.2940   76.1310  222.3620 O   0  0  0  0  0  0  0  0  0  0  0  0
  138.5580   76.2920  222.4030 C   0  0  0  0  0  0  0  0  0  0  0  0
  139.4270   75.1880  222.1570 N   0  0  0  0  0  0  0  0  0  0  0  0
  138.9120   73.8890  221.8640 C   0  0  0  0  0  0  0  0  0  0  0  0
  139.8810   72.8020  222.1360 C   0  0  0  0  0  0  0  0  0  0  0  0
  141.0770   73.1390  222.3310 O   0  0  0  0  0  0  0  0  0  0  0  0
  139.4360   71.4450  222.1670 N   0  0  0  0  0  0  0  0  0  0  0  0
  140.0020   70.4870  221.2420 C   0  0  0  0  0  0  0  0  0  0  0  0
  139.1170   69.3230  220.9450 C   0  0  0  0  0  0  0  0  0  0  0  0
  138.2550   68.9230  222.1260 C   0  0  0  0  0  0  0  0  0  0  0  0
  137.4800   70.1370  222.5030 C   0  0  0  0  0  0  0  0  0  0  0  0
  138.4220   71.1160  223.1450 C   0  0  1  0  0  0  0  0  0  0  0  0
  138.9640   70.5750  224.4160 C   0  0  0  0  0  0  0  0  0  0  0  0
  138.3700   69.5510  225.1230 C   0  0  0  0  0  0  0  0  0  0  0  0
  138.8960   69.0520  226.3080 C   0  0  0  0  0  0  0  0  0  0  0  0
  140.0560   69.5750  226.8320 C   0  0  0  0  0  0  0  0  0  0  0  0
  140.6730   69.0940  228.0890 C   0  0  0  0  0  0  0  0  0  0  0  0
  141.4460   67.9700  227.8900 F   0  0  0  0  0  0  0  0  0  0  0  0
  139.6900   68.8890  229.0490 F   0  0  0  0  0  0  0  0  0  0  0  0
  141.5210   70.0860  228.5540 F   0  0  0  0  0  0  0  0  0  0  0  0
  140.6680   70.5970  226.1470 C   0  0  0  0  0  0  0  0  0  0  0  0
  140.1400   71.0870  224.9700 C   0  0  0  0  0  0  0  0  0  0  0  0
  139.1220   77.6060  222.7000 C   0  0  0  0  0  0  0  0  0  0  0  0
  138.2750   78.6750  222.9160 C   0  0  0  0  0  0  0  0  0  0  0  0
  138.8330   79.9180  223.1980 C   0  0  0  0  0  0  0  0  0  0  0  0
  140.2170   80.0690  223.2580 C   0  0  0  0  0  0  0  0  0  0  0  0
  140.8370   81.2500  223.5270 C   0  0  0  0  0  0  0  0  0  0  0  0
  142.2150   81.3450  223.5750 C   0  0  0  0  0  0  0  0  0  0  0  0
  143.0100   80.2240  223.3460 C   0  0  0  0  0  0  0  0  0  0  0  0
  142.3950   79.0160  223.0710 C   0  0  0  0  0  0  0  0  0  0  0  0
  141.0170   78.9610  223.0320 C   0  0  0  0  0  0  0  0  0  0  0  0
  140.4560   77.7690  222.7620 N   0  0  0  0  0  0  0  0  0  0  0  0
  140.4530   75.3850  222.2040 H   0  0  0  0  0  0  0  0  0  0  0  0
  138.0162   73.7210  222.4799 H   0  0  0  0  0  0  0  0  0  0  0  0
  138.6847   73.8626  220.7881 H   0  0  0  0  0  0  0  0  0  0  0  0
  140.2167   71.0065  220.2965 H   0  0  0  0  0  0  0  0  0  0  0  0
  140.9050   70.0816  221.7219 H   0  0  0  0  0  0  0  0  0  0  0  0
  138.4595   69.5873  220.1037 H   0  0  0  0  0  0  0  0  0  0  0  0
  139.7652   68.4676  220.7038 H   0  0  0  0  0  0  0  0  0  0  0  0
  137.5731   68.1080  221.8420 H   0  0  0  0  0  0  0  0  0  0  0  0
  138.8670   68.5609  222.9652 H   0  0  0  0  0  0  0  0  0  0  0  0
  137.0317   70.5863  221.6046 H   0  0  0  0  0  0  0  0  0  0  0  0
  136.6743   69.8707  223.2029 H   0  0  0  0  0  0  0  0  0  0  0  0
  137.9057   72.0430  223.4350 H   0  0  0  0  0  0  0  0  0  0  0  0
  137.4407   69.1108  224.7324 H   0  0  0  0  0  0  0  0  0  0  0  0
  138.3814   68.2327  226.8314 H   0  0  0  0  0  0  0  0  0  0  0  0
  141.5965   71.0328  226.5445 H   0  0  0  0  0  0  0  0  0  0  0  0
  140.6609   71.9058  224.4521 H   0  0  0  0  0  0  0  0  0  0  0  0
  137.1836   78.5467  222.8662 H   0  0  0  0  0  0  0  0  0  0  0  0
  138.1791   80.7848  223.3743 H   0  0  0  0  0  0  0  0  0  0  0  0
  140.2287   82.1480  223.7101 H   0  0  0  0  0  0  0  0  0  0  0  0
  142.6878   82.3134  223.7958 H   0  0  0  0  0  0  0  0  0  0  0  0
  144.1069   80.2983  223.3832 H   0  0  0  0  0  0  0  0  0  0  0  0
  142.9954   78.1130  222.8862 H   0  0  0  0  0  0  0  0  0  0  0  0
  1  2  2  0
  2  3  1  0
  3  4  1  0
  4  5  1  0
  5  6  2  0
  5  7  1  0
  7  8  1  0
  8  9  1  0
  9 10  1  0
 10 11  1  0
 11 12  1  0
 12 13  1  0
 13 14  2  0
 14 15  1  0
 15 16  2  0
 16 17  1  0
 17 18  1  0
 17 19  1  0
 17 20  1  0
 16 21  1  0
 21 22  2  0
  2 23  1  0
 23 24  2  0
 24 25  1  0
 25 26  2  0
 26 27  1  0
 27 28  2  0
 28 29  1  0
 29 30  2  0
 30 31  1  0
 31 32  2  0
 12  7  1  0
 22 13  1  0
 32 23  1  0
 31 26  1  0
  3 33  1  0
  4 34  1  0
  4 35  1  0
  8 36  1  0
  8 37  1  0
  9 38  1  0
  9 39  1  0
 10 40  1  0
 10 41  1  0
 11 42  1  0
 11 43  1  0
 12 44  1  1
 14 45  1  0
 15 46  1  0
 21 47  1  0
 22 48  1  0
 24 49  1  0
 25 50  1  0
 27 51  1  0
 28 52  1  0
 29 53  1  0
 30 54  1  0
M  END
>  <meeko>  (16) 
{"free_energy": -8.14, "intermolecular_energy": -9.93, "internal_energy": -2.07, "cluster_size": 5, "cluster_id": 3, "rank_in_cluster": 5}

$$$$

     RDKit          3D

 54 57  0  0  0  0  0  0  0  0999 V2000
  137.9960   70.4310  222.0180 O   0  0  0  0  0  0  0  0  0  0  0  0
  138.7080   70.9310  222.9500 C   0  0  0  0  0  0  0  0  0  0  0  0
  139.1220   72.2940  222.8820 N   0  0  0  0  0  0  0  0  0  0  0  0
  138.7550   73.1250  221.7810 C   0  0  0  0  0  0  0  0  0  0  0  0
  139.5890   74.3450  221.6680 C   0  0  0  0  0  0  0  0  0  0  0  0
  140.7850   74.2560  222.0440 O   0  0  0  0  0  0  0  0  0  0  0  0
  139.0200   75.5490  221.1520 N   0  0  0  0  0  0  0  0  0  0  0  0
  137.6560   75.8970  221.4890 C   0  0  0  0  0  0  0  0  0  0  0  0
  136.9850   76.7840  220.4960 C   0  0  0  0  0  0  0  0  0  0  0  0
  137.9430   77.7500  219.8260 C   0  0  0  0  0  0  0  0  0  0  0  0
  139.0070   76.9130  219.2050 C   0  0  0  0  0  0  0  0  0  0  0  0
  139.8690   76.3570  220.3030 C   0  0  1  0  0  0  0  0  0  0  0  0
  140.5810   77.4430  221.0200 C   0  0  0  0  0  0  0  0  0  0  0  0
  141.0990   78.5570  220.3950 C   0  0  0  0  0  0  0  0  0  0  0  0
  141.7560   79.5690  221.0840 C   0  0  0  0  0  0  0  0  0  0  0  0
  141.9180   79.4920  222.4480 C   0  0  0  0  0  0  0  0  0  0  0  0
  142.6070   80.5310  223.2480 C   0  0  0  0  0  0  0  0  0  0  0  0
  143.9710   80.5140  223.0520 F   0  0  0  0  0  0  0  0  0  0  0  0
  142.2700   80.3950  224.5890 F   0  0  0  0  0  0  0  0  0  0  0  0
  142.1560   81.7680  222.8200 F   0  0  0  0  0  0  0  0  0  0  0  0
  141.4110   78.3910  223.0960 C   0  0  0  0  0  0  0  0  0  0  0  0
  140.7590   77.3910  222.4050 C   0  0  0  0  0  0  0  0  0  0  0  0
  139.1030   70.1100  224.0930 C   0  0  0  0  0  0  0  0  0  0  0  0
  138.8320   68.7560  224.0820 C   0  0  0  0  0  0  0  0  0  0  0  0
  139.2170   67.9930  225.1810 C   0  0  0  0  0  0  0  0  0  0  0  0
  139.8600   68.5920  226.2610 C   0  0  0  0  0  0  0  0  0  0  0  0
  140.2660   67.9160  227.3690 C   0  0  0  0  0  0  0  0  0  0  0  0
  140.9010   68.5600  228.4140 C   0  0  0  0  0  0  0  0  0  0  0  0
  141.1430   69.9310  228.3590 C   0  0  0  0  0  0  0  0  0  0  0  0
  140.7360   70.6340  227.2390 C   0  0  0  0  0  0  0  0  0  0  0  0
  140.1060   69.9560  226.2170 C   0  0  0  0  0  0  0  0  0  0  0  0
  139.7250   70.6730  225.1440 N   0  0  0  0  0  0  0  0  0  0  0  0
  139.7030   72.6430  223.6770 H   0  0  0  0  0  0  0  0  0  0  0  0
  138.8592   72.5429  220.8535 H   0  0  0  0  0  0  0  0  0  0  0  0
  137.7182   73.4518  221.9489 H   0  0  0  0  0  0  0  0  0  0  0  0
  137.0733   74.9675  221.5695 H   0  0  0  0  0  0  0  0  0  0  0  0
  137.6988   76.4584  222.4340 H   0  0  0  0  0  0  0  0  0  0  0  0
  136.5209   76.1558  219.7214 H   0  0  0  0  0  0  0  0  0  0  0  0
  136.2386   77.3824  221.0390 H   0  0  0  0  0  0  0  0  0  0  0  0
  137.4189   78.3346  219.0556 H   0  0  0  0  0  0  0  0  0  0  0  0
  138.3643   78.4642  220.5488 H   0  0  0  0  0  0  0  0  0  0  0  0
  138.5490   76.0891  218.6380 H   0  0  0  0  0  0  0  0  0  0  0  0
  139.6136   77.5196  218.5165 H   0  0  0  0  0  0  0  0  0  0  0  0
  140.6696   75.7170  219.9037 H   0  0  0  0  0  0  0  0  0  0  0  0
  140.9875   78.6487  219.3045 H   0  0  0  0  0  0  0  0  0  0  0  0
  142.1492   80.4375  220.5352 H   0  0  0  0  0  0  0  0  0  0  0  0
  141.5274   78.3057  224.1865 H   0  0  0  0  0  0  0  0  0  0  0  0
  140.3673   76.5264  222.9610 H   0  0  0  0  0  0  0  0  0  0  0  0
  138.3236   68.2909  223.2245 H   0  0  0  0  0  0  0  0  0  0  0  0
  139.0123   66.9123  225.1962 H   0  0  0  0  0  0  0  0  0  0  0  0
  140.0850   66.8330  227.4349 H   0  0  0  0  0  0  0  0  0  0  0  0
  141.2181   67.9853  229.2967 H   0  0  0  0  0  0  0  0  0  0  0  0
  141.6481   70.4447  229.1902 H   0  0  0  0  0  0  0  0  0  0  0  0
  140.9123   71.7173  227.1650 H   0  0  0  0  0  0  0  0  0  0  0  0
  1  2  2  0
  2  3  1  0
  3  4  1  0
  4  5  1  0
  5  6  2  0
  5  7  1  0
  7  8  1  0
  8  9  1  0
  9 10  1  0
 10 11  1  0
 11 12  1  0
 12 13  1  0
 13 14  2  0
 14 15  1  0
 15 16  2  0
 16 17  1  0
 17 18  1  0
 17 19  1  0
 17 20  1  0
 16 21  1  0
 21 22  2  0
  2 23  1  0
 23 24  2  0
 24 25  1  0
 25 26  2  0
 26 27  1  0
 27 28  2  0
 28 29  1  0
 29 30  2  0
 30 31  1  0
 31 32  2  0
 12  7  1  0
 22 13  1  0
 32 23  1  0
 31 26  1  0
  3 33  1  0
  4 34  1  0
  4 35  1  0
  8 36  1  0
  8 37  1  0
  9 38  1  0
  9 39  1  0
 10 40  1  0
 10 41  1  0
 11 42  1  0
 11 43  1  0
 12 44  1  6
 14 45  1  0
 15 46  1  0
 21 47  1  0
 22 48  1  0
 24 49  1  0
 25 50  1  0
 27 51  1  0
 28 52  1  0
 29 53  1  0
 30 54  1  0
M  END
>  <meeko>  (17) 
{"free_energy": -8.18, "intermolecular_energy": -9.97, "internal_energy": -1.91, "cluster_size": 6, "cluster_id": 2, "rank_in_cluster": 3}

$$$$

     RDKit          3D

 54 57  0  0  0  0  0  0  0  0999 V2000
  137.2960   76.1420  222.4290 O   0  0  0  0  0  0  0  0  0  0  0  0
  138.5610   76.3000  222.4510 C   0  0  0  0  0  0  0  0  0  0  0  0
  139.4250   75.1900  222.2190 N   0  0  0  0  0  0  0  0  0  0  0  0
  138.9030   73.8870  221.9580 C   0  0  0  0  0  0  0  0  0  0  0  0
  139.8840   72.8040  222.2090 C   0  0  0  0  0  0  0  0  0  0  0  0
  141.0880   73.1440  222.3320 O   0  0  0  0  0  0  0  0  0  0  0  0
  139.4400   71.4500  222.3000 N   0  0  0  0  0  0  0  0  0  0  0  0
  139.9210   70.4750  221.3460 C   0  0  0  0  0  0  0  0  0  0  0  0
  139.0110   69.3100  221.1450 C   0  0  0  0  0  0  0  0  0  0  0  0
  138.2520   68.9320  222.4020 C   0  0  0  0  0  0  0  0  0  0  0  0
  137.5160   70.1560  222.8250 C   0  0  0  0  0  0  0  0  0  0  0  0
  138.5130   71.1410  223.3670 C   0  0  1  0  0  0  0  0  0  0  0  0
  139.1600   70.6190  224.5960 C   0  0  0  0  0  0  0  0  0  0  0  0
  140.3520   71.1020  225.0930 C   0  0  0  0  0  0  0  0  0  0  0  0
  140.9400   70.6060  226.2500 C   0  0  0  0  0  0  0  0  0  0  0  0
  140.3400   69.5900  226.9570 C   0  0  0  0  0  0  0  0  0  0  0  0
  140.9080   69.0110  228.1970 C   0  0  0  0  0  0  0  0  0  0  0  0
  141.8250   69.8540  228.7880 F   0  0  0  0  0  0  0  0  0  0  0  0
  141.4460   67.7590  227.9290 F   0  0  0  0  0  0  0  0  0  0  0  0
  139.8730   68.8450  229.1030 F   0  0  0  0  0  0  0  0  0  0  0  0
  139.1500   69.0900  226.4830 C   0  0  0  0  0  0  0  0  0  0  0  0
  138.5720   69.5880  225.3330 C   0  0  0  0  0  0  0  0  0  0  0  0
  139.1310   77.6190  222.7150 C   0  0  0  0  0  0  0  0  0  0  0  0
  138.2900   78.6980  222.9010 C   0  0  0  0  0  0  0  0  0  0  0  0
  138.8540   79.9450  223.1520 C   0  0  0  0  0  0  0  0  0  0  0  0
  140.2380   80.0900  223.2110 C   0  0  0  0  0  0  0  0  0  0  0  0
  140.8650   81.2740  223.4500 C   0  0  0  0  0  0  0  0  0  0  0  0
  142.2430   81.3630  223.4990 C   0  0  0  0  0  0  0  0  0  0  0  0
  143.0330   80.2320  223.3020 C   0  0  0  0  0  0  0  0  0  0  0  0
  142.4120   79.0210  223.0570 C   0  0  0  0  0  0  0  0  0  0  0  0
  141.0340   78.9720  223.0160 C   0  0  0  0  0  0  0  0  0  0  0  0
  140.4660   77.7760  222.7760 N   0  0  0  0  0  0  0  0  0  0  0  0
  140.4510   75.3850  222.2500 H   0  0  0  0  0  0  0  0  0  0  0  0
  138.0291   73.7242  222.6059 H   0  0  0  0  0  0  0  0  0  0  0  0
  138.6390   73.8482  220.8908 H   0  0  0  0  0  0  0  0  0  0  0  0
  140.0549   70.9784  220.3771 H   0  0  0  0  0  0  0  0  0  0  0  0
  140.8605   70.0734  221.7534 H   0  0  0  0  0  0  0  0  0  0  0  0
  138.2845   69.5633  220.3589 H   0  0  0  0  0  0  0  0  0  0  0  0
  139.6342   68.4484  220.8634 H   0  0  0  0  0  0  0  0  0  0  0  0
  137.5455   68.1159  222.1903 H   0  0  0  0  0  0  0  0  0  0  0  0
  138.9324   68.5798  223.1913 H   0  0  0  0  0  0  0  0  0  0  0  0
  136.9930   70.5928  221.9615 H   0  0  0  0  0  0  0  0  0  0  0  0
  136.7732   69.9046  223.5963 H   0  0  0  0  0  0  0  0  0  0  0  0
  138.0266   72.0751  223.6846 H   0  0  0  0  0  0  0  0  0  0  0  0
  140.8586   71.9140  224.5508 H   0  0  0  0  0  0  0  0  0  0  0  0
  141.8921   71.0288  226.6032 H   0  0  0  0  0  0  0  0  0  0  0  0
  138.6494   68.2779  227.0307 H   0  0  0  0  0  0  0  0  0  0  0  0
  137.6197   69.1603  224.9862 H   0  0  0  0  0  0  0  0  0  0  0  0
  137.1980   78.5746  222.8519 H   0  0  0  0  0  0  0  0  0  0  0  0
  138.2044   80.8195  223.3044 H   0  0  0  0  0  0  0  0  0  0  0  0
  140.2615   82.1801  223.6076 H   0  0  0  0  0  0  0  0  0  0  0  0
  142.7203   82.3345  223.6951 H   0  0  0  0  0  0  0  0  0  0  0  0
  144.1301   80.3013  223.3407 H   0  0  0  0  0  0  0  0  0  0  0  0
  143.0079   78.1103  222.8972 H   0  0  0  0  0  0  0  0  0  0  0  0
  1  2  2  0
  2  3  1  0
  3  4  1  0
  4  5  1  0
  5  6  2  0
  5  7  1  0
  7  8  1  0
  8  9  1  0
  9 10  1  0
 10 11  1  0
 11 12  1  0
 12 13  1  0
 13 14  2  0
 14 15  1  0
 15 16  2  0
 16 17  1  0
 17 18  1  0
 17 19  1  0
 17 20  1  0
 16 21  1  0
 21 22  2  0
  2 23  1  0
 23 24  2  0
 24 25  1  0
 25 26  2  0
 26 27  1  0
 27 28  2  0
 28 29  1  0
 29 30  2  0
 30 31  1  0
 31 32  2  0
 12  7  1  0
 22 13  1  0
 32 23  1  0
 31 26  1  0
  3 33  1  0
  4 34  1  0
  4 35  1  0
  8 36  1  0
  8 37  1  0
  9 38  1  0
  9 39  1  0
 10 40  1  0
 10 41  1  0
 11 42  1  0
 11 43  1  0
 12 44  1  1
 14 45  1  0
 15 46  1  0
 21 47  1  0
 22 48  1  0
 24 49  1  0
 25 50  1  0
 27 51  1  0
 28 52  1  0
 29 53  1  0
 30 54  1  0
M  END
>  <meeko>  (18) 
{"free_energy": -8.28, "intermolecular_energy": -10.07, "internal_energy": -2.05, "cluster_size": 5, "cluster_id": 3, "rank_in_cluster": 1}

$$$$

     RDKit          3D

 54 57  0  0  0  0  0  0  0  0999 V2000
  138.3710   70.5380  221.7810 O   0  0  0  0  0  0  0  0  0  0  0  0
  138.9500   71.0790  222.7790 C   0  0  0  0  0  0  0  0  0  0  0  0
  139.3110   72.4580  222.7350 N   0  0  0  0  0  0  0  0  0  0  0  0
  139.0360   73.2600  221.5860 C   0  0  0  0  0  0  0  0  0  0  0  0
  139.9670   74.4040  221.4370 C   0  0  0  0  0  0  0  0  0  0  0  0
  141.0630   74.3310  222.0500 O   0  0  0  0  0  0  0  0  0  0  0  0
  139.5990   75.5180  220.6240 N   0  0  0  0  0  0  0  0  0  0  0  0
  138.1990   75.7920  220.3790 C   0  0  0  0  0  0  0  0  0  0  0  0
  137.9320   76.5470  219.1210 C   0  0  0  0  0  0  0  0  0  0  0  0
  139.0380   77.5230  218.7730 C   0  0  0  0  0  0  0  0  0  0  0  0
  140.2890   76.7190  218.6920 C   0  0  0  0  0  0  0  0  0  0  0  0
  140.6800   76.3160  220.0860 C   0  0  1  0  0  0  0  0  0  0  0  0
  141.0200   77.5040  220.9070 C   0  0  0  0  0  0  0  0  0  0  0  0
  141.5700   78.6560  220.3880 C   0  0  0  0  0  0  0  0  0  0  0  0
  141.8750   79.7620  221.1710 C   0  0  0  0  0  0  0  0  0  0  0  0
  141.6320   79.7470  222.5260 C   0  0  0  0  0  0  0  0  0  0  0  0
  141.9320   80.8870  223.4220 C   0  0  0  0  0  0  0  0  0  0  0  0
  143.0640   80.6690  224.1770 F   0  0  0  0  0  0  0  0  0  0  0  0
  140.8240   81.1700  224.2120 F   0  0  0  0  0  0  0  0  0  0  0  0
  142.1840   81.9960  222.6310 F   0  0  0  0  0  0  0  0  0  0  0  0
  141.0840   78.6100  223.0690 C   0  0  0  0  0  0  0  0  0  0  0  0
  140.7840   77.5150  222.2840 C   0  0  0  0  0  0  0  0  0  0  0  0
  139.2480   70.2900  223.9720 C   0  0  0  0  0  0  0  0  0  0  0  0
  138.9040   68.9530  224.0050 C   0  0  0  0  0  0  0  0  0  0  0  0
  139.1970   68.2200  225.1510 C   0  0  0  0  0  0  0  0  0  0  0  0
  139.8220   68.8320  226.2350 C   0  0  0  0  0  0  0  0  0  0  0  0
  140.1390   68.1840  227.3880 C   0  0  0  0  0  0  0  0  0  0  0  0
  140.7600   68.8390  228.4350 C   0  0  0  0  0  0  0  0  0  0  0  0
  141.0790   70.1920  228.3340 C   0  0  0  0  0  0  0  0  0  0  0  0
  140.7620   70.8650  227.1680 C   0  0  0  0  0  0  0  0  0  0  0  0
  140.1430   70.1770  226.1460 C   0  0  0  0  0  0  0  0  0  0  0  0
  139.8510   70.8660  225.0280 N   0  0  0  0  0  0  0  0  0  0  0  0
  139.7830   72.8420  223.5850 H   0  0  0  0  0  0  0  0  0  0  0  0
  139.1143   72.6263  220.6903 H   0  0  0  0  0  0  0  0  0  0  0  0
  138.0250   73.6750  221.7109 H   0  0  0  0  0  0  0  0  0  0  0  0
  137.6646   74.8321  220.3246 H   0  0  0  0  0  0  0  0  0  0  0  0
  137.8530   76.4279  221.2072 H   0  0  0  0  0  0  0  0  0  0  0  0
  137.8262   75.8276  218.2956 H   0  0  0  0  0  0  0  0  0  0  0  0
  137.0127   77.1311  219.2753 H   0  0  0  0  0  0  0  0  0  0  0  0
  138.8311   78.0054  217.8063 H   0  0  0  0  0  0  0  0  0  0  0  0
  139.1213   78.3206  219.5259 H   0  0  0  0  0  0  0  0  0  0  0  0
  140.1158   75.8216  218.0798 H   0  0  0  0  0  0  0  0  0  0  0  0
  141.0918   77.3114  218.2288 H   0  0  0  0  0  0  0  0  0  0  0  0
  141.5958   75.7067  220.0889 H   0  0  0  0  0  0  0  0  0  0  0  0
  141.7761   78.7016  219.3084 H   0  0  0  0  0  0  0  0  0  0  0  0
  142.3139   80.6565  220.7050 H   0  0  0  0  0  0  0  0  0  0  0  0
  140.8806   78.5717  224.1493 H   0  0  0  0  0  0  0  0  0  0  0  0
  140.3457   76.6238  222.7570 H   0  0  0  0  0  0  0  0  0  0  0  0
  138.4095   68.4781  223.1448 H   0  0  0  0  0  0  0  0  0  0  0  0
  138.9340   67.1531  225.2010 H   0  0  0  0  0  0  0  0  0  0  0  0
  139.8961   67.1160  227.4895 H   0  0  0  0  0  0  0  0  0  0  0  0
  141.0043   68.2880  229.3552 H   0  0  0  0  0  0  0  0  0  0  0  0
  141.5736   70.7147  229.1660 H   0  0  0  0  0  0  0  0  0  0  0  0
  141.0002   71.9332  227.0577 H   0  0  0  0  0  0  0  0  0  0  0  0
  1  2  2  0
  2  3  1  0
  3  4  1  0
  4  5  1  0
  5  6  2  0
  5  7  1  0
  7  8  1  0
  8  9  1  0
  9 10  1  0
 10 11  1  0
 11 12  1  0
 12 13  1  0
 13 14  2  0
 14 15  1  0
 15 16  2  0
 16 17  1  0
 17 18  1  0
 17 19  1  0
 17 20  1  0
 16 21  1  0
 21 22  2  0
  2 23  1  0
 23 24  2  0
 24 25  1  0
 25 26  2  0
 26 27  1  0
 27 28  2  0
 28 29  1  0
 29 30  2  0
 30 31  1  0
 31 32  2  0
 12  7  1  0
 22 13  1  0
 32 23  1  0
 31 26  1  0
  3 33  1  0
  4 34  1  0
  4 35  1  0
  8 36  1  0
  8 37  1  0
  9 38  1  0
  9 39  1  0
 10 40  1  0
 10 41  1  0
 11 42  1  0
 11 43  1  0
 12 44  1  6
 14 45  1  0
 15 46  1  0
 21 47  1  0
 22 48  1  0
 24 49  1  0
 25 50  1  0
 27 51  1  0
 28 52  1  0
 29 53  1  0
 30 54  1  0
M  END
>  <meeko>  (19) 
{"free_energy": -8.15, "intermolecular_energy": -9.94, "internal_energy": -1.94, "cluster_size": 6, "cluster_id": 2, "rank_in_cluster": 4}

$$$$

     RDKit          3D

 54 57  0  0  0  0  0  0  0  0999 V2000
  137.2820   76.1290  222.3710 O   0  0  0  0  0  0  0  0  0  0  0  0
  138.5450   76.2890  222.4250 C   0  0  0  0  0  0  0  0  0  0  0  0
  139.4170   75.1780  222.2230 N   0  0  0  0  0  0  0  0  0  0  0  0
  138.9040   73.8720  221.9590 C   0  0  0  0  0  0  0  0  0  0  0  0
  139.8940   72.7970  222.2000 C   0  0  0  0  0  0  0  0  0  0  0  0
  141.0960   73.1450  222.3260 O   0  0  0  0  0  0  0  0  0  0  0  0
  139.4620   71.4380  222.2770 N   0  0  0  0  0  0  0  0  0  0  0  0
  139.9670   70.4710  221.3260 C   0  0  0  0  0  0  0  0  0  0  0  0
  139.0720   69.2990  221.1070 C   0  0  0  0  0  0  0  0  0  0  0  0
  138.2990   68.9080  222.3500 C   0  0  0  0  0  0  0  0  0  0  0  0
  137.5440   70.1220  222.7680 C   0  0  0  0  0  0  0  0  0  0  0  0
  138.5230   71.1140  223.3300 C   0  0  1  0  0  0  0  0  0  0  0  0
  139.1570   70.5920  224.5650 C   0  0  0  0  0  0  0  0  0  0  0  0
  140.3820   71.0190  225.0310 C   0  0  0  0  0  0  0  0  0  0  0  0
  140.9580   70.5250  226.1950 C   0  0  0  0  0  0  0  0  0  0  0  0
  140.3100   69.5680  226.9420 C   0  0  0  0  0  0  0  0  0  0  0  0
  140.8620   68.9950  228.1910 C   0  0  0  0  0  0  0  0  0  0  0  0
  141.7800   69.8350  228.7840 F   0  0  0  0  0  0  0  0  0  0  0  0
  141.3920   67.7360  227.9390 F   0  0  0  0  0  0  0  0  0  0  0  0
  139.8180   68.8450  229.0890 F   0  0  0  0  0  0  0  0  0  0  0  0
  139.0860   69.1250  226.5000 C   0  0  0  0  0  0  0  0  0  0  0  0
  138.5210   69.6210  225.3420 C   0  0  0  0  0  0  0  0  0  0  0  0
  139.1070   77.6110  222.6940 C   0  0  0  0  0  0  0  0  0  0  0  0
  138.2590   78.6870  222.8620 C   0  0  0  0  0  0  0  0  0  0  0  0
  138.8140   79.9370  223.1180 C   0  0  0  0  0  0  0  0  0  0  0  0
  140.1970   80.0870  223.2000 C   0  0  0  0  0  0  0  0  0  0  0  0
  140.8150   81.2740  223.4450 C   0  0  0  0  0  0  0  0  0  0  0  0
  142.1920   81.3680  223.5150 C   0  0  0  0  0  0  0  0  0  0  0  0
  142.9890   80.2390  223.3350 C   0  0  0  0  0  0  0  0  0  0  0  0
  142.3760   79.0250  223.0840 C   0  0  0  0  0  0  0  0  0  0  0  0
  140.9990   78.9710  223.0210 C   0  0  0  0  0  0  0  0  0  0  0  0
  140.4400   77.7730  222.7760 N   0  0  0  0  0  0  0  0  0  0  0  0
  140.4420   75.3760  222.2800 H   0  0  0  0  0  0  0  0  0  0  0  0
  138.0348   73.6994  222.6107 H   0  0  0  0  0  0  0  0  0  0  0  0
  138.6347   73.8357  220.8931 H   0  0  0  0  0  0  0  0  0  0  0  0
  140.1106   70.9795  220.3612 H   0  0  0  0  0  0  0  0  0  0  0  0
  140.9042   70.0768  221.7459 H   0  0  0  0  0  0  0  0  0  0  0  0
  138.3546   69.5489  220.3115 H   0  0  0  0  0  0  0  0  0  0  0  0
  139.7077   68.4448  220.8309 H   0  0  0  0  0  0  0  0  0  0  0  0
  137.6042   68.0857  222.1242 H   0  0  0  0  0  0  0  0  0  0  0  0
  138.9716   68.5595  223.1476 H   0  0  0  0  0  0  0  0  0  0  0  0
  137.0296   70.5581  221.8990 H   0  0  0  0  0  0  0  0  0  0  0  0
  136.7920   69.8591  223.5265 H   0  0  0  0  0  0  0  0  0  0  0  0
  138.0233   72.0415  223.6462 H   0  0  0  0  0  0  0  0  0  0  0  0
  140.9266   71.7832  224.4571 H   0  0  0  0  0  0  0  0  0  0  0  0
  141.9386   70.9015  226.5216 H   0  0  0  0  0  0  0  0  0  0  0  0
  138.5468   68.3613  227.0796 H   0  0  0  0  0  0  0  0  0  0  0  0
  137.5401   69.2399  225.0215 H   0  0  0  0  0  0  0  0  0  0  0  0
  137.1685   78.5591  222.7950 H   0  0  0  0  0  0  0  0  0  0  0  0
  138.1588   80.8097  223.2561 H   0  0  0  0  0  0  0  0  0  0  0  0
  140.2057   82.1782  223.5905 H   0  0  0  0  0  0  0  0  0  0  0  0
  142.6628   82.3419  223.7144 H   0  0  0  0  0  0  0  0  0  0  0  0
  144.0851   80.3121  223.3915 H   0  0  0  0  0  0  0  0  0  0  0  0
  142.9775   78.1159  222.9368 H   0  0  0  0  0  0  0  0  0  0  0  0
  1  2  2  0
  2  3  1  0
  3  4  1  0
  4  5  1  0
  5  6  2  0
  5  7  1  0
  7  8  1  0
  8  9  1  0
  9 10  1  0
 10 11  1  0
 11 12  1  0
 12 13  1  0
 13 14  2  0
 14 15  1  0
 15 16  2  0
 16 17  1  0
 17 18  1  0
 17 19  1  0
 17 20  1  0
 16 21  1  0
 21 22  2  0
  2 23  1  0
 23 24  2  0
 24 25  1  0
 25 26  2  0
 26 27  1  0
 27 28  2  0
 28 29  1  0
 29 30  2  0
 30 31  1  0
 31 32  2  0
 12  7  1  0
 22 13  1  0
 32 23  1  0
 31 26  1  0
  3 33  1  0
  4 34  1  0
  4 35  1  0
  8 36  1  0
  8 37  1  0
  9 38  1  0
  9 39  1  0
 10 40  1  0
 10 41  1  0
 11 42  1  0
 11 43  1  0
 12 44  1  1
 14 45  1  0
 15 46  1  0
 21 47  1  0
 22 48  1  0
 24 49  1  0
 25 50  1  0
 27 51  1  0
 28 52  1  0
 29 53  1  0
 30 54  1  0
M  END
>  <meeko>  (20) 
{"free_energy": -8.21, "intermolecular_energy": -10.0, "internal_energy": -2.1, "cluster_size": 5, "cluster_id": 3, "rank_in_cluster": 4}

$$$$
