
     RDKit          3D

 59 63  0  0  0  0  0  0  0  0999 V2000
  140.0310   70.9530  221.2980 O   0  0  0  0  0  0  0  0  0  0  0  0
  139.8910   71.5580  222.4140 C   0  0  0  0  0  0  0  0  0  0  0  0
  139.6930   72.9570  222.5020 N   0  0  0  0  0  0  0  0  0  0  0  0
  139.6440   73.7680  221.2610 C   0  0  0  0  0  0  0  0  0  0  0  0
  140.7440   74.7220  221.2300 C   0  0  0  0  0  0  0  0  0  0  0  0
  140.7720   75.5500  222.2360 O   0  0  0  0  0  0  0  0  0  0  0  0
  141.7690   74.8950  220.3080 N   0  0  0  0  0  0  0  0  0  0  0  0
  141.6340   75.9140  219.2140 C   0  0  0  0  0  0  0  0  0  0  0  0
  142.9210   76.6680  219.4400 C   0  0  2  0  0  0  0  0  0  0  0  0
  143.3160   77.3620  218.2910 O   0  0  0  0  0  0  0  0  0  0  0  0
  143.8950   75.6250  219.8430 C   0  0  0  0  0  0  0  0  0  0  0  0
  143.0800   74.3880  220.0350 C   0  0  1  0  0  0  0  0  0  0  0  0
  143.6310   73.3270  220.8890 C   0  0  2  0  0  0  0  0  0  0  0  0
  145.1360   73.1780  220.7960 C   0  0  0  0  0  0  0  0  0  0  0  0
  145.5760   72.8170  219.3950 C   0  0  0  0  0  0  0  0  0  0  0  0
  145.1570   71.3710  219.2510 C   0  0  0  0  0  0  0  0  0  0  0  0
  145.9480   70.4630  218.5800 C   0  0  0  0  0  0  0  0  0  0  0  0
  145.5520   69.1440  218.4700 C   0  0  0  0  0  0  0  0  0  0  0  0
  144.3510   68.8100  219.0570 C   0  0  0  0  0  0  0  0  0  0  0  0
  143.5600   69.7170  219.7280 C   0  0  0  0  0  0  0  0  0  0  0  0
  143.9570   71.0530  219.8420 C   0  0  0  0  0  0  0  0  0  0  0  0
  143.0680   71.9540  220.5570 C   0  0  0  0  0  0  0  0  0  0  0  0
  139.9360   70.7780  223.6480 C   0  0  0  0  0  0  0  0  0  0  0  0
  139.4300   69.4780  223.6710 C   0  0  0  0  0  0  0  0  0  0  0  0
  139.4410   68.6980  224.7850 C   0  0  0  0  0  0  0  0  0  0  0  0
  139.9690   69.2040  225.9420 C   0  0  0  0  0  0  0  0  0  0  0  0
  139.9930   68.4350  227.0890 C   0  0  0  0  0  0  0  0  0  0  0  0
  140.5230   68.9470  228.2450 C   0  0  0  0  0  0  0  0  0  0  0  0
  140.5270   68.1530  229.3590 F   0  0  0  0  0  0  0  0  0  0  0  0
  141.0320   70.2320  228.2580 C   0  0  0  0  0  0  0  0  0  0  0  0
  141.0130   71.0150  227.1080 C   0  0  0  0  0  0  0  0  0  0  0  0
  140.4750   70.4990  225.9300 C   0  0  0  0  0  0  0  0  0  0  0  0
  140.4490   71.2510  224.7970 N   0  0  0  0  0  0  0  0  0  0  0  0
  139.5870   73.3820  223.4440 H   0  0  0  0  0  0  0  0  0  0  0  0
  139.7191   73.1008  220.3896 H   0  0  0  0  0  0  0  0  0  0  0  0
  138.6934   74.3209  221.2352 H   0  0  0  0  0  0  0  0  0  0  0  0
  141.5972   75.4485  218.2180 H   0  0  0  0  0  0  0  0  0  0  0  0
  140.7171   76.5210  219.2411 H   0  0  0  0  0  0  0  0  0  0  0  0
  142.8262   77.4473  220.2105 H   0  0  0  0  0  0  0  0  0  0  0  0
  143.7260   78.2140  218.6040 H   0  0  0  0  0  0  0  0  0  0  0  0
  144.6475   75.4737  219.0551 H   0  0  0  0  0  0  0  0  0  0  0  0
  144.4446   75.9031  220.7544 H   0  0  0  0  0  0  0  0  0  0  0  0
  143.0730   73.7482  219.1402 H   0  0  0  0  0  0  0  0  0  0  0  0
  143.3403   73.6542  221.8982 H   0  0  0  0  0  0  0  0  0  0  0  0
  145.6070   74.1295  221.0837 H   0  0  0  0  0  0  0  0  0  0  0  0
  145.4430   72.3664  221.4720 H   0  0  0  0  0  0  0  0  0  0  0  0
  145.0701   73.4484  218.6497 H   0  0  0  0  0  0  0  0  0  0  0  0
  146.6537   72.9674  219.2338 H   0  0  0  0  0  0  0  0  0  0  0  0
  146.8974   70.7897  218.1308 H   0  0  0  0  0  0  0  0  0  0  0  0
  146.1641   68.3987  217.9410 H   0  0  0  0  0  0  0  0  0  0  0  0
  144.0066   67.7677  218.9865 H   0  0  0  0  0  0  0  0  0  0  0  0
  142.6109   69.3883  220.1765 H   0  0  0  0  0  0  0  0  0  0  0  0
  142.1696   72.0998  219.9392 H   0  0  0  0  0  0  0  0  0  0  0  0
  142.8763   71.4714  221.5267 H   0  0  0  0  0  0  0  0  0  0  0  0
  139.0025   69.0649  222.7455 H   0  0  0  0  0  0  0  0  0  0  0  0
  139.0323   67.6772  224.7567 H   0  0  0  0  0  0  0  0  0  0  0  0
  139.5872   67.4127  227.0750 H   0  0  0  0  0  0  0  0  0  0  0  0
  141.4565   70.6399  229.1872 H   0  0  0  0  0  0  0  0  0  0  0  0
  141.4206   72.0365  227.1283 H   0  0  0  0  0  0  0  0  0  0  0  0
  1  2  2  0
  2  3  1  0
  3  4  1  0
  4  5  1  0
  5  6  2  0
  5  7  1  0
  7  8  1  0
  8  9  1  0
  9 10  1  0
  9 11  1  0
 11 12  1  0
 12 13  1  0
 13 14  1  0
 14 15  1  0
 15 16  1  0
 16 17  2  0
 17 18  1  0
 18 19  2  0
 19 20  1  0
 20 21  2  0
 21 22  1  0
  2 23  1  0
 23 24  2  0
 24 25  1  0
 25 26  2  0
 26 27  1  0
 27 28  2  0
 28 29  1  0
 28 30  1  0
 30 31  2  0
 31 32  1  0
 32 33  2  0
 12  7  1  0
 22 13  1  0
 33 23  1  0
 21 16  1  0
 32 26  1  0
  3 34  1  0
  4 35  1  0
  4 36  1  0
  8 37  1  0
  8 38  1  0
  9 39  1  1
 10 40  1  0
 11 41  1  0
 11 42  1  0
 12 43  1  6
 13 44  1  1
 14 45  1  0
 14 46  1  0
 15 47  1  0
 15 48  1  0
 17 49  1  0
 18 50  1  0
 19 51  1  0
 20 52  1  0
 22 53  1  0
 22 54  1  0
 24 55  1  0
 25 56  1  0
 27 57  1  0
 30 58  1  0
 31 59  1  0
M  END
>  <meeko>  (1) 
{"free_energy": -9.24, "intermolecular_energy": -11.03, "internal_energy": -1.93, "cluster_size": 12, "cluster_id": 2, "rank_in_cluster": 11}

$$$$

     RDKit          3D

 59 63  0  0  0  0  0  0  0  0999 V2000
  140.2120   70.9720  221.3090 O   0  0  0  0  0  0  0  0  0  0  0  0
  139.9440   71.5630  222.4090 C   0  0  0  0  0  0  0  0  0  0  0  0
  139.6370   72.9440  222.4770 N   0  0  0  0  0  0  0  0  0  0  0  0
  139.6250   73.7510  221.2340 C   0  0  0  0  0  0  0  0  0  0  0  0
  140.8230   74.5730  221.1450 C   0  0  0  0  0  0  0  0  0  0  0  0
  140.9620   75.4370  222.1110 O   0  0  0  0  0  0  0  0  0  0  0  0
  141.8460   74.5880  220.2030 N   0  0  0  0  0  0  0  0  0  0  0  0
  141.7900   75.5450  219.0470 C   0  0  0  0  0  0  0  0  0  0  0  0
  143.1460   76.1840  219.2110 C   0  0  2  0  0  0  0  0  0  0  0  0
  143.5870   76.7630  218.0150 O   0  0  0  0  0  0  0  0  0  0  0  0
  144.0240   75.0800  219.6700 C   0  0  0  0  0  0  0  0  0  0  0  0
  143.0970   73.9410  219.9500 C   0  0  1  0  0  0  0  0  0  0  0  0
  143.5590   72.8880  220.8660 C   0  0  2  0  0  0  0  0  0  0  0  0
  145.0660   72.7780  220.9700 C   0  0  0  0  0  0  0  0  0  0  0  0
  145.6960   72.4390  219.6370 C   0  0  0  0  0  0  0  0  0  0  0  0
  145.3370   70.9830  219.4350 C   0  0  0  0  0  0  0  0  0  0  0  0
  146.2320   70.1010  218.8700 C   0  0  0  0  0  0  0  0  0  0  0  0
  145.8880   68.7730  218.7030 C   0  0  0  0  0  0  0  0  0  0  0  0
  144.6300   68.4040  219.1260 C   0  0  0  0  0  0  0  0  0  0  0  0
  143.7350   69.2870  219.6910 C   0  0  0  0  0  0  0  0  0  0  0  0
  144.0780   70.6310  219.8610 C   0  0  0  0  0  0  0  0  0  0  0  0
  143.0800   71.5040  220.4560 C   0  0  0  0  0  0  0  0  0  0  0  0
  139.9510   70.7850  223.6450 C   0  0  0  0  0  0  0  0  0  0  0  0
  139.3970   69.5050  223.6690 C   0  0  0  0  0  0  0  0  0  0  0  0
  139.3700   68.7290  224.7850 C   0  0  0  0  0  0  0  0  0  0  0  0
  139.9090   69.2170  225.9440 C   0  0  0  0  0  0  0  0  0  0  0  0
  139.8970   68.4510  227.0930 C   0  0  0  0  0  0  0  0  0  0  0  0
  140.4380   68.9470  228.2510 C   0  0  0  0  0  0  0  0  0  0  0  0
  140.4050   68.1570  229.3670 F   0  0  0  0  0  0  0  0  0  0  0  0
  140.9950   70.2120  228.2640 C   0  0  0  0  0  0  0  0  0  0  0  0
  141.0130   70.9920  227.1120 C   0  0  0  0  0  0  0  0  0  0  0  0
  140.4640   70.4920  225.9320 C   0  0  0  0  0  0  0  0  0  0  0  0
  140.4740   71.2420  224.7960 N   0  0  0  0  0  0  0  0  0  0  0  0
  139.4290   73.3570  223.4070 H   0  0  0  0  0  0  0  0  0  0  0  0
  139.5839   73.0769  220.3657 H   0  0  0  0  0  0  0  0  0  0  0  0
  138.7437   74.4091  221.2470 H   0  0  0  0  0  0  0  0  0  0  0  0
  141.6925   75.0238  218.0832 H   0  0  0  0  0  0  0  0  0  0  0  0
  140.9355   76.2377  219.0446 H   0  0  0  0  0  0  0  0  0  0  0  0
  143.1375   77.0154  219.9312 H   0  0  0  0  0  0  0  0  0  0  0  0
  144.4830   76.3690  217.8260 H   0  0  0  0  0  0  0  0  0  0  0  0
  144.7454   74.8078  218.8855 H   0  0  0  0  0  0  0  0  0  0  0  0
  144.6134   75.3609  220.5553 H   0  0  0  0  0  0  0  0  0  0  0  0
  143.0135   73.2493  219.0987 H   0  0  0  0  0  0  0  0  0  0  0  0
  143.1310   73.1997  221.8302 H   0  0  0  0  0  0  0  0  0  0  0  0
  145.4701   73.7389  221.3211 H   0  0  0  0  0  0  0  0  0  0  0  0
  145.3026   71.9688  221.6766 H   0  0  0  0  0  0  0  0  0  0  0  0
  145.2758   73.0624  218.8339 H   0  0  0  0  0  0  0  0  0  0  0  0
  146.7811   72.6187  219.6186 H   0  0  0  0  0  0  0  0  0  0  0  0
  147.2234   70.4549  218.5508 H   0  0  0  0  0  0  0  0  0  0  0  0
  146.5832   68.0477  218.2552 H   0  0  0  0  0  0  0  0  0  0  0  0
  144.3250   67.3538  219.0072 H   0  0  0  0  0  0  0  0  0  0  0  0
  142.7442   68.9314  220.0102 H   0  0  0  0  0  0  0  0  0  0  0  0
  142.2678   71.6325  219.7254 H   0  0  0  0  0  0  0  0  0  0  0  0
  142.7743   71.0091  221.3896 H   0  0  0  0  0  0  0  0  0  0  0  0
  138.9616   69.1047  222.7415 H   0  0  0  0  0  0  0  0  0  0  0  0
  138.9219   67.7248  224.7566 H   0  0  0  0  0  0  0  0  0  0  0  0
  139.4540   67.4442  227.0791 H   0  0  0  0  0  0  0  0  0  0  0  0
  141.4286   70.6062  229.1949 H   0  0  0  0  0  0  0  0  0  0  0  0
  141.4580   71.9978  227.1321 H   0  0  0  0  0  0  0  0  0  0  0  0
  1  2  2  0
  2  3  1  0
  3  4  1  0
  4  5  1  0
  5  6  2  0
  5  7  1  0
  7  8  1  0
  8  9  1  0
  9 10  1  0
  9 11  1  0
 11 12  1  0
 12 13  1  0
 13 14  1  0
 14 15  1  0
 15 16  1  0
 16 17  2  0
 17 18  1  0
 18 19  2  0
 19 20  1  0
 20 21  2  0
 21 22  1  0
  2 23  1  0
 23 24  2  0
 24 25  1  0
 25 26  2  0
 26 27  1  0
 27 28  2  0
 28 29  1  0
 28 30  1  0
 30 31  2  0
 31 32  1  0
 32 33  2  0
 12  7  1  0
 22 13  1  0
 33 23  1  0
 21 16  1  0
 32 26  1  0
  3 34  1  0
  4 35  1  0
  4 36  1  0
  8 37  1  0
  8 38  1  0
  9 39  1  1
 10 40  1  0
 11 41  1  0
 11 42  1  0
 12 43  1  6
 13 44  1  1
 14 45  1  0
 14 46  1  0
 15 47  1  0
 15 48  1  0
 17 49  1  0
 18 50  1  0
 19 51  1  0
 20 52  1  0
 22 53  1  0
 22 54  1  0
 24 55  1  0
 25 56  1  0
 27 57  1  0
 30 58  1  0
 31 59  1  0
M  END
>  <meeko>  (2) 
{"free_energy": -9.37, "intermolecular_energy": -11.16, "internal_energy": -1.81, "cluster_size": 12, "cluster_id": 2, "rank_in_cluster": 1}

$$$$

     RDKit          3D

 59 63  0  0  0  0  0  0  0  0999 V2000
  140.6510   71.1020  221.3800 O   0  0  0  0  0  0  0  0  0  0  0  0
  140.1280   71.6460  222.4100 C   0  0  0  0  0  0  0  0  0  0  0  0
  139.6170   72.9670  222.3960 N   0  0  0  0  0  0  0  0  0  0  0  0
  139.6830   73.7630  221.1470 C   0  0  0  0  0  0  0  0  0  0  0  0
  140.7870   74.7110  221.2030 C   0  0  0  0  0  0  0  0  0  0  0  0
  140.8660   75.3860  222.3150 O   0  0  0  0  0  0  0  0  0  0  0  0
  141.7700   75.0160  220.2690 N   0  0  0  0  0  0  0  0  0  0  0  0
  141.4850   75.9940  219.1670 C   0  0  0  0  0  0  0  0  0  0  0  0
  142.6550   76.9230  219.3730 C   0  0  2  0  0  0  0  0  0  0  0  0
  142.9400   77.6520  218.2120 O   0  0  0  0  0  0  0  0  0  0  0  0
  143.7690   76.0310  219.7770 C   0  0  0  0  0  0  0  0  0  0  0  0
  143.1370   74.6940  219.9890 C   0  0  1  0  0  0  0  0  0  0  0  0
  143.8380   73.7300  220.8490 C   0  0  2  0  0  0  0  0  0  0  0  0
  145.3170   73.5980  220.5490 C   0  0  0  0  0  0  0  0  0  0  0  0
  145.5600   73.1100  219.1380 C   0  0  0  0  0  0  0  0  0  0  0  0
  145.1700   71.6490  219.1950 C   0  0  0  0  0  0  0  0  0  0  0  0
  145.8820   70.6940  218.5030 C   0  0  0  0  0  0  0  0  0  0  0  0
  145.5140   69.3640  218.5760 C   0  0  0  0  0  0  0  0  0  0  0  0
  144.4220   69.0690  219.3630 C   0  0  0  0  0  0  0  0  0  0  0  0
  143.7100   70.0240  220.0550 C   0  0  0  0  0  0  0  0  0  0  0  0
  144.0780   71.3710  219.9830 C   0  0  0  0  0  0  0  0  0  0  0  0
  143.2750   72.3220  220.7330 C   0  0  0  0  0  0  0  0  0  0  0  0
  140.0520   70.8790  223.6500 C   0  0  0  0  0  0  0  0  0  0  0  0
  139.3990   69.6460  223.6710 C   0  0  0  0  0  0  0  0  0  0  0  0
  139.2930   68.8820  224.7900 C   0  0  0  0  0  0  0  0  0  0  0  0
  139.8480   69.3350  225.9560 C   0  0  0  0  0  0  0  0  0  0  0  0
  139.7550   68.5800  227.1090 C   0  0  0  0  0  0  0  0  0  0  0  0
  140.3130   69.0390  228.2740 C   0  0  0  0  0  0  0  0  0  0  0  0
  140.1990   68.2620  229.3930 F   0  0  0  0  0  0  0  0  0  0  0  0
  140.9680   70.2570  228.2900 C   0  0  0  0  0  0  0  0  0  0  0  0
  141.0670   71.0250  227.1340 C   0  0  0  0  0  0  0  0  0  0  0  0
  140.5010   70.5620  225.9470 C   0  0  0  0  0  0  0  0  0  0  0  0
  140.5900   71.3010  224.8080 N   0  0  0  0  0  0  0  0  0  0  0  0
  139.2050   73.3450  223.2710 H   0  0  0  0  0  0  0  0  0  0  0  0
  139.8311   73.0852  220.2934 H   0  0  0  0  0  0  0  0  0  0  0  0
  138.7417   74.3202  221.0306 H   0  0  0  0  0  0  0  0  0  0  0  0
  141.5056   75.5172  218.1759 H   0  0  0  0  0  0  0  0  0  0  0  0
  140.4924   76.4671  219.1973 H   0  0  0  0  0  0  0  0  0  0  0  0
  142.4581   77.6901  220.1364 H   0  0  0  0  0  0  0  0  0  0  0  0
  143.6430   78.3130  218.4610 H   0  0  0  0  0  0  0  0  0  0  0  0
  144.5289   75.9779  218.9834 H   0  0  0  0  0  0  0  0  0  0  0  0
  144.2815   76.3935  220.6803 H   0  0  0  0  0  0  0  0  0  0  0  0
  143.2129   74.0491  219.1011 H   0  0  0  0  0  0  0  0  0  0  0  0
  143.6868   74.1481  221.8552 H   0  0  0  0  0  0  0  0  0  0  0  0
  145.7952   74.5807  220.6737 H   0  0  0  0  0  0  0  0  0  0  0  0
  145.7438   72.8609  221.2451 H   0  0  0  0  0  0  0  0  0  0  0  0
  144.9314   73.6566  218.4196 H   0  0  0  0  0  0  0  0  0  0  0  0
  146.5973   73.2630  218.8054 H   0  0  0  0  0  0  0  0  0  0  0  0
  146.7461   70.9910  217.8905 H   0  0  0  0  0  0  0  0  0  0  0  0
  146.0645   68.5811  218.0338 H   0  0  0  0  0  0  0  0  0  0  0  0
  144.1031   68.0193  219.4426 H   0  0  0  0  0  0  0  0  0  0  0  0
  142.8468   69.7251  220.6678 H   0  0  0  0  0  0  0  0  0  0  0  0
  142.2928   72.3924  220.2428 H   0  0  0  0  0  0  0  0  0  0  0  0
  143.2403   71.9326  221.7612 H   0  0  0  0  0  0  0  0  0  0  0  0
  138.9490   69.2751  222.7383 H   0  0  0  0  0  0  0  0  0  0  0  0
  138.7695   67.9151  224.7589 H   0  0  0  0  0  0  0  0  0  0  0  0
  139.2338   67.6115  227.0924 H   0  0  0  0  0  0  0  0  0  0  0  0
  141.4153   70.6223  229.2262 H   0  0  0  0  0  0  0  0  0  0  0  0
  141.5893   71.9928  227.1565 H   0  0  0  0  0  0  0  0  0  0  0  0
  1  2  2  0
  2  3  1  0
  3  4  1  0
  4  5  1  0
  5  6  2  0
  5  7  1  0
  7  8  1  0
  8  9  1  0
  9 10  1  0
  9 11  1  0
 11 12  1  0
 12 13  1  0
 13 14  1  0
 14 15  1  0
 15 16  1  0
 16 17  2  0
 17 18  1  0
 18 19  2  0
 19 20  1  0
 20 21  2  0
 21 22  1  0
  2 23  1  0
 23 24  2  0
 24 25  1  0
 25 26  2  0
 26 27  1  0
 27 28  2  0
 28 29  1  0
 28 30  1  0
 30 31  2  0
 31 32  1  0
 32 33  2  0
 12  7  1  0
 22 13  1  0
 33 23  1  0
 21 16  1  0
 32 26  1  0
  3 34  1  0
  4 35  1  0
  4 36  1  0
  8 37  1  0
  8 38  1  0
  9 39  1  1
 10 40  1  0
 11 41  1  0
 11 42  1  0
 12 43  1  6
 13 44  1  1
 14 45  1  0
 14 46  1  0
 15 47  1  0
 15 48  1  0
 17 49  1  0
 18 50  1  0
 19 51  1  0
 20 52  1  0
 22 53  1  0
 22 54  1  0
 24 55  1  0
 25 56  1  0
 27 57  1  0
 30 58  1  0
 31 59  1  0
M  END
>  <meeko>  (3) 
{"free_energy": -9.26, "intermolecular_energy": -11.05, "internal_energy": -1.86, "cluster_size": 12, "cluster_id": 2, "rank_in_cluster": 9}

$$$$

     RDKit          3D

 59 63  0  0  0  0  0  0  0  0999 V2000
  140.8500   73.5330  220.6300 O   0  0  0  0  0  0  0  0  0  0  0  0
  140.1390   74.2650  221.3980 C   0  0  0  0  0  0  0  0  0  0  0  0
  139.0360   73.7570  222.1260 N   0  0  0  0  0  0  0  0  0  0  0  0
  138.6760   72.3240  222.0030 C   0  0  0  0  0  0  0  0  0  0  0  0
  137.5580   72.0000  222.8780 C   0  0  0  0  0  0  0  0  0  0  0  0
  136.7330   72.9850  223.0910 O   0  0  0  0  0  0  0  0  0  0  0  0
  137.2240   70.8140  223.5220 N   0  0  0  0  0  0  0  0  0  0  0  0
  135.7840   70.4130  223.6610 C   0  0  0  0  0  0  0  0  0  0  0  0
  135.8750   69.0240  223.0790 C   0  0  2  0  0  0  0  0  0  0  0  0
  134.8140   68.2190  223.5090 O   0  0  0  0  0  0  0  0  0  0  0  0
  137.1950   68.5190  223.5290 C   0  0  0  0  0  0  0  0  0  0  0  0
  137.8710   69.7000  224.1470 C   0  0  1  0  0  0  0  0  0  0  0  0
  139.3370   69.6810  224.2420 C   0  0  2  0  0  0  0  0  0  0  0  0
  139.8770   68.6820  225.2440 C   0  0  0  0  0  0  0  0  0  0  0  0
  139.4000   68.9830  226.6470 C   0  0  0  0  0  0  0  0  0  0  0  0
  140.1960   70.2080  227.0390 C   0  0  0  0  0  0  0  0  0  0  0  0
  140.6780   70.3650  228.3210 C   0  0  0  0  0  0  0  0  0  0  0  0
  141.4120   71.4870  228.6550 C   0  0  0  0  0  0  0  0  0  0  0  0
  141.6210   72.4080  227.6520 C   0  0  0  0  0  0  0  0  0  0  0  0
  141.1390   72.2510  226.3700 C   0  0  0  0  0  0  0  0  0  0  0  0
  140.3960   71.1170  226.0270 C   0  0  0  0  0  0  0  0  0  0  0  0
  139.9150   71.0250  224.6590 C   0  0  0  0  0  0  0  0  0  0  0  0
  140.4770   75.6790  221.5330 C   0  0  0  0  0  0  0  0  0  0  0  0
  141.4750   76.2390  220.7360 C   0  0  0  0  0  0  0  0  0  0  0  0
  141.8380   77.5470  220.8110 C   0  0  0  0  0  0  0  0  0  0  0  0
  141.2010   78.3600  221.7090 C   0  0  0  0  0  0  0  0  0  0  0  0
  141.5480   79.6930  221.8070 C   0  0  0  0  0  0  0  0  0  0  0  0
  140.9070   80.5030  222.7090 C   0  0  0  0  0  0  0  0  0  0  0  0
  141.2810   81.8160  222.7750 F   0  0  0  0  0  0  0  0  0  0  0  0
  139.9120   79.9810  223.5160 C   0  0  0  0  0  0  0  0  0  0  0  0
  139.5550   78.6390  223.4240 C   0  0  0  0  0  0  0  0  0  0  0  0
  140.2050   77.8130  222.5090 C   0  0  0  0  0  0  0  0  0  0  0  0
  139.8660   76.4990  222.4060 N   0  0  0  0  0  0  0  0  0  0  0  0
  138.5020   74.4110  222.7320 H   0  0  0  0  0  0  0  0  0  0  0  0
  138.3939   72.1101  220.9615 H   0  0  0  0  0  0  0  0  0  0  0  0
  139.5435   71.7139  222.2949 H   0  0  0  0  0  0  0  0  0  0  0  0
  135.4578   70.4006  224.7114 H   0  0  0  0  0  0  0  0  0  0  0  0
  135.0555   71.0829  223.1808 H   0  0  0  0  0  0  0  0  0  0  0  0
  135.7962   69.0185  221.9818 H   0  0  0  0  0  0  0  0  0  0  0  0
  134.7720   67.4480  222.8780 H   0  0  0  0  0  0  0  0  0  0  0  0
  137.0695   67.7146  224.2687 H   0  0  0  0  0  0  0  0  0  0  0  0
  137.7800   68.0955  222.6993 H   0  0  0  0  0  0  0  0  0  0  0  0
  137.7408   69.7349  225.2387 H   0  0  0  0  0  0  0  0  0  0  0  0
  139.6429   69.4039  223.2224 H   0  0  0  0  0  0  0  0  0  0  0  0
  139.5382   67.6745  224.9608 H   0  0  0  0  0  0  0  0  0  0  0  0
  140.9751   68.7461  225.2342 H   0  0  0  0  0  0  0  0  0  0  0  0
  138.3209   69.1961  226.6576 H   0  0  0  0  0  0  0  0  0  0  0  0
  139.5460   68.1396  227.3379 H   0  0  0  0  0  0  0  0  0  0  0  0
  140.4776   69.5947  229.0803 H   0  0  0  0  0  0  0  0  0  0  0  0
  141.8091   71.6372  229.6698 H   0  0  0  0  0  0  0  0  0  0  0  0
  142.2009   73.3131  227.8855 H   0  0  0  0  0  0  0  0  0  0  0  0
  141.3401   73.0225  225.6121 H   0  0  0  0  0  0  0  0  0  0  0  0
  139.1299   71.7841  224.5270 H   0  0  0  0  0  0  0  0  0  0  0  0
  140.8002   71.1760  224.0237 H   0  0  0  0  0  0  0  0  0  0  0  0
  141.9928   75.5920  220.0126 H   0  0  0  0  0  0  0  0  0  0  0  0
  142.6307   77.9454  220.1606 H   0  0  0  0  0  0  0  0  0  0  0  0
  142.3381   80.1049  221.1619 H   0  0  0  0  0  0  0  0  0  0  0  0
  139.3980   80.6331  224.2375 H   0  0  0  0  0  0  0  0  0  0  0  0
  138.7634   78.2322  224.0705 H   0  0  0  0  0  0  0  0  0  0  0  0
  1  2  2  0
  2  3  1  0
  3  4  1  0
  4  5  1  0
  5  6  2  0
  5  7  1  0
  7  8  1  0
  8  9  1  0
  9 10  1  0
  9 11  1  0
 11 12  1  0
 12 13  1  0
 13 14  1  0
 14 15  1  0
 15 16  1  0
 16 17  2  0
 17 18  1  0
 18 19  2  0
 19 20  1  0
 20 21  2  0
 21 22  1  0
  2 23  1  0
 23 24  2  0
 24 25  1  0
 25 26  2  0
 26 27  1  0
 27 28  2  0
 28 29  1  0
 28 30  1  0
 30 31  2  0
 31 32  1  0
 32 33  2  0
 12  7  1  0
 22 13  1  0
 33 23  1  0
 21 16  1  0
 32 26  1  0
  3 34  1  0
  4 35  1  0
  4 36  1  0
  8 37  1  0
  8 38  1  0
  9 39  1  6
 10 40  1  0
 11 41  1  0
 11 42  1  0
 12 43  1  1
 13 44  1  6
 14 45  1  0
 14 46  1  0
 15 47  1  0
 15 48  1  0
 17 49  1  0
 18 50  1  0
 19 51  1  0
 20 52  1  0
 22 53  1  0
 22 54  1  0
 24 55  1  0
 25 56  1  0
 27 57  1  0
 30 58  1  0
 31 59  1  0
M  END
>  <meeko>  (4) 
{"free_energy": -8.99, "intermolecular_energy": -10.78, "internal_energy": -2.05, "cluster_size": 3, "cluster_id": 3, "rank_in_cluster": 2}

$$$$

     RDKit          3D

 59 63  0  0  0  0  0  0  0  0999 V2000
  140.2210   70.8650  221.2270 O   0  0  0  0  0  0  0  0  0  0  0  0
  139.9530   71.4730  222.3190 C   0  0  0  0  0  0  0  0  0  0  0  0
  139.6560   72.8570  222.3660 N   0  0  0  0  0  0  0  0  0  0  0  0
  139.6530   73.6470  221.1110 C   0  0  0  0  0  0  0  0  0  0  0  0
  140.7190   74.6380  221.1280 C   0  0  0  0  0  0  0  0  0  0  0  0
  140.7010   75.4380  222.1570 O   0  0  0  0  0  0  0  0  0  0  0  0
  141.7550   74.8720  220.2300 N   0  0  0  0  0  0  0  0  0  0  0  0
  141.5940   75.9010  219.1480 C   0  0  0  0  0  0  0  0  0  0  0  0
  142.8400   76.7100  219.4130 C   0  0  2  0  0  0  0  0  0  0  0  0
  143.2260   77.4390  218.2820 O   0  0  0  0  0  0  0  0  0  0  0  0
  143.8530   75.7070  219.8210 C   0  0  0  0  0  0  0  0  0  0  0  0
  143.0930   74.4310  219.9790 C   0  0  1  0  0  0  0  0  0  0  0  0
  143.6750   73.3840  220.8290 C   0  0  2  0  0  0  0  0  0  0  0  0
  145.1760   73.2370  220.6870 C   0  0  0  0  0  0  0  0  0  0  0  0
  145.5690   72.8560  219.2770 C   0  0  0  0  0  0  0  0  0  0  0  0
  145.1500   71.4070  219.1690 C   0  0  0  0  0  0  0  0  0  0  0  0
  145.9190   70.4910  218.4850 C   0  0  0  0  0  0  0  0  0  0  0  0
  145.5230   69.1700  218.4080 C   0  0  0  0  0  0  0  0  0  0  0  0
  144.3430   68.8420  219.0400 C   0  0  0  0  0  0  0  0  0  0  0  0
  143.5740   69.7570  219.7240 C   0  0  0  0  0  0  0  0  0  0  0  0
  143.9710   71.0960  219.8050 C   0  0  0  0  0  0  0  0  0  0  0  0
  143.1040   72.0050  220.5360 C   0  0  0  0  0  0  0  0  0  0  0  0
  139.9500   70.7130  223.5650 C   0  0  0  0  0  0  0  0  0  0  0  0
  139.3540   69.4530  223.6150 C   0  0  0  0  0  0  0  0  0  0  0  0
  139.3170   68.6940  224.7420 C   0  0  0  0  0  0  0  0  0  0  0  0
  139.8870   69.1810  225.8870 C   0  0  0  0  0  0  0  0  0  0  0  0
  139.8640   68.4320  227.0470 C   0  0  0  0  0  0  0  0  0  0  0  0
  140.4370   68.9250  228.1910 C   0  0  0  0  0  0  0  0  0  0  0  0
  140.3930   68.1520  229.3190 F   0  0  0  0  0  0  0  0  0  0  0  0
  141.0360   70.1710  228.1790 C   0  0  0  0  0  0  0  0  0  0  0  0
  141.0650   70.9330  227.0150 C   0  0  0  0  0  0  0  0  0  0  0  0
  140.4830   70.4360  225.8490 C   0  0  0  0  0  0  0  0  0  0  0  0
  140.5030   71.1690  224.7030 N   0  0  0  0  0  0  0  0  0  0  0  0
  139.4470   73.2850  223.2890 H   0  0  0  0  0  0  0  0  0  0  0  0
  139.8022   72.9699  220.2570 H   0  0  0  0  0  0  0  0  0  0  0  0
  138.6873   74.1658  221.0204 H   0  0  0  0  0  0  0  0  0  0  0  0
  141.5993   75.4502  218.1446 H   0  0  0  0  0  0  0  0  0  0  0  0
  140.6492   76.4641  219.1642 H   0  0  0  0  0  0  0  0  0  0  0  0
  142.6933   77.4717  220.1930 H   0  0  0  0  0  0  0  0  0  0  0  0
  143.7020   78.2480  218.6180 H   0  0  0  0  0  0  0  0  0  0  0  0
  144.6271   75.6024  219.0465 H   0  0  0  0  0  0  0  0  0  0  0  0
  144.3708   75.9965  220.7473 H   0  0  0  0  0  0  0  0  0  0  0  0
  143.1347   73.8045  219.0758 H   0  0  0  0  0  0  0  0  0  0  0  0
  143.4181   73.7249  221.8428 H   0  0  0  0  0  0  0  0  0  0  0  0
  145.6540   74.1937  220.9443 H   0  0  0  0  0  0  0  0  0  0  0  0
  145.5081   72.4363  221.3642 H   0  0  0  0  0  0  0  0  0  0  0  0
  145.0359   73.4747  218.5401 H   0  0  0  0  0  0  0  0  0  0  0  0
  146.6401   73.0068  219.0768 H   0  0  0  0  0  0  0  0  0  0  0  0
  146.8516   70.8128  217.9985 H   0  0  0  0  0  0  0  0  0  0  0  0
  146.1189   68.4182  217.8698 H   0  0  0  0  0  0  0  0  0  0  0  0
  143.9986   67.7982  218.9959 H   0  0  0  0  0  0  0  0  0  0  0  0
  142.6418   69.4330  220.2097 H   0  0  0  0  0  0  0  0  0  0  0  0
  142.1852   72.1400  219.9465 H   0  0  0  0  0  0  0  0  0  0  0  0
  142.9454   71.5361  221.5183 H   0  0  0  0  0  0  0  0  0  0  0  0
  138.8922   69.0548  222.6995 H   0  0  0  0  0  0  0  0  0  0  0  0
  138.8367   67.7044  224.7339 H   0  0  0  0  0  0  0  0  0  0  0  0
  139.3866   67.4410  227.0532 H   0  0  0  0  0  0  0  0  0  0  0  0
  141.4942   70.5639  229.0986 H   0  0  0  0  0  0  0  0  0  0  0  0
  141.5448   71.9229  227.0145 H   0  0  0  0  0  0  0  0  0  0  0  0
  1  2  2  0
  2  3  1  0
  3  4  1  0
  4  5  1  0
  5  6  2  0
  5  7  1  0
  7  8  1  0
  8  9  1  0
  9 10  1  0
  9 11  1  0
 11 12  1  0
 12 13  1  0
 13 14  1  0
 14 15  1  0
 15 16  1  0
 16 17  2  0
 17 18  1  0
 18 19  2  0
 19 20  1  0
 20 21  2  0
 21 22  1  0
  2 23  1  0
 23 24  2  0
 24 25  1  0
 25 26  2  0
 26 27  1  0
 27 28  2  0
 28 29  1  0
 28 30  1  0
 30 31  2  0
 31 32  1  0
 32 33  2  0
 12  7  1  0
 22 13  1  0
 33 23  1  0
 21 16  1  0
 32 26  1  0
  3 34  1  0
  4 35  1  0
  4 36  1  0
  8 37  1  0
  8 38  1  0
  9 39  1  1
 10 40  1  0
 11 41  1  0
 11 42  1  0
 12 43  1  6
 13 44  1  1
 14 45  1  0
 14 46  1  0
 15 47  1  0
 15 48  1  0
 17 49  1  0
 18 50  1  0
 19 51  1  0
 20 52  1  0
 22 53  1  0
 22 54  1  0
 24 55  1  0
 25 56  1  0
 27 57  1  0
 30 58  1  0
 31 59  1  0
M  END
>  <meeko>  (5) 
{"free_energy": -9.28, "intermolecular_energy": -11.07, "internal_energy": -1.91, "cluster_size": 12, "cluster_id": 2, "rank_in_cluster": 6}

$$$$

     RDKit          3D

 59 63  0  0  0  0  0  0  0  0999 V2000
  139.7380   70.6690  221.2880 O   0  0  0  0  0  0  0  0  0  0  0  0
  139.7780   71.3170  222.3880 C   0  0  0  0  0  0  0  0  0  0  0  0
  139.7810   72.7320  222.4380 N   0  0  0  0  0  0  0  0  0  0  0  0
  139.7390   73.5080  221.1760 C   0  0  0  0  0  0  0  0  0  0  0  0
  140.7340   74.5710  221.1950 C   0  0  0  0  0  0  0  0  0  0  0  0
  140.6890   75.3380  222.2470 O   0  0  0  0  0  0  0  0  0  0  0  0
  141.7250   74.9030  220.2780 N   0  0  0  0  0  0  0  0  0  0  0  0
  141.4440   75.9030  219.1940 C   0  0  0  0  0  0  0  0  0  0  0  0
  142.6060   76.8360  219.4340 C   0  0  2  0  0  0  0  0  0  0  0  0
  142.8980   77.5920  218.2930 O   0  0  0  0  0  0  0  0  0  0  0  0
  143.7220   75.9420  219.8290 C   0  0  0  0  0  0  0  0  0  0  0  0
  143.0960   74.5970  220.0050 C   0  0  1  0  0  0  0  0  0  0  0  0
  143.7960   73.6190  220.8510 C   0  0  2  0  0  0  0  0  0  0  0  0
  145.2760   73.4940  220.5540 C   0  0  0  0  0  0  0  0  0  0  0  0
  145.5250   73.0310  219.1370 C   0  0  0  0  0  0  0  0  0  0  0  0
  145.1360   71.5690  219.1660 C   0  0  0  0  0  0  0  0  0  0  0  0
  145.8530   70.6270  218.4600 C   0  0  0  0  0  0  0  0  0  0  0  0
  145.4870   69.2950  218.5090 C   0  0  0  0  0  0  0  0  0  0  0  0
  144.3910   68.9850  219.2860 C   0  0  0  0  0  0  0  0  0  0  0  0
  143.6750   69.9270  219.9910 C   0  0  0  0  0  0  0  0  0  0  0  0
  144.0420   71.2760  219.9450 C   0  0  0  0  0  0  0  0  0  0  0  0
  143.2350   72.2130  220.7080 C   0  0  0  0  0  0  0  0  0  0  0  0
  139.8200   70.5720  223.6430 C   0  0  0  0  0  0  0  0  0  0  0  0
  139.2720   69.2910  223.7140 C   0  0  0  0  0  0  0  0  0  0  0  0
  139.2780   68.5430  224.8490 C   0  0  0  0  0  0  0  0  0  0  0  0
  139.8440   69.0640  225.9810 C   0  0  0  0  0  0  0  0  0  0  0  0
  139.8640   68.3270  227.1500 C   0  0  0  0  0  0  0  0  0  0  0  0
  140.4320   68.8540  228.2810 C   0  0  0  0  0  0  0  0  0  0  0  0
  140.4310   68.0930  229.4170 F   0  0  0  0  0  0  0  0  0  0  0  0
  140.9840   70.1220  228.2470 C   0  0  0  0  0  0  0  0  0  0  0  0
  140.9690   70.8710  227.0750 C   0  0  0  0  0  0  0  0  0  0  0  0
  140.3920   70.3400  225.9230 C   0  0  0  0  0  0  0  0  0  0  0  0
  140.3700   71.0600  224.7680 N   0  0  0  0  0  0  0  0  0  0  0  0
  139.8150   73.1920  223.3690 H   0  0  0  0  0  0  0  0  0  0  0  0
  139.9450   72.8350  220.3307 H   0  0  0  0  0  0  0  0  0  0  0  0
  138.7410   73.9581  221.0693 H   0  0  0  0  0  0  0  0  0  0  0  0
  141.4789   75.4483  218.1930 H   0  0  0  0  0  0  0  0  0  0  0  0
  140.4475   76.3679  219.2232 H   0  0  0  0  0  0  0  0  0  0  0  0
  142.3959   77.5843  220.2124 H   0  0  0  0  0  0  0  0  0  0  0  0
  143.6500   78.1970  218.5410 H   0  0  0  0  0  0  0  0  0  0  0  0
  144.4898   75.9111  219.0419 H   0  0  0  0  0  0  0  0  0  0  0  0
  144.2238   76.2873  220.7449 H   0  0  0  0  0  0  0  0  0  0  0  0
  143.1836   73.9727  219.1036 H   0  0  0  0  0  0  0  0  0  0  0  0
  143.6414   74.0194  221.8638 H   0  0  0  0  0  0  0  0  0  0  0  0
  145.7524   74.4751  220.6973 H   0  0  0  0  0  0  0  0  0  0  0  0
  145.7010   72.7454  221.2389 H   0  0  0  0  0  0  0  0  0  0  0  0
  144.8991   73.5898  218.4257 H   0  0  0  0  0  0  0  0  0  0  0  0
  146.5637   73.1902  218.8119 H   0  0  0  0  0  0  0  0  0  0  0  0
  146.7188   70.9361  217.8560 H   0  0  0  0  0  0  0  0  0  0  0  0
  146.0415   68.5221  217.9566 H   0  0  0  0  0  0  0  0  0  0  0  0
  144.0728   67.9337  219.3458 H   0  0  0  0  0  0  0  0  0  0  0  0
  142.8090   69.6165  220.5941 H   0  0  0  0  0  0  0  0  0  0  0  0
  142.2548   72.2911  220.2149 H   0  0  0  0  0  0  0  0  0  0  0  0
  143.1964   71.8056  221.7291 H   0  0  0  0  0  0  0  0  0  0  0  0
  138.8134   68.8662  222.8088 H   0  0  0  0  0  0  0  0  0  0  0  0
  138.8354   67.5360  224.8575 H   0  0  0  0  0  0  0  0  0  0  0  0
  139.4247   67.3188  227.1729 H   0  0  0  0  0  0  0  0  0  0  0  0
  141.4393   70.5422  229.1559 H   0  0  0  0  0  0  0  0  0  0  0  0
  141.4107   71.8783  227.0576 H   0  0  0  0  0  0  0  0  0  0  0  0
  1  2  2  0
  2  3  1  0
  3  4  1  0
  4  5  1  0
  5  6  2  0
  5  7  1  0
  7  8  1  0
  8  9  1  0
  9 10  1  0
  9 11  1  0
 11 12  1  0
 12 13  1  0
 13 14  1  0
 14 15  1  0
 15 16  1  0
 16 17  2  0
 17 18  1  0
 18 19  2  0
 19 20  1  0
 20 21  2  0
 21 22  1  0
  2 23  1  0
 23 24  2  0
 24 25  1  0
 25 26  2  0
 26 27  1  0
 27 28  2  0
 28 29  1  0
 28 30  1  0
 30 31  2  0
 31 32  1  0
 32 33  2  0
 12  7  1  0
 22 13  1  0
 33 23  1  0
 21 16  1  0
 32 26  1  0
  3 34  1  0
  4 35  1  0
  4 36  1  0
  8 37  1  0
  8 38  1  0
  9 39  1  1
 10 40  1  0
 11 41  1  0
 11 42  1  0
 12 43  1  6
 13 44  1  1
 14 45  1  0
 14 46  1  0
 15 47  1  0
 15 48  1  0
 17 49  1  0
 18 50  1  0
 19 51  1  0
 20 52  1  0
 22 53  1  0
 22 54  1  0
 24 55  1  0
 25 56  1  0
 27 57  1  0
 30 58  1  0
 31 59  1  0
M  END
>  <meeko>  (6) 
{"free_energy": -9.11, "intermolecular_energy": -10.9, "internal_energy": -1.99, "cluster_size": 12, "cluster_id": 2, "rank_in_cluster": 12}

$$$$

     RDKit          3D

 59 63  0  0  0  0  0  0  0  0999 V2000
  140.2250   70.8510  221.2740 O   0  0  0  0  0  0  0  0  0  0  0  0
  139.9450   71.4620  222.3610 C   0  0  0  0  0  0  0  0  0  0  0  0
  139.6270   72.8410  222.3990 N   0  0  0  0  0  0  0  0  0  0  0  0
  139.6160   73.6230  221.1390 C   0  0  0  0  0  0  0  0  0  0  0  0
  140.6920   74.6040  221.1370 C   0  0  0  0  0  0  0  0  0  0  0  0
  140.6700   75.4360  222.1390 O   0  0  0  0  0  0  0  0  0  0  0  0
  141.7400   74.7990  220.2440 N   0  0  0  0  0  0  0  0  0  0  0  0
  141.6270   75.8370  219.1660 C   0  0  0  0  0  0  0  0  0  0  0  0
  142.9030   76.5940  219.4390 C   0  0  2  0  0  0  0  0  0  0  0  0
  143.3240   77.3100  218.3120 O   0  0  0  0  0  0  0  0  0  0  0  0
  143.8730   75.5480  219.8480 C   0  0  0  0  0  0  0  0  0  0  0  0
  143.0600   74.3040  219.9970 C   0  0  1  0  0  0  0  0  0  0  0  0
  143.5950   73.2300  220.8460 C   0  0  2  0  0  0  0  0  0  0  0  0
  145.1010   73.0860  220.7820 C   0  0  0  0  0  0  0  0  0  0  0  0
  145.5720   72.7480  219.3850 C   0  0  0  0  0  0  0  0  0  0  0  0
  145.1600   71.3030  219.2100 C   0  0  0  0  0  0  0  0  0  0  0  0
  145.9670   70.4080  218.5420 C   0  0  0  0  0  0  0  0  0  0  0  0
  145.5760   69.0900  218.4020 C   0  0  0  0  0  0  0  0  0  0  0  0
  144.3640   68.7440  218.9580 C   0  0  0  0  0  0  0  0  0  0  0  0
  143.5570   69.6400  219.6260 C   0  0  0  0  0  0  0  0  0  0  0  0
  143.9480   70.9740  219.7700 C   0  0  0  0  0  0  0  0  0  0  0  0
  143.0420   71.8620  220.4790 C   0  0  0  0  0  0  0  0  0  0  0  0
  139.9500   70.7090  223.6120 C   0  0  0  0  0  0  0  0  0  0  0  0
  139.3770   69.4380  223.6660 C   0  0  0  0  0  0  0  0  0  0  0  0
  139.3480   68.6850  224.7980 C   0  0  0  0  0  0  0  0  0  0  0  0
  139.9030   69.1890  225.9430 C   0  0  0  0  0  0  0  0  0  0  0  0
  139.8880   68.4470  227.1070 C   0  0  0  0  0  0  0  0  0  0  0  0
  140.4450   68.9580  228.2510 C   0  0  0  0  0  0  0  0  0  0  0  0
  140.4090   68.1910  229.3830 F   0  0  0  0  0  0  0  0  0  0  0  0
  141.0200   70.2150  228.2350 C   0  0  0  0  0  0  0  0  0  0  0  0
  141.0400   70.9710  227.0660 C   0  0  0  0  0  0  0  0  0  0  0  0
  140.4750   70.4560  225.9010 C   0  0  0  0  0  0  0  0  0  0  0  0
  140.4880   71.1820  224.7500 N   0  0  0  0  0  0  0  0  0  0  0  0
  139.4080   73.2710  223.3190 H   0  0  0  0  0  0  0  0  0  0  0  0
  139.7483   72.9392  220.2876 H   0  0  0  0  0  0  0  0  0  0  0  0
  138.6542   74.1504  221.0566 H   0  0  0  0  0  0  0  0  0  0  0  0
  141.6188   75.3898  218.1610 H   0  0  0  0  0  0  0  0  0  0  0  0
  140.7059   76.4382  219.1805 H   0  0  0  0  0  0  0  0  0  0  0  0
  142.7836   77.3589  220.2205 H   0  0  0  0  0  0  0  0  0  0  0  0
  143.7340   78.1520  218.6520 H   0  0  0  0  0  0  0  0  0  0  0  0
  144.6459   75.4147  219.0768 H   0  0  0  0  0  0  0  0  0  0  0  0
  144.3981   75.8123  220.7778 H   0  0  0  0  0  0  0  0  0  0  0  0
  143.0794   73.6801  219.0913 H   0  0  0  0  0  0  0  0  0  0  0  0
  143.2825   73.5392  221.8543 H   0  0  0  0  0  0  0  0  0  0  0  0
  145.5633   74.0340  221.0944 H   0  0  0  0  0  0  0  0  0  0  0  0
  145.3955   72.2642  221.4513 H   0  0  0  0  0  0  0  0  0  0  0  0
  145.0804   73.3896  218.6389 H   0  0  0  0  0  0  0  0  0  0  0  0
  146.6524   72.9037  219.2491 H   0  0  0  0  0  0  0  0  0  0  0  0
  146.9253   70.7436  218.1189 H   0  0  0  0  0  0  0  0  0  0  0  0
  146.2006   68.3547  217.8736 H   0  0  0  0  0  0  0  0  0  0  0  0
  144.0237   67.7022  218.8644 H   0  0  0  0  0  0  0  0  0  0  0  0
  142.5990   69.3028  220.0485 H   0  0  0  0  0  0  0  0  0  0  0  0
  142.1576   72.0167  219.8435 H   0  0  0  0  0  0  0  0  0  0  0  0
  142.8294   71.3634  221.4362 H   0  0  0  0  0  0  0  0  0  0  0  0
  138.9278   69.0259  222.7504 H   0  0  0  0  0  0  0  0  0  0  0  0
  138.8859   67.6868  224.7935 H   0  0  0  0  0  0  0  0  0  0  0  0
  139.4298   67.4470  227.1167 H   0  0  0  0  0  0  0  0  0  0  0  0
  141.4660   70.6218  229.1546 H   0  0  0  0  0  0  0  0  0  0  0  0
  141.4997   71.9703  227.0621 H   0  0  0  0  0  0  0  0  0  0  0  0
  1  2  2  0
  2  3  1  0
  3  4  1  0
  4  5  1  0
  5  6  2  0
  5  7  1  0
  7  8  1  0
  8  9  1  0
  9 10  1  0
  9 11  1  0
 11 12  1  0
 12 13  1  0
 13 14  1  0
 14 15  1  0
 15 16  1  0
 16 17  2  0
 17 18  1  0
 18 19  2  0
 19 20  1  0
 20 21  2  0
 21 22  1  0
  2 23  1  0
 23 24  2  0
 24 25  1  0
 25 26  2  0
 26 27  1  0
 27 28  2  0
 28 29  1  0
 28 30  1  0
 30 31  2  0
 31 32  1  0
 32 33  2  0
 12  7  1  0
 22 13  1  0
 33 23  1  0
 21 16  1  0
 32 26  1  0
  3 34  1  0
  4 35  1  0
  4 36  1  0
  8 37  1  0
  8 38  1  0
  9 39  1  1
 10 40  1  0
 11 41  1  0
 11 42  1  0
 12 43  1  6
 13 44  1  1
 14 45  1  0
 14 46  1  0
 15 47  1  0
 15 48  1  0
 17 49  1  0
 18 50  1  0
 19 51  1  0
 20 52  1  0
 22 53  1  0
 22 54  1  0
 24 55  1  0
 25 56  1  0
 27 57  1  0
 30 58  1  0
 31 59  1  0
M  END
>  <meeko>  (7) 
{"free_energy": -9.29, "intermolecular_energy": -11.08, "internal_energy": -1.89, "cluster_size": 12, "cluster_id": 2, "rank_in_cluster": 5}

$$$$

     RDKit          3D

 59 63  0  0  0  0  0  0  0  0999 V2000
  141.0080   73.5120  220.7220 O   0  0  0  0  0  0  0  0  0  0  0  0
  140.2560   74.2540  221.4410 C   0  0  0  0  0  0  0  0  0  0  0  0
  139.1370   73.7470  222.1450 N   0  0  0  0  0  0  0  0  0  0  0  0
  138.8100   72.3040  222.0570 C   0  0  0  0  0  0  0  0  0  0  0  0
  137.6520   71.9910  222.8820 C   0  0  0  0  0  0  0  0  0  0  0  0
  136.8200   72.9800  223.0480 O   0  0  0  0  0  0  0  0  0  0  0  0
  137.2860   70.8120  223.5220 N   0  0  0  0  0  0  0  0  0  0  0  0
  135.8360   70.4410  223.6440 C   0  0  0  0  0  0  0  0  0  0  0  0
  135.9030   69.0510  223.0620 C   0  0  2  0  0  0  0  0  0  0  0  0
  134.8210   68.2690  223.4800 O   0  0  0  0  0  0  0  0  0  0  0  0
  137.2080   68.5180  223.5260 C   0  0  0  0  0  0  0  0  0  0  0  0
  137.9010   69.6840  224.1520 C   0  0  1  0  0  0  0  0  0  0  0  0
  139.3650   69.6340  224.2640 C   0  0  2  0  0  0  0  0  0  0  0  0
  139.8720   68.6530  225.3010 C   0  0  0  0  0  0  0  0  0  0  0  0
  139.3890   69.0070  226.6890 C   0  0  0  0  0  0  0  0  0  0  0  0
  140.2100   70.2240  227.0530 C   0  0  0  0  0  0  0  0  0  0  0  0
  140.6820   70.4090  228.3340 C   0  0  0  0  0  0  0  0  0  0  0  0
  141.4390   71.5230  228.6420 C   0  0  0  0  0  0  0  0  0  0  0  0
  141.6790   72.4090  227.6140 C   0  0  0  0  0  0  0  0  0  0  0  0
  141.2070   72.2240  226.3330 C   0  0  0  0  0  0  0  0  0  0  0  0
  140.4410   71.0980  226.0160 C   0  0  0  0  0  0  0  0  0  0  0  0
  139.9710   70.9760  224.6470 C   0  0  0  0  0  0  0  0  0  0  0  0
  140.5620   75.6780  221.5410 C   0  0  0  0  0  0  0  0  0  0  0  0
  141.5180   76.2490  220.7010 C   0  0  0  0  0  0  0  0  0  0  0  0
  141.8490   77.5670  220.7420 C   0  0  0  0  0  0  0  0  0  0  0  0
  141.2220   78.3790  221.6480 C   0  0  0  0  0  0  0  0  0  0  0  0
  141.5390   79.7220  221.7120 C   0  0  0  0  0  0  0  0  0  0  0  0
  140.9080   80.5300  222.6220 C   0  0  0  0  0  0  0  0  0  0  0  0
  141.2500   81.8540  222.6540 F   0  0  0  0  0  0  0  0  0  0  0  0
  139.9550   79.9980  223.4710 C   0  0  0  0  0  0  0  0  0  0  0  0
  139.6290   78.6460  223.4140 C   0  0  0  0  0  0  0  0  0  0  0  0
  140.2680   77.8200  222.4910 C   0  0  0  0  0  0  0  0  0  0  0  0
  139.9600   76.4970  222.4210 N   0  0  0  0  0  0  0  0  0  0  0  0
  138.5700   74.4100  222.7100 H   0  0  0  0  0  0  0  0  0  0  0  0
  138.5890   72.0463  221.0107 H   0  0  0  0  0  0  0  0  0  0  0  0
  139.6709   71.7221  222.4179 H   0  0  0  0  0  0  0  0  0  0  0  0
  135.4977   70.4348  224.6907 H   0  0  0  0  0  0  0  0  0  0  0  0
  135.1278   71.1266  223.1556 H   0  0  0  0  0  0  0  0  0  0  0  0
  135.8353   69.0473  221.9641 H   0  0  0  0  0  0  0  0  0  0  0  0
  134.0480   68.8900  223.5840 H   0  0  0  0  0  0  0  0  0  0  0  0
  137.0578   67.7159  224.2636 H   0  0  0  0  0  0  0  0  0  0  0  0
  137.7931   68.0829  222.7024 H   0  0  0  0  0  0  0  0  0  0  0  0
  137.7579   69.7205  225.2420 H   0  0  0  0  0  0  0  0  0  0  0  0
  139.6738   69.3194  223.2562 H   0  0  0  0  0  0  0  0  0  0  0  0
  139.5123   67.6456  225.0446 H   0  0  0  0  0  0  0  0  0  0  0  0
  140.9713   68.6911  225.3004 H   0  0  0  0  0  0  0  0  0  0  0  0
  138.3152   69.2456  226.6820 H   0  0  0  0  0  0  0  0  0  0  0  0
  139.5084   68.1814  227.4061 H   0  0  0  0  0  0  0  0  0  0  0  0
  140.4554   69.6674  229.1142 H   0  0  0  0  0  0  0  0  0  0  0  0
  141.8301   71.6940  229.6558 H   0  0  0  0  0  0  0  0  0  0  0  0
  142.2766   73.3077  227.8267 H   0  0  0  0  0  0  0  0  0  0  0  0
  141.4343   72.9670  225.5544 H   0  0  0  0  0  0  0  0  0  0  0  0
  139.2055   71.7490  224.4844 H   0  0  0  0  0  0  0  0  0  0  0  0
  140.8657   71.0867  224.0167 H   0  0  0  0  0  0  0  0  0  0  0  0
  142.0279   75.6028  219.9714 H   0  0  0  0  0  0  0  0  0  0  0  0
  142.6083   77.9742  220.0582 H   0  0  0  0  0  0  0  0  0  0  0  0
  142.2964   80.1423  221.0340 H   0  0  0  0  0  0  0  0  0  0  0  0
  139.4494   80.6498  224.1987 H   0  0  0  0  0  0  0  0  0  0  0  0
  138.8705   78.2314  224.0943 H   0  0  0  0  0  0  0  0  0  0  0  0
  1  2  2  0
  2  3  1  0
  3  4  1  0
  4  5  1  0
  5  6  2  0
  5  7  1  0
  7  8  1  0
  8  9  1  0
  9 10  1  0
  9 11  1  0
 11 12  1  0
 12 13  1  0
 13 14  1  0
 14 15  1  0
 15 16  1  0
 16 17  2  0
 17 18  1  0
 18 19  2  0
 19 20  1  0
 20 21  2  0
 21 22  1  0
  2 23  1  0
 23 24  2  0
 24 25  1  0
 25 26  2  0
 26 27  1  0
 27 28  2  0
 28 29  1  0
 28 30  1  0
 30 31  2  0
 31 32  1  0
 32 33  2  0
 12  7  1  0
 22 13  1  0
 33 23  1  0
 21 16  1  0
 32 26  1  0
  3 34  1  0
  4 35  1  0
  4 36  1  0
  8 37  1  0
  8 38  1  0
  9 39  1  6
 10 40  1  0
 11 41  1  0
 11 42  1  0
 12 43  1  1
 13 44  1  6
 14 45  1  0
 14 46  1  0
 15 47  1  0
 15 48  1  0
 17 49  1  0
 18 50  1  0
 19 51  1  0
 20 52  1  0
 22 53  1  0
 22 54  1  0
 24 55  1  0
 25 56  1  0
 27 57  1  0
 30 58  1  0
 31 59  1  0
M  END
>  <meeko>  (8) 
{"free_energy": -8.99, "intermolecular_energy": -10.78, "internal_energy": -2.04, "cluster_size": 3, "cluster_id": 3, "rank_in_cluster": 3}

$$$$

     RDKit          3D

 59 63  0  0  0  0  0  0  0  0999 V2000
  140.0200   70.7300  221.2610 O   0  0  0  0  0  0  0  0  0  0  0  0
  139.8390   71.3720  222.3510 C   0  0  0  0  0  0  0  0  0  0  0  0
  139.6200   72.7710  222.3820 N   0  0  0  0  0  0  0  0  0  0  0  0
  139.5970   73.5360  221.1130 C   0  0  0  0  0  0  0  0  0  0  0  0
  140.7300   74.4480  221.0450 C   0  0  0  0  0  0  0  0  0  0  0  0
  140.7520   75.3570  221.9780 O   0  0  0  0  0  0  0  0  0  0  0  0
  141.7940   74.5090  220.1510 N   0  0  0  0  0  0  0  0  0  0  0  0
  141.7660   75.4890  219.0150 C   0  0  0  0  0  0  0  0  0  0  0  0
  143.0960   76.1590  219.2540 C   0  0  2  0  0  0  0  0  0  0  0  0
  143.5760   76.7740  218.0920 O   0  0  0  0  0  0  0  0  0  0  0  0
  143.9800   75.0670  219.7310 C   0  0  0  0  0  0  0  0  0  0  0  0
  143.0720   73.9000  219.9440 C   0  0  1  0  0  0  0  0  0  0  0  0
  143.5190   72.8390  220.8570 C   0  0  2  0  0  0  0  0  0  0  0  0
  145.0240   72.7090  220.9620 C   0  0  0  0  0  0  0  0  0  0  0  0
  145.6500   72.3640  219.6300 C   0  0  0  0  0  0  0  0  0  0  0  0
  145.2720   70.9130  219.4240 C   0  0  0  0  0  0  0  0  0  0  0  0
  146.1560   70.0200  218.8580 C   0  0  0  0  0  0  0  0  0  0  0  0
  145.7950   68.6970  218.6890 C   0  0  0  0  0  0  0  0  0  0  0  0
  144.5310   68.3440  219.1100 C   0  0  0  0  0  0  0  0  0  0  0  0
  143.6470   69.2380  219.6760 C   0  0  0  0  0  0  0  0  0  0  0  0
  144.0080   70.5770  219.8490 C   0  0  0  0  0  0  0  0  0  0  0  0
  143.0210   71.4620  220.4450 C   0  0  0  0  0  0  0  0  0  0  0  0
  139.8580   70.6370  223.6120 C   0  0  0  0  0  0  0  0  0  0  0  0
  139.2820   69.3690  223.6900 C   0  0  0  0  0  0  0  0  0  0  0  0
  139.2650   68.6310  224.8330 C   0  0  0  0  0  0  0  0  0  0  0  0
  139.8360   69.1490  225.9640 C   0  0  0  0  0  0  0  0  0  0  0  0
  139.8330   68.4230  227.1380 C   0  0  0  0  0  0  0  0  0  0  0  0
  140.4060   68.9480  228.2680 C   0  0  0  0  0  0  0  0  0  0  0  0
  140.3820   68.1960  229.4110 F   0  0  0  0  0  0  0  0  0  0  0  0
  140.9850   70.2020  228.2270 C   0  0  0  0  0  0  0  0  0  0  0  0
  140.9930   70.9420  227.0480 C   0  0  0  0  0  0  0  0  0  0  0  0
  140.4110   70.4130  225.8970 C   0  0  0  0  0  0  0  0  0  0  0  0
  140.4120   71.1230  224.7360 N   0  0  0  0  0  0  0  0  0  0  0  0
  139.4800   73.2260  223.3060 H   0  0  0  0  0  0  0  0  0  0  0  0
  139.6459   72.8347  220.2670 H   0  0  0  0  0  0  0  0  0  0  0  0
  138.6668   74.1214  221.0681 H   0  0  0  0  0  0  0  0  0  0  0  0
  141.7262   74.9869  218.0371 H   0  0  0  0  0  0  0  0  0  0  0  0
  140.8946   76.1598  218.9883 H   0  0  0  0  0  0  0  0  0  0  0  0
  143.0332   76.9750  219.9890 H   0  0  0  0  0  0  0  0  0  0  0  0
  144.4630   76.3620  217.9010 H   0  0  0  0  0  0  0  0  0  0  0  0
  144.7437   74.8299  218.9756 H   0  0  0  0  0  0  0  0  0  0  0  0
  144.5199   75.3434  220.6486 H   0  0  0  0  0  0  0  0  0  0  0  0
  143.0459   73.2250  219.0759 H   0  0  0  0  0  0  0  0  0  0  0  0
  143.0943   73.1543  221.8215 H   0  0  0  0  0  0  0  0  0  0  0  0
  145.4405   73.6640  221.3149 H   0  0  0  0  0  0  0  0  0  0  0  0
  145.2494   71.8958  221.6676 H   0  0  0  0  0  0  0  0  0  0  0  0
  145.2390   72.9946  218.8279 H   0  0  0  0  0  0  0  0  0  0  0  0
  146.7375   72.5288  219.6134 H   0  0  0  0  0  0  0  0  0  0  0  0
  147.1521   70.3615  218.5398 H   0  0  0  0  0  0  0  0  0  0  0  0
  146.4813   67.9631  218.2414 H   0  0  0  0  0  0  0  0  0  0  0  0
  144.2120   67.2983  218.9886 H   0  0  0  0  0  0  0  0  0  0  0  0
  142.6512   68.8951  219.9934 H   0  0  0  0  0  0  0  0  0  0  0  0
  142.2108   71.6024  219.7144 H   0  0  0  0  0  0  0  0  0  0  0  0
  142.7078   70.9699  221.3776 H   0  0  0  0  0  0  0  0  0  0  0  0
  138.8201   68.9461  222.7856 H   0  0  0  0  0  0  0  0  0  0  0  0
  138.7999   67.6343  224.8479 H   0  0  0  0  0  0  0  0  0  0  0  0
  139.3717   67.4248  227.1672 H   0  0  0  0  0  0  0  0  0  0  0  0
  141.4442   70.6197  229.1351 H   0  0  0  0  0  0  0  0  0  0  0  0
  141.4563   71.9394  227.0247 H   0  0  0  0  0  0  0  0  0  0  0  0
  1  2  2  0
  2  3  1  0
  3  4  1  0
  4  5  1  0
  5  6  2  0
  5  7  1  0
  7  8  1  0
  8  9  1  0
  9 10  1  0
  9 11  1  0
 11 12  1  0
 12 13  1  0
 13 14  1  0
 14 15  1  0
 15 16  1  0
 16 17  2  0
 17 18  1  0
 18 19  2  0
 19 20  1  0
 20 21  2  0
 21 22  1  0
  2 23  1  0
 23 24  2  0
 24 25  1  0
 25 26  2  0
 26 27  1  0
 27 28  2  0
 28 29  1  0
 28 30  1  0
 30 31  2  0
 31 32  1  0
 32 33  2  0
 12  7  1  0
 22 13  1  0
 33 23  1  0
 21 16  1  0
 32 26  1  0
  3 34  1  0
  4 35  1  0
  4 36  1  0
  8 37  1  0
  8 38  1  0
  9 39  1  1
 10 40  1  0
 11 41  1  0
 11 42  1  0
 12 43  1  6
 13 44  1  1
 14 45  1  0
 14 46  1  0
 15 47  1  0
 15 48  1  0
 17 49  1  0
 18 50  1  0
 19 51  1  0
 20 52  1  0
 22 53  1  0
 22 54  1  0
 24 55  1  0
 25 56  1  0
 27 57  1  0
 30 58  1  0
 31 59  1  0
M  END
>  <meeko>  (9) 
{"free_energy": -9.33, "intermolecular_energy": -11.12, "internal_energy": -1.85, "cluster_size": 12, "cluster_id": 2, "rank_in_cluster": 3}

$$$$

     RDKit          3D

 59 63  0  0  0  0  0  0  0  0999 V2000
  139.9330   73.7640  222.7090 O   0  0  0  0  0  0  0  0  0  0  0  0
  140.3160   72.5570  222.5420 C   0  0  0  0  0  0  0  0  0  0  0  0
  140.8410   72.0890  221.3130 N   0  0  0  0  0  0  0  0  0  0  0  0
  140.9560   73.0200  220.1650 C   0  0  0  0  0  0  0  0  0  0  0  0
  142.2290   73.7260  220.2050 C   0  0  0  0  0  0  0  0  0  0  0  0
  143.1080   73.2140  221.0180 O   0  0  0  0  0  0  0  0  0  0  0  0
  142.6620   74.8540  219.5180 N   0  0  0  0  0  0  0  0  0  0  0  0
  143.8870   74.7830  218.6520 C   0  0  0  0  0  0  0  0  0  0  0  0
  143.2990   75.3330  217.3760 C   0  0  2  0  0  0  0  0  0  0  0  0
  144.2940   75.8430  216.5330 O   0  0  0  0  0  0  0  0  0  0  0  0
  142.3410   76.3720  217.8260 C   0  0  0  0  0  0  0  0  0  0  0  0
  142.2700   76.2150  219.3100 C   0  0  1  0  0  0  0  0  0  0  0  0
  141.0800   76.7320  220.0000 C   0  0  2  0  0  0  0  0  0  0  0  0
  140.6750   78.1260  219.5690 C   0  0  0  0  0  0  0  0  0  0  0  0
  141.7610   79.1380  219.8570 C   0  0  0  0  0  0  0  0  0  0  0  0
  141.7090   79.2990  221.3600 C   0  0  0  0  0  0  0  0  0  0  0  0
  141.8930   80.5300  221.9520 C   0  0  0  0  0  0  0  0  0  0  0  0
  141.8310   80.6570  223.3260 C   0  0  0  0  0  0  0  0  0  0  0  0
  141.5820   79.5050  224.0410 C   0  0  0  0  0  0  0  0  0  0  0  0
  141.3980   78.2750  223.4500 C   0  0  0  0  0  0  0  0  0  0  0  0
  141.4590   78.1420  222.0590 C   0  0  0  0  0  0  0  0  0  0  0  0
  141.2630   76.8110  221.5070 C   0  0  0  0  0  0  0  0  0  0  0  0
  140.2120   71.6250  223.6600 C   0  0  0  0  0  0  0  0  0  0  0  0
  139.5870   70.3900  223.4850 C   0  0  0  0  0  0  0  0  0  0  0  0
  139.4560   69.4760  224.4830 C   0  0  0  0  0  0  0  0  0  0  0  0
  139.9560   69.7730  225.7220 C   0  0  0  0  0  0  0  0  0  0  0  0
  139.8370   68.8640  226.7550 C   0  0  0  0  0  0  0  0  0  0  0  0
  140.3410   69.1670  227.9940 C   0  0  0  0  0  0  0  0  0  0  0  0
  140.2020   68.2410  228.9900 F   0  0  0  0  0  0  0  0  0  0  0  0
  140.9660   70.3820  228.2040 C   0  0  0  0  0  0  0  0  0  0  0  0
  141.0910   71.3050  227.1690 C   0  0  0  0  0  0  0  0  0  0  0  0
  140.5800   71.0010  225.9080 C   0  0  0  0  0  0  0  0  0  0  0  0
  140.6950   71.8920  224.8860 N   0  0  0  0  0  0  0  0  0  0  0  0
  141.1330   71.0930  221.2500 H   0  0  0  0  0  0  0  0  0  0  0  0
  140.8886   72.4485  219.2275 H   0  0  0  0  0  0  0  0  0  0  0  0
  140.1399   73.7555  220.2209 H   0  0  0  0  0  0  0  0  0  0  0  0
  144.7024   75.4132  219.0367 H   0  0  0  0  0  0  0  0  0  0  0  0
  144.3547   73.7907  218.5707 H   0  0  0  0  0  0  0  0  0  0  0  0
  142.7982   74.5613  216.7730 H   0  0  0  0  0  0  0  0  0  0  0  0
  145.1170   75.9280  217.0890 H   0  0  0  0  0  0  0  0  0  0  0  0
  142.7056   77.3752  217.5603 H   0  0  0  0  0  0  0  0  0  0  0  0
  141.3554   76.2592  217.3507 H   0  0  0  0  0  0  0  0  0  0  0  0
  142.9492   76.9017  219.8363 H   0  0  0  0  0  0  0  0  0  0  0  0
  140.3032   76.0045  219.7220 H   0  0  0  0  0  0  0  0  0  0  0  0
  140.4711   78.1198  218.4881 H   0  0  0  0  0  0  0  0  0  0  0  0
  139.7785   78.4139  220.1376 H   0  0  0  0  0  0  0  0  0  0  0  0
  142.7435   78.7615  219.5363 H   0  0  0  0  0  0  0  0  0  0  0  0
  141.6136   80.0869  219.3205 H   0  0  0  0  0  0  0  0  0  0  0  0
  142.0899   81.4143  221.3281 H   0  0  0  0  0  0  0  0  0  0  0  0
  141.9730   81.6274  223.8241 H   0  0  0  0  0  0  0  0  0  0  0  0
  141.5276   79.5716  225.1376 H   0  0  0  0  0  0  0  0  0  0  0  0
  141.2018   77.3917  224.0756 H   0  0  0  0  0  0  0  0  0  0  0  0
  142.1422   76.2049  221.7710 H   0  0  0  0  0  0  0  0  0  0  0  0
  140.3184   76.4484  221.9386 H   0  0  0  0  0  0  0  0  0  0  0  0
  139.1810   70.1441  222.4927 H   0  0  0  0  0  0  0  0  0  0  0  0
  138.9564   68.5137  224.2977 H   0  0  0  0  0  0  0  0  0  0  0  0
  139.3387   67.8983  226.5842 H   0  0  0  0  0  0  0  0  0  0  0  0
  141.3688   70.6221  229.1990 H   0  0  0  0  0  0  0  0  0  0  0  0
  141.5904   72.2691  227.3454 H   0  0  0  0  0  0  0  0  0  0  0  0
  1  2  2  0
  2  3  1  0
  3  4  1  0
  4  5  1  0
  5  6  2  0
  5  7  1  0
  7  8  1  0
  8  9  1  0
  9 10  1  0
  9 11  1  0
 11 12  1  0
 12 13  1  0
 13 14  1  0
 14 15  1  0
 15 16  1  0
 16 17  2  0
 17 18  1  0
 18 19  2  0
 19 20  1  0
 20 21  2  0
 21 22  1  0
  2 23  1  0
 23 24  2  0
 24 25  1  0
 25 26  2  0
 26 27  1  0
 27 28  2  0
 28 29  1  0
 28 30  1  0
 30 31  2  0
 31 32  1  0
 32 33  2  0
 12  7  1  0
 22 13  1  0
 33 23  1  0
 21 16  1  0
 32 26  1  0
  3 34  1  0
  4 35  1  0
  4 36  1  0
  8 37  1  0
  8 38  1  0
  9 39  1  6
 10 40  1  0
 11 41  1  0
 11 42  1  0
 12 43  1  1
 13 44  1  1
 14 45  1  0
 14 46  1  0
 15 47  1  0
 15 48  1  0
 17 49  1  0
 18 50  1  0
 19 51  1  0
 20 52  1  0
 22 53  1  0
 22 54  1  0
 24 55  1  0
 25 56  1  0
 27 57  1  0
 30 58  1  0
 31 59  1  0
M  END
>  <meeko>  (10) 
{"free_energy": -9.55, "intermolecular_energy": -11.34, "internal_energy": -1.52, "cluster_size": 4, "cluster_id": 1, "rank_in_cluster": 1}

$$$$

     RDKit          3D

 59 63  0  0  0  0  0  0  0  0999 V2000
  140.1820   70.8390  221.2490 O   0  0  0  0  0  0  0  0  0  0  0  0
  139.9550   71.4570  222.3440 C   0  0  0  0  0  0  0  0  0  0  0  0
  139.6920   72.8480  222.3920 N   0  0  0  0  0  0  0  0  0  0  0  0
  139.6770   73.6330  221.1350 C   0  0  0  0  0  0  0  0  0  0  0  0
  140.7380   74.6300  221.1420 C   0  0  0  0  0  0  0  0  0  0  0  0
  140.7150   75.4400  222.1630 O   0  0  0  0  0  0  0  0  0  0  0  0
  141.7720   74.8620  220.2420 N   0  0  0  0  0  0  0  0  0  0  0  0
  141.6110   75.8890  219.1590 C   0  0  0  0  0  0  0  0  0  0  0  0
  142.8580   76.6970  219.4200 C   0  0  2  0  0  0  0  0  0  0  0  0
  143.2430   77.4230  218.2870 O   0  0  0  0  0  0  0  0  0  0  0  0
  143.8710   75.6930  219.8280 C   0  0  0  0  0  0  0  0  0  0  0  0
  143.1090   74.4180  219.9890 C   0  0  1  0  0  0  0  0  0  0  0  0
  143.6920   73.3720  220.8410 C   0  0  2  0  0  0  0  0  0  0  0  0
  145.1930   73.2290  220.7020 C   0  0  0  0  0  0  0  0  0  0  0  0
  145.5910   72.8500  219.2930 C   0  0  0  0  0  0  0  0  0  0  0  0
  145.1760   71.4000  219.1840 C   0  0  0  0  0  0  0  0  0  0  0  0
  145.9500   70.4860  218.5010 C   0  0  0  0  0  0  0  0  0  0  0  0
  145.5570   69.1640  218.4210 C   0  0  0  0  0  0  0  0  0  0  0  0
  144.3760   68.8330  219.0500 C   0  0  0  0  0  0  0  0  0  0  0  0
  143.6020   69.7460  219.7320 C   0  0  0  0  0  0  0  0  0  0  0  0
  143.9960   71.0850  219.8160 C   0  0  0  0  0  0  0  0  0  0  0  0
  143.1250   71.9920  220.5450 C   0  0  0  0  0  0  0  0  0  0  0  0
  139.9650   70.7020  223.5940 C   0  0  0  0  0  0  0  0  0  0  0  0
  139.4010   69.4270  223.6440 C   0  0  0  0  0  0  0  0  0  0  0  0
  139.3770   68.6710  224.7750 C   0  0  0  0  0  0  0  0  0  0  0  0
  139.9280   69.1760  225.9210 C   0  0  0  0  0  0  0  0  0  0  0  0
  139.9180   68.4320  227.0840 C   0  0  0  0  0  0  0  0  0  0  0  0
  140.4710   68.9440  228.2290 C   0  0  0  0  0  0  0  0  0  0  0  0
  140.4400   68.1740  229.3590 F   0  0  0  0  0  0  0  0  0  0  0  0
  141.0380   70.2050  228.2150 C   0  0  0  0  0  0  0  0  0  0  0  0
  141.0530   70.9630  227.0480 C   0  0  0  0  0  0  0  0  0  0  0  0
  140.4920   70.4470  225.8820 C   0  0  0  0  0  0  0  0  0  0  0  0
  140.4990   71.1750  224.7320 N   0  0  0  0  0  0  0  0  0  0  0  0
  139.5160   73.2840  223.3190 H   0  0  0  0  0  0  0  0  0  0  0  0
  139.8246   72.9537  220.2825 H   0  0  0  0  0  0  0  0  0  0  0  0
  138.7080   74.1463  221.0484 H   0  0  0  0  0  0  0  0  0  0  0  0
  141.6141   75.4364  218.1564 H   0  0  0  0  0  0  0  0  0  0  0  0
  140.6670   76.4534  219.1761 H   0  0  0  0  0  0  0  0  0  0  0  0
  142.7134   77.4604  220.1986 H   0  0  0  0  0  0  0  0  0  0  0  0
  143.6950   78.2460  218.6210 H   0  0  0  0  0  0  0  0  0  0  0  0
  144.6437   75.5863  219.0524 H   0  0  0  0  0  0  0  0  0  0  0  0
  144.3910   75.9831  220.7529 H   0  0  0  0  0  0  0  0  0  0  0  0
  143.1471   73.7897  219.0869 H   0  0  0  0  0  0  0  0  0  0  0  0
  143.4324   73.7114  221.8546 H   0  0  0  0  0  0  0  0  0  0  0  0
  145.6678   74.1868  220.9611 H   0  0  0  0  0  0  0  0  0  0  0  0
  145.5252   72.4283  221.3791 H   0  0  0  0  0  0  0  0  0  0  0  0
  145.0583   73.4675  218.5549 H   0  0  0  0  0  0  0  0  0  0  0  0
  146.6621   73.0040  219.0954 H   0  0  0  0  0  0  0  0  0  0  0  0
  146.8836   70.8105  218.0182 H   0  0  0  0  0  0  0  0  0  0  0  0
  146.1557   68.4142  217.8831 H   0  0  0  0  0  0  0  0  0  0  0  0
  144.0347   67.7882  219.0052 H   0  0  0  0  0  0  0  0  0  0  0  0
  142.6683   69.4197  220.2134 H   0  0  0  0  0  0  0  0  0  0  0  0
  142.2078   72.1256  219.9527 H   0  0  0  0  0  0  0  0  0  0  0  0
  142.9646   71.5220  221.5265 H   0  0  0  0  0  0  0  0  0  0  0  0
  138.9553   69.0140  222.7271 H   0  0  0  0  0  0  0  0  0  0  0  0
  138.9218   67.6696  224.7681 H   0  0  0  0  0  0  0  0  0  0  0  0
  139.4665   67.4289  227.0917 H   0  0  0  0  0  0  0  0  0  0  0  0
  141.4815   70.6130  229.1352 H   0  0  0  0  0  0  0  0  0  0  0  0
  141.5059   71.9654  227.0463 H   0  0  0  0  0  0  0  0  0  0  0  0
  1  2  2  0
  2  3  1  0
  3  4  1  0
  4  5  1  0
  5  6  2  0
  5  7  1  0
  7  8  1  0
  8  9  1  0
  9 10  1  0
  9 11  1  0
 11 12  1  0
 12 13  1  0
 13 14  1  0
 14 15  1  0
 15 16  1  0
 16 17  2  0
 17 18  1  0
 18 19  2  0
 19 20  1  0
 20 21  2  0
 21 22  1  0
  2 23  1  0
 23 24  2  0
 24 25  1  0
 25 26  2  0
 26 27  1  0
 27 28  2  0
 28 29  1  0
 28 30  1  0
 30 31  2  0
 31 32  1  0
 32 33  2  0
 12  7  1  0
 22 13  1  0
 33 23  1  0
 21 16  1  0
 32 26  1  0
  3 34  1  0
  4 35  1  0
  4 36  1  0
  8 37  1  0
  8 38  1  0
  9 39  1  1
 10 40  1  0
 11 41  1  0
 11 42  1  0
 12 43  1  6
 13 44  1  1
 14 45  1  0
 14 46  1  0
 15 47  1  0
 15 48  1  0
 17 49  1  0
 18 50  1  0
 19 51  1  0
 20 52  1  0
 22 53  1  0
 22 54  1  0
 24 55  1  0
 25 56  1  0
 27 57  1  0
 30 58  1  0
 31 59  1  0
M  END
>  <meeko>  (11) 
{"free_energy": -9.27, "intermolecular_energy": -11.06, "internal_energy": -1.93, "cluster_size": 12, "cluster_id": 2, "rank_in_cluster": 8}

$$$$

     RDKit          3D

 59 63  0  0  0  0  0  0  0  0999 V2000
  138.4820   72.6050  222.1320 O   0  0  0  0  0  0  0  0  0  0  0  0
  139.6320   72.3130  222.6060 C   0  0  0  0  0  0  0  0  0  0  0  0
  140.8320   72.8380  222.0670 N   0  0  0  0  0  0  0  0  0  0  0  0
  140.7700   73.7620  220.9090 C   0  0  0  0  0  0  0  0  0  0  0  0
  142.1060   74.2120  220.5430 C   0  0  0  0  0  0  0  0  0  0  0  0
  143.0750   73.4870  221.0260 O   0  0  0  0  0  0  0  0  0  0  0  0
  142.5190   75.2860  219.7620 N   0  0  0  0  0  0  0  0  0  0  0  0
  143.6860   75.1330  218.8300 C   0  0  0  0  0  0  0  0  0  0  0  0
  143.0320   75.6180  217.5600 C   0  0  2  0  0  0  0  0  0  0  0  0
  143.9820   76.0520  216.6280 O   0  0  0  0  0  0  0  0  0  0  0  0
  142.1250   76.7050  218.0020 C   0  0  0  0  0  0  0  0  0  0  0  0
  142.1430   76.6410  219.4940 C   0  0  1  0  0  0  0  0  0  0  0  0
  141.0080   77.2280  220.2210 C   0  0  2  0  0  0  0  0  0  0  0  0
  140.6490   78.6300  219.7750 C   0  0  0  0  0  0  0  0  0  0  0  0
  141.7920   79.5960  219.9920 C   0  0  0  0  0  0  0  0  0  0  0  0
  141.8120   79.7920  221.4920 C   0  0  0  0  0  0  0  0  0  0  0  0
  142.0780   81.0260  222.0460 C   0  0  0  0  0  0  0  0  0  0  0  0
  142.0820   81.1850  223.4190 C   0  0  0  0  0  0  0  0  0  0  0  0
  141.8120   80.0620  224.1710 C   0  0  0  0  0  0  0  0  0  0  0  0
  141.5460   78.8290  223.6170 C   0  0  0  0  0  0  0  0  0  0  0  0
  141.5410   78.6630  222.2280 C   0  0  0  0  0  0  0  0  0  0  0  0
  141.2610   77.3310  221.7170 C   0  0  0  0  0  0  0  0  0  0  0  0
  139.7140   71.4050  223.7460 C   0  0  0  0  0  0  0  0  0  0  0  0
  139.1310   70.1400  223.6750 C   0  0  0  0  0  0  0  0  0  0  0  0
  139.1710   69.2460  224.7000 C   0  0  0  0  0  0  0  0  0  0  0  0
  139.8100   69.5960  225.8580 C   0  0  0  0  0  0  0  0  0  0  0  0
  139.8660   68.7090  226.9150 C   0  0  0  0  0  0  0  0  0  0  0  0
  140.5070   69.0650  228.0740 C   0  0  0  0  0  0  0  0  0  0  0  0
  140.5410   68.1590  229.0970 F   0  0  0  0  0  0  0  0  0  0  0  0
  141.0970   70.3120  228.1790 C   0  0  0  0  0  0  0  0  0  0  0  0
  141.0450   71.2130  227.1190 C   0  0  0  0  0  0  0  0  0  0  0  0
  140.3940   70.8550  225.9400 C   0  0  0  0  0  0  0  0  0  0  0  0
  140.3360   71.7240  224.8940 N   0  0  0  0  0  0  0  0  0  0  0  0
  141.7320   72.5570  222.5030 H   0  0  0  0  0  0  0  0  0  0  0  0
  140.3168   73.2400  220.0533 H   0  0  0  0  0  0  0  0  0  0  0  0
  140.1630   74.6371  221.1844 H   0  0  0  0  0  0  0  0  0  0  0  0
  144.5361   75.7657  219.1248 H   0  0  0  0  0  0  0  0  0  0  0  0
  144.1274   74.1266  218.7827 H   0  0  0  0  0  0  0  0  0  0  0  0
  142.4802   74.8227  217.0375 H   0  0  0  0  0  0  0  0  0  0  0  0
  144.8620   76.0330  217.0950 H   0  0  0  0  0  0  0  0  0  0  0  0
  142.4924   77.6811  217.6525 H   0  0  0  0  0  0  0  0  0  0  0  0
  141.1097   76.5867  217.5957 H   0  0  0  0  0  0  0  0  0  0  0  0
  142.8674   77.3417  219.9348 H   0  0  0  0  0  0  0  0  0  0  0  0
  140.1870   76.5324  219.9930 H   0  0  0  0  0  0  0  0  0  0  0  0
  140.3976   78.6100  218.7043 H   0  0  0  0  0  0  0  0  0  0  0  0
  139.7926   78.9719  220.3748 H   0  0  0  0  0  0  0  0  0  0  0  0
  142.7414   79.1667  219.6393 H   0  0  0  0  0  0  0  0  0  0  0  0
  141.6658   80.5387  219.4394 H   0  0  0  0  0  0  0  0  0  0  0  0
  142.2876   81.8865  221.3936 H   0  0  0  0  0  0  0  0  0  0  0  0
  142.2901   82.1582  223.8876 H   0  0  0  0  0  0  0  0  0  0  0  0
  141.8087   80.1547  225.2671 H   0  0  0  0  0  0  0  0  0  0  0  0
  141.3363   77.9697  224.2709 H   0  0  0  0  0  0  0  0  0  0  0  0
  142.1228   76.6909  221.9570 H   0  0  0  0  0  0  0  0  0  0  0  0
  140.3212   77.0216  222.1976 H   0  0  0  0  0  0  0  0  0  0  0  0
  138.6149   69.8516  222.7474 H   0  0  0  0  0  0  0  0  0  0  0  0
  138.6975   68.2583  224.5992 H   0  0  0  0  0  0  0  0  0  0  0  0
  139.3969   67.7179  226.8274 H   0  0  0  0  0  0  0  0  0  0  0  0
  141.6122   70.5943  229.1090 H   0  0  0  0  0  0  0  0  0  0  0  0
  141.5156   72.2029  227.2117 H   0  0  0  0  0  0  0  0  0  0  0  0
  1  2  2  0
  2  3  1  0
  3  4  1  0
  4  5  1  0
  5  6  2  0
  5  7  1  0
  7  8  1  0
  8  9  1  0
  9 10  1  0
  9 11  1  0
 11 12  1  0
 12 13  1  0
 13 14  1  0
 14 15  1  0
 15 16  1  0
 16 17  2  0
 17 18  1  0
 18 19  2  0
 19 20  1  0
 20 21  2  0
 21 22  1  0
  2 23  1  0
 23 24  2  0
 24 25  1  0
 25 26  2  0
 26 27  1  0
 27 28  2  0
 28 29  1  0
 28 30  1  0
 30 31  2  0
 31 32  1  0
 32 33  2  0
 12  7  1  0
 22 13  1  0
 33 23  1  0
 21 16  1  0
 32 26  1  0
  3 34  1  0
  4 35  1  0
  4 36  1  0
  8 37  1  0
  8 38  1  0
  9 39  1  6
 10 40  1  0
 11 41  1  0
 11 42  1  0
 12 43  1  1
 13 44  1  1
 14 45  1  0
 14 46  1  0
 15 47  1  0
 15 48  1  0
 17 49  1  0
 18 50  1  0
 19 51  1  0
 20 52  1  0
 22 53  1  0
 22 54  1  0
 24 55  1  0
 25 56  1  0
 27 57  1  0
 30 58  1  0
 31 59  1  0
M  END
>  <meeko>  (12) 
{"free_energy": -9.31, "intermolecular_energy": -11.1, "internal_energy": -1.91, "cluster_size": 4, "cluster_id": 1, "rank_in_cluster": 3}

$$$$

     RDKit          3D

 59 63  0  0  0  0  0  0  0  0999 V2000
  140.1470   70.9110  221.3020 O   0  0  0  0  0  0  0  0  0  0  0  0
  139.9180   71.5150  222.4040 C   0  0  0  0  0  0  0  0  0  0  0  0
  139.6540   72.9050  222.4690 N   0  0  0  0  0  0  0  0  0  0  0  0
  139.6400   73.7060  221.2220 C   0  0  0  0  0  0  0  0  0  0  0  0
  140.8310   74.5390  221.1360 C   0  0  0  0  0  0  0  0  0  0  0  0
  140.9520   75.4150  222.0930 O   0  0  0  0  0  0  0  0  0  0  0  0
  141.8630   74.5540  220.2040 N   0  0  0  0  0  0  0  0  0  0  0  0
  141.8180   75.5100  219.0470 C   0  0  0  0  0  0  0  0  0  0  0  0
  143.1730   76.1500  219.2250 C   0  0  2  0  0  0  0  0  0  0  0  0
  143.6260   76.7280  218.0330 O   0  0  0  0  0  0  0  0  0  0  0  0
  144.0460   75.0450  219.6930 C   0  0  0  0  0  0  0  0  0  0  0  0
  143.1170   73.9070  219.9640 C   0  0  1  0  0  0  0  0  0  0  0  0
  143.5700   72.8540  220.8840 C   0  0  2  0  0  0  0  0  0  0  0  0
  145.0760   72.7280  220.9830 C   0  0  0  0  0  0  0  0  0  0  0  0
  145.6960   72.3730  219.6510 C   0  0  0  0  0  0  0  0  0  0  0  0
  145.3200   70.9200  219.4580 C   0  0  0  0  0  0  0  0  0  0  0  0
  146.2030   70.0240  218.8960 C   0  0  0  0  0  0  0  0  0  0  0  0
  145.8430   68.6990  218.7390 C   0  0  0  0  0  0  0  0  0  0  0  0
  144.5820   68.3480  219.1680 C   0  0  0  0  0  0  0  0  0  0  0  0
  143.6990   69.2440  219.7310 C   0  0  0  0  0  0  0  0  0  0  0  0
  144.0590   70.5850  219.8920 C   0  0  0  0  0  0  0  0  0  0  0  0
  143.0730   71.4730  220.4850 C   0  0  0  0  0  0  0  0  0  0  0  0
  139.9260   70.7440  223.6440 C   0  0  0  0  0  0  0  0  0  0  0  0
  139.3540   69.4720  223.6800 C   0  0  0  0  0  0  0  0  0  0  0  0
  139.3280   68.7020  224.8010 C   0  0  0  0  0  0  0  0  0  0  0  0
  139.8860   69.1900  225.9510 C   0  0  0  0  0  0  0  0  0  0  0  0
  139.8740   68.4300  227.1050 C   0  0  0  0  0  0  0  0  0  0  0  0
  140.4340   68.9240  228.2550 C   0  0  0  0  0  0  0  0  0  0  0  0
  140.4020   68.1400  229.3750 F   0  0  0  0  0  0  0  0  0  0  0  0
  141.0100   70.1810  228.2550 C   0  0  0  0  0  0  0  0  0  0  0  0
  141.0260   70.9540  227.0980 C   0  0  0  0  0  0  0  0  0  0  0  0
  140.4580   70.4570  225.9270 C   0  0  0  0  0  0  0  0  0  0  0  0
  140.4670   71.2000  224.7870 N   0  0  0  0  0  0  0  0  0  0  0  0
  139.4760   73.3290  223.4010 H   0  0  0  0  0  0  0  0  0  0  0  0
  139.6098   73.0276  220.3566 H   0  0  0  0  0  0  0  0  0  0  0  0
  138.7521   74.3553  221.2269 H   0  0  0  0  0  0  0  0  0  0  0  0
  141.7307   74.9882  218.0826 H   0  0  0  0  0  0  0  0  0  0  0  0
  140.9631   76.2021  219.0351 H   0  0  0  0  0  0  0  0  0  0  0  0
  143.1577   76.9818  219.9447 H   0  0  0  0  0  0  0  0  0  0  0  0
  144.5110   76.3140  217.8390 H   0  0  0  0  0  0  0  0  0  0  0  0
  144.7749   74.7724  218.9156 H   0  0  0  0  0  0  0  0  0  0  0  0
  144.6264   75.3259  220.5842 H   0  0  0  0  0  0  0  0  0  0  0  0
  143.0419   73.2149  219.1123 H   0  0  0  0  0  0  0  0  0  0  0  0
  143.1490   73.1758  221.8479 H   0  0  0  0  0  0  0  0  0  0  0  0
  145.4922   73.6868  221.3257 H   0  0  0  0  0  0  0  0  0  0  0  0
  145.3066   71.9214  221.6945 H   0  0  0  0  0  0  0  0  0  0  0  0
  145.2800   72.9964  218.8458 H   0  0  0  0  0  0  0  0  0  0  0  0
  146.7831   72.5393  219.6282 H   0  0  0  0  0  0  0  0  0  0  0  0
  147.1974   70.3643  218.5713 H   0  0  0  0  0  0  0  0  0  0  0  0
  146.5283   67.9624  218.2943 H   0  0  0  0  0  0  0  0  0  0  0  0
  144.2641   67.3010  219.0557 H   0  0  0  0  0  0  0  0  0  0  0  0
  142.7052   68.9018  220.0555 H   0  0  0  0  0  0  0  0  0  0  0  0
  142.2595   71.6061  219.7566 H   0  0  0  0  0  0  0  0  0  0  0  0
  142.7646   70.9877  221.4228 H   0  0  0  0  0  0  0  0  0  0  0  0
  138.9032   69.0733  222.7592 H   0  0  0  0  0  0  0  0  0  0  0  0
  138.8662   67.7038  224.7833 H   0  0  0  0  0  0  0  0  0  0  0  0
  139.4158   67.4300  227.1011 H   0  0  0  0  0  0  0  0  0  0  0  0
  141.4600   70.5738  229.1787 H   0  0  0  0  0  0  0  0  0  0  0  0
  141.4853   71.9535  227.1080 H   0  0  0  0  0  0  0  0  0  0  0  0
  1  2  2  0
  2  3  1  0
  3  4  1  0
  4  5  1  0
  5  6  2  0
  5  7  1  0
  7  8  1  0
  8  9  1  0
  9 10  1  0
  9 11  1  0
 11 12  1  0
 12 13  1  0
 13 14  1  0
 14 15  1  0
 15 16  1  0
 16 17  2  0
 17 18  1  0
 18 19  2  0
 19 20  1  0
 20 21  2  0
 21 22  1  0
  2 23  1  0
 23 24  2  0
 24 25  1  0
 25 26  2  0
 26 27  1  0
 27 28  2  0
 28 29  1  0
 28 30  1  0
 30 31  2  0
 31 32  1  0
 32 33  2  0
 12  7  1  0
 22 13  1  0
 33 23  1  0
 21 16  1  0
 32 26  1  0
  3 34  1  0
  4 35  1  0
  4 36  1  0
  8 37  1  0
  8 38  1  0
  9 39  1  1
 10 40  1  0
 11 41  1  0
 11 42  1  0
 12 43  1  6
 13 44  1  1
 14 45  1  0
 14 46  1  0
 15 47  1  0
 15 48  1  0
 17 49  1  0
 18 50  1  0
 19 51  1  0
 20 52  1  0
 22 53  1  0
 22 54  1  0
 24 55  1  0
 25 56  1  0
 27 57  1  0
 30 58  1  0
 31 59  1  0
M  END
>  <meeko>  (13) 
{"free_energy": -9.34, "intermolecular_energy": -11.13, "internal_energy": -1.83, "cluster_size": 12, "cluster_id": 2, "rank_in_cluster": 2}

$$$$

     RDKit          3D

 59 63  0  0  0  0  0  0  0  0999 V2000
  141.1930   73.4450  220.5680 O   0  0  0  0  0  0  0  0  0  0  0  0
  140.4860   74.1880  221.3290 C   0  0  0  0  0  0  0  0  0  0  0  0
  139.4050   73.6840  222.0930 N   0  0  0  0  0  0  0  0  0  0  0  0
  139.0660   72.2430  222.0170 C   0  0  0  0  0  0  0  0  0  0  0  0
  137.8520   71.9630  222.7720 C   0  0  0  0  0  0  0  0  0  0  0  0
  137.0140   72.9580  222.8390 O   0  0  0  0  0  0  0  0  0  0  0  0
  137.4390   70.8100  223.4300 N   0  0  0  0  0  0  0  0  0  0  0  0
  135.9770   70.4780  223.5190 C   0  0  0  0  0  0  0  0  0  0  0  0
  136.0260   69.0720  222.9740 C   0  0  2  0  0  0  0  0  0  0  0  0
  134.9130   68.3280  223.3790 O   0  0  0  0  0  0  0  0  0  0  0  0
  137.3030   68.5200  223.4890 C   0  0  0  0  0  0  0  0  0  0  0  0
  138.0070   69.6840  224.1060 C   0  0  1  0  0  0  0  0  0  0  0  0
  139.4660   69.6010  224.2610 C   0  0  2  0  0  0  0  0  0  0  0  0
  139.9180   68.6270  225.3290 C   0  0  0  0  0  0  0  0  0  0  0  0
  139.4030   69.0170  226.6970 C   0  0  0  0  0  0  0  0  0  0  0  0
  140.2430   70.2210  227.0640 C   0  0  0  0  0  0  0  0  0  0  0  0
  140.6820   70.4160  228.3550 C   0  0  0  0  0  0  0  0  0  0  0  0
  141.4560   71.5170  228.6660 C   0  0  0  0  0  0  0  0  0  0  0  0
  141.7480   72.3790  227.6310 C   0  0  0  0  0  0  0  0  0  0  0  0
  141.3090   72.1830  226.3400 C   0  0  0  0  0  0  0  0  0  0  0  0
  140.5250   71.0700  226.0200 C   0  0  0  0  0  0  0  0  0  0  0  0
  140.0920   70.9350  224.6390 C   0  0  0  0  0  0  0  0  0  0  0  0
  140.8040   75.6100  221.4180 C   0  0  0  0  0  0  0  0  0  0  0  0
  141.6800   76.1890  220.5000 C   0  0  0  0  0  0  0  0  0  0  0  0
  142.0180   77.5060  220.5260 C   0  0  0  0  0  0  0  0  0  0  0  0
  141.4800   78.3090  221.4950 C   0  0  0  0  0  0  0  0  0  0  0  0
  141.8050   79.6500  221.5460 C   0  0  0  0  0  0  0  0  0  0  0  0
  141.2630   80.4480  222.5200 C   0  0  0  0  0  0  0  0  0  0  0  0
  141.6110   81.7710  222.5360 F   0  0  0  0  0  0  0  0  0  0  0  0
  140.3910   79.9080  223.4470 C   0  0  0  0  0  0  0  0  0  0  0  0
  140.0570   78.5570  223.4040 C   0  0  0  0  0  0  0  0  0  0  0  0
  140.6060   77.7420  222.4160 C   0  0  0  0  0  0  0  0  0  0  0  0
  140.2890   76.4190  222.3590 N   0  0  0  0  0  0  0  0  0  0  0  0
  138.8740   74.3470  222.6910 H   0  0  0  0  0  0  0  0  0  0  0  0
  138.9103   71.9629  220.9647 H   0  0  0  0  0  0  0  0  0  0  0  0
  139.8940   71.6600  222.4466 H   0  0  0  0  0  0  0  0  0  0  0  0
  135.6089   70.5070  224.5552 H   0  0  0  0  0  0  0  0  0  0  0  0
  135.3004   71.1679  222.9934 H   0  0  0  0  0  0  0  0  0  0  0  0
  135.9901   69.0413  221.8750 H   0  0  0  0  0  0  0  0  0  0  0  0
  134.3240   68.9540  223.8830 H   0  0  0  0  0  0  0  0  0  0  0  0
  137.1117   67.7408  224.2415 H   0  0  0  0  0  0  0  0  0  0  0  0
  137.9004   68.0503  222.6937 H   0  0  0  0  0  0  0  0  0  0  0  0
  137.8339   69.7519  225.1902 H   0  0  0  0  0  0  0  0  0  0  0  0
  139.7970   69.2614  223.2685 H   0  0  0  0  0  0  0  0  0  0  0  0
  139.5415   67.6241  225.0791 H   0  0  0  0  0  0  0  0  0  0  0  0
  141.0175   68.6391  225.3606 H   0  0  0  0  0  0  0  0  0  0  0  0
  138.3360   69.2809  226.6543 H   0  0  0  0  0  0  0  0  0  0  0  0
  139.4811   68.2017  227.4313 H   0  0  0  0  0  0  0  0  0  0  0  0
  140.4156   69.6932  229.1402 H   0  0  0  0  0  0  0  0  0  0  0  0
  141.8209   71.6967  229.6880 H   0  0  0  0  0  0  0  0  0  0  0  0
  142.3613   73.2664  227.8462 H   0  0  0  0  0  0  0  0  0  0  0  0
  141.5768   72.9065  225.5559 H   0  0  0  0  0  0  0  0  0  0  0  0
  139.3500   71.7225  224.4410 H   0  0  0  0  0  0  0  0  0  0  0  0
  141.0070   71.0140  224.0335 H   0  0  0  0  0  0  0  0  0  0  0  0
  142.1179   75.5506  219.7185 H   0  0  0  0  0  0  0  0  0  0  0  0
  142.7128   77.9193  219.7801 H   0  0  0  0  0  0  0  0  0  0  0  0
  142.4978   80.0774  220.8062 H   0  0  0  0  0  0  0  0  0  0  0  0
  139.9569   80.5519  224.2261 H   0  0  0  0  0  0  0  0  0  0  0  0
  139.3633   78.1352  224.1462 H   0  0  0  0  0  0  0  0  0  0  0  0
  1  2  2  0
  2  3  1  0
  3  4  1  0
  4  5  1  0
  5  6  2  0
  5  7  1  0
  7  8  1  0
  8  9  1  0
  9 10  1  0
  9 11  1  0
 11 12  1  0
 12 13  1  0
 13 14  1  0
 14 15  1  0
 15 16  1  0
 16 17  2  0
 17 18  1  0
 18 19  2  0
 19 20  1  0
 20 21  2  0
 21 22  1  0
  2 23  1  0
 23 24  2  0
 24 25  1  0
 25 26  2  0
 26 27  1  0
 27 28  2  0
 28 29  1  0
 28 30  1  0
 30 31  2  0
 31 32  1  0
 32 33  2  0
 12  7  1  0
 22 13  1  0
 33 23  1  0
 21 16  1  0
 32 26  1  0
  3 34  1  0
  4 35  1  0
  4 36  1  0
  8 37  1  0
  8 38  1  0
  9 39  1  6
 10 40  1  0
 11 41  1  0
 11 42  1  0
 12 43  1  1
 13 44  1  6
 14 45  1  0
 14 46  1  0
 15 47  1  0
 15 48  1  0
 17 49  1  0
 18 50  1  0
 19 51  1  0
 20 52  1  0
 22 53  1  0
 22 54  1  0
 24 55  1  0
 25 56  1  0
 27 57  1  0
 30 58  1  0
 31 59  1  0
M  END
>  <meeko>  (14) 
{"free_energy": -9.05, "intermolecular_energy": -10.84, "internal_energy": -1.95, "cluster_size": 3, "cluster_id": 3, "rank_in_cluster": 1}

$$$$

     RDKit          3D

 59 63  0  0  0  0  0  0  0  0999 V2000
  140.3120   73.0170  222.7040 O   0  0  0  0  0  0  0  0  0  0  0  0
  140.3880   71.7460  222.8060 C   0  0  0  0  0  0  0  0  0  0  0  0
  140.4370   70.8940  221.6760 N   0  0  0  0  0  0  0  0  0  0  0  0
  140.3990   71.4820  220.3150 C   0  0  0  0  0  0  0  0  0  0  0  0
  141.7400   71.5580  219.7530 C   0  0  0  0  0  0  0  0  0  0  0  0
  142.1100   70.5010  219.0860 O   0  0  0  0  0  0  0  0  0  0  0  0
  142.6900   72.5710  219.8080 N   0  0  0  0  0  0  0  0  0  0  0  0
  144.1410   72.2320  219.9970 C   0  0  0  0  0  0  0  0  0  0  0  0
  144.7090   72.9880  218.8210 C   0  0  2  0  0  0  0  0  0  0  0  0
  146.0680   73.2690  219.0030 O   0  0  0  0  0  0  0  0  0  0  0  0
  143.8790   74.2140  218.7320 C   0  0  0  0  0  0  0  0  0  0  0  0
  142.7630   73.9960  219.7020 C   0  0  1  0  0  0  0  0  0  0  0  0
  141.5260   74.7670  219.5110 C   0  0  2  0  0  0  0  0  0  0  0  0
  141.7250   76.0860  218.7950 C   0  0  0  0  0  0  0  0  0  0  0  0
  142.6420   77.0090  219.5660 C   0  0  0  0  0  0  0  0  0  0  0  0
  141.7910   77.4650  220.7310 C   0  0  0  0  0  0  0  0  0  0  0  0
  141.8580   78.7590  221.1980 C   0  0  0  0  0  0  0  0  0  0  0  0
  141.0640   79.1580  222.2560 C   0  0  0  0  0  0  0  0  0  0  0  0
  140.2300   78.2030  222.7960 C   0  0  0  0  0  0  0  0  0  0  0  0
  140.1630   76.9090  222.3280 C   0  0  0  0  0  0  0  0  0  0  0  0
  140.9640   76.5010  221.2570 C   0  0  0  0  0  0  0  0  0  0  0  0
  140.8460   75.1180  220.8250 C   0  0  0  0  0  0  0  0  0  0  0  0
  140.4280   71.1480  224.1370 C   0  0  0  0  0  0  0  0  0  0  0  0
  140.8110   71.9150  225.2370 C   0  0  0  0  0  0  0  0  0  0  0  0
  140.8700   71.4200  226.5030 C   0  0  0  0  0  0  0  0  0  0  0  0
  140.5400   70.1090  226.7160 C   0  0  0  0  0  0  0  0  0  0  0  0
  140.5900   69.5790  227.9910 C   0  0  0  0  0  0  0  0  0  0  0  0
  140.2590   68.2650  228.1990 C   0  0  0  0  0  0  0  0  0  0  0  0
  140.3220   67.7790  229.4750 F   0  0  0  0  0  0  0  0  0  0  0  0
  139.8750   67.4750  227.1310 C   0  0  0  0  0  0  0  0  0  0  0  0
  139.8210   68.0000  225.8430 C   0  0  0  0  0  0  0  0  0  0  0  0
  140.1570   69.3350  225.6270 C   0  0  0  0  0  0  0  0  0  0  0  0
  140.1090   69.8640  224.3740 N   0  0  0  0  0  0  0  0  0  0  0  0
  140.4990   69.8690  221.8340 H   0  0  0  0  0  0  0  0  0  0  0  0
  139.7703   70.8537  219.6670 H   0  0  0  0  0  0  0  0  0  0  0  0
  139.9826   72.4982  220.3788 H   0  0  0  0  0  0  0  0  0  0  0  0
  144.5312   72.6047  220.9556 H   0  0  0  0  0  0  0  0  0  0  0  0
  144.3777   71.1583  220.0310 H   0  0  0  0  0  0  0  0  0  0  0  0
  144.6705   72.4089  217.8866 H   0  0  0  0  0  0  0  0  0  0  0  0
  146.2470   74.1200  218.5160 H   0  0  0  0  0  0  0  0  0  0  0  0
  144.4672   75.1004  219.0120 H   0  0  0  0  0  0  0  0  0  0  0  0
  143.5105   74.3906  217.7107 H   0  0  0  0  0  0  0  0  0  0  0  0
  142.9660   74.4494  220.6834 H   0  0  0  0  0  0  0  0  0  0  0  0
  140.9101   74.0903  218.9005 H   0  0  0  0  0  0  0  0  0  0  0  0
  142.1648   75.8916  217.8056 H   0  0  0  0  0  0  0  0  0  0  0  0
  140.7448   76.5764  218.7016 H   0  0  0  0  0  0  0  0  0  0  0  0
  143.5345   76.4713  219.9185 H   0  0  0  0  0  0  0  0  0  0  0  0
  143.0166   77.8453  218.9574 H   0  0  0  0  0  0  0  0  0  0  0  0
  142.5457   79.4770  220.7272 H   0  0  0  0  0  0  0  0  0  0  0  0
  141.0959   80.1855  222.6473 H   0  0  0  0  0  0  0  0  0  0  0  0
  139.5867   78.4877  223.6416 H   0  0  0  0  0  0  0  0  0  0  0  0
  139.4749   76.1922  222.7999 H   0  0  0  0  0  0  0  0  0  0  0  0
  141.2826   74.4825  221.6095 H   0  0  0  0  0  0  0  0  0  0  0  0
  139.7719   74.9522  220.6552 H   0  0  0  0  0  0  0  0  0  0  0  0
  141.0779   72.9695  225.0734 H   0  0  0  0  0  0  0  0  0  0  0  0
  141.1777   72.0626  227.3411 H   0  0  0  0  0  0  0  0  0  0  0  0
  140.8951   70.2107  228.8383 H   0  0  0  0  0  0  0  0  0  0  0  0
  139.6096   66.4211  227.3010 H   0  0  0  0  0  0  0  0  0  0  0  0
  139.5145   67.3640  224.9995 H   0  0  0  0  0  0  0  0  0  0  0  0
  1  2  2  0
  2  3  1  0
  3  4  1  0
  4  5  1  0
  5  6  2  0
  5  7  1  0
  7  8  1  0
  8  9  1  0
  9 10  1  0
  9 11  1  0
 11 12  1  0
 12 13  1  0
 13 14  1  0
 14 15  1  0
 15 16  1  0
 16 17  2  0
 17 18  1  0
 18 19  2  0
 19 20  1  0
 20 21  2  0
 21 22  1  0
  2 23  1  0
 23 24  2  0
 24 25  1  0
 25 26  2  0
 26 27  1  0
 27 28  2  0
 28 29  1  0
 28 30  1  0
 30 31  2  0
 31 32  1  0
 32 33  2  0
 12  7  1  0
 22 13  1  0
 33 23  1  0
 21 16  1  0
 32 26  1  0
  3 34  1  0
  4 35  1  0
  4 36  1  0
  8 37  1  0
  8 38  1  0
  9 39  1  6
 10 40  1  0
 11 41  1  0
 11 42  1  0
 12 43  1  1
 13 44  1  6
 14 45  1  0
 14 46  1  0
 15 47  1  0
 15 48  1  0
 17 49  1  0
 18 50  1  0
 19 51  1  0
 20 52  1  0
 22 53  1  0
 22 54  1  0
 24 55  1  0
 25 56  1  0
 27 57  1  0
 30 58  1  0
 31 59  1  0
M  END
>  <meeko>  (15) 
{"free_energy": -9.29, "intermolecular_energy": -11.08, "internal_energy": -1.79, "cluster_size": 4, "cluster_id": 1, "rank_in_cluster": 4}

$$$$

     RDKit          3D

 59 63  0  0  0  0  0  0  0  0999 V2000
  140.0500   71.0240  221.2200 O   0  0  0  0  0  0  0  0  0  0  0  0
  139.8840   71.6130  222.3420 C   0  0  0  0  0  0  0  0  0  0  0  0
  139.6590   73.0070  222.4440 N   0  0  0  0  0  0  0  0  0  0  0  0
  139.6120   73.8320  221.2130 C   0  0  0  0  0  0  0  0  0  0  0  0
  140.8080   74.6540  221.1020 C   0  0  0  0  0  0  0  0  0  0  0  0
  140.9360   75.5560  222.0340 O   0  0  0  0  0  0  0  0  0  0  0  0
  141.8380   74.6360  220.1680 N   0  0  0  0  0  0  0  0  0  0  0  0
  141.8240   75.5970  219.0140 C   0  0  0  0  0  0  0  0  0  0  0  0
  143.2000   76.1900  219.1900 C   0  0  2  0  0  0  0  0  0  0  0  0
  143.6700   76.7550  217.9990 O   0  0  0  0  0  0  0  0  0  0  0  0
  144.0360   75.0550  219.6540 C   0  0  0  0  0  0  0  0  0  0  0  0
  143.0690   73.9480  219.9240 C   0  0  1  0  0  0  0  0  0  0  0  0
  143.4870   72.8780  220.8400 C   0  0  2  0  0  0  0  0  0  0  0  0
  144.9890   72.7370  220.9800 C   0  0  0  0  0  0  0  0  0  0  0  0
  145.6430   72.3960  219.6600 C   0  0  0  0  0  0  0  0  0  0  0  0
  145.2610   70.9500  219.4350 C   0  0  0  0  0  0  0  0  0  0  0  0
  146.1510   70.0540  218.8840 C   0  0  0  0  0  0  0  0  0  0  0  0
  145.7850   68.7350  218.6980 C   0  0  0  0  0  0  0  0  0  0  0  0
  144.5090   68.3880  219.0870 C   0  0  0  0  0  0  0  0  0  0  0  0
  143.6190   69.2840  219.6380 C   0  0  0  0  0  0  0  0  0  0  0  0
  143.9850   70.6200  219.8290 C   0  0  0  0  0  0  0  0  0  0  0  0
  142.9900   71.5080  220.4080 C   0  0  0  0  0  0  0  0  0  0  0  0
  139.9270   70.8190  223.5670 C   0  0  0  0  0  0  0  0  0  0  0  0
  139.4490   69.5080  223.5670 C   0  0  0  0  0  0  0  0  0  0  0  0
  139.4600   68.7150  224.6710 C   0  0  0  0  0  0  0  0  0  0  0  0
  139.9590   69.2170  225.8420 C   0  0  0  0  0  0  0  0  0  0  0  0
  139.9830   68.4350  226.9800 C   0  0  0  0  0  0  0  0  0  0  0  0
  140.4840   68.9440  228.1500 C   0  0  0  0  0  0  0  0  0  0  0  0
  140.4890   68.1370  229.2540 F   0  0  0  0  0  0  0  0  0  0  0  0
  140.9660   70.2390  228.1860 C   0  0  0  0  0  0  0  0  0  0  0  0
  140.9470   71.0360  227.0450 C   0  0  0  0  0  0  0  0  0  0  0  0
  140.4380   70.5230  225.8540 C   0  0  0  0  0  0  0  0  0  0  0  0
  140.4130   71.2880  224.7290 N   0  0  0  0  0  0  0  0  0  0  0  0
  139.5330   73.4180  223.3900 H   0  0  0  0  0  0  0  0  0  0  0  0
  139.5452   73.1705  220.3367 H   0  0  0  0  0  0  0  0  0  0  0  0
  138.7320   74.4903  221.2603 H   0  0  0  0  0  0  0  0  0  0  0  0
  141.7167   75.0815  218.0482 H   0  0  0  0  0  0  0  0  0  0  0  0
  140.9935   76.3183  219.0069 H   0  0  0  0  0  0  0  0  0  0  0  0
  143.2142   77.0204  219.9113 H   0  0  0  0  0  0  0  0  0  0  0  0
  144.5600   76.3420  217.8240 H   0  0  0  0  0  0  0  0  0  0  0  0
  144.7541   74.7597  218.8748 H   0  0  0  0  0  0  0  0  0  0  0  0
  144.6270   75.3140  220.5448 H   0  0  0  0  0  0  0  0  0  0  0  0
  142.9696   73.2615  219.0703 H   0  0  0  0  0  0  0  0  0  0  0  0
  143.0415   73.1901  221.7961 H   0  0  0  0  0  0  0  0  0  0  0  0
  145.4036   73.6868  221.3486 H   0  0  0  0  0  0  0  0  0  0  0  0
  145.1927   71.9183  221.6858 H   0  0  0  0  0  0  0  0  0  0  0  0
  145.2546   73.0347  218.8530 H   0  0  0  0  0  0  0  0  0  0  0  0
  146.7317   72.5532  219.6699 H   0  0  0  0  0  0  0  0  0  0  0  0
  147.1566   70.3902  218.5912 H   0  0  0  0  0  0  0  0  0  0  0  0
  146.4766   67.9992  218.2617 H   0  0  0  0  0  0  0  0  0  0  0  0
  144.1856   67.3454  218.9510 H   0  0  0  0  0  0  0  0  0  0  0  0
  142.6137   68.9460  219.9296 H   0  0  0  0  0  0  0  0  0  0  0  0
  142.1978   71.6584  219.6598 H   0  0  0  0  0  0  0  0  0  0  0  0
  142.6521   71.0121  221.3299 H   0  0  0  0  0  0  0  0  0  0  0  0
  139.0445   69.0972  222.6302 H   0  0  0  0  0  0  0  0  0  0  0  0
  139.0739   67.6861  224.6237 H   0  0  0  0  0  0  0  0  0  0  0  0
  139.6003   67.4042  226.9476 H   0  0  0  0  0  0  0  0  0  0  0  0
  141.3688   70.6439  229.1261 H   0  0  0  0  0  0  0  0  0  0  0  0
  141.3320   72.0657  227.0835 H   0  0  0  0  0  0  0  0  0  0  0  0
  1  2  2  0
  2  3  1  0
  3  4  1  0
  4  5  1  0
  5  6  2  0
  5  7  1  0
  7  8  1  0
  8  9  1  0
  9 10  1  0
  9 11  1  0
 11 12  1  0
 12 13  1  0
 13 14  1  0
 14 15  1  0
 15 16  1  0
 16 17  2  0
 17 18  1  0
 18 19  2  0
 19 20  1  0
 20 21  2  0
 21 22  1  0
  2 23  1  0
 23 24  2  0
 24 25  1  0
 25 26  2  0
 26 27  1  0
 27 28  2  0
 28 29  1  0
 28 30  1  0
 30 31  2  0
 31 32  1  0
 32 33  2  0
 12  7  1  0
 22 13  1  0
 33 23  1  0
 21 16  1  0
 32 26  1  0
  3 34  1  0
  4 35  1  0
  4 36  1  0
  8 37  1  0
  8 38  1  0
  9 39  1  1
 10 40  1  0
 11 41  1  0
 11 42  1  0
 12 43  1  6
 13 44  1  1
 14 45  1  0
 14 46  1  0
 15 47  1  0
 15 48  1  0
 17 49  1  0
 18 50  1  0
 19 51  1  0
 20 52  1  0
 22 53  1  0
 22 54  1  0
 24 55  1  0
 25 56  1  0
 27 57  1  0
 30 58  1  0
 31 59  1  0
M  END
>  <meeko>  (16) 
{"free_energy": -9.28, "intermolecular_energy": -11.07, "internal_energy": -1.86, "cluster_size": 12, "cluster_id": 2, "rank_in_cluster": 7}

$$$$

     RDKit          3D

 59 63  0  0  0  0  0  0  0  0999 V2000
  138.0140   70.4260  221.9100 O   0  0  0  0  0  0  0  0  0  0  0  0
  138.6970   71.0230  222.8100 C   0  0  0  0  0  0  0  0  0  0  0  0
  139.0770   72.3820  222.7000 N   0  0  0  0  0  0  0  0  0  0  0  0
  138.6780   73.1590  221.5020 C   0  0  0  0  0  0  0  0  0  0  0  0
  139.4430   74.3940  221.4150 C   0  0  0  0  0  0  0  0  0  0  0  0
  140.5820   74.3740  222.0480 O   0  0  0  0  0  0  0  0  0  0  0  0
  139.1610   75.5920  220.7680 N   0  0  0  0  0  0  0  0  0  0  0  0
  138.8870   75.6040  219.2920 C   0  0  0  0  0  0  0  0  0  0  0  0
  137.5700   76.3390  219.3070 C   0  0  2  0  0  0  0  0  0  0  0  0
  137.2990   76.9300  218.0670 O   0  0  0  0  0  0  0  0  0  0  0  0
  137.7140   77.3350  220.3970 C   0  0  0  0  0  0  0  0  0  0  0  0
  138.9960   76.9800  221.0780 C   0  0  1  0  0  0  0  0  0  0  0  0
  139.1870   77.4340  222.4630 C   0  0  2  0  0  0  0  0  0  0  0  0
  138.5080   78.7500  222.7800 C   0  0  0  0  0  0  0  0  0  0  0  0
  139.0430   79.8760  221.9240 C   0  0  0  0  0  0  0  0  0  0  0  0
  140.4160   80.1400  222.5020 C   0  0  0  0  0  0  0  0  0  0  0  0
  140.9090   81.4230  222.6090 C   0  0  0  0  0  0  0  0  0  0  0  0
  142.1610   81.6430  223.1490 C   0  0  0  0  0  0  0  0  0  0  0  0
  142.8610   80.5280  223.5580 C   0  0  0  0  0  0  0  0  0  0  0  0
  142.3680   79.2460  223.4500 C   0  0  0  0  0  0  0  0  0  0  0  0
  141.1010   79.0180  222.9050 C   0  0  0  0  0  0  0  0  0  0  0  0
  140.6520   77.6390  222.8160 C   0  0  0  0  0  0  0  0  0  0  0  0
  139.1000   70.2760  223.9980 C   0  0  0  0  0  0  0  0  0  0  0  0
  138.8530   68.9060  224.0800 C   0  0  0  0  0  0  0  0  0  0  0  0
  139.2020   68.1520  225.1570 C   0  0  0  0  0  0  0  0  0  0  0  0
  139.8250   68.7570  226.2140 C   0  0  0  0  0  0  0  0  0  0  0  0
  140.1900   68.0160  227.3210 C   0  0  0  0  0  0  0  0  0  0  0  0
  140.8140   68.6280  228.3780 C   0  0  0  0  0  0  0  0  0  0  0  0
  141.1600   67.8600  229.4550 F   0  0  0  0  0  0  0  0  0  0  0  0
  141.0750   69.9850  228.3310 C   0  0  0  0  0  0  0  0  0  0  0  0
  140.7100   70.7400  227.2200 C   0  0  0  0  0  0  0  0  0  0  0  0
  140.0750   70.1220  226.1440 C   0  0  0  0  0  0  0  0  0  0  0  0
  139.7130   70.8460  225.0500 N   0  0  0  0  0  0  0  0  0  0  0  0
  139.6330   72.8020  223.4710 H   0  0  0  0  0  0  0  0  0  0  0  0
  138.8626   72.5551  220.6013 H   0  0  0  0  0  0  0  0  0  0  0  0
  137.6095   73.4082  221.5803 H   0  0  0  0  0  0  0  0  0  0  0  0
  139.6596   76.1520  218.7328 H   0  0  0  0  0  0  0  0  0  0  0  0
  138.8752   74.6186  218.8033 H   0  0  0  0  0  0  0  0  0  0  0  0
  136.7142   75.6711  219.4842 H   0  0  0  0  0  0  0  0  0  0  0  0
  137.7310   77.8280  218.0840 H   0  0  0  0  0  0  0  0  0  0  0  0
  137.7640   78.3539  219.9856 H   0  0  0  0  0  0  0  0  0  0  0  0
  136.8594   77.3166  221.0893 H   0  0  0  0  0  0  0  0  0  0  0  0
  139.8470   77.5676  220.7030 H   0  0  0  0  0  0  0  0  0  0  0  0
  138.7360   76.6200  223.0495 H   0  0  0  0  0  0  0  0  0  0  0  0
  137.4280   78.6466  222.5987 H   0  0  0  0  0  0  0  0  0  0  0  0
  138.7093   78.9947  223.8334 H   0  0  0  0  0  0  0  0  0  0  0  0
  139.1128   79.5691  220.8700 H   0  0  0  0  0  0  0  0  0  0  0  0
  138.3962   80.7657  221.9346 H   0  0  0  0  0  0  0  0  0  0  0  0
  140.3035   82.2738  222.2633 H   0  0  0  0  0  0  0  0  0  0  0  0
  142.5782   82.6560  223.2477 H   0  0  0  0  0  0  0  0  0  0  0  0
  143.8620   80.6687  223.9918 H   0  0  0  0  0  0  0  0  0  0  0  0
  142.9754   78.3962  223.7949 H   0  0  0  0  0  0  0  0  0  0  0  0
  141.2566   77.1377  222.0458 H   0  0  0  0  0  0  0  0  0  0  0  0
  140.7734   77.2228  223.8270 H   0  0  0  0  0  0  0  0  0  0  0  0
  138.3525   68.4120  223.2342 H   0  0  0  0  0  0  0  0  0  0  0  0
  138.9868   67.0735  225.1777 H   0  0  0  0  0  0  0  0  0  0  0  0
  139.9806   66.9367  227.3548 H   0  0  0  0  0  0  0  0  0  0  0  0
  141.5761   70.4728  229.1801 H   0  0  0  0  0  0  0  0  0  0  0  0
  140.9217   71.8191  227.1913 H   0  0  0  0  0  0  0  0  0  0  0  0
  1  2  2  0
  2  3  1  0
  3  4  1  0
  4  5  1  0
  5  6  2  0
  5  7  1  0
  7  8  1  0
  8  9  1  0
  9 10  1  0
  9 11  1  0
 11 12  1  0
 12 13  1  0
 13 14  1  0
 14 15  1  0
 15 16  1  0
 16 17  2  0
 17 18  1  0
 18 19  2  0
 19 20  1  0
 20 21  2  0
 21 22  1  0
  2 23  1  0
 23 24  2  0
 24 25  1  0
 25 26  2  0
 26 27  1  0
 27 28  2  0
 28 29  1  0
 28 30  1  0
 30 31  2  0
 31 32  1  0
 32 33  2  0
 12  7  1  0
 22 13  1  0
 33 23  1  0
 21 16  1  0
 32 26  1  0
  3 34  1  0
  4 35  1  0
  4 36  1  0
  8 37  1  0
  8 38  1  0
  9 39  1  1
 10 40  1  0
 11 41  1  0
 11 42  1  0
 12 43  1  6
 13 44  1  1
 14 45  1  0
 14 46  1  0
 15 47  1  0
 15 48  1  0
 17 49  1  0
 18 50  1  0
 19 51  1  0
 20 52  1  0
 22 53  1  0
 22 54  1  0
 24 55  1  0
 25 56  1  0
 27 57  1  0
 30 58  1  0
 31 59  1  0
M  END
>  <meeko>  (17) 
{"free_energy": -9.0, "intermolecular_energy": -10.79, "internal_energy": -1.9, "cluster_size": 1, "cluster_id": 4, "rank_in_cluster": 1}

$$$$

     RDKit          3D

 59 63  0  0  0  0  0  0  0  0999 V2000
  140.2150   70.9700  221.2500 O   0  0  0  0  0  0  0  0  0  0  0  0
  139.9280   71.5590  222.3460 C   0  0  0  0  0  0  0  0  0  0  0  0
  139.6020   72.9360  222.4070 N   0  0  0  0  0  0  0  0  0  0  0  0
  139.5910   73.7400  221.1610 C   0  0  0  0  0  0  0  0  0  0  0  0
  140.6930   74.6910  221.1570 C   0  0  0  0  0  0  0  0  0  0  0  0
  140.7070   75.5120  222.1690 O   0  0  0  0  0  0  0  0  0  0  0  0
  141.7340   74.8690  220.2530 N   0  0  0  0  0  0  0  0  0  0  0  0
  141.6160   75.8920  219.1600 C   0  0  0  0  0  0  0  0  0  0  0  0
  142.8980   76.6470  219.4120 C   0  0  2  0  0  0  0  0  0  0  0  0
  143.3120   77.3450  218.2710 O   0  0  0  0  0  0  0  0  0  0  0  0
  143.8670   75.6040  219.8280 C   0  0  0  0  0  0  0  0  0  0  0  0
  143.0500   74.3650  220.0010 C   0  0  1  0  0  0  0  0  0  0  0  0
  143.5880   73.3020  220.8620 C   0  0  2  0  0  0  0  0  0  0  0  0
  145.0930   73.1510  220.7880 C   0  0  0  0  0  0  0  0  0  0  0  0
  145.5520   72.7920  219.3930 C   0  0  0  0  0  0  0  0  0  0  0  0
  145.1340   71.3460  219.2420 C   0  0  0  0  0  0  0  0  0  0  0  0
  145.9320   70.4380  218.5800 C   0  0  0  0  0  0  0  0  0  0  0  0
  145.5350   69.1200  218.4620 C   0  0  0  0  0  0  0  0  0  0  0  0
  144.3260   68.7870  219.0320 C   0  0  0  0  0  0  0  0  0  0  0  0
  143.5280   69.6940  219.6940 C   0  0  0  0  0  0  0  0  0  0  0  0
  143.9250   71.0290  219.8160 C   0  0  0  0  0  0  0  0  0  0  0  0
  143.0270   71.9300  220.5190 C   0  0  0  0  0  0  0  0  0  0  0  0
  139.9330   70.7850  223.5840 C   0  0  0  0  0  0  0  0  0  0  0  0
  139.3740   69.5070  223.6120 C   0  0  0  0  0  0  0  0  0  0  0  0
  139.3460   68.7340  224.7300 C   0  0  0  0  0  0  0  0  0  0  0  0
  139.8880   69.2240  225.8870 C   0  0  0  0  0  0  0  0  0  0  0  0
  139.8740   68.4610  227.0390 C   0  0  0  0  0  0  0  0  0  0  0  0
  140.4180   68.9580  228.1950 C   0  0  0  0  0  0  0  0  0  0  0  0
  140.3840   68.1710  229.3130 F   0  0  0  0  0  0  0  0  0  0  0  0
  140.9800   70.2210  228.2040 C   0  0  0  0  0  0  0  0  0  0  0  0
  141.0000   70.9970  227.0490 C   0  0  0  0  0  0  0  0  0  0  0  0
  140.4470   70.4970  225.8710 C   0  0  0  0  0  0  0  0  0  0  0  0
  140.4590   71.2430  224.7330 N   0  0  0  0  0  0  0  0  0  0  0  0
  139.3790   73.3490  223.3340 H   0  0  0  0  0  0  0  0  0  0  0  0
  139.6900   73.0679  220.2958 H   0  0  0  0  0  0  0  0  0  0  0  0
  138.6428   74.2947  221.1044 H   0  0  0  0  0  0  0  0  0  0  0  0
  141.5976   75.4302  218.1618 H   0  0  0  0  0  0  0  0  0  0  0  0
  140.6976   76.4973  219.1727 H   0  0  0  0  0  0  0  0  0  0  0  0
  142.7886   77.4229  220.1840 H   0  0  0  0  0  0  0  0  0  0  0  0
  143.7290   78.1910  218.5950 H   0  0  0  0  0  0  0  0  0  0  0  0
  144.6333   75.4568  219.0527 H   0  0  0  0  0  0  0  0  0  0  0  0
  144.4006   75.8794  220.7496 H   0  0  0  0  0  0  0  0  0  0  0  0
  143.0590   73.7287  219.1038 H   0  0  0  0  0  0  0  0  0  0  0  0
  143.2849   73.6276  221.8681 H   0  0  0  0  0  0  0  0  0  0  0  0
  145.5614   74.1014  221.0837 H   0  0  0  0  0  0  0  0  0  0  0  0
  145.3893   72.3371  221.4661 H   0  0  0  0  0  0  0  0  0  0  0  0
  145.0567   73.4245  218.6416 H   0  0  0  0  0  0  0  0  0  0  0  0
  146.6318   72.9423  219.2464 H   0  0  0  0  0  0  0  0  0  0  0  0
  146.8880   70.7637  218.1442 H   0  0  0  0  0  0  0  0  0  0  0  0
  146.1527   68.3747  217.9396 H   0  0  0  0  0  0  0  0  0  0  0  0
  143.9807   67.7455  218.9547 H   0  0  0  0  0  0  0  0  0  0  0  0
  142.5726   69.3659  220.1293 H   0  0  0  0  0  0  0  0  0  0  0  0
  142.1383   72.0786  219.8880 H   0  0  0  0  0  0  0  0  0  0  0  0
  142.8195   71.4460  221.4848 H   0  0  0  0  0  0  0  0  0  0  0  0
  138.9354   69.1061  222.6863 H   0  0  0  0  0  0  0  0  0  0  0  0
  138.8950   67.7310  224.7049 H   0  0  0  0  0  0  0  0  0  0  0  0
  139.4269   67.4560  227.0285 H   0  0  0  0  0  0  0  0  0  0  0  0
  141.4157   70.6165  229.1334 H   0  0  0  0  0  0  0  0  0  0  0  0
  141.4502   72.0005  227.0655 H   0  0  0  0  0  0  0  0  0  0  0  0
  1  2  2  0
  2  3  1  0
  3  4  1  0
  4  5  1  0
  5  6  2  0
  5  7  1  0
  7  8  1  0
  8  9  1  0
  9 10  1  0
  9 11  1  0
 11 12  1  0
 12 13  1  0
 13 14  1  0
 14 15  1  0
 15 16  1  0
 16 17  2  0
 17 18  1  0
 18 19  2  0
 19 20  1  0
 20 21  2  0
 21 22  1  0
  2 23  1  0
 23 24  2  0
 24 25  1  0
 25 26  2  0
 26 27  1  0
 27 28  2  0
 28 29  1  0
 28 30  1  0
 30 31  2  0
 31 32  1  0
 32 33  2  0
 12  7  1  0
 22 13  1  0
 33 23  1  0
 21 16  1  0
 32 26  1  0
  3 34  1  0
  4 35  1  0
  4 36  1  0
  8 37  1  0
  8 38  1  0
  9 39  1  1
 10 40  1  0
 11 41  1  0
 11 42  1  0
 12 43  1  6
 13 44  1  1
 14 45  1  0
 14 46  1  0
 15 47  1  0
 15 48  1  0
 17 49  1  0
 18 50  1  0
 19 51  1  0
 20 52  1  0
 22 53  1  0
 22 54  1  0
 24 55  1  0
 25 56  1  0
 27 57  1  0
 30 58  1  0
 31 59  1  0
M  END
>  <meeko>  (18) 
{"free_energy": -9.29, "intermolecular_energy": -11.08, "internal_energy": -1.9, "cluster_size": 12, "cluster_id": 2, "rank_in_cluster": 4}

$$$$

     RDKit          3D

 59 63  0  0  0  0  0  0  0  0999 V2000
  138.5080   72.7710  222.3290 O   0  0  0  0  0  0  0  0  0  0  0  0
  139.6670   72.3850  222.7040 C   0  0  0  0  0  0  0  0  0  0  0  0
  140.8560   72.8310  222.0790 N   0  0  0  0  0  0  0  0  0  0  0  0
  140.7740   73.7820  220.9450 C   0  0  0  0  0  0  0  0  0  0  0  0
  142.1070   74.1760  220.5100 C   0  0  0  0  0  0  0  0  0  0  0  0
  143.0610   73.3770  220.8940 O   0  0  0  0  0  0  0  0  0  0  0  0
  142.5300   75.2610  219.7510 N   0  0  0  0  0  0  0  0  0  0  0  0
  143.7050   75.1210  218.8280 C   0  0  0  0  0  0  0  0  0  0  0  0
  143.0650   75.6280  217.5590 C   0  0  2  0  0  0  0  0  0  0  0  0
  144.0250   76.0750  216.6440 O   0  0  0  0  0  0  0  0  0  0  0  0
  142.1560   76.7100  218.0100 C   0  0  0  0  0  0  0  0  0  0  0  0
  142.1580   76.6210  219.5020 C   0  0  1  0  0  0  0  0  0  0  0  0
  141.0180   77.1980  220.2270 C   0  0  2  0  0  0  0  0  0  0  0  0
  140.6480   78.5970  219.7800 C   0  0  0  0  0  0  0  0  0  0  0  0
  141.7820   79.5730  220.0000 C   0  0  0  0  0  0  0  0  0  0  0  0
  141.7990   79.7690  221.5000 C   0  0  0  0  0  0  0  0  0  0  0  0
  142.0530   81.0040  222.0540 C   0  0  0  0  0  0  0  0  0  0  0  0
  142.0540   81.1630  223.4270 C   0  0  0  0  0  0  0  0  0  0  0  0
  141.7920   80.0380  224.1780 C   0  0  0  0  0  0  0  0  0  0  0  0
  141.5370   78.8030  223.6230 C   0  0  0  0  0  0  0  0  0  0  0  0
  141.5360   78.6370  222.2350 C   0  0  0  0  0  0  0  0  0  0  0  0
  141.2670   77.3030  221.7230 C   0  0  0  0  0  0  0  0  0  0  0  0
  139.7700   71.4490  223.8200 C   0  0  0  0  0  0  0  0  0  0  0  0
  139.2730   70.1510  223.6920 C   0  0  0  0  0  0  0  0  0  0  0  0
  139.3370   69.2310  224.6910 C   0  0  0  0  0  0  0  0  0  0  0  0
  139.9120   69.5840  225.8810 C   0  0  0  0  0  0  0  0  0  0  0  0
  139.9910   68.6700  226.9130 C   0  0  0  0  0  0  0  0  0  0  0  0
  140.5680   69.0310  228.1040 C   0  0  0  0  0  0  0  0  0  0  0  0
  140.6260   68.0970  229.1000 F   0  0  0  0  0  0  0  0  0  0  0  0
  141.0700   70.3090  228.2660 C   0  0  0  0  0  0  0  0  0  0  0  0
  140.9960   71.2370  227.2310 C   0  0  0  0  0  0  0  0  0  0  0  0
  140.4100   70.8750  226.0200 C   0  0  0  0  0  0  0  0  0  0  0  0
  140.3300   71.7710  224.9980 N   0  0  0  0  0  0  0  0  0  0  0  0
  141.7640   72.4750  222.4370 H   0  0  0  0  0  0  0  0  0  0  0  0
  140.2475   73.3014  220.1073 H   0  0  0  0  0  0  0  0  0  0  0  0
  140.2280   74.6789  221.2727 H   0  0  0  0  0  0  0  0  0  0  0  0
  144.5534   75.7470  219.1414 H   0  0  0  0  0  0  0  0  0  0  0  0
  144.1444   74.1143  218.7685 H   0  0  0  0  0  0  0  0  0  0  0  0
  142.5171   74.8426  217.0178 H   0  0  0  0  0  0  0  0  0  0  0  0
  144.9060   76.0090  217.1070 H   0  0  0  0  0  0  0  0  0  0  0  0
  142.5295   77.6909  217.6808 H   0  0  0  0  0  0  0  0  0  0  0  0
  141.1447   76.6010  217.5912 H   0  0  0  0  0  0  0  0  0  0  0  0
  142.8782   77.3134  219.9623 H   0  0  0  0  0  0  0  0  0  0  0  0
  140.2033   76.4952  219.9981 H   0  0  0  0  0  0  0  0  0  0  0  0
  140.3996   78.5749  218.7086 H   0  0  0  0  0  0  0  0  0  0  0  0
  139.7871   78.9314  220.3776 H   0  0  0  0  0  0  0  0  0  0  0  0
  142.7356   79.1523  219.6483 H   0  0  0  0  0  0  0  0  0  0  0  0
  141.6475   80.5149  219.4480 H   0  0  0  0  0  0  0  0  0  0  0  0
  142.2557   81.8664  221.4019 H   0  0  0  0  0  0  0  0  0  0  0  0
  142.2537   82.1377  223.8961 H   0  0  0  0  0  0  0  0  0  0  0  0
  141.7861   80.1303  225.2741 H   0  0  0  0  0  0  0  0  0  0  0  0
  141.3329   77.9420  224.2764 H   0  0  0  0  0  0  0  0  0  0  0  0
  142.1331   76.6694  221.9648 H   0  0  0  0  0  0  0  0  0  0  0  0
  140.3283   76.9868  222.2015 H   0  0  0  0  0  0  0  0  0  0  0  0
  138.8080   69.8589  222.7388 H   0  0  0  0  0  0  0  0  0  0  0  0
  138.9327   68.2185  224.5446 H   0  0  0  0  0  0  0  0  0  0  0  0
  139.5917   67.6537  226.7802 H   0  0  0  0  0  0  0  0  0  0  0  0
  141.5324   70.5953  229.2221 H   0  0  0  0  0  0  0  0  0  0  0  0
  141.3984   72.2515  227.3687 H   0  0  0  0  0  0  0  0  0  0  0  0
  1  2  2  0
  2  3  1  0
  3  4  1  0
  4  5  1  0
  5  6  2  0
  5  7  1  0
  7  8  1  0
  8  9  1  0
  9 10  1  0
  9 11  1  0
 11 12  1  0
 12 13  1  0
 13 14  1  0
 14 15  1  0
 15 16  1  0
 16 17  2  0
 17 18  1  0
 18 19  2  0
 19 20  1  0
 20 21  2  0
 21 22  1  0
  2 23  1  0
 23 24  2  0
 24 25  1  0
 25 26  2  0
 26 27  1  0
 27 28  2  0
 28 29  1  0
 28 30  1  0
 30 31  2  0
 31 32  1  0
 32 33  2  0
 12  7  1  0
 22 13  1  0
 33 23  1  0
 21 16  1  0
 32 26  1  0
  3 34  1  0
  4 35  1  0
  4 36  1  0
  8 37  1  0
  8 38  1  0
  9 39  1  6
 10 40  1  0
 11 41  1  0
 11 42  1  0
 12 43  1  1
 13 44  1  1
 14 45  1  0
 14 46  1  0
 15 47  1  0
 15 48  1  0
 17 49  1  0
 18 50  1  0
 19 51  1  0
 20 52  1  0
 22 53  1  0
 22 54  1  0
 24 55  1  0
 25 56  1  0
 27 57  1  0
 30 58  1  0
 31 59  1  0
M  END
>  <meeko>  (19) 
{"free_energy": -9.37, "intermolecular_energy": -11.16, "internal_energy": -1.87, "cluster_size": 4, "cluster_id": 1, "rank_in_cluster": 2}

$$$$

     RDKit          3D

 59 63  0  0  0  0  0  0  0  0999 V2000
  140.2920   70.9630  221.2790 O   0  0  0  0  0  0  0  0  0  0  0  0
  140.0020   71.5530  222.3750 C   0  0  0  0  0  0  0  0  0  0  0  0
  139.6890   72.9320  222.4370 N   0  0  0  0  0  0  0  0  0  0  0  0
  139.6940   73.7400  221.1930 C   0  0  0  0  0  0  0  0  0  0  0  0
  140.7920   74.6970  221.2100 C   0  0  0  0  0  0  0  0  0  0  0  0
  140.8530   75.4350  222.2820 O   0  0  0  0  0  0  0  0  0  0  0  0
  141.7860   74.9530  220.2720 N   0  0  0  0  0  0  0  0  0  0  0  0
  141.5410   75.9380  219.1660 C   0  0  0  0  0  0  0  0  0  0  0  0
  142.7520   76.8150  219.3650 C   0  0  2  0  0  0  0  0  0  0  0  0
  143.0660   77.5260  218.2010 O   0  0  0  0  0  0  0  0  0  0  0  0
  143.8260   75.8770  219.7710 C   0  0  0  0  0  0  0  0  0  0  0  0
  143.1360   74.5700  219.9910 C   0  0  1  0  0  0  0  0  0  0  0  0
  143.7960   73.5800  220.8530 C   0  0  2  0  0  0  0  0  0  0  0  0
  145.2870   73.4530  220.6180 C   0  0  0  0  0  0  0  0  0  0  0  0
  145.5940   73.0050  219.2070 C   0  0  0  0  0  0  0  0  0  0  0  0
  145.1990   71.5450  219.2030 C   0  0  0  0  0  0  0  0  0  0  0  0
  145.9410   70.6080  218.5170 C   0  0  0  0  0  0  0  0  0  0  0  0
  145.5690   69.2770  218.5350 C   0  0  0  0  0  0  0  0  0  0  0  0
  144.4410   68.9620  219.2620 C   0  0  0  0  0  0  0  0  0  0  0  0
  143.6990   69.8990  219.9480 C   0  0  0  0  0  0  0  0  0  0  0  0
  144.0720   71.2470  219.9320 C   0  0  0  0  0  0  0  0  0  0  0  0
  143.2370   72.1780  220.6720 C   0  0  0  0  0  0  0  0  0  0  0  0
  139.9920   70.7750  223.6110 C   0  0  0  0  0  0  0  0  0  0  0  0
  139.4230   69.5010  223.6300 C   0  0  0  0  0  0  0  0  0  0  0  0
  139.3800   68.7260  224.7460 C   0  0  0  0  0  0  0  0  0  0  0  0
  139.9160   69.2090  225.9090 C   0  0  0  0  0  0  0  0  0  0  0  0
  139.8860   68.4430  227.0580 C   0  0  0  0  0  0  0  0  0  0  0  0
  140.4240   68.9330  228.2210 C   0  0  0  0  0  0  0  0  0  0  0  0
  140.3740   68.1430  229.3360 F   0  0  0  0  0  0  0  0  0  0  0  0
  140.9950   70.1910  228.2380 C   0  0  0  0  0  0  0  0  0  0  0  0
  141.0300   70.9710  227.0850 C   0  0  0  0  0  0  0  0  0  0  0  0
  140.4840   70.4780  225.9010 C   0  0  0  0  0  0  0  0  0  0  0  0
  140.5110   71.2270  224.7650 N   0  0  0  0  0  0  0  0  0  0  0  0
  139.4630   73.3450  223.3630 H   0  0  0  0  0  0  0  0  0  0  0  0
  139.8103   73.0711  220.3275 H   0  0  0  0  0  0  0  0  0  0  0  0
  138.7440   74.2901  221.1225 H   0  0  0  0  0  0  0  0  0  0  0  0
  141.5376   75.4564  218.1770 H   0  0  0  0  0  0  0  0  0  0  0  0
  140.5704   76.4546  219.1966 H   0  0  0  0  0  0  0  0  0  0  0  0
  142.5912   77.5934  220.1254 H   0  0  0  0  0  0  0  0  0  0  0  0
  143.7000   78.2450  218.4730 H   0  0  0  0  0  0  0  0  0  0  0  0
  144.5810   75.7865  218.9762 H   0  0  0  0  0  0  0  0  0  0  0  0
  144.3560   76.2209  220.6715 H   0  0  0  0  0  0  0  0  0  0  0  0
  143.1810   73.9180  219.1062 H   0  0  0  0  0  0  0  0  0  0  0  0
  143.5997   73.9698  221.8627 H   0  0  0  0  0  0  0  0  0  0  0  0
  145.7601   74.4306  220.7926 H   0  0  0  0  0  0  0  0  0  0  0  0
  145.6804   72.6955  221.3118 H   0  0  0  0  0  0  0  0  0  0  0  0
  145.0006   73.5743  218.4764 H   0  0  0  0  0  0  0  0  0  0  0  0
  146.6460   73.1637  218.9277 H   0  0  0  0  0  0  0  0  0  0  0  0
  146.8323   70.9205  217.9532 H   0  0  0  0  0  0  0  0  0  0  0  0
  146.1435   68.5086  217.9969 H   0  0  0  0  0  0  0  0  0  0  0  0
  144.1173   67.9113  219.2962 H   0  0  0  0  0  0  0  0  0  0  0  0
  142.8081   69.5849  220.5115 H   0  0  0  0  0  0  0  0  0  0  0  0
  142.2779   72.2647  220.1404 H   0  0  0  0  0  0  0  0  0  0  0  0
  143.1552   71.7595  221.6860 H   0  0  0  0  0  0  0  0  0  0  0  0
  138.9895   69.1058  222.6995 H   0  0  0  0  0  0  0  0  0  0  0  0
  138.9217   67.7265  224.7148 H   0  0  0  0  0  0  0  0  0  0  0  0
  139.4314   67.4415  227.0406 H   0  0  0  0  0  0  0  0  0  0  0  0
  141.4264   70.5804  229.1720 H   0  0  0  0  0  0  0  0  0  0  0  0
  141.4864   71.9716  227.1084 H   0  0  0  0  0  0  0  0  0  0  0  0
  1  2  2  0
  2  3  1  0
  3  4  1  0
  4  5  1  0
  5  6  2  0
  5  7  1  0
  7  8  1  0
  8  9  1  0
  9 10  1  0
  9 11  1  0
 11 12  1  0
 12 13  1  0
 13 14  1  0
 14 15  1  0
 15 16  1  0
 16 17  2  0
 17 18  1  0
 18 19  2  0
 19 20  1  0
 20 21  2  0
 21 22  1  0
  2 23  1  0
 23 24  2  0
 24 25  1  0
 25 26  2  0
 26 27  1  0
 27 28  2  0
 28 29  1  0
 28 30  1  0
 30 31  2  0
 31 32  1  0
 32 33  2  0
 12  7  1  0
 22 13  1  0
 33 23  1  0
 21 16  1  0
 32 26  1  0
  3 34  1  0
  4 35  1  0
  4 36  1  0
  8 37  1  0
  8 38  1  0
  9 39  1  1
 10 40  1  0
 11 41  1  0
 11 42  1  0
 12 43  1  6
 13 44  1  1
 14 45  1  0
 14 46  1  0
 15 47  1  0
 15 48  1  0
 17 49  1  0
 18 50  1  0
 19 51  1  0
 20 52  1  0
 22 53  1  0
 22 54  1  0
 24 55  1  0
 25 56  1  0
 27 57  1  0
 30 58  1  0
 31 59  1  0
M  END
>  <meeko>  (20) 
{"free_energy": -9.24, "intermolecular_energy": -11.03, "internal_energy": -1.92, "cluster_size": 12, "cluster_id": 2, "rank_in_cluster": 10}

$$$$
