
     RDKit          3D

 53 56  0  0  0  0  0  0  0  0999 V2000
  139.9490   73.9750  222.3620 O   0  0  0  0  0  0  0  0  0  0  0  0
  139.8170   72.7310  222.1350 C   0  0  0  0  0  0  0  0  0  0  0  0
  139.5780   72.3360  220.7960 N   0  0  0  0  0  0  0  0  0  0  0  0
  139.4840   73.3160  219.7080 C   0  0  0  0  0  0  0  0  0  0  0  0
  140.6360   73.1340  218.8140 C   0  0  0  0  0  0  0  0  0  0  0  0
  140.6620   72.1470  218.0430 O   0  0  0  0  0  0  0  0  0  0  0  0
  141.7330   74.0310  218.7770 N   0  0  0  0  0  0  0  0  0  0  0  0
  142.2200   74.7060  217.5890 C   0  0  0  0  0  0  0  0  0  0  0  0
  142.7830   76.0180  218.0380 C   0  0  2  0  0  0  0  0  0  0  0  0
  144.0710   76.2600  217.5950 O   0  0  0  0  0  0  0  0  0  0  0  0
  142.6710   75.9640  219.5510 C   0  0  0  0  0  0  0  0  0  0  0  0
  142.6020   74.4820  219.8510 C   0  0  2  0  0  0  0  0  0  0  0  0
  143.9380   73.8110  219.6600 C   0  0  0  0  0  0  0  0  0  0  0  0
  143.7170   72.3270  219.5690 C   0  0  0  0  0  0  0  0  0  0  0  0
  145.1060   71.6920  219.4780 C   0  0  0  0  0  0  0  0  0  0  0  0
  146.0890   72.6480  219.2160 O   0  0  0  0  0  0  0  0  0  0  0  0
  146.2720   73.5370  220.2560 C   0  0  0  0  0  0  0  0  0  0  0  0
  144.9210   74.0610  220.7540 C   0  0  0  0  0  0  0  0  0  0  0  0
  139.9070   71.7360  223.2060 C   0  0  0  0  0  0  0  0  0  0  0  0
  139.4670   70.4450  222.9240 C   0  0  0  0  0  0  0  0  0  0  0  0
  139.5460   69.4910  223.9300 C   0  0  0  0  0  0  0  0  0  0  0  0
  140.0480   69.8120  225.1810 C   0  0  0  0  0  0  0  0  0  0  0  0
  140.1380   68.8800  226.2040 C   0  0  0  0  0  0  0  0  0  0  0  0
  140.6480   69.2730  227.4210 C   0  0  0  0  0  0  0  0  0  0  0  0
  140.7940   68.1520  228.7610 Cl  0  0  0  0  0  0  0  0  0  0  0  0
  141.0680   70.5690  227.6400 C   0  0  0  0  0  0  0  0  0  0  0  0
  140.9850   71.5090  226.6330 C   0  0  0  0  0  0  0  0  0  0  0  0
  140.4780   71.1220  225.4190 C   0  0  0  0  0  0  0  0  0  0  0  0
  140.3920   72.0290  224.4290 N   0  0  0  0  0  0  0  0  0  0  0  0
  139.4670   71.3000  220.5970 H   0  0  0  0  0  0  0  0  0  0  0  0
  138.5509   73.1590  219.1471 H   0  0  0  0  0  0  0  0  0  0  0  0
  139.4843   74.3362  220.1193 H   0  0  0  0  0  0  0  0  0  0  0  0
  143.0029   74.1035  217.1051 H   0  0  0  0  0  0  0  0  0  0  0  0
  141.4108   74.8527  216.8584 H   0  0  0  0  0  0  0  0  0  0  0  0
  142.2303   76.8650  217.6055 H   0  0  0  0  0  0  0  0  0  0  0  0
  144.7050   75.5500  217.9120 H   0  0  0  0  0  0  0  0  0  0  0  0
  143.5518   76.4202  220.0264 H   0  0  0  0  0  0  0  0  0  0  0  0
  141.8020   76.5184  219.9350 H   0  0  0  0  0  0  0  0  0  0  0  0
  142.2789   74.2658  220.8800 H   0  0  0  0  0  0  0  0  0  0  0  0
  144.3676   74.2405  218.7430 H   0  0  0  0  0  0  0  0  0  0  0  0
  143.1902   71.9646  220.4641 H   0  0  0  0  0  0  0  0  0  0  0  0
  143.1000   72.0670  218.6962 H   0  0  0  0  0  0  0  0  0  0  0  0
  145.3354   71.1956  220.4324 H   0  0  0  0  0  0  0  0  0  0  0  0
  145.1006   70.9667  218.6510 H   0  0  0  0  0  0  0  0  0  0  0  0
  146.7899   73.0273  221.0818 H   0  0  0  0  0  0  0  0  0  0  0  0
  146.8743   74.3853  219.8988 H   0  0  0  0  0  0  0  0  0  0  0  0
  144.6187   73.5251  221.6658 H   0  0  0  0  0  0  0  0  0  0  0  0
  144.9769   75.1316  221.0004 H   0  0  0  0  0  0  0  0  0  0  0  0
  139.0679   70.1881  221.9317 H   0  0  0  0  0  0  0  0  0  0  0  0
  139.2048   68.4644  223.7307 H   0  0  0  0  0  0  0  0  0  0  0  0
  139.8071   67.8430  226.0456 H   0  0  0  0  0  0  0  0  0  0  0  0
  141.4712   70.8545  228.6228 H   0  0  0  0  0  0  0  0  0  0  0  0
  141.3176   72.5441  226.8002 H   0  0  0  0  0  0  0  0  0  0  0  0
  1  2  2  0
  2  3  1  0
  3  4  1  0
  4  5  1  0
  5  6  2  0
  5  7  1  0
  7  8  1  0
  8  9  1  0
  9 10  1  0
  9 11  1  0
 11 12  1  0
 12 13  1  0
 13 14  1  0
 14 15  1  0
 15 16  1  0
 16 17  1  0
 17 18  1  0
  2 19  1  0
 19 20  2  0
 20 21  1  0
 21 22  2  0
 22 23  1  0
 23 24  2  0
 24 25  1  0
 24 26  1  0
 26 27  2  0
 27 28  1  0
 28 29  2  0
 12  7  1  0
 18 13  1  0
 29 19  1  0
 28 22  1  0
  3 30  1  0
  4 31  1  0
  4 32  1  0
  8 33  1  0
  8 34  1  0
  9 35  1  6
 10 36  1  0
 11 37  1  0
 11 38  1  0
 12 39  1  1
 13 40  1  0
 14 41  1  0
 14 42  1  0
 15 43  1  0
 15 44  1  0
 17 45  1  0
 17 46  1  0
 18 47  1  0
 18 48  1  0
 20 49  1  0
 21 50  1  0
 23 51  1  0
 26 52  1  0
 27 53  1  0
M  END
>  <meeko>  (1) 
{"free_energy": -8.29, "intermolecular_energy": -10.08, "internal_energy": -1.54, "cluster_size": 4, "cluster_id": 2, "rank_in_cluster": 2}

$$$$

     RDKit          3D

 53 56  0  0  0  0  0  0  0  0999 V2000
  138.4970   72.8320  221.5010 O   0  0  0  0  0  0  0  0  0  0  0  0
  139.6070   72.6640  222.0940 C   0  0  0  0  0  0  0  0  0  0  0  0
  140.6950   73.4700  221.6770 N   0  0  0  0  0  0  0  0  0  0  0  0
  140.5540   74.4610  220.6050 C   0  0  0  0  0  0  0  0  0  0  0  0
  141.8150   75.2060  220.4880 C   0  0  0  0  0  0  0  0  0  0  0  0
  142.8850   74.6590  220.8440 O   0  0  0  0  0  0  0  0  0  0  0  0
  141.8840   76.5300  219.9860 N   0  0  0  0  0  0  0  0  0  0  0  0
  142.9340   77.0420  219.1250 C   0  0  0  0  0  0  0  0  0  0  0  0
  142.3080   78.0890  218.2580 C   0  0  2  0  0  0  0  0  0  0  0  0
  142.9760   79.3000  218.2640 O   0  0  0  0  0  0  0  0  0  0  0  0
  140.8840   78.1890  218.7770 C   0  0  0  0  0  0  0  0  0  0  0  0
  140.9800   77.6500  220.1880 C   0  0  2  0  0  0  0  0  0  0  0  0
  141.6670   78.6220  221.1110 C   0  0  0  0  0  0  0  0  0  0  0  0
  141.4140   78.1920  222.5290 C   0  0  0  0  0  0  0  0  0  0  0  0
  142.0450   79.2650  223.4210 C   0  0  0  0  0  0  0  0  0  0  0  0
  142.8800   80.1120  222.6890 O   0  0  0  0  0  0  0  0  0  0  0  0
  142.1970   80.8920  221.7780 C   0  0  0  0  0  0  0  0  0  0  0  0
  141.2130   80.0370  220.9740 C   0  0  0  0  0  0  0  0  0  0  0  0
  139.7710   71.6790  223.1660 C   0  0  0  0  0  0  0  0  0  0  0  0
  139.3690   70.3710  222.9080 C   0  0  0  0  0  0  0  0  0  0  0  0
  139.5180   69.4280  223.9150 C   0  0  0  0  0  0  0  0  0  0  0  0
  140.0510   69.7760  225.1460 C   0  0  0  0  0  0  0  0  0  0  0  0
  140.2110   68.8550  226.1710 C   0  0  0  0  0  0  0  0  0  0  0  0
  140.7490   69.2740  227.3660 C   0  0  0  0  0  0  0  0  0  0  0  0
  140.9820   68.1690  228.7070 Cl  0  0  0  0  0  0  0  0  0  0  0  0
  141.1280   70.5860  227.5630 C   0  0  0  0  0  0  0  0  0  0  0  0
  140.9760   71.5150  226.5540 C   0  0  0  0  0  0  0  0  0  0  0  0
  140.4410   71.1010  225.3610 C   0  0  0  0  0  0  0  0  0  0  0  0
  140.2870   71.9980  224.3700 N   0  0  0  0  0  0  0  0  0  0  0  0
  141.6270   73.3350  222.1670 H   0  0  0  0  0  0  0  0  0  0  0  0
  140.3351   73.9512  219.6552 H   0  0  0  0  0  0  0  0  0  0  0  0
  139.7293   75.1511  220.8366 H   0  0  0  0  0  0  0  0  0  0  0  0
  143.7392   77.4833  219.7307 H   0  0  0  0  0  0  0  0  0  0  0  0
  143.3747   76.2376  218.5178 H   0  0  0  0  0  0  0  0  0  0  0  0
  142.3496   77.8110  217.1945 H   0  0  0  0  0  0  0  0  0  0  0  0
  143.6050   79.3740  217.4860 H   0  0  0  0  0  0  0  0  0  0  0  0
  140.5391   79.2335  218.7783 H   0  0  0  0  0  0  0  0  0  0  0  0
  140.1634   77.6359  218.1566 H   0  0  0  0  0  0  0  0  0  0  0  0
  139.9985   77.4267  220.6315 H   0  0  0  0  0  0  0  0  0  0  0  0
  142.7322   78.6027  220.8372 H   0  0  0  0  0  0  0  0  0  0  0  0
  140.3327   78.1252  222.7199 H   0  0  0  0  0  0  0  0  0  0  0  0
  141.8452   77.2001  222.7296 H   0  0  0  0  0  0  0  0  0  0  0  0
  141.2448   79.8627  223.8820 H   0  0  0  0  0  0  0  0  0  0  0  0
  142.6506   78.7628  224.1898 H   0  0  0  0  0  0  0  0  0  0  0  0
  141.6417   81.6747  222.3156 H   0  0  0  0  0  0  0  0  0  0  0  0
  142.9204   81.3486  221.0864 H   0  0  0  0  0  0  0  0  0  0  0  0
  140.1955   80.1498  221.3764 H   0  0  0  0  0  0  0  0  0  0  0  0
  141.1897   80.3457  219.9185 H   0  0  0  0  0  0  0  0  0  0  0  0
  138.9447   70.0927  221.9320 H   0  0  0  0  0  0  0  0  0  0  0  0
  139.2083   68.3882  223.7334 H   0  0  0  0  0  0  0  0  0  0  0  0
  139.9123   67.8057  226.0305 H   0  0  0  0  0  0  0  0  0  0  0  0
  141.5537   70.8931  228.5297 H   0  0  0  0  0  0  0  0  0  0  0  0
  141.2767   72.5625  226.7030 H   0  0  0  0  0  0  0  0  0  0  0  0
  1  2  2  0
  2  3  1  0
  3  4  1  0
  4  5  1  0
  5  6  2  0
  5  7  1  0
  7  8  1  0
  8  9  1  0
  9 10  1  0
  9 11  1  0
 11 12  1  0
 12 13  1  0
 13 14  1  0
 14 15  1  0
 15 16  1  0
 16 17  1  0
 17 18  1  0
  2 19  1  0
 19 20  2  0
 20 21  1  0
 21 22  2  0
 22 23  1  0
 23 24  2  0
 24 25  1  0
 24 26  1  0
 26 27  2  0
 27 28  1  0
 28 29  2  0
 12  7  1  0
 18 13  1  0
 29 19  1  0
 28 22  1  0
  3 30  1  0
  4 31  1  0
  4 32  1  0
  8 33  1  0
  8 34  1  0
  9 35  1  6
 10 36  1  0
 11 37  1  0
 11 38  1  0
 12 39  1  1
 13 40  1  0
 14 41  1  0
 14 42  1  0
 15 43  1  0
 15 44  1  0
 17 45  1  0
 17 46  1  0
 18 47  1  0
 18 48  1  0
 20 49  1  0
 21 50  1  0
 23 51  1  0
 26 52  1  0
 27 53  1  0
M  END
>  <meeko>  (2) 
{"free_energy": -8.1, "intermolecular_energy": -9.89, "internal_energy": -1.78, "cluster_size": 16, "cluster_id": 1, "rank_in_cluster": 13}

$$$$

     RDKit          3D

 53 56  0  0  0  0  0  0  0  0999 V2000
  140.1130   71.9810  220.7810 O   0  0  0  0  0  0  0  0  0  0  0  0
  139.9410   72.3680  221.9790 C   0  0  0  0  0  0  0  0  0  0  0  0
  139.6950   73.7470  222.1870 N   0  0  0  0  0  0  0  0  0  0  0  0
  139.6390   74.6980  221.0720 C   0  0  0  0  0  0  0  0  0  0  0  0
  139.7190   76.0610  221.6140 C   0  0  0  0  0  0  0  0  0  0  0  0
  139.1950   76.3100  222.7240 O   0  0  0  0  0  0  0  0  0  0  0  0
  140.3690   77.1230  220.9350 N   0  0  0  0  0  0  0  0  0  0  0  0
  141.5270   76.9790  220.0750 C   0  0  0  0  0  0  0  0  0  0  0  0
  141.4280   78.0500  219.0330 C   0  0  2  0  0  0  0  0  0  0  0  0
  142.5680   78.8230  218.9090 O   0  0  0  0  0  0  0  0  0  0  0  0
  140.2050   78.8490  219.4490 C   0  0  0  0  0  0  0  0  0  0  0  0
  140.0640   78.5440  220.9250 C   0  0  2  0  0  0  0  0  0  0  0  0
  141.1240   79.2370  221.7410 C   0  0  0  0  0  0  0  0  0  0  0  0
  141.1720   78.5980  223.1010 C   0  0  0  0  0  0  0  0  0  0  0  0
  142.1870   79.4010  223.9170 C   0  0  0  0  0  0  0  0  0  0  0  0
  142.9410   80.2490  223.1020 O   0  0  0  0  0  0  0  0  0  0  0  0
  142.1940   81.2630  222.5370 C   0  0  0  0  0  0  0  0  0  0  0  0
  140.9040   80.7010  221.9320 C   0  0  0  0  0  0  0  0  0  0  0  0
  139.9930   71.4360  223.1080 C   0  0  0  0  0  0  0  0  0  0  0  0
  139.5200   70.1440  222.8990 C   0  0  0  0  0  0  0  0  0  0  0  0
  139.5630   69.2490  223.9610 C   0  0  0  0  0  0  0  0  0  0  0  0
  140.0630   69.6310  225.1960 C   0  0  0  0  0  0  0  0  0  0  0  0
  140.1180   68.7600  226.2740 C   0  0  0  0  0  0  0  0  0  0  0  0
  140.6280   69.2100  227.4700 C   0  0  0  0  0  0  0  0  0  0  0  0
  140.7300   68.1690  228.8750 Cl  0  0  0  0  0  0  0  0  0  0  0  0
  141.0820   70.5050  227.6160 C   0  0  0  0  0  0  0  0  0  0  0  0
  141.0350   71.3850  226.5530 C   0  0  0  0  0  0  0  0  0  0  0  0
  140.5270   70.9400  225.3590 C   0  0  0  0  0  0  0  0  0  0  0  0
  140.4760   71.7880  224.3170 N   0  0  0  0  0  0  0  0  0  0  0  0
  139.5510   74.0800  223.1850 H   0  0  0  0  0  0  0  0  0  0  0  0
  140.4839   74.5201  220.3904 H   0  0  0  0  0  0  0  0  0  0  0  0
  138.6990   74.5695  220.5154 H   0  0  0  0  0  0  0  0  0  0  0  0
  142.4505   77.1035  220.6594 H   0  0  0  0  0  0  0  0  0  0  0  0
  141.5543   75.9808  219.6136 H   0  0  0  0  0  0  0  0  0  0  0  0
  141.3301   77.6255  218.0229 H   0  0  0  0  0  0  0  0  0  0  0  0
  143.3760   78.3410  219.2570 H   0  0  0  0  0  0  0  0  0  0  0  0
  140.3642   79.9248  219.2840 H   0  0  0  0  0  0  0  0  0  0  0  0
  139.3067   78.5863  218.8711 H   0  0  0  0  0  0  0  0  0  0  0  0
  139.0911   78.8497  221.3373 H   0  0  0  0  0  0  0  0  0  0  0  0
  142.0628   79.1273  221.1783 H   0  0  0  0  0  0  0  0  0  0  0  0
  140.1813   78.6407  223.5771 H   0  0  0  0  0  0  0  0  0  0  0  0
  141.4604   77.5385  223.0351 H   0  0  0  0  0  0  0  0  0  0  0  0
  141.6490   80.0058  224.6618 H   0  0  0  0  0  0  0  0  0  0  0  0
  142.8721   78.6945  224.4085 H   0  0  0  0  0  0  0  0  0  0  0  0
  141.9396   82.0010  223.3120 H   0  0  0  0  0  0  0  0  0  0  0  0
  142.7839   81.7401  221.7405 H   0  0  0  0  0  0  0  0  0  0  0  0
  140.0588   80.8717  222.6151 H   0  0  0  0  0  0  0  0  0  0  0  0
  140.6662   81.1939  220.9778 H   0  0  0  0  0  0  0  0  0  0  0  0
  139.1228   69.8395  221.9195 H   0  0  0  0  0  0  0  0  0  0  0  0
  139.1948   68.2222  223.8195 H   0  0  0  0  0  0  0  0  0  0  0  0
  139.7592   67.7249  226.1742 H   0  0  0  0  0  0  0  0  0  0  0  0
  141.4835   70.8380  228.5845 H   0  0  0  0  0  0  0  0  0  0  0  0
  141.3963   72.4183  226.6610 H   0  0  0  0  0  0  0  0  0  0  0  0
  1  2  2  0
  2  3  1  0
  3  4  1  0
  4  5  1  0
  5  6  2  0
  5  7  1  0
  7  8  1  0
  8  9  1  0
  9 10  1  0
  9 11  1  0
 11 12  1  0
 12 13  1  0
 13 14  1  0
 14 15  1  0
 15 16  1  0
 16 17  1  0
 17 18  1  0
  2 19  1  0
 19 20  2  0
 20 21  1  0
 21 22  2  0
 22 23  1  0
 23 24  2  0
 24 25  1  0
 24 26  1  0
 26 27  2  0
 27 28  1  0
 28 29  2  0
 12  7  1  0
 18 13  1  0
 29 19  1  0
 28 22  1  0
  3 30  1  0
  4 31  1  0
  4 32  1  0
  8 33  1  0
  8 34  1  0
  9 35  1  6
 10 36  1  0
 11 37  1  0
 11 38  1  0
 12 39  1  1
 13 40  1  0
 14 41  1  0
 14 42  1  0
 15 43  1  0
 15 44  1  0
 17 45  1  0
 17 46  1  0
 18 47  1  0
 18 48  1  0
 20 49  1  0
 21 50  1  0
 23 51  1  0
 26 52  1  0
 27 53  1  0
M  END
>  <meeko>  (3) 
{"free_energy": -8.28, "intermolecular_energy": -10.07, "internal_energy": -1.77, "cluster_size": 16, "cluster_id": 1, "rank_in_cluster": 11}

$$$$

     RDKit          3D

 53 56  0  0  0  0  0  0  0  0999 V2000
  140.7280   72.4150  220.7090 O   0  0  0  0  0  0  0  0  0  0  0  0
  140.2170   72.7470  221.8240 C   0  0  0  0  0  0  0  0  0  0  0  0
  139.7080   74.0630  221.9400 N   0  0  0  0  0  0  0  0  0  0  0  0
  139.7640   75.0130  220.8230 C   0  0  0  0  0  0  0  0  0  0  0  0
  141.1190   75.5760  220.7560 C   0  0  0  0  0  0  0  0  0  0  0  0
  142.0810   74.9140  221.2100 O   0  0  0  0  0  0  0  0  0  0  0  0
  141.3980   76.8480  220.1940 N   0  0  0  0  0  0  0  0  0  0  0  0
  142.5220   77.1480  219.3270 C   0  0  0  0  0  0  0  0  0  0  0  0
  142.0740   78.2370  218.4020 C   0  0  2  0  0  0  0  0  0  0  0  0
  142.9230   79.3290  218.3630 O   0  0  0  0  0  0  0  0  0  0  0  0
  140.6790   78.5810  218.8930 C   0  0  0  0  0  0  0  0  0  0  0  0
  140.6770   78.1020  220.3290 C   0  0  2  0  0  0  0  0  0  0  0  0
  141.4990   79.0000  221.2170 C   0  0  0  0  0  0  0  0  0  0  0  0
  141.4440   78.4620  222.6190 C   0  0  0  0  0  0  0  0  0  0  0  0
  142.2070   79.4610  223.4920 C   0  0  0  0  0  0  0  0  0  0  0  0
  142.9400   80.3620  222.7160 O   0  0  0  0  0  0  0  0  0  0  0  0
  142.1450   81.2110  221.9750 C   0  0  0  0  0  0  0  0  0  0  0  0
  141.0470   80.4210  221.2550 C   0  0  0  0  0  0  0  0  0  0  0  0
  140.1510   71.8150  222.9520 C   0  0  0  0  0  0  0  0  0  0  0  0
  139.5330   70.5860  222.7380 C   0  0  0  0  0  0  0  0  0  0  0  0
  139.4630   69.6920  223.7990 C   0  0  0  0  0  0  0  0  0  0  0  0
  139.9940   70.0130  225.0390 C   0  0  0  0  0  0  0  0  0  0  0  0
  139.9380   69.1410  226.1150 C   0  0  0  0  0  0  0  0  0  0  0  0
  140.4870   69.5290  227.3160 C   0  0  0  0  0  0  0  0  0  0  0  0
  140.4550   68.4820  228.7220 Cl  0  0  0  0  0  0  0  0  0  0  0  0
  141.0870   70.7620  227.4680 C   0  0  0  0  0  0  0  0  0  0  0  0
  141.1510   71.6420  226.4060 C   0  0  0  0  0  0  0  0  0  0  0  0
  140.6050   71.2590  225.2070 C   0  0  0  0  0  0  0  0  0  0  0  0
  140.6610   72.1080  224.1650 N   0  0  0  0  0  0  0  0  0  0  0  0
  139.2790   74.3490  222.8680 H   0  0  0  0  0  0  0  0  0  0  0  0
  139.5315   74.4930  219.8819 H   0  0  0  0  0  0  0  0  0  0  0  0
  139.0293   75.8173  220.9757 H   0  0  0  0  0  0  0  0  0  0  0  0
  143.3812   77.4875  219.9241 H   0  0  0  0  0  0  0  0  0  0  0  0
  142.8369   76.2564  218.7650 H   0  0  0  0  0  0  0  0  0  0  0  0
  142.0809   77.9056  217.3531 H   0  0  0  0  0  0  0  0  0  0  0  0
  143.3660   79.4150  217.4670 H   0  0  0  0  0  0  0  0  0  0  0  0
  140.5008   79.6652  218.8407 H   0  0  0  0  0  0  0  0  0  0  0  0
  139.8868   78.1168  218.2872 H   0  0  0  0  0  0  0  0  0  0  0  0
  139.6687   78.0544  220.7661 H   0  0  0  0  0  0  0  0  0  0  0  0
  142.5142   79.0015  220.7936 H   0  0  0  0  0  0  0  0  0  0  0  0
  140.3998   78.3817  222.9556 H   0  0  0  0  0  0  0  0  0  0  0  0
  141.8877   77.4573  222.6796 H   0  0  0  0  0  0  0  0  0  0  0  0
  141.4872   80.0215  224.1067 H   0  0  0  0  0  0  0  0  0  0  0  0
  142.9093   78.9000  224.1261 H   0  0  0  0  0  0  0  0  0  0  0  0
  141.6804   81.9495  222.6449 H   0  0  0  0  0  0  0  0  0  0  0  0
  142.7683   81.7205  221.2254 H   0  0  0  0  0  0  0  0  0  0  0  0
  140.0979   80.5027  221.8051 H   0  0  0  0  0  0  0  0  0  0  0  0
  140.8786   80.8108  220.2403 H   0  0  0  0  0  0  0  0  0  0  0  0
  139.1113   70.3296  221.7549 H   0  0  0  0  0  0  0  0  0  0  0  0
  138.9791   68.7150  223.6532 H   0  0  0  0  0  0  0  0  0  0  0  0
  139.4624   68.1546  226.0107 H   0  0  0  0  0  0  0  0  0  0  0  0
  141.5166   71.0454  228.4402 H   0  0  0  0  0  0  0  0  0  0  0  0
  141.6283   72.6266  226.5185 H   0  0  0  0  0  0  0  0  0  0  0  0
  1  2  2  0
  2  3  1  0
  3  4  1  0
  4  5  1  0
  5  6  2  0
  5  7  1  0
  7  8  1  0
  8  9  1  0
  9 10  1  0
  9 11  1  0
 11 12  1  0
 12 13  1  0
 13 14  1  0
 14 15  1  0
 15 16  1  0
 16 17  1  0
 17 18  1  0
  2 19  1  0
 19 20  2  0
 20 21  1  0
 21 22  2  0
 22 23  1  0
 23 24  2  0
 24 25  1  0
 24 26  1  0
 26 27  2  0
 27 28  1  0
 28 29  2  0
 12  7  1  0
 18 13  1  0
 29 19  1  0
 28 22  1  0
  3 30  1  0
  4 31  1  0
  4 32  1  0
  8 33  1  0
  8 34  1  0
  9 35  1  6
 10 36  1  0
 11 37  1  0
 11 38  1  0
 12 39  1  1
 13 40  1  0
 14 41  1  0
 14 42  1  0
 15 43  1  0
 15 44  1  0
 17 45  1  0
 17 46  1  0
 18 47  1  0
 18 48  1  0
 20 49  1  0
 21 50  1  0
 23 51  1  0
 26 52  1  0
 27 53  1  0
M  END
>  <meeko>  (4) 
{"free_energy": -8.6, "intermolecular_energy": -10.39, "internal_energy": -1.28, "cluster_size": 16, "cluster_id": 1, "rank_in_cluster": 3}

$$$$

     RDKit          3D

 53 56  0  0  0  0  0  0  0  0999 V2000
  140.2330   72.4840  220.6750 O   0  0  0  0  0  0  0  0  0  0  0  0
  140.0090   72.8440  221.8720 C   0  0  0  0  0  0  0  0  0  0  0  0
  139.7340   74.2150  222.0980 N   0  0  0  0  0  0  0  0  0  0  0  0
  139.7080   75.1870  220.9990 C   0  0  0  0  0  0  0  0  0  0  0  0
  141.0810   75.6460  220.7480 C   0  0  0  0  0  0  0  0  0  0  0  0
  142.0410   74.8930  221.0360 O   0  0  0  0  0  0  0  0  0  0  0  0
  141.3800   76.9130  220.1870 N   0  0  0  0  0  0  0  0  0  0  0  0
  142.5200   77.2020  219.3380 C   0  0  0  0  0  0  0  0  0  0  0  0
  142.0970   78.2910  218.4030 C   0  0  2  0  0  0  0  0  0  0  0  0
  142.9550   79.3760  218.3750 O   0  0  0  0  0  0  0  0  0  0  0  0
  140.6970   78.6480  218.8700 C   0  0  0  0  0  0  0  0  0  0  0  0
  140.6670   78.1740  220.3070 C   0  0  2  0  0  0  0  0  0  0  0  0
  141.4830   79.0670  221.2060 C   0  0  0  0  0  0  0  0  0  0  0  0
  141.4380   78.5070  222.6000 C   0  0  0  0  0  0  0  0  0  0  0  0
  142.1930   79.5020  223.4850 C   0  0  0  0  0  0  0  0  0  0  0  0
  142.9130   80.4220  222.7210 O   0  0  0  0  0  0  0  0  0  0  0  0
  142.1050   81.2740  221.9950 C   0  0  0  0  0  0  0  0  0  0  0  0
  141.0150   80.4820  221.2670 C   0  0  0  0  0  0  0  0  0  0  0  0
  140.0310   71.8900  222.9840 C   0  0  0  0  0  0  0  0  0  0  0  0
  139.5350   70.6110  222.7460 C   0  0  0  0  0  0  0  0  0  0  0  0
  139.5490   69.6960  223.7910 C   0  0  0  0  0  0  0  0  0  0  0  0
  140.0430   70.0460  225.0380 C   0  0  0  0  0  0  0  0  0  0  0  0
  140.0680   69.1530  226.1000 C   0  0  0  0  0  0  0  0  0  0  0  0
  140.5740   69.5710  227.3100 C   0  0  0  0  0  0  0  0  0  0  0  0
  140.6400   68.5020  228.6960 Cl  0  0  0  0  0  0  0  0  0  0  0  0
  141.0510   70.8540  227.4850 C   0  0  0  0  0  0  0  0  0  0  0  0
  141.0330   71.7540  226.4390 C   0  0  0  0  0  0  0  0  0  0  0  0
  140.5300   71.3420  225.2310 C   0  0  0  0  0  0  0  0  0  0  0  0
  140.5060   72.2100  224.2040 N   0  0  0  0  0  0  0  0  0  0  0  0
  139.5460   74.5250  223.0950 H   0  0  0  0  0  0  0  0  0  0  0  0
  139.3046   74.7114  220.0929 H   0  0  0  0  0  0  0  0  0  0  0  0
  139.0688   76.0411  221.2672 H   0  0  0  0  0  0  0  0  0  0  0  0
  143.3718   77.5365  219.9484 H   0  0  0  0  0  0  0  0  0  0  0  0
  142.8366   76.3063  218.7835 H   0  0  0  0  0  0  0  0  0  0  0  0
  142.1190   77.9562  217.3554 H   0  0  0  0  0  0  0  0  0  0  0  0
  143.4070   79.4610  217.4830 H   0  0  0  0  0  0  0  0  0  0  0  0
  140.5287   79.7335  218.8113 H   0  0  0  0  0  0  0  0  0  0  0  0
  139.9112   78.1881  218.2527 H   0  0  0  0  0  0  0  0  0  0  0  0
  139.6513   78.1371  220.7276 H   0  0  0  0  0  0  0  0  0  0  0  0
  142.4970   79.0859  220.7799 H   0  0  0  0  0  0  0  0  0  0  0  0
  140.3959   78.4102  222.9385 H   0  0  0  0  0  0  0  0  0  0  0  0
  141.8923   77.5062  222.6446 H   0  0  0  0  0  0  0  0  0  0  0  0
  141.4690   80.0453  224.1101 H   0  0  0  0  0  0  0  0  0  0  0  0
  142.9038   78.9395  224.1082 H   0  0  0  0  0  0  0  0  0  0  0  0
  141.6338   81.9966  222.6775 H   0  0  0  0  0  0  0  0  0  0  0  0
  142.7196   81.8029  221.2517 H   0  0  0  0  0  0  0  0  0  0  0  0
  140.0668   80.5443  221.8211 H   0  0  0  0  0  0  0  0  0  0  0  0
  140.8393   80.8849  220.2586 H   0  0  0  0  0  0  0  0  0  0  0  0
  139.1425   70.3325  221.7568 H   0  0  0  0  0  0  0  0  0  0  0  0
  139.1626   68.6793  223.6267 H   0  0  0  0  0  0  0  0  0  0  0  0
  139.6895   68.1275  225.9768 H   0  0  0  0  0  0  0  0  0  0  0  0
  141.4478   71.1611  228.4639 H   0  0  0  0  0  0  0  0  0  0  0  0
  141.4131   72.7778  226.5708 H   0  0  0  0  0  0  0  0  0  0  0  0
  1  2  2  0
  2  3  1  0
  3  4  1  0
  4  5  1  0
  5  6  2  0
  5  7  1  0
  7  8  1  0
  8  9  1  0
  9 10  1  0
  9 11  1  0
 11 12  1  0
 12 13  1  0
 13 14  1  0
 14 15  1  0
 15 16  1  0
 16 17  1  0
 17 18  1  0
  2 19  1  0
 19 20  2  0
 20 21  1  0
 21 22  2  0
 22 23  1  0
 23 24  2  0
 24 25  1  0
 24 26  1  0
 26 27  2  0
 27 28  1  0
 28 29  2  0
 12  7  1  0
 18 13  1  0
 29 19  1  0
 28 22  1  0
  3 30  1  0
  4 31  1  0
  4 32  1  0
  8 33  1  0
  8 34  1  0
  9 35  1  6
 10 36  1  0
 11 37  1  0
 11 38  1  0
 12 39  1  1
 13 40  1  0
 14 41  1  0
 14 42  1  0
 15 43  1  0
 15 44  1  0
 17 45  1  0
 17 46  1  0
 18 47  1  0
 18 48  1  0
 20 49  1  0
 21 50  1  0
 23 51  1  0
 26 52  1  0
 27 53  1  0
M  END
>  <meeko>  (5) 
{"free_energy": -8.6, "intermolecular_energy": -10.39, "internal_energy": -1.36, "cluster_size": 16, "cluster_id": 1, "rank_in_cluster": 4}

$$$$

     RDKit          3D

 53 56  0  0  0  0  0  0  0  0999 V2000
  140.3050   72.4120  220.6930 O   0  0  0  0  0  0  0  0  0  0  0  0
  140.0560   72.7770  221.8840 C   0  0  0  0  0  0  0  0  0  0  0  0
  139.7670   74.1480  222.0960 N   0  0  0  0  0  0  0  0  0  0  0  0
  139.7550   75.1130  220.9920 C   0  0  0  0  0  0  0  0  0  0  0  0
  141.1180   75.6270  220.8030 C   0  0  0  0  0  0  0  0  0  0  0  0
  142.0920   74.9310  221.1760 O   0  0  0  0  0  0  0  0  0  0  0  0
  141.3930   76.8860  220.2130 N   0  0  0  0  0  0  0  0  0  0  0  0
  142.5410   77.1830  219.3780 C   0  0  0  0  0  0  0  0  0  0  0  0
  142.1060   78.2350  218.4050 C   0  0  2  0  0  0  0  0  0  0  0  0
  142.9340   79.3410  218.3620 O   0  0  0  0  0  0  0  0  0  0  0  0
  140.6880   78.5650  218.8360 C   0  0  0  0  0  0  0  0  0  0  0  0
  140.6440   78.1290  220.2850 C   0  0  2  0  0  0  0  0  0  0  0  0
  141.4170   79.0690  221.1730 C   0  0  0  0  0  0  0  0  0  0  0  0
  141.4480   78.4940  222.5620 C   0  0  0  0  0  0  0  0  0  0  0  0
  142.1540   79.5310  223.4400 C   0  0  0  0  0  0  0  0  0  0  0  0
  142.7880   80.5070  222.6680 O   0  0  0  0  0  0  0  0  0  0  0  0
  141.9040   81.3060  221.9720 C   0  0  0  0  0  0  0  0  0  0  0  0
  140.8530   80.4470  221.2620 C   0  0  0  0  0  0  0  0  0  0  0  0
  140.0640   71.8300  223.0020 C   0  0  0  0  0  0  0  0  0  0  0  0
  139.5360   70.5620  222.7760 C   0  0  0  0  0  0  0  0  0  0  0  0
  139.5370   69.6540  223.8260 C   0  0  0  0  0  0  0  0  0  0  0  0
  140.0480   69.9990  225.0680 C   0  0  0  0  0  0  0  0  0  0  0  0
  140.0610   69.1130  226.1350 C   0  0  0  0  0  0  0  0  0  0  0  0
  140.5860   69.5270  227.3380 C   0  0  0  0  0  0  0  0  0  0  0  0
  140.6370   68.4650  228.7310 Cl  0  0  0  0  0  0  0  0  0  0  0  0
  141.0950   70.7990  227.5010 C   0  0  0  0  0  0  0  0  0  0  0  0
  141.0890   71.6930  226.4490 C   0  0  0  0  0  0  0  0  0  0  0  0
  140.5670   71.2850  225.2490 C   0  0  0  0  0  0  0  0  0  0  0  0
  140.5560   72.1470  224.2160 N   0  0  0  0  0  0  0  0  0  0  0  0
  139.5580   74.4620  223.0880 H   0  0  0  0  0  0  0  0  0  0  0  0
  139.4148   74.6176  220.0707 H   0  0  0  0  0  0  0  0  0  0  0  0
  139.0702   75.9417  221.2251 H   0  0  0  0  0  0  0  0  0  0  0  0
  143.3714   77.5573  219.9947 H   0  0  0  0  0  0  0  0  0  0  0  0
  142.8928   76.2817  218.8546 H   0  0  0  0  0  0  0  0  0  0  0  0
  142.1571   77.8729  217.3676 H   0  0  0  0  0  0  0  0  0  0  0  0
  143.3890   79.4240  217.4720 H   0  0  0  0  0  0  0  0  0  0  0  0
  140.4909   79.6433  218.7445 H   0  0  0  0  0  0  0  0  0  0  0  0
  139.9271   78.0670  218.2172 H   0  0  0  0  0  0  0  0  0  0  0  0
  139.6220   78.0744  220.6882 H   0  0  0  0  0  0  0  0  0  0  0  0
  142.4154   79.1636  220.7212 H   0  0  0  0  0  0  0  0  0  0  0  0
  140.4244   78.3206  222.9255 H   0  0  0  0  0  0  0  0  0  0  0  0
  141.9731   77.5277  222.5834 H   0  0  0  0  0  0  0  0  0  0  0  0
  141.4101   80.0159  224.0892 H   0  0  0  0  0  0  0  0  0  0  0  0
  142.9180   79.0140  224.0392 H   0  0  0  0  0  0  0  0  0  0  0  0
  141.4011   81.9873  222.6742 H   0  0  0  0  0  0  0  0  0  0  0  0
  142.4612   81.8829  221.2191 H   0  0  0  0  0  0  0  0  0  0  0  0
  139.9173   80.4373  221.8402 H   0  0  0  0  0  0  0  0  0  0  0  0
  140.6235   80.8466  220.2632 H   0  0  0  0  0  0  0  0  0  0  0  0
  139.1289   70.2869  221.7918 H   0  0  0  0  0  0  0  0  0  0  0  0
  139.1262   68.6455  223.6704 H   0  0  0  0  0  0  0  0  0  0  0  0
  139.6582   68.0957  226.0216 H   0  0  0  0  0  0  0  0  0  0  0  0
  141.5078   71.1024  228.4744 H   0  0  0  0  0  0  0  0  0  0  0  0
  141.4935   72.7086  226.5709 H   0  0  0  0  0  0  0  0  0  0  0  0
  1  2  2  0
  2  3  1  0
  3  4  1  0
  4  5  1  0
  5  6  2  0
  5  7  1  0
  7  8  1  0
  8  9  1  0
  9 10  1  0
  9 11  1  0
 11 12  1  0
 12 13  1  0
 13 14  1  0
 14 15  1  0
 15 16  1  0
 16 17  1  0
 17 18  1  0
  2 19  1  0
 19 20  2  0
 20 21  1  0
 21 22  2  0
 22 23  1  0
 23 24  2  0
 24 25  1  0
 24 26  1  0
 26 27  2  0
 27 28  1  0
 28 29  2  0
 12  7  1  0
 18 13  1  0
 29 19  1  0
 28 22  1  0
  3 30  1  0
  4 31  1  0
  4 32  1  0
  8 33  1  0
  8 34  1  0
  9 35  1  6
 10 36  1  0
 11 37  1  0
 11 38  1  0
 12 39  1  1
 13 40  1  0
 14 41  1  0
 14 42  1  0
 15 43  1  0
 15 44  1  0
 17 45  1  0
 17 46  1  0
 18 47  1  0
 18 48  1  0
 20 49  1  0
 21 50  1  0
 23 51  1  0
 26 52  1  0
 27 53  1  0
M  END
>  <meeko>  (6) 
{"free_energy": -8.59, "intermolecular_energy": -10.38, "internal_energy": -1.36, "cluster_size": 16, "cluster_id": 1, "rank_in_cluster": 5}

$$$$

     RDKit          3D

 53 56  0  0  0  0  0  0  0  0999 V2000
  140.3170   73.7400  222.3280 O   0  0  0  0  0  0  0  0  0  0  0  0
  139.9210   72.5410  222.1920 C   0  0  0  0  0  0  0  0  0  0  0  0
  139.4200   72.1620  220.9220 N   0  0  0  0  0  0  0  0  0  0  0  0
  139.3550   73.1100  219.8050 C   0  0  0  0  0  0  0  0  0  0  0  0
  140.5820   72.9760  219.0060 C   0  0  0  0  0  0  0  0  0  0  0  0
  140.7050   71.9980  218.2320 O   0  0  0  0  0  0  0  0  0  0  0  0
  141.6470   73.9100  219.0680 N   0  0  0  0  0  0  0  0  0  0  0  0
  142.0570   74.7790  217.9810 C   0  0  0  0  0  0  0  0  0  0  0  0
  142.5980   76.0260  218.6070 C   0  0  2  0  0  0  0  0  0  0  0  0
  143.8570   76.3840  218.1580 O   0  0  0  0  0  0  0  0  0  0  0  0
  142.5570   75.7330  220.0970 C   0  0  0  0  0  0  0  0  0  0  0  0
  142.5490   74.2210  220.1640 C   0  0  2  0  0  0  0  0  0  0  0  0
  143.8950   73.6400  219.8160 C   0  0  0  0  0  0  0  0  0  0  0  0
  143.7390   72.1580  219.6220 C   0  0  0  0  0  0  0  0  0  0  0  0
  145.1450   71.6080  219.3730 C   0  0  0  0  0  0  0  0  0  0  0  0
  146.0570   72.6330  219.1160 O   0  0  0  0  0  0  0  0  0  0  0  0
  146.2800   73.4470  220.2080 C   0  0  0  0  0  0  0  0  0  0  0  0
  144.9510   73.8570  220.8490 C   0  0  0  0  0  0  0  0  0  0  0  0
  139.9760   71.5780  223.2940 C   0  0  0  0  0  0  0  0  0  0  0  0
  139.5010   70.2920  223.0510 C   0  0  0  0  0  0  0  0  0  0  0  0
  139.5470   69.3680  224.0870 C   0  0  0  0  0  0  0  0  0  0  0  0
  140.0510   69.7150  225.3310 C   0  0  0  0  0  0  0  0  0  0  0  0
  140.1080   68.8140  226.3830 C   0  0  0  0  0  0  0  0  0  0  0  0
  140.6230   69.2300  227.5900 C   0  0  0  0  0  0  0  0  0  0  0  0
  140.7280   68.1490  228.9660 Cl  0  0  0  0  0  0  0  0  0  0  0  0
  141.0780   70.5200  227.7710 C   0  0  0  0  0  0  0  0  0  0  0  0
  141.0280   71.4290  226.7330 C   0  0  0  0  0  0  0  0  0  0  0  0
  140.5160   71.0180  225.5290 C   0  0  0  0  0  0  0  0  0  0  0  0
  140.4630   71.8950  224.5110 N   0  0  0  0  0  0  0  0  0  0  0  0
  139.0870   71.1620  220.8000 H   0  0  0  0  0  0  0  0  0  0  0  0
  138.4786   72.8861  219.1791 H   0  0  0  0  0  0  0  0  0  0  0  0
  139.2654   74.1373  220.1879 H   0  0  0  0  0  0  0  0  0  0  0  0
  142.8355   74.2894  217.3775 H   0  0  0  0  0  0  0  0  0  0  0  0
  141.2110   75.0057  217.3155 H   0  0  0  0  0  0  0  0  0  0  0  0
  141.9993   76.9074  218.3336 H   0  0  0  0  0  0  0  0  0  0  0  0
  144.4800   75.5980  218.1550 H   0  0  0  0  0  0  0  0  0  0  0  0
  143.4437   76.1435  220.6022 H   0  0  0  0  0  0  0  0  0  0  0  0
  141.6890   76.1870  220.5975 H   0  0  0  0  0  0  0  0  0  0  0  0
  142.2806   73.8352  221.1585 H   0  0  0  0  0  0  0  0  0  0  0  0
  144.2272   74.1617  218.9064 H   0  0  0  0  0  0  0  0  0  0  0  0
  143.3044   71.6995  220.5225 H   0  0  0  0  0  0  0  0  0  0  0  0
  143.0666   71.9331  218.7810 H   0  0  0  0  0  0  0  0  0  0  0  0
  145.4740   71.0516  220.2631 H   0  0  0  0  0  0  0  0  0  0  0  0
  145.1074   70.9504  218.4920 H   0  0  0  0  0  0  0  0  0  0  0  0
  146.8865   72.9034  220.9474 H   0  0  0  0  0  0  0  0  0  0  0  0
  146.8100   74.3519  219.8760 H   0  0  0  0  0  0  0  0  0  0  0  0
  144.7491   73.2364  221.7345 H   0  0  0  0  0  0  0  0  0  0  0  0
  144.9756   74.9067  221.1771 H   0  0  0  0  0  0  0  0  0  0  0  0
  139.1000   70.0151  222.0648 H   0  0  0  0  0  0  0  0  0  0  0  0
  139.1780   68.3456  223.9179 H   0  0  0  0  0  0  0  0  0  0  0  0
  139.7473   67.7827  226.2553 H   0  0  0  0  0  0  0  0  0  0  0  0
  141.4826   70.8257  228.7471 H   0  0  0  0  0  0  0  0  0  0  0  0
  141.3903   72.4587  226.8686 H   0  0  0  0  0  0  0  0  0  0  0  0
  1  2  2  0
  2  3  1  0
  3  4  1  0
  4  5  1  0
  5  6  2  0
  5  7  1  0
  7  8  1  0
  8  9  1  0
  9 10  1  0
  9 11  1  0
 11 12  1  0
 12 13  1  0
 13 14  1  0
 14 15  1  0
 15 16  1  0
 16 17  1  0
 17 18  1  0
  2 19  1  0
 19 20  2  0
 20 21  1  0
 21 22  2  0
 22 23  1  0
 23 24  2  0
 24 25  1  0
 24 26  1  0
 26 27  2  0
 27 28  1  0
 28 29  2  0
 12  7  1  0
 18 13  1  0
 29 19  1  0
 28 22  1  0
  3 30  1  0
  4 31  1  0
  4 32  1  0
  8 33  1  0
  8 34  1  0
  9 35  1  1
 10 36  1  0
 11 37  1  0
 11 38  1  0
 12 39  1  1
 13 40  1  0
 14 41  1  0
 14 42  1  0
 15 43  1  0
 15 44  1  0
 17 45  1  0
 17 46  1  0
 18 47  1  0
 18 48  1  0
 20 49  1  0
 21 50  1  0
 23 51  1  0
 26 52  1  0
 27 53  1  0
M  END
>  <meeko>  (7) 
{"free_energy": -8.32, "intermolecular_energy": -10.11, "internal_energy": -1.6, "cluster_size": 4, "cluster_id": 2, "rank_in_cluster": 1}

$$$$

     RDKit          3D

 53 56  0  0  0  0  0  0  0  0999 V2000
  140.4470   72.4160  220.9970 O   0  0  0  0  0  0  0  0  0  0  0  0
  139.7540   72.5210  222.0570 C   0  0  0  0  0  0  0  0  0  0  0  0
  138.8510   73.6100  222.1380 N   0  0  0  0  0  0  0  0  0  0  0  0
  138.7170   74.5820  221.0470 C   0  0  0  0  0  0  0  0  0  0  0  0
  139.2540   75.8720  221.5020 C   0  0  0  0  0  0  0  0  0  0  0  0
  138.6440   76.5100  222.3920 O   0  0  0  0  0  0  0  0  0  0  0  0
  140.4430   76.4400  220.9790 N   0  0  0  0  0  0  0  0  0  0  0  0
  141.7100   75.7460  220.8460 C   0  0  0  0  0  0  0  0  0  0  0  0
  142.4020   76.3340  219.6560 C   0  0  2  0  0  0  0  0  0  0  0  0
  143.6960   76.7540  219.9060 O   0  0  0  0  0  0  0  0  0  0  0  0
  141.4810   77.4610  219.2200 C   0  0  0  0  0  0  0  0  0  0  0  0
  140.6890   77.7790  220.4700 C   0  0  2  0  0  0  0  0  0  0  0  0
  141.5270   78.5010  221.4930 C   0  0  0  0  0  0  0  0  0  0  0  0
  141.0100   78.1560  222.8620 C   0  0  0  0  0  0  0  0  0  0  0  0
  141.8260   78.9900  223.8520 C   0  0  0  0  0  0  0  0  0  0  0  0
  142.9450   79.5600  223.2390 O   0  0  0  0  0  0  0  0  0  0  0  0
  142.6200   80.5120  222.2950 C   0  0  0  0  0  0  0  0  0  0  0  0
  141.5210   79.9880  221.3650 C   0  0  0  0  0  0  0  0  0  0  0  0
  139.8720   71.5620  223.1580 C   0  0  0  0  0  0  0  0  0  0  0  0
  139.4470   70.2570  222.9240 C   0  0  0  0  0  0  0  0  0  0  0  0
  139.5540   69.3360  223.9580 C   0  0  0  0  0  0  0  0  0  0  0  0
  140.0680   69.7050  225.1910 C   0  0  0  0  0  0  0  0  0  0  0  0
  140.1860   68.8080  226.2420 C   0  0  0  0  0  0  0  0  0  0  0  0
  140.7060   69.2460  227.4380 C   0  0  0  0  0  0  0  0  0  0  0  0
  140.8860   68.1720  228.8110 Cl  0  0  0  0  0  0  0  0  0  0  0  0
  141.1100   70.5550  227.6100 C   0  0  0  0  0  0  0  0  0  0  0  0
  141.0010   71.4600  226.5740 C   0  0  0  0  0  0  0  0  0  0  0  0
  140.4820   71.0270  225.3810 C   0  0  0  0  0  0  0  0  0  0  0  0
  140.3700   71.9010  224.3640 N   0  0  0  0  0  0  0  0  0  0  0  0
  138.2680   73.7060  223.0190 H   0  0  0  0  0  0  0  0  0  0  0  0
  139.2812   74.2343  220.1691 H   0  0  0  0  0  0  0  0  0  0  0  0
  137.6585   74.6919  220.7686 H   0  0  0  0  0  0  0  0  0  0  0  0
  142.3194   75.8937  221.7498 H   0  0  0  0  0  0  0  0  0  0  0  0
  141.5562   74.6643  220.7187 H   0  0  0  0  0  0  0  0  0  0  0  0
  142.5547   75.5848  218.8652 H   0  0  0  0  0  0  0  0  0  0  0  0
  143.7190   77.4630  220.6150 H   0  0  0  0  0  0  0  0  0  0  0  0
  142.0603   78.3356  218.8893 H   0  0  0  0  0  0  0  0  0  0  0  0
  140.8419   77.1847  218.3684 H   0  0  0  0  0  0  0  0  0  0  0  0
  139.8092   78.4094  220.2735 H   0  0  0  0  0  0  0  0  0  0  0  0
  142.5631   78.1714  221.3259 H   0  0  0  0  0  0  0  0  0  0  0  0
  139.9423   78.4085  222.9407 H   0  0  0  0  0  0  0  0  0  0  0  0
  141.1102   77.0801  223.0678 H   0  0  0  0  0  0  0  0  0  0  0  0
  141.1899   79.7929  224.2528 H   0  0  0  0  0  0  0  0  0  0  0  0
  142.1735   78.3273  224.6583 H   0  0  0  0  0  0  0  0  0  0  0  0
  142.2624   81.4195  222.8035 H   0  0  0  0  0  0  0  0  0  0  0  0
  143.5142   80.7416  221.6970 H   0  0  0  0  0  0  0  0  0  0  0  0
  140.5434   80.3911  221.6680 H   0  0  0  0  0  0  0  0  0  0  0  0
  141.7008   80.2973  220.3248 H   0  0  0  0  0  0  0  0  0  0  0  0
  139.0374   69.9633  221.9463 H   0  0  0  0  0  0  0  0  0  0  0  0
  139.2260   68.2986  223.7959 H   0  0  0  0  0  0  0  0  0  0  0  0
  139.8685   67.7618  226.1212 H   0  0  0  0  0  0  0  0  0  0  0  0
  141.5209   70.8781  228.5779 H   0  0  0  0  0  0  0  0  0  0  0  0
  141.3229   72.5040  226.7022 H   0  0  0  0  0  0  0  0  0  0  0  0
  1  2  2  0
  2  3  1  0
  3  4  1  0
  4  5  1  0
  5  6  2  0
  5  7  1  0
  7  8  1  0
  8  9  1  0
  9 10  1  0
  9 11  1  0
 11 12  1  0
 12 13  1  0
 13 14  1  0
 14 15  1  0
 15 16  1  0
 16 17  1  0
 17 18  1  0
  2 19  1  0
 19 20  2  0
 20 21  1  0
 21 22  2  0
 22 23  1  0
 23 24  2  0
 24 25  1  0
 24 26  1  0
 26 27  2  0
 27 28  1  0
 28 29  2  0
 12  7  1  0
 18 13  1  0
 29 19  1  0
 28 22  1  0
  3 30  1  0
  4 31  1  0
  4 32  1  0
  8 33  1  0
  8 34  1  0
  9 35  1  6
 10 36  1  0
 11 37  1  0
 11 38  1  0
 12 39  1  6
 13 40  1  0
 14 41  1  0
 14 42  1  0
 15 43  1  0
 15 44  1  0
 17 45  1  0
 17 46  1  0
 18 47  1  0
 18 48  1  0
 20 49  1  0
 21 50  1  0
 23 51  1  0
 26 52  1  0
 27 53  1  0
M  END
>  <meeko>  (8) 
{"free_energy": -8.83, "intermolecular_energy": -10.62, "internal_energy": -1.36, "cluster_size": 16, "cluster_id": 1, "rank_in_cluster": 1}

$$$$

     RDKit          3D

 53 56  0  0  0  0  0  0  0  0999 V2000
  140.1850   72.1070  220.7440 O   0  0  0  0  0  0  0  0  0  0  0  0
  139.9330   72.4650  221.9360 C   0  0  0  0  0  0  0  0  0  0  0  0
  139.5930   73.8240  222.1490 N   0  0  0  0  0  0  0  0  0  0  0  0
  139.5330   74.7850  221.0430 C   0  0  0  0  0  0  0  0  0  0  0  0
  139.6500   76.1420  221.5950 C   0  0  0  0  0  0  0  0  0  0  0  0
  139.1380   76.3950  222.7110 O   0  0  0  0  0  0  0  0  0  0  0  0
  140.3220   77.1930  220.9220 N   0  0  0  0  0  0  0  0  0  0  0  0
  141.4820   77.0280  220.0660 C   0  0  0  0  0  0  0  0  0  0  0  0
  141.4070   78.1020  219.0260 C   0  0  2  0  0  0  0  0  0  0  0  0
  142.5610   78.8550  218.9080 O   0  0  0  0  0  0  0  0  0  0  0  0
  140.1970   78.9230  219.4370 C   0  0  0  0  0  0  0  0  0  0  0  0
  140.0430   78.6190  220.9120 C   0  0  2  0  0  0  0  0  0  0  0  0
  141.1120   79.2910  221.7350 C   0  0  0  0  0  0  0  0  0  0  0  0
  141.1690   78.6220  223.0790 C   0  0  0  0  0  0  0  0  0  0  0  0
  142.1940   79.4050  223.9040 C   0  0  0  0  0  0  0  0  0  0  0  0
  142.9430   80.2690  223.1020 O   0  0  0  0  0  0  0  0  0  0  0  0
  142.1950   81.2960  222.5650 C   0  0  0  0  0  0  0  0  0  0  0  0
  140.8980   80.7510  221.9590 C   0  0  0  0  0  0  0  0  0  0  0  0
  139.9870   71.5210  223.0550 C   0  0  0  0  0  0  0  0  0  0  0  0
  139.5160   70.2300  222.8340 C   0  0  0  0  0  0  0  0  0  0  0  0
  139.5610   69.3250  223.8860 C   0  0  0  0  0  0  0  0  0  0  0  0
  140.0620   69.6950  225.1240 C   0  0  0  0  0  0  0  0  0  0  0  0
  140.1190   68.8120  226.1920 C   0  0  0  0  0  0  0  0  0  0  0  0
  140.6300   69.2500  227.3930 C   0  0  0  0  0  0  0  0  0  0  0  0
  140.7350   68.1940  228.7870 Cl  0  0  0  0  0  0  0  0  0  0  0  0
  141.0830   70.5440  227.5520 C   0  0  0  0  0  0  0  0  0  0  0  0
  141.0330   71.4350  226.4990 C   0  0  0  0  0  0  0  0  0  0  0  0
  140.5250   71.0020  225.3010 C   0  0  0  0  0  0  0  0  0  0  0  0
  140.4710   71.8610  224.2670 N   0  0  0  0  0  0  0  0  0  0  0  0
  139.3810   74.1320  223.1420 H   0  0  0  0  0  0  0  0  0  0  0  0
  140.3605   74.5969  220.3431 H   0  0  0  0  0  0  0  0  0  0  0  0
  138.5800   74.6791  220.5040 H   0  0  0  0  0  0  0  0  0  0  0  0
  142.4053   77.1342  220.6544 H   0  0  0  0  0  0  0  0  0  0  0  0
  141.4929   76.0301  219.6034 H   0  0  0  0  0  0  0  0  0  0  0  0
  141.3060   77.6799  218.0152 H   0  0  0  0  0  0  0  0  0  0  0  0
  143.3380   78.4050  219.3560 H   0  0  0  0  0  0  0  0  0  0  0  0
  140.3770   79.9959  219.2741 H   0  0  0  0  0  0  0  0  0  0  0  0
  139.2968   78.6776  218.8544 H   0  0  0  0  0  0  0  0  0  0  0  0
  139.0737   78.9425  221.3193 H   0  0  0  0  0  0  0  0  0  0  0  0
  142.0464   79.1911  221.1632 H   0  0  0  0  0  0  0  0  0  0  0  0
  140.1824   78.6569  223.5643 H   0  0  0  0  0  0  0  0  0  0  0  0
  141.4533   77.5633  222.9875 H   0  0  0  0  0  0  0  0  0  0  0  0
  141.6640   79.9944  224.6667 H   0  0  0  0  0  0  0  0  0  0  0  0
  142.8816   78.6860  224.3733 H   0  0  0  0  0  0  0  0  0  0  0  0
  141.9494   82.0184  223.3574 H   0  0  0  0  0  0  0  0  0  0  0  0
  142.7798   81.7877  221.7736 H   0  0  0  0  0  0  0  0  0  0  0  0
  140.0591   80.9095  222.6527 H   0  0  0  0  0  0  0  0  0  0  0  0
  140.6536   81.2649  221.0177 H   0  0  0  0  0  0  0  0  0  0  0  0
  139.1186   69.9345  221.8518 H   0  0  0  0  0  0  0  0  0  0  0  0
  139.1936   68.2993  223.7346 H   0  0  0  0  0  0  0  0  0  0  0  0
  139.7614   67.7777  226.0812 H   0  0  0  0  0  0  0  0  0  0  0  0
  141.4861   70.8670  228.5232 H   0  0  0  0  0  0  0  0  0  0  0  0
  141.3921   72.4679  226.6179 H   0  0  0  0  0  0  0  0  0  0  0  0
  1  2  2  0
  2  3  1  0
  3  4  1  0
  4  5  1  0
  5  6  2  0
  5  7  1  0
  7  8  1  0
  8  9  1  0
  9 10  1  0
  9 11  1  0
 11 12  1  0
 12 13  1  0
 13 14  1  0
 14 15  1  0
 15 16  1  0
 16 17  1  0
 17 18  1  0
  2 19  1  0
 19 20  2  0
 20 21  1  0
 21 22  2  0
 22 23  1  0
 23 24  2  0
 24 25  1  0
 24 26  1  0
 26 27  2  0
 27 28  1  0
 28 29  2  0
 12  7  1  0
 18 13  1  0
 29 19  1  0
 28 22  1  0
  3 30  1  0
  4 31  1  0
  4 32  1  0
  8 33  1  0
  8 34  1  0
  9 35  1  6
 10 36  1  0
 11 37  1  0
 11 38  1  0
 12 39  1  1
 13 40  1  0
 14 41  1  0
 14 42  1  0
 15 43  1  0
 15 44  1  0
 17 45  1  0
 17 46  1  0
 18 47  1  0
 18 48  1  0
 20 49  1  0
 21 50  1  0
 23 51  1  0
 26 52  1  0
 27 53  1  0
M  END
>  <meeko>  (9) 
{"free_energy": -8.3, "intermolecular_energy": -10.09, "internal_energy": -1.74, "cluster_size": 16, "cluster_id": 1, "rank_in_cluster": 7}

$$$$

     RDKit          3D

 53 56  0  0  0  0  0  0  0  0999 V2000
  138.6420   72.6590  221.0310 O   0  0  0  0  0  0  0  0  0  0  0  0
  139.6410   72.6260  221.8130 C   0  0  0  0  0  0  0  0  0  0  0  0
  140.7120   73.5120  221.5390 N   0  0  0  0  0  0  0  0  0  0  0  0
  140.6760   74.4340  220.3980 C   0  0  0  0  0  0  0  0  0  0  0  0
  141.8910   75.2600  220.4260 C   0  0  0  0  0  0  0  0  0  0  0  0
  142.9510   74.7750  220.8870 O   0  0  0  0  0  0  0  0  0  0  0  0
  141.9260   76.5950  219.9510 N   0  0  0  0  0  0  0  0  0  0  0  0
  142.9530   77.1460  219.0870 C   0  0  0  0  0  0  0  0  0  0  0  0
  142.2940   78.1980  218.2500 C   0  0  2  0  0  0  0  0  0  0  0  0
  142.9370   79.4220  218.2720 O   0  0  0  0  0  0  0  0  0  0  0  0
  140.8760   78.2580  218.7910 C   0  0  0  0  0  0  0  0  0  0  0  0
  141.0020   77.6910  220.1890 C   0  0  2  0  0  0  0  0  0  0  0  0
  141.6830   78.6580  221.1220 C   0  0  0  0  0  0  0  0  0  0  0  0
  141.4360   78.2100  222.5360 C   0  0  0  0  0  0  0  0  0  0  0  0
  142.0600   79.2760  223.4390 C   0  0  0  0  0  0  0  0  0  0  0  0
  142.8870   80.1390  222.7160 O   0  0  0  0  0  0  0  0  0  0  0  0
  142.1960   80.9250  221.8160 C   0  0  0  0  0  0  0  0  0  0  0  0
  141.2180   80.0710  221.0030 C   0  0  0  0  0  0  0  0  0  0  0  0
  139.6980   71.7130  222.9580 C   0  0  0  0  0  0  0  0  0  0  0  0
  139.0750   70.4750  222.8270 C   0  0  0  0  0  0  0  0  0  0  0  0
  139.1210   69.5990  223.9030 C   0  0  0  0  0  0  0  0  0  0  0  0
  139.7690   69.9470  225.0790 C   0  0  0  0  0  0  0  0  0  0  0  0
  139.8300   69.0930  226.1700 C   0  0  0  0  0  0  0  0  0  0  0  0
  140.4910   69.5060  227.3030 C   0  0  0  0  0  0  0  0  0  0  0  0
  140.6110   68.4840  228.7220 Cl  0  0  0  0  0  0  0  0  0  0  0  0
  141.0900   70.7470  227.3740 C   0  0  0  0  0  0  0  0  0  0  0  0
  141.0390   71.6090  226.2970 C   0  0  0  0  0  0  0  0  0  0  0  0
  140.3800   71.2010  225.1650 C   0  0  0  0  0  0  0  0  0  0  0  0
  140.3230   72.0320  224.1090 N   0  0  0  0  0  0  0  0  0  0  0  0
  141.5520   73.4900  222.1880 H   0  0  0  0  0  0  0  0  0  0  0  0
  140.6384   73.8614  219.4595 H   0  0  0  0  0  0  0  0  0  0  0  0
  139.7839   75.0746  220.4597 H   0  0  0  0  0  0  0  0  0  0  0  0
  143.7574   77.5912  219.6909 H   0  0  0  0  0  0  0  0  0  0  0  0
  143.4013   76.3634  218.4573 H   0  0  0  0  0  0  0  0  0  0  0  0
  142.3267   77.9430  217.1805 H   0  0  0  0  0  0  0  0  0  0  0  0
  143.5250   79.5400  217.4680 H   0  0  0  0  0  0  0  0  0  0  0  0
  140.5105   79.2951  218.8196 H   0  0  0  0  0  0  0  0  0  0  0  0
  140.1581   77.7035  218.1688 H   0  0  0  0  0  0  0  0  0  0  0  0
  140.0316   77.4377  220.6409 H   0  0  0  0  0  0  0  0  0  0  0  0
  142.7476   78.6499  220.8452 H   0  0  0  0  0  0  0  0  0  0  0  0
  140.3556   78.1330  222.7280 H   0  0  0  0  0  0  0  0  0  0  0  0
  141.8754   77.2193  222.7242 H   0  0  0  0  0  0  0  0  0  0  0  0
  141.2561   79.8615  223.9090 H   0  0  0  0  0  0  0  0  0  0  0  0
  142.6714   78.7690  224.2000 H   0  0  0  0  0  0  0  0  0  0  0  0
  141.6349   81.6961  222.3642 H   0  0  0  0  0  0  0  0  0  0  0  0
  142.9141   81.3970  221.1292 H   0  0  0  0  0  0  0  0  0  0  0  0
  140.2001   80.1707  221.4080 H   0  0  0  0  0  0  0  0  0  0  0  0
  141.1915   80.3921  219.9512 H   0  0  0  0  0  0  0  0  0  0  0  0
  138.5598   70.1981  221.8954 H   0  0  0  0  0  0  0  0  0  0  0  0
  138.6366   68.6147  223.8218 H   0  0  0  0  0  0  0  0  0  0  0  0
  139.3570   68.1007  226.1297 H   0  0  0  0  0  0  0  0  0  0  0  0
  141.6110   71.0511  228.2938 H   0  0  0  0  0  0  0  0  0  0  0  0
  141.5153   72.5993  226.3453 H   0  0  0  0  0  0  0  0  0  0  0  0
  1  2  2  0
  2  3  1  0
  3  4  1  0
  4  5  1  0
  5  6  2  0
  5  7  1  0
  7  8  1  0
  8  9  1  0
  9 10  1  0
  9 11  1  0
 11 12  1  0
 12 13  1  0
 13 14  1  0
 14 15  1  0
 15 16  1  0
 16 17  1  0
 17 18  1  0
  2 19  1  0
 19 20  2  0
 20 21  1  0
 21 22  2  0
 22 23  1  0
 23 24  2  0
 24 25  1  0
 24 26  1  0
 26 27  2  0
 27 28  1  0
 28 29  2  0
 12  7  1  0
 18 13  1  0
 29 19  1  0
 28 22  1  0
  3 30  1  0
  4 31  1  0
  4 32  1  0
  8 33  1  0
  8 34  1  0
  9 35  1  6
 10 36  1  0
 11 37  1  0
 11 38  1  0
 12 39  1  1
 13 40  1  0
 14 41  1  0
 14 42  1  0
 15 43  1  0
 15 44  1  0
 17 45  1  0
 17 46  1  0
 18 47  1  0
 18 48  1  0
 20 49  1  0
 21 50  1  0
 23 51  1  0
 26 52  1  0
 27 53  1  0
M  END
>  <meeko>  (10) 
{"free_energy": -8.04, "intermolecular_energy": -9.83, "internal_energy": -1.81, "cluster_size": 16, "cluster_id": 1, "rank_in_cluster": 16}

$$$$

     RDKit          3D

 53 56  0  0  0  0  0  0  0  0999 V2000
  140.2590   72.4470  220.6840 O   0  0  0  0  0  0  0  0  0  0  0  0
  140.0220   72.8120  221.8770 C   0  0  0  0  0  0  0  0  0  0  0  0
  139.7410   74.1830  222.0940 N   0  0  0  0  0  0  0  0  0  0  0  0
  139.7230   75.1500  220.9910 C   0  0  0  0  0  0  0  0  0  0  0  0
  141.0920   75.6330  220.7690 C   0  0  0  0  0  0  0  0  0  0  0  0
  142.0590   74.9080  221.1010 O   0  0  0  0  0  0  0  0  0  0  0  0
  141.3800   76.8960  220.1910 N   0  0  0  0  0  0  0  0  0  0  0  0
  142.5240   77.1850  219.3470 C   0  0  0  0  0  0  0  0  0  0  0  0
  142.0950   78.2550  218.3920 C   0  0  2  0  0  0  0  0  0  0  0  0
  142.9410   79.3490  218.3540 O   0  0  0  0  0  0  0  0  0  0  0  0
  140.6870   78.6020  218.8420 C   0  0  0  0  0  0  0  0  0  0  0  0
  140.6520   78.1490  220.2860 C   0  0  2  0  0  0  0  0  0  0  0  0
  141.4490   79.0660  221.1770 C   0  0  0  0  0  0  0  0  0  0  0  0
  141.4270   78.5100  222.5740 C   0  0  0  0  0  0  0  0  0  0  0  0
  142.1610   79.5270  223.4520 C   0  0  0  0  0  0  0  0  0  0  0  0
  142.8530   80.4630  222.6800 O   0  0  0  0  0  0  0  0  0  0  0  0
  142.0210   81.2910  221.9550 C   0  0  0  0  0  0  0  0  0  0  0  0
  140.9460   80.4700  221.2360 C   0  0  0  0  0  0  0  0  0  0  0  0
  140.0360   71.8630  222.9940 C   0  0  0  0  0  0  0  0  0  0  0  0
  139.5160   70.5920  222.7660 C   0  0  0  0  0  0  0  0  0  0  0  0
  139.5230   69.6820  223.8150 C   0  0  0  0  0  0  0  0  0  0  0  0
  140.0320   70.0290  225.0570 C   0  0  0  0  0  0  0  0  0  0  0  0
  140.0510   69.1410  226.1220 C   0  0  0  0  0  0  0  0  0  0  0  0
  140.5730   69.5560  227.3260 C   0  0  0  0  0  0  0  0  0  0  0  0
  140.6320   68.4920  228.7180 Cl  0  0  0  0  0  0  0  0  0  0  0  0
  141.0740   70.8310  227.4910 C   0  0  0  0  0  0  0  0  0  0  0  0
  141.0630   71.7260  226.4410 C   0  0  0  0  0  0  0  0  0  0  0  0
  140.5440   71.3170  225.2400 C   0  0  0  0  0  0  0  0  0  0  0  0
  140.5270   72.1810  224.2080 N   0  0  0  0  0  0  0  0  0  0  0  0
  139.5430   74.4970  223.0890 H   0  0  0  0  0  0  0  0  0  0  0  0
  139.3490   74.6638  220.0779 H   0  0  0  0  0  0  0  0  0  0  0  0
  139.0629   75.9935  221.2415 H   0  0  0  0  0  0  0  0  0  0  0  0
  143.3668   77.5388  219.9590 H   0  0  0  0  0  0  0  0  0  0  0  0
  142.8562   76.2848  218.8092 H   0  0  0  0  0  0  0  0  0  0  0  0
  142.1286   77.9050  217.3497 H   0  0  0  0  0  0  0  0  0  0  0  0
  143.3470   79.4640  217.4440 H   0  0  0  0  0  0  0  0  0  0  0  0
  140.5060   79.6843  218.7656 H   0  0  0  0  0  0  0  0  0  0  0  0
  139.9116   78.1238  218.2255 H   0  0  0  0  0  0  0  0  0  0  0  0
  139.6337   78.1054  220.6997 H   0  0  0  0  0  0  0  0  0  0  0  0
  142.4594   79.1093  220.7443 H   0  0  0  0  0  0  0  0  0  0  0  0
  140.3897   78.3873  222.9189 H   0  0  0  0  0  0  0  0  0  0  0  0
  141.9080   77.5217  222.6190 H   0  0  0  0  0  0  0  0  0  0  0  0
  141.4268   80.0536  224.0795 H   0  0  0  0  0  0  0  0  0  0  0  0
  142.8893   78.9853  224.0734 H   0  0  0  0  0  0  0  0  0  0  0  0
  141.5362   82.0051  222.6370 H   0  0  0  0  0  0  0  0  0  0  0  0
  142.6188   81.8307  221.2058 H   0  0  0  0  0  0  0  0  0  0  0  0
  139.9999   80.5109  221.7956 H   0  0  0  0  0  0  0  0  0  0  0  0
  140.7540   80.8650  220.2275 H   0  0  0  0  0  0  0  0  0  0  0  0
  139.1105   70.3159  221.7815 H   0  0  0  0  0  0  0  0  0  0  0  0
  139.1188   68.6711  223.6582 H   0  0  0  0  0  0  0  0  0  0  0  0
  139.6552   68.1212  226.0063 H   0  0  0  0  0  0  0  0  0  0  0  0
  141.4845   71.1356  228.4650 H   0  0  0  0  0  0  0  0  0  0  0  0
  141.4614   72.7438  226.5647 H   0  0  0  0  0  0  0  0  0  0  0  0
  1  2  2  0
  2  3  1  0
  3  4  1  0
  4  5  1  0
  5  6  2  0
  5  7  1  0
  7  8  1  0
  8  9  1  0
  9 10  1  0
  9 11  1  0
 11 12  1  0
 12 13  1  0
 13 14  1  0
 14 15  1  0
 15 16  1  0
 16 17  1  0
 17 18  1  0
  2 19  1  0
 19 20  2  0
 20 21  1  0
 21 22  2  0
 22 23  1  0
 23 24  2  0
 24 25  1  0
 24 26  1  0
 26 27  2  0
 27 28  1  0
 28 29  2  0
 12  7  1  0
 18 13  1  0
 29 19  1  0
 28 22  1  0
  3 30  1  0
  4 31  1  0
  4 32  1  0
  8 33  1  0
  8 34  1  0
  9 35  1  6
 10 36  1  0
 11 37  1  0
 11 38  1  0
 12 39  1  1
 13 40  1  0
 14 41  1  0
 14 42  1  0
 15 43  1  0
 15 44  1  0
 17 45  1  0
 17 46  1  0
 18 47  1  0
 18 48  1  0
 20 49  1  0
 21 50  1  0
 23 51  1  0
 26 52  1  0
 27 53  1  0
M  END
>  <meeko>  (11) 
{"free_energy": -8.6, "intermolecular_energy": -10.39, "internal_energy": -1.36, "cluster_size": 16, "cluster_id": 1, "rank_in_cluster": 2}

$$$$

     RDKit          3D

 53 56  0  0  0  0  0  0  0  0999 V2000
  140.0220   72.0740  220.7270 O   0  0  0  0  0  0  0  0  0  0  0  0
  139.8510   72.4490  221.9280 C   0  0  0  0  0  0  0  0  0  0  0  0
  139.5850   73.8230  222.1480 N   0  0  0  0  0  0  0  0  0  0  0  0
  139.5080   74.7800  221.0400 C   0  0  0  0  0  0  0  0  0  0  0  0
  139.6140   76.1400  221.5870 C   0  0  0  0  0  0  0  0  0  0  0  0
  139.0820   76.3980  222.6920 O   0  0  0  0  0  0  0  0  0  0  0  0
  140.2970   77.1880  220.9200 N   0  0  0  0  0  0  0  0  0  0  0  0
  141.4590   77.0180  220.0690 C   0  0  0  0  0  0  0  0  0  0  0  0
  141.3960   78.0960  219.0320 C   0  0  2  0  0  0  0  0  0  0  0  0
  142.5570   78.8410  218.9220 O   0  0  0  0  0  0  0  0  0  0  0  0
  140.1910   78.9240  219.4410 C   0  0  0  0  0  0  0  0  0  0  0  0
  140.0280   78.6160  220.9140 C   0  0  2  0  0  0  0  0  0  0  0  0
  141.0980   79.2780  221.7430 C   0  0  0  0  0  0  0  0  0  0  0  0
  141.1560   78.5930  223.0800 C   0  0  0  0  0  0  0  0  0  0  0  0
  142.1820   79.3650  223.9130 C   0  0  0  0  0  0  0  0  0  0  0  0
  142.9320   80.2370  223.1210 O   0  0  0  0  0  0  0  0  0  0  0  0
  142.1840   81.2720  222.5960 C   0  0  0  0  0  0  0  0  0  0  0  0
  140.8860   80.7350  221.9850 C   0  0  0  0  0  0  0  0  0  0  0  0
  139.9240   71.5100  223.0510 C   0  0  0  0  0  0  0  0  0  0  0  0
  139.4560   70.2160  222.8400 C   0  0  0  0  0  0  0  0  0  0  0  0
  139.5190   69.3150  223.8940 C   0  0  0  0  0  0  0  0  0  0  0  0
  140.0330   69.6920  225.1250 C   0  0  0  0  0  0  0  0  0  0  0  0
  140.1080   68.8140  226.1960 C   0  0  0  0  0  0  0  0  0  0  0  0
  140.6310   69.2600  227.3880 C   0  0  0  0  0  0  0  0  0  0  0  0
  140.7580   68.2090  228.7860 Cl  0  0  0  0  0  0  0  0  0  0  0  0
  141.0800   70.5560  227.5370 C   0  0  0  0  0  0  0  0  0  0  0  0
  141.0130   71.4430  226.4810 C   0  0  0  0  0  0  0  0  0  0  0  0
  140.4910   71.0030  225.2910 C   0  0  0  0  0  0  0  0  0  0  0  0
  140.4210   71.8570  224.2550 N   0  0  0  0  0  0  0  0  0  0  0  0
  139.4420   74.1460  223.1490 H   0  0  0  0  0  0  0  0  0  0  0  0
  140.3331   74.5985  220.3355 H   0  0  0  0  0  0  0  0  0  0  0  0
  138.5526   74.6625  220.5076 H   0  0  0  0  0  0  0  0  0  0  0  0
  142.3804   77.1160  220.6619 H   0  0  0  0  0  0  0  0  0  0  0  0
  141.4651   76.0215  219.6031 H   0  0  0  0  0  0  0  0  0  0  0  0
  141.2958   77.6786  218.0192 H   0  0  0  0  0  0  0  0  0  0  0  0
  143.3500   78.3330  219.2660 H   0  0  0  0  0  0  0  0  0  0  0  0
  140.3797   79.9961  219.2829 H   0  0  0  0  0  0  0  0  0  0  0  0
  139.2916   78.6872  218.8537 H   0  0  0  0  0  0  0  0  0  0  0  0
  139.0592   78.9443  221.3186 H   0  0  0  0  0  0  0  0  0  0  0  0
  142.0311   79.1845  221.1680 H   0  0  0  0  0  0  0  0  0  0  0  0
  140.1699   78.6230  223.5666 H   0  0  0  0  0  0  0  0  0  0  0  0
  141.4395   77.5353  222.9758 H   0  0  0  0  0  0  0  0  0  0  0  0
  141.6530   79.9464  224.6825 H   0  0  0  0  0  0  0  0  0  0  0  0
  142.8689   78.6397  224.3735 H   0  0  0  0  0  0  0  0  0  0  0  0
  141.9398   81.9855  223.3968 H   0  0  0  0  0  0  0  0  0  0  0  0
  142.7686   81.7723  221.8099 H   0  0  0  0  0  0  0  0  0  0  0  0
  140.0481   80.8858  222.6815 H   0  0  0  0  0  0  0  0  0  0  0  0
  140.6413   81.2604  221.0501 H   0  0  0  0  0  0  0  0  0  0  0  0
  139.0472   69.9156  221.8640 H   0  0  0  0  0  0  0  0  0  0  0  0
  139.1557   68.2867  223.7503 H   0  0  0  0  0  0  0  0  0  0  0  0
  139.7549   67.7772  226.0941 H   0  0  0  0  0  0  0  0  0  0  0  0
  141.4935   70.8843  228.5020 H   0  0  0  0  0  0  0  0  0  0  0  0
  141.3696   72.4777  226.5912 H   0  0  0  0  0  0  0  0  0  0  0  0
  1  2  2  0
  2  3  1  0
  3  4  1  0
  4  5  1  0
  5  6  2  0
  5  7  1  0
  7  8  1  0
  8  9  1  0
  9 10  1  0
  9 11  1  0
 11 12  1  0
 12 13  1  0
 13 14  1  0
 14 15  1  0
 15 16  1  0
 16 17  1  0
 17 18  1  0
  2 19  1  0
 19 20  2  0
 20 21  1  0
 21 22  2  0
 22 23  1  0
 23 24  2  0
 24 25  1  0
 24 26  1  0
 26 27  2  0
 27 28  1  0
 28 29  2  0
 12  7  1  0
 18 13  1  0
 29 19  1  0
 28 22  1  0
  3 30  1  0
  4 31  1  0
  4 32  1  0
  8 33  1  0
  8 34  1  0
  9 35  1  6
 10 36  1  0
 11 37  1  0
 11 38  1  0
 12 39  1  1
 13 40  1  0
 14 41  1  0
 14 42  1  0
 15 43  1  0
 15 44  1  0
 17 45  1  0
 17 46  1  0
 18 47  1  0
 18 48  1  0
 20 49  1  0
 21 50  1  0
 23 51  1  0
 26 52  1  0
 27 53  1  0
M  END
>  <meeko>  (12) 
{"free_energy": -8.3, "intermolecular_energy": -10.09, "internal_energy": -1.74, "cluster_size": 16, "cluster_id": 1, "rank_in_cluster": 8}

$$$$

     RDKit          3D

 53 56  0  0  0  0  0  0  0  0999 V2000
  139.9200   73.6600  222.2650 O   0  0  0  0  0  0  0  0  0  0  0  0
  139.7100   72.4160  222.1170 C   0  0  0  0  0  0  0  0  0  0  0  0
  139.3430   71.9680  220.8240 N   0  0  0  0  0  0  0  0  0  0  0  0
  139.2080   72.8960  219.6970 C   0  0  0  0  0  0  0  0  0  0  0  0
  140.4810   72.9320  218.9640 C   0  0  0  0  0  0  0  0  0  0  0  0
  140.6520   72.1570  217.9940 O   0  0  0  0  0  0  0  0  0  0  0  0
  141.5410   73.8100  219.3040 N   0  0  0  0  0  0  0  0  0  0  0  0
  141.9510   74.9630  218.5230 C   0  0  0  0  0  0  0  0  0  0  0  0
  142.4820   75.9730  219.4920 C   0  0  2  0  0  0  0  0  0  0  0  0
  143.7400   76.4520  219.1750 O   0  0  0  0  0  0  0  0  0  0  0  0
  142.4360   75.2540  220.8290 C   0  0  0  0  0  0  0  0  0  0  0  0
  142.4360   73.7890  220.4480 C   0  0  2  0  0  0  0  0  0  0  0  0
  143.7870   73.3420  219.9530 C   0  0  0  0  0  0  0  0  0  0  0  0
  143.7560   71.8510  219.7640 C   0  0  0  0  0  0  0  0  0  0  0  0
  145.1740   71.4400  219.3610 C   0  0  0  0  0  0  0  0  0  0  0  0
  145.9490   72.5490  219.0150 O   0  0  0  0  0  0  0  0  0  0  0  0
  146.2090   73.3840  220.0830 C   0  0  0  0  0  0  0  0  0  0  0  0
  144.9220   73.6640  220.8670 C   0  0  0  0  0  0  0  0  0  0  0  0
  139.8400   71.4720  223.2300 C   0  0  0  0  0  0  0  0  0  0  0  0
  139.4420   70.1560  223.0080 C   0  0  0  0  0  0  0  0  0  0  0  0
  139.5590   69.2490  224.0530 C   0  0  0  0  0  0  0  0  0  0  0  0
  140.0580   69.6420  225.2860 C   0  0  0  0  0  0  0  0  0  0  0  0
  140.1850   68.7590  226.3470 C   0  0  0  0  0  0  0  0  0  0  0  0
  140.6890   69.2210  227.5420 C   0  0  0  0  0  0  0  0  0  0  0  0
  140.8800   68.1650  228.9280 Cl  0  0  0  0  0  0  0  0  0  0  0  0
  141.0660   70.5380  227.7010 C   0  0  0  0  0  0  0  0  0  0  0  0
  140.9460   71.4300  226.6550 C   0  0  0  0  0  0  0  0  0  0  0  0
  140.4440   70.9740  225.4630 C   0  0  0  0  0  0  0  0  0  0  0  0
  140.3220   71.8330  224.4350 N   0  0  0  0  0  0  0  0  0  0  0  0
  139.1660   70.9300  220.6920 H   0  0  0  0  0  0  0  0  0  0  0  0
  138.4050   72.5525  219.0283 H   0  0  0  0  0  0  0  0  0  0  0  0
  138.9585   73.9017  220.0663 H   0  0  0  0  0  0  0  0  0  0  0  0
  142.7351   74.6762  217.8068 H   0  0  0  0  0  0  0  0  0  0  0  0
  141.1067   75.3719  217.9485 H   0  0  0  0  0  0  0  0  0  0  0  0
  141.8796   76.8934  219.4876 H   0  0  0  0  0  0  0  0  0  0  0  0
  144.0340   77.1620  219.8200 H   0  0  0  0  0  0  0  0  0  0  0  0
  143.3181   75.5011  221.4379 H   0  0  0  0  0  0  0  0  0  0  0  0
  141.5632   75.5370  221.4357 H   0  0  0  0  0  0  0  0  0  0  0  0
  142.1649   73.1265  221.2832 H   0  0  0  0  0  0  0  0  0  0  0  0
  143.9669   73.8921  219.0176 H   0  0  0  0  0  0  0  0  0  0  0  0
  143.4674   71.3540  220.7019 H   0  0  0  0  0  0  0  0  0  0  0  0
  143.0222   71.5601  218.9979 H   0  0  0  0  0  0  0  0  0  0  0  0
  145.6497   70.9211  220.2062 H   0  0  0  0  0  0  0  0  0  0  0  0
  145.1060   70.7792  218.4843 H   0  0  0  0  0  0  0  0  0  0  0  0
  146.9418   72.9042  220.7484 H   0  0  0  0  0  0  0  0  0  0  0  0
  146.6100   74.3353  219.7032 H   0  0  0  0  0  0  0  0  0  0  0  0
  144.8785   73.0292  221.7643 H   0  0  0  0  0  0  0  0  0  0  0  0
  144.8794   74.7121  221.1981 H   0  0  0  0  0  0  0  0  0  0  0  0
  139.0455   69.8433  222.0308 H   0  0  0  0  0  0  0  0  0  0  0  0
  139.2515   68.2039  223.9007 H   0  0  0  0  0  0  0  0  0  0  0  0
  139.8878   67.7058  226.2359 H   0  0  0  0  0  0  0  0  0  0  0  0
  141.4648   70.8795  228.6676 H   0  0  0  0  0  0  0  0  0  0  0  0
  141.2458   72.4816  226.7744 H   0  0  0  0  0  0  0  0  0  0  0  0
  1  2  2  0
  2  3  1  0
  3  4  1  0
  4  5  1  0
  5  6  2  0
  5  7  1  0
  7  8  1  0
  8  9  1  0
  9 10  1  0
  9 11  1  0
 11 12  1  0
 12 13  1  0
 13 14  1  0
 14 15  1  0
 15 16  1  0
 16 17  1  0
 17 18  1  0
  2 19  1  0
 19 20  2  0
 20 21  1  0
 21 22  2  0
 22 23  1  0
 23 24  2  0
 24 25  1  0
 24 26  1  0
 26 27  2  0
 27 28  1  0
 28 29  2  0
 12  7  1  0
 18 13  1  0
 29 19  1  0
 28 22  1  0
  3 30  1  0
  4 31  1  0
  4 32  1  0
  8 33  1  0
  8 34  1  0
  9 35  1  1
 10 36  1  0
 11 37  1  0
 11 38  1  0
 12 39  1  1
 13 40  1  0
 14 41  1  0
 14 42  1  0
 15 43  1  0
 15 44  1  0
 17 45  1  0
 17 46  1  0
 18 47  1  0
 18 48  1  0
 20 49  1  0
 21 50  1  0
 23 51  1  0
 26 52  1  0
 27 53  1  0
M  END
>  <meeko>  (13) 
{"free_energy": -8.29, "intermolecular_energy": -10.08, "internal_energy": -1.62, "cluster_size": 4, "cluster_id": 2, "rank_in_cluster": 3}

$$$$

     RDKit          3D

 53 56  0  0  0  0  0  0  0  0999 V2000
  139.8490   71.9950  220.7440 O   0  0  0  0  0  0  0  0  0  0  0  0
  139.7810   72.3860  221.9510 C   0  0  0  0  0  0  0  0  0  0  0  0
  139.6140   73.7750  222.1750 N   0  0  0  0  0  0  0  0  0  0  0  0
  139.5220   74.7290  221.0650 C   0  0  0  0  0  0  0  0  0  0  0  0
  139.6600   76.0890  221.6050 C   0  0  0  0  0  0  0  0  0  0  0  0
  139.1610   76.3580  222.7220 O   0  0  0  0  0  0  0  0  0  0  0  0
  140.3390   77.1260  220.9170 N   0  0  0  0  0  0  0  0  0  0  0  0
  141.5070   76.9440  220.0760 C   0  0  0  0  0  0  0  0  0  0  0  0
  141.4420   77.9970  219.0140 C   0  0  2  0  0  0  0  0  0  0  0  0
  142.5980   78.7470  218.8920 O   0  0  0  0  0  0  0  0  0  0  0  0
  140.2280   78.8250  219.3950 C   0  0  0  0  0  0  0  0  0  0  0  0
  140.0600   78.5520  220.8750 C   0  0  2  0  0  0  0  0  0  0  0  0
  141.1200   79.2410  221.6940 C   0  0  0  0  0  0  0  0  0  0  0  0
  141.1630   78.6020  223.0530 C   0  0  0  0  0  0  0  0  0  0  0  0
  142.1790   79.4020  223.8720 C   0  0  0  0  0  0  0  0  0  0  0  0
  142.9380   80.2460  223.0590 O   0  0  0  0  0  0  0  0  0  0  0  0
  142.1970   81.2630  222.4910 C   0  0  0  0  0  0  0  0  0  0  0  0
  140.9060   80.7050  221.8840 C   0  0  0  0  0  0  0  0  0  0  0  0
  139.8710   71.4500  223.0740 C   0  0  0  0  0  0  0  0  0  0  0  0
  139.4090   70.1520  222.8710 C   0  0  0  0  0  0  0  0  0  0  0  0
  139.4880   69.2540  223.9270 C   0  0  0  0  0  0  0  0  0  0  0  0
  140.0110   69.6370  225.1520 C   0  0  0  0  0  0  0  0  0  0  0  0
  140.1010   68.7620  226.2240 C   0  0  0  0  0  0  0  0  0  0  0  0
  140.6330   69.2140  227.4100 C   0  0  0  0  0  0  0  0  0  0  0  0
  140.7800   68.1680  228.8090 Cl  0  0  0  0  0  0  0  0  0  0  0  0
  141.0740   70.5140  227.5520 C   0  0  0  0  0  0  0  0  0  0  0  0
  140.9910   71.3970  226.4950 C   0  0  0  0  0  0  0  0  0  0  0  0
  140.4620   70.9510  225.3110 C   0  0  0  0  0  0  0  0  0  0  0  0
  140.3760   71.8030  224.2730 N   0  0  0  0  0  0  0  0  0  0  0  0
  139.5560   74.1110  223.1800 H   0  0  0  0  0  0  0  0  0  0  0  0
  140.3267   74.5341  220.3408 H   0  0  0  0  0  0  0  0  0  0  0  0
  138.5525   74.6225  220.5564 H   0  0  0  0  0  0  0  0  0  0  0  0
  142.4245   77.0622  220.6711 H   0  0  0  0  0  0  0  0  0  0  0  0
  141.5225   75.9370  219.6337 H   0  0  0  0  0  0  0  0  0  0  0  0
  141.3507   77.5552  218.0108 H   0  0  0  0  0  0  0  0  0  0  0  0
  143.3810   78.2820  219.3110 H   0  0  0  0  0  0  0  0  0  0  0  0
  140.4087   79.8944  219.2111 H   0  0  0  0  0  0  0  0  0  0  0  0
  139.3338   78.5666  218.8088 H   0  0  0  0  0  0  0  0  0  0  0  0
  139.0870   78.8839  221.2663 H   0  0  0  0  0  0  0  0  0  0  0  0
  142.0597   79.1277  221.1335 H   0  0  0  0  0  0  0  0  0  0  0  0
  140.1713   78.6476  223.5268 H   0  0  0  0  0  0  0  0  0  0  0  0
  141.4485   77.5417  222.9874 H   0  0  0  0  0  0  0  0  0  0  0  0
  141.6411   80.0094  224.6148 H   0  0  0  0  0  0  0  0  0  0  0  0
  142.8599   78.6933  224.3661 H   0  0  0  0  0  0  0  0  0  0  0  0
  141.9440   82.0032  223.2644 H   0  0  0  0  0  0  0  0  0  0  0  0
  142.7907   81.7370  221.6955 H   0  0  0  0  0  0  0  0  0  0  0  0
  140.0603   80.8793  222.5655 H   0  0  0  0  0  0  0  0  0  0  0  0
  140.6722   81.1981  220.9289 H   0  0  0  0  0  0  0  0  0  0  0  0
  138.9925   69.8463  221.8999 H   0  0  0  0  0  0  0  0  0  0  0  0
  139.1301   68.2230  223.7893 H   0  0  0  0  0  0  0  0  0  0  0  0
  139.7527   67.7230  226.1279 H   0  0  0  0  0  0  0  0  0  0  0  0
  141.4937   70.8478  228.5124 H   0  0  0  0  0  0  0  0  0  0  0  0
  141.3410   72.4346  226.5996 H   0  0  0  0  0  0  0  0  0  0  0  0
  1  2  2  0
  2  3  1  0
  3  4  1  0
  4  5  1  0
  5  6  2  0
  5  7  1  0
  7  8  1  0
  8  9  1  0
  9 10  1  0
  9 11  1  0
 11 12  1  0
 12 13  1  0
 13 14  1  0
 14 15  1  0
 15 16  1  0
 16 17  1  0
 17 18  1  0
  2 19  1  0
 19 20  2  0
 20 21  1  0
 21 22  2  0
 22 23  1  0
 23 24  2  0
 24 25  1  0
 24 26  1  0
 26 27  2  0
 27 28  1  0
 28 29  2  0
 12  7  1  0
 18 13  1  0
 29 19  1  0
 28 22  1  0
  3 30  1  0
  4 31  1  0
  4 32  1  0
  8 33  1  0
  8 34  1  0
  9 35  1  6
 10 36  1  0
 11 37  1  0
 11 38  1  0
 12 39  1  1
 13 40  1  0
 14 41  1  0
 14 42  1  0
 15 43  1  0
 15 44  1  0
 17 45  1  0
 17 46  1  0
 18 47  1  0
 18 48  1  0
 20 49  1  0
 21 50  1  0
 23 51  1  0
 26 52  1  0
 27 53  1  0
M  END
>  <meeko>  (14) 
{"free_energy": -8.29, "intermolecular_energy": -10.08, "internal_energy": -1.76, "cluster_size": 16, "cluster_id": 1, "rank_in_cluster": 10}

$$$$

     RDKit          3D

 53 56  0  0  0  0  0  0  0  0999 V2000
  138.5140   72.8760  221.5420 O   0  0  0  0  0  0  0  0  0  0  0  0
  139.6360   72.6630  222.0980 C   0  0  0  0  0  0  0  0  0  0  0  0
  140.7420   73.4210  221.6410 N   0  0  0  0  0  0  0  0  0  0  0  0
  140.6060   74.4130  220.5700 C   0  0  0  0  0  0  0  0  0  0  0  0
  141.8540   75.1840  220.4840 C   0  0  0  0  0  0  0  0  0  0  0  0
  142.9250   74.6610  220.8720 O   0  0  0  0  0  0  0  0  0  0  0  0
  141.9100   76.5070  219.9780 N   0  0  0  0  0  0  0  0  0  0  0  0
  142.9540   77.0270  219.1160 C   0  0  0  0  0  0  0  0  0  0  0  0
  142.3180   78.0650  218.2450 C   0  0  2  0  0  0  0  0  0  0  0  0
  142.9740   79.2830  218.2480 O   0  0  0  0  0  0  0  0  0  0  0  0
  140.8940   78.1520  218.7640 C   0  0  0  0  0  0  0  0  0  0  0  0
  140.9940   77.6180  220.1760 C   0  0  2  0  0  0  0  0  0  0  0  0
  141.6720   78.6000  221.0970 C   0  0  0  0  0  0  0  0  0  0  0  0
  141.3990   78.1880  222.5170 C   0  0  0  0  0  0  0  0  0  0  0  0
  142.0210   79.2700  223.4030 C   0  0  0  0  0  0  0  0  0  0  0  0
  142.8670   80.1060  222.6720 O   0  0  0  0  0  0  0  0  0  0  0  0
  142.1980   80.8770  221.7440 C   0  0  0  0  0  0  0  0  0  0  0  0
  141.2230   80.0140  220.9370 C   0  0  0  0  0  0  0  0  0  0  0  0
  139.7940   71.6760  223.1700 C   0  0  0  0  0  0  0  0  0  0  0  0
  139.4010   70.3670  222.9040 C   0  0  0  0  0  0  0  0  0  0  0  0
  139.5460   69.4210  223.9100 C   0  0  0  0  0  0  0  0  0  0  0  0
  140.0670   69.7690  225.1470 C   0  0  0  0  0  0  0  0  0  0  0  0
  140.2210   68.8460  226.1700 C   0  0  0  0  0  0  0  0  0  0  0  0
  140.7460   69.2650  227.3720 C   0  0  0  0  0  0  0  0  0  0  0  0
  140.9720   68.1570  228.7110 Cl  0  0  0  0  0  0  0  0  0  0  0  0
  141.1170   70.5780  227.5760 C   0  0  0  0  0  0  0  0  0  0  0  0
  140.9700   71.5090  226.5680 C   0  0  0  0  0  0  0  0  0  0  0  0
  140.4470   71.0960  225.3690 C   0  0  0  0  0  0  0  0  0  0  0  0
  140.2990   71.9940  224.3790 N   0  0  0  0  0  0  0  0  0  0  0  0
  141.6830   73.2490  222.1000 H   0  0  0  0  0  0  0  0  0  0  0  0
  140.4190   73.9026  219.6137 H   0  0  0  0  0  0  0  0  0  0  0  0
  139.7628   75.0857  220.7856 H   0  0  0  0  0  0  0  0  0  0  0  0
  143.7544   77.4785  219.7205 H   0  0  0  0  0  0  0  0  0  0  0  0
  143.4027   76.2251  218.5113 H   0  0  0  0  0  0  0  0  0  0  0  0
  142.3627   77.7846  217.1823 H   0  0  0  0  0  0  0  0  0  0  0  0
  143.5700   79.3780  217.4470 H   0  0  0  0  0  0  0  0  0  0  0  0
  140.5388   79.1931  218.7625 H   0  0  0  0  0  0  0  0  0  0  0  0
  140.1794   77.5896  218.1450 H   0  0  0  0  0  0  0  0  0  0  0  0
  140.0143   77.3860  220.6191 H   0  0  0  0  0  0  0  0  0  0  0  0
  142.7407   78.5746  220.8377 H   0  0  0  0  0  0  0  0  0  0  0  0
  140.3152   78.1264  222.6945 H   0  0  0  0  0  0  0  0  0  0  0  0
  141.8245   77.1975  222.7357 H   0  0  0  0  0  0  0  0  0  0  0  0
  141.2164   79.8750  223.8464 H   0  0  0  0  0  0  0  0  0  0  0  0
  142.6158   78.7757  224.1852 H   0  0  0  0  0  0  0  0  0  0  0  0
  141.6371   81.6666  222.2654 H   0  0  0  0  0  0  0  0  0  0  0  0
  142.9310   81.3251  221.0570 H   0  0  0  0  0  0  0  0  0  0  0  0
  140.2004   80.1336  221.3242 H   0  0  0  0  0  0  0  0  0  0  0  0
  141.2147   80.3100  219.8776 H   0  0  0  0  0  0  0  0  0  0  0  0
  138.9868   70.0898  221.9234 H   0  0  0  0  0  0  0  0  0  0  0  0
  139.2431   68.3802  223.7229 H   0  0  0  0  0  0  0  0  0  0  0  0
  139.9284   67.7958  226.0238 H   0  0  0  0  0  0  0  0  0  0  0  0
  141.5322   70.8845  228.5474 H   0  0  0  0  0  0  0  0  0  0  0  0
  141.2652   72.5574  226.7223 H   0  0  0  0  0  0  0  0  0  0  0  0
  1  2  2  0
  2  3  1  0
  3  4  1  0
  4  5  1  0
  5  6  2  0
  5  7  1  0
  7  8  1  0
  8  9  1  0
  9 10  1  0
  9 11  1  0
 11 12  1  0
 12 13  1  0
 13 14  1  0
 14 15  1  0
 15 16  1  0
 16 17  1  0
 17 18  1  0
  2 19  1  0
 19 20  2  0
 20 21  1  0
 21 22  2  0
 22 23  1  0
 23 24  2  0
 24 25  1  0
 24 26  1  0
 26 27  2  0
 27 28  1  0
 28 29  2  0
 12  7  1  0
 18 13  1  0
 29 19  1  0
 28 22  1  0
  3 30  1  0
  4 31  1  0
  4 32  1  0
  8 33  1  0
  8 34  1  0
  9 35  1  6
 10 36  1  0
 11 37  1  0
 11 38  1  0
 12 39  1  1
 13 40  1  0
 14 41  1  0
 14 42  1  0
 15 43  1  0
 15 44  1  0
 17 45  1  0
 17 46  1  0
 18 47  1  0
 18 48  1  0
 20 49  1  0
 21 50  1  0
 23 51  1  0
 26 52  1  0
 27 53  1  0
M  END
>  <meeko>  (15) 
{"free_energy": -8.1, "intermolecular_energy": -9.89, "internal_energy": -1.79, "cluster_size": 16, "cluster_id": 1, "rank_in_cluster": 14}

$$$$

     RDKit          3D

 53 56  0  0  0  0  0  0  0  0999 V2000
  138.5120   72.5890  221.3230 O   0  0  0  0  0  0  0  0  0  0  0  0
  139.5420   72.5630  222.0650 C   0  0  0  0  0  0  0  0  0  0  0  0
  140.5600   73.5110  221.7980 N   0  0  0  0  0  0  0  0  0  0  0  0
  140.4380   74.4870  220.7090 C   0  0  0  0  0  0  0  0  0  0  0  0
  141.7160   75.1980  220.5720 C   0  0  0  0  0  0  0  0  0  0  0  0
  142.7760   74.6240  220.9170 O   0  0  0  0  0  0  0  0  0  0  0  0
  141.8140   76.5170  220.0620 N   0  0  0  0  0  0  0  0  0  0  0  0
  142.8810   77.0050  219.2090 C   0  0  0  0  0  0  0  0  0  0  0  0
  142.2830   78.0570  218.3280 C   0  0  2  0  0  0  0  0  0  0  0  0
  142.9720   79.2560  218.3340 O   0  0  0  0  0  0  0  0  0  0  0  0
  140.8560   78.1850  218.8320 C   0  0  0  0  0  0  0  0  0  0  0  0
  140.9280   77.6530  220.2470 C   0  0  2  0  0  0  0  0  0  0  0  0
  141.6230   78.6190  221.1710 C   0  0  0  0  0  0  0  0  0  0  0  0
  141.3300   78.2160  222.5890 C   0  0  0  0  0  0  0  0  0  0  0  0
  141.9720   79.2840  223.4790 C   0  0  0  0  0  0  0  0  0  0  0  0
  142.8440   80.0980  222.7530 O   0  0  0  0  0  0  0  0  0  0  0  0
  142.2000   80.8840  221.8190 C   0  0  0  0  0  0  0  0  0  0  0  0
  141.2100   80.0440  221.0060 C   0  0  0  0  0  0  0  0  0  0  0  0
  139.6850   71.5980  223.1580 C   0  0  0  0  0  0  0  0  0  0  0  0
  139.2280   70.3010  222.9360 C   0  0  0  0  0  0  0  0  0  0  0  0
  139.3570   69.3750  223.9630 C   0  0  0  0  0  0  0  0  0  0  0  0
  139.9240   69.7300  225.1770 C   0  0  0  0  0  0  0  0  0  0  0  0
  140.0650   68.8270  226.2200 C   0  0  0  0  0  0  0  0  0  0  0  0
  140.6390   69.2510  227.3960 C   0  0  0  0  0  0  0  0  0  0  0  0
  140.8510   68.1690  228.7580 Cl  0  0  0  0  0  0  0  0  0  0  0  0
  141.0730   70.5510  227.5570 C   0  0  0  0  0  0  0  0  0  0  0  0
  140.9400   71.4630  226.5290 C   0  0  0  0  0  0  0  0  0  0  0  0
  140.3690   71.0440  225.3550 C   0  0  0  0  0  0  0  0  0  0  0  0
  140.2340   71.9230  224.3450 N   0  0  0  0  0  0  0  0  0  0  0  0
  141.4250   73.4970  222.4130 H   0  0  0  0  0  0  0  0  0  0  0  0
  140.2010   73.9663  219.7695 H   0  0  0  0  0  0  0  0  0  0  0  0
  139.6324   75.2016  220.9332 H   0  0  0  0  0  0  0  0  0  0  0  0
  143.6873   77.4364  219.8203 H   0  0  0  0  0  0  0  0  0  0  0  0
  143.3135   76.1888  218.6117 H   0  0  0  0  0  0  0  0  0  0  0  0
  142.3310   77.7718  217.2667 H   0  0  0  0  0  0  0  0  0  0  0  0
  143.4750   79.3920  217.4760 H   0  0  0  0  0  0  0  0  0  0  0  0
  140.5295   79.2354  218.8237 H   0  0  0  0  0  0  0  0  0  0  0  0
  140.1322   77.6407  218.2076 H   0  0  0  0  0  0  0  0  0  0  0  0
  139.9381   77.4494  220.6812 H   0  0  0  0  0  0  0  0  0  0  0  0
  142.6925   78.5671  220.9192 H   0  0  0  0  0  0  0  0  0  0  0  0
  140.2437   78.1811  222.7586 H   0  0  0  0  0  0  0  0  0  0  0  0
  141.7299   77.2158  222.8118 H   0  0  0  0  0  0  0  0  0  0  0  0
  141.1793   79.9093  223.9156 H   0  0  0  0  0  0  0  0  0  0  0  0
  142.5484   78.7764  224.2665 H   0  0  0  0  0  0  0  0  0  0  0  0
  141.6548   81.6877  222.3356 H   0  0  0  0  0  0  0  0  0  0  0  0
  142.9485   81.3132  221.1367 H   0  0  0  0  0  0  0  0  0  0  0  0
  140.1879   80.1892  221.3856 H   0  0  0  0  0  0  0  0  0  0  0  0
  141.2168   80.3386  219.9462 H   0  0  0  0  0  0  0  0  0  0  0  0
  138.7772   70.0179  221.9734 H   0  0  0  0  0  0  0  0  0  0  0  0
  139.0039   68.3444  223.8107 H   0  0  0  0  0  0  0  0  0  0  0  0
  139.7230   67.7875  226.1086 H   0  0  0  0  0  0  0  0  0  0  0  0
  141.5272   70.8623  228.5093 H   0  0  0  0  0  0  0  0  0  0  0  0
  141.2839   72.5009  226.6490 H   0  0  0  0  0  0  0  0  0  0  0  0
  1  2  2  0
  2  3  1  0
  3  4  1  0
  4  5  1  0
  5  6  2  0
  5  7  1  0
  7  8  1  0
  8  9  1  0
  9 10  1  0
  9 11  1  0
 11 12  1  0
 12 13  1  0
 13 14  1  0
 14 15  1  0
 15 16  1  0
 16 17  1  0
 17 18  1  0
  2 19  1  0
 19 20  2  0
 20 21  1  0
 21 22  2  0
 22 23  1  0
 23 24  2  0
 24 25  1  0
 24 26  1  0
 26 27  2  0
 27 28  1  0
 28 29  2  0
 12  7  1  0
 18 13  1  0
 29 19  1  0
 28 22  1  0
  3 30  1  0
  4 31  1  0
  4 32  1  0
  8 33  1  0
  8 34  1  0
  9 35  1  6
 10 36  1  0
 11 37  1  0
 11 38  1  0
 12 39  1  1
 13 40  1  0
 14 41  1  0
 14 42  1  0
 15 43  1  0
 15 44  1  0
 17 45  1  0
 17 46  1  0
 18 47  1  0
 18 48  1  0
 20 49  1  0
 21 50  1  0
 23 51  1  0
 26 52  1  0
 27 53  1  0
M  END
>  <meeko>  (16) 
{"free_energy": -8.08, "intermolecular_energy": -9.87, "internal_energy": -1.76, "cluster_size": 16, "cluster_id": 1, "rank_in_cluster": 15}

$$$$

     RDKit          3D

 53 56  0  0  0  0  0  0  0  0999 V2000
  140.1330   74.0360  222.3300 O   0  0  0  0  0  0  0  0  0  0  0  0
  139.8920   72.8070  222.1190 C   0  0  0  0  0  0  0  0  0  0  0  0
  139.5450   72.4300  220.7990 N   0  0  0  0  0  0  0  0  0  0  0  0
  139.4640   73.4130  219.7130 C   0  0  0  0  0  0  0  0  0  0  0  0
  140.6010   73.2050  218.8070 C   0  0  0  0  0  0  0  0  0  0  0  0
  140.6040   72.2090  218.0470 O   0  0  0  0  0  0  0  0  0  0  0  0
  141.7110   74.0860  218.7470 N   0  0  0  0  0  0  0  0  0  0  0  0
  142.2000   74.7300  217.5430 C   0  0  0  0  0  0  0  0  0  0  0  0
  142.7840   76.0430  217.9640 C   0  0  2  0  0  0  0  0  0  0  0  0
  144.0730   76.2590  217.5100 O   0  0  0  0  0  0  0  0  0  0  0  0
  142.6790   76.0200  219.4780 C   0  0  0  0  0  0  0  0  0  0  0  0
  142.5910   74.5450  219.8080 C   0  0  2  0  0  0  0  0  0  0  0  0
  143.9160   73.8530  219.6230 C   0  0  0  0  0  0  0  0  0  0  0  0
  143.6740   72.3710  219.5530 C   0  0  0  0  0  0  0  0  0  0  0  0
  145.0540   71.7140  219.4680 C   0  0  0  0  0  0  0  0  0  0  0  0
  146.0500   72.6530  219.1910 O   0  0  0  0  0  0  0  0  0  0  0  0
  146.2480   73.5530  220.2190 C   0  0  0  0  0  0  0  0  0  0  0  0
  144.9060   74.1030  220.7120 C   0  0  0  0  0  0  0  0  0  0  0  0
  139.9670   71.8090  223.1890 C   0  0  0  0  0  0  0  0  0  0  0  0
  139.5150   70.5230  222.9040 C   0  0  0  0  0  0  0  0  0  0  0  0
  139.5800   69.5670  223.9080 C   0  0  0  0  0  0  0  0  0  0  0  0
  140.0810   69.8810  225.1610 C   0  0  0  0  0  0  0  0  0  0  0  0
  140.1580   68.9460  226.1830 C   0  0  0  0  0  0  0  0  0  0  0  0
  140.6680   69.3310  227.4020 C   0  0  0  0  0  0  0  0  0  0  0  0
  140.7970   68.2070  228.7400 Cl  0  0  0  0  0  0  0  0  0  0  0  0
  141.1010   70.6220  227.6250 C   0  0  0  0  0  0  0  0  0  0  0  0
  141.0320   71.5640  226.6180 C   0  0  0  0  0  0  0  0  0  0  0  0
  140.5240   71.1850  225.4020 C   0  0  0  0  0  0  0  0  0  0  0  0
  140.4520   72.0940  224.4140 N   0  0  0  0  0  0  0  0  0  0  0  0
  139.3420   71.4050  220.6130 H   0  0  0  0  0  0  0  0  0  0  0  0
  138.5216   73.2793  219.1617 H   0  0  0  0  0  0  0  0  0  0  0  0
  139.4939   74.4322  220.1257 H   0  0  0  0  0  0  0  0  0  0  0  0
  142.9715   74.1073  217.0666 H   0  0  0  0  0  0  0  0  0  0  0  0
  141.3890   74.8734  216.8138 H   0  0  0  0  0  0  0  0  0  0  0  0
  142.2408   76.8890  217.5177 H   0  0  0  0  0  0  0  0  0  0  0  0
  144.7110   75.5840  217.8900 H   0  0  0  0  0  0  0  0  0  0  0  0
  143.5685   76.4732  219.9400 H   0  0  0  0  0  0  0  0  0  0  0  0
  141.8195   76.5937  219.8550 H   0  0  0  0  0  0  0  0  0  0  0  0
  142.2702   74.3529  220.8425 H   0  0  0  0  0  0  0  0  0  0  0  0
  144.3488   74.2645  218.6992 H   0  0  0  0  0  0  0  0  0  0  0  0
  143.1440   72.0286  220.4540 H   0  0  0  0  0  0  0  0  0  0  0  0
  143.0518   72.1080  218.6848 H   0  0  0  0  0  0  0  0  0  0  0  0
  145.2783   71.2274  220.4287 H   0  0  0  0  0  0  0  0  0  0  0  0
  145.0366   70.9772  218.6514 H   0  0  0  0  0  0  0  0  0  0  0  0
  146.7599   73.0467  221.0506 H   0  0  0  0  0  0  0  0  0  0  0  0
  146.8621   74.3876  219.8497 H   0  0  0  0  0  0  0  0  0  0  0  0
  144.5979   73.5837  221.6315 H   0  0  0  0  0  0  0  0  0  0  0  0
  144.9782   75.1759  220.9435 H   0  0  0  0  0  0  0  0  0  0  0  0
  139.1171   70.2716  221.9098 H   0  0  0  0  0  0  0  0  0  0  0  0
  139.2284   68.5445  223.7059 H   0  0  0  0  0  0  0  0  0  0  0  0
  139.8167   67.9128  226.0216 H   0  0  0  0  0  0  0  0  0  0  0  0
  141.5031   70.9020  228.6098 H   0  0  0  0  0  0  0  0  0  0  0  0
  141.3766   72.5948  226.7872 H   0  0  0  0  0  0  0  0  0  0  0  0
  1  2  2  0
  2  3  1  0
  3  4  1  0
  4  5  1  0
  5  6  2  0
  5  7  1  0
  7  8  1  0
  8  9  1  0
  9 10  1  0
  9 11  1  0
 11 12  1  0
 12 13  1  0
 13 14  1  0
 14 15  1  0
 15 16  1  0
 16 17  1  0
 17 18  1  0
  2 19  1  0
 19 20  2  0
 20 21  1  0
 21 22  2  0
 22 23  1  0
 23 24  2  0
 24 25  1  0
 24 26  1  0
 26 27  2  0
 27 28  1  0
 28 29  2  0
 12  7  1  0
 18 13  1  0
 29 19  1  0
 28 22  1  0
  3 30  1  0
  4 31  1  0
  4 32  1  0
  8 33  1  0
  8 34  1  0
  9 35  1  6
 10 36  1  0
 11 37  1  0
 11 38  1  0
 12 39  1  1
 13 40  1  0
 14 41  1  0
 14 42  1  0
 15 43  1  0
 15 44  1  0
 17 45  1  0
 17 46  1  0
 18 47  1  0
 18 48  1  0
 20 49  1  0
 21 50  1  0
 23 51  1  0
 26 52  1  0
 27 53  1  0
M  END
>  <meeko>  (17) 
{"free_energy": -8.28, "intermolecular_energy": -10.07, "internal_energy": -1.56, "cluster_size": 4, "cluster_id": 2, "rank_in_cluster": 4}

$$$$

     RDKit          3D

 53 56  0  0  0  0  0  0  0  0999 V2000
  138.9400   71.8930  220.7180 O   0  0  0  0  0  0  0  0  0  0  0  0
  139.1150   72.3320  221.8970 C   0  0  0  0  0  0  0  0  0  0  0  0
  139.0370   73.7340  222.0860 N   0  0  0  0  0  0  0  0  0  0  0  0
  138.7680   74.6480  220.9710 C   0  0  0  0  0  0  0  0  0  0  0  0
  139.2410   75.9900  221.3410 C   0  0  0  0  0  0  0  0  0  0  0  0
  138.5260   76.7100  222.0770 O   0  0  0  0  0  0  0  0  0  0  0  0
  140.4820   76.5170  220.9030 N   0  0  0  0  0  0  0  0  0  0  0  0
  141.7260   75.7740  220.8330 C   0  0  0  0  0  0  0  0  0  0  0  0
  142.5120   76.3560  219.7000 C   0  0  2  0  0  0  0  0  0  0  0  0
  143.8040   76.7170  220.0370 O   0  0  0  0  0  0  0  0  0  0  0  0
  141.6660   77.5280  219.2340 C   0  0  0  0  0  0  0  0  0  0  0  0
  140.8120   77.8540  220.4400 C   0  0  2  0  0  0  0  0  0  0  0  0
  141.6140   78.5220  221.5270 C   0  0  0  0  0  0  0  0  0  0  0  0
  140.9540   78.2380  222.8480 C   0  0  0  0  0  0  0  0  0  0  0  0
  141.7460   79.0190  223.8990 C   0  0  0  0  0  0  0  0  0  0  0  0
  142.9560   79.4880  223.3830 O   0  0  0  0  0  0  0  0  0  0  0  0
  142.7920   80.4500  222.4070 C   0  0  0  0  0  0  0  0  0  0  0  0
  141.7400   80.0020  221.3880 C   0  0  0  0  0  0  0  0  0  0  0  0
  139.3850   71.4370  223.0250 C   0  0  0  0  0  0  0  0  0  0  0  0
  139.0230   70.1000  222.8870 C   0  0  0  0  0  0  0  0  0  0  0  0
  139.2730   69.2400  223.9480 C   0  0  0  0  0  0  0  0  0  0  0  0
  139.8680   69.6980  225.1140 C   0  0  0  0  0  0  0  0  0  0  0  0
  140.1290   68.8620  226.1890 C   0  0  0  0  0  0  0  0  0  0  0  0
  140.7220   69.3880  227.3140 C   0  0  0  0  0  0  0  0  0  0  0  0
  141.0830   68.3950  228.7120 Cl  0  0  0  0  0  0  0  0  0  0  0  0
  141.0580   70.7240  227.3910 C   0  0  0  0  0  0  0  0  0  0  0  0
  140.8050   71.5700  226.3300 C   0  0  0  0  0  0  0  0  0  0  0  0
  140.2140   71.0490  225.2070 C   0  0  0  0  0  0  0  0  0  0  0  0
  139.9620   71.8630  224.1660 N   0  0  0  0  0  0  0  0  0  0  0  0
  139.1820   74.1100  223.0680 H   0  0  0  0  0  0  0  0  0  0  0  0
  139.2993   74.3025  220.0719 H   0  0  0  0  0  0  0  0  0  0  0  0
  137.6891   74.6748  220.7585 H   0  0  0  0  0  0  0  0  0  0  0  0
  142.2840   75.8796  221.7750 H   0  0  0  0  0  0  0  0  0  0  0  0
  141.5379   74.7019  220.6742 H   0  0  0  0  0  0  0  0  0  0  0  0
  142.6820   75.6167  218.9034 H   0  0  0  0  0  0  0  0  0  0  0  0
  143.8130   77.5030  220.6600 H   0  0  0  0  0  0  0  0  0  0  0  0
  142.2993   78.3842  218.9585 H   0  0  0  0  0  0  0  0  0  0  0  0
  141.0700   77.2952  218.3393 H   0  0  0  0  0  0  0  0  0  0  0  0
  139.9714   78.5235  220.2050 H   0  0  0  0  0  0  0  0  0  0  0  0
  142.6309   78.1092  221.4536 H   0  0  0  0  0  0  0  0  0  0  0  0
  139.9071   78.5753  222.8313 H   0  0  0  0  0  0  0  0  0  0  0  0
  140.9489   77.1606  223.0696 H   0  0  0  0  0  0  0  0  0  0  0  0
  141.1446   79.8763  224.2357 H   0  0  0  0  0  0  0  0  0  0  0  0
  141.9672   78.3427  224.7378 H   0  0  0  0  0  0  0  0  0  0  0  0
  142.4655   81.3900  222.8757 H   0  0  0  0  0  0  0  0  0  0  0  0
  143.7505   80.5995  221.8884 H   0  0  0  0  0  0  0  0  0  0  0  0
  140.7756   80.4865  221.6004 H   0  0  0  0  0  0  0  0  0  0  0  0
  142.0348   80.2804  220.3655 H   0  0  0  0  0  0  0  0  0  0  0  0
  138.5517   69.7348  221.9626 H   0  0  0  0  0  0  0  0  0  0  0  0
  138.9949   68.1792  223.8624 H   0  0  0  0  0  0  0  0  0  0  0  0
  139.8661   67.7948  226.1433 H   0  0  0  0  0  0  0  0  0  0  0  0
  141.5303   71.1173  228.3033 H   0  0  0  0  0  0  0  0  0  0  0  0
  141.0708   72.6360  226.3837 H   0  0  0  0  0  0  0  0  0  0  0  0
  1  2  2  0
  2  3  1  0
  3  4  1  0
  4  5  1  0
  5  6  2  0
  5  7  1  0
  7  8  1  0
  8  9  1  0
  9 10  1  0
  9 11  1  0
 11 12  1  0
 12 13  1  0
 13 14  1  0
 14 15  1  0
 15 16  1  0
 16 17  1  0
 17 18  1  0
  2 19  1  0
 19 20  2  0
 20 21  1  0
 21 22  2  0
 22 23  1  0
 23 24  2  0
 24 25  1  0
 24 26  1  0
 26 27  2  0
 27 28  1  0
 28 29  2  0
 12  7  1  0
 18 13  1  0
 29 19  1  0
 28 22  1  0
  3 30  1  0
  4 31  1  0
  4 32  1  0
  8 33  1  0
  8 34  1  0
  9 35  1  6
 10 36  1  0
 11 37  1  0
 11 38  1  0
 12 39  1  6
 13 40  1  0
 14 41  1  0
 14 42  1  0
 15 43  1  0
 15 44  1  0
 17 45  1  0
 17 46  1  0
 18 47  1  0
 18 48  1  0
 20 49  1  0
 21 50  1  0
 23 51  1  0
 26 52  1  0
 27 53  1  0
M  END
>  <meeko>  (18) 
{"free_energy": -8.58, "intermolecular_energy": -10.37, "internal_energy": -1.46, "cluster_size": 16, "cluster_id": 1, "rank_in_cluster": 6}

$$$$

     RDKit          3D

 53 56  0  0  0  0  0  0  0  0999 V2000
  139.9970   72.0060  220.7700 O   0  0  0  0  0  0  0  0  0  0  0  0
  139.8500   72.3870  221.9730 C   0  0  0  0  0  0  0  0  0  0  0  0
  139.6090   73.7650  222.1940 N   0  0  0  0  0  0  0  0  0  0  0  0
  139.5310   74.7220  221.0850 C   0  0  0  0  0  0  0  0  0  0  0  0
  139.6810   76.0790  221.6260 C   0  0  0  0  0  0  0  0  0  0  0  0
  139.1980   76.3470  222.7510 O   0  0  0  0  0  0  0  0  0  0  0  0
  140.3530   77.1160  220.9310 N   0  0  0  0  0  0  0  0  0  0  0  0
  141.5200   76.9350  220.0880 C   0  0  0  0  0  0  0  0  0  0  0  0
  141.4480   77.9830  219.0210 C   0  0  2  0  0  0  0  0  0  0  0  0
  142.6000   78.7380  218.8930 O   0  0  0  0  0  0  0  0  0  0  0  0
  140.2320   78.8090  219.4030 C   0  0  0  0  0  0  0  0  0  0  0  0
  140.0690   78.5410  220.8840 C   0  0  2  0  0  0  0  0  0  0  0  0
  141.1290   79.2380  221.6970 C   0  0  0  0  0  0  0  0  0  0  0  0
  141.1780   78.6040  223.0590 C   0  0  0  0  0  0  0  0  0  0  0  0
  142.1930   79.4120  223.8710 C   0  0  0  0  0  0  0  0  0  0  0  0
  142.9460   80.2560  223.0530 O   0  0  0  0  0  0  0  0  0  0  0  0
  142.1990   81.2670  222.4830 C   0  0  0  0  0  0  0  0  0  0  0  0
  140.9080   80.7020  221.8820 C   0  0  0  0  0  0  0  0  0  0  0  0
  139.9250   71.4490  223.0960 C   0  0  0  0  0  0  0  0  0  0  0  0
  139.4630   70.1520  222.8840 C   0  0  0  0  0  0  0  0  0  0  0  0
  139.5270   69.2520  223.9400 C   0  0  0  0  0  0  0  0  0  0  0  0
  140.0370   69.6320  225.1720 C   0  0  0  0  0  0  0  0  0  0  0  0
  140.1130   68.7550  226.2430 C   0  0  0  0  0  0  0  0  0  0  0  0
  140.6310   69.2040  227.4370 C   0  0  0  0  0  0  0  0  0  0  0  0
  140.7590   68.1550  228.8350 Cl  0  0  0  0  0  0  0  0  0  0  0  0
  141.0730   70.5030  227.5860 C   0  0  0  0  0  0  0  0  0  0  0  0
  141.0040   71.3880  226.5290 C   0  0  0  0  0  0  0  0  0  0  0  0
  140.4880   70.9450  225.3380 C   0  0  0  0  0  0  0  0  0  0  0  0
  140.4170   71.7990  224.3010 N   0  0  0  0  0  0  0  0  0  0  0  0
  139.4860   74.0920  223.1960 H   0  0  0  0  0  0  0  0  0  0  0  0
  140.3362   74.5196  220.3635 H   0  0  0  0  0  0  0  0  0  0  0  0
  138.5619   74.6263  220.5734 H   0  0  0  0  0  0  0  0  0  0  0  0
  142.4384   77.0599  220.6804 H   0  0  0  0  0  0  0  0  0  0  0  0
  141.5388   75.9260  219.6503 H   0  0  0  0  0  0  0  0  0  0  0  0
  141.3558   77.5356  218.0203 H   0  0  0  0  0  0  0  0  0  0  0  0
  143.3900   78.2680  219.2930 H   0  0  0  0  0  0  0  0  0  0  0  0
  140.4089   79.8782  219.2147 H   0  0  0  0  0  0  0  0  0  0  0  0
  139.3369   78.5457  218.8204 H   0  0  0  0  0  0  0  0  0  0  0  0
  139.0958   78.8703  221.2770 H   0  0  0  0  0  0  0  0  0  0  0  0
  142.0679   79.1270  221.1347 H   0  0  0  0  0  0  0  0  0  0  0  0
  140.1875   78.6474  223.5355 H   0  0  0  0  0  0  0  0  0  0  0  0
  141.4670   77.5444  222.9973 H   0  0  0  0  0  0  0  0  0  0  0  0
  141.6546   80.0200  224.6129 H   0  0  0  0  0  0  0  0  0  0  0  0
  142.8787   78.7081  224.3654 H   0  0  0  0  0  0  0  0  0  0  0  0
  141.9455   82.0094  223.2540 H   0  0  0  0  0  0  0  0  0  0  0  0
  142.7884   81.7394  221.6834 H   0  0  0  0  0  0  0  0  0  0  0  0
  140.0637   80.8750  222.5655 H   0  0  0  0  0  0  0  0  0  0  0  0
  140.6682   81.1909  220.9262 H   0  0  0  0  0  0  0  0  0  0  0  0
  139.0585   69.8489  221.9070 H   0  0  0  0  0  0  0  0  0  0  0  0
  139.1676   68.2223  223.7967 H   0  0  0  0  0  0  0  0  0  0  0  0
  139.7649   67.7166  226.1404 H   0  0  0  0  0  0  0  0  0  0  0  0
  141.4822   70.8346  228.5517 H   0  0  0  0  0  0  0  0  0  0  0  0
  141.3548   72.4247  226.6394 H   0  0  0  0  0  0  0  0  0  0  0  0
  1  2  2  0
  2  3  1  0
  3  4  1  0
  4  5  1  0
  5  6  2  0
  5  7  1  0
  7  8  1  0
  8  9  1  0
  9 10  1  0
  9 11  1  0
 11 12  1  0
 12 13  1  0
 13 14  1  0
 14 15  1  0
 15 16  1  0
 16 17  1  0
 17 18  1  0
  2 19  1  0
 19 20  2  0
 20 21  1  0
 21 22  2  0
 22 23  1  0
 23 24  2  0
 24 25  1  0
 24 26  1  0
 26 27  2  0
 27 28  1  0
 28 29  2  0
 12  7  1  0
 18 13  1  0
 29 19  1  0
 28 22  1  0
  3 30  1  0
  4 31  1  0
  4 32  1  0
  8 33  1  0
  8 34  1  0
  9 35  1  6
 10 36  1  0
 11 37  1  0
 11 38  1  0
 12 39  1  1
 13 40  1  0
 14 41  1  0
 14 42  1  0
 15 43  1  0
 15 44  1  0
 17 45  1  0
 17 46  1  0
 18 47  1  0
 18 48  1  0
 20 49  1  0
 21 50  1  0
 23 51  1  0
 26 52  1  0
 27 53  1  0
M  END
>  <meeko>  (19) 
{"free_energy": -8.3, "intermolecular_energy": -10.08, "internal_energy": -1.76, "cluster_size": 16, "cluster_id": 1, "rank_in_cluster": 9}

$$$$

     RDKit          3D

 53 56  0  0  0  0  0  0  0  0999 V2000
  140.0370   72.1430  220.8710 O   0  0  0  0  0  0  0  0  0  0  0  0
  139.8940   72.5040  222.0810 C   0  0  0  0  0  0  0  0  0  0  0  0
  139.6620   73.8800  222.3250 N   0  0  0  0  0  0  0  0  0  0  0  0
  139.5890   74.8560  221.2320 C   0  0  0  0  0  0  0  0  0  0  0  0
  140.9400   75.3710  220.9740 C   0  0  0  0  0  0  0  0  0  0  0  0
  141.9300   74.6390  221.2090 O   0  0  0  0  0  0  0  0  0  0  0  0
  141.1850   76.6710  220.4640 N   0  0  0  0  0  0  0  0  0  0  0  0
  142.2540   77.0200  219.5480 C   0  0  0  0  0  0  0  0  0  0  0  0
  141.7510   78.1550  218.7100 C   0  0  2  0  0  0  0  0  0  0  0  0
  142.5960   79.2490  218.6780 O   0  0  0  0  0  0  0  0  0  0  0  0
  140.3890   78.4690  219.3030 C   0  0  0  0  0  0  0  0  0  0  0  0
  140.4740   77.9150  220.7090 C   0  0  2  0  0  0  0  0  0  0  0  0
  141.3500   78.7660  221.5920 C   0  0  0  0  0  0  0  0  0  0  0  0
  141.1690   78.3190  223.0150 C   0  0  0  0  0  0  0  0  0  0  0  0
  141.9980   79.2770  223.8740 C   0  0  0  0  0  0  0  0  0  0  0  0
  142.8630   80.0460  223.0920 O   0  0  0  0  0  0  0  0  0  0  0  0
  142.2040   80.9330  222.2660 C   0  0  0  0  0  0  0  0  0  0  0  0
  141.0600   80.2290  221.5310 C   0  0  0  0  0  0  0  0  0  0  0  0
  139.9640   71.5470  223.1880 C   0  0  0  0  0  0  0  0  0  0  0  0
  139.5110   70.2520  222.9490 C   0  0  0  0  0  0  0  0  0  0  0  0
  139.5710   69.3340  223.9900 C   0  0  0  0  0  0  0  0  0  0  0  0
  140.0670   69.6950  225.2330 C   0  0  0  0  0  0  0  0  0  0  0  0
  140.1390   68.8000  226.2890 C   0  0  0  0  0  0  0  0  0  0  0  0
  140.6440   69.2300  227.4950 C   0  0  0  0  0  0  0  0  0  0  0  0
  140.7660   68.1580  228.8750 Cl  0  0  0  0  0  0  0  0  0  0  0  0
  141.0770   70.5280  227.6700 C   0  0  0  0  0  0  0  0  0  0  0  0
  141.0140   71.4320  226.6290 C   0  0  0  0  0  0  0  0  0  0  0  0
  140.5100   71.0070  225.4260 C   0  0  0  0  0  0  0  0  0  0  0  0
  140.4430   71.8790  224.4030 N   0  0  0  0  0  0  0  0  0  0  0  0
  139.5410   74.1910  223.3330 H   0  0  0  0  0  0  0  0  0  0  0  0
  139.1984   74.3696  220.3260 H   0  0  0  0  0  0  0  0  0  0  0  0
  138.9181   75.6823  221.5096 H   0  0  0  0  0  0  0  0  0  0  0  0
  143.1476   77.3304  220.1093 H   0  0  0  0  0  0  0  0  0  0  0  0
  142.5341   76.1602  218.9217 H   0  0  0  0  0  0  0  0  0  0  0  0
  141.6938   77.8794  217.6466 H   0  0  0  0  0  0  0  0  0  0  0  0
  143.5520   78.9770  218.8170 H   0  0  0  0  0  0  0  0  0  0  0  0
  140.2088   79.5540  219.3191 H   0  0  0  0  0  0  0  0  0  0  0  0
  139.5611   78.0352  218.7230 H   0  0  0  0  0  0  0  0  0  0  0  0
  139.4940   77.8426  221.2033 H   0  0  0  0  0  0  0  0  0  0  0  0
  142.3779   78.6307  221.2245 H   0  0  0  0  0  0  0  0  0  0  0  0
  140.1078   78.3734  223.2994 H   0  0  0  0  0  0  0  0  0  0  0  0
  141.4932   77.2768  223.1514 H   0  0  0  0  0  0  0  0  0  0  0  0
  141.3179   79.9475  224.4199 H   0  0  0  0  0  0  0  0  0  0  0  0
  142.6024   78.6798  224.5726 H   0  0  0  0  0  0  0  0  0  0  0  0
  141.7944   81.7555  222.8707 H   0  0  0  0  0  0  0  0  0  0  0  0
  142.9154   81.3265  221.5250 H   0  0  0  0  0  0  0  0  0  0  0  0
  140.1012   80.4467  222.0242 H   0  0  0  0  0  0  0  0  0  0  0  0
  140.9851   80.5754  220.4897 H   0  0  0  0  0  0  0  0  0  0  0  0
  139.1166   69.9640  221.9634 H   0  0  0  0  0  0  0  0  0  0  0  0
  139.2195   68.3048  223.8253 H   0  0  0  0  0  0  0  0  0  0  0  0
  139.7977   67.7617  226.1650 H   0  0  0  0  0  0  0  0  0  0  0  0
  141.4750   70.8445  228.6454 H   0  0  0  0  0  0  0  0  0  0  0  0
  141.3595   72.4680  226.7607 H   0  0  0  0  0  0  0  0  0  0  0  0
  1  2  2  0
  2  3  1  0
  3  4  1  0
  4  5  1  0
  5  6  2  0
  5  7  1  0
  7  8  1  0
  8  9  1  0
  9 10  1  0
  9 11  1  0
 11 12  1  0
 12 13  1  0
 13 14  1  0
 14 15  1  0
 15 16  1  0
 16 17  1  0
 17 18  1  0
  2 19  1  0
 19 20  2  0
 20 21  1  0
 21 22  2  0
 22 23  1  0
 23 24  2  0
 24 25  1  0
 24 26  1  0
 26 27  2  0
 27 28  1  0
 28 29  2  0
 12  7  1  0
 18 13  1  0
 29 19  1  0
 28 22  1  0
  3 30  1  0
  4 31  1  0
  4 32  1  0
  8 33  1  0
  8 34  1  0
  9 35  1  6
 10 36  1  0
 11 37  1  0
 11 38  1  0
 12 39  1  1
 13 40  1  0
 14 41  1  0
 14 42  1  0
 15 43  1  0
 15 44  1  0
 17 45  1  0
 17 46  1  0
 18 47  1  0
 18 48  1  0
 20 49  1  0
 21 50  1  0
 23 51  1  0
 26 52  1  0
 27 53  1  0
M  END
>  <meeko>  (20) 
{"free_energy": -8.27, "intermolecular_energy": -10.06, "internal_energy": -1.4, "cluster_size": 16, "cluster_id": 1, "rank_in_cluster": 12}

$$$$
