
     RDKit          3D

 46 49  0  0  0  0  0  0  0  0999 V2000
  137.3870   70.5040  221.7460 O   0  0  0  0  0  0  0  0  0  0  0  0
  138.0840   71.0770  222.6270 C   0  0  0  0  0  0  0  0  0  0  0  0
  138.2620   72.5020  222.4210 N   0  0  0  0  0  0  0  0  0  0  0  0
  137.6490   73.0720  221.2830 C   0  0  0  0  0  0  0  0  0  0  0  0
  137.3370   74.4980  221.2540 C   0  0  0  0  0  0  0  0  0  0  0  0
  136.7570   74.8800  220.1520 O   0  0  0  0  0  0  0  0  0  0  0  0
  137.5520   75.5060  222.1930 N   0  0  0  0  0  0  0  0  0  0  0  0
  136.6180   76.3630  222.9470 C   0  0  0  0  0  0  0  0  0  0  0  0
  137.1700   77.7130  222.5910 C   0  0  0  0  0  0  0  0  0  0  0  0
  138.6530   77.5170  222.3880 C   0  0  0  0  0  0  0  0  0  0  0  0
  138.8510   76.0250  222.6720 C   0  0  2  0  0  0  0  0  0  0  0  0
  140.0150   75.5080  221.9630 C   0  0  0  0  0  0  0  0  0  0  0  0
  140.3500   74.1970  222.1500 N   0  0  0  0  0  0  0  0  0  0  0  0
  141.4080   73.6220  221.5820 C   0  0  0  0  0  0  0  0  0  0  0  0
  142.2300   74.3590  220.7550 C   0  0  0  0  0  0  0  0  0  0  0  0
  143.6300   73.6790  219.9770 Cl  0  0  0  0  0  0  0  0  0  0  0  0
  141.9120   75.6820  220.5520 C   0  0  0  0  0  0  0  0  0  0  0  0
  140.8270   76.2040  221.1560 N   0  0  0  0  0  0  0  0  0  0  0  0
  138.6750   70.4170  223.7620 C   0  0  0  0  0  0  0  0  0  0  0  0
  138.5800   69.0480  223.8460 C   0  0  0  0  0  0  0  0  0  0  0  0
  139.1690   68.4590  224.9640 C   0  0  0  0  0  0  0  0  0  0  0  0
  139.8110   69.2220  225.9320 C   0  0  0  0  0  0  0  0  0  0  0  0
  140.4020   68.6850  227.0440 C   0  0  0  0  0  0  0  0  0  0  0  0
  141.0310   69.4930  227.9800 C   0  0  0  0  0  0  0  0  0  0  0  0
  141.6260   69.0000  229.0930 F   0  0  0  0  0  0  0  0  0  0  0  0
  141.0810   70.8720  227.8180 C   0  0  0  0  0  0  0  0  0  0  0  0
  140.4890   71.4240  226.7010 C   0  0  0  0  0  0  0  0  0  0  0  0
  139.8720   70.5980  225.7890 C   0  0  0  0  0  0  0  0  0  0  0  0
  139.2960   71.1380  224.7000 N   0  0  0  0  0  0  0  0  0  0  0  0
  138.8400   73.0080  223.1420 H   0  0  0  0  0  0  0  0  0  0  0  0
  138.3179   72.8768  220.4319 H   0  0  0  0  0  0  0  0  0  0  0  0
  136.6566   72.5978  221.2687 H   0  0  0  0  0  0  0  0  0  0  0  0
  135.5807   76.2408  222.6020 H   0  0  0  0  0  0  0  0  0  0  0  0
  136.5592   76.1528  224.0251 H   0  0  0  0  0  0  0  0  0  0  0  0
  136.7037   78.0847  221.6667 H   0  0  0  0  0  0  0  0  0  0  0  0
  136.9660   78.4520  223.3798 H   0  0  0  0  0  0  0  0  0  0  0  0
  138.9461   77.7646  221.3571 H   0  0  0  0  0  0  0  0  0  0  0  0
  139.2659   78.1639  223.0329 H   0  0  0  0  0  0  0  0  0  0  0  0
  139.0698   75.7444  223.7129 H   0  0  0  0  0  0  0  0  0  0  0  0
  141.6263   72.5607  221.7719 H   0  0  0  0  0  0  0  0  0  0  0  0
  142.5392   76.3090  219.9012 H   0  0  0  0  0  0  0  0  0  0  0  0
  138.0689   68.4519  223.0757 H   0  0  0  0  0  0  0  0  0  0  0  0
  139.1246   67.3663  225.0825 H   0  0  0  0  0  0  0  0  0  0  0  0
  140.3777   67.5961  227.1977 H   0  0  0  0  0  0  0  0  0  0  0  0
  141.5809   71.5086  228.5629 H   0  0  0  0  0  0  0  0  0  0  0  0
  140.5098   72.5121  226.5409 H   0  0  0  0  0  0  0  0  0  0  0  0
  1  2  2  0
  2  3  1  0
  3  4  1  0
  4  5  1  0
  5  6  2  0
  5  7  1  0
  7  8  1  0
  8  9  1  0
  9 10  1  0
 10 11  1  0
 11 12  1  0
 12 13  2  0
 13 14  1  0
 14 15  2  0
 15 16  1  0
 15 17  1  0
 17 18  2  0
  2 19  1  0
 19 20  2  0
 20 21  1  0
 21 22  2  0
 22 23  1  0
 23 24  2  0
 24 25  1  0
 24 26  1  0
 26 27  2  0
 27 28  1  0
 28 29  2  0
 11  7  1  0
 18 12  1  0
 29 19  1  0
 28 22  1  0
  3 30  1  0
  4 31  1  0
  4 32  1  0
  8 33  1  0
  8 34  1  0
  9 35  1  0
  9 36  1  0
 10 37  1  0
 10 38  1  0
 11 39  1  1
 14 40  1  0
 17 41  1  0
 20 42  1  0
 21 43  1  0
 23 44  1  0
 26 45  1  0
 27 46  1  0
M  END
>  <meeko>  (1) 
{"free_energy": -7.23, "intermolecular_energy": -8.72, "internal_energy": -2.42, "cluster_size": 13, "cluster_id": 1, "rank_in_cluster": 9}

$$$$

     RDKit          3D

 46 49  0  0  0  0  0  0  0  0999 V2000
  137.3760   70.5320  221.6940 O   0  0  0  0  0  0  0  0  0  0  0  0
  138.0800   71.0960  222.5760 C   0  0  0  0  0  0  0  0  0  0  0  0
  138.2690   72.5200  222.3750 N   0  0  0  0  0  0  0  0  0  0  0  0
  137.6570   73.0990  221.2400 C   0  0  0  0  0  0  0  0  0  0  0  0
  137.7330   74.5400  221.0220 C   0  0  0  0  0  0  0  0  0  0  0  0
  137.3760   74.9030  219.8210 O   0  0  0  0  0  0  0  0  0  0  0  0
  138.1170   75.5810  221.8670 N   0  0  0  0  0  0  0  0  0  0  0  0
  137.3490   76.6710  222.4960 C   0  0  0  0  0  0  0  0  0  0  0  0
  138.1570   77.8490  222.0340 C   0  0  0  0  0  0  0  0  0  0  0  0
  139.5790   77.3580  221.9100 C   0  0  0  0  0  0  0  0  0  0  0  0
  139.4810   75.8920  222.3450 C   0  0  2  0  0  0  0  0  0  0  0  0
  140.5400   75.0950  221.7360 C   0  0  0  0  0  0  0  0  0  0  0  0
  140.5850   73.7610  222.0250 N   0  0  0  0  0  0  0  0  0  0  0  0
  141.5210   72.9390  221.5550 C   0  0  0  0  0  0  0  0  0  0  0  0
  142.5120   73.4270  220.7290 C   0  0  0  0  0  0  0  0  0  0  0  0
  143.7700   72.4170  220.0750 Cl  0  0  0  0  0  0  0  0  0  0  0  0
  142.4870   74.7690  220.4240 C   0  0  0  0  0  0  0  0  0  0  0  0
  141.5120   75.5460  220.9330 N   0  0  0  0  0  0  0  0  0  0  0  0
  138.6690   70.4260  223.7060 C   0  0  0  0  0  0  0  0  0  0  0  0
  138.5690   69.0580  223.7820 C   0  0  0  0  0  0  0  0  0  0  0  0
  139.1560   68.4600  224.8960 C   0  0  0  0  0  0  0  0  0  0  0  0
  139.8020   69.2140  225.8670 C   0  0  0  0  0  0  0  0  0  0  0  0
  140.3930   68.6680  226.9760 C   0  0  0  0  0  0  0  0  0  0  0  0
  141.0260   69.4680  227.9160 C   0  0  0  0  0  0  0  0  0  0  0  0
  141.6200   68.9660  229.0250 F   0  0  0  0  0  0  0  0  0  0  0  0
  141.0820   70.8470  227.7610 C   0  0  0  0  0  0  0  0  0  0  0  0
  140.4910   71.4080  226.6480 C   0  0  0  0  0  0  0  0  0  0  0  0
  139.8690   70.5900  225.7320 C   0  0  0  0  0  0  0  0  0  0  0  0
  139.2950   71.1400  224.6470 N   0  0  0  0  0  0  0  0  0  0  0  0
  138.8540   73.0180  223.0950 H   0  0  0  0  0  0  0  0  0  0  0  0
  138.1081   72.6208  220.3581 H   0  0  0  0  0  0  0  0  0  0  0  0
  136.5850   72.9277  221.4174 H   0  0  0  0  0  0  0  0  0  0  0  0
  136.3151   76.7118  222.1227 H   0  0  0  0  0  0  0  0  0  0  0  0
  137.2280   76.5873  223.5861 H   0  0  0  0  0  0  0  0  0  0  0  0
  137.7899   78.2056  221.0603 H   0  0  0  0  0  0  0  0  0  0  0  0
  138.0820   78.6896  222.7396 H   0  0  0  0  0  0  0  0  0  0  0  0
  139.9354   77.4388  220.8725 H   0  0  0  0  0  0  0  0  0  0  0  0
  140.2912   77.9407  222.5127 H   0  0  0  0  0  0  0  0  0  0  0  0
  139.6196   75.6830  223.4160 H   0  0  0  0  0  0  0  0  0  0  0  0
  141.5040   71.8728  221.8249 H   0  0  0  0  0  0  0  0  0  0  0  0
  143.2573   75.2033  219.7697 H   0  0  0  0  0  0  0  0  0  0  0  0
  138.0553   68.4684  223.0083 H   0  0  0  0  0  0  0  0  0  0  0  0
  139.1065   67.3669  225.0084 H   0  0  0  0  0  0  0  0  0  0  0  0
  140.3651   67.5783  227.1232 H   0  0  0  0  0  0  0  0  0  0  0  0
  141.5860   71.4773  228.5085 H   0  0  0  0  0  0  0  0  0  0  0  0
  140.5164   72.4969  226.4941 H   0  0  0  0  0  0  0  0  0  0  0  0
  1  2  2  0
  2  3  1  0
  3  4  1  0
  4  5  1  0
  5  6  2  0
  5  7  1  0
  7  8  1  0
  8  9  1  0
  9 10  1  0
 10 11  1  0
 11 12  1  0
 12 13  2  0
 13 14  1  0
 14 15  2  0
 15 16  1  0
 15 17  1  0
 17 18  2  0
  2 19  1  0
 19 20  2  0
 20 21  1  0
 21 22  2  0
 22 23  1  0
 23 24  2  0
 24 25  1  0
 24 26  1  0
 26 27  2  0
 27 28  1  0
 28 29  2  0
 11  7  1  0
 18 12  1  0
 29 19  1  0
 28 22  1  0
  3 30  1  0
  4 31  1  0
  4 32  1  0
  8 33  1  0
  8 34  1  0
  9 35  1  0
  9 36  1  0
 10 37  1  0
 10 38  1  0
 11 39  1  1
 14 40  1  0
 17 41  1  0
 20 42  1  0
 21 43  1  0
 23 44  1  0
 26 45  1  0
 27 46  1  0
M  END
>  <meeko>  (2) 
{"free_energy": -7.24, "intermolecular_energy": -8.73, "internal_energy": -2.46, "cluster_size": 13, "cluster_id": 1, "rank_in_cluster": 7}

$$$$

     RDKit          3D

 46 49  0  0  0  0  0  0  0  0999 V2000
  137.4720   70.5600  221.6720 O   0  0  0  0  0  0  0  0  0  0  0  0
  138.1520   71.1280  222.5700 C   0  0  0  0  0  0  0  0  0  0  0  0
  138.3360   72.5540  222.3730 N   0  0  0  0  0  0  0  0  0  0  0  0
  137.7450   73.1300  221.2260 C   0  0  0  0  0  0  0  0  0  0  0  0
  137.7500   74.5780  221.0460 C   0  0  0  0  0  0  0  0  0  0  0  0
  137.3060   74.9580  219.8820 O   0  0  0  0  0  0  0  0  0  0  0  0
  138.1450   75.6100  221.8970 N   0  0  0  0  0  0  0  0  0  0  0  0
  137.3840   76.6880  222.5540 C   0  0  0  0  0  0  0  0  0  0  0  0
  138.1790   77.8750  222.0920 C   0  0  0  0  0  0  0  0  0  0  0  0
  139.6000   77.3920  221.9370 C   0  0  0  0  0  0  0  0  0  0  0  0
  139.5160   75.9210  222.3550 C   0  0  2  0  0  0  0  0  0  0  0  0
  140.5670   75.1360  221.7180 C   0  0  0  0  0  0  0  0  0  0  0  0
  140.6370   73.8030  222.0070 N   0  0  0  0  0  0  0  0  0  0  0  0
  141.5700   72.9930  221.5120 C   0  0  0  0  0  0  0  0  0  0  0  0
  142.5310   73.4910  220.6580 C   0  0  0  0  0  0  0  0  0  0  0  0
  143.7820   72.4960  219.9700 Cl  0  0  0  0  0  0  0  0  0  0  0  0
  142.4810   74.8320  220.3530 C   0  0  0  0  0  0  0  0  0  0  0  0
  141.5110   75.5980  220.8870 N   0  0  0  0  0  0  0  0  0  0  0  0
  138.7210   70.4620  223.7120 C   0  0  0  0  0  0  0  0  0  0  0  0
  138.6110   69.0950  223.7950 C   0  0  0  0  0  0  0  0  0  0  0  0
  139.1780   68.5010  224.9220 C   0  0  0  0  0  0  0  0  0  0  0  0
  139.8150   69.2570  225.8980 C   0  0  0  0  0  0  0  0  0  0  0  0
  140.3850   68.7150  227.0190 C   0  0  0  0  0  0  0  0  0  0  0  0
  141.0090   69.5170  227.9630 C   0  0  0  0  0  0  0  0  0  0  0  0
  141.5840   69.0180  229.0840 F   0  0  0  0  0  0  0  0  0  0  0  0
  141.0760   70.8950  227.8010 C   0  0  0  0  0  0  0  0  0  0  0  0
  140.5050   71.4520  226.6750 C   0  0  0  0  0  0  0  0  0  0  0  0
  139.8920   70.6320  225.7560 C   0  0  0  0  0  0  0  0  0  0  0  0
  139.3360   71.1780  224.6590 N   0  0  0  0  0  0  0  0  0  0  0  0
  138.9000   73.0560  223.1070 H   0  0  0  0  0  0  0  0  0  0  0  0
  138.2613   72.7009  220.3546 H   0  0  0  0  0  0  0  0  0  0  0  0
  136.6772   72.8967  221.3504 H   0  0  0  0  0  0  0  0  0  0  0  0
  136.3432   76.7291  222.2003 H   0  0  0  0  0  0  0  0  0  0  0  0
  137.2829   76.5900  223.6449 H   0  0  0  0  0  0  0  0  0  0  0  0
  137.7932   78.2416  221.1293 H   0  0  0  0  0  0  0  0  0  0  0  0
  138.1131   78.7066  222.8090 H   0  0  0  0  0  0  0  0  0  0  0  0
  139.9377   77.4873  220.8945 H   0  0  0  0  0  0  0  0  0  0  0  0
  140.3202   77.9702  222.5345 H   0  0  0  0  0  0  0  0  0  0  0  0
  139.6746   75.6996  223.4207 H   0  0  0  0  0  0  0  0  0  0  0  0
  141.5743   71.9272  221.7840 H   0  0  0  0  0  0  0  0  0  0  0  0
  143.2281   75.2748  219.6779 H   0  0  0  0  0  0  0  0  0  0  0  0
  138.1051   68.5036  223.0177 H   0  0  0  0  0  0  0  0  0  0  0  0
  139.1195   67.4090  225.0409 H   0  0  0  0  0  0  0  0  0  0  0  0
  140.3474   67.6265  227.1732 H   0  0  0  0  0  0  0  0  0  0  0  0
  141.5723   71.5270  228.5522 H   0  0  0  0  0  0  0  0  0  0  0  0
  140.5396   72.5396  226.5140 H   0  0  0  0  0  0  0  0  0  0  0  0
  1  2  2  0
  2  3  1  0
  3  4  1  0
  4  5  1  0
  5  6  2  0
  5  7  1  0
  7  8  1  0
  8  9  1  0
  9 10  1  0
 10 11  1  0
 11 12  1  0
 12 13  2  0
 13 14  1  0
 14 15  2  0
 15 16  1  0
 15 17  1  0
 17 18  2  0
  2 19  1  0
 19 20  2  0
 20 21  1  0
 21 22  2  0
 22 23  1  0
 23 24  2  0
 24 25  1  0
 24 26  1  0
 26 27  2  0
 27 28  1  0
 28 29  2  0
 11  7  1  0
 18 12  1  0
 29 19  1  0
 28 22  1  0
  3 30  1  0
  4 31  1  0
  4 32  1  0
  8 33  1  0
  8 34  1  0
  9 35  1  0
  9 36  1  0
 10 37  1  0
 10 38  1  0
 11 39  1  1
 14 40  1  0
 17 41  1  0
 20 42  1  0
 21 43  1  0
 23 44  1  0
 26 45  1  0
 27 46  1  0
M  END
>  <meeko>  (3) 
{"free_energy": -7.26, "intermolecular_energy": -8.75, "internal_energy": -2.44, "cluster_size": 13, "cluster_id": 1, "rank_in_cluster": 1}

$$$$

     RDKit          3D

 46 49  0  0  0  0  0  0  0  0999 V2000
  138.8680   75.3780  221.3490 O   0  0  0  0  0  0  0  0  0  0  0  0
  139.9960   75.8640  221.6360 C   0  0  0  0  0  0  0  0  0  0  0  0
  141.1190   74.9960  221.3330 N   0  0  0  0  0  0  0  0  0  0  0  0
  140.8270   73.7360  220.7640 C   0  0  0  0  0  0  0  0  0  0  0  0
  141.6940   73.1790  219.7310 C   0  0  0  0  0  0  0  0  0  0  0  0
  141.0440   72.7350  218.6920 O   0  0  0  0  0  0  0  0  0  0  0  0
  143.0800   73.0430  219.6670 N   0  0  0  0  0  0  0  0  0  0  0  0
  143.9780   71.9360  220.0470 C   0  0  0  0  0  0  0  0  0  0  0  0
  144.9180   72.6740  220.9560 C   0  0  0  0  0  0  0  0  0  0  0  0
  144.9830   74.0880  220.4310 C   0  0  0  0  0  0  0  0  0  0  0  0
  144.0620   74.0490  219.2080 C   0  0  2  0  0  0  0  0  0  0  0  0
  143.5020   75.3680  218.9340 C   0  0  0  0  0  0  0  0  0  0  0  0
  143.4720   75.7950  217.6370 N   0  0  0  0  0  0  0  0  0  0  0  0
  143.0150   76.9900  217.2690 C   0  0  0  0  0  0  0  0  0  0  0  0
  142.5390   77.8670  218.2200 C   0  0  0  0  0  0  0  0  0  0  0  0
  141.9260   79.4450  217.8170 Cl  0  0  0  0  0  0  0  0  0  0  0  0
  142.5600   77.4590  219.5340 C   0  0  0  0  0  0  0  0  0  0  0  0
  143.0360   76.2370  219.8410 N   0  0  0  0  0  0  0  0  0  0  0  0
  140.2050   77.1640  222.2170 C   0  0  0  0  0  0  0  0  0  0  0  0
  139.1140   77.8550  222.6850 C   0  0  0  0  0  0  0  0  0  0  0  0
  139.3720   79.1100  223.2370 C   0  0  0  0  0  0  0  0  0  0  0  0
  140.6620   79.6200  223.3040 C   0  0  0  0  0  0  0  0  0  0  0  0
  140.9600   80.8460  223.8390 C   0  0  0  0  0  0  0  0  0  0  0  0
  142.2670   81.3080  223.8810 C   0  0  0  0  0  0  0  0  0  0  0  0
  142.6010   82.5150  224.4000 F   0  0  0  0  0  0  0  0  0  0  0  0
  143.3150   80.5430  223.3840 C   0  0  0  0  0  0  0  0  0  0  0  0
  143.0260   79.3070  222.8440 C   0  0  0  0  0  0  0  0  0  0  0  0
  141.7200   78.8740  222.8150 C   0  0  0  0  0  0  0  0  0  0  0  0
  141.4420   77.6680  222.2880 N   0  0  0  0  0  0  0  0  0  0  0  0
  142.0750   75.3750  221.5620 H   0  0  0  0  0  0  0  0  0  0  0  0
  140.8132   73.0107  221.5909 H   0  0  0  0  0  0  0  0  0  0  0  0
  139.8826   73.9150  220.2292 H   0  0  0  0  0  0  0  0  0  0  0  0
  143.4402   71.1357  220.5764 H   0  0  0  0  0  0  0  0  0  0  0  0
  144.4567   71.4139  219.2054 H   0  0  0  0  0  0  0  0  0  0  0  0
  144.5361   72.6668  221.9876 H   0  0  0  0  0  0  0  0  0  0  0  0
  145.9128   72.2049  220.9724 H   0  0  0  0  0  0  0  0  0  0  0  0
  144.6143   74.8043  221.1800 H   0  0  0  0  0  0  0  0  0  0  0  0
  146.0062   74.4127  220.1907 H   0  0  0  0  0  0  0  0  0  0  0  0
  144.5282   73.7887  218.2463 H   0  0  0  0  0  0  0  0  0  0  0  0
  143.0172   77.2772  216.2072 H   0  0  0  0  0  0  0  0  0  0  0  0
  142.1910   78.1256  220.3274 H   0  0  0  0  0  0  0  0  0  0  0  0
  138.0958   77.4427  222.6278 H   0  0  0  0  0  0  0  0  0  0  0  0
  138.5357   79.7084  223.6275 H   0  0  0  0  0  0  0  0  0  0  0  0
  140.1505   81.4730  224.2411 H   0  0  0  0  0  0  0  0  0  0  0  0
  144.3499   80.9139  223.4203 H   0  0  0  0  0  0  0  0  0  0  0  0
  143.8306   78.6744  222.4410 H   0  0  0  0  0  0  0  0  0  0  0  0
  1  2  2  0
  2  3  1  0
  3  4  1  0
  4  5  1  0
  5  6  2  0
  5  7  1  0
  7  8  1  0
  8  9  1  0
  9 10  1  0
 10 11  1  0
 11 12  1  0
 12 13  2  0
 13 14  1  0
 14 15  2  0
 15 16  1  0
 15 17  1  0
 17 18  2  0
  2 19  1  0
 19 20  2  0
 20 21  1  0
 21 22  2  0
 22 23  1  0
 23 24  2  0
 24 25  1  0
 24 26  1  0
 26 27  2  0
 27 28  1  0
 28 29  2  0
 11  7  1  0
 18 12  1  0
 29 19  1  0
 28 22  1  0
  3 30  1  0
  4 31  1  0
  4 32  1  0
  8 33  1  0
  8 34  1  0
  9 35  1  0
  9 36  1  0
 10 37  1  0
 10 38  1  0
 11 39  1  6
 14 40  1  0
 17 41  1  0
 20 42  1  0
 21 43  1  0
 23 44  1  0
 26 45  1  0
 27 46  1  0
M  END
>  <meeko>  (4) 
{"free_energy": -6.74, "intermolecular_energy": -8.24, "internal_energy": -2.93, "cluster_size": 4, "cluster_id": 3, "rank_in_cluster": 1}

$$$$

     RDKit          3D

 46 49  0  0  0  0  0  0  0  0999 V2000
  138.9890   74.8390  221.7740 O   0  0  0  0  0  0  0  0  0  0  0  0
  140.0760   75.4750  221.8510 C   0  0  0  0  0  0  0  0  0  0  0  0
  141.2360   74.7420  221.3820 N   0  0  0  0  0  0  0  0  0  0  0  0
  141.0220   73.4290  220.9040 C   0  0  0  0  0  0  0  0  0  0  0  0
  141.9930   72.8080  220.0080 C   0  0  0  0  0  0  0  0  0  0  0  0
  141.4600   71.9600  219.1730 O   0  0  0  0  0  0  0  0  0  0  0  0
  143.3730   72.9650  219.8950 N   0  0  0  0  0  0  0  0  0  0  0  0
  144.4970   72.0900  220.2790 C   0  0  0  0  0  0  0  0  0  0  0  0
  145.2860   73.0480  221.1230 C   0  0  0  0  0  0  0  0  0  0  0  0
  145.0340   74.4200  220.5460 C   0  0  0  0  0  0  0  0  0  0  0  0
  144.1040   74.1350  219.3620 C   0  0  2  0  0  0  0  0  0  0  0  0
  143.2690   75.2920  219.0630 C   0  0  0  0  0  0  0  0  0  0  0  0
  143.2840   76.3380  219.9420 N   0  0  0  0  0  0  0  0  0  0  0  0
  142.5410   77.4330  219.7920 C   0  0  0  0  0  0  0  0  0  0  0  0
  141.7030   77.5510  218.7030 C   0  0  0  0  0  0  0  0  0  0  0  0
  140.7020   78.9500  218.4370 Cl  0  0  0  0  0  0  0  0  0  0  0  0
  141.6720   76.5090  217.8040 C   0  0  0  0  0  0  0  0  0  0  0  0
  142.4480   75.4290  218.0140 N   0  0  0  0  0  0  0  0  0  0  0  0
  140.2050   76.8170  222.3550 C   0  0  0  0  0  0  0  0  0  0  0  0
  139.0660   77.4950  222.7150 C   0  0  0  0  0  0  0  0  0  0  0  0
  139.2480   78.7910  223.1960 C   0  0  0  0  0  0  0  0  0  0  0  0
  140.5130   79.3550  223.3000 C   0  0  0  0  0  0  0  0  0  0  0  0
  140.7370   80.6230  223.7670 C   0  0  0  0  0  0  0  0  0  0  0  0
  142.0220   81.1370  223.8500 C   0  0  0  0  0  0  0  0  0  0  0  0
  142.2840   82.3860  224.3060 F   0  0  0  0  0  0  0  0  0  0  0  0
  143.1230   80.3830  223.4640 C   0  0  0  0  0  0  0  0  0  0  0  0
  142.9090   79.1040  222.9920 C   0  0  0  0  0  0  0  0  0  0  0  0
  141.6220   78.6200  222.9200 C   0  0  0  0  0  0  0  0  0  0  0  0
  141.4170   77.3720  222.4600 N   0  0  0  0  0  0  0  0  0  0  0  0
  142.1590   75.2480  221.4350 H   0  0  0  0  0  0  0  0  0  0  0  0
  140.9451   72.7786  221.7878 H   0  0  0  0  0  0  0  0  0  0  0  0
  140.1279   73.5342  220.2719 H   0  0  0  0  0  0  0  0  0  0  0  0
  144.1580   71.2179  220.8575 H   0  0  0  0  0  0  0  0  0  0  0  0
  145.0496   71.6447  219.4385 H   0  0  0  0  0  0  0  0  0  0  0  0
  144.9460   73.0051  222.1683 H   0  0  0  0  0  0  0  0  0  0  0  0
  146.3577   72.8002  221.1169 H   0  0  0  0  0  0  0  0  0  0  0  0
  144.5455   75.0744  221.2829 H   0  0  0  0  0  0  0  0  0  0  0  0
  145.9572   74.9420  220.2542 H   0  0  0  0  0  0  0  0  0  0  0  0
  144.5847   73.9380  218.3924 H   0  0  0  0  0  0  0  0  0  0  0  0
  142.5956   78.2419  220.5354 H   0  0  0  0  0  0  0  0  0  0  0  0
  141.0182   76.5584  216.9208 H   0  0  0  0  0  0  0  0  0  0  0  0
  138.0675   77.0416  222.6288 H   0  0  0  0  0  0  0  0  0  0  0  0
  138.3701   79.3800  223.4999 H   0  0  0  0  0  0  0  0  0  0  0  0
  139.8844   81.2430  224.0810 H   0  0  0  0  0  0  0  0  0  0  0  0
  144.1405   80.7953  223.5329 H   0  0  0  0  0  0  0  0  0  0  0  0
  143.7570   78.4783  222.6769 H   0  0  0  0  0  0  0  0  0  0  0  0
  1  2  2  0
  2  3  1  0
  3  4  1  0
  4  5  1  0
  5  6  2  0
  5  7  1  0
  7  8  1  0
  8  9  1  0
  9 10  1  0
 10 11  1  0
 11 12  1  0
 12 13  2  0
 13 14  1  0
 14 15  2  0
 15 16  1  0
 15 17  1  0
 17 18  2  0
  2 19  1  0
 19 20  2  0
 20 21  1  0
 21 22  2  0
 22 23  1  0
 23 24  2  0
 24 25  1  0
 24 26  1  0
 26 27  2  0
 27 28  1  0
 28 29  2  0
 11  7  1  0
 18 12  1  0
 29 19  1  0
 28 22  1  0
  3 30  1  0
  4 31  1  0
  4 32  1  0
  8 33  1  0
  8 34  1  0
  9 35  1  0
  9 36  1  0
 10 37  1  0
 10 38  1  0
 11 39  1  6
 14 40  1  0
 17 41  1  0
 20 42  1  0
 21 43  1  0
 23 44  1  0
 26 45  1  0
 27 46  1  0
M  END
>  <meeko>  (5) 
{"free_energy": -6.32, "intermolecular_energy": -7.81, "internal_energy": -3.29, "cluster_size": 4, "cluster_id": 3, "rank_in_cluster": 4}

$$$$

     RDKit          3D

 46 49  0  0  0  0  0  0  0  0999 V2000
  137.3680   70.6410  221.7040 O   0  0  0  0  0  0  0  0  0  0  0  0
  138.0860   71.2060  222.5740 C   0  0  0  0  0  0  0  0  0  0  0  0
  138.2890   72.6260  222.3570 N   0  0  0  0  0  0  0  0  0  0  0  0
  137.6730   73.2010  221.2220 C   0  0  0  0  0  0  0  0  0  0  0  0
  137.7620   74.6390  220.9900 C   0  0  0  0  0  0  0  0  0  0  0  0
  137.3960   74.9950  219.7910 O   0  0  0  0  0  0  0  0  0  0  0  0
  138.1650   75.6830  221.8220 N   0  0  0  0  0  0  0  0  0  0  0  0
  137.4270   76.8240  222.3950 C   0  0  0  0  0  0  0  0  0  0  0  0
  138.3070   77.9500  221.9330 C   0  0  0  0  0  0  0  0  0  0  0  0
  139.7070   77.3900  221.8750 C   0  0  0  0  0  0  0  0  0  0  0  0
  139.5240   75.9430  222.3430 C   0  0  2  0  0  0  0  0  0  0  0  0
  140.5640   75.0810  221.7930 C   0  0  0  0  0  0  0  0  0  0  0  0
  141.5020   75.6470  220.9770 N   0  0  0  0  0  0  0  0  0  0  0  0
  142.4780   74.9570  220.3920 C   0  0  0  0  0  0  0  0  0  0  0  0
  142.5800   73.5980  220.6000 C   0  0  0  0  0  0  0  0  0  0  0  0
  143.8280   72.6270  219.8720 Cl  0  0  0  0  0  0  0  0  0  0  0  0
  141.6460   73.0050  221.4190 C   0  0  0  0  0  0  0  0  0  0  0  0
  140.6820   73.7600  221.9810 N   0  0  0  0  0  0  0  0  0  0  0  0
  138.6780   70.5410  223.7050 C   0  0  0  0  0  0  0  0  0  0  0  0
  138.5830   69.1720  223.7840 C   0  0  0  0  0  0  0  0  0  0  0  0
  139.1720   68.5790  224.8990 C   0  0  0  0  0  0  0  0  0  0  0  0
  139.8150   69.3370  225.8690 C   0  0  0  0  0  0  0  0  0  0  0  0
  140.4070   68.7950  226.9800 C   0  0  0  0  0  0  0  0  0  0  0  0
  141.0370   69.6000  227.9180 C   0  0  0  0  0  0  0  0  0  0  0  0
  141.6320   69.1020  229.0290 F   0  0  0  0  0  0  0  0  0  0  0  0
  141.0870   70.9790  227.7610 C   0  0  0  0  0  0  0  0  0  0  0  0
  140.4940   71.5360  226.6470 C   0  0  0  0  0  0  0  0  0  0  0  0
  139.8760   70.7130  225.7320 C   0  0  0  0  0  0  0  0  0  0  0  0
  139.3000   71.2590  224.6460 N   0  0  0  0  0  0  0  0  0  0  0  0
  138.8850   73.1250  223.0680 H   0  0  0  0  0  0  0  0  0  0  0  0
  138.1113   72.7100  220.3406 H   0  0  0  0  0  0  0  0  0  0  0  0
  136.6009   73.0425  221.4104 H   0  0  0  0  0  0  0  0  0  0  0  0
  136.4102   76.9030  221.9828 H   0  0  0  0  0  0  0  0  0  0  0  0
  137.2626   76.7755  223.4816 H   0  0  0  0  0  0  0  0  0  0  0  0
  137.9928   78.2963  220.9373 H   0  0  0  0  0  0  0  0  0  0  0  0
  138.2469   78.8123  222.6134 H   0  0  0  0  0  0  0  0  0  0  0  0
  140.1042   77.4259  220.8498 H   0  0  0  0  0  0  0  0  0  0  0  0
  140.4237   77.9550  222.4891 H   0  0  0  0  0  0  0  0  0  0  0  0
  139.6144   75.7574  223.4235 H   0  0  0  0  0  0  0  0  0  0  0  0
  143.2027   75.4705  219.7431 H   0  0  0  0  0  0  0  0  0  0  0  0
  141.6864   71.9230  221.6131 H   0  0  0  0  0  0  0  0  0  0  0  0
  138.0715   68.5788  223.0116 H   0  0  0  0  0  0  0  0  0  0  0  0
  139.1267   67.4859  225.0135 H   0  0  0  0  0  0  0  0  0  0  0  0
  140.3822   67.7056  227.1302 H   0  0  0  0  0  0  0  0  0  0  0  0
  141.5880   71.6125  228.5078 H   0  0  0  0  0  0  0  0  0  0  0  0
  140.5145   72.6247  226.4914 H   0  0  0  0  0  0  0  0  0  0  0  0
  1  2  2  0
  2  3  1  0
  3  4  1  0
  4  5  1  0
  5  6  2  0
  5  7  1  0
  7  8  1  0
  8  9  1  0
  9 10  1  0
 10 11  1  0
 11 12  1  0
 12 13  2  0
 13 14  1  0
 14 15  2  0
 15 16  1  0
 15 17  1  0
 17 18  2  0
  2 19  1  0
 19 20  2  0
 20 21  1  0
 21 22  2  0
 22 23  1  0
 23 24  2  0
 24 25  1  0
 24 26  1  0
 26 27  2  0
 27 28  1  0
 28 29  2  0
 11  7  1  0
 18 12  1  0
 29 19  1  0
 28 22  1  0
  3 30  1  0
  4 31  1  0
  4 32  1  0
  8 33  1  0
  8 34  1  0
  9 35  1  0
  9 36  1  0
 10 37  1  0
 10 38  1  0
 11 39  1  1
 14 40  1  0
 17 41  1  0
 20 42  1  0
 21 43  1  0
 23 44  1  0
 26 45  1  0
 27 46  1  0
M  END
>  <meeko>  (6) 
{"free_energy": -7.17, "intermolecular_energy": -8.66, "internal_energy": -2.47, "cluster_size": 13, "cluster_id": 1, "rank_in_cluster": 11}

$$$$

     RDKit          3D

 46 49  0  0  0  0  0  0  0  0999 V2000
  137.4780   70.5340  221.6440 O   0  0  0  0  0  0  0  0  0  0  0  0
  138.1450   71.1090  222.5470 C   0  0  0  0  0  0  0  0  0  0  0  0
  138.3020   72.5380  222.3600 N   0  0  0  0  0  0  0  0  0  0  0  0
  137.7040   73.1110  221.2140 C   0  0  0  0  0  0  0  0  0  0  0  0
  137.7130   74.5580  221.0280 C   0  0  0  0  0  0  0  0  0  0  0  0
  137.2930   74.9330  219.8520 O   0  0  0  0  0  0  0  0  0  0  0  0
  138.0900   75.5940  221.8820 N   0  0  0  0  0  0  0  0  0  0  0  0
  137.3140   76.6720  222.5230 C   0  0  0  0  0  0  0  0  0  0  0  0
  138.1110   77.8610  222.0690 C   0  0  0  0  0  0  0  0  0  0  0  0
  139.5370   77.3830  221.9390 C   0  0  0  0  0  0  0  0  0  0  0  0
  139.4530   75.9130  222.3600 C   0  0  2  0  0  0  0  0  0  0  0  0
  140.5170   75.1300  221.7410 C   0  0  0  0  0  0  0  0  0  0  0  0
  140.5880   73.7990  222.0370 N   0  0  0  0  0  0  0  0  0  0  0  0
  141.5320   72.9910  221.5590 C   0  0  0  0  0  0  0  0  0  0  0  0
  142.5040   73.4910  220.7180 C   0  0  0  0  0  0  0  0  0  0  0  0
  143.7700   72.5000  220.0530 Cl  0  0  0  0  0  0  0  0  0  0  0  0
  142.4520   74.8310  220.4060 C   0  0  0  0  0  0  0  0  0  0  0  0
  141.4710   75.5940  220.9230 N   0  0  0  0  0  0  0  0  0  0  0  0
  138.7220   70.4460  223.6870 C   0  0  0  0  0  0  0  0  0  0  0  0
  138.6200   69.0780  223.7700 C   0  0  0  0  0  0  0  0  0  0  0  0
  139.1960   68.4870  224.8940 C   0  0  0  0  0  0  0  0  0  0  0  0
  139.8330   69.2470  225.8670 C   0  0  0  0  0  0  0  0  0  0  0  0
  140.4120   68.7070  226.9850 C   0  0  0  0  0  0  0  0  0  0  0  0
  141.0360   69.5130  227.9260 C   0  0  0  0  0  0  0  0  0  0  0  0
  141.6190   69.0170  229.0450 F   0  0  0  0  0  0  0  0  0  0  0  0
  141.0950   70.8910  227.7640 C   0  0  0  0  0  0  0  0  0  0  0  0
  140.5150   71.4450  226.6410 C   0  0  0  0  0  0  0  0  0  0  0  0
  139.9020   70.6220  225.7240 C   0  0  0  0  0  0  0  0  0  0  0  0
  139.3390   71.1650  224.6300 N   0  0  0  0  0  0  0  0  0  0  0  0
  138.8560   73.0460  223.0990 H   0  0  0  0  0  0  0  0  0  0  0  0
  138.2122   72.6763  220.3407 H   0  0  0  0  0  0  0  0  0  0  0  0
  136.6364   72.8817  221.3469 H   0  0  0  0  0  0  0  0  0  0  0  0
  136.2788   76.7073  222.1528 H   0  0  0  0  0  0  0  0  0  0  0  0
  137.1965   76.5777  223.6126 H   0  0  0  0  0  0  0  0  0  0  0  0
  137.7392   78.2221  221.0987 H   0  0  0  0  0  0  0  0  0  0  0  0
  138.0298   78.6954  222.7812 H   0  0  0  0  0  0  0  0  0  0  0  0
  139.8914   77.4767  220.9019 H   0  0  0  0  0  0  0  0  0  0  0  0
  140.2445   77.9661  222.5468 H   0  0  0  0  0  0  0  0  0  0  0  0
  139.5965   75.6960  223.4288 H   0  0  0  0  0  0  0  0  0  0  0  0
  141.5367   71.9261  221.8345 H   0  0  0  0  0  0  0  0  0  0  0  0
  143.2063   75.2746  219.7394 H   0  0  0  0  0  0  0  0  0  0  0  0
  138.1135   68.4839  222.9950 H   0  0  0  0  0  0  0  0  0  0  0  0
  139.1449   67.3946  225.0129 H   0  0  0  0  0  0  0  0  0  0  0  0
  140.3817   67.6182  227.1388 H   0  0  0  0  0  0  0  0  0  0  0  0
  141.5920   71.5255  228.5126 H   0  0  0  0  0  0  0  0  0  0  0  0
  140.5424   72.5329  226.4805 H   0  0  0  0  0  0  0  0  0  0  0  0
  1  2  2  0
  2  3  1  0
  3  4  1  0
  4  5  1  0
  5  6  2  0
  5  7  1  0
  7  8  1  0
  8  9  1  0
  9 10  1  0
 10 11  1  0
 11 12  1  0
 12 13  2  0
 13 14  1  0
 14 15  2  0
 15 16  1  0
 15 17  1  0
 17 18  2  0
  2 19  1  0
 19 20  2  0
 20 21  1  0
 21 22  2  0
 22 23  1  0
 23 24  2  0
 24 25  1  0
 24 26  1  0
 26 27  2  0
 27 28  1  0
 28 29  2  0
 11  7  1  0
 18 12  1  0
 29 19  1  0
 28 22  1  0
  3 30  1  0
  4 31  1  0
  4 32  1  0
  8 33  1  0
  8 34  1  0
  9 35  1  0
  9 36  1  0
 10 37  1  0
 10 38  1  0
 11 39  1  1
 14 40  1  0
 17 41  1  0
 20 42  1  0
 21 43  1  0
 23 44  1  0
 26 45  1  0
 27 46  1  0
M  END
>  <meeko>  (7) 
{"free_energy": -7.24, "intermolecular_energy": -8.73, "internal_energy": -2.46, "cluster_size": 13, "cluster_id": 1, "rank_in_cluster": 6}

$$$$

     RDKit          3D

 46 49  0  0  0  0  0  0  0  0999 V2000
  137.4090   70.5120  221.7180 O   0  0  0  0  0  0  0  0  0  0  0  0
  138.0960   71.0910  222.6030 C   0  0  0  0  0  0  0  0  0  0  0  0
  138.2630   72.5170  222.3970 N   0  0  0  0  0  0  0  0  0  0  0  0
  137.6520   73.0810  221.2540 C   0  0  0  0  0  0  0  0  0  0  0  0
  137.6730   74.5260  221.0480 C   0  0  0  0  0  0  0  0  0  0  0  0
  137.2920   74.8860  219.8550 O   0  0  0  0  0  0  0  0  0  0  0  0
  138.0270   75.5720  221.9000 N   0  0  0  0  0  0  0  0  0  0  0  0
  137.2270   76.6360  222.5350 C   0  0  0  0  0  0  0  0  0  0  0  0
  138.0020   77.8390  222.0800 C   0  0  0  0  0  0  0  0  0  0  0  0
  139.4370   77.3890  221.9550 C   0  0  0  0  0  0  0  0  0  0  0  0
  139.3810   75.9190  222.3810 C   0  0  2  0  0  0  0  0  0  0  0  0
  140.4620   75.1560  221.7680 C   0  0  0  0  0  0  0  0  0  0  0  0
  140.5420   73.8210  222.0460 N   0  0  0  0  0  0  0  0  0  0  0  0
  141.5020   73.0290  221.5710 C   0  0  0  0  0  0  0  0  0  0  0  0
  142.4820   73.5510  220.7530 C   0  0  0  0  0  0  0  0  0  0  0  0
  143.7680   72.5810  220.0940 Cl  0  0  0  0  0  0  0  0  0  0  0  0
  142.4220   74.8940  220.4600 C   0  0  0  0  0  0  0  0  0  0  0  0
  141.4250   75.6400  220.9720 N   0  0  0  0  0  0  0  0  0  0  0  0
  138.6860   70.4370  223.7420 C   0  0  0  0  0  0  0  0  0  0  0  0
  138.5960   69.0690  223.8300 C   0  0  0  0  0  0  0  0  0  0  0  0
  139.1840   68.4860  224.9530 C   0  0  0  0  0  0  0  0  0  0  0  0
  139.8200   69.2550  225.9190 C   0  0  0  0  0  0  0  0  0  0  0  0
  140.4100   68.7240  227.0360 C   0  0  0  0  0  0  0  0  0  0  0  0
  141.0330   69.5380  227.9700 C   0  0  0  0  0  0  0  0  0  0  0  0
  141.6270   69.0500  229.0870 F   0  0  0  0  0  0  0  0  0  0  0  0
  141.0790   70.9160  227.8030 C   0  0  0  0  0  0  0  0  0  0  0  0
  140.4880   71.4610  226.6820 C   0  0  0  0  0  0  0  0  0  0  0  0
  139.8760   70.6300  225.7720 C   0  0  0  0  0  0  0  0  0  0  0  0
  139.3020   71.1650  224.6790 N   0  0  0  0  0  0  0  0  0  0  0  0
  138.8330   73.0290  223.1200 H   0  0  0  0  0  0  0  0  0  0  0  0
  138.1408   72.6292  220.3782 H   0  0  0  0  0  0  0  0  0  0  0  0
  136.5844   72.8652  221.4081 H   0  0  0  0  0  0  0  0  0  0  0  0
  136.1926   76.6495  222.1610 H   0  0  0  0  0  0  0  0  0  0  0  0
  137.1071   76.5427  223.6245 H   0  0  0  0  0  0  0  0  0  0  0  0
  137.6259   78.1902  221.1078 H   0  0  0  0  0  0  0  0  0  0  0  0
  137.9027   78.6734  222.7899 H   0  0  0  0  0  0  0  0  0  0  0  0
  139.7920   77.4860  220.9184 H   0  0  0  0  0  0  0  0  0  0  0  0
  140.1315   77.9880  222.5624 H   0  0  0  0  0  0  0  0  0  0  0  0
  139.5253   75.7081  223.4509 H   0  0  0  0  0  0  0  0  0  0  0  0
  141.5131   71.9602  221.8308 H   0  0  0  0  0  0  0  0  0  0  0  0
  143.1827   75.3546  219.8125 H   0  0  0  0  0  0  0  0  0  0  0  0
  138.0898   68.4683  223.0600 H   0  0  0  0  0  0  0  0  0  0  0  0
  139.1430   67.3937  225.0759 H   0  0  0  0  0  0  0  0  0  0  0  0
  140.3891   67.6356  227.1942 H   0  0  0  0  0  0  0  0  0  0  0  0
  141.5747   71.5573  228.5466 H   0  0  0  0  0  0  0  0  0  0  0  0
  140.5058   72.5485  226.5174 H   0  0  0  0  0  0  0  0  0  0  0  0
  1  2  2  0
  2  3  1  0
  3  4  1  0
  4  5  1  0
  5  6  2  0
  5  7  1  0
  7  8  1  0
  8  9  1  0
  9 10  1  0
 10 11  1  0
 11 12  1  0
 12 13  2  0
 13 14  1  0
 14 15  2  0
 15 16  1  0
 15 17  1  0
 17 18  2  0
  2 19  1  0
 19 20  2  0
 20 21  1  0
 21 22  2  0
 22 23  1  0
 23 24  2  0
 24 25  1  0
 24 26  1  0
 26 27  2  0
 27 28  1  0
 28 29  2  0
 11  7  1  0
 18 12  1  0
 29 19  1  0
 28 22  1  0
  3 30  1  0
  4 31  1  0
  4 32  1  0
  8 33  1  0
  8 34  1  0
  9 35  1  0
  9 36  1  0
 10 37  1  0
 10 38  1  0
 11 39  1  1
 14 40  1  0
 17 41  1  0
 20 42  1  0
 21 43  1  0
 23 44  1  0
 26 45  1  0
 27 46  1  0
M  END
>  <meeko>  (8) 
{"free_energy": -7.25, "intermolecular_energy": -8.74, "internal_energy": -2.45, "cluster_size": 13, "cluster_id": 1, "rank_in_cluster": 2}

$$$$

     RDKit          3D

 46 49  0  0  0  0  0  0  0  0999 V2000
  136.2360   76.1080  221.5700 O   0  0  0  0  0  0  0  0  0  0  0  0
  137.3720   76.1340  222.1190 C   0  0  0  0  0  0  0  0  0  0  0  0
  137.9610   74.8270  222.3430 N   0  0  0  0  0  0  0  0  0  0  0  0
  137.2120   73.7010  221.9310 C   0  0  0  0  0  0  0  0  0  0  0  0
  137.8900   72.4550  221.5890 C   0  0  0  0  0  0  0  0  0  0  0  0
  137.6660   72.0610  220.3670 O   0  0  0  0  0  0  0  0  0  0  0  0
  138.7260   71.6260  222.3370 N   0  0  0  0  0  0  0  0  0  0  0  0
  138.4370   70.5000  223.2440 C   0  0  0  0  0  0  0  0  0  0  0  0
  139.1750   70.9650  224.4660 C   0  0  0  0  0  0  0  0  0  0  0  0
  140.3460   71.7750  223.9640 C   0  0  0  0  0  0  0  0  0  0  0  0
  140.1990   71.6950  222.4420 C   0  0  2  0  0  0  0  0  0  0  0  0
  140.8050   72.8540  221.7970 C   0  0  0  0  0  0  0  0  0  0  0  0
  141.7510   72.6330  220.8370 N   0  0  0  0  0  0  0  0  0  0  0  0
  142.3950   73.6100  220.2030 C   0  0  0  0  0  0  0  0  0  0  0  0
  142.1160   74.9260  220.5050 C   0  0  0  0  0  0  0  0  0  0  0  0
  142.9150   76.2580  219.7190 Cl  0  0  0  0  0  0  0  0  0  0  0  0
  141.1660   75.1740  221.4690 C   0  0  0  0  0  0  0  0  0  0  0  0
  140.5500   74.1400  222.0730 N   0  0  0  0  0  0  0  0  0  0  0  0
  138.0670   77.3330  222.5080 C   0  0  0  0  0  0  0  0  0  0  0  0
  137.3330   78.4730  222.7280 C   0  0  0  0  0  0  0  0  0  0  0  0
  138.0560   79.6060  223.1030 C   0  0  0  0  0  0  0  0  0  0  0  0
  139.4380   79.5710  223.2410 C   0  0  0  0  0  0  0  0  0  0  0  0
  140.1860   80.6590  223.6070 C   0  0  0  0  0  0  0  0  0  0  0  0
  141.5650   80.5690  223.7300 C   0  0  0  0  0  0  0  0  0  0  0  0
  142.3380   81.6220  224.0880 F   0  0  0  0  0  0  0  0  0  0  0  0
  142.2290   79.3740  223.4880 C   0  0  0  0  0  0  0  0  0  0  0  0
  141.4860   78.2720  223.1190 C   0  0  0  0  0  0  0  0  0  0  0  0
  140.1190   78.3900  223.0030 C   0  0  0  0  0  0  0  0  0  0  0  0
  139.3970   77.3130  222.6450 N   0  0  0  0  0  0  0  0  0  0  0  0
  138.9100   74.8170  222.8000 H   0  0  0  0  0  0  0  0  0  0  0  0
  136.5144   73.4679  222.7490 H   0  0  0  0  0  0  0  0  0  0  0  0
  136.7805   74.0236  220.9720 H   0  0  0  0  0  0  0  0  0  0  0  0
  137.3587   70.3924  223.4328 H   0  0  0  0  0  0  0  0  0  0  0  0
  138.7341   69.5099  222.8680 H   0  0  0  0  0  0  0  0  0  0  0  0
  138.5206   71.5880  225.0934 H   0  0  0  0  0  0  0  0  0  0  0  0
  139.5075   70.1166  225.0822 H   0  0  0  0  0  0  0  0  0  0  0  0
  140.2835   72.8166  224.3122 H   0  0  0  0  0  0  0  0  0  0  0  0
  141.3157   71.4010  224.3243 H   0  0  0  0  0  0  0  0  0  0  0  0
  140.7060   70.8581  221.9394 H   0  0  0  0  0  0  0  0  0  0  0  0
  143.1487   73.3679  219.4392 H   0  0  0  0  0  0  0  0  0  0  0  0
  140.9118   76.2083  221.7440 H   0  0  0  0  0  0  0  0  0  0  0  0
  136.2390   78.4917  222.6151 H   0  0  0  0  0  0  0  0  0  0  0  0
  137.5200   80.5475  223.2935 H   0  0  0  0  0  0  0  0  0  0  0  0
  139.6857   81.6182  223.8063 H   0  0  0  0  0  0  0  0  0  0  0  0
  143.3224   79.3075  223.5882 H   0  0  0  0  0  0  0  0  0  0  0  0
  141.9800   77.3096  222.9196 H   0  0  0  0  0  0  0  0  0  0  0  0
  1  2  2  0
  2  3  1  0
  3  4  1  0
  4  5  1  0
  5  6  2  0
  5  7  1  0
  7  8  1  0
  8  9  1  0
  9 10  1  0
 10 11  1  0
 11 12  1  0
 12 13  2  0
 13 14  1  0
 14 15  2  0
 15 16  1  0
 15 17  1  0
 17 18  2  0
  2 19  1  0
 19 20  2  0
 20 21  1  0
 21 22  2  0
 22 23  1  0
 23 24  2  0
 24 25  1  0
 24 26  1  0
 26 27  2  0
 27 28  1  0
 28 29  2  0
 11  7  1  0
 18 12  1  0
 29 19  1  0
 28 22  1  0
  3 30  1  0
  4 31  1  0
  4 32  1  0
  8 33  1  0
  8 34  1  0
  9 35  1  0
  9 36  1  0
 10 37  1  0
 10 38  1  0
 11 39  1  6
 14 40  1  0
 17 41  1  0
 20 42  1  0
 21 43  1  0
 23 44  1  0
 26 45  1  0
 27 46  1  0
M  END
>  <meeko>  (9) 
{"free_energy": -6.82, "intermolecular_energy": -8.31, "internal_energy": -2.76, "cluster_size": 2, "cluster_id": 2, "rank_in_cluster": 2}

$$$$

     RDKit          3D

 46 49  0  0  0  0  0  0  0  0999 V2000
  138.9620   75.1350  221.4510 O   0  0  0  0  0  0  0  0  0  0  0  0
  140.0730   75.6790  221.6960 C   0  0  0  0  0  0  0  0  0  0  0  0
  141.2270   74.8660  221.3640 N   0  0  0  0  0  0  0  0  0  0  0  0
  140.9800   73.5870  220.8160 C   0  0  0  0  0  0  0  0  0  0  0  0
  141.8850   73.0310  219.8150 C   0  0  0  0  0  0  0  0  0  0  0  0
  141.2680   72.5070  218.7920 O   0  0  0  0  0  0  0  0  0  0  0  0
  143.2770   72.9660  219.7660 N   0  0  0  0  0  0  0  0  0  0  0  0
  144.2270   71.9150  220.1760 C   0  0  0  0  0  0  0  0  0  0  0  0
  145.1180   72.7190  221.0780 C   0  0  0  0  0  0  0  0  0  0  0  0
  145.1150   74.1240  220.5250 C   0  0  0  0  0  0  0  0  0  0  0  0
  144.2090   74.0130  219.2950 C   0  0  2  0  0  0  0  0  0  0  0  0
  143.5840   75.2950  218.9890 C   0  0  0  0  0  0  0  0  0  0  0  0
  143.5010   75.6710  217.6790 N   0  0  0  0  0  0  0  0  0  0  0  0
  142.9830   76.8310  217.2800 C   0  0  0  0  0  0  0  0  0  0  0  0
  142.4930   77.7220  218.2120 C   0  0  0  0  0  0  0  0  0  0  0  0
  141.8000   79.2550  217.7690 Cl  0  0  0  0  0  0  0  0  0  0  0  0
  142.5670   77.3640  219.5390 C   0  0  0  0  0  0  0  0  0  0  0  0
  143.1030   76.1760  219.8760 N   0  0  0  0  0  0  0  0  0  0  0  0
  140.2350   76.9950  222.2590 C   0  0  0  0  0  0  0  0  0  0  0  0
  139.1150   77.6690  222.6810 C   0  0  0  0  0  0  0  0  0  0  0  0
  139.3280   78.9390  223.2170 C   0  0  0  0  0  0  0  0  0  0  0  0
  140.6040   79.4800  223.3130 C   0  0  0  0  0  0  0  0  0  0  0  0
  140.8580   80.7220  223.8330 C   0  0  0  0  0  0  0  0  0  0  0  0
  142.1530   81.2140  223.9060 C   0  0  0  0  0  0  0  0  0  0  0  0
  142.4440   82.4370  224.4120 F   0  0  0  0  0  0  0  0  0  0  0  0
  143.2310   80.4650  223.4550 C   0  0  0  0  0  0  0  0  0  0  0  0
  142.9870   79.2130  222.9300 C   0  0  0  0  0  0  0  0  0  0  0  0
  141.6920   78.7490  222.8690 C   0  0  0  0  0  0  0  0  0  0  0  0
  141.4570   77.5270  222.3570 N   0  0  0  0  0  0  0  0  0  0  0  0
  142.1700   75.2940  221.5590 H   0  0  0  0  0  0  0  0  0  0  0  0
  140.9653   72.8791  221.6578 H   0  0  0  0  0  0  0  0  0  0  0  0
  140.0439   73.7301  220.2563 H   0  0  0  0  0  0  0  0  0  0  0  0
  143.7262   71.0983  220.7167 H   0  0  0  0  0  0  0  0  0  0  0  0
  144.7404   71.4018  219.3496 H   0  0  0  0  0  0  0  0  0  0  0  0
  144.7266   72.7125  222.1060 H   0  0  0  0  0  0  0  0  0  0  0  0
  146.1356   72.3028  221.1128 H   0  0  0  0  0  0  0  0  0  0  0  0
  144.7025   74.8349  221.2560 H   0  0  0  0  0  0  0  0  0  0  0  0
  146.1223   74.4965  220.2871 H   0  0  0  0  0  0  0  0  0  0  0  0
  144.6971   73.7588  218.3425 H   0  0  0  0  0  0  0  0  0  0  0  0
  142.9459   77.0783  216.2088 H   0  0  0  0  0  0  0  0  0  0  0  0
  142.1911   78.0434  220.3181 H   0  0  0  0  0  0  0  0  0  0  0  0
  138.1085   77.2325  222.6009 H   0  0  0  0  0  0  0  0  0  0  0  0
  138.4671   79.5249  223.5713 H   0  0  0  0  0  0  0  0  0  0  0  0
  140.0229   81.3379  224.1979 H   0  0  0  0  0  0  0  0  0  0  0  0
  144.2557   80.8605  223.5148 H   0  0  0  0  0  0  0  0  0  0  0  0
  143.8179   78.5920  222.5640 H   0  0  0  0  0  0  0  0  0  0  0  0
  1  2  2  0
  2  3  1  0
  3  4  1  0
  4  5  1  0
  5  6  2  0
  5  7  1  0
  7  8  1  0
  8  9  1  0
  9 10  1  0
 10 11  1  0
 11 12  1  0
 12 13  2  0
 13 14  1  0
 14 15  2  0
 15 16  1  0
 15 17  1  0
 17 18  2  0
  2 19  1  0
 19 20  2  0
 20 21  1  0
 21 22  2  0
 22 23  1  0
 23 24  2  0
 24 25  1  0
 24 26  1  0
 26 27  2  0
 27 28  1  0
 28 29  2  0
 11  7  1  0
 18 12  1  0
 29 19  1  0
 28 22  1  0
  3 30  1  0
  4 31  1  0
  4 32  1  0
  8 33  1  0
  8 34  1  0
  9 35  1  0
  9 36  1  0
 10 37  1  0
 10 38  1  0
 11 39  1  6
 14 40  1  0
 17 41  1  0
 20 42  1  0
 21 43  1  0
 23 44  1  0
 26 45  1  0
 27 46  1  0
M  END
>  <meeko>  (10) 
{"free_energy": -6.72, "intermolecular_energy": -8.22, "internal_energy": -2.94, "cluster_size": 4, "cluster_id": 3, "rank_in_cluster": 2}

$$$$

     RDKit          3D

 46 49  0  0  0  0  0  0  0  0999 V2000
  137.4790   70.5130  221.6380 O   0  0  0  0  0  0  0  0  0  0  0  0
  138.1290   71.0970  222.5480 C   0  0  0  0  0  0  0  0  0  0  0  0
  138.2750   72.5280  222.3580 N   0  0  0  0  0  0  0  0  0  0  0  0
  137.6870   73.0900  221.2020 C   0  0  0  0  0  0  0  0  0  0  0  0
  137.6920   74.5370  221.0070 C   0  0  0  0  0  0  0  0  0  0  0  0
  137.2700   74.9030  219.8290 O   0  0  0  0  0  0  0  0  0  0  0  0
  138.0660   75.5790  221.8540 N   0  0  0  0  0  0  0  0  0  0  0  0
  137.2880   76.6630  222.4820 C   0  0  0  0  0  0  0  0  0  0  0  0
  138.0900   77.8470  222.0230 C   0  0  0  0  0  0  0  0  0  0  0  0
  139.5160   77.3660  221.9050 C   0  0  0  0  0  0  0  0  0  0  0  0
  139.4260   75.8990  222.3380 C   0  0  2  0  0  0  0  0  0  0  0  0
  140.4920   75.1100  221.7320 C   0  0  0  0  0  0  0  0  0  0  0  0
  140.5620   73.7820  222.0420 N   0  0  0  0  0  0  0  0  0  0  0  0
  141.5080   72.9680  221.5770 C   0  0  0  0  0  0  0  0  0  0  0  0
  142.4830   73.4590  220.7340 C   0  0  0  0  0  0  0  0  0  0  0  0
  143.7510   72.4600  220.0840 Cl  0  0  0  0  0  0  0  0  0  0  0  0
  142.4330   74.7950  220.4070 C   0  0  0  0  0  0  0  0  0  0  0  0
  141.4490   75.5640  220.9120 N   0  0  0  0  0  0  0  0  0  0  0  0
  138.6970   70.4440  223.6980 C   0  0  0  0  0  0  0  0  0  0  0  0
  138.5870   69.0780  223.7960 C   0  0  0  0  0  0  0  0  0  0  0  0
  139.1540   68.4960  224.9290 C   0  0  0  0  0  0  0  0  0  0  0  0
  139.7900   69.2640  225.8970 C   0  0  0  0  0  0  0  0  0  0  0  0
  140.3610   68.7330  227.0240 C   0  0  0  0  0  0  0  0  0  0  0  0
  140.9840   69.5460  227.9590 C   0  0  0  0  0  0  0  0  0  0  0  0
  141.5580   69.0600  229.0860 F   0  0  0  0  0  0  0  0  0  0  0  0
  141.0510   70.9220  227.7820 C   0  0  0  0  0  0  0  0  0  0  0  0
  140.4800   71.4670  226.6500 C   0  0  0  0  0  0  0  0  0  0  0  0
  139.8670   70.6370  225.7390 C   0  0  0  0  0  0  0  0  0  0  0  0
  139.3120   71.1710  224.6360 N   0  0  0  0  0  0  0  0  0  0  0  0
  138.8140   73.0440  223.1020 H   0  0  0  0  0  0  0  0  0  0  0  0
  138.2066   72.6518  220.3371 H   0  0  0  0  0  0  0  0  0  0  0  0
  136.6191   72.8564  221.3241 H   0  0  0  0  0  0  0  0  0  0  0  0
  136.2550   76.6971  222.1055 H   0  0  0  0  0  0  0  0  0  0  0  0
  137.1637   76.5775  223.5716 H   0  0  0  0  0  0  0  0  0  0  0  0
  137.7245   78.2008  221.0477 H   0  0  0  0  0  0  0  0  0  0  0  0
  138.0062   78.6871  222.7282 H   0  0  0  0  0  0  0  0  0  0  0  0
  139.8766   77.4504  220.8692 H   0  0  0  0  0  0  0  0  0  0  0  0
  140.2214   77.9529  222.5115 H   0  0  0  0  0  0  0  0  0  0  0  0
  139.5618   75.6901  223.4094 H   0  0  0  0  0  0  0  0  0  0  0  0
  141.5117   71.9063  221.8647 H   0  0  0  0  0  0  0  0  0  0  0  0
  143.1902   75.2312  219.7389 H   0  0  0  0  0  0  0  0  0  0  0  0
  138.0809   68.4782  223.0252 H   0  0  0  0  0  0  0  0  0  0  0  0
  139.0967   67.4053  225.0595 H   0  0  0  0  0  0  0  0  0  0  0  0
  140.3246   67.6461  227.1894 H   0  0  0  0  0  0  0  0  0  0  0  0
  141.5473   71.5620  228.5263 H   0  0  0  0  0  0  0  0  0  0  0  0
  140.5144   72.5529  226.4776 H   0  0  0  0  0  0  0  0  0  0  0  0
  1  2  2  0
  2  3  1  0
  3  4  1  0
  4  5  1  0
  5  6  2  0
  5  7  1  0
  7  8  1  0
  8  9  1  0
  9 10  1  0
 10 11  1  0
 11 12  1  0
 12 13  2  0
 13 14  1  0
 14 15  2  0
 15 16  1  0
 15 17  1  0
 17 18  2  0
  2 19  1  0
 19 20  2  0
 20 21  1  0
 21 22  2  0
 22 23  1  0
 23 24  2  0
 24 25  1  0
 24 26  1  0
 26 27  2  0
 27 28  1  0
 28 29  2  0
 11  7  1  0
 18 12  1  0
 29 19  1  0
 28 22  1  0
  3 30  1  0
  4 31  1  0
  4 32  1  0
  8 33  1  0
  8 34  1  0
  9 35  1  0
  9 36  1  0
 10 37  1  0
 10 38  1  0
 11 39  1  1
 14 40  1  0
 17 41  1  0
 20 42  1  0
 21 43  1  0
 23 44  1  0
 26 45  1  0
 27 46  1  0
M  END
>  <meeko>  (11) 
{"free_energy": -7.24, "intermolecular_energy": -8.73, "internal_energy": -2.46, "cluster_size": 13, "cluster_id": 1, "rank_in_cluster": 8}

$$$$

     RDKit          3D

 46 49  0  0  0  0  0  0  0  0999 V2000
  137.4100   70.5830  221.7160 O   0  0  0  0  0  0  0  0  0  0  0  0
  138.1220   71.1400  222.5950 C   0  0  0  0  0  0  0  0  0  0  0  0
  138.3300   72.5610  222.3890 N   0  0  0  0  0  0  0  0  0  0  0  0
  137.7260   73.1440  221.2520 C   0  0  0  0  0  0  0  0  0  0  0  0
  137.8050   74.5860  221.0380 C   0  0  0  0  0  0  0  0  0  0  0  0
  137.4330   74.9540  219.8440 O   0  0  0  0  0  0  0  0  0  0  0  0
  138.2070   75.6210  221.8810 N   0  0  0  0  0  0  0  0  0  0  0  0
  137.4550   76.7200  222.5150 C   0  0  0  0  0  0  0  0  0  0  0  0
  138.2750   77.8880  222.0490 C   0  0  0  0  0  0  0  0  0  0  0  0
  139.6900   77.3810  221.9170 C   0  0  0  0  0  0  0  0  0  0  0  0
  139.5770   75.9160  222.3520 C   0  0  2  0  0  0  0  0  0  0  0  0
  140.6220   75.1070  221.7360 C   0  0  0  0  0  0  0  0  0  0  0  0
  140.6590   73.7740  222.0320 N   0  0  0  0  0  0  0  0  0  0  0  0
  141.5840   72.9420  221.5570 C   0  0  0  0  0  0  0  0  0  0  0  0
  142.5710   73.4170  220.7180 C   0  0  0  0  0  0  0  0  0  0  0  0
  143.8130   72.3930  220.0570 Cl  0  0  0  0  0  0  0  0  0  0  0  0
  142.5540   74.7570  220.4070 C   0  0  0  0  0  0  0  0  0  0  0  0
  141.5910   75.5460  220.9210 N   0  0  0  0  0  0  0  0  0  0  0  0
  138.7020   70.4670  223.7280 C   0  0  0  0  0  0  0  0  0  0  0  0
  138.5970   69.0990  223.8000 C   0  0  0  0  0  0  0  0  0  0  0  0
  139.1760   68.4970  224.9180 C   0  0  0  0  0  0  0  0  0  0  0  0
  139.8170   69.2480  225.8950 C   0  0  0  0  0  0  0  0  0  0  0  0
  140.3990   68.6980  227.0070 C   0  0  0  0  0  0  0  0  0  0  0  0
  141.0270   69.4950  227.9520 C   0  0  0  0  0  0  0  0  0  0  0  0
  141.6120   68.9890  229.0650 F   0  0  0  0  0  0  0  0  0  0  0  0
  141.0870   70.8750  227.8010 C   0  0  0  0  0  0  0  0  0  0  0  0
  140.5050   71.4390  226.6850 C   0  0  0  0  0  0  0  0  0  0  0  0
  139.8880   70.6240  225.7630 C   0  0  0  0  0  0  0  0  0  0  0  0
  139.3220   71.1770  224.6750 N   0  0  0  0  0  0  0  0  0  0  0  0
  138.9210   73.0540  223.1080 H   0  0  0  0  0  0  0  0  0  0  0  0
  138.1820   72.6676  220.3716 H   0  0  0  0  0  0  0  0  0  0  0  0
  136.6527   72.9738  221.4226 H   0  0  0  0  0  0  0  0  0  0  0  0
  136.4197   76.7735  222.1472 H   0  0  0  0  0  0  0  0  0  0  0  0
  137.3384   76.6372  223.6057 H   0  0  0  0  0  0  0  0  0  0  0  0
  137.9069   78.2493  221.0774 H   0  0  0  0  0  0  0  0  0  0  0  0
  138.2141   78.7288  222.7557 H   0  0  0  0  0  0  0  0  0  0  0  0
  140.0417   77.4582  220.8776 H   0  0  0  0  0  0  0  0  0  0  0  0
  140.4123   77.9551  222.5159 H   0  0  0  0  0  0  0  0  0  0  0  0
  139.7192   75.7054  223.4223 H   0  0  0  0  0  0  0  0  0  0  0  0
  141.5612   71.8775  221.8332 H   0  0  0  0  0  0  0  0  0  0  0  0
  143.3216   75.1812  219.7431 H   0  0  0  0  0  0  0  0  0  0  0  0
  138.0864   68.5125  223.0219 H   0  0  0  0  0  0  0  0  0  0  0  0
  139.1236   67.4038  225.0279 H   0  0  0  0  0  0  0  0  0  0  0  0
  140.3675   67.6081  227.1521 H   0  0  0  0  0  0  0  0  0  0  0  0
  141.5867   71.5026  228.5535 H   0  0  0  0  0  0  0  0  0  0  0  0
  140.5336   72.5281  226.5333 H   0  0  0  0  0  0  0  0  0  0  0  0
  1  2  2  0
  2  3  1  0
  3  4  1  0
  4  5  1  0
  5  6  2  0
  5  7  1  0
  7  8  1  0
  8  9  1  0
  9 10  1  0
 10 11  1  0
 11 12  1  0
 12 13  2  0
 13 14  1  0
 14 15  2  0
 15 16  1  0
 15 17  1  0
 17 18  2  0
  2 19  1  0
 19 20  2  0
 20 21  1  0
 21 22  2  0
 22 23  1  0
 23 24  2  0
 24 25  1  0
 24 26  1  0
 26 27  2  0
 27 28  1  0
 28 29  2  0
 11  7  1  0
 18 12  1  0
 29 19  1  0
 28 22  1  0
  3 30  1  0
  4 31  1  0
  4 32  1  0
  8 33  1  0
  8 34  1  0
  9 35  1  0
  9 36  1  0
 10 37  1  0
 10 38  1  0
 11 39  1  1
 14 40  1  0
 17 41  1  0
 20 42  1  0
 21 43  1  0
 23 44  1  0
 26 45  1  0
 27 46  1  0
M  END
>  <meeko>  (12) 
{"free_energy": -7.24, "intermolecular_energy": -8.73, "internal_energy": -2.46, "cluster_size": 13, "cluster_id": 1, "rank_in_cluster": 5}

$$$$

     RDKit          3D

 46 49  0  0  0  0  0  0  0  0999 V2000
  136.4180   76.6220  221.5760 O   0  0  0  0  0  0  0  0  0  0  0  0
  137.5000   76.5730  222.2240 C   0  0  0  0  0  0  0  0  0  0  0  0
  137.9520   75.2320  222.5390 N   0  0  0  0  0  0  0  0  0  0  0  0
  137.1480   74.1570  222.0940 C   0  0  0  0  0  0  0  0  0  0  0  0
  137.7700   72.9410  221.5790 C   0  0  0  0  0  0  0  0  0  0  0  0
  137.5420   72.7390  220.3120 O   0  0  0  0  0  0  0  0  0  0  0  0
  138.5540   71.9720  222.2040 N   0  0  0  0  0  0  0  0  0  0  0  0
  138.2020   70.8320  223.0700 C   0  0  0  0  0  0  0  0  0  0  0  0
  139.0900   71.1250  224.2450 C   0  0  0  0  0  0  0  0  0  0  0  0
  140.3070   71.8210  223.6870 C   0  0  0  0  0  0  0  0  0  0  0  0
  140.0280   71.8580  222.1810 C   0  0  2  0  0  0  0  0  0  0  0  0
  140.7180   72.9760  221.5490 C   0  0  0  0  0  0  0  0  0  0  0  0
  140.5040   74.2290  222.0510 N   0  0  0  0  0  0  0  0  0  0  0  0
  141.0520   75.3280  221.5390 C   0  0  0  0  0  0  0  0  0  0  0  0
  141.8860   75.2350  220.4440 C   0  0  0  0  0  0  0  0  0  0  0  0
  142.6400   76.6250  219.7180 Cl  0  0  0  0  0  0  0  0  0  0  0  0
  142.1160   73.9830  219.9210 C   0  0  0  0  0  0  0  0  0  0  0  0
  141.5300   72.9100  220.4860 N   0  0  0  0  0  0  0  0  0  0  0  0
  138.2580   77.7240  222.6380 C   0  0  0  0  0  0  0  0  0  0  0  0
  137.5800   78.8730  222.9670 C   0  0  0  0  0  0  0  0  0  0  0  0
  138.3630   79.9570  223.3610 C   0  0  0  0  0  0  0  0  0  0  0  0
  139.7480   79.8690  223.4150 C   0  0  0  0  0  0  0  0  0  0  0  0
  140.5550   80.9090  223.7970 C   0  0  0  0  0  0  0  0  0  0  0  0
  141.9340   80.7670  223.8330 C   0  0  0  0  0  0  0  0  0  0  0  0
  142.7640   81.7720  224.2040 F   0  0  0  0  0  0  0  0  0  0  0  0
  142.5400   79.5670  223.4840 C   0  0  0  0  0  0  0  0  0  0  0  0
  141.7380   78.5140  223.0980 C   0  0  0  0  0  0  0  0  0  0  0  0
  140.3720   78.6830  223.0710 C   0  0  0  0  0  0  0  0  0  0  0  0
  139.5920   77.6530  222.6950 N   0  0  0  0  0  0  0  0  0  0  0  0
  138.8530   75.1590  223.0790 H   0  0  0  0  0  0  0  0  0  0  0  0
  136.5214   73.8559  222.9464 H   0  0  0  0  0  0  0  0  0  0  0  0
  136.6391   74.5722  221.2116 H   0  0  0  0  0  0  0  0  0  0  0  0
  137.1378   70.8420  223.3481 H   0  0  0  0  0  0  0  0  0  0  0  0
  138.3414   69.8400  222.6155 H   0  0  0  0  0  0  0  0  0  0  0  0
  138.5714   71.7788  224.9617 H   0  0  0  0  0  0  0  0  0  0  0  0
  139.3642   70.2043  224.7808 H   0  0  0  0  0  0  0  0  0  0  0  0
  140.4023   72.8378  224.0958 H   0  0  0  0  0  0  0  0  0  0  0  0
  141.2491   71.3122  223.9393 H   0  0  0  0  0  0  0  0  0  0  0  0
  140.3849   71.0013  221.5905 H   0  0  0  0  0  0  0  0  0  0  0  0
  140.8403   76.3095  221.9882 H   0  0  0  0  0  0  0  0  0  0  0  0
  142.7736   73.8595  219.0479 H   0  0  0  0  0  0  0  0  0  0  0  0
  136.4826   78.9340  222.9221 H   0  0  0  0  0  0  0  0  0  0  0  0
  137.8731   80.9029  223.6352 H   0  0  0  0  0  0  0  0  0  0  0  0
  140.1019   81.8708  224.0793 H   0  0  0  0  0  0  0  0  0  0  0  0
  143.6343   79.4592  223.5148 H   0  0  0  0  0  0  0  0  0  0  0  0
  142.1847   77.5495  222.8148 H   0  0  0  0  0  0  0  0  0  0  0  0
  1  2  2  0
  2  3  1  0
  3  4  1  0
  4  5  1  0
  5  6  2  0
  5  7  1  0
  7  8  1  0
  8  9  1  0
  9 10  1  0
 10 11  1  0
 11 12  1  0
 12 13  2  0
 13 14  1  0
 14 15  2  0
 15 16  1  0
 15 17  1  0
 17 18  2  0
  2 19  1  0
 19 20  2  0
 20 21  1  0
 21 22  2  0
 22 23  1  0
 23 24  2  0
 24 25  1  0
 24 26  1  0
 26 27  2  0
 27 28  1  0
 28 29  2  0
 11  7  1  0
 18 12  1  0
 29 19  1  0
 28 22  1  0
  3 30  1  0
  4 31  1  0
  4 32  1  0
  8 33  1  0
  8 34  1  0
  9 35  1  0
  9 36  1  0
 10 37  1  0
 10 38  1  0
 11 39  1  6
 14 40  1  0
 17 41  1  0
 20 42  1  0
 21 43  1  0
 23 44  1  0
 26 45  1  0
 27 46  1  0
M  END
>  <meeko>  (13) 
{"free_energy": -6.82, "intermolecular_energy": -8.31, "internal_energy": -2.76, "cluster_size": 2, "cluster_id": 2, "rank_in_cluster": 1}

$$$$

     RDKit          3D

 46 49  0  0  0  0  0  0  0  0999 V2000
  137.3660   70.8610  221.5210 O   0  0  0  0  0  0  0  0  0  0  0  0
  138.0450   71.3730  222.4530 C   0  0  0  0  0  0  0  0  0  0  0  0
  138.2480   72.8050  222.3330 N   0  0  0  0  0  0  0  0  0  0  0  0
  137.6750   73.4470  221.2110 C   0  0  0  0  0  0  0  0  0  0  0  0
  137.8980   74.8720  220.9890 C   0  0  0  0  0  0  0  0  0  0  0  0
  137.5750   75.2670  219.7890 O   0  0  0  0  0  0  0  0  0  0  0  0
  138.3920   75.8690  221.8300 N   0  0  0  0  0  0  0  0  0  0  0  0
  137.7470   77.0430  222.4460 C   0  0  0  0  0  0  0  0  0  0  0  0
  138.6860   78.1190  221.9820 C   0  0  0  0  0  0  0  0  0  0  0  0
  140.0440   77.4690  221.8730 C   0  0  0  0  0  0  0  0  0  0  0  0
  139.7790   76.0280  222.3170 C   0  0  2  0  0  0  0  0  0  0  0  0
  140.7440   75.1110  221.7210 C   0  0  0  0  0  0  0  0  0  0  0  0
  140.6550   73.7870  222.0430 N   0  0  0  0  0  0  0  0  0  0  0  0
  141.4980   72.8630  221.5880 C   0  0  0  0  0  0  0  0  0  0  0  0
  142.5270   73.2260  220.7440 C   0  0  0  0  0  0  0  0  0  0  0  0
  143.6690   72.0770  220.1080 Cl  0  0  0  0  0  0  0  0  0  0  0  0
  142.6370   74.5560  220.4060 C   0  0  0  0  0  0  0  0  0  0  0  0
  141.7510   75.4410  220.9010 N   0  0  0  0  0  0  0  0  0  0  0  0
  138.5940   70.6420  223.5640 C   0  0  0  0  0  0  0  0  0  0  0  0
  138.3980   69.2830  223.6150 C   0  0  0  0  0  0  0  0  0  0  0  0
  138.9500   68.6230  224.7120 C   0  0  0  0  0  0  0  0  0  0  0  0
  139.6560   69.3100  225.6920 C   0  0  0  0  0  0  0  0  0  0  0  0
  140.2150   68.7020  226.7850 C   0  0  0  0  0  0  0  0  0  0  0  0
  140.9100   69.4370  227.7330 C   0  0  0  0  0  0  0  0  0  0  0  0
  141.4760   68.8720  228.8270 F   0  0  0  0  0  0  0  0  0  0  0  0
  141.0620   70.8120  227.6050 C   0  0  0  0  0  0  0  0  0  0  0  0
  140.5030   71.4350  226.5080 C   0  0  0  0  0  0  0  0  0  0  0  0
  139.8180   70.6810  225.5830 C   0  0  0  0  0  0  0  0  0  0  0  0
  139.2760   71.2910  224.5140 N   0  0  0  0  0  0  0  0  0  0  0  0
  138.8120   73.2610  223.0960 H   0  0  0  0  0  0  0  0  0  0  0  0
  138.0528   72.9245  220.3198 H   0  0  0  0  0  0  0  0  0  0  0  0
  136.5952   73.3901  221.4132 H   0  0  0  0  0  0  0  0  0  0  0  0
  136.7268   77.1971  222.0645 H   0  0  0  0  0  0  0  0  0  0  0  0
  137.6096   76.9817  223.5357 H   0  0  0  0  0  0  0  0  0  0  0  0
  138.3685   78.5070  221.0029 H   0  0  0  0  0  0  0  0  0  0  0  0
  138.7013   78.9685  222.6806 H   0  0  0  0  0  0  0  0  0  0  0  0
  140.4146   77.5009  220.8378 H   0  0  0  0  0  0  0  0  0  0  0  0
  140.8128   77.9722  222.4778 H   0  0  0  0  0  0  0  0  0  0  0  0
  139.8869   75.8139  223.3906 H   0  0  0  0  0  0  0  0  0  0  0  0
  141.3743   71.8110  221.8846 H   0  0  0  0  0  0  0  0  0  0  0  0
  143.4423   74.8931  219.7368 H   0  0  0  0  0  0  0  0  0  0  0  0
  137.8377   68.7465  222.8351 H   0  0  0  0  0  0  0  0  0  0  0  0
  138.8238   67.5341  224.8038 H   0  0  0  0  0  0  0  0  0  0  0  0
  140.1108   67.6144  226.9123 H   0  0  0  0  0  0  0  0  0  0  0  0
  141.6147   71.3902  228.3601 H   0  0  0  0  0  0  0  0  0  0  0  0
  140.6039   72.5222  226.3744 H   0  0  0  0  0  0  0  0  0  0  0  0
  1  2  2  0
  2  3  1  0
  3  4  1  0
  4  5  1  0
  5  6  2  0
  5  7  1  0
  7  8  1  0
  8  9  1  0
  9 10  1  0
 10 11  1  0
 11 12  1  0
 12 13  2  0
 13 14  1  0
 14 15  2  0
 15 16  1  0
 15 17  1  0
 17 18  2  0
  2 19  1  0
 19 20  2  0
 20 21  1  0
 21 22  2  0
 22 23  1  0
 23 24  2  0
 24 25  1  0
 24 26  1  0
 26 27  2  0
 27 28  1  0
 28 29  2  0
 11  7  1  0
 18 12  1  0
 29 19  1  0
 28 22  1  0
  3 30  1  0
  4 31  1  0
  4 32  1  0
  8 33  1  0
  8 34  1  0
  9 35  1  0
  9 36  1  0
 10 37  1  0
 10 38  1  0
 11 39  1  1
 14 40  1  0
 17 41  1  0
 20 42  1  0
 21 43  1  0
 23 44  1  0
 26 45  1  0
 27 46  1  0
M  END
>  <meeko>  (14) 
{"free_energy": -7.17, "intermolecular_energy": -8.66, "internal_energy": -2.49, "cluster_size": 13, "cluster_id": 1, "rank_in_cluster": 10}

$$$$

     RDKit          3D

 46 49  0  0  0  0  0  0  0  0999 V2000
  137.3810   70.4490  221.6910 O   0  0  0  0  0  0  0  0  0  0  0  0
  138.0430   71.0480  222.5820 C   0  0  0  0  0  0  0  0  0  0  0  0
  138.1590   72.4810  222.3840 N   0  0  0  0  0  0  0  0  0  0  0  0
  137.5320   73.0280  221.2420 C   0  0  0  0  0  0  0  0  0  0  0  0
  137.5000   74.4740  221.0450 C   0  0  0  0  0  0  0  0  0  0  0  0
  137.1010   74.8270  219.8550 O   0  0  0  0  0  0  0  0  0  0  0  0
  137.8200   75.5270  221.9010 N   0  0  0  0  0  0  0  0  0  0  0  0
  137.0000   76.6090  222.4780 C   0  0  0  0  0  0  0  0  0  0  0  0
  137.8130   77.7970  222.0510 C   0  0  0  0  0  0  0  0  0  0  0  0
  139.2470   77.3290  222.0110 C   0  0  0  0  0  0  0  0  0  0  0  0
  139.1500   75.8650  222.4520 C   0  0  2  0  0  0  0  0  0  0  0  0
  140.2530   75.0810  221.9090 C   0  0  0  0  0  0  0  0  0  0  0  0
  141.1580   75.7170  221.1070 N   0  0  0  0  0  0  0  0  0  0  0  0
  142.1870   75.1000  220.5300 C   0  0  0  0  0  0  0  0  0  0  0  0
  142.3800   73.7500  220.7310 C   0  0  0  0  0  0  0  0  0  0  0  0
  143.7000   72.8740  220.0110 Cl  0  0  0  0  0  0  0  0  0  0  0  0
  141.4800   73.0880  221.5350 C   0  0  0  0  0  0  0  0  0  0  0  0
  140.4600   73.7700  222.0900 N   0  0  0  0  0  0  0  0  0  0  0  0
  138.6510   70.4100  223.7200 C   0  0  0  0  0  0  0  0  0  0  0  0
  138.5740   69.0420  223.8220 C   0  0  0  0  0  0  0  0  0  0  0  0
  139.1790   68.4740  224.9420 C   0  0  0  0  0  0  0  0  0  0  0  0
  139.8200   69.2570  225.8940 C   0  0  0  0  0  0  0  0  0  0  0  0
  140.4280   68.7410  227.0090 C   0  0  0  0  0  0  0  0  0  0  0  0
  141.0540   69.5690  227.9290 C   0  0  0  0  0  0  0  0  0  0  0  0
  141.6650   69.0970  229.0420 F   0  0  0  0  0  0  0  0  0  0  0  0
  141.0860   70.9460  227.7480 C   0  0  0  0  0  0  0  0  0  0  0  0
  140.4780   71.4760  226.6290 C   0  0  0  0  0  0  0  0  0  0  0  0
  139.8630   70.6310  225.7340 C   0  0  0  0  0  0  0  0  0  0  0  0
  139.2710   71.1510  224.6430 N   0  0  0  0  0  0  0  0  0  0  0  0
  138.7060   73.0090  223.1130 H   0  0  0  0  0  0  0  0  0  0  0  0
  138.0408   72.6000  220.3657 H   0  0  0  0  0  0  0  0  0  0  0  0
  136.4727   72.7711  221.3898 H   0  0  0  0  0  0  0  0  0  0  0  0
  135.9877   76.6295  222.0480 H   0  0  0  0  0  0  0  0  0  0  0  0
  136.8203   76.5315  223.5604 H   0  0  0  0  0  0  0  0  0  0  0  0
  137.4951   78.1394  221.0551 H   0  0  0  0  0  0  0  0  0  0  0  0
  137.6848   78.6420  222.7435 H   0  0  0  0  0  0  0  0  0  0  0  0
  139.6595   77.4082  220.9944 H   0  0  0  0  0  0  0  0  0  0  0  0
  139.9142   77.9281  222.6482 H   0  0  0  0  0  0  0  0  0  0  0  0
  139.2332   75.6672  223.5309 H   0  0  0  0  0  0  0  0  0  0  0  0
  142.8824   75.6669  219.8936 H   0  0  0  0  0  0  0  0  0  0  0  0
  141.5931   72.0101  221.7228 H   0  0  0  0  0  0  0  0  0  0  0  0
  138.0642   68.4301  223.0633 H   0  0  0  0  0  0  0  0  0  0  0  0
  139.1483   67.3825  225.0749 H   0  0  0  0  0  0  0  0  0  0  0  0
  140.4193   67.6539  227.1766 H   0  0  0  0  0  0  0  0  0  0  0  0
  141.5846   71.5985  228.4799 H   0  0  0  0  0  0  0  0  0  0  0  0
  140.4847   72.5620  226.4541 H   0  0  0  0  0  0  0  0  0  0  0  0
  1  2  2  0
  2  3  1  0
  3  4  1  0
  4  5  1  0
  5  6  2  0
  5  7  1  0
  7  8  1  0
  8  9  1  0
  9 10  1  0
 10 11  1  0
 11 12  1  0
 12 13  2  0
 13 14  1  0
 14 15  2  0
 15 16  1  0
 15 17  1  0
 17 18  2  0
  2 19  1  0
 19 20  2  0
 20 21  1  0
 21 22  2  0
 22 23  1  0
 23 24  2  0
 24 25  1  0
 24 26  1  0
 26 27  2  0
 27 28  1  0
 28 29  2  0
 11  7  1  0
 18 12  1  0
 29 19  1  0
 28 22  1  0
  3 30  1  0
  4 31  1  0
  4 32  1  0
  8 33  1  0
  8 34  1  0
  9 35  1  0
  9 36  1  0
 10 37  1  0
 10 38  1  0
 11 39  1  1
 14 40  1  0
 17 41  1  0
 20 42  1  0
 21 43  1  0
 23 44  1  0
 26 45  1  0
 27 46  1  0
M  END
>  <meeko>  (15) 
{"free_energy": -7.14, "intermolecular_energy": -8.64, "internal_energy": -2.48, "cluster_size": 13, "cluster_id": 1, "rank_in_cluster": 13}

$$$$

     RDKit          3D

 46 49  0  0  0  0  0  0  0  0999 V2000
  141.7030   78.5360  217.5620 O   0  0  0  0  0  0  0  0  0  0  0  0
  142.2470   77.9560  218.5410 C   0  0  0  0  0  0  0  0  0  0  0  0
  142.2030   78.7020  219.7840 N   0  0  0  0  0  0  0  0  0  0  0  0
  141.5690   79.9660  219.7570 C   0  0  0  0  0  0  0  0  0  0  0  0
  140.7300   80.3890  220.8730 C   0  0  0  0  0  0  0  0  0  0  0  0
  139.5300   80.7470  220.5130 O   0  0  0  0  0  0  0  0  0  0  0  0
  140.9910   80.4750  222.2400 N   0  0  0  0  0  0  0  0  0  0  0  0
  141.5500   81.5600  223.0680 C   0  0  0  0  0  0  0  0  0  0  0  0
  142.6670   80.8140  223.7400 C   0  0  0  0  0  0  0  0  0  0  0  0
  142.1980   79.3850  223.8690 C   0  0  0  0  0  0  0  0  0  0  0  0
  140.7930   79.4230  223.2600 C   0  0  2  0  0  0  0  0  0  0  0  0
  140.4190   78.1180  222.7280 C   0  0  0  0  0  0  0  0  0  0  0  0
  141.3950   77.3570  222.1500 N   0  0  0  0  0  0  0  0  0  0  0  0
  141.1680   76.1650  221.6020 C   0  0  0  0  0  0  0  0  0  0  0  0
  139.8930   75.6400  221.6010 C   0  0  0  0  0  0  0  0  0  0  0  0
  139.5170   74.0900  220.9050 Cl  0  0  0  0  0  0  0  0  0  0  0  0
  138.8930   76.3890  222.1780 C   0  0  0  0  0  0  0  0  0  0  0  0
  139.1880   77.5880  222.7150 N   0  0  0  0  0  0  0  0  0  0  0  0
  142.8730   76.6610  218.4810 C   0  0  0  0  0  0  0  0  0  0  0  0
  142.8360   75.9700  217.2940 C   0  0  0  0  0  0  0  0  0  0  0  0
  143.4570   74.7210  217.2900 C   0  0  0  0  0  0  0  0  0  0  0  0
  144.0740   74.2150  218.4270 C   0  0  0  0  0  0  0  0  0  0  0  0
  144.6950   72.9950  218.4670 C   0  0  0  0  0  0  0  0  0  0  0  0
  145.2960   72.5370  219.6310 C   0  0  0  0  0  0  0  0  0  0  0  0
  145.9190   71.3360  219.7100 F   0  0  0  0  0  0  0  0  0  0  0  0
  145.2880   73.3010  220.7910 C   0  0  0  0  0  0  0  0  0  0  0  0
  144.6650   74.5320  220.7610 C   0  0  0  0  0  0  0  0  0  0  0  0
  144.0760   74.9610  219.5930 C   0  0  0  0  0  0  0  0  0  0  0  0
  143.4710   76.1620  219.5680 N   0  0  0  0  0  0  0  0  0  0  0  0
  142.6500   78.2420  220.6190 H   0  0  0  0  0  0  0  0  0  0  0  0
  142.3656   80.7179  219.6568 H   0  0  0  0  0  0  0  0  0  0  0  0
  140.8535   79.8704  218.9270 H   0  0  0  0  0  0  0  0  0  0  0  0
  141.9244   82.3925  222.4541 H   0  0  0  0  0  0  0  0  0  0  0  0
  140.8345   82.0426  223.7500 H   0  0  0  0  0  0  0  0  0  0  0  0
  143.5803   80.8623  223.1288 H   0  0  0  0  0  0  0  0  0  0  0  0
  142.9068   81.2484  224.7217 H   0  0  0  0  0  0  0  0  0  0  0  0
  142.8531   78.7024  223.3078 H   0  0  0  0  0  0  0  0  0  0  0  0
  142.2095   79.0186  224.9061 H   0  0  0  0  0  0  0  0  0  0  0  0
  139.9621   79.6409  223.9471 H   0  0  0  0  0  0  0  0  0  0  0  0
  141.9966   75.5997  221.1506 H   0  0  0  0  0  0  0  0  0  0  0  0
  137.8603   76.0109  222.2003 H   0  0  0  0  0  0  0  0  0  0  0  0
  142.3449   76.3783  216.3984 H   0  0  0  0  0  0  0  0  0  0  0  0
  143.4581   74.1237  216.3663 H   0  0  0  0  0  0  0  0  0  0  0  0
  144.7178   72.3688  217.5629 H   0  0  0  0  0  0  0  0  0  0  0  0
  145.7665   72.9338  221.7109 H   0  0  0  0  0  0  0  0  0  0  0  0
  144.6393   75.1639  221.6610 H   0  0  0  0  0  0  0  0  0  0  0  0
  1  2  2  0
  2  3  1  0
  3  4  1  0
  4  5  1  0
  5  6  2  0
  5  7  1  0
  7  8  1  0
  8  9  1  0
  9 10  1  0
 10 11  1  0
 11 12  1  0
 12 13  2  0
 13 14  1  0
 14 15  2  0
 15 16  1  0
 15 17  1  0
 17 18  2  0
  2 19  1  0
 19 20  2  0
 20 21  1  0
 21 22  2  0
 22 23  1  0
 23 24  2  0
 24 25  1  0
 24 26  1  0
 26 27  2  0
 27 28  1  0
 28 29  2  0
 11  7  1  0
 18 12  1  0
 29 19  1  0
 28 22  1  0
  3 30  1  0
  4 31  1  0
  4 32  1  0
  8 33  1  0
  8 34  1  0
  9 35  1  0
  9 36  1  0
 10 37  1  0
 10 38  1  0
 11 39  1  1
 14 40  1  0
 17 41  1  0
 20 42  1  0
 21 43  1  0
 23 44  1  0
 26 45  1  0
 27 46  1  0
M  END
>  <meeko>  (16) 
{"free_energy": -6.49, "intermolecular_energy": -7.98, "internal_energy": -3.07, "cluster_size": 1, "cluster_id": 4, "rank_in_cluster": 1}

$$$$

     RDKit          3D

 46 49  0  0  0  0  0  0  0  0999 V2000
  137.4340   70.5330  221.7100 O   0  0  0  0  0  0  0  0  0  0  0  0
  138.1340   71.0960  222.5970 C   0  0  0  0  0  0  0  0  0  0  0  0
  138.3300   72.5190  222.3940 N   0  0  0  0  0  0  0  0  0  0  0  0
  137.7290   73.0980  221.2530 C   0  0  0  0  0  0  0  0  0  0  0  0
  137.2930   74.4910  221.2810 C   0  0  0  0  0  0  0  0  0  0  0  0
  136.6220   74.8460  220.2220 O   0  0  0  0  0  0  0  0  0  0  0  0
  137.4690   75.4910  222.2360 N   0  0  0  0  0  0  0  0  0  0  0  0
  136.5040   76.2860  223.0180 C   0  0  0  0  0  0  0  0  0  0  0  0
  136.9820   77.6680  222.6800 C   0  0  0  0  0  0  0  0  0  0  0  0
  138.4700   77.5530  222.4540 C   0  0  0  0  0  0  0  0  0  0  0  0
  138.7470   76.0680  222.7070 C   0  0  2  0  0  0  0  0  0  0  0  0
  139.9260   75.6240  221.9730 C   0  0  0  0  0  0  0  0  0  0  0  0
  140.3260   74.3270  222.1260 N   0  0  0  0  0  0  0  0  0  0  0  0
  141.4040   73.8170  221.5330 C   0  0  0  0  0  0  0  0  0  0  0  0
  142.1780   74.6100  220.7130 C   0  0  0  0  0  0  0  0  0  0  0  0
  143.6000   74.0170  219.9040 Cl  0  0  0  0  0  0  0  0  0  0  0  0
  141.7940   75.9210  220.5440 C   0  0  0  0  0  0  0  0  0  0  0  0
  140.6930   76.3760  221.1730 N   0  0  0  0  0  0  0  0  0  0  0  0
  138.7110   70.4270  223.7330 C   0  0  0  0  0  0  0  0  0  0  0  0
  138.6110   69.0580  223.8080 C   0  0  0  0  0  0  0  0  0  0  0  0
  139.1860   68.4610  224.9280 C   0  0  0  0  0  0  0  0  0  0  0  0
  139.8210   69.2150  225.9070 C   0  0  0  0  0  0  0  0  0  0  0  0
  140.4000   68.6690  227.0220 C   0  0  0  0  0  0  0  0  0  0  0  0
  141.0220   69.4700  227.9690 C   0  0  0  0  0  0  0  0  0  0  0  0
  141.6040   68.9680  229.0850 F   0  0  0  0  0  0  0  0  0  0  0  0
  141.0780   70.8490  227.8150 C   0  0  0  0  0  0  0  0  0  0  0  0
  140.4990   71.4100  226.6960 C   0  0  0  0  0  0  0  0  0  0  0  0
  139.8880   70.5910  225.7730 C   0  0  0  0  0  0  0  0  0  0  0  0
  139.3250   71.1410  224.6810 N   0  0  0  0  0  0  0  0  0  0  0  0
  138.9110   73.0170  223.1180 H   0  0  0  0  0  0  0  0  0  0  0  0
  138.4566   73.0102  220.4327 H   0  0  0  0  0  0  0  0  0  0  0  0
  136.7852   72.5413  221.1565 H   0  0  0  0  0  0  0  0  0  0  0  0
  135.4693   76.1176  222.6846 H   0  0  0  0  0  0  0  0  0  0  0  0
  136.4713   76.0539  224.0927 H   0  0  0  0  0  0  0  0  0  0  0  0
  136.4845   78.0318  221.7688 H   0  0  0  0  0  0  0  0  0  0  0  0
  136.7519   78.3809  223.4855 H   0  0  0  0  0  0  0  0  0  0  0  0
  138.7358   77.8343  221.4243 H   0  0  0  0  0  0  0  0  0  0  0  0
  139.0582   78.2188  223.1026 H   0  0  0  0  0  0  0  0  0  0  0  0
  138.9941   75.7804  223.7396 H   0  0  0  0  0  0  0  0  0  0  0  0
  141.6765   72.7640  221.6974 H   0  0  0  0  0  0  0  0  0  0  0  0
  142.3817   76.5920  219.9003 H   0  0  0  0  0  0  0  0  0  0  0  0
  138.1062   68.4680  223.0289 H   0  0  0  0  0  0  0  0  0  0  0  0
  139.1361   67.3678  225.0396 H   0  0  0  0  0  0  0  0  0  0  0  0
  140.3714   67.5792  227.1688 H   0  0  0  0  0  0  0  0  0  0  0  0
  141.5729   71.4795  228.5684 H   0  0  0  0  0  0  0  0  0  0  0  0
  140.5250   72.4990  226.5427 H   0  0  0  0  0  0  0  0  0  0  0  0
  1  2  2  0
  2  3  1  0
  3  4  1  0
  4  5  1  0
  5  6  2  0
  5  7  1  0
  7  8  1  0
  8  9  1  0
  9 10  1  0
 10 11  1  0
 11 12  1  0
 12 13  2  0
 13 14  1  0
 14 15  2  0
 15 16  1  0
 15 17  1  0
 17 18  2  0
  2 19  1  0
 19 20  2  0
 20 21  1  0
 21 22  2  0
 22 23  1  0
 23 24  2  0
 24 25  1  0
 24 26  1  0
 26 27  2  0
 27 28  1  0
 28 29  2  0
 11  7  1  0
 18 12  1  0
 29 19  1  0
 28 22  1  0
  3 30  1  0
  4 31  1  0
  4 32  1  0
  8 33  1  0
  8 34  1  0
  9 35  1  0
  9 36  1  0
 10 37  1  0
 10 38  1  0
 11 39  1  1
 14 40  1  0
 17 41  1  0
 20 42  1  0
 21 43  1  0
 23 44  1  0
 26 45  1  0
 27 46  1  0
M  END
>  <meeko>  (17) 
{"free_energy": -7.25, "intermolecular_energy": -8.74, "internal_energy": -2.38, "cluster_size": 13, "cluster_id": 1, "rank_in_cluster": 4}

$$$$

     RDKit          3D

 46 49  0  0  0  0  0  0  0  0999 V2000
  137.4340   70.4350  221.6670 O   0  0  0  0  0  0  0  0  0  0  0  0
  138.0540   71.0460  222.5800 C   0  0  0  0  0  0  0  0  0  0  0  0
  138.1400   72.4810  222.3910 N   0  0  0  0  0  0  0  0  0  0  0  0
  137.5330   73.0190  221.2330 C   0  0  0  0  0  0  0  0  0  0  0  0
  137.4620   74.4650  221.0460 C   0  0  0  0  0  0  0  0  0  0  0  0
  137.0500   74.8150  219.8600 O   0  0  0  0  0  0  0  0  0  0  0  0
  137.7560   75.5200  221.9090 N   0  0  0  0  0  0  0  0  0  0  0  0
  136.9150   76.5910  222.4750 C   0  0  0  0  0  0  0  0  0  0  0  0
  137.7210   77.7890  222.0620 C   0  0  0  0  0  0  0  0  0  0  0  0
  139.1610   77.3380  222.0430 C   0  0  0  0  0  0  0  0  0  0  0  0
  139.0740   75.8730  222.4800 C   0  0  2  0  0  0  0  0  0  0  0  0
  140.1950   75.1030  221.9530 C   0  0  0  0  0  0  0  0  0  0  0  0
  141.0990   75.7480  221.1590 N   0  0  0  0  0  0  0  0  0  0  0  0
  142.1430   75.1440  220.5950 C   0  0  0  0  0  0  0  0  0  0  0  0
  142.3530   73.7970  220.8040 C   0  0  0  0  0  0  0  0  0  0  0  0
  143.6940   72.9370  220.1030 Cl  0  0  0  0  0  0  0  0  0  0  0  0
  141.4540   73.1260  221.6010 C   0  0  0  0  0  0  0  0  0  0  0  0
  140.4190   73.7950  222.1420 N   0  0  0  0  0  0  0  0  0  0  0  0
  138.6440   70.4160  223.7320 C   0  0  0  0  0  0  0  0  0  0  0  0
  138.5390   69.0530  223.8600 C   0  0  0  0  0  0  0  0  0  0  0  0
  139.1280   68.4940  224.9940 C   0  0  0  0  0  0  0  0  0  0  0  0
  139.7810   69.2820  225.9330 C   0  0  0  0  0  0  0  0  0  0  0  0
  140.3730   68.7750  227.0600 C   0  0  0  0  0  0  0  0  0  0  0  0
  141.0130   69.6080  227.9670 C   0  0  0  0  0  0  0  0  0  0  0  0
  141.6090   69.1450  229.0920 F   0  0  0  0  0  0  0  0  0  0  0  0
  141.0730   70.9800  227.7610 C   0  0  0  0  0  0  0  0  0  0  0  0
  140.4810   71.5010  226.6290 C   0  0  0  0  0  0  0  0  0  0  0  0
  139.8520   70.6520  225.7470 C   0  0  0  0  0  0  0  0  0  0  0  0
  139.2760   71.1630  224.6440 N   0  0  0  0  0  0  0  0  0  0  0  0
  138.6520   73.0190  223.1380 H   0  0  0  0  0  0  0  0  0  0  0  0
  138.0829   72.6148  220.3703 H   0  0  0  0  0  0  0  0  0  0  0  0
  136.4780   72.7284  221.3448 H   0  0  0  0  0  0  0  0  0  0  0  0
  135.9092   76.6006  222.0297 H   0  0  0  0  0  0  0  0  0  0  0  0
  136.7195   76.5096  223.5544 H   0  0  0  0  0  0  0  0  0  0  0  0
  137.4142   78.1292  221.0619 H   0  0  0  0  0  0  0  0  0  0  0  0
  137.5727   78.6312  222.7539 H   0  0  0  0  0  0  0  0  0  0  0  0
  139.5880   77.4237  221.0329 H   0  0  0  0  0  0  0  0  0  0  0  0
  139.8116   77.9438  222.6909 H   0  0  0  0  0  0  0  0  0  0  0  0
  139.1427   75.6742  223.5597 H   0  0  0  0  0  0  0  0  0  0  0  0
  142.8368   75.7183  219.9635 H   0  0  0  0  0  0  0  0  0  0  0  0
  141.5804   72.0506  221.7945 H   0  0  0  0  0  0  0  0  0  0  0  0
  138.0199   68.4370  223.1109 H   0  0  0  0  0  0  0  0  0  0  0  0
  139.0742   67.4062  225.1479 H   0  0  0  0  0  0  0  0  0  0  0  0
  140.3405   67.6918  227.2486 H   0  0  0  0  0  0  0  0  0  0  0  0
  141.5806   71.6360  228.4835 H   0  0  0  0  0  0  0  0  0  0  0  0
  140.5114   72.5831  226.4335 H   0  0  0  0  0  0  0  0  0  0  0  0
  1  2  2  0
  2  3  1  0
  3  4  1  0
  4  5  1  0
  5  6  2  0
  5  7  1  0
  7  8  1  0
  8  9  1  0
  9 10  1  0
 10 11  1  0
 11 12  1  0
 12 13  2  0
 13 14  1  0
 14 15  2  0
 15 16  1  0
 15 17  1  0
 17 18  2  0
  2 19  1  0
 19 20  2  0
 20 21  1  0
 21 22  2  0
 22 23  1  0
 23 24  2  0
 24 25  1  0
 24 26  1  0
 26 27  2  0
 27 28  1  0
 28 29  2  0
 11  7  1  0
 18 12  1  0
 29 19  1  0
 28 22  1  0
  3 30  1  0
  4 31  1  0
  4 32  1  0
  8 33  1  0
  8 34  1  0
  9 35  1  0
  9 36  1  0
 10 37  1  0
 10 38  1  0
 11 39  1  1
 14 40  1  0
 17 41  1  0
 20 42  1  0
 21 43  1  0
 23 44  1  0
 26 45  1  0
 27 46  1  0
M  END
>  <meeko>  (18) 
{"free_energy": -7.15, "intermolecular_energy": -8.64, "internal_energy": -2.48, "cluster_size": 13, "cluster_id": 1, "rank_in_cluster": 12}

$$$$

     RDKit          3D

 46 49  0  0  0  0  0  0  0  0999 V2000
  137.5580   70.6210  221.5740 O   0  0  0  0  0  0  0  0  0  0  0  0
  138.2120   71.1770  222.4980 C   0  0  0  0  0  0  0  0  0  0  0  0
  138.4000   72.6050  222.3270 N   0  0  0  0  0  0  0  0  0  0  0  0
  137.8410   73.1970  221.1710 C   0  0  0  0  0  0  0  0  0  0  0  0
  137.7510   74.6490  221.0610 C   0  0  0  0  0  0  0  0  0  0  0  0
  137.1710   75.0520  219.9650 O   0  0  0  0  0  0  0  0  0  0  0  0
  138.1730   75.6650  221.9170 N   0  0  0  0  0  0  0  0  0  0  0  0
  137.4360   76.7410  222.6050 C   0  0  0  0  0  0  0  0  0  0  0  0
  138.2310   77.9280  222.1420 C   0  0  0  0  0  0  0  0  0  0  0  0
  139.6450   77.4350  221.9500 C   0  0  0  0  0  0  0  0  0  0  0  0
  139.5570   75.9590  222.3490 C   0  0  2  0  0  0  0  0  0  0  0  0
  140.5860   75.1740  221.6780 C   0  0  0  0  0  0  0  0  0  0  0  0
  140.6840   73.8470  221.9860 N   0  0  0  0  0  0  0  0  0  0  0  0
  141.6030   73.0380  221.4630 C   0  0  0  0  0  0  0  0  0  0  0  0
  142.5190   73.5310  220.5580 C   0  0  0  0  0  0  0  0  0  0  0  0
  143.7480   72.5380  219.8300 Cl  0  0  0  0  0  0  0  0  0  0  0  0
  142.4390   74.8660  220.2320 C   0  0  0  0  0  0  0  0  0  0  0  0
  141.4860   75.6310  220.7970 N   0  0  0  0  0  0  0  0  0  0  0  0
  138.7480   70.4960  223.6470 C   0  0  0  0  0  0  0  0  0  0  0  0
  138.6010   69.1320  223.7280 C   0  0  0  0  0  0  0  0  0  0  0  0
  139.1380   68.5220  224.8610 C   0  0  0  0  0  0  0  0  0  0  0  0
  139.7820   69.2610  225.8450 C   0  0  0  0  0  0  0  0  0  0  0  0
  140.3240   68.7020  226.9730 C   0  0  0  0  0  0  0  0  0  0  0  0
  140.9580   69.4880  227.9250 C   0  0  0  0  0  0  0  0  0  0  0  0
  141.5050   68.9730  229.0530 F   0  0  0  0  0  0  0  0  0  0  0  0
  141.0630   70.8630  227.7650 C   0  0  0  0  0  0  0  0  0  0  0  0
  140.5210   71.4360  226.6330 C   0  0  0  0  0  0  0  0  0  0  0  0
  139.8980   70.6330  225.7050 C   0  0  0  0  0  0  0  0  0  0  0  0
  139.3710   71.1940  224.6020 N   0  0  0  0  0  0  0  0  0  0  0  0
  138.9430   73.0970  223.0830 H   0  0  0  0  0  0  0  0  0  0  0  0
  138.4411   72.8513  220.3164 H   0  0  0  0  0  0  0  0  0  0  0  0
  136.7877   72.8828  221.2126 H   0  0  0  0  0  0  0  0  0  0  0  0
  136.3882   76.7958  222.2747 H   0  0  0  0  0  0  0  0  0  0  0  0
  137.3582   76.6289  223.6965 H   0  0  0  0  0  0  0  0  0  0  0  0
  137.8279   78.3109  221.1928 H   0  0  0  0  0  0  0  0  0  0  0  0
  138.1874   78.7504  222.8712 H   0  0  0  0  0  0  0  0  0  0  0  0
  139.9615   77.5423  220.9020 H   0  0  0  0  0  0  0  0  0  0  0  0
  140.3827   77.9986  222.5401 H   0  0  0  0  0  0  0  0  0  0  0  0
  139.7371   75.7221  223.4080 H   0  0  0  0  0  0  0  0  0  0  0  0
  141.6315   71.9772  221.7526 H   0  0  0  0  0  0  0  0  0  0  0  0
  143.1486   75.3046  219.5150 H   0  0  0  0  0  0  0  0  0  0  0  0
  138.0891   68.5546  222.9440 H   0  0  0  0  0  0  0  0  0  0  0  0
  139.0497   67.4318  224.9781 H   0  0  0  0  0  0  0  0  0  0  0  0
  140.2555   67.6148  227.1259 H   0  0  0  0  0  0  0  0  0  0  0  0
  141.5665   71.4811  228.5229 H   0  0  0  0  0  0  0  0  0  0  0  0
  140.5861   72.5225  226.4740 H   0  0  0  0  0  0  0  0  0  0  0  0
  1  2  2  0
  2  3  1  0
  3  4  1  0
  4  5  1  0
  5  6  2  0
  5  7  1  0
  7  8  1  0
  8  9  1  0
  9 10  1  0
 10 11  1  0
 11 12  1  0
 12 13  2  0
 13 14  1  0
 14 15  2  0
 15 16  1  0
 15 17  1  0
 17 18  2  0
  2 19  1  0
 19 20  2  0
 20 21  1  0
 21 22  2  0
 22 23  1  0
 23 24  2  0
 24 25  1  0
 24 26  1  0
 26 27  2  0
 27 28  1  0
 28 29  2  0
 11  7  1  0
 18 12  1  0
 29 19  1  0
 28 22  1  0
  3 30  1  0
  4 31  1  0
  4 32  1  0
  8 33  1  0
  8 34  1  0
  9 35  1  0
  9 36  1  0
 10 37  1  0
 10 38  1  0
 11 39  1  1
 14 40  1  0
 17 41  1  0
 20 42  1  0
 21 43  1  0
 23 44  1  0
 26 45  1  0
 27 46  1  0
M  END
>  <meeko>  (19) 
{"free_energy": -7.25, "intermolecular_energy": -8.74, "internal_energy": -2.41, "cluster_size": 13, "cluster_id": 1, "rank_in_cluster": 3}

$$$$

     RDKit          3D

 46 49  0  0  0  0  0  0  0  0999 V2000
  138.9940   75.0430  221.4390 O   0  0  0  0  0  0  0  0  0  0  0  0
  140.0970   75.5970  221.6980 C   0  0  0  0  0  0  0  0  0  0  0  0
  141.2620   74.7910  221.3850 N   0  0  0  0  0  0  0  0  0  0  0  0
  141.0330   73.5080  220.8380 C   0  0  0  0  0  0  0  0  0  0  0  0
  141.9410   72.9660  219.8320 C   0  0  0  0  0  0  0  0  0  0  0  0
  141.3270   72.4150  218.8230 O   0  0  0  0  0  0  0  0  0  0  0  0
  143.3330   72.9390  219.7680 N   0  0  0  0  0  0  0  0  0  0  0  0
  144.3150   71.9090  220.1550 C   0  0  0  0  0  0  0  0  0  0  0  0
  145.1950   72.7260  221.0570 C   0  0  0  0  0  0  0  0  0  0  0  0
  145.1490   74.1360  220.5210 C   0  0  0  0  0  0  0  0  0  0  0  0
  144.2320   74.0160  219.3000 C   0  0  2  0  0  0  0  0  0  0  0  0
  143.5710   75.2840  219.0160 C   0  0  0  0  0  0  0  0  0  0  0  0
  143.3780   75.6280  217.7080 N   0  0  0  0  0  0  0  0  0  0  0  0
  142.8150   76.7730  217.3270 C   0  0  0  0  0  0  0  0  0  0  0  0
  142.3930   77.6820  218.2740 C   0  0  0  0  0  0  0  0  0  0  0  0
  141.6490   79.1980  217.8540 Cl  0  0  0  0  0  0  0  0  0  0  0  0
  142.5770   77.3560  219.5990 C   0  0  0  0  0  0  0  0  0  0  0  0
  143.1530   76.1810  219.9190 N   0  0  0  0  0  0  0  0  0  0  0  0
  140.2410   76.9150  222.2570 C   0  0  0  0  0  0  0  0  0  0  0  0
  139.1130   77.5730  222.6830 C   0  0  0  0  0  0  0  0  0  0  0  0
  139.3090   78.8470  223.2160 C   0  0  0  0  0  0  0  0  0  0  0  0
  140.5760   79.4080  223.3060 C   0  0  0  0  0  0  0  0  0  0  0  0
  140.8130   80.6550  223.8230 C   0  0  0  0  0  0  0  0  0  0  0  0
  142.1010   81.1670  223.8890 C   0  0  0  0  0  0  0  0  0  0  0  0
  142.3750   82.3950  224.3920 F   0  0  0  0  0  0  0  0  0  0  0  0
  143.1890   80.4330  223.4350 C   0  0  0  0  0  0  0  0  0  0  0  0
  142.9620   79.1760  222.9130 C   0  0  0  0  0  0  0  0  0  0  0  0
  141.6740   78.6930  222.8590 C   0  0  0  0  0  0  0  0  0  0  0  0
  141.4560   77.4670  222.3500 N   0  0  0  0  0  0  0  0  0  0  0  0
  142.1980   75.2270  221.5910 H   0  0  0  0  0  0  0  0  0  0  0  0
  141.0343   72.8001  221.6799 H   0  0  0  0  0  0  0  0  0  0  0  0
  140.0920   73.6365  220.2831 H   0  0  0  0  0  0  0  0  0  0  0  0
  143.8421   71.0731  220.6914 H   0  0  0  0  0  0  0  0  0  0  0  0
  144.8324   71.4193  219.3169 H   0  0  0  0  0  0  0  0  0  0  0  0
  144.8155   72.6973  222.0891 H   0  0  0  0  0  0  0  0  0  0  0  0
  146.2235   72.3364  221.0758 H   0  0  0  0  0  0  0  0  0  0  0  0
  144.7267   74.8274  221.2651 H   0  0  0  0  0  0  0  0  0  0  0  0
  146.1435   74.5372  220.2761 H   0  0  0  0  0  0  0  0  0  0  0  0
  144.7157   73.7861  218.3392 H   0  0  0  0  0  0  0  0  0  0  0  0
  142.6866   76.9936  216.2570 H   0  0  0  0  0  0  0  0  0  0  0  0
  142.2561   78.0496  220.3902 H   0  0  0  0  0  0  0  0  0  0  0  0
  138.1128   77.1213  222.6081 H   0  0  0  0  0  0  0  0  0  0  0  0
  138.4406   79.4200  223.5730 H   0  0  0  0  0  0  0  0  0  0  0  0
  139.9701   81.2586  224.1909 H   0  0  0  0  0  0  0  0  0  0  0  0
  144.2078   80.8440  223.4902 H   0  0  0  0  0  0  0  0  0  0  0  0
  143.8005   78.5669  222.5443 H   0  0  0  0  0  0  0  0  0  0  0  0
  1  2  2  0
  2  3  1  0
  3  4  1  0
  4  5  1  0
  5  6  2  0
  5  7  1  0
  7  8  1  0
  8  9  1  0
  9 10  1  0
 10 11  1  0
 11 12  1  0
 12 13  2  0
 13 14  1  0
 14 15  2  0
 15 16  1  0
 15 17  1  0
 17 18  2  0
  2 19  1  0
 19 20  2  0
 20 21  1  0
 21 22  2  0
 22 23  1  0
 23 24  2  0
 24 25  1  0
 24 26  1  0
 26 27  2  0
 27 28  1  0
 28 29  2  0
 11  7  1  0
 18 12  1  0
 29 19  1  0
 28 22  1  0
  3 30  1  0
  4 31  1  0
  4 32  1  0
  8 33  1  0
  8 34  1  0
  9 35  1  0
  9 36  1  0
 10 37  1  0
 10 38  1  0
 11 39  1  6
 14 40  1  0
 17 41  1  0
 20 42  1  0
 21 43  1  0
 23 44  1  0
 26 45  1  0
 27 46  1  0
M  END
>  <meeko>  (20) 
{"free_energy": -6.71, "intermolecular_energy": -8.2, "internal_energy": -2.99, "cluster_size": 4, "cluster_id": 3, "rank_in_cluster": 3}

$$$$
