
     RDKit          3D

 51 54  0  0  0  0  0  0  0  0999 V2000
  140.5000   72.7170  221.0210 O   0  0  0  0  0  0  0  0  0  0  0  0
  139.6920   72.7570  221.9920 C   0  0  0  0  0  0  0  0  0  0  0  0
  138.6640   73.7420  222.0050 N   0  0  0  0  0  0  0  0  0  0  0  0
  138.6250   74.6510  220.8680 C   0  0  0  0  0  0  0  0  0  0  0  0
  138.9910   76.0220  221.2360 C   0  0  0  0  0  0  0  0  0  0  0  0
  138.1700   76.8410  221.7210 O   0  0  0  0  0  0  0  0  0  0  0  0
  140.3200   76.4750  221.0510 N   0  0  0  0  0  0  0  0  0  0  0  0
  141.4890   75.6240  221.2310 C   0  0  0  0  0  0  0  0  0  0  0  0
  142.4220   75.6680  220.0850 C   0  0  0  0  0  0  0  0  0  0  0  0
  142.5970   76.9650  219.3720 C   0  0  0  0  0  0  0  0  0  0  0  0
  141.4160   77.8730  219.3770 C   0  0  0  0  0  0  0  0  0  0  0  0
  140.6270   77.8650  220.6550 C   0  0  2  0  0  0  0  0  0  0  0  0
  141.2440   78.6010  221.7690 C   0  0  0  0  0  0  0  0  0  0  0  0
  141.9650   79.7400  221.4620 C   0  0  0  0  0  0  0  0  0  0  0  0
  142.5630   80.4680  222.4720 C   0  0  0  0  0  0  0  0  0  0  0  0
  142.4830   80.1200  223.8050 C   0  0  0  0  0  0  0  0  0  0  0  0
  141.7650   78.9870  224.1090 C   0  0  0  0  0  0  0  0  0  0  0  0
  141.1630   78.2540  223.0920 C   0  0  0  0  0  0  0  0  0  0  0  0
  139.8090   71.8030  223.0880 C   0  0  0  0  0  0  0  0  0  0  0  0
  139.4060   70.5100  222.9450 C   0  0  0  0  0  0  0  0  0  0  0  0
  139.4880   69.5550  223.9400 C   0  0  0  0  0  0  0  0  0  0  0  0
  140.0240   69.9780  225.1610 C   0  0  0  0  0  0  0  0  0  0  0  0
  140.1290   69.0660  226.1920 C   0  0  0  0  0  0  0  0  0  0  0  0
  140.6550   69.4720  227.3970 C   0  0  0  0  0  0  0  0  0  0  0  0
  140.7970   68.3240  228.7190 Cl  0  0  0  0  0  0  0  0  0  0  0  0
  141.0730   70.7730  227.5780 C   0  0  0  0  0  0  0  0  0  0  0  0
  140.9580   71.6700  226.5330 C   0  0  0  0  0  0  0  0  0  0  0  0
  140.4330   71.2900  225.3090 C   0  0  0  0  0  0  0  0  0  0  0  0
  140.3250   72.1820  224.2860 N   0  0  0  0  0  0  0  0  0  0  0  0
  137.9870   73.7910  222.7980 H   0  0  0  0  0  0  0  0  0  0  0  0
  139.3288   74.2906  220.1033 H   0  0  0  0  0  0  0  0  0  0  0  0
  137.5926   74.6697  220.4887 H   0  0  0  0  0  0  0  0  0  0  0  0
  142.0263   75.9538  222.1324 H   0  0  0  0  0  0  0  0  0  0  0  0
  141.1293   74.5883  221.3208 H   0  0  0  0  0  0  0  0  0  0  0  0
  143.4114   75.3638  220.4574 H   0  0  0  0  0  0  0  0  0  0  0  0
  141.9672   75.0031  219.3360 H   0  0  0  0  0  0  0  0  0  0  0  0
  143.4350   77.4989  219.8438 H   0  0  0  0  0  0  0  0  0  0  0  0
  142.7688   76.7048  218.3171 H   0  0  0  0  0  0  0  0  0  0  0  0
  141.7711   78.8988  219.1993 H   0  0  0  0  0  0  0  0  0  0  0  0
  140.7391   77.5086  218.5902 H   0  0  0  0  0  0  0  0  0  0  0  0
  139.6988   78.4129  220.4352 H   0  0  0  0  0  0  0  0  0  0  0  0
  142.0622   80.0657  220.4158 H   0  0  0  0  0  0  0  0  0  0  0  0
  143.1312   81.3699  222.2004 H   0  0  0  0  0  0  0  0  0  0  0  0
  142.9704   80.7203  224.5873 H   0  0  0  0  0  0  0  0  0  0  0  0
  141.6671   78.6611  225.1550 H   0  0  0  0  0  0  0  0  0  0  0  0
  140.5944   77.3521  223.3628 H   0  0  0  0  0  0  0  0  0  0  0  0
  138.9879   70.2062  221.9740 H   0  0  0  0  0  0  0  0  0  0  0  0
  139.1508   68.5201  223.7810 H   0  0  0  0  0  0  0  0  0  0  0  0
  139.7961   68.0270  226.0519 H   0  0  0  0  0  0  0  0  0  0  0  0
  141.4931   71.0934  228.5428 H   0  0  0  0  0  0  0  0  0  0  0  0
  141.2907   72.7086  226.6765 H   0  0  0  0  0  0  0  0  0  0  0  0
  1  2  2  0
  2  3  1  0
  3  4  1  0
  4  5  1  0
  5  6  2  0
  5  7  1  0
  7  8  1  0
  8  9  1  0
  9 10  1  0
 10 11  1  0
 11 12  1  0
 12 13  1  0
 13 14  2  0
 14 15  1  0
 15 16  2  0
 16 17  1  0
 17 18  2  0
  2 19  1  0
 19 20  2  0
 20 21  1  0
 21 22  2  0
 22 23  1  0
 23 24  2  0
 24 25  1  0
 24 26  1  0
 26 27  2  0
 27 28  1  0
 28 29  2  0
 12  7  1  0
 18 13  1  0
 29 19  1  0
 28 22  1  0
  3 30  1  0
  4 31  1  0
  4 32  1  0
  8 33  1  0
  8 34  1  0
  9 35  1  0
  9 36  1  0
 10 37  1  0
 10 38  1  0
 11 39  1  0
 11 40  1  0
 12 41  1  6
 14 42  1  0
 15 43  1  0
 16 44  1  0
 17 45  1  0
 18 46  1  0
 20 47  1  0
 21 48  1  0
 23 49  1  0
 26 50  1  0
 27 51  1  0
M  END
>  <meeko>  (1) 
{"free_energy": -9.34, "intermolecular_energy": -10.83, "internal_energy": -1.54, "cluster_size": 14, "cluster_id": 1, "rank_in_cluster": 1}

$$$$

     RDKit          3D

 51 54  0  0  0  0  0  0  0  0999 V2000
  138.0050   72.8280  220.7000 O   0  0  0  0  0  0  0  0  0  0  0  0
  137.9300   73.5710  221.7210 C   0  0  0  0  0  0  0  0  0  0  0  0
  136.9690   73.2760  222.7300 N   0  0  0  0  0  0  0  0  0  0  0  0
  136.1250   72.1130  222.4980 C   0  0  0  0  0  0  0  0  0  0  0  0
  136.6150   70.9190  223.1930 C   0  0  0  0  0  0  0  0  0  0  0  0
  135.8570   70.1300  223.8120 O   0  0  0  0  0  0  0  0  0  0  0  0
  137.9980   70.6130  223.1860 N   0  0  0  0  0  0  0  0  0  0  0  0
  138.6330   69.8000  222.1580 C   0  0  0  0  0  0  0  0  0  0  0  0
  139.8350   70.4330  221.5760 C   0  0  0  0  0  0  0  0  0  0  0  0
  140.7080   71.2410  222.4750 C   0  0  0  0  0  0  0  0  0  0  0  0
  140.0220   71.9050  223.6190 C   0  0  0  0  0  0  0  0  0  0  0  0
  138.9150   71.1010  224.2370 C   0  0  2  0  0  0  0  0  0  0  0  0
  139.3580   69.9940  225.0980 C   0  0  0  0  0  0  0  0  0  0  0  0
  140.5120   70.1800  225.8360 C   0  0  0  0  0  0  0  0  0  0  0  0
  140.9710   69.1720  226.6620 C   0  0  0  0  0  0  0  0  0  0  0  0
  140.3300   67.9580  226.8000 C   0  0  0  0  0  0  0  0  0  0  0  0
  139.1820   67.7730  226.0650 C   0  0  0  0  0  0  0  0  0  0  0  0
  138.7210   68.7880  225.2340 C   0  0  0  0  0  0  0  0  0  0  0  0
  138.8200   74.7170  221.8670 C   0  0  0  0  0  0  0  0  0  0  0  0
  140.1230   74.6530  221.4780 C   0  0  0  0  0  0  0  0  0  0  0  0
  141.0190   75.6990  221.5860 C   0  0  0  0  0  0  0  0  0  0  0  0
  140.5220   76.8850  222.1360 C   0  0  0  0  0  0  0  0  0  0  0  0
  141.3740   77.9630  222.2690 C   0  0  0  0  0  0  0  0  0  0  0  0
  140.8940   79.1340  222.8090 C   0  0  0  0  0  0  0  0  0  0  0  0
  141.9650   80.5170  222.9850 Cl  0  0  0  0  0  0  0  0  0  0  0  0
  139.5820   79.2350  223.2140 C   0  0  0  0  0  0  0  0  0  0  0  0
  138.7460   78.1440  223.0720 C   0  0  0  0  0  0  0  0  0  0  0  0
  139.2000   76.9520  222.5320 C   0  0  0  0  0  0  0  0  0  0  0  0
  138.3680   75.8820  222.3970 N   0  0  0  0  0  0  0  0  0  0  0  0
  136.8920   73.8770  223.5800 H   0  0  0  0  0  0  0  0  0  0  0  0
  135.1089   72.3372  222.8547 H   0  0  0  0  0  0  0  0  0  0  0  0
  136.1359   71.9008  221.4187 H   0  0  0  0  0  0  0  0  0  0  0  0
  138.9256   68.8380  222.6041 H   0  0  0  0  0  0  0  0  0  0  0  0
  137.9037   69.6730  221.3444 H   0  0  0  0  0  0  0  0  0  0  0  0
  140.4558   69.6289  221.1541 H   0  0  0  0  0  0  0  0  0  0  0  0
  139.4382   71.1609  220.8531 H   0  0  0  0  0  0  0  0  0  0  0  0
  141.4797   70.5733  222.8856 H   0  0  0  0  0  0  0  0  0  0  0  0
  141.1066   72.0552  221.8520 H   0  0  0  0  0  0  0  0  0  0  0  0
  140.7724   72.1099  224.3967 H   0  0  0  0  0  0  0  0  0  0  0  0
  139.5571   72.8170  223.2164 H   0  0  0  0  0  0  0  0  0  0  0  0
  138.3886   71.7902  224.9137 H   0  0  0  0  0  0  0  0  0  0  0  0
  141.0639   71.1289  225.7658 H   0  0  0  0  0  0  0  0  0  0  0  0
  141.8922   69.3458  227.2375 H   0  0  0  0  0  0  0  0  0  0  0  0
  140.7189   67.1744  227.4669 H   0  0  0  0  0  0  0  0  0  0  0  0
  138.6299   66.8241  226.1345 H   0  0  0  0  0  0  0  0  0  0  0  0
  137.8002   68.6147  224.6576 H   0  0  0  0  0  0  0  0  0  0  0  0
  140.4860   73.7070  221.0499 H   0  0  0  0  0  0  0  0  0  0  0  0
  142.0646   75.6044  221.2578 H   0  0  0  0  0  0  0  0  0  0  0  0
  142.4232   77.8868  221.9474 H   0  0  0  0  0  0  0  0  0  0  0  0
  139.2037   80.1734  223.6456 H   0  0  0  0  0  0  0  0  0  0  0  0
  137.6974   78.2238  223.3947 H   0  0  0  0  0  0  0  0  0  0  0  0
  1  2  2  0
  2  3  1  0
  3  4  1  0
  4  5  1  0
  5  6  2  0
  5  7  1  0
  7  8  1  0
  8  9  1  0
  9 10  1  0
 10 11  1  0
 11 12  1  0
 12 13  1  0
 13 14  2  0
 14 15  1  0
 15 16  2  0
 16 17  1  0
 17 18  2  0
  2 19  1  0
 19 20  2  0
 20 21  1  0
 21 22  2  0
 22 23  1  0
 23 24  2  0
 24 25  1  0
 24 26  1  0
 26 27  2  0
 27 28  1  0
 28 29  2  0
 12  7  1  0
 18 13  1  0
 29 19  1  0
 28 22  1  0
  3 30  1  0
  4 31  1  0
  4 32  1  0
  8 33  1  0
  8 34  1  0
  9 35  1  0
  9 36  1  0
 10 37  1  0
 10 38  1  0
 11 39  1  0
 11 40  1  0
 12 41  1  1
 14 42  1  0
 15 43  1  0
 16 44  1  0
 17 45  1  0
 18 46  1  0
 20 47  1  0
 21 48  1  0
 23 49  1  0
 26 50  1  0
 27 51  1  0
M  END
>  <meeko>  (2) 
{"free_energy": -7.59, "intermolecular_energy": -9.09, "internal_energy": -2.17, "cluster_size": 4, "cluster_id": 2, "rank_in_cluster": 4}

$$$$

     RDKit          3D

 51 54  0  0  0  0  0  0  0  0999 V2000
  138.2770   71.7830  221.0250 O   0  0  0  0  0  0  0  0  0  0  0  0
  138.7770   72.2490  222.0880 C   0  0  0  0  0  0  0  0  0  0  0  0
  138.9750   73.6540  222.2090 N   0  0  0  0  0  0  0  0  0  0  0  0
  138.5760   74.4640  221.0670 C   0  0  0  0  0  0  0  0  0  0  0  0
  139.0080   75.8590  221.1940 C   0  0  0  0  0  0  0  0  0  0  0  0
  138.2050   76.8080  221.3810 O   0  0  0  0  0  0  0  0  0  0  0  0
  140.3830   76.1870  221.1060 N   0  0  0  0  0  0  0  0  0  0  0  0
  141.4490   75.2870  221.5240 C   0  0  0  0  0  0  0  0  0  0  0  0
  142.4960   75.1090  220.4960 C   0  0  0  0  0  0  0  0  0  0  0  0
  142.8550   76.2820  219.6490 C   0  0  0  0  0  0  0  0  0  0  0  0
  141.7620   77.2650  219.4050 C   0  0  0  0  0  0  0  0  0  0  0  0
  140.8480   77.4850  220.5750 C   0  0  2  0  0  0  0  0  0  0  0  0
  141.4060   78.3190  221.6510 C   0  0  0  0  0  0  0  0  0  0  0  0
  141.1290   77.9520  222.9550 C   0  0  0  0  0  0  0  0  0  0  0  0
  141.6300   78.7010  224.0010 C   0  0  0  0  0  0  0  0  0  0  0  0
  142.4120   79.8240  223.8210 C   0  0  0  0  0  0  0  0  0  0  0  0
  142.6870   80.1890  222.5230 C   0  0  0  0  0  0  0  0  0  0  0  0
  142.1820   79.4340  221.4700 C   0  0  0  0  0  0  0  0  0  0  0  0
  139.1470   71.3590  223.1820 C   0  0  0  0  0  0  0  0  0  0  0  0
  138.8890   70.0230  223.1220 C   0  0  0  0  0  0  0  0  0  0  0  0
  139.2120   69.1230  224.1200 C   0  0  0  0  0  0  0  0  0  0  0  0
  139.8430   69.6520  225.2500 C   0  0  0  0  0  0  0  0  0  0  0  0
  140.1880   68.8000  226.2790 C   0  0  0  0  0  0  0  0  0  0  0  0
  140.8090   69.3110  227.3950 C   0  0  0  0  0  0  0  0  0  0  0  0
  141.2560   68.2390  228.7140 Cl  0  0  0  0  0  0  0  0  0  0  0  0
  141.0850   70.6580  227.4900 C   0  0  0  0  0  0  0  0  0  0  0  0
  140.7310   71.4940  226.4500 C   0  0  0  0  0  0  0  0  0  0  0  0
  140.1050   71.0090  225.3130 C   0  0  0  0  0  0  0  0  0  0  0  0
  139.7600   71.8420  224.2920 N   0  0  0  0  0  0  0  0  0  0  0  0
  139.3870   74.0580  223.0800 H   0  0  0  0  0  0  0  0  0  0  0  0
  139.0233   74.0370  220.1573 H   0  0  0  0  0  0  0  0  0  0  0  0
  137.4772   74.4561  221.0173 H   0  0  0  0  0  0  0  0  0  0  0  0
  141.9162   75.6961  222.4320 H   0  0  0  0  0  0  0  0  0  0  0  0
  140.9942   74.3014  221.7021 H   0  0  0  0  0  0  0  0  0  0  0  0
  143.4116   74.7881  221.0144 H   0  0  0  0  0  0  0  0  0  0  0  0
  142.0659   74.3832  219.7902 H   0  0  0  0  0  0  0  0  0  0  0  0
  143.6827   76.8132  220.1416 H   0  0  0  0  0  0  0  0  0  0  0  0
  143.1119   75.8700  218.6619 H   0  0  0  0  0  0  0  0  0  0  0  0
  142.2204   78.2296  219.1414 H   0  0  0  0  0  0  0  0  0  0  0  0
  141.1414   76.8479  218.5982 H   0  0  0  0  0  0  0  0  0  0  0  0
  139.9984   78.0630  220.1825 H   0  0  0  0  0  0  0  0  0  0  0  0
  140.5108   77.0652  223.1586 H   0  0  0  0  0  0  0  0  0  0  0  0
  141.3943   78.3873  225.0286 H   0  0  0  0  0  0  0  0  0  0  0  0
  142.7974   80.4002  224.6751 H   0  0  0  0  0  0  0  0  0  0  0  0
  143.3048   81.0759  222.3188 H   0  0  0  0  0  0  0  0  0  0  0  0
  142.4168   79.7469  220.4419 H   0  0  0  0  0  0  0  0  0  0  0  0
  138.3914   69.6352  222.2209 H   0  0  0  0  0  0  0  0  0  0  0  0
  138.9853   68.0504  224.0303 H   0  0  0  0  0  0  0  0  0  0  0  0
  139.9690   67.7244  226.2078 H   0  0  0  0  0  0  0  0  0  0  0  0
  141.5817   71.0623  228.3843 H   0  0  0  0  0  0  0  0  0  0  0  0
  140.9508   72.5692  226.5256 H   0  0  0  0  0  0  0  0  0  0  0  0
  1  2  2  0
  2  3  1  0
  3  4  1  0
  4  5  1  0
  5  6  2  0
  5  7  1  0
  7  8  1  0
  8  9  1  0
  9 10  1  0
 10 11  1  0
 11 12  1  0
 12 13  1  0
 13 14  2  0
 14 15  1  0
 15 16  2  0
 16 17  1  0
 17 18  2  0
  2 19  1  0
 19 20  2  0
 20 21  1  0
 21 22  2  0
 22 23  1  0
 23 24  2  0
 24 25  1  0
 24 26  1  0
 26 27  2  0
 27 28  1  0
 28 29  2  0
 12  7  1  0
 18 13  1  0
 29 19  1  0
 28 22  1  0
  3 30  1  0
  4 31  1  0
  4 32  1  0
  8 33  1  0
  8 34  1  0
  9 35  1  0
  9 36  1  0
 10 37  1  0
 10 38  1  0
 11 39  1  0
 11 40  1  0
 12 41  1  6
 14 42  1  0
 15 43  1  0
 16 44  1  0
 17 45  1  0
 18 46  1  0
 20 47  1  0
 21 48  1  0
 23 49  1  0
 26 50  1  0
 27 51  1  0
M  END
>  <meeko>  (3) 
{"free_energy": -8.85, "intermolecular_energy": -10.34, "internal_energy": -1.56, "cluster_size": 14, "cluster_id": 1, "rank_in_cluster": 13}

$$$$

     RDKit          3D

 51 54  0  0  0  0  0  0  0  0999 V2000
  140.2140   72.4060  220.7100 O   0  0  0  0  0  0  0  0  0  0  0  0
  140.0050   72.8160  221.8870 C   0  0  0  0  0  0  0  0  0  0  0  0
  139.7660   74.2020  222.1120 N   0  0  0  0  0  0  0  0  0  0  0  0
  139.7840   75.0600  220.9360 C   0  0  0  0  0  0  0  0  0  0  0  0
  141.1460   75.3890  220.5060 C   0  0  0  0  0  0  0  0  0  0  0  0
  142.0480   74.5240  220.3700 O   0  0  0  0  0  0  0  0  0  0  0  0
  141.4950   76.7320  220.2220 N   0  0  0  0  0  0  0  0  0  0  0  0
  142.7570   77.1190  219.6060 C   0  0  0  0  0  0  0  0  0  0  0  0
  142.5860   78.0140  218.4420 C   0  0  0  0  0  0  0  0  0  0  0  0
  141.4850   79.0180  218.4840 C   0  0  0  0  0  0  0  0  0  0  0  0
  140.2880   78.6350  219.2840 C   0  0  0  0  0  0  0  0  0  0  0  0
  140.5930   77.8600  220.5340 C   0  0  2  0  0  0  0  0  0  0  0  0
  141.1230   78.6620  221.6460 C   0  0  0  0  0  0  0  0  0  0  0  0
  141.4130   78.0050  222.8280 C   0  0  0  0  0  0  0  0  0  0  0  0
  141.9140   78.7120  223.9030 C   0  0  0  0  0  0  0  0  0  0  0  0
  142.1510   80.0710  223.8700 C   0  0  0  0  0  0  0  0  0  0  0  0
  141.8620   80.7240  222.6950 C   0  0  0  0  0  0  0  0  0  0  0  0
  141.3570   80.0120  221.6120 C   0  0  0  0  0  0  0  0  0  0  0  0
  140.0050   71.8810  223.0060 C   0  0  0  0  0  0  0  0  0  0  0  0
  139.4920   70.6260  222.8770 C   0  0  0  0  0  0  0  0  0  0  0  0
  139.4610   69.6900  223.8930 C   0  0  0  0  0  0  0  0  0  0  0  0
  140.0000   70.0910  225.1200 C   0  0  0  0  0  0  0  0  0  0  0  0
  139.9940   69.1970  226.1710 C   0  0  0  0  0  0  0  0  0  0  0  0
  140.5220   69.5820  227.3830 C   0  0  0  0  0  0  0  0  0  0  0  0
  140.5240   68.4560  228.7320 Cl  0  0  0  0  0  0  0  0  0  0  0  0
  141.0500   70.8440  227.5500 C   0  0  0  0  0  0  0  0  0  0  0  0
  141.0450   71.7230  226.4850 C   0  0  0  0  0  0  0  0  0  0  0  0
  140.5210   71.3650  225.2530 C   0  0  0  0  0  0  0  0  0  0  0  0
  140.5210   72.2400  224.2100 N   0  0  0  0  0  0  0  0  0  0  0  0
  139.5900   74.5600  223.0770 H   0  0  0  0  0  0  0  0  0  0  0  0
  139.2689   74.5426  220.1132 H   0  0  0  0  0  0  0  0  0  0  0  0
  139.2786   76.0009  221.1992 H   0  0  0  0  0  0  0  0  0  0  0  0
  143.3691   77.6374  220.3588 H   0  0  0  0  0  0  0  0  0  0  0  0
  143.2396   76.1994  219.2434 H   0  0  0  0  0  0  0  0  0  0  0  0
  143.5280   78.5675  218.3144 H   0  0  0  0  0  0  0  0  0  0  0  0
  142.3107   77.3404  217.6171 H   0  0  0  0  0  0  0  0  0  0  0  0
  141.8918   79.9473  218.9093 H   0  0  0  0  0  0  0  0  0  0  0  0
  141.1318   79.1173  217.4470 H   0  0  0  0  0  0  0  0  0  0  0  0
  139.7587   79.5554  219.5716 H   0  0  0  0  0  0  0  0  0  0  0  0
  139.6854   77.9722  218.6455 H   0  0  0  0  0  0  0  0  0  0  0  0
  139.6246   77.4840  220.8957 H   0  0  0  0  0  0  0  0  0  0  0  0
  141.2448   76.9211  222.9115 H   0  0  0  0  0  0  0  0  0  0  0  0
  142.1351   78.1650  224.8314 H   0  0  0  0  0  0  0  0  0  0  0  0
  142.5523   80.6068  224.7428 H   0  0  0  0  0  0  0  0  0  0  0  0
  142.0299   81.8079  222.6116 H   0  0  0  0  0  0  0  0  0  0  0  0
  141.1348   80.5587  220.6837 H   0  0  0  0  0  0  0  0  0  0  0  0
  139.0752   70.3388  221.9004 H   0  0  0  0  0  0  0  0  0  0  0  0
  139.0364   68.6861  223.7453 H   0  0  0  0  0  0  0  0  0  0  0  0
  139.5726   68.1891  226.0422 H   0  0  0  0  0  0  0  0  0  0  0  0
  141.4704   71.1475  228.5201 H   0  0  0  0  0  0  0  0  0  0  0  0
  141.4666   72.7303  226.6176 H   0  0  0  0  0  0  0  0  0  0  0  0
  1  2  2  0
  2  3  1  0
  3  4  1  0
  4  5  1  0
  5  6  2  0
  5  7  1  0
  7  8  1  0
  8  9  1  0
  9 10  1  0
 10 11  1  0
 11 12  1  0
 12 13  1  0
 13 14  2  0
 14 15  1  0
 15 16  2  0
 16 17  1  0
 17 18  2  0
  2 19  1  0
 19 20  2  0
 20 21  1  0
 21 22  2  0
 22 23  1  0
 23 24  2  0
 24 25  1  0
 24 26  1  0
 26 27  2  0
 27 28  1  0
 28 29  2  0
 12  7  1  0
 18 13  1  0
 29 19  1  0
 28 22  1  0
  3 30  1  0
  4 31  1  0
  4 32  1  0
  8 33  1  0
  8 34  1  0
  9 35  1  0
  9 36  1  0
 10 37  1  0
 10 38  1  0
 11 39  1  0
 11 40  1  0
 12 41  1  1
 14 42  1  0
 15 43  1  0
 16 44  1  0
 17 45  1  0
 18 46  1  0
 20 47  1  0
 21 48  1  0
 23 49  1  0
 26 50  1  0
 27 51  1  0
M  END
>  <meeko>  (4) 
{"free_energy": -8.89, "intermolecular_energy": -10.38, "internal_energy": -1.48, "cluster_size": 14, "cluster_id": 1, "rank_in_cluster": 12}

$$$$

     RDKit          3D

 51 54  0  0  0  0  0  0  0  0999 V2000
  139.2470   71.9040  220.7130 O   0  0  0  0  0  0  0  0  0  0  0  0
  139.1800   72.3440  221.8970 C   0  0  0  0  0  0  0  0  0  0  0  0
  138.8560   73.7130  222.1170 N   0  0  0  0  0  0  0  0  0  0  0  0
  138.6220   74.5210  220.9280 C   0  0  0  0  0  0  0  0  0  0  0  0
  139.0230   75.9180  221.1150 C   0  0  0  0  0  0  0  0  0  0  0  0
  138.1980   76.8410  221.3340 O   0  0  0  0  0  0  0  0  0  0  0  0
  140.3910   76.2780  221.0520 N   0  0  0  0  0  0  0  0  0  0  0  0
  141.4710   75.3970  221.4730 C   0  0  0  0  0  0  0  0  0  0  0  0
  142.5370   75.2560  220.4590 C   0  0  0  0  0  0  0  0  0  0  0  0
  142.8820   76.4490  219.6330 C   0  0  0  0  0  0  0  0  0  0  0  0
  141.7700   77.4100  219.3860 C   0  0  0  0  0  0  0  0  0  0  0  0
  140.8340   77.5940  220.5460 C   0  0  2  0  0  0  0  0  0  0  0  0
  141.3570   78.4250  221.6400 C   0  0  0  0  0  0  0  0  0  0  0  0
  141.0680   78.0350  222.9350 C   0  0  0  0  0  0  0  0  0  0  0  0
  141.5360   78.7810  223.9990 C   0  0  0  0  0  0  0  0  0  0  0  0
  142.2970   79.9220  223.8460 C   0  0  0  0  0  0  0  0  0  0  0  0
  142.5850   80.3090  222.5570 C   0  0  0  0  0  0  0  0  0  0  0  0
  142.1130   79.5580  221.4870 C   0  0  0  0  0  0  0  0  0  0  0  0
  139.4310   71.4580  223.0280 C   0  0  0  0  0  0  0  0  0  0  0  0
  139.0940   70.1390  222.9800 C   0  0  0  0  0  0  0  0  0  0  0  0
  139.3030   69.2450  224.0120 C   0  0  0  0  0  0  0  0  0  0  0  0
  139.9010   69.7610  225.1660 C   0  0  0  0  0  0  0  0  0  0  0  0
  140.1330   68.9130  226.2300 C   0  0  0  0  0  0  0  0  0  0  0  0
  140.7200   69.4120  227.3710 C   0  0  0  0  0  0  0  0  0  0  0  0
  141.0240   68.3460  228.7340 Cl  0  0  0  0  0  0  0  0  0  0  0  0
  141.0740   70.7400  227.4550 C   0  0  0  0  0  0  0  0  0  0  0  0
  140.8330   71.5720  226.3790 C   0  0  0  0  0  0  0  0  0  0  0  0
  140.2430   71.1000  225.2170 C   0  0  0  0  0  0  0  0  0  0  0  0
  140.0090   71.9280  224.1620 N   0  0  0  0  0  0  0  0  0  0  0  0
  138.7950   74.0940  223.0870 H   0  0  0  0  0  0  0  0  0  0  0  0
  139.1988   74.0965  220.0931 H   0  0  0  0  0  0  0  0  0  0  0  0
  137.5420   74.5068  220.7196 H   0  0  0  0  0  0  0  0  0  0  0  0
  141.9155   75.8041  222.3931 H   0  0  0  0  0  0  0  0  0  0  0  0
  141.0359   74.3991  221.6304 H   0  0  0  0  0  0  0  0  0  0  0  0
  143.4517   74.9485  220.9870 H   0  0  0  0  0  0  0  0  0  0  0  0
  142.1343   74.5301  219.7372 H   0  0  0  0  0  0  0  0  0  0  0  0
  143.6899   76.9920  220.1452 H   0  0  0  0  0  0  0  0  0  0  0  0
  143.1633   76.0569  218.6445 H   0  0  0  0  0  0  0  0  0  0  0  0
  142.2097   78.3882  219.1414 H   0  0  0  0  0  0  0  0  0  0  0  0
  141.1706   76.9892  218.5652 H   0  0  0  0  0  0  0  0  0  0  0  0
  139.9772   78.1587  220.1497 H   0  0  0  0  0  0  0  0  0  0  0  0
  140.4665   77.1323  223.1173 H   0  0  0  0  0  0  0  0  0  0  0  0
  141.2900   78.4493  225.0185 H   0  0  0  0  0  0  0  0  0  0  0  0
  142.6564   80.4951  224.7133 H   0  0  0  0  0  0  0  0  0  0  0  0
  143.1876   81.2109  222.3740 H   0  0  0  0  0  0  0  0  0  0  0  0
  142.3583   79.8892  220.4671 H   0  0  0  0  0  0  0  0  0  0  0  0
  138.6249   69.7613  222.0595 H   0  0  0  0  0  0  0  0  0  0  0  0
  139.0152   68.1864  223.9307 H   0  0  0  0  0  0  0  0  0  0  0  0
  139.8523   67.8513  226.1671 H   0  0  0  0  0  0  0  0  0  0  0  0
  141.5434   71.1339  228.3685 H   0  0  0  0  0  0  0  0  0  0  0  0
  141.1156   72.6330  226.4458 H   0  0  0  0  0  0  0  0  0  0  0  0
  1  2  2  0
  2  3  1  0
  3  4  1  0
  4  5  1  0
  5  6  2  0
  5  7  1  0
  7  8  1  0
  8  9  1  0
  9 10  1  0
 10 11  1  0
 11 12  1  0
 12 13  1  0
 13 14  2  0
 14 15  1  0
 15 16  2  0
 16 17  1  0
 17 18  2  0
  2 19  1  0
 19 20  2  0
 20 21  1  0
 21 22  2  0
 22 23  1  0
 23 24  2  0
 24 25  1  0
 24 26  1  0
 26 27  2  0
 27 28  1  0
 28 29  2  0
 12  7  1  0
 18 13  1  0
 29 19  1  0
 28 22  1  0
  3 30  1  0
  4 31  1  0
  4 32  1  0
  8 33  1  0
  8 34  1  0
  9 35  1  0
  9 36  1  0
 10 37  1  0
 10 38  1  0
 11 39  1  0
 11 40  1  0
 12 41  1  6
 14 42  1  0
 15 43  1  0
 16 44  1  0
 17 45  1  0
 18 46  1  0
 20 47  1  0
 21 48  1  0
 23 49  1  0
 26 50  1  0
 27 51  1  0
M  END
>  <meeko>  (5) 
{"free_energy": -9.09, "intermolecular_energy": -10.58, "internal_energy": -1.52, "cluster_size": 14, "cluster_id": 1, "rank_in_cluster": 9}

$$$$

     RDKit          3D

 51 54  0  0  0  0  0  0  0  0999 V2000
  140.3520   72.1520  220.9010 O   0  0  0  0  0  0  0  0  0  0  0  0
  139.8340   72.4400  222.0180 C   0  0  0  0  0  0  0  0  0  0  0  0
  139.1590   73.6850  222.1740 N   0  0  0  0  0  0  0  0  0  0  0  0
  139.1210   74.5510  221.0050 C   0  0  0  0  0  0  0  0  0  0  0  0
  139.3240   75.9610  221.3470 C   0  0  0  0  0  0  0  0  0  0  0  0
  138.4720   76.6430  221.9700 O   0  0  0  0  0  0  0  0  0  0  0  0
  140.5240   76.6150  220.9730 N   0  0  0  0  0  0  0  0  0  0  0  0
  141.8030   75.9300  220.8450 C   0  0  0  0  0  0  0  0  0  0  0  0
  142.4820   76.2020  219.5610 C   0  0  0  0  0  0  0  0  0  0  0  0
  142.3500   77.5640  218.9710 C   0  0  0  0  0  0  0  0  0  0  0  0
  141.0880   78.2890  219.2890 C   0  0  0  0  0  0  0  0  0  0  0  0
  140.5700   78.0620  220.6800 C   0  0  2  0  0  0  0  0  0  0  0  0
  141.2930   78.7860  221.7360 C   0  0  0  0  0  0  0  0  0  0  0  0
  141.1250   78.3550  223.0390 C   0  0  0  0  0  0  0  0  0  0  0  0
  141.7830   79.0000  224.0680 C   0  0  0  0  0  0  0  0  0  0  0  0
  142.6200   80.0780  223.8710 C   0  0  0  0  0  0  0  0  0  0  0  0
  142.7870   80.5080  222.5740 C   0  0  0  0  0  0  0  0  0  0  0  0
  142.1250   79.8580  221.5390 C   0  0  0  0  0  0  0  0  0  0  0  0
  139.9240   71.5080  223.1350 C   0  0  0  0  0  0  0  0  0  0  0  0
  139.5210   70.2130  223.0080 C   0  0  0  0  0  0  0  0  0  0  0  0
  139.5780   69.2780  224.0240 C   0  0  0  0  0  0  0  0  0  0  0  0
  140.0880   69.7230  225.2470 C   0  0  0  0  0  0  0  0  0  0  0  0
  140.1680   68.8320  226.2980 C   0  0  0  0  0  0  0  0  0  0  0  0
  140.6680   69.2610  227.5060 C   0  0  0  0  0  0  0  0  0  0  0  0
  140.7770   68.1390  228.8540 Cl  0  0  0  0  0  0  0  0  0  0  0  0
  141.0850   70.5630  227.6710 C   0  0  0  0  0  0  0  0  0  0  0  0
  140.9960   71.4400  226.6070 C   0  0  0  0  0  0  0  0  0  0  0  0
  140.4970   71.0380  225.3780 C   0  0  0  0  0  0  0  0  0  0  0  0
  140.4140   71.9100  224.3360 N   0  0  0  0  0  0  0  0  0  0  0  0
  138.7250   73.9410  223.0890 H   0  0  0  0  0  0  0  0  0  0  0  0
  139.9131   74.2390  220.3085 H   0  0  0  0  0  0  0  0  0  0  0  0
  138.1238   74.4566  220.5503 H   0  0  0  0  0  0  0  0  0  0  0  0
  142.4593   76.2586  221.6643 H   0  0  0  0  0  0  0  0  0  0  0  0
  141.6011   74.8495  220.8861 H   0  0  0  0  0  0  0  0  0  0  0  0
  143.5552   76.0148  219.7132 H   0  0  0  0  0  0  0  0  0  0  0  0
  141.9777   75.5418  218.8400 H   0  0  0  0  0  0  0  0  0  0  0  0
  143.1902   78.1729  219.3362 H   0  0  0  0  0  0  0  0  0  0  0  0
  142.3439   77.4179  217.8808 H   0  0  0  0  0  0  0  0  0  0  0  0
  141.2700   79.3664  219.1623 H   0  0  0  0  0  0  0  0  0  0  0  0
  140.3222   77.8971  218.6034 H   0  0  0  0  0  0  0  0  0  0  0  0
  139.5549   78.4855  220.6924 H   0  0  0  0  0  0  0  0  0  0  0  0
  140.4682   77.4996  223.2558 H   0  0  0  0  0  0  0  0  0  0  0  0
  141.6319   78.6359  225.0949 H   0  0  0  0  0  0  0  0  0  0  0  0
  143.1305   80.5714  224.7112 H   0  0  0  0  0  0  0  0  0  0  0  0
  143.4429   81.3641  222.3572 H   0  0  0  0  0  0  0  0  0  0  0  0
  142.2759   80.2213  220.5117 H   0  0  0  0  0  0  0  0  0  0  0  0
  139.1246   69.8907  222.0338 H   0  0  0  0  0  0  0  0  0  0  0  0
  139.2408   68.2411  223.8784 H   0  0  0  0  0  0  0  0  0  0  0  0
  139.8359   67.7910  226.1714 H   0  0  0  0  0  0  0  0  0  0  0  0
  141.4843   70.9009  228.6387 H   0  0  0  0  0  0  0  0  0  0  0  0
  141.3286   72.4803  226.7382 H   0  0  0  0  0  0  0  0  0  0  0  0
  1  2  2  0
  2  3  1  0
  3  4  1  0
  4  5  1  0
  5  6  2  0
  5  7  1  0
  7  8  1  0
  8  9  1  0
  9 10  1  0
 10 11  1  0
 11 12  1  0
 12 13  1  0
 13 14  2  0
 14 15  1  0
 15 16  2  0
 16 17  1  0
 17 18  2  0
  2 19  1  0
 19 20  2  0
 20 21  1  0
 21 22  2  0
 22 23  1  0
 23 24  2  0
 24 25  1  0
 24 26  1  0
 26 27  2  0
 27 28  1  0
 28 29  2  0
 12  7  1  0
 18 13  1  0
 29 19  1  0
 28 22  1  0
  3 30  1  0
  4 31  1  0
  4 32  1  0
  8 33  1  0
  8 34  1  0
  9 35  1  0
  9 36  1  0
 10 37  1  0
 10 38  1  0
 11 39  1  0
 11 40  1  0
 12 41  1  6
 14 42  1  0
 15 43  1  0
 16 44  1  0
 17 45  1  0
 18 46  1  0
 20 47  1  0
 21 48  1  0
 23 49  1  0
 26 50  1  0
 27 51  1  0
M  END
>  <meeko>  (6) 
{"free_energy": -9.31, "intermolecular_energy": -10.8, "internal_energy": -1.5, "cluster_size": 14, "cluster_id": 1, "rank_in_cluster": 4}

$$$$

     RDKit          3D

 51 54  0  0  0  0  0  0  0  0999 V2000
  139.7130   71.9770  220.6890 O   0  0  0  0  0  0  0  0  0  0  0  0
  139.5610   72.3890  221.8740 C   0  0  0  0  0  0  0  0  0  0  0  0
  139.2300   73.7550  222.1020 N   0  0  0  0  0  0  0  0  0  0  0  0
  139.0920   74.5930  220.9190 C   0  0  0  0  0  0  0  0  0  0  0  0
  140.1590   75.5920  220.8150 C   0  0  0  0  0  0  0  0  0  0  0  0
  140.2000   76.6250  221.5300 O   0  0  0  0  0  0  0  0  0  0  0  0
  141.2050   75.4160  219.8760 N   0  0  0  0  0  0  0  0  0  0  0  0
  140.9970   74.8920  218.5340 C   0  0  0  0  0  0  0  0  0  0  0  0
  141.6010   75.7350  217.4800 C   0  0  0  0  0  0  0  0  0  0  0  0
  142.8940   76.4130  217.7790 C   0  0  0  0  0  0  0  0  0  0  0  0
  143.1260   76.7650  219.2090 C   0  0  0  0  0  0  0  0  0  0  0  0
  142.6080   75.7560  220.1920 C   0  0  2  0  0  0  0  0  0  0  0  0
  143.4230   74.5390  220.3210 C   0  0  0  0  0  0  0  0  0  0  0  0
  144.7930   74.6940  220.4230 C   0  0  0  0  0  0  0  0  0  0  0  0
  145.6050   73.5830  220.5470 C   0  0  0  0  0  0  0  0  0  0  0  0
  145.1190   72.2920  220.5770 C   0  0  0  0  0  0  0  0  0  0  0  0
  143.7550   72.1380  220.4750 C   0  0  0  0  0  0  0  0  0  0  0  0
  142.9390   73.2570  220.3510 C   0  0  0  0  0  0  0  0  0  0  0  0
  139.7200   71.4750  222.9980 C   0  0  0  0  0  0  0  0  0  0  0  0
  139.3550   70.1660  222.9010 C   0  0  0  0  0  0  0  0  0  0  0  0
  139.4790   69.2460  223.9250 C   0  0  0  0  0  0  0  0  0  0  0  0
  140.0160   69.7240  225.1250 C   0  0  0  0  0  0  0  0  0  0  0  0
  140.1610   68.8490  226.1820 C   0  0  0  0  0  0  0  0  0  0  0  0
  140.6890   69.3090  227.3670 C   0  0  0  0  0  0  0  0  0  0  0  0
  140.8820   68.2090  228.7230 Cl  0  0  0  0  0  0  0  0  0  0  0  0
  141.0690   70.6270  227.5010 C   0  0  0  0  0  0  0  0  0  0  0  0
  140.9140   71.4860  226.4310 C   0  0  0  0  0  0  0  0  0  0  0  0
  140.3860   71.0520  225.2260 C   0  0  0  0  0  0  0  0  0  0  0  0
  140.2380   71.9070  224.1760 N   0  0  0  0  0  0  0  0  0  0  0  0
  139.0990   74.1140  223.0740 H   0  0  0  0  0  0  0  0  0  0  0  0
  139.1206   73.9512  220.0261 H   0  0  0  0  0  0  0  0  0  0  0  0
  138.1356   75.1306  220.9983 H   0  0  0  0  0  0  0  0  0  0  0  0
  141.4433   73.8882  218.4775 H   0  0  0  0  0  0  0  0  0  0  0  0
  139.9118   74.8721  218.3551 H   0  0  0  0  0  0  0  0  0  0  0  0
  141.7642   75.0931  216.6018 H   0  0  0  0  0  0  0  0  0  0  0  0
  140.8848   76.5588  217.3443 H   0  0  0  0  0  0  0  0  0  0  0  0
  143.7073   75.7448  217.4596 H   0  0  0  0  0  0  0  0  0  0  0  0
  142.8623   77.3697  217.2370 H   0  0  0  0  0  0  0  0  0  0  0  0
  144.2097   76.8711  219.3649 H   0  0  0  0  0  0  0  0  0  0  0  0
  142.5705   77.6960  219.3953 H   0  0  0  0  0  0  0  0  0  0  0  0
  142.6710   76.2420  221.1768 H   0  0  0  0  0  0  0  0  0  0  0  0
  145.2361   75.7007  220.4055 H   0  0  0  0  0  0  0  0  0  0  0  0
  146.6916   73.7351  220.6256 H   0  0  0  0  0  0  0  0  0  0  0  0
  145.7902   71.4263  220.6777 H   0  0  0  0  0  0  0  0  0  0  0  0
  143.3113   71.1316  220.4916 H   0  0  0  0  0  0  0  0  0  0  0  0
  141.8522   73.1061  220.2732 H   0  0  0  0  0  0  0  0  0  0  0  0
  138.9343   69.8188  221.9458 H   0  0  0  0  0  0  0  0  0  0  0  0
  139.1726   68.1966  223.8032 H   0  0  0  0  0  0  0  0  0  0  0  0
  139.8583   67.7965  226.0789 H   0  0  0  0  0  0  0  0  0  0  0  0
  141.4910   70.9905  228.4496 H   0  0  0  0  0  0  0  0  0  0  0  0
  141.2165   72.5382  226.5378 H   0  0  0  0  0  0  0  0  0  0  0  0
  1  2  2  0
  2  3  1  0
  3  4  1  0
  4  5  1  0
  5  6  2  0
  5  7  1  0
  7  8  1  0
  8  9  1  0
  9 10  1  0
 10 11  1  0
 11 12  1  0
 12 13  1  0
 13 14  2  0
 14 15  1  0
 15 16  2  0
 16 17  1  0
 17 18  2  0
  2 19  1  0
 19 20  2  0
 20 21  1  0
 21 22  2  0
 22 23  1  0
 23 24  2  0
 24 25  1  0
 24 26  1  0
 26 27  2  0
 27 28  1  0
 28 29  2  0
 12  7  1  0
 18 13  1  0
 29 19  1  0
 28 22  1  0
  3 30  1  0
  4 31  1  0
  4 32  1  0
  8 33  1  0
  8 34  1  0
  9 35  1  0
  9 36  1  0
 10 37  1  0
 10 38  1  0
 11 39  1  0
 11 40  1  0
 12 41  1  1
 14 42  1  0
 15 43  1  0
 16 44  1  0
 17 45  1  0
 18 46  1  0
 20 47  1  0
 21 48  1  0
 23 49  1  0
 26 50  1  0
 27 51  1  0
M  END
>  <meeko>  (7) 
{"free_energy": -8.25, "intermolecular_energy": -9.74, "internal_energy": -1.88, "cluster_size": 1, "cluster_id": 4, "rank_in_cluster": 1}

$$$$

     RDKit          3D

 51 54  0  0  0  0  0  0  0  0999 V2000
  140.7210   73.3860  220.3570 O   0  0  0  0  0  0  0  0  0  0  0  0
  140.1810   74.1710  221.1870 C   0  0  0  0  0  0  0  0  0  0  0  0
  139.1470   73.6860  222.0380 N   0  0  0  0  0  0  0  0  0  0  0  0
  138.7820   72.2860  221.8770 C   0  0  0  0  0  0  0  0  0  0  0  0
  139.6510   71.3900  222.6460 C   0  0  0  0  0  0  0  0  0  0  0  0
  140.8390   71.1420  222.3170 O   0  0  0  0  0  0  0  0  0  0  0  0
  139.1620   70.7600  223.8160 N   0  0  0  0  0  0  0  0  0  0  0  0
  137.8040   70.9350  224.3130 C   0  0  0  0  0  0  0  0  0  0  0  0
  137.1180   69.6570  224.5960 C   0  0  0  0  0  0  0  0  0  0  0  0
  137.9290   68.5320  225.1430 C   0  0  0  0  0  0  0  0  0  0  0  0
  139.3630   68.5090  224.7390 C   0  0  0  0  0  0  0  0  0  0  0  0
  140.0040   69.8630  224.6350 C   0  0  2  0  0  0  0  0  0  0  0  0
  140.3390   70.4920  225.9220 C   0  0  0  0  0  0  0  0  0  0  0  0
  141.0940   71.6490  225.8920 C   0  0  0  0  0  0  0  0  0  0  0  0
  141.4350   72.2790  227.0730 C   0  0  0  0  0  0  0  0  0  0  0  0
  141.0570   71.8120  228.3150 C   0  0  0  0  0  0  0  0  0  0  0  0
  140.3050   70.6600  228.3450 C   0  0  0  0  0  0  0  0  0  0  0  0
  139.9630   70.0270  227.1550 C   0  0  0  0  0  0  0  0  0  0  0  0
  140.6140   75.5600  221.2770 C   0  0  0  0  0  0  0  0  0  0  0  0
  141.5760   76.0550  220.4500 C   0  0  0  0  0  0  0  0  0  0  0  0
  142.0320   77.3590  220.4790 C   0  0  0  0  0  0  0  0  0  0  0  0
  141.4460   78.1980  221.4330 C   0  0  0  0  0  0  0  0  0  0  0  0
  141.8640   79.5110  221.5090 C   0  0  0  0  0  0  0  0  0  0  0  0
  141.2940   80.3440  222.4440 C   0  0  0  0  0  0  0  0  0  0  0  0
  141.8130   82.0190  222.5530 Cl  0  0  0  0  0  0  0  0  0  0  0  0
  140.3180   79.8780  223.2980 C   0  0  0  0  0  0  0  0  0  0  0  0
  139.9150   78.5600  223.2060 C   0  0  0  0  0  0  0  0  0  0  0  0
  140.4700   77.6970  222.2750 C   0  0  0  0  0  0  0  0  0  0  0  0
  140.0650   76.4000  222.1920 N   0  0  0  0  0  0  0  0  0  0  0  0
  138.6900   74.3190  222.7310 H   0  0  0  0  0  0  0  0  0  0  0  0
  137.7448   72.1500  222.2171 H   0  0  0  0  0  0  0  0  0  0  0  0
  138.8940   72.0304  220.8130 H   0  0  0  0  0  0  0  0  0  0  0  0
  137.8448   71.5230  225.2418 H   0  0  0  0  0  0  0  0  0  0  0  0
  137.2311   71.4459  223.5251 H   0  0  0  0  0  0  0  0  0  0  0  0
  136.3200   69.8684  225.3230 H   0  0  0  0  0  0  0  0  0  0  0  0
  136.7847   69.3006  223.6101 H   0  0  0  0  0  0  0  0  0  0  0  0
  137.8887   68.5897  226.2408 H   0  0  0  0  0  0  0  0  0  0  0  0
  137.4868   67.6151  224.7261 H   0  0  0  0  0  0  0  0  0  0  0  0
  139.9201   67.9218  225.4838 H   0  0  0  0  0  0  0  0  0  0  0  0
  139.3964   68.0696  223.7311 H   0  0  0  0  0  0  0  0  0  0  0  0
  140.9736   69.6955  224.1432 H   0  0  0  0  0  0  0  0  0  0  0  0
  141.4228   72.0675  224.9294 H   0  0  0  0  0  0  0  0  0  0  0  0
  142.0374   73.1979  227.0207 H   0  0  0  0  0  0  0  0  0  0  0  0
  141.3436   72.3363  229.2386 H   0  0  0  0  0  0  0  0  0  0  0  0
  139.9754   70.2412  229.3073 H   0  0  0  0  0  0  0  0  0  0  0  0
  139.3610   69.1078  227.2059 H   0  0  0  0  0  0  0  0  0  0  0  0
  142.0191   75.3719  219.7104 H   0  0  0  0  0  0  0  0  0  0  0  0
  142.8118   77.7173  219.7908 H   0  0  0  0  0  0  0  0  0  0  0  0
  142.6436   79.8871  220.8302 H   0  0  0  0  0  0  0  0  0  0  0  0
  139.8652   80.5476  224.0441 H   0  0  0  0  0  0  0  0  0  0  0  0
  139.1359   78.1872  223.8872 H   0  0  0  0  0  0  0  0  0  0  0  0
  1  2  2  0
  2  3  1  0
  3  4  1  0
  4  5  1  0
  5  6  2  0
  5  7  1  0
  7  8  1  0
  8  9  1  0
  9 10  1  0
 10 11  1  0
 11 12  1  0
 12 13  1  0
 13 14  2  0
 14 15  1  0
 15 16  2  0
 16 17  1  0
 17 18  2  0
  2 19  1  0
 19 20  2  0
 20 21  1  0
 21 22  2  0
 22 23  1  0
 23 24  2  0
 24 25  1  0
 24 26  1  0
 26 27  2  0
 27 28  1  0
 28 29  2  0
 12  7  1  0
 18 13  1  0
 29 19  1  0
 28 22  1  0
  3 30  1  0
  4 31  1  0
  4 32  1  0
  8 33  1  0
  8 34  1  0
  9 35  1  0
  9 36  1  0
 10 37  1  0
 10 38  1  0
 11 39  1  0
 11 40  1  0
 12 41  1  6
 14 42  1  0
 15 43  1  0
 16 44  1  0
 17 45  1  0
 18 46  1  0
 20 47  1  0
 21 48  1  0
 23 49  1  0
 26 50  1  0
 27 51  1  0
M  END
>  <meeko>  (8) 
{"free_energy": -8.68, "intermolecular_energy": -10.18, "internal_energy": -1.61, "cluster_size": 4, "cluster_id": 2, "rank_in_cluster": 2}

$$$$

     RDKit          3D

 51 54  0  0  0  0  0  0  0  0999 V2000
  138.3100   71.7450  221.2090 O   0  0  0  0  0  0  0  0  0  0  0  0
  138.9150   72.1910  222.2260 C   0  0  0  0  0  0  0  0  0  0  0  0
  139.2720   73.5690  222.2780 N   0  0  0  0  0  0  0  0  0  0  0  0
  138.9050   74.3760  221.1230 C   0  0  0  0  0  0  0  0  0  0  0  0
  139.1330   75.8060  221.3450 C   0  0  0  0  0  0  0  0  0  0  0  0
  138.2490   76.5770  221.7970 O   0  0  0  0  0  0  0  0  0  0  0  0
  140.3940   76.3770  221.0470 N   0  0  0  0  0  0  0  0  0  0  0  0
  141.6490   75.6450  221.1470 C   0  0  0  0  0  0  0  0  0  0  0  0
  142.4820   75.7480  219.9300 C   0  0  0  0  0  0  0  0  0  0  0  0
  142.4770   77.0390  219.1840 C   0  0  0  0  0  0  0  0  0  0  0  0
  141.2180   77.8320  219.2690 C   0  0  0  0  0  0  0  0  0  0  0  0
  140.5360   77.7800  220.6050 C   0  0  2  0  0  0  0  0  0  0  0  0
  141.1640   78.5970  221.6540 C   0  0  0  0  0  0  0  0  0  0  0  0
  140.8810   78.2780  222.9700 C   0  0  0  0  0  0  0  0  0  0  0  0
  141.4460   79.0140  223.9930 C   0  0  0  0  0  0  0  0  0  0  0  0
  142.3000   80.0770  223.7780 C   0  0  0  0  0  0  0  0  0  0  0  0
  142.5800   80.3940  222.4690 C   0  0  0  0  0  0  0  0  0  0  0  0
  142.0110   79.6530  221.4390 C   0  0  0  0  0  0  0  0  0  0  0  0
  139.2410   71.3060  223.3370 C   0  0  0  0  0  0  0  0  0  0  0  0
  138.9620   69.9740  223.2850 C   0  0  0  0  0  0  0  0  0  0  0  0
  139.2450   69.0800  224.2990 C   0  0  0  0  0  0  0  0  0  0  0  0
  139.8570   69.6100  225.4400 C   0  0  0  0  0  0  0  0  0  0  0  0
  140.1620   68.7630  226.4850 C   0  0  0  0  0  0  0  0  0  0  0  0
  140.7640   69.2750  227.6120 C   0  0  0  0  0  0  0  0  0  0  0  0
  141.1590   68.2100  228.9520 Cl  0  0  0  0  0  0  0  0  0  0  0  0
  141.0610   70.6170  227.7000 C   0  0  0  0  0  0  0  0  0  0  0  0
  140.7470   71.4490  226.6420 C   0  0  0  0  0  0  0  0  0  0  0  0
  140.1410   70.9620  225.4950 C   0  0  0  0  0  0  0  0  0  0  0  0
  139.8360   71.7900  224.4580 N   0  0  0  0  0  0  0  0  0  0  0  0
  139.7710   73.9570  223.1090 H   0  0  0  0  0  0  0  0  0  0  0  0
  139.5062   74.0522  220.2606 H   0  0  0  0  0  0  0  0  0  0  0  0
  137.8296   74.2323  220.9418 H   0  0  0  0  0  0  0  0  0  0  0  0
  142.2208   76.0459  221.9969 H   0  0  0  0  0  0  0  0  0  0  0  0
  141.3978   74.5826  221.2822 H   0  0  0  0  0  0  0  0  0  0  0  0
  143.5216   75.5464  220.2275 H   0  0  0  0  0  0  0  0  0  0  0  0
  142.0360   75.0255  219.2306 H   0  0  0  0  0  0  0  0  0  0  0  0
  143.2945   77.6602  219.5788 H   0  0  0  0  0  0  0  0  0  0  0  0
  142.5908   76.7716  218.1231 H   0  0  0  0  0  0  0  0  0  0  0  0
  141.4583   78.8822  219.0471 H   0  0  0  0  0  0  0  0  0  0  0  0
  140.5197   77.3870  218.5449 H   0  0  0  0  0  0  0  0  0  0  0  0
  139.5455   78.2329  220.4507 H   0  0  0  0  0  0  0  0  0  0  0  0
  140.2073   77.4398  223.2012 H   0  0  0  0  0  0  0  0  0  0  0  0
  141.2035   78.7396  225.0303 H   0  0  0  0  0  0  0  0  0  0  0  0
  142.7360   80.6438  224.6139 H   0  0  0  0  0  0  0  0  0  0  0  0
  143.2531   81.2326  222.2373 H   0  0  0  0  0  0  0  0  0  0  0  0
  142.2523   79.9276  220.4015 H   0  0  0  0  0  0  0  0  0  0  0  0
  138.4798   69.5848  222.3761 H   0  0  0  0  0  0  0  0  0  0  0  0
  139.0026   68.0104  224.2142 H   0  0  0  0  0  0  0  0  0  0  0  0
  139.9268   67.6905  226.4185 H   0  0  0  0  0  0  0  0  0  0  0  0
  141.5427   71.0221  228.6022 H   0  0  0  0  0  0  0  0  0  0  0  0
  140.9833   72.5210  226.7120 H   0  0  0  0  0  0  0  0  0  0  0  0
  1  2  2  0
  2  3  1  0
  3  4  1  0
  4  5  1  0
  5  6  2  0
  5  7  1  0
  7  8  1  0
  8  9  1  0
  9 10  1  0
 10 11  1  0
 11 12  1  0
 12 13  1  0
 13 14  2  0
 14 15  1  0
 15 16  2  0
 16 17  1  0
 17 18  2  0
  2 19  1  0
 19 20  2  0
 20 21  1  0
 21 22  2  0
 22 23  1  0
 23 24  2  0
 24 25  1  0
 24 26  1  0
 26 27  2  0
 27 28  1  0
 28 29  2  0
 12  7  1  0
 18 13  1  0
 29 19  1  0
 28 22  1  0
  3 30  1  0
  4 31  1  0
  4 32  1  0
  8 33  1  0
  8 34  1  0
  9 35  1  0
  9 36  1  0
 10 37  1  0
 10 38  1  0
 11 39  1  0
 11 40  1  0
 12 41  1  6
 14 42  1  0
 15 43  1  0
 16 44  1  0
 17 45  1  0
 18 46  1  0
 20 47  1  0
 21 48  1  0
 23 49  1  0
 26 50  1  0
 27 51  1  0
M  END
>  <meeko>  (9) 
{"free_energy": -8.79, "intermolecular_energy": -10.28, "internal_energy": -1.58, "cluster_size": 14, "cluster_id": 1, "rank_in_cluster": 14}

$$$$

     RDKit          3D

 51 54  0  0  0  0  0  0  0  0999 V2000
  140.7280   72.4600  220.7550 O   0  0  0  0  0  0  0  0  0  0  0  0
  140.2180   72.8280  221.8520 C   0  0  0  0  0  0  0  0  0  0  0  0
  139.7220   74.1570  221.9800 N   0  0  0  0  0  0  0  0  0  0  0  0
  139.8470   75.0090  220.8070 C   0  0  0  0  0  0  0  0  0  0  0  0
  141.2160   75.4980  220.6160 C   0  0  0  0  0  0  0  0  0  0  0  0
  142.2270   74.7590  220.7250 O   0  0  0  0  0  0  0  0  0  0  0  0
  141.4440   76.8580  220.2920 N   0  0  0  0  0  0  0  0  0  0  0  0
  142.5600   77.3090  219.4720 C   0  0  0  0  0  0  0  0  0  0  0  0
  142.1480   78.1980  218.3650 C   0  0  0  0  0  0  0  0  0  0  0  0
  141.0230   79.1450  218.6080 C   0  0  0  0  0  0  0  0  0  0  0  0
  140.0010   78.7000  219.5970 C   0  0  0  0  0  0  0  0  0  0  0  0
  140.5550   77.9380  220.7670 C   0  0  2  0  0  0  0  0  0  0  0  0
  141.2290   78.7620  221.7810 C   0  0  0  0  0  0  0  0  0  0  0  0
  141.2000   78.3190  223.0900 C   0  0  0  0  0  0  0  0  0  0  0  0
  141.8200   79.0560  224.0800 C   0  0  0  0  0  0  0  0  0  0  0  0
  142.4840   80.2400  223.8370 C   0  0  0  0  0  0  0  0  0  0  0  0
  142.5130   80.6820  222.5340 C   0  0  0  0  0  0  0  0  0  0  0  0
  141.8890   79.9390  221.5380 C   0  0  0  0  0  0  0  0  0  0  0  0
  140.1350   71.9020  222.9750 C   0  0  0  0  0  0  0  0  0  0  0  0
  139.5490   70.6800  222.8400 C   0  0  0  0  0  0  0  0  0  0  0  0
  139.4370   69.7540  223.8600 C   0  0  0  0  0  0  0  0  0  0  0  0
  139.9700   70.1290  225.0980 C   0  0  0  0  0  0  0  0  0  0  0  0
  139.8850   69.2440  226.1530 C   0  0  0  0  0  0  0  0  0  0  0  0
  140.4070   69.6040  227.3750 C   0  0  0  0  0  0  0  0  0  0  0  0
  140.3090   68.4890  228.7290 Cl  0  0  0  0  0  0  0  0  0  0  0  0
  141.0070   70.8320  227.5480 C   0  0  0  0  0  0  0  0  0  0  0  0
  141.0810   71.7030  226.4780 C   0  0  0  0  0  0  0  0  0  0  0  0
  140.5650   71.3700  225.2360 C   0  0  0  0  0  0  0  0  0  0  0  0
  140.6430   72.2360  224.1890 N   0  0  0  0  0  0  0  0  0  0  0  0
  139.2960   74.4790  222.8780 H   0  0  0  0  0  0  0  0  0  0  0  0
  139.5503   74.4327  219.9183 H   0  0  0  0  0  0  0  0  0  0  0  0
  139.1959   75.8830  220.9558 H   0  0  0  0  0  0  0  0  0  0  0  0
  143.2672   77.8548  220.1139 H   0  0  0  0  0  0  0  0  0  0  0  0
  143.0160   76.4154  219.0209 H   0  0  0  0  0  0  0  0  0  0  0  0
  143.0258   78.7985  218.0841 H   0  0  0  0  0  0  0  0  0  0  0  0
  141.7686   77.5144  217.5912 H   0  0  0  0  0  0  0  0  0  0  0  0
  141.4512   80.0919  218.9685 H   0  0  0  0  0  0  0  0  0  0  0  0
  140.4921   79.2297  217.6483 H   0  0  0  0  0  0  0  0  0  0  0  0
  139.4843   79.5917  219.9816 H   0  0  0  0  0  0  0  0  0  0  0  0
  139.3304   78.0098  219.0641 H   0  0  0  0  0  0  0  0  0  0  0  0
  139.6826   77.5132  221.2852 H   0  0  0  0  0  0  0  0  0  0  0  0
  140.6840   77.3810  223.3428 H   0  0  0  0  0  0  0  0  0  0  0  0
  141.7823   78.6801  225.1131 H   0  0  0  0  0  0  0  0  0  0  0  0
  142.9681   80.8050  224.6472 H   0  0  0  0  0  0  0  0  0  0  0  0
  143.0283   81.6204  222.2812 H   0  0  0  0  0  0  0  0  0  0  0  0
  141.9267   80.3138  220.5045 H   0  0  0  0  0  0  0  0  0  0  0  0
  139.1382   70.4126  221.8553 H   0  0  0  0  0  0  0  0  0  0  0  0
  138.9557   68.7768  223.7069 H   0  0  0  0  0  0  0  0  0  0  0  0
  139.4060   68.2628  226.0194 H   0  0  0  0  0  0  0  0  0  0  0  0
  141.4222   71.1157  228.5263 H   0  0  0  0  0  0  0  0  0  0  0  0
  141.5606   72.6834  226.6153 H   0  0  0  0  0  0  0  0  0  0  0  0
  1  2  2  0
  2  3  1  0
  3  4  1  0
  4  5  1  0
  5  6  2  0
  5  7  1  0
  7  8  1  0
  8  9  1  0
  9 10  1  0
 10 11  1  0
 11 12  1  0
 12 13  1  0
 13 14  2  0
 14 15  1  0
 15 16  2  0
 16 17  1  0
 17 18  2  0
  2 19  1  0
 19 20  2  0
 20 21  1  0
 21 22  2  0
 22 23  1  0
 23 24  2  0
 24 25  1  0
 24 26  1  0
 26 27  2  0
 27 28  1  0
 28 29  2  0
 12  7  1  0
 18 13  1  0
 29 19  1  0
 28 22  1  0
  3 30  1  0
  4 31  1  0
  4 32  1  0
  8 33  1  0
  8 34  1  0
  9 35  1  0
  9 36  1  0
 10 37  1  0
 10 38  1  0
 11 39  1  0
 11 40  1  0
 12 41  1  1
 14 42  1  0
 15 43  1  0
 16 44  1  0
 17 45  1  0
 18 46  1  0
 20 47  1  0
 21 48  1  0
 23 49  1  0
 26 50  1  0
 27 51  1  0
M  END
>  <meeko>  (10) 
{"free_energy": -9.13, "intermolecular_energy": -10.62, "internal_energy": -1.34, "cluster_size": 14, "cluster_id": 1, "rank_in_cluster": 7}

$$$$

     RDKit          3D

 51 54  0  0  0  0  0  0  0  0999 V2000
  140.4590   72.5570  221.0070 O   0  0  0  0  0  0  0  0  0  0  0  0
  139.6950   72.6390  222.0110 C   0  0  0  0  0  0  0  0  0  0  0  0
  138.7220   73.6780  222.0650 N   0  0  0  0  0  0  0  0  0  0  0  0
  138.6860   74.5890  220.9300 C   0  0  0  0  0  0  0  0  0  0  0  0
  139.0260   75.9640  221.3060 C   0  0  0  0  0  0  0  0  0  0  0  0
  138.1970   76.7560  221.8220 O   0  0  0  0  0  0  0  0  0  0  0  0
  140.3370   76.4540  221.0920 N   0  0  0  0  0  0  0  0  0  0  0  0
  141.5310   75.6310  221.2230 C   0  0  0  0  0  0  0  0  0  0  0  0
  142.4300   75.7180  220.0530 C   0  0  0  0  0  0  0  0  0  0  0  0
  142.5520   77.0320  219.3580 C   0  0  0  0  0  0  0  0  0  0  0  0
  141.3490   77.9090  219.4130 C   0  0  0  0  0  0  0  0  0  0  0  0
  140.5980   77.8580  220.7120 C   0  0  2  0  0  0  0  0  0  0  0  0
  141.2270   78.5910  221.8220 C   0  0  0  0  0  0  0  0  0  0  0  0
  141.9500   79.7270  221.5100 C   0  0  0  0  0  0  0  0  0  0  0  0
  142.5600   80.4520  222.5160 C   0  0  0  0  0  0  0  0  0  0  0  0
  142.4900   80.1020  223.8480 C   0  0  0  0  0  0  0  0  0  0  0  0
  141.7710   78.9700  224.1580 C   0  0  0  0  0  0  0  0  0  0  0  0
  141.1570   78.2420  223.1450 C   0  0  0  0  0  0  0  0  0  0  0  0
  139.8050   71.6790  223.1030 C   0  0  0  0  0  0  0  0  0  0  0  0
  139.3880   70.3910  222.9550 C   0  0  0  0  0  0  0  0  0  0  0  0
  139.4640   69.4310  223.9460 C   0  0  0  0  0  0  0  0  0  0  0  0
  140.0080   69.8430  225.1670 C   0  0  0  0  0  0  0  0  0  0  0  0
  140.1070   68.9250  226.1930 C   0  0  0  0  0  0  0  0  0  0  0  0
  140.6420   69.3210  227.3980 C   0  0  0  0  0  0  0  0  0  0  0  0
  140.7760   68.1650  228.7150 Cl  0  0  0  0  0  0  0  0  0  0  0  0
  141.0740   70.6160  227.5830 C   0  0  0  0  0  0  0  0  0  0  0  0
  140.9650   71.5180  226.5430 C   0  0  0  0  0  0  0  0  0  0  0  0
  140.4320   71.1500  225.3190 C   0  0  0  0  0  0  0  0  0  0  0  0
  140.3290   72.0480  224.3000 N   0  0  0  0  0  0  0  0  0  0  0  0
  138.0820   73.7620  222.8850 H   0  0  0  0  0  0  0  0  0  0  0  0
  139.4061   74.2410  220.1748 H   0  0  0  0  0  0  0  0  0  0  0  0
  137.6590   74.5933  220.5360 H   0  0  0  0  0  0  0  0  0  0  0  0
  142.0853   75.9588  222.1148 H   0  0  0  0  0  0  0  0  0  0  0  0
  141.1997   74.5852  221.3033 H   0  0  0  0  0  0  0  0  0  0  0  0
  143.4368   75.4332  220.3925 H   0  0  0  0  0  0  0  0  0  0  0  0
  141.9716   75.0541  219.3053 H   0  0  0  0  0  0  0  0  0  0  0  0
  143.3896   77.5791  219.8153 H   0  0  0  0  0  0  0  0  0  0  0  0
  142.7001   76.7945  218.2942 H   0  0  0  0  0  0  0  0  0  0  0  0
  141.6727   78.9466  219.2442 H   0  0  0  0  0  0  0  0  0  0  0  0
  140.6592   77.5413  218.6391 H   0  0  0  0  0  0  0  0  0  0  0  0
  139.6504   78.3853  220.5274 H   0  0  0  0  0  0  0  0  0  0  0  0
  142.0396   80.0532  220.4633 H   0  0  0  0  0  0  0  0  0  0  0  0
  143.1291   81.3522  222.2408 H   0  0  0  0  0  0  0  0  0  0  0  0
  142.9859   80.6999  224.6268 H   0  0  0  0  0  0  0  0  0  0  0  0
  141.6824   78.6422  225.2043 H   0  0  0  0  0  0  0  0  0  0  0  0
  140.5872   77.3419  223.4192 H   0  0  0  0  0  0  0  0  0  0  0  0
  138.9634   70.0959  221.9841 H   0  0  0  0  0  0  0  0  0  0  0  0
  139.1161   68.4002  223.7837 H   0  0  0  0  0  0  0  0  0  0  0  0
  139.7628   67.8901  226.0496 H   0  0  0  0  0  0  0  0  0  0  0  0
  141.5007   70.9278  228.5477 H   0  0  0  0  0  0  0  0  0  0  0  0
  141.3094   72.5523  226.6902 H   0  0  0  0  0  0  0  0  0  0  0  0
  1  2  2  0
  2  3  1  0
  3  4  1  0
  4  5  1  0
  5  6  2  0
  5  7  1  0
  7  8  1  0
  8  9  1  0
  9 10  1  0
 10 11  1  0
 11 12  1  0
 12 13  1  0
 13 14  2  0
 14 15  1  0
 15 16  2  0
 16 17  1  0
 17 18  2  0
  2 19  1  0
 19 20  2  0
 20 21  1  0
 21 22  2  0
 22 23  1  0
 23 24  2  0
 24 25  1  0
 24 26  1  0
 26 27  2  0
 27 28  1  0
 28 29  2  0
 12  7  1  0
 18 13  1  0
 29 19  1  0
 28 22  1  0
  3 30  1  0
  4 31  1  0
  4 32  1  0
  8 33  1  0
  8 34  1  0
  9 35  1  0
  9 36  1  0
 10 37  1  0
 10 38  1  0
 11 39  1  0
 11 40  1  0
 12 41  1  6
 14 42  1  0
 15 43  1  0
 16 44  1  0
 17 45  1  0
 18 46  1  0
 20 47  1  0
 21 48  1  0
 23 49  1  0
 26 50  1  0
 27 51  1  0
M  END
>  <meeko>  (11) 
{"free_energy": -9.34, "intermolecular_energy": -10.83, "internal_energy": -1.53, "cluster_size": 14, "cluster_id": 1, "rank_in_cluster": 2}

$$$$

     RDKit          3D

 51 54  0  0  0  0  0  0  0  0999 V2000
  140.7990   72.7270  221.0900 O   0  0  0  0  0  0  0  0  0  0  0  0
  140.0480   72.8680  222.0970 C   0  0  0  0  0  0  0  0  0  0  0  0
  139.1910   74.0030  222.1760 N   0  0  0  0  0  0  0  0  0  0  0  0
  139.2510   74.9370  221.0610 C   0  0  0  0  0  0  0  0  0  0  0  0
  140.2430   75.9940  221.2710 C   0  0  0  0  0  0  0  0  0  0  0  0
  141.4770   75.7680  221.3430 O   0  0  0  0  0  0  0  0  0  0  0  0
  139.8270   77.3420  221.4020 N   0  0  0  0  0  0  0  0  0  0  0  0
  139.5860   78.2200  220.2650 C   0  0  0  0  0  0  0  0  0  0  0  0
  138.2750   78.9020  220.3240 C   0  0  0  0  0  0  0  0  0  0  0  0
  137.7620   79.3200  221.6600 C   0  0  0  0  0  0  0  0  0  0  0  0
  138.1930   78.4810  222.8130 C   0  0  0  0  0  0  0  0  0  0  0  0
  139.6010   77.9690  222.7210 C   0  0  2  0  0  0  0  0  0  0  0  0
  140.6430   78.9650  223.0100 C   0  0  0  0  0  0  0  0  0  0  0  0
  140.2430   80.1710  223.5550 C   0  0  0  0  0  0  0  0  0  0  0  0
  141.1830   81.1400  223.8470 C   0  0  0  0  0  0  0  0  0  0  0  0
  142.5340   80.9750  223.6220 C   0  0  0  0  0  0  0  0  0  0  0  0
  142.9320   79.7750  223.0790 C   0  0  0  0  0  0  0  0  0  0  0  0
  141.9860   78.8000  222.7860 C   0  0  0  0  0  0  0  0  0  0  0  0
  140.0560   71.8780  223.1670 C   0  0  0  0  0  0  0  0  0  0  0  0
  139.5720   70.6210  222.9700 C   0  0  0  0  0  0  0  0  0  0  0  0
  139.5490   69.6350  223.9380 C   0  0  0  0  0  0  0  0  0  0  0  0
  140.0650   69.9850  225.1900 C   0  0  0  0  0  0  0  0  0  0  0  0
  140.0680   69.0400  226.1950 C   0  0  0  0  0  0  0  0  0  0  0  0
  140.5730   69.3750  227.4310 C   0  0  0  0  0  0  0  0  0  0  0  0
  140.5840   68.1830  228.7220 Cl  0  0  0  0  0  0  0  0  0  0  0  0
  141.0710   70.6370  227.6670 C   0  0  0  0  0  0  0  0  0  0  0  0
  141.0590   71.5690  226.6470 C   0  0  0  0  0  0  0  0  0  0  0  0
  140.5570   71.2610  225.3920 C   0  0  0  0  0  0  0  0  0  0  0  0
  140.5500   72.1870  224.3940 N   0  0  0  0  0  0  0  0  0  0  0  0
  138.5620   74.1360  222.9990 H   0  0  0  0  0  0  0  0  0  0  0  0
  139.5143   74.3816  220.1487 H   0  0  0  0  0  0  0  0  0  0  0  0
  138.2647   75.4157  220.9709 H   0  0  0  0  0  0  0  0  0  0  0  0
  140.3769   78.9841  220.2394 H   0  0  0  0  0  0  0  0  0  0  0  0
  139.5883   77.5930  219.3612 H   0  0  0  0  0  0  0  0  0  0  0  0
  138.3495   79.8078  219.7044 H   0  0  0  0  0  0  0  0  0  0  0  0
  137.5559   78.1445  219.9788 H   0  0  0  0  0  0  0  0  0  0  0  0
  138.1035   80.3491  221.8455 H   0  0  0  0  0  0  0  0  0  0  0  0
  136.6685   79.2135  221.6061 H   0  0  0  0  0  0  0  0  0  0  0  0
  138.1066   79.0851  223.7282 H   0  0  0  0  0  0  0  0  0  0  0  0
  137.5391   77.5965  222.8168 H   0  0  0  0  0  0  0  0  0  0  0  0
  139.6972   77.2200  223.5208 H   0  0  0  0  0  0  0  0  0  0  0  0
  139.1779   80.3585  223.7557 H   0  0  0  0  0  0  0  0  0  0  0  0
  140.8373   82.0901  224.2803 H   0  0  0  0  0  0  0  0  0  0  0  0
  143.2590   81.7657  223.8653 H   0  0  0  0  0  0  0  0  0  0  0  0
  143.9970   79.5877  222.8772 H   0  0  0  0  0  0  0  0  0  0  0  0
  142.3312   77.8495  222.3533 H   0  0  0  0  0  0  0  0  0  0  0  0
  139.1731   70.3739  221.9751 H   0  0  0  0  0  0  0  0  0  0  0  0
  139.1474   68.6312  223.7352 H   0  0  0  0  0  0  0  0  0  0  0  0
  139.6715   68.0306  226.0109 H   0  0  0  0  0  0  0  0  0  0  0  0
  141.4737   70.9001  228.6562 H   0  0  0  0  0  0  0  0  0  0  0  0
  141.4564   72.5773  226.8349 H   0  0  0  0  0  0  0  0  0  0  0  0
  1  2  2  0
  2  3  1  0
  3  4  1  0
  4  5  1  0
  5  6  2  0
  5  7  1  0
  7  8  1  0
  8  9  1  0
  9 10  1  0
 10 11  1  0
 11 12  1  0
 12 13  1  0
 13 14  2  0
 14 15  1  0
 15 16  2  0
 16 17  1  0
 17 18  2  0
  2 19  1  0
 19 20  2  0
 20 21  1  0
 21 22  2  0
 22 23  1  0
 23 24  2  0
 24 25  1  0
 24 26  1  0
 26 27  2  0
 27 28  1  0
 28 29  2  0
 12  7  1  0
 18 13  1  0
 29 19  1  0
 28 22  1  0
  3 30  1  0
  4 31  1  0
  4 32  1  0
  8 33  1  0
  8 34  1  0
  9 35  1  0
  9 36  1  0
 10 37  1  0
 10 38  1  0
 11 39  1  0
 11 40  1  0
 12 41  1  1
 14 42  1  0
 15 43  1  0
 16 44  1  0
 17 45  1  0
 18 46  1  0
 20 47  1  0
 21 48  1  0
 23 49  1  0
 26 50  1  0
 27 51  1  0
M  END
>  <meeko>  (12) 
{"free_energy": -8.99, "intermolecular_energy": -10.48, "internal_energy": -1.35, "cluster_size": 14, "cluster_id": 1, "rank_in_cluster": 11}

$$$$

     RDKit          3D

 51 54  0  0  0  0  0  0  0  0999 V2000
  140.4860   72.3790  220.9030 O   0  0  0  0  0  0  0  0  0  0  0  0
  139.8620   72.6020  221.9790 C   0  0  0  0  0  0  0  0  0  0  0  0
  139.0930   73.7940  222.1070 N   0  0  0  0  0  0  0  0  0  0  0  0
  139.0890   74.6860  220.9570 C   0  0  0  0  0  0  0  0  0  0  0  0
  139.2410   76.0930  221.3400 C   0  0  0  0  0  0  0  0  0  0  0  0
  138.3620   76.7260  221.9770 O   0  0  0  0  0  0  0  0  0  0  0  0
  140.4190   76.7980  220.9930 N   0  0  0  0  0  0  0  0  0  0  0  0
  141.7150   76.1560  220.8170 C   0  0  0  0  0  0  0  0  0  0  0  0
  142.3740   76.5160  219.5440 C   0  0  0  0  0  0  0  0  0  0  0  0
  142.2000   77.9050  219.0310 C   0  0  0  0  0  0  0  0  0  0  0  0
  140.9220   78.5770  219.3990 C   0  0  0  0  0  0  0  0  0  0  0  0
  140.4240   78.2600  220.7800 C   0  0  2  0  0  0  0  0  0  0  0  0
  141.1390   78.9440  221.8680 C   0  0  0  0  0  0  0  0  0  0  0  0
  141.8550   80.0820  221.5490 C   0  0  0  0  0  0  0  0  0  0  0  0
  142.5430   80.7630  222.5340 C   0  0  0  0  0  0  0  0  0  0  0  0
  142.5600   80.3660  223.8560 C   0  0  0  0  0  0  0  0  0  0  0  0
  141.8470   79.2320  224.1740 C   0  0  0  0  0  0  0  0  0  0  0  0
  141.1550   78.5480  223.1810 C   0  0  0  0  0  0  0  0  0  0  0  0
  139.9250   71.6480  223.0800 C   0  0  0  0  0  0  0  0  0  0  0  0
  139.4880   70.3670  222.9300 C   0  0  0  0  0  0  0  0  0  0  0  0
  139.5190   69.4120  223.9290 C   0  0  0  0  0  0  0  0  0  0  0  0
  140.0390   69.8230  225.1610 C   0  0  0  0  0  0  0  0  0  0  0  0
  140.0930   68.9110  226.1960 C   0  0  0  0  0  0  0  0  0  0  0  0
  140.6020   69.3050  227.4120 C   0  0  0  0  0  0  0  0  0  0  0  0
  140.6800   68.1570  228.7400 Cl  0  0  0  0  0  0  0  0  0  0  0  0
  141.0530   70.5930  227.6000 C   0  0  0  0  0  0  0  0  0  0  0  0
  140.9890   71.4910  226.5520 C   0  0  0  0  0  0  0  0  0  0  0  0
  140.4820   71.1230  225.3160 C   0  0  0  0  0  0  0  0  0  0  0  0
  140.4230   72.0150  224.2890 N   0  0  0  0  0  0  0  0  0  0  0  0
  138.5700   73.9960  222.9880 H   0  0  0  0  0  0  0  0  0  0  0  0
  139.9206   74.4091  220.2923 H   0  0  0  0  0  0  0  0  0  0  0  0
  138.1171   74.5789  220.4531 H   0  0  0  0  0  0  0  0  0  0  0  0
  142.3703   76.4573  221.6475 H   0  0  0  0  0  0  0  0  0  0  0  0
  141.5426   75.0697  220.8005 H   0  0  0  0  0  0  0  0  0  0  0  0
  143.4532   76.3496  219.6765 H   0  0  0  0  0  0  0  0  0  0  0  0
  141.8804   75.8829  218.7920 H   0  0  0  0  0  0  0  0  0  0  0  0
  143.0271   78.5154  219.4224 H   0  0  0  0  0  0  0  0  0  0  0  0
  142.1873   77.8190  217.9344 H   0  0  0  0  0  0  0  0  0  0  0  0
  141.0739   79.6643  219.3302 H   0  0  0  0  0  0  0  0  0  0  0  0
  140.1602   78.2027  218.6993 H   0  0  0  0  0  0  0  0  0  0  0  0
  139.3982   78.6547  220.8248 H   0  0  0  0  0  0  0  0  0  0  0  0
  141.8770   80.4453  220.5110 H   0  0  0  0  0  0  0  0  0  0  0  0
  143.1047   81.6656  222.2514 H   0  0  0  0  0  0  0  0  0  0  0  0
  143.1169   80.9291  224.6194 H   0  0  0  0  0  0  0  0  0  0  0  0
  141.8249   78.8679  225.2117 H   0  0  0  0  0  0  0  0  0  0  0  0
  140.5929   77.6452  223.4621 H   0  0  0  0  0  0  0  0  0  0  0  0
  139.0840   70.0730  221.9500 H   0  0  0  0  0  0  0  0  0  0  0  0
  139.1554   68.3870  223.7645 H   0  0  0  0  0  0  0  0  0  0  0  0
  139.7334   67.8817  226.0502 H   0  0  0  0  0  0  0  0  0  0  0  0
  141.4596   70.9031  228.5739 H   0  0  0  0  0  0  0  0  0  0  0  0
  141.3481   72.5199  226.7019 H   0  0  0  0  0  0  0  0  0  0  0  0
  1  2  2  0
  2  3  1  0
  3  4  1  0
  4  5  1  0
  5  6  2  0
  5  7  1  0
  7  8  1  0
  8  9  1  0
  9 10  1  0
 10 11  1  0
 11 12  1  0
 12 13  1  0
 13 14  2  0
 14 15  1  0
 15 16  2  0
 16 17  1  0
 17 18  2  0
  2 19  1  0
 19 20  2  0
 20 21  1  0
 21 22  2  0
 22 23  1  0
 23 24  2  0
 24 25  1  0
 24 26  1  0
 26 27  2  0
 27 28  1  0
 28 29  2  0
 12  7  1  0
 18 13  1  0
 29 19  1  0
 28 22  1  0
  3 30  1  0
  4 31  1  0
  4 32  1  0
  8 33  1  0
  8 34  1  0
  9 35  1  0
  9 36  1  0
 10 37  1  0
 10 38  1  0
 11 39  1  0
 11 40  1  0
 12 41  1  6
 14 42  1  0
 15 43  1  0
 16 44  1  0
 17 45  1  0
 18 46  1  0
 20 47  1  0
 21 48  1  0
 23 49  1  0
 26 50  1  0
 27 51  1  0
M  END
>  <meeko>  (13) 
{"free_energy": -9.26, "intermolecular_energy": -10.75, "internal_energy": -1.48, "cluster_size": 14, "cluster_id": 1, "rank_in_cluster": 5}

$$$$

     RDKit          3D

 51 54  0  0  0  0  0  0  0  0999 V2000
  138.9030   71.8800  220.7850 O   0  0  0  0  0  0  0  0  0  0  0  0
  139.0880   72.3470  221.9440 C   0  0  0  0  0  0  0  0  0  0  0  0
  139.0270   73.7550  222.1490 N   0  0  0  0  0  0  0  0  0  0  0  0
  138.7500   74.5670  220.9730 C   0  0  0  0  0  0  0  0  0  0  0  0
  139.0760   75.9810  221.1810 C   0  0  0  0  0  0  0  0  0  0  0  0
  138.2160   76.8400  221.5010 O   0  0  0  0  0  0  0  0  0  0  0  0
  140.4090   76.4320  221.0230 N   0  0  0  0  0  0  0  0  0  0  0  0
  141.5720   75.5830  221.2370 C   0  0  0  0  0  0  0  0  0  0  0  0
  142.5320   75.6170  220.1120 C   0  0  0  0  0  0  0  0  0  0  0  0
  142.7240   76.9080  219.3920 C   0  0  0  0  0  0  0  0  0  0  0  0
  141.5440   77.8160  219.3630 C   0  0  0  0  0  0  0  0  0  0  0  0
  140.7260   77.8190  220.6230 C   0  0  2  0  0  0  0  0  0  0  0  0
  141.3170   78.5640  221.7440 C   0  0  0  0  0  0  0  0  0  0  0  0
  142.0200   79.7170  221.4480 C   0  0  0  0  0  0  0  0  0  0  0  0
  142.5940   80.4540  222.4650 C   0  0  0  0  0  0  0  0  0  0  0  0
  142.5060   80.1010  223.7960 C   0  0  0  0  0  0  0  0  0  0  0  0
  141.8060   78.9540  224.0910 C   0  0  0  0  0  0  0  0  0  0  0  0
  141.2290   78.2120  223.0660 C   0  0  0  0  0  0  0  0  0  0  0  0
  139.3600   71.4540  223.0640 C   0  0  0  0  0  0  0  0  0  0  0  0
  139.0280   70.1340  223.0120 C   0  0  0  0  0  0  0  0  0  0  0  0
  139.2560   69.2330  224.0340 C   0  0  0  0  0  0  0  0  0  0  0  0
  139.8700   69.7430  225.1830 C   0  0  0  0  0  0  0  0  0  0  0  0
  140.1220   68.8880  226.2360 C   0  0  0  0  0  0  0  0  0  0  0  0
  140.7250   69.3800  227.3710 C   0  0  0  0  0  0  0  0  0  0  0  0
  141.0540   68.3050  228.7220 Cl  0  0  0  0  0  0  0  0  0  0  0  0
  141.0750   70.7100  227.4600 C   0  0  0  0  0  0  0  0  0  0  0  0
  140.8130   71.5490  226.3940 C   0  0  0  0  0  0  0  0  0  0  0  0
  140.2070   71.0830  225.2380 C   0  0  0  0  0  0  0  0  0  0  0  0
  139.9540   71.9180  224.1940 N   0  0  0  0  0  0  0  0  0  0  0  0
  139.1760   74.1600  223.1000 H   0  0  0  0  0  0  0  0  0  0  0  0
  139.3483   74.1865  220.1320 H   0  0  0  0  0  0  0  0  0  0  0  0
  137.6722   74.4984  220.7643 H   0  0  0  0  0  0  0  0  0  0  0  0
  142.0884   75.9202  222.1478 H   0  0  0  0  0  0  0  0  0  0  0  0
  141.2098   74.5483  221.3271 H   0  0  0  0  0  0  0  0  0  0  0  0
  143.5123   75.3159  220.5099 H   0  0  0  0  0  0  0  0  0  0  0  0
  142.0945   74.9457  219.3584 H   0  0  0  0  0  0  0  0  0  0  0  0
  143.5516   77.4456  219.8780 H   0  0  0  0  0  0  0  0  0  0  0  0
  142.9195   76.6389  218.3435 H   0  0  0  0  0  0  0  0  0  0  0  0
  141.9035   78.8402  219.1849 H   0  0  0  0  0  0  0  0  0  0  0  0
  140.8848   77.4451  218.5643 H   0  0  0  0  0  0  0  0  0  0  0  0
  139.8034   78.3656  220.3779 H   0  0  0  0  0  0  0  0  0  0  0  0
  142.1220   80.0469  220.4036 H   0  0  0  0  0  0  0  0  0  0  0  0
  143.1483   81.3668  222.2012 H   0  0  0  0  0  0  0  0  0  0  0  0
  142.9739   80.7085  224.5847 H   0  0  0  0  0  0  0  0  0  0  0  0
  141.7029   78.6245  225.1354 H   0  0  0  0  0  0  0  0  0  0  0  0
  140.6753   77.2986  223.3287 H   0  0  0  0  0  0  0  0  0  0  0  0
  138.5467   69.7609  222.0959 H   0  0  0  0  0  0  0  0  0  0  0  0
  138.9708   68.1740  223.9492 H   0  0  0  0  0  0  0  0  0  0  0  0
  139.8443   67.8257  226.1692 H   0  0  0  0  0  0  0  0  0  0  0  0
  141.5572   71.0990  228.3690 H   0  0  0  0  0  0  0  0  0  0  0  0
  141.0917   72.6108  226.4644 H   0  0  0  0  0  0  0  0  0  0  0  0
  1  2  2  0
  2  3  1  0
  3  4  1  0
  4  5  1  0
  5  6  2  0
  5  7  1  0
  7  8  1  0
  8  9  1  0
  9 10  1  0
 10 11  1  0
 11 12  1  0
 12 13  1  0
 13 14  2  0
 14 15  1  0
 15 16  2  0
 16 17  1  0
 17 18  2  0
  2 19  1  0
 19 20  2  0
 20 21  1  0
 21 22  2  0
 22 23  1  0
 23 24  2  0
 24 25  1  0
 24 26  1  0
 26 27  2  0
 27 28  1  0
 28 29  2  0
 12  7  1  0
 18 13  1  0
 29 19  1  0
 28 22  1  0
  3 30  1  0
  4 31  1  0
  4 32  1  0
  8 33  1  0
  8 34  1  0
  9 35  1  0
  9 36  1  0
 10 37  1  0
 10 38  1  0
 11 39  1  0
 11 40  1  0
 12 41  1  6
 14 42  1  0
 15 43  1  0
 16 44  1  0
 17 45  1  0
 18 46  1  0
 20 47  1  0
 21 48  1  0
 23 49  1  0
 26 50  1  0
 27 51  1  0
M  END
>  <meeko>  (14) 
{"free_energy": -9.16, "intermolecular_energy": -10.65, "internal_energy": -1.58, "cluster_size": 14, "cluster_id": 1, "rank_in_cluster": 6}

$$$$

     RDKit          3D

 51 54  0  0  0  0  0  0  0  0999 V2000
  140.2080   72.4480  220.7210 O   0  0  0  0  0  0  0  0  0  0  0  0
  139.9940   72.8470  221.9010 C   0  0  0  0  0  0  0  0  0  0  0  0
  139.7310   74.2270  222.1360 N   0  0  0  0  0  0  0  0  0  0  0  0
  139.7320   75.0930  220.9660 C   0  0  0  0  0  0  0  0  0  0  0  0
  141.0850   75.3610  220.4700 C   0  0  0  0  0  0  0  0  0  0  0  0
  141.9360   74.4540  220.2820 O   0  0  0  0  0  0  0  0  0  0  0  0
  141.4850   76.6880  220.1800 N   0  0  0  0  0  0  0  0  0  0  0  0
  142.7480   77.0220  219.5360 C   0  0  0  0  0  0  0  0  0  0  0  0
  142.5890   77.9250  218.3770 C   0  0  0  0  0  0  0  0  0  0  0  0
  141.5330   78.9760  218.4450 C   0  0  0  0  0  0  0  0  0  0  0  0
  140.3390   78.6420  219.2710 C   0  0  0  0  0  0  0  0  0  0  0  0
  140.6380   77.8530  220.5130 C   0  0  2  0  0  0  0  0  0  0  0  0
  141.2280   78.6290  221.6140 C   0  0  0  0  0  0  0  0  0  0  0  0
  141.2260   78.0580  222.8730 C   0  0  0  0  0  0  0  0  0  0  0  0
  141.7690   78.7450  223.9410 C   0  0  0  0  0  0  0  0  0  0  0  0
  142.3280   80.0010  223.8270 C   0  0  0  0  0  0  0  0  0  0  0  0
  142.3280   80.5700  222.5730 C   0  0  0  0  0  0  0  0  0  0  0  0
  141.7820   79.8770  221.4990 C   0  0  0  0  0  0  0  0  0  0  0  0
  140.0120   71.9040  223.0130 C   0  0  0  0  0  0  0  0  0  0  0  0
  139.5290   70.6390  222.8740 C   0  0  0  0  0  0  0  0  0  0  0  0
  139.5160   69.6960  223.8840 C   0  0  0  0  0  0  0  0  0  0  0  0
  140.0420   70.1000  225.1150 C   0  0  0  0  0  0  0  0  0  0  0  0
  140.0540   69.1990  226.1600 C   0  0  0  0  0  0  0  0  0  0  0  0
  140.5690   69.5880  227.3760 C   0  0  0  0  0  0  0  0  0  0  0  0
  140.5940   68.4530  228.7170 Cl  0  0  0  0  0  0  0  0  0  0  0  0
  141.0680   70.8600  227.5530 C   0  0  0  0  0  0  0  0  0  0  0  0
  141.0450   71.7460  226.4940 C   0  0  0  0  0  0  0  0  0  0  0  0
  140.5330   71.3840  225.2580 C   0  0  0  0  0  0  0  0  0  0  0  0
  140.5160   72.2660  224.2210 N   0  0  0  0  0  0  0  0  0  0  0  0
  139.5510   74.5750  223.1030 H   0  0  0  0  0  0  0  0  0  0  0  0
  139.1525   74.6077  220.1668 H   0  0  0  0  0  0  0  0  0  0  0  0
  139.2862   76.0546  221.2603 H   0  0  0  0  0  0  0  0  0  0  0  0
  143.3983   77.5128  220.2750 H   0  0  0  0  0  0  0  0  0  0  0  0
  143.1828   76.0833  219.1621 H   0  0  0  0  0  0  0  0  0  0  0  0
  143.5508   78.4375  218.2279 H   0  0  0  0  0  0  0  0  0  0  0  0
  142.2660   77.2652  217.5583 H   0  0  0  0  0  0  0  0  0  0  0  0
  141.9887   79.8859  218.8627 H   0  0  0  0  0  0  0  0  0  0  0  0
  141.1616   79.0937  217.4163 H   0  0  0  0  0  0  0  0  0  0  0  0
  139.8552   79.5833  219.5708 H   0  0  0  0  0  0  0  0  0  0  0  0
  139.6956   78.0059  218.6454 H   0  0  0  0  0  0  0  0  0  0  0  0
  139.6621   77.5192  220.8954 H   0  0  0  0  0  0  0  0  0  0  0  0
  140.7927   77.0583  223.0239 H   0  0  0  0  0  0  0  0  0  0  0  0
  141.7550   78.2670  224.9316 H   0  0  0  0  0  0  0  0  0  0  0  0
  142.7536   80.5232  224.6966 H   0  0  0  0  0  0  0  0  0  0  0  0
  142.7591   81.5706  222.4216 H   0  0  0  0  0  0  0  0  0  0  0  0
  141.7953   80.3539  220.5078 H   0  0  0  0  0  0  0  0  0  0  0  0
  139.1226   70.3485  221.8940 H   0  0  0  0  0  0  0  0  0  0  0  0
  139.1142   68.6839  223.7283 H   0  0  0  0  0  0  0  0  0  0  0  0
  139.6569   68.1823  226.0231 H   0  0  0  0  0  0  0  0  0  0  0  0
  141.4797   71.1661  228.5260 H   0  0  0  0  0  0  0  0  0  0  0  0
  141.4421   72.7622  226.6346 H   0  0  0  0  0  0  0  0  0  0  0  0
  1  2  2  0
  2  3  1  0
  3  4  1  0
  4  5  1  0
  5  6  2  0
  5  7  1  0
  7  8  1  0
  8  9  1  0
  9 10  1  0
 10 11  1  0
 11 12  1  0
 12 13  1  0
 13 14  2  0
 14 15  1  0
 15 16  2  0
 16 17  1  0
 17 18  2  0
  2 19  1  0
 19 20  2  0
 20 21  1  0
 21 22  2  0
 22 23  1  0
 23 24  2  0
 24 25  1  0
 24 26  1  0
 26 27  2  0
 27 28  1  0
 28 29  2  0
 12  7  1  0
 18 13  1  0
 29 19  1  0
 28 22  1  0
  3 30  1  0
  4 31  1  0
  4 32  1  0
  8 33  1  0
  8 34  1  0
  9 35  1  0
  9 36  1  0
 10 37  1  0
 10 38  1  0
 11 39  1  0
 11 40  1  0
 12 41  1  1
 14 42  1  0
 15 43  1  0
 16 44  1  0
 17 45  1  0
 18 46  1  0
 20 47  1  0
 21 48  1  0
 23 49  1  0
 26 50  1  0
 27 51  1  0
M  END
>  <meeko>  (15) 
{"free_energy": -9.08, "intermolecular_energy": -10.57, "internal_energy": -1.43, "cluster_size": 14, "cluster_id": 1, "rank_in_cluster": 10}

$$$$

     RDKit          3D

 51 54  0  0  0  0  0  0  0  0999 V2000
  133.6400   69.3710  226.4760 O   0  0  0  0  0  0  0  0  0  0  0  0
  134.0830   70.4540  225.9990 C   0  0  0  0  0  0  0  0  0  0  0  0
  135.1440   70.4170  225.0490 N   0  0  0  0  0  0  0  0  0  0  0  0
  135.6480   69.0980  224.6950 C   0  0  0  0  0  0  0  0  0  0  0  0
  136.4510   69.1170  223.4690 C   0  0  0  0  0  0  0  0  0  0  0  0
  135.9720   68.8660  222.3350 O   0  0  0  0  0  0  0  0  0  0  0  0
  137.8310   69.4270  223.5310 N   0  0  0  0  0  0  0  0  0  0  0  0
  138.8060   68.9410  222.5640 C   0  0  0  0  0  0  0  0  0  0  0  0
  139.6560   70.0130  222.0040 C   0  0  0  0  0  0  0  0  0  0  0  0
  140.0540   71.1340  222.9030 C   0  0  0  0  0  0  0  0  0  0  0  0
  139.0900   71.4680  223.9890 C   0  0  0  0  0  0  0  0  0  0  0  0
  138.3970   70.2820  224.5960 C   0  0  2  0  0  0  0  0  0  0  0  0
  139.2200   69.4880  225.5200 C   0  0  0  0  0  0  0  0  0  0  0  0
  140.0770   70.1710  226.3630 C   0  0  0  0  0  0  0  0  0  0  0  0
  140.8710   69.4720  227.2510 C   0  0  0  0  0  0  0  0  0  0  0  0
  140.8620   68.0960  227.3520 C   0  0  0  0  0  0  0  0  0  0  0  0
  140.0100   67.4160  226.5120 C   0  0  0  0  0  0  0  0  0  0  0  0
  139.2110   68.1200  225.6190 C   0  0  0  0  0  0  0  0  0  0  0  0
  133.5140   71.7310  226.4140 C   0  0  0  0  0  0  0  0  0  0  0  0
  132.3690   71.7880  227.1480 C   0  0  0  0  0  0  0  0  0  0  0  0
  131.7760   72.9620  227.5750 C   0  0  0  0  0  0  0  0  0  0  0  0
  132.4210   74.1480  227.2110 C   0  0  0  0  0  0  0  0  0  0  0  0
  131.8730   75.3510  227.6090 C   0  0  0  0  0  0  0  0  0  0  0  0
  132.5000   76.5240  227.2560 C   0  0  0  0  0  0  0  0  0  0  0  0
  131.8160   78.0640  227.7560 Cl  0  0  0  0  0  0  0  0  0  0  0  0
  133.6600   76.5040  226.5140 C   0  0  0  0  0  0  0  0  0  0  0  0
  134.1910   75.2900  226.1250 C   0  0  0  0  0  0  0  0  0  0  0  0
  133.5840   74.0920  226.4650 C   0  0  0  0  0  0  0  0  0  0  0  0
  134.1160   72.9010  226.0760 N   0  0  0  0  0  0  0  0  0  0  0  0
  135.5230   71.3010  224.6420 H   0  0  0  0  0  0  0  0  0  0  0  0
  136.2723   68.7252  225.5204 H   0  0  0  0  0  0  0  0  0  0  0  0
  134.7812   68.4443  224.5180 H   0  0  0  0  0  0  0  0  0  0  0  0
  139.4545   68.2047  223.0614 H   0  0  0  0  0  0  0  0  0  0  0  0
  138.2443   68.4992  221.7277 H   0  0  0  0  0  0  0  0  0  0  0  0
  140.5809   69.5408  221.6412 H   0  0  0  0  0  0  0  0  0  0  0  0
  139.0281   70.4875  221.2356 H   0  0  0  0  0  0  0  0  0  0  0  0
  141.0119   70.8661  223.3727 H   0  0  0  0  0  0  0  0  0  0  0  0
  140.1038   72.0271  222.2627 H   0  0  0  0  0  0  0  0  0  0  0  0
  139.6390   71.9900  224.7866 H   0  0  0  0  0  0  0  0  0  0  0  0
  138.3049   72.0866  223.5297 H   0  0  0  0  0  0  0  0  0  0  0  0
  137.5924   70.6962  225.2213 H   0  0  0  0  0  0  0  0  0  0  0  0
  140.1264   71.2693  226.3265 H   0  0  0  0  0  0  0  0  0  0  0  0
  141.5437   70.0403  227.9102 H   0  0  0  0  0  0  0  0  0  0  0  0
  141.5057   67.5672  228.0704 H   0  0  0  0  0  0  0  0  0  0  0  0
  139.9615   66.3176  226.5473 H   0  0  0  0  0  0  0  0  0  0  0  0
  138.5384   67.5523  224.9592 H   0  0  0  0  0  0  0  0  0  0  0  0
  131.8840   70.8386  227.4190 H   0  0  0  0  0  0  0  0  0  0  0  0
  130.8492   72.9628  228.1675 H   0  0  0  0  0  0  0  0  0  0  0  0
  130.9462   75.3716  228.2012 H   0  0  0  0  0  0  0  0  0  0  0  0
  134.1579   77.4442  226.2344 H   0  0  0  0  0  0  0  0  0  0  0  0
  135.1171   75.2739  225.5316 H   0  0  0  0  0  0  0  0  0  0  0  0
  1  2  2  0
  2  3  1  0
  3  4  1  0
  4  5  1  0
  5  6  2  0
  5  7  1  0
  7  8  1  0
  8  9  1  0
  9 10  1  0
 10 11  1  0
 11 12  1  0
 12 13  1  0
 13 14  2  0
 14 15  1  0
 15 16  2  0
 16 17  1  0
 17 18  2  0
  2 19  1  0
 19 20  2  0
 20 21  1  0
 21 22  2  0
 22 23  1  0
 23 24  2  0
 24 25  1  0
 24 26  1  0
 26 27  2  0
 27 28  1  0
 28 29  2  0
 12  7  1  0
 18 13  1  0
 29 19  1  0
 28 22  1  0
  3 30  1  0
  4 31  1  0
  4 32  1  0
  8 33  1  0
  8 34  1  0
  9 35  1  0
  9 36  1  0
 10 37  1  0
 10 38  1  0
 11 39  1  0
 11 40  1  0
 12 41  1  1
 14 42  1  0
 15 43  1  0
 16 44  1  0
 17 45  1  0
 18 46  1  0
 20 47  1  0
 21 48  1  0
 23 49  1  0
 26 50  1  0
 27 51  1  0
M  END
>  <meeko>  (16) 
{"free_energy": -8.28, "intermolecular_energy": -9.77, "internal_energy": -1.65, "cluster_size": 1, "cluster_id": 3, "rank_in_cluster": 1}

$$$$

     RDKit          3D

 51 54  0  0  0  0  0  0  0  0999 V2000
  140.7530   73.3820  220.3620 O   0  0  0  0  0  0  0  0  0  0  0  0
  140.2030   74.1680  221.1850 C   0  0  0  0  0  0  0  0  0  0  0  0
  139.1680   73.6800  222.0330 N   0  0  0  0  0  0  0  0  0  0  0  0
  138.8140   72.2760  221.8780 C   0  0  0  0  0  0  0  0  0  0  0  0
  139.7090   71.3890  222.6270 C   0  0  0  0  0  0  0  0  0  0  0  0
  140.8800   71.1260  222.2530 O   0  0  0  0  0  0  0  0  0  0  0  0
  139.2660   70.7850  223.8290 N   0  0  0  0  0  0  0  0  0  0  0  0
  137.9130   70.9330  224.3480 C   0  0  0  0  0  0  0  0  0  0  0  0
  137.2770   69.6430  224.6900 C   0  0  0  0  0  0  0  0  0  0  0  0
  138.1360   68.5650  225.2570 C   0  0  0  0  0  0  0  0  0  0  0  0
  139.5610   68.5760  224.8240 C   0  0  0  0  0  0  0  0  0  0  0  0
  140.1540   69.9460  224.6590 C   0  0  2  0  0  0  0  0  0  0  0  0
  140.4940   70.6300  225.9160 C   0  0  0  0  0  0  0  0  0  0  0  0
  140.1630   69.9960  227.1000 C   0  0  0  0  0  0  0  0  0  0  0  0
  140.4610   70.5960  228.3080 C   0  0  0  0  0  0  0  0  0  0  0  0
  141.0860   71.8220  228.4090 C   0  0  0  0  0  0  0  0  0  0  0  0
  141.4140   72.4530  227.2310 C   0  0  0  0  0  0  0  0  0  0  0  0
  141.1140   71.8480  226.0150 C   0  0  0  0  0  0  0  0  0  0  0  0
  140.6250   75.5610  221.2690 C   0  0  0  0  0  0  0  0  0  0  0  0
  141.5890   76.0580  220.4440 C   0  0  0  0  0  0  0  0  0  0  0  0
  142.0350   77.3650  220.4690 C   0  0  0  0  0  0  0  0  0  0  0  0
  141.4370   78.2060  221.4130 C   0  0  0  0  0  0  0  0  0  0  0  0
  141.8450   79.5220  221.4830 C   0  0  0  0  0  0  0  0  0  0  0  0
  141.2620   80.3570  222.4100 C   0  0  0  0  0  0  0  0  0  0  0  0
  141.7690   82.0370  222.5120 Cl  0  0  0  0  0  0  0  0  0  0  0  0
  140.2840   79.8890  223.2600 C   0  0  0  0  0  0  0  0  0  0  0  0
  139.8910   78.5680  223.1740 C   0  0  0  0  0  0  0  0  0  0  0  0
  140.4590   77.7030  222.2520 C   0  0  0  0  0  0  0  0  0  0  0  0
  140.0640   76.4020  222.1750 N   0  0  0  0  0  0  0  0  0  0  0  0
  138.7030   74.3140  222.7200 H   0  0  0  0  0  0  0  0  0  0  0  0
  137.7859   72.1287  222.2403 H   0  0  0  0  0  0  0  0  0  0  0  0
  138.9052   72.0224  220.8115 H   0  0  0  0  0  0  0  0  0  0  0  0
  137.9522   71.5549  225.2545 H   0  0  0  0  0  0  0  0  0  0  0  0
  137.3073   71.3965  223.5554 H   0  0  0  0  0  0  0  0  0  0  0  0
  136.4878   69.8532  225.4269 H   0  0  0  0  0  0  0  0  0  0  0  0
  136.9361   69.2416  223.7243 H   0  0  0  0  0  0  0  0  0  0  0  0
  138.1156   68.6586  226.3528 H   0  0  0  0  0  0  0  0  0  0  0  0
  137.7169   67.6202  224.8805 H   0  0  0  0  0  0  0  0  0  0  0  0
  140.1525   68.0346  225.5770 H   0  0  0  0  0  0  0  0  0  0  0  0
  139.5888   68.1028  223.8314 H   0  0  0  0  0  0  0  0  0  0  0  0
  141.1181   69.7936  224.1517 H   0  0  0  0  0  0  0  0  0  0  0  0
  139.6635   69.0161  227.0796 H   0  0  0  0  0  0  0  0  0  0  0  0
  140.1866   70.0708  229.2347 H   0  0  0  0  0  0  0  0  0  0  0  0
  141.3116   72.2741  229.3861 H   0  0  0  0  0  0  0  0  0  0  0  0
  141.9122   73.4335  227.2509 H   0  0  0  0  0  0  0  0  0  0  0  0
  141.3877   72.3728  225.0878 H   0  0  0  0  0  0  0  0  0  0  0  0
  142.0412   75.3741  219.7107 H   0  0  0  0  0  0  0  0  0  0  0  0
  142.8173   77.7245  219.7843 H   0  0  0  0  0  0  0  0  0  0  0  0
  142.6262   79.8996  220.8069 H   0  0  0  0  0  0  0  0  0  0  0  0
  139.8214   80.5600  223.9988 H   0  0  0  0  0  0  0  0  0  0  0  0
  139.1099   78.1940  223.8522 H   0  0  0  0  0  0  0  0  0  0  0  0
  1  2  2  0
  2  3  1  0
  3  4  1  0
  4  5  1  0
  5  6  2  0
  5  7  1  0
  7  8  1  0
  8  9  1  0
  9 10  1  0
 10 11  1  0
 11 12  1  0
 12 13  1  0
 13 14  2  0
 14 15  1  0
 15 16  2  0
 16 17  1  0
 17 18  2  0
  2 19  1  0
 19 20  2  0
 20 21  1  0
 21 22  2  0
 22 23  1  0
 23 24  2  0
 24 25  1  0
 24 26  1  0
 26 27  2  0
 27 28  1  0
 28 29  2  0
 12  7  1  0
 18 13  1  0
 29 19  1  0
 28 22  1  0
  3 30  1  0
  4 31  1  0
  4 32  1  0
  8 33  1  0
  8 34  1  0
  9 35  1  0
  9 36  1  0
 10 37  1  0
 10 38  1  0
 11 39  1  0
 11 40  1  0
 12 41  1  6
 14 42  1  0
 15 43  1  0
 16 44  1  0
 17 45  1  0
 18 46  1  0
 20 47  1  0
 21 48  1  0
 23 49  1  0
 26 50  1  0
 27 51  1  0
M  END
>  <meeko>  (17) 
{"free_energy": -8.74, "intermolecular_energy": -10.23, "internal_energy": -1.56, "cluster_size": 4, "cluster_id": 2, "rank_in_cluster": 1}

$$$$

     RDKit          3D

 51 54  0  0  0  0  0  0  0  0999 V2000
  140.3690   72.5500  220.9510 O   0  0  0  0  0  0  0  0  0  0  0  0
  139.6490   72.6520  221.9850 C   0  0  0  0  0  0  0  0  0  0  0  0
  138.6990   73.7090  222.0740 N   0  0  0  0  0  0  0  0  0  0  0  0
  138.6310   74.6140  220.9360 C   0  0  0  0  0  0  0  0  0  0  0  0
  138.9970   75.9880  221.2920 C   0  0  0  0  0  0  0  0  0  0  0  0
  138.1810   76.8040  221.7900 O   0  0  0  0  0  0  0  0  0  0  0  0
  140.3200   76.4480  221.0800 N   0  0  0  0  0  0  0  0  0  0  0  0
  141.4960   75.6060  221.2470 C   0  0  0  0  0  0  0  0  0  0  0  0
  142.4090   75.6450  220.0850 C   0  0  0  0  0  0  0  0  0  0  0  0
  142.5640   76.9370  219.3570 C   0  0  0  0  0  0  0  0  0  0  0  0
  141.3780   77.8380  219.3760 C   0  0  0  0  0  0  0  0  0  0  0  0
  140.6110   77.8360  220.6670 C   0  0  2  0  0  0  0  0  0  0  0  0
  141.2420   78.5850  221.7640 C   0  0  0  0  0  0  0  0  0  0  0  0
  141.9530   79.7240  221.4350 C   0  0  0  0  0  0  0  0  0  0  0  0
  142.5650   80.4650  222.4280 C   0  0  0  0  0  0  0  0  0  0  0  0
  142.5070   80.1290  223.7650 C   0  0  0  0  0  0  0  0  0  0  0  0
  141.8000   78.9950  224.0920 C   0  0  0  0  0  0  0  0  0  0  0  0
  141.1850   78.2500  223.0920 C   0  0  0  0  0  0  0  0  0  0  0  0
  139.7870   71.6960  223.0770 C   0  0  0  0  0  0  0  0  0  0  0  0
  139.4080   70.3960  222.9300 C   0  0  0  0  0  0  0  0  0  0  0  0
  139.5120   69.4390  223.9210 C   0  0  0  0  0  0  0  0  0  0  0  0
  140.0450   69.8660  225.1410 C   0  0  0  0  0  0  0  0  0  0  0  0
  140.1700   68.9520  226.1680 C   0  0  0  0  0  0  0  0  0  0  0  0
  140.6930   69.3630  227.3730 C   0  0  0  0  0  0  0  0  0  0  0  0
  140.8620   68.2120  228.6900 Cl  0  0  0  0  0  0  0  0  0  0  0  0
  141.0880   70.6700  227.5570 C   0  0  0  0  0  0  0  0  0  0  0  0
  140.9530   71.5690  226.5170 C   0  0  0  0  0  0  0  0  0  0  0  0
  140.4300   71.1850  225.2930 C   0  0  0  0  0  0  0  0  0  0  0  0
  140.3010   72.0790  224.2740 N   0  0  0  0  0  0  0  0  0  0  0  0
  138.0950   73.8090  222.9200 H   0  0  0  0  0  0  0  0  0  0  0  0
  139.3205   74.2552  220.1576 H   0  0  0  0  0  0  0  0  0  0  0  0
  137.5907   74.6259  220.5787 H   0  0  0  0  0  0  0  0  0  0  0  0
  142.0468   75.9468  222.1361 H   0  0  0  0  0  0  0  0  0  0  0  0
  141.1439   74.5692  221.3518 H   0  0  0  0  0  0  0  0  0  0  0  0
  143.4064   75.3502  220.4432 H   0  0  0  0  0  0  0  0  0  0  0  0
  141.9456   74.9705  219.3500 H   0  0  0  0  0  0  0  0  0  0  0  0
  143.4075   77.4798  219.8086 H   0  0  0  0  0  0  0  0  0  0  0  0
  142.7184   76.6686  218.3015 H   0  0  0  0  0  0  0  0  0  0  0  0
  141.7240   78.8644  219.1843 H   0  0  0  0  0  0  0  0  0  0  0  0
  140.6897   77.4630  218.6043 H   0  0  0  0  0  0  0  0  0  0  0  0
  139.6758   78.3761  220.4582 H   0  0  0  0  0  0  0  0  0  0  0  0
  142.0315   80.0400  220.3843 H   0  0  0  0  0  0  0  0  0  0  0  0
  143.1254   81.3662  222.1386 H   0  0  0  0  0  0  0  0  0  0  0  0
  143.0031   80.7396  224.5338 H   0  0  0  0  0  0  0  0  0  0  0  0
  141.7214   78.6783  225.1425 H   0  0  0  0  0  0  0  0  0  0  0  0
  140.6255   77.3479  223.3806 H   0  0  0  0  0  0  0  0  0  0  0  0
  138.9922   70.0881  221.9593 H   0  0  0  0  0  0  0  0  0  0  0  0
  139.1931   68.3988  223.7592 H   0  0  0  0  0  0  0  0  0  0  0  0
  139.8554   67.9077  226.0250 H   0  0  0  0  0  0  0  0  0  0  0  0
  141.5062   70.9940  228.5214 H   0  0  0  0  0  0  0  0  0  0  0  0
  141.2677   72.6127  226.6639 H   0  0  0  0  0  0  0  0  0  0  0  0
  1  2  2  0
  2  3  1  0
  3  4  1  0
  4  5  1  0
  5  6  2  0
  5  7  1  0
  7  8  1  0
  8  9  1  0
  9 10  1  0
 10 11  1  0
 11 12  1  0
 12 13  1  0
 13 14  2  0
 14 15  1  0
 15 16  2  0
 16 17  1  0
 17 18  2  0
  2 19  1  0
 19 20  2  0
 20 21  1  0
 21 22  2  0
 22 23  1  0
 23 24  2  0
 24 25  1  0
 24 26  1  0
 26 27  2  0
 27 28  1  0
 28 29  2  0
 12  7  1  0
 18 13  1  0
 29 19  1  0
 28 22  1  0
  3 30  1  0
  4 31  1  0
  4 32  1  0
  8 33  1  0
  8 34  1  0
  9 35  1  0
  9 36  1  0
 10 37  1  0
 10 38  1  0
 11 39  1  0
 11 40  1  0
 12 41  1  6
 14 42  1  0
 15 43  1  0
 16 44  1  0
 17 45  1  0
 18 46  1  0
 20 47  1  0
 21 48  1  0
 23 49  1  0
 26 50  1  0
 27 51  1  0
M  END
>  <meeko>  (18) 
{"free_energy": -9.32, "intermolecular_energy": -10.81, "internal_energy": -1.54, "cluster_size": 14, "cluster_id": 1, "rank_in_cluster": 3}

$$$$

     RDKit          3D

 51 54  0  0  0  0  0  0  0  0999 V2000
  140.3130   72.4130  220.7550 O   0  0  0  0  0  0  0  0  0  0  0  0
  140.0520   72.7960  221.9310 C   0  0  0  0  0  0  0  0  0  0  0  0
  139.7560   74.1680  222.1690 N   0  0  0  0  0  0  0  0  0  0  0  0
  139.7800   75.0460  221.0080 C   0  0  0  0  0  0  0  0  0  0  0  0
  141.1430   75.4180  220.6170 C   0  0  0  0  0  0  0  0  0  0  0  0
  142.0830   74.5870  220.5430 O   0  0  0  0  0  0  0  0  0  0  0  0
  141.4480   76.7650  220.3030 N   0  0  0  0  0  0  0  0  0  0  0  0
  142.6090   77.1610  219.5180 C   0  0  0  0  0  0  0  0  0  0  0  0
  142.2730   78.0700  218.4020 C   0  0  0  0  0  0  0  0  0  0  0  0
  141.1900   79.0720  218.6130 C   0  0  0  0  0  0  0  0  0  0  0  0
  140.1190   78.6760  219.5710 C   0  0  0  0  0  0  0  0  0  0  0  0
  140.5990   77.8870  220.7540 C   0  0  2  0  0  0  0  0  0  0  0  0
  141.2840   78.6760  221.7900 C   0  0  0  0  0  0  0  0  0  0  0  0
  141.1850   78.2390  223.0980 C   0  0  0  0  0  0  0  0  0  0  0  0
  141.8100   78.9440  224.1080 C   0  0  0  0  0  0  0  0  0  0  0  0
  142.5470   80.0890  223.8860 C   0  0  0  0  0  0  0  0  0  0  0  0
  142.6450   80.5240  222.5840 C   0  0  0  0  0  0  0  0  0  0  0  0
  142.0160   79.8130  221.5680 C   0  0  0  0  0  0  0  0  0  0  0  0
  140.0510   71.8420  223.0340 C   0  0  0  0  0  0  0  0  0  0  0  0
  139.5590   70.5820  222.8780 C   0  0  0  0  0  0  0  0  0  0  0  0
  139.5290   69.6300  223.8790 C   0  0  0  0  0  0  0  0  0  0  0  0
  140.0430   70.0190  225.1200 C   0  0  0  0  0  0  0  0  0  0  0  0
  140.0370   69.1080  226.1560 C   0  0  0  0  0  0  0  0  0  0  0  0
  140.5410   69.4810  227.3820 C   0  0  0  0  0  0  0  0  0  0  0  0
  140.5410   68.3340  228.7120 Cl  0  0  0  0  0  0  0  0  0  0  0  0
  141.0460   70.7480  227.5760 C   0  0  0  0  0  0  0  0  0  0  0  0
  141.0430   71.6450  226.5250 C   0  0  0  0  0  0  0  0  0  0  0  0
  140.5420   71.2980  225.2800 C   0  0  0  0  0  0  0  0  0  0  0  0
  140.5430   72.1900  224.2510 N   0  0  0  0  0  0  0  0  0  0  0  0
  139.5370   74.5040  223.1340 H   0  0  0  0  0  0  0  0  0  0  0  0
  139.2990   74.5294  220.1643 H   0  0  0  0  0  0  0  0  0  0  0  0
  139.2437   75.9688  221.2741 H   0  0  0  0  0  0  0  0  0  0  0  0
  143.3228   77.6709  220.1818 H   0  0  0  0  0  0  0  0  0  0  0  0
  143.0348   76.2467  219.0789 H   0  0  0  0  0  0  0  0  0  0  0  0
  143.1872   78.6262  218.1475 H   0  0  0  0  0  0  0  0  0  0  0  0
  141.8816   77.4060  217.6172 H   0  0  0  0  0  0  0  0  0  0  0  0
  141.6536   79.9964  218.9880 H   0  0  0  0  0  0  0  0  0  0  0  0
  140.6928   79.1850  217.6383 H   0  0  0  0  0  0  0  0  0  0  0  0
  139.6355   79.5915  219.9426 H   0  0  0  0  0  0  0  0  0  0  0  0
  139.4321   78.0196  219.0166 H   0  0  0  0  0  0  0  0  0  0  0  0
  139.6913   77.5057  221.2447 H   0  0  0  0  0  0  0  0  0  0  0  0
  140.6096   77.3316  223.3338 H   0  0  0  0  0  0  0  0  0  0  0  0
  141.7155   78.5745  225.1398 H   0  0  0  0  0  0  0  0  0  0  0  0
  143.0337   80.6292  224.7114 H   0  0  0  0  0  0  0  0  0  0  0  0
  143.2195   81.4318  222.3477 H   0  0  0  0  0  0  0  0  0  0  0  0
  142.1106   80.1811  220.5358 H   0  0  0  0  0  0  0  0  0  0  0  0
  139.1597   70.3040  221.8915 H   0  0  0  0  0  0  0  0  0  0  0  0
  139.1232   68.6218  223.7091 H   0  0  0  0  0  0  0  0  0  0  0  0
  139.6344   68.0956  226.0045 H   0  0  0  0  0  0  0  0  0  0  0  0
  141.4473   71.0424  228.5570 H   0  0  0  0  0  0  0  0  0  0  0  0
  141.4469   72.6564  226.6796 H   0  0  0  0  0  0  0  0  0  0  0  0
  1  2  2  0
  2  3  1  0
  3  4  1  0
  4  5  1  0
  5  6  2  0
  5  7  1  0
  7  8  1  0
  8  9  1  0
  9 10  1  0
 10 11  1  0
 11 12  1  0
 12 13  1  0
 13 14  2  0
 14 15  1  0
 15 16  2  0
 16 17  1  0
 17 18  2  0
  2 19  1  0
 19 20  2  0
 20 21  1  0
 21 22  2  0
 22 23  1  0
 23 24  2  0
 24 25  1  0
 24 26  1  0
 26 27  2  0
 27 28  1  0
 28 29  2  0
 12  7  1  0
 18 13  1  0
 29 19  1  0
 28 22  1  0
  3 30  1  0
  4 31  1  0
  4 32  1  0
  8 33  1  0
  8 34  1  0
  9 35  1  0
  9 36  1  0
 10 37  1  0
 10 38  1  0
 11 39  1  0
 11 40  1  0
 12 41  1  1
 14 42  1  0
 15 43  1  0
 16 44  1  0
 17 45  1  0
 18 46  1  0
 20 47  1  0
 21 48  1  0
 23 49  1  0
 26 50  1  0
 27 51  1  0
M  END
>  <meeko>  (19) 
{"free_energy": -9.11, "intermolecular_energy": -10.6, "internal_energy": -1.41, "cluster_size": 14, "cluster_id": 1, "rank_in_cluster": 8}

$$$$

     RDKit          3D

 51 54  0  0  0  0  0  0  0  0999 V2000
  141.2730   73.2710  220.6080 O   0  0  0  0  0  0  0  0  0  0  0  0
  140.4950   74.0850  221.1830 C   0  0  0  0  0  0  0  0  0  0  0  0
  139.2950   73.6020  221.7780 N   0  0  0  0  0  0  0  0  0  0  0  0
  139.0500   72.1710  221.6720 C   0  0  0  0  0  0  0  0  0  0  0  0
  139.8560   71.3950  222.6190 C   0  0  0  0  0  0  0  0  0  0  0  0
  141.0830   71.1800  222.4550 O   0  0  0  0  0  0  0  0  0  0  0  0
  139.2550   70.8490  223.7790 N   0  0  0  0  0  0  0  0  0  0  0  0
  137.9080   71.1860  224.2170 C   0  0  0  0  0  0  0  0  0  0  0  0
  137.0720   69.9980  224.4950 C   0  0  0  0  0  0  0  0  0  0  0  0
  137.7300   68.8020  225.0940 C   0  0  0  0  0  0  0  0  0  0  0  0
  139.1670   68.6110  224.7490 C   0  0  0  0  0  0  0  0  0  0  0  0
  139.9590   69.8820  224.6470 C   0  0  2  0  0  0  0  0  0  0  0  0
  140.3130   70.4980  225.9340 C   0  0  0  0  0  0  0  0  0  0  0  0
  141.0780   71.6490  225.9060 C   0  0  0  0  0  0  0  0  0  0  0  0
  141.4370   72.2670  227.0880 C   0  0  0  0  0  0  0  0  0  0  0  0
  141.0690   71.7930  228.3300 C   0  0  0  0  0  0  0  0  0  0  0  0
  140.3080   70.6470  228.3590 C   0  0  0  0  0  0  0  0  0  0  0  0
  139.9470   70.0260  227.1680 C   0  0  0  0  0  0  0  0  0  0  0  0
  140.8240   75.5040  221.2400 C   0  0  0  0  0  0  0  0  0  0  0  0
  141.7560   76.0470  220.4090 C   0  0  0  0  0  0  0  0  0  0  0  0
  142.1150   77.3820  220.4090 C   0  0  0  0  0  0  0  0  0  0  0  0
  141.4590   78.1990  221.3350 C   0  0  0  0  0  0  0  0  0  0  0  0
  141.7780   79.5410  221.3800 C   0  0  0  0  0  0  0  0  0  0  0  0
  141.1380   80.3540  222.2880 C   0  0  0  0  0  0  0  0  0  0  0  0
  141.5330   82.0640  222.3580 Cl  0  0  0  0  0  0  0  0  0  0  0  0
  140.1900   79.8390  223.1450 C   0  0  0  0  0  0  0  0  0  0  0  0
  139.8860   78.4930  223.0840 C   0  0  0  0  0  0  0  0  0  0  0  0
  140.5130   77.6500  222.1800 C   0  0  0  0  0  0  0  0  0  0  0  0
  140.2050   76.3240  222.1280 N   0  0  0  0  0  0  0  0  0  0  0  0
  138.6400   74.2590  222.2590 H   0  0  0  0  0  0  0  0  0  0  0  0
  137.9858   71.9788  221.8733 H   0  0  0  0  0  0  0  0  0  0  0  0
  139.3309   71.8567  220.6559 H   0  0  0  0  0  0  0  0  0  0  0  0
  137.9790   71.7864  225.1359 H   0  0  0  0  0  0  0  0  0  0  0  0
  137.4267   71.7403  223.3978 H   0  0  0  0  0  0  0  0  0  0  0  0
  136.2758   70.3131  225.1855 H   0  0  0  0  0  0  0  0  0  0  0  0
  136.7387   69.6593  223.5029 H   0  0  0  0  0  0  0  0  0  0  0  0
  137.6542   68.8877  226.1880 H   0  0  0  0  0  0  0  0  0  0  0  0
  137.2042   67.9311  224.6756 H   0  0  0  0  0  0  0  0  0  0  0  0
  139.6259   67.9821  225.5262 H   0  0  0  0  0  0  0  0  0  0  0  0
  139.1894   68.1486  223.7512 H   0  0  0  0  0  0  0  0  0  0  0  0
  140.9216   69.5962  224.1979 H   0  0  0  0  0  0  0  0  0  0  0  0
  141.4006   72.0724  224.9433 H   0  0  0  0  0  0  0  0  0  0  0  0
  142.0460   73.1816  227.0363 H   0  0  0  0  0  0  0  0  0  0  0  0
  141.3700   72.3074  229.2546 H   0  0  0  0  0  0  0  0  0  0  0  0
  139.9860   70.2231  229.3216 H   0  0  0  0  0  0  0  0  0  0  0  0
  139.3380   69.1114  227.2187 H   0  0  0  0  0  0  0  0  0  0  0  0
  142.2557   75.3801  219.6910 H   0  0  0  0  0  0  0  0  0  0  0  0
  142.8742   77.7793  219.7192 H   0  0  0  0  0  0  0  0  0  0  0  0
  142.5349   79.9561  220.6982 H   0  0  0  0  0  0  0  0  0  0  0  0
  139.6812   80.4921  223.8693 H   0  0  0  0  0  0  0  0  0  0  0  0
  139.1295   78.0810  223.7681 H   0  0  0  0  0  0  0  0  0  0  0  0
  1  2  2  0
  2  3  1  0
  3  4  1  0
  4  5  1  0
  5  6  2  0
  5  7  1  0
  7  8  1  0
  8  9  1  0
  9 10  1  0
 10 11  1  0
 11 12  1  0
 12 13  1  0
 13 14  2  0
 14 15  1  0
 15 16  2  0
 16 17  1  0
 17 18  2  0
  2 19  1  0
 19 20  2  0
 20 21  1  0
 21 22  2  0
 22 23  1  0
 23 24  2  0
 24 25  1  0
 24 26  1  0
 26 27  2  0
 27 28  1  0
 28 29  2  0
 12  7  1  0
 18 13  1  0
 29 19  1  0
 28 22  1  0
  3 30  1  0
  4 31  1  0
  4 32  1  0
  8 33  1  0
  8 34  1  0
  9 35  1  0
  9 36  1  0
 10 37  1  0
 10 38  1  0
 11 39  1  0
 11 40  1  0
 12 41  1  6
 14 42  1  0
 15 43  1  0
 16 44  1  0
 17 45  1  0
 18 46  1  0
 20 47  1  0
 21 48  1  0
 23 49  1  0
 26 50  1  0
 27 51  1  0
M  END
>  <meeko>  (20) 
{"free_energy": -8.56, "intermolecular_energy": -10.05, "internal_energy": -1.59, "cluster_size": 4, "cluster_id": 2, "rank_in_cluster": 3}

$$$$
