
     RDKit          3D

 49 52  0  0  0  0  0  0  0  0999 V2000
  136.1600   70.3690  223.0950 O   0  0  0  0  0  0  0  0  0  0  0  0
  136.0320   71.4810  223.6730 C   0  0  0  0  0  0  0  0  0  0  0  0
  136.8840   72.5760  223.3410 N   0  0  0  0  0  0  0  0  0  0  0  0
  137.9200   72.4330  222.3250 C   0  0  0  0  0  0  0  0  0  0  0  0
  139.0880   71.7900  222.9690 C   0  0  0  0  0  0  0  0  0  0  0  0
  140.1210   72.5190  223.1320 O   0  0  0  0  0  0  0  0  0  0  0  0
  139.0900   70.4310  223.3960 N   0  0  0  0  0  0  0  0  0  0  0  0
  139.4320   69.3410  222.4920 C   0  0  0  0  0  0  0  0  0  0  0  0
  138.8560   68.1100  223.1170 C   0  0  2  0  0  0  0  0  0  0  0  0
  137.5870   67.7890  222.6640 O   0  0  0  0  0  0  0  0  0  0  0  0
  138.7860   68.4630  224.5860 C   0  0  0  0  0  0  0  0  0  0  0  0
  138.7750   69.9530  224.7020 C   0  0  1  0  0  0  0  0  0  0  0  0
  139.6400   70.4610  225.7860 C   0  0  0  0  0  0  0  0  0  0  0  0
  139.5100   70.0380  227.1110 C   0  0  0  0  0  0  0  0  0  0  0  0
  140.3480   70.5440  228.1020 C   0  0  0  0  0  0  0  0  0  0  0  0
  141.3210   71.4800  227.7580 C   0  0  0  0  0  0  0  0  0  0  0  0
  141.4510   71.9010  226.4390 C   0  0  0  0  0  0  0  0  0  0  0  0
  140.6130   71.3960  225.4440 C   0  0  0  0  0  0  0  0  0  0  0  0
  135.0070   71.6670  224.6960 C   0  0  0  0  0  0  0  0  0  0  0  0
  134.4430   70.5810  225.3290 C   0  0  0  0  0  0  0  0  0  0  0  0
  133.4600   70.7370  226.3110 C   0  0  0  0  0  0  0  0  0  0  0  0
  133.0720   72.0310  226.6270 C   0  0  0  0  0  0  0  0  0  0  0  0
  132.1050   72.2890  227.5860 C   0  0  0  0  0  0  0  0  0  0  0  0
  131.7080   73.5680  227.9120 C   0  0  0  0  0  0  0  0  0  0  0  0
  132.2850   74.6630  227.2650 C   0  0  0  0  0  0  0  0  0  0  0  0
  131.8060   76.3070  227.6510 Cl  0  0  0  0  0  0  0  0  0  0  0  0
  133.2480   74.3960  226.3090 C   0  0  0  0  0  0  0  0  0  0  0  0
  133.6470   73.1200  225.9820 C   0  0  0  0  0  0  0  0  0  0  0  0
  134.5880   72.8950  225.0460 N   0  0  0  0  0  0  0  0  0  0  0  0
  136.7280   73.4810  223.8600 H   0  0  0  0  0  0  0  0  0  0  0  0
  137.5529   71.8050  221.4999 H   0  0  0  0  0  0  0  0  0  0  0  0
  138.1963   73.4144  221.9121 H   0  0  0  0  0  0  0  0  0  0  0  0
  138.9899   69.5114  221.4993 H   0  0  0  0  0  0  0  0  0  0  0  0
  140.5191   69.2557  222.3474 H   0  0  0  0  0  0  0  0  0  0  0  0
  139.4716   67.2309  222.8756 H   0  0  0  0  0  0  0  0  0  0  0  0
  136.9910   68.5750  222.7090 H   0  0  0  0  0  0  0  0  0  0  0  0
  137.8678   68.0473  225.0266 H   0  0  0  0  0  0  0  0  0  0  0  0
  139.6506   68.0440  225.1217 H   0  0  0  0  0  0  0  0  0  0  0  0
  137.7927   70.3365  225.0152 H   0  0  0  0  0  0  0  0  0  0  0  0
  138.7390   69.2988  227.3741 H   0  0  0  0  0  0  0  0  0  0  0  0
  140.2428   70.2084  229.1443 H   0  0  0  0  0  0  0  0  0  0  0  0
  141.9883   71.8872  228.5319 H   0  0  0  0  0  0  0  0  0  0  0  0
  142.2226   72.6400  226.1772 H   0  0  0  0  0  0  0  0  0  0  0  0
  140.7200   71.7326  224.4022 H   0  0  0  0  0  0  0  0  0  0  0  0
  134.7736   69.5681  225.0556 H   0  0  0  0  0  0  0  0  0  0  0  0
  133.0116   69.8673  226.8136 H   0  0  0  0  0  0  0  0  0  0  0  0
  131.6366   71.4407  228.1067 H   0  0  0  0  0  0  0  0  0  0  0  0
  130.9375   73.7261  228.6810 H   0  0  0  0  0  0  0  0  0  0  0  0
  133.7167   75.2425  225.7858 H   0  0  0  0  0  0  0  0  0  0  0  0
  1  2  2  0
  2  3  1  0
  3  4  1  0
  4  5  1  0
  5  6  2  0
  5  7  1  0
  7  8  1  0
  8  9  1  0
  9 10  1  0
  9 11  1  0
 11 12  1  0
 12 13  1  0
 13 14  2  0
 14 15  1  0
 15 16  2  0
 16 17  1  0
 17 18  2  0
  2 19  1  0
 19 20  2  0
 20 21  1  0
 21 22  2  0
 22 23  1  0
 23 24  2  0
 24 25  1  0
 25 26  1  0
 25 27  2  0
 27 28  1  0
 28 29  2  0
 12  7  1  0
 18 13  1  0
 29 19  1  0
 28 22  1  0
  3 30  1  0
  4 31  1  0
  4 32  1  0
  8 33  1  0
  8 34  1  0
  9 35  1  1
 10 36  1  0
 11 37  1  0
 11 38  1  0
 12 39  1  1
 14 40  1  0
 15 41  1  0
 16 42  1  0
 17 43  1  0
 18 44  1  0
 20 45  1  0
 21 46  1  0
 23 47  1  0
 24 48  1  0
 27 49  1  0
M  END
>  <meeko>  (1) 
{"free_energy": -7.57, "intermolecular_energy": -9.36, "internal_energy": -2.32, "cluster_size": 5, "cluster_id": 3, "rank_in_cluster": 5}

$$$$

     RDKit          3D

 49 52  0  0  0  0  0  0  0  0999 V2000
  136.1740   70.5130  223.2140 O   0  0  0  0  0  0  0  0  0  0  0  0
  136.0820   71.7010  223.6220 C   0  0  0  0  0  0  0  0  0  0  0  0
  136.9530   72.7120  223.1190 N   0  0  0  0  0  0  0  0  0  0  0  0
  137.9670   72.3940  222.1200 C   0  0  0  0  0  0  0  0  0  0  0  0
  139.1120   71.7800  222.8300 C   0  0  0  0  0  0  0  0  0  0  0  0
  140.1330   72.5200  223.0100 O   0  0  0  0  0  0  0  0  0  0  0  0
  139.1040   70.4350  223.2990 N   0  0  0  0  0  0  0  0  0  0  0  0
  139.4170   69.3130  222.4250 C   0  0  0  0  0  0  0  0  0  0  0  0
  138.8370   68.1090  223.0970 C   0  0  2  0  0  0  0  0  0  0  0  0
  137.5560   67.7900  222.6760 O   0  0  0  0  0  0  0  0  0  0  0  0
  138.7960   68.5090  224.5550 C   0  0  0  0  0  0  0  0  0  0  0  0
  138.8060   70.0020  224.6240 C   0  0  1  0  0  0  0  0  0  0  0  0
  139.6950   70.5320  225.6780 C   0  0  0  0  0  0  0  0  0  0  0  0
  140.6570   71.5130  225.4270 C   0  0  0  0  0  0  0  0  0  0  0  0
  141.4740   71.9840  226.4520 C   0  0  0  0  0  0  0  0  0  0  0  0
  141.3240   71.4640  227.7360 C   0  0  0  0  0  0  0  0  0  0  0  0
  140.3660   70.4870  227.9870 C   0  0  0  0  0  0  0  0  0  0  0  0
  139.5450   70.0140  226.9620 C   0  0  0  0  0  0  0  0  0  0  0  0
  135.0810   72.0620  224.6210 C   0  0  0  0  0  0  0  0  0  0  0  0
  134.3380   71.0890  225.2540 C   0  0  0  0  0  0  0  0  0  0  0  0
  133.3750   71.4130  226.2140 C   0  0  0  0  0  0  0  0  0  0  0  0
  133.1920   72.7560  226.5080 C   0  0  0  0  0  0  0  0  0  0  0  0
  132.2610   73.1790  227.4430 C   0  0  0  0  0  0  0  0  0  0  0  0
  132.0670   74.5090  227.7470 C   0  0  0  0  0  0  0  0  0  0  0  0
  132.8240   75.4890  227.1020 C   0  0  0  0  0  0  0  0  0  0  0  0
  132.6070   77.1930  227.4600 Cl  0  0  0  0  0  0  0  0  0  0  0  0
  133.7500   75.0580  226.1690 C   0  0  0  0  0  0  0  0  0  0  0  0
  133.9460   73.7300  225.8640 C   0  0  0  0  0  0  0  0  0  0  0  0
  134.8570   73.3460  224.9500 N   0  0  0  0  0  0  0  0  0  0  0  0
  136.8270   73.6880  223.5010 H   0  0  0  0  0  0  0  0  0  0  0  0
  137.5592   71.6870  221.3825 H   0  0  0  0  0  0  0  0  0  0  0  0
  138.2834   73.3019  221.5856 H   0  0  0  0  0  0  0  0  0  0  0  0
  138.9603   69.4580  221.4348 H   0  0  0  0  0  0  0  0  0  0  0  0
  140.5005   69.2094  222.2661 H   0  0  0  0  0  0  0  0  0  0  0  0
  139.4376   67.2152  222.8723 H   0  0  0  0  0  0  0  0  0  0  0  0
  136.9700   68.5840  222.7120 H   0  0  0  0  0  0  0  0  0  0  0  0
  137.8801   68.1196  225.0234 H   0  0  0  0  0  0  0  0  0  0  0  0
  139.6640   68.0956  225.0895 H   0  0  0  0  0  0  0  0  0  0  0  0
  137.8342   70.4085  224.9408 H   0  0  0  0  0  0  0  0  0  0  0  0
  140.7704   71.9174  224.4103 H   0  0  0  0  0  0  0  0  0  0  0  0
  142.2292   72.7579  226.2501 H   0  0  0  0  0  0  0  0  0  0  0  0
  141.9647   71.8269  228.5532 H   0  0  0  0  0  0  0  0  0  0  0  0
  140.2543   70.0829  229.0040 H   0  0  0  0  0  0  0  0  0  0  0  0
  138.7888   69.2416  227.1659 H   0  0  0  0  0  0  0  0  0  0  0  0
  134.5068   70.0327  224.9977 H   0  0  0  0  0  0  0  0  0  0  0  0
  132.7850   70.6327  226.7170 H   0  0  0  0  0  0  0  0  0  0  0  0
  131.6531   72.4238  227.9628 H   0  0  0  0  0  0  0  0  0  0  0  0
  131.3164   74.7984  228.4972 H   0  0  0  0  0  0  0  0  0  0  0  0
  134.3579   75.8114  225.6466 H   0  0  0  0  0  0  0  0  0  0  0  0
  1  2  2  0
  2  3  1  0
  3  4  1  0
  4  5  1  0
  5  6  2  0
  5  7  1  0
  7  8  1  0
  8  9  1  0
  9 10  1  0
  9 11  1  0
 11 12  1  0
 12 13  1  0
 13 14  2  0
 14 15  1  0
 15 16  2  0
 16 17  1  0
 17 18  2  0
  2 19  1  0
 19 20  2  0
 20 21  1  0
 21 22  2  0
 22 23  1  0
 23 24  2  0
 24 25  1  0
 25 26  1  0
 25 27  2  0
 27 28  1  0
 28 29  2  0
 12  7  1  0
 18 13  1  0
 29 19  1  0
 28 22  1  0
  3 30  1  0
  4 31  1  0
  4 32  1  0
  8 33  1  0
  8 34  1  0
  9 35  1  1
 10 36  1  0
 11 37  1  0
 11 38  1  0
 12 39  1  1
 14 40  1  0
 15 41  1  0
 16 42  1  0
 17 43  1  0
 18 44  1  0
 20 45  1  0
 21 46  1  0
 23 47  1  0
 24 48  1  0
 27 49  1  0
M  END
>  <meeko>  (2) 
{"free_energy": -7.72, "intermolecular_energy": -9.51, "internal_energy": -2.45, "cluster_size": 5, "cluster_id": 3, "rank_in_cluster": 1}

$$$$

     RDKit          3D

 49 52  0  0  0  0  0  0  0  0999 V2000
  138.1830   73.3670  221.7460 O   0  0  0  0  0  0  0  0  0  0  0  0
  139.2320   74.0240  221.9790 C   0  0  0  0  0  0  0  0  0  0  0  0
  140.5030   73.3780  222.0040 N   0  0  0  0  0  0  0  0  0  0  0  0
  140.6180   71.9450  221.7600 C   0  0  0  0  0  0  0  0  0  0  0  0
  140.3000   71.2510  223.0280 C   0  0  0  0  0  0  0  0  0  0  0  0
  141.2330   71.1930  223.8940 O   0  0  0  0  0  0  0  0  0  0  0  0
  139.0300   70.6670  223.2970 N   0  0  0  0  0  0  0  0  0  0  0  0
  138.1700   70.1690  222.2320 C   0  0  0  0  0  0  0  0  0  0  0  0
  136.7970   70.1090  222.8220 C   0  0  2  0  0  0  0  0  0  0  0  0
  136.0370   71.2470  222.5980 O   0  0  0  0  0  0  0  0  0  0  0  0
  137.0590   69.9710  224.3050 C   0  0  0  0  0  0  0  0  0  0  0  0
  138.4340   70.4890  224.5800 C   0  0  1  0  0  0  0  0  0  0  0  0
  139.1980   69.6440  225.5200 C   0  0  0  0  0  0  0  0  0  0  0  0
  139.2040   68.2500  225.4440 C   0  0  0  0  0  0  0  0  0  0  0  0
  139.9400   67.4930  226.3530 C   0  0  0  0  0  0  0  0  0  0  0  0
  140.6740   68.1420  227.3440 C   0  0  0  0  0  0  0  0  0  0  0  0
  140.6680   69.5310  227.4200 C   0  0  0  0  0  0  0  0  0  0  0  0
  139.9330   70.2920  226.5110 C   0  0  0  0  0  0  0  0  0  0  0  0
  139.1620   75.4600  222.2300 C   0  0  0  0  0  0  0  0  0  0  0  0
  137.9470   76.1090  222.2630 C   0  0  0  0  0  0  0  0  0  0  0  0
  137.8580   77.4830  222.5020 C   0  0  0  0  0  0  0  0  0  0  0  0
  139.0430   78.1740  222.7050 C   0  0  0  0  0  0  0  0  0  0  0  0
  139.0600   79.5390  222.9480 C   0  0  0  0  0  0  0  0  0  0  0  0
  140.2290   80.2410  223.1520 C   0  0  0  0  0  0  0  0  0  0  0  0
  141.4560   79.5760  223.1180 C   0  0  0  0  0  0  0  0  0  0  0  0
  142.9660   80.4330  223.3720 Cl  0  0  0  0  0  0  0  0  0  0  0  0
  141.4300   78.2150  222.8740 C   0  0  0  0  0  0  0  0  0  0  0  0
  140.2640   77.5110  222.6700 C   0  0  0  0  0  0  0  0  0  0  0  0
  140.2750   76.1860  222.4350 N   0  0  0  0  0  0  0  0  0  0  0  0
  141.3450   73.9820  222.2060 H   0  0  0  0  0  0  0  0  0  0  0  0
  139.9090   71.6393  220.9765 H   0  0  0  0  0  0  0  0  0  0  0  0
  141.6334   71.6896  221.4226 H   0  0  0  0  0  0  0  0  0  0  0  0
  138.1888   70.8534  221.3710 H   0  0  0  0  0  0  0  0  0  0  0  0
  138.5006   69.1854  221.8669 H   0  0  0  0  0  0  0  0  0  0  0  0
  136.2187   69.2897  222.3700 H   0  0  0  0  0  0  0  0  0  0  0  0
  136.6190   72.0210  222.4020 H   0  0  0  0  0  0  0  0  0  0  0  0
  136.3193   70.5561  224.8710 H   0  0  0  0  0  0  0  0  0  0  0  0
  136.9785   68.9176  224.6114 H   0  0  0  0  0  0  0  0  0  0  0  0
  138.4153   71.4472  225.1200 H   0  0  0  0  0  0  0  0  0  0  0  0
  138.6222   67.7446  224.6591 H   0  0  0  0  0  0  0  0  0  0  0  0
  139.9417   66.3949  226.2891 H   0  0  0  0  0  0  0  0  0  0  0  0
  141.2590   67.5550  228.0673 H   0  0  0  0  0  0  0  0  0  0  0  0
  141.2496   70.0350  228.2060 H   0  0  0  0  0  0  0  0  0  0  0  0
  139.9335   71.3901  226.5756 H   0  0  0  0  0  0  0  0  0  0  0  0
  137.0253   75.5320  222.0973 H   0  0  0  0  0  0  0  0  0  0  0  0
  136.8856   77.9965  222.5281 H   0  0  0  0  0  0  0  0  0  0  0  0
  138.1042   80.0826  222.9792 H   0  0  0  0  0  0  0  0  0  0  0  0
  140.1949   81.3240  223.3414 H   0  0  0  0  0  0  0  0  0  0  0  0
  142.3847   77.6696  222.8413 H   0  0  0  0  0  0  0  0  0  0  0  0
  1  2  2  0
  2  3  1  0
  3  4  1  0
  4  5  1  0
  5  6  2  0
  5  7  1  0
  7  8  1  0
  8  9  1  0
  9 10  1  0
  9 11  1  0
 11 12  1  0
 12 13  1  0
 13 14  2  0
 14 15  1  0
 15 16  2  0
 16 17  1  0
 17 18  2  0
  2 19  1  0
 19 20  2  0
 20 21  1  0
 21 22  2  0
 22 23  1  0
 23 24  2  0
 24 25  1  0
 25 26  1  0
 25 27  2  0
 27 28  1  0
 28 29  2  0
 12  7  1  0
 18 13  1  0
 29 19  1  0
 28 22  1  0
  3 30  1  0
  4 31  1  0
  4 32  1  0
  8 33  1  0
  8 34  1  0
  9 35  1  6
 10 36  1  0
 11 37  1  0
 11 38  1  0
 12 39  1  1
 14 40  1  0
 15 41  1  0
 16 42  1  0
 17 43  1  0
 18 44  1  0
 20 45  1  0
 21 46  1  0
 23 47  1  0
 24 48  1  0
 27 49  1  0
M  END
>  <meeko>  (3) 
{"free_energy": -7.46, "intermolecular_energy": -9.25, "internal_energy": -2.48, "cluster_size": 8, "cluster_id": 2, "rank_in_cluster": 8}

$$$$

     RDKit          3D

 49 52  0  0  0  0  0  0  0  0999 V2000
  141.1990   74.1460  220.8100 O   0  0  0  0  0  0  0  0  0  0  0  0
  140.3160   74.3570  221.6830 C   0  0  0  0  0  0  0  0  0  0  0  0
  139.6650   73.2690  222.3360 N   0  0  0  0  0  0  0  0  0  0  0  0
  140.0080   71.8890  222.0100 C   0  0  0  0  0  0  0  0  0  0  0  0
  138.9330   71.0250  222.5480 C   0  0  0  0  0  0  0  0  0  0  0  0
  137.8930   71.6160  222.9840 O   0  0  0  0  0  0  0  0  0  0  0  0
  139.0270   69.6040  222.5890 N   0  0  0  0  0  0  0  0  0  0  0  0
  139.5130   68.8310  221.4540 C   0  0  0  0  0  0  0  0  0  0  0  0
  139.0110   67.4400  221.6740 C   0  0  2  0  0  0  0  0  0  0  0  0
  137.8020   67.1720  221.0510 O   0  0  0  0  0  0  0  0  0  0  0  0
  138.8250   67.3680  223.1730 C   0  0  0  0  0  0  0  0  0  0  0  0
  138.6790   68.7640  223.6870 C   0  0  1  0  0  0  0  0  0  0  0  0
  139.4320   69.0080  224.9330 C   0  0  0  0  0  0  0  0  0  0  0  0
  139.8570   70.2820  225.3180 C   0  0  0  0  0  0  0  0  0  0  0  0
  140.5650   70.4660  226.5030 C   0  0  0  0  0  0  0  0  0  0  0  0
  140.8470   69.3620  227.3060 C   0  0  0  0  0  0  0  0  0  0  0  0
  140.4250   68.0930  226.9240 C   0  0  0  0  0  0  0  0  0  0  0  0
  139.7150   67.9060  225.7370 C   0  0  0  0  0  0  0  0  0  0  0  0
  139.9420   75.7220  222.0390 C   0  0  0  0  0  0  0  0  0  0  0  0
  138.6210   76.1160  222.0210 C   0  0  0  0  0  0  0  0  0  0  0  0
  138.2420   77.4180  222.3590 C   0  0  0  0  0  0  0  0  0  0  0  0
  139.2470   78.3040  222.7160 C   0  0  0  0  0  0  0  0  0  0  0  0
  138.9730   79.6170  223.0660 C   0  0  0  0  0  0  0  0  0  0  0  0
  139.9600   80.5100  223.4230 C   0  0  0  0  0  0  0  0  0  0  0  0
  141.2960   80.1030  223.4400 C   0  0  0  0  0  0  0  0  0  0  0  0
  142.5810   81.2100  223.8870 Cl  0  0  0  0  0  0  0  0  0  0  0  0
  141.5600   78.7920  223.0880 C   0  0  0  0  0  0  0  0  0  0  0  0
  140.5770   77.8970  222.7310 C   0  0  0  0  0  0  0  0  0  0  0  0
  140.8690   76.6280  222.3940 N   0  0  0  0  0  0  0  0  0  0  0  0
  138.9330   73.5090  223.0570 H   0  0  0  0  0  0  0  0  0  0  0  0
  140.0775   71.7668  220.9190 H   0  0  0  0  0  0  0  0  0  0  0  0
  140.9797   71.6171  222.4481 H   0  0  0  0  0  0  0  0  0  0  0  0
  139.1157   69.2387  220.5128 H   0  0  0  0  0  0  0  0  0  0  0  0
  140.6100   68.8619  221.3788 H   0  0  0  0  0  0  0  0  0  0  0  0
  139.7135   66.7054  221.2535 H   0  0  0  0  0  0  0  0  0  0  0  0
  137.6960   67.7290  220.2410 H   0  0  0  0  0  0  0  0  0  0  0  0
  137.9218   66.7865  223.4097 H   0  0  0  0  0  0  0  0  0  0  0  0
  139.6895   66.8760  223.6425 H   0  0  0  0  0  0  0  0  0  0  0  0
  137.6509   68.9805  224.0128 H   0  0  0  0  0  0  0  0  0  0  0  0
  139.6302   71.1481  224.6789 H   0  0  0  0  0  0  0  0  0  0  0  0
  140.8979   71.4709  226.8019 H   0  0  0  0  0  0  0  0  0  0  0  0
  141.4050   69.4949  228.2446 H   0  0  0  0  0  0  0  0  0  0  0  0
  140.6532   67.2279  227.5639 H   0  0  0  0  0  0  0  0  0  0  0  0
  139.3828   66.9004  225.4398 H   0  0  0  0  0  0  0  0  0  0  0  0
  137.8473   75.3887  221.7339 H   0  0  0  0  0  0  0  0  0  0  0  0
  137.1867   77.7280  222.3424 H   0  0  0  0  0  0  0  0  0  0  0  0
  137.9276   79.9592  223.0585 H   0  0  0  0  0  0  0  0  0  0  0  0
  139.6958   81.5427  223.6944 H   0  0  0  0  0  0  0  0  0  0  0  0
  142.6049   78.4482  223.0935 H   0  0  0  0  0  0  0  0  0  0  0  0
  1  2  2  0
  2  3  1  0
  3  4  1  0
  4  5  1  0
  5  6  2  0
  5  7  1  0
  7  8  1  0
  8  9  1  0
  9 10  1  0
  9 11  1  0
 11 12  1  0
 12 13  1  0
 13 14  2  0
 14 15  1  0
 15 16  2  0
 16 17  1  0
 17 18  2  0
  2 19  1  0
 19 20  2  0
 20 21  1  0
 21 22  2  0
 22 23  1  0
 23 24  2  0
 24 25  1  0
 25 26  1  0
 25 27  2  0
 27 28  1  0
 28 29  2  0
 12  7  1  0
 18 13  1  0
 29 19  1  0
 28 22  1  0
  3 30  1  0
  4 31  1  0
  4 32  1  0
  8 33  1  0
  8 34  1  0
  9 35  1  6
 10 36  1  0
 11 37  1  0
 11 38  1  0
 12 39  1  1
 14 40  1  0
 15 41  1  0
 16 42  1  0
 17 43  1  0
 18 44  1  0
 20 45  1  0
 21 46  1  0
 23 47  1  0
 24 48  1  0
 27 49  1  0
M  END
>  <meeko>  (4) 
{"free_energy": -8.07, "intermolecular_energy": -9.86, "internal_energy": -1.67, "cluster_size": 8, "cluster_id": 2, "rank_in_cluster": 5}

$$$$

     RDKit          3D

 49 52  0  0  0  0  0  0  0  0999 V2000
  137.1500   75.0490  220.9510 O   0  0  0  0  0  0  0  0  0  0  0  0
  138.0610   75.2790  221.7900 C   0  0  0  0  0  0  0  0  0  0  0  0
  138.8300   74.2110  222.3400 N   0  0  0  0  0  0  0  0  0  0  0  0
  138.5790   72.8310  221.9450 C   0  0  0  0  0  0  0  0  0  0  0  0
  139.5610   71.9790  222.6550 C   0  0  0  0  0  0  0  0  0  0  0  0
  140.6740   72.5230  222.9520 O   0  0  0  0  0  0  0  0  0  0  0  0
  139.3050   70.6220  223.0010 N   0  0  0  0  0  0  0  0  0  0  0  0
  139.5790   69.5270  222.0800 C   0  0  0  0  0  0  0  0  0  0  0  0
  138.7540   68.3790  222.5670 C   0  0  2  0  0  0  0  0  0  0  0  0
  137.5110   68.2810  221.9610 O   0  0  0  0  0  0  0  0  0  0  0  0
  138.5680   68.6810  224.0370 C   0  0  0  0  0  0  0  0  0  0  0  0
  138.7720   70.1490  224.2360 C   0  0  1  0  0  0  0  0  0  0  0  0
  139.5720   70.4700  225.4350 C   0  0  0  0  0  0  0  0  0  0  0  0
  140.4040   71.5890  225.5060 C   0  0  0  0  0  0  0  0  0  0  0  0
  141.1410   71.8530  226.6580 C   0  0  0  0  0  0  0  0  0  0  0  0
  141.0400   70.9870  227.7440 C   0  0  0  0  0  0  0  0  0  0  0  0
  140.2110   69.8720  227.6750 C   0  0  0  0  0  0  0  0  0  0  0  0
  139.4710   69.6050  226.5220 C   0  0  0  0  0  0  0  0  0  0  0  0
  138.3450   76.6470  222.2140 C   0  0  0  0  0  0  0  0  0  0  0  0
  137.3180   77.5280  222.4760 C   0  0  0  0  0  0  0  0  0  0  0  0
  137.5670   78.8420  222.8830 C   0  0  0  0  0  0  0  0  0  0  0  0
  138.8930   79.2290  223.0150 C   0  0  0  0  0  0  0  0  0  0  0  0
  139.2430   80.5100  223.4130 C   0  0  0  0  0  0  0  0  0  0  0  0
  140.5540   80.9110  223.5480 C   0  0  0  0  0  0  0  0  0  0  0  0
  141.5890   80.0120  223.2810 C   0  0  0  0  0  0  0  0  0  0  0  0
  143.2720   80.4840  223.4420 Cl  0  0  0  0  0  0  0  0  0  0  0  0
  141.2310   78.7360  222.8850 C   0  0  0  0  0  0  0  0  0  0  0  0
  139.9220   78.3330  222.7490 C   0  0  0  0  0  0  0  0  0  0  0  0
  139.6080   77.0830  222.3610 N   0  0  0  0  0  0  0  0  0  0  0  0
  139.5780   74.4680  223.0390 H   0  0  0  0  0  0  0  0  0  0  0  0
  137.5563   72.5399  222.2266 H   0  0  0  0  0  0  0  0  0  0  0  0
  138.6813   72.7150  220.8559 H   0  0  0  0  0  0  0  0  0  0  0  0
  139.2866   69.8035  221.0563 H   0  0  0  0  0  0  0  0  0  0  0  0
  140.6497   69.2766  222.0510 H   0  0  0  0  0  0  0  0  0  0  0  0
  139.2522   67.4240  222.3441 H   0  0  0  0  0  0  0  0  0  0  0  0
  137.2800   69.1240  221.5000 H   0  0  0  0  0  0  0  0  0  0  0  0
  137.5519   68.3994  224.3504 H   0  0  0  0  0  0  0  0  0  0  0  0
  139.2898   68.1096  224.6391 H   0  0  0  0  0  0  0  0  0  0  0  0
  137.8308   70.6715  224.4622 H   0  0  0  0  0  0  0  0  0  0  0  0
  140.4781   72.2684  224.6441 H   0  0  0  0  0  0  0  0  0  0  0  0
  141.7955   72.7356  226.7095 H   0  0  0  0  0  0  0  0  0  0  0  0
  141.6174   71.1852  228.6590 H   0  0  0  0  0  0  0  0  0  0  0  0
  140.1379   69.1938  228.5380 H   0  0  0  0  0  0  0  0  0  0  0  0
  138.8162   68.7225  226.4724 H   0  0  0  0  0  0  0  0  0  0  0  0
  136.2777   77.1892  222.3621 H   0  0  0  0  0  0  0  0  0  0  0  0
  136.7440   79.5418  223.0905 H   0  0  0  0  0  0  0  0  0  0  0  0
  138.4434   81.2338  223.6292 H   0  0  0  0  0  0  0  0  0  0  0  0
  140.7855   81.9383  223.8658 H   0  0  0  0  0  0  0  0  0  0  0  0
  142.0288   78.0102  222.6689 H   0  0  0  0  0  0  0  0  0  0  0  0
  1  2  2  0
  2  3  1  0
  3  4  1  0
  4  5  1  0
  5  6  2  0
  5  7  1  0
  7  8  1  0
  8  9  1  0
  9 10  1  0
  9 11  1  0
 11 12  1  0
 12 13  1  0
 13 14  2  0
 14 15  1  0
 15 16  2  0
 16 17  1  0
 17 18  2  0
  2 19  1  0
 19 20  2  0
 20 21  1  0
 21 22  2  0
 22 23  1  0
 23 24  2  0
 24 25  1  0
 25 26  1  0
 25 27  2  0
 27 28  1  0
 28 29  2  0
 12  7  1  0
 18 13  1  0
 29 19  1  0
 28 22  1  0
  3 30  1  0
  4 31  1  0
  4 32  1  0
  8 33  1  0
  8 34  1  0
  9 35  1  1
 10 36  1  0
 11 37  1  0
 11 38  1  0
 12 39  1  1
 14 40  1  0
 15 41  1  0
 16 42  1  0
 17 43  1  0
 18 44  1  0
 20 45  1  0
 21 46  1  0
 23 47  1  0
 24 48  1  0
 27 49  1  0
M  END
>  <meeko>  (5) 
{"free_energy": -8.26, "intermolecular_energy": -10.05, "internal_energy": -1.66, "cluster_size": 8, "cluster_id": 2, "rank_in_cluster": 3}

$$$$

     RDKit          3D

 49 52  0  0  0  0  0  0  0  0999 V2000
  136.0750   70.4300  223.2130 O   0  0  0  0  0  0  0  0  0  0  0  0
  135.9780   71.5930  223.6880 C   0  0  0  0  0  0  0  0  0  0  0  0
  136.8450   72.6340  223.2420 N   0  0  0  0  0  0  0  0  0  0  0  0
  137.8600   72.3780  222.2280 C   0  0  0  0  0  0  0  0  0  0  0  0
  139.0300   71.7790  222.9110 C   0  0  0  0  0  0  0  0  0  0  0  0
  140.0390   72.5380  223.0810 O   0  0  0  0  0  0  0  0  0  0  0  0
  139.0560   70.4290  223.3650 N   0  0  0  0  0  0  0  0  0  0  0  0
  139.3860   69.3230  222.4760 C   0  0  0  0  0  0  0  0  0  0  0  0
  138.8400   68.1000  223.1410 C   0  0  2  0  0  0  0  0  0  0  0  0
  137.5620   67.7570  222.7290 O   0  0  0  0  0  0  0  0  0  0  0  0
  138.8050   68.4830  224.6040 C   0  0  0  0  0  0  0  0  0  0  0  0
  138.7820   69.9760  224.6890 C   0  0  1  0  0  0  0  0  0  0  0  0
  139.6700   70.5140  225.7390 C   0  0  0  0  0  0  0  0  0  0  0  0
  140.6320   71.4930  225.4810 C   0  0  0  0  0  0  0  0  0  0  0  0
  141.4480   71.9720  226.5030 C   0  0  0  0  0  0  0  0  0  0  0  0
  141.2960   71.4630  227.7910 C   0  0  0  0  0  0  0  0  0  0  0  0
  140.3380   70.4880  228.0490 C   0  0  0  0  0  0  0  0  0  0  0  0
  139.5190   70.0070  227.0270 C   0  0  0  0  0  0  0  0  0  0  0  0
  134.9760   71.8930  224.7050 C   0  0  0  0  0  0  0  0  0  0  0  0
  134.3090   70.8770  225.3550 C   0  0  0  0  0  0  0  0  0  0  0  0
  133.3460   71.1420  226.3330 C   0  0  0  0  0  0  0  0  0  0  0  0
  133.0840   72.4720  226.6270 C   0  0  0  0  0  0  0  0  0  0  0  0
  132.1460   72.8380  227.5800 C   0  0  0  0  0  0  0  0  0  0  0  0
  131.8730   74.1540  227.8840 C   0  0  0  0  0  0  0  0  0  0  0  0
  132.5530   75.1780  227.2210 C   0  0  0  0  0  0  0  0  0  0  0  0
  132.2340   76.8660  227.5790 Cl  0  0  0  0  0  0  0  0  0  0  0  0
  133.4870   74.8040  226.2720 C   0  0  0  0  0  0  0  0  0  0  0  0
  133.7610   73.4900  225.9660 C   0  0  0  0  0  0  0  0  0  0  0  0
  134.6770   73.1610  225.0360 N   0  0  0  0  0  0  0  0  0  0  0  0
  136.7150   73.5870  223.6790 H   0  0  0  0  0  0  0  0  0  0  0  0
  137.4687   71.6809  221.4724 H   0  0  0  0  0  0  0  0  0  0  0  0
  138.1439   73.3112  221.7195 H   0  0  0  0  0  0  0  0  0  0  0  0
  138.9166   69.4676  221.4918 H   0  0  0  0  0  0  0  0  0  0  0  0
  140.4700   69.2456  222.3055 H   0  0  0  0  0  0  0  0  0  0  0  0
  139.4582   67.2224  222.9011 H   0  0  0  0  0  0  0  0  0  0  0  0
  136.9650   68.5440  222.7540 H   0  0  0  0  0  0  0  0  0  0  0  0
  137.9029   68.0680  225.0773 H   0  0  0  0  0  0  0  0  0  0  0  0
  139.6873   68.0835  225.1254 H   0  0  0  0  0  0  0  0  0  0  0  0
  137.8051   70.3579  225.0202 H   0  0  0  0  0  0  0  0  0  0  0  0
  140.7463   71.8894  224.4613 H   0  0  0  0  0  0  0  0  0  0  0  0
  142.2041   72.7436  226.2956 H   0  0  0  0  0  0  0  0  0  0  0  0
  141.9353   71.8331  228.6061 H   0  0  0  0  0  0  0  0  0  0  0  0
  140.2250   70.0922  229.0691 H   0  0  0  0  0  0  0  0  0  0  0  0
  138.7627   69.2361  227.2363 H   0  0  0  0  0  0  0  0  0  0  0  0
  134.5400   69.8327  225.0980 H   0  0  0  0  0  0  0  0  0  0  0  0
  132.8166   70.3276  226.8493 H   0  0  0  0  0  0  0  0  0  0  0  0
  131.5986   72.0474  228.1141 H   0  0  0  0  0  0  0  0  0  0  0  0
  131.1202   74.3978  228.6481 H   0  0  0  0  0  0  0  0  0  0  0  0
  134.0362   75.5928  225.7371 H   0  0  0  0  0  0  0  0  0  0  0  0
  1  2  2  0
  2  3  1  0
  3  4  1  0
  4  5  1  0
  5  6  2  0
  5  7  1  0
  7  8  1  0
  8  9  1  0
  9 10  1  0
  9 11  1  0
 11 12  1  0
 12 13  1  0
 13 14  2  0
 14 15  1  0
 15 16  2  0
 16 17  1  0
 17 18  2  0
  2 19  1  0
 19 20  2  0
 20 21  1  0
 21 22  2  0
 22 23  1  0
 23 24  2  0
 24 25  1  0
 25 26  1  0
 25 27  2  0
 27 28  1  0
 28 29  2  0
 12  7  1  0
 18 13  1  0
 29 19  1  0
 28 22  1  0
  3 30  1  0
  4 31  1  0
  4 32  1  0
  8 33  1  0
  8 34  1  0
  9 35  1  1
 10 36  1  0
 11 37  1  0
 11 38  1  0
 12 39  1  1
 14 40  1  0
 15 41  1  0
 16 42  1  0
 17 43  1  0
 18 44  1  0
 20 45  1  0
 21 46  1  0
 23 47  1  0
 24 48  1  0
 27 49  1  0
M  END
>  <meeko>  (6) 
{"free_energy": -7.7, "intermolecular_energy": -9.49, "internal_energy": -2.46, "cluster_size": 5, "cluster_id": 3, "rank_in_cluster": 3}

$$$$

     RDKit          3D

 49 52  0  0  0  0  0  0  0  0999 V2000
  137.2420   74.9810  220.8910 O   0  0  0  0  0  0  0  0  0  0  0  0
  138.1220   75.2250  221.7580 C   0  0  0  0  0  0  0  0  0  0  0  0
  138.8790   74.1670  222.3440 N   0  0  0  0  0  0  0  0  0  0  0  0
  138.6500   72.7810  221.9530 C   0  0  0  0  0  0  0  0  0  0  0  0
  139.5940   71.9400  222.7240 C   0  0  0  0  0  0  0  0  0  0  0  0
  140.6860   72.4920  223.0800 O   0  0  0  0  0  0  0  0  0  0  0  0
  139.3260   70.5840  223.0650 N   0  0  0  0  0  0  0  0  0  0  0  0
  139.5930   69.4900  222.1410 C   0  0  0  0  0  0  0  0  0  0  0  0
  138.7570   68.3470  222.6230 C   0  0  2  0  0  0  0  0  0  0  0  0
  137.5150   68.2620  222.0130 O   0  0  0  0  0  0  0  0  0  0  0  0
  138.5690   68.6470  224.0930 C   0  0  0  0  0  0  0  0  0  0  0  0
  138.7850   70.1120  224.2970 C   0  0  1  0  0  0  0  0  0  0  0  0
  139.5840   70.4230  225.4990 C   0  0  0  0  0  0  0  0  0  0  0  0
  140.3620   71.5780  225.6070 C   0  0  0  0  0  0  0  0  0  0  0  0
  141.1000   71.8300  226.7610 C   0  0  0  0  0  0  0  0  0  0  0  0
  141.0550   70.9160  227.8120 C   0  0  0  0  0  0  0  0  0  0  0  0
  140.2810   69.7660  227.7050 C   0  0  0  0  0  0  0  0  0  0  0  0
  139.5400   69.5100  226.5510 C   0  0  0  0  0  0  0  0  0  0  0  0
  138.3830   76.5980  222.1780 C   0  0  0  0  0  0  0  0  0  0  0  0
  137.3420   77.4690  222.4150 C   0  0  0  0  0  0  0  0  0  0  0  0
  137.5690   78.7880  222.8190 C   0  0  0  0  0  0  0  0  0  0  0  0
  138.8870   79.1910  222.9730 C   0  0  0  0  0  0  0  0  0  0  0  0
  139.2160   80.4780  223.3680 C   0  0  0  0  0  0  0  0  0  0  0  0
  140.5200   80.8950  223.5260 C   0  0  0  0  0  0  0  0  0  0  0  0
  141.5700   80.0060  223.2840 C   0  0  0  0  0  0  0  0  0  0  0  0
  143.2440   80.4970  223.4720 Cl  0  0  0  0  0  0  0  0  0  0  0  0
  141.2320   78.7240  222.8890 C   0  0  0  0  0  0  0  0  0  0  0  0
  139.9310   78.3050  222.7310 C   0  0  0  0  0  0  0  0  0  0  0  0
  139.6380   77.0490  222.3450 N   0  0  0  0  0  0  0  0  0  0  0  0
  139.6010   74.4350  223.0650 H   0  0  0  0  0  0  0  0  0  0  0  0
  137.6142   72.4917  222.1841 H   0  0  0  0  0  0  0  0  0  0  0  0
  138.8092   72.6516  220.8723 H   0  0  0  0  0  0  0  0  0  0  0  0
  139.3050   69.7722  221.1176 H   0  0  0  0  0  0  0  0  0  0  0  0
  140.6617   69.2308  222.1132 H   0  0  0  0  0  0  0  0  0  0  0  0
  139.2478   67.3883  222.3996 H   0  0  0  0  0  0  0  0  0  0  0  0
  137.6110   68.0250  221.0590 H   0  0  0  0  0  0  0  0  0  0  0  0
  137.5495   68.3734  224.4024 H   0  0  0  0  0  0  0  0  0  0  0  0
  139.2841   68.0678  224.6956 H   0  0  0  0  0  0  0  0  0  0  0  0
  137.8475   70.6416  224.5221 H   0  0  0  0  0  0  0  0  0  0  0  0
  140.3921   72.2949  224.7733 H   0  0  0  0  0  0  0  0  0  0  0  0
  141.7118   72.7406  226.8419 H   0  0  0  0  0  0  0  0  0  0  0  0
  141.6332   71.1049  228.7285 H   0  0  0  0  0  0  0  0  0  0  0  0
  140.2526   69.0500  228.5396 H   0  0  0  0  0  0  0  0  0  0  0  0
  138.9286   68.5989  226.4724 H   0  0  0  0  0  0  0  0  0  0  0  0
  136.3078   77.1182  222.2832 H   0  0  0  0  0  0  0  0  0  0  0  0
  136.7345   79.4794  223.0074 H   0  0  0  0  0  0  0  0  0  0  0  0
  138.4046   81.1947  223.5630 H   0  0  0  0  0  0  0  0  0  0  0  0
  140.7337   81.9266  223.8423 H   0  0  0  0  0  0  0  0  0  0  0  0
  142.0415   78.0057  222.6920 H   0  0  0  0  0  0  0  0  0  0  0  0
  1  2  2  0
  2  3  1  0
  3  4  1  0
  4  5  1  0
  5  6  2  0
  5  7  1  0
  7  8  1  0
  8  9  1  0
  9 10  1  0
  9 11  1  0
 11 12  1  0
 12 13  1  0
 13 14  2  0
 14 15  1  0
 15 16  2  0
 16 17  1  0
 17 18  2  0
  2 19  1  0
 19 20  2  0
 20 21  1  0
 21 22  2  0
 22 23  1  0
 23 24  2  0
 24 25  1  0
 25 26  1  0
 25 27  2  0
 27 28  1  0
 28 29  2  0
 12  7  1  0
 18 13  1  0
 29 19  1  0
 28 22  1  0
  3 30  1  0
  4 31  1  0
  4 32  1  0
  8 33  1  0
  8 34  1  0
  9 35  1  1
 10 36  1  0
 11 37  1  0
 11 38  1  0
 12 39  1  1
 14 40  1  0
 15 41  1  0
 16 42  1  0
 17 43  1  0
 18 44  1  0
 20 45  1  0
 21 46  1  0
 23 47  1  0
 24 48  1  0
 27 49  1  0
M  END
>  <meeko>  (7) 
{"free_energy": -8.29, "intermolecular_energy": -10.08, "internal_energy": -1.63, "cluster_size": 8, "cluster_id": 2, "rank_in_cluster": 1}

$$$$

     RDKit          3D

 49 52  0  0  0  0  0  0  0  0999 V2000
  139.4250   72.7080  220.2310 O   0  0  0  0  0  0  0  0  0  0  0  0
  139.4520   72.8820  221.4780 C   0  0  0  0  0  0  0  0  0  0  0  0
  139.4890   74.1970  222.0280 N   0  0  0  0  0  0  0  0  0  0  0  0
  139.4950   75.3690  221.1610 C   0  0  0  0  0  0  0  0  0  0  0  0
  140.7600   76.0990  221.4090 C   0  0  0  0  0  0  0  0  0  0  0  0
  141.0240   76.3820  222.6230 O   0  0  0  0  0  0  0  0  0  0  0  0
  141.6540   76.4790  220.3680 N   0  0  0  0  0  0  0  0  0  0  0  0
  142.0520   77.8650  220.1620 C   0  0  0  0  0  0  0  0  0  0  0  0
  142.5530   77.9320  218.7540 C   0  0  2  0  0  0  0  0  0  0  0  0
  141.5900   78.3060  217.8310 O   0  0  0  0  0  0  0  0  0  0  0  0
  142.9900   76.5120  218.4710 C   0  0  0  0  0  0  0  0  0  0  0  0
  142.2670   75.6090  219.4190 C   0  0  1  0  0  0  0  0  0  0  0  0
  143.1280   74.5550  219.9910 C   0  0  0  0  0  0  0  0  0  0  0  0
  142.6550   73.2730  220.2810 C   0  0  0  0  0  0  0  0  0  0  0  0
  143.5040   72.3090  220.8200 C   0  0  0  0  0  0  0  0  0  0  0  0
  144.8350   72.6360  221.0690 C   0  0  0  0  0  0  0  0  0  0  0  0
  145.3070   73.9120  220.7810 C   0  0  0  0  0  0  0  0  0  0  0  0
  144.4590   74.8800  220.2400 C   0  0  0  0  0  0  0  0  0  0  0  0
  139.4470   71.7360  222.3820 C   0  0  0  0  0  0  0  0  0  0  0  0
  138.9660   70.5150  221.9650 C   0  0  0  0  0  0  0  0  0  0  0  0
  138.9520   69.4050  222.8140 C   0  0  0  0  0  0  0  0  0  0  0  0
  139.4430   69.5780  224.1000 C   0  0  0  0  0  0  0  0  0  0  0  0
  139.4720   68.5390  225.0170 C   0  0  0  0  0  0  0  0  0  0  0  0
  139.9560   68.6950  226.2980 C   0  0  0  0  0  0  0  0  0  0  0  0
  140.4420   69.9360  226.7130 C   0  0  0  0  0  0  0  0  0  0  0  0
  141.0670   70.1750  228.3360 Cl  0  0  0  0  0  0  0  0  0  0  0  0
  140.4100   70.9670  225.7920 C   0  0  0  0  0  0  0  0  0  0  0  0
  139.9270   70.8150  224.5120 C   0  0  0  0  0  0  0  0  0  0  0  0
  139.9100   71.8400  223.6400 N   0  0  0  0  0  0  0  0  0  0  0  0
  139.5110   74.2770  223.0810 H   0  0  0  0  0  0  0  0  0  0  0  0
  139.4415   75.0572  220.1075 H   0  0  0  0  0  0  0  0  0  0  0  0
  138.6282   76.0123  221.3727 H   0  0  0  0  0  0  0  0  0  0  0  0
  141.1909   78.5362  220.2960 H   0  0  0  0  0  0  0  0  0  0  0  0
  142.8197   78.1807  220.8838 H   0  0  0  0  0  0  0  0  0  0  0  0
  143.3424   78.6923  218.6605 H   0  0  0  0  0  0  0  0  0  0  0  0
  141.9750   78.9080  217.1490 H   0  0  0  0  0  0  0  0  0  0  0  0
  142.7385   76.2435  217.4343 H   0  0  0  0  0  0  0  0  0  0  0  0
  144.0776   76.4131  218.6029 H   0  0  0  0  0  0  0  0  0  0  0  0
  141.4987   75.0058  218.9133 H   0  0  0  0  0  0  0  0  0  0  0  0
  141.6026   73.0224  220.0820 H   0  0  0  0  0  0  0  0  0  0  0  0
  143.1275   71.3006  221.0465 H   0  0  0  0  0  0  0  0  0  0  0  0
  145.5145   71.8829  221.4946 H   0  0  0  0  0  0  0  0  0  0  0  0
  146.3595   74.1612  220.9816 H   0  0  0  0  0  0  0  0  0  0  0  0
  144.8377   75.8875  220.0131 H   0  0  0  0  0  0  0  0  0  0  0  0
  138.5836   70.4108  220.9389 H   0  0  0  0  0  0  0  0  0  0  0  0
  138.5666   68.4318  222.4757 H   0  0  0  0  0  0  0  0  0  0  0  0
  139.0943   67.5523  224.7107 H   0  0  0  0  0  0  0  0  0  0  0  0
  139.9593   67.8422  226.9928 H   0  0  0  0  0  0  0  0  0  0  0  0
  140.7880   71.9542  226.0963 H   0  0  0  0  0  0  0  0  0  0  0  0
  1  2  2  0
  2  3  1  0
  3  4  1  0
  4  5  1  0
  5  6  2  0
  5  7  1  0
  7  8  1  0
  8  9  1  0
  9 10  1  0
  9 11  1  0
 11 12  1  0
 12 13  1  0
 13 14  2  0
 14 15  1  0
 15 16  2  0
 16 17  1  0
 17 18  2  0
  2 19  1  0
 19 20  2  0
 20 21  1  0
 21 22  2  0
 22 23  1  0
 23 24  2  0
 24 25  1  0
 25 26  1  0
 25 27  2  0
 27 28  1  0
 28 29  2  0
 12  7  1  0
 18 13  1  0
 29 19  1  0
 28 22  1  0
  3 30  1  0
  4 31  1  0
  4 32  1  0
  8 33  1  0
  8 34  1  0
  9 35  1  1
 10 36  1  0
 11 37  1  0
 11 38  1  0
 12 39  1  6
 14 40  1  0
 15 41  1  0
 16 42  1  0
 17 43  1  0
 18 44  1  0
 20 45  1  0
 21 46  1  0
 23 47  1  0
 24 48  1  0
 27 49  1  0
M  END
>  <meeko>  (8) 
{"free_energy": -7.44, "intermolecular_energy": -9.23, "internal_energy": -2.15, "cluster_size": 1, "cluster_id": 5, "rank_in_cluster": 1}

$$$$

     RDKit          3D

 49 52  0  0  0  0  0  0  0  0999 V2000
  140.4190   77.9450  217.9540 O   0  0  0  0  0  0  0  0  0  0  0  0
  141.5010   77.7750  218.5770 C   0  0  0  0  0  0  0  0  0  0  0  0
  142.1750   78.8790  219.1780 N   0  0  0  0  0  0  0  0  0  0  0  0
  141.6280   80.2280  219.0850 C   0  0  0  0  0  0  0  0  0  0  0  0
  140.8980   80.4980  220.3450 C   0  0  0  0  0  0  0  0  0  0  0  0
  139.7670   81.0740  220.2340 O   0  0  0  0  0  0  0  0  0  0  0  0
  141.4060   80.1470  221.6280 N   0  0  0  0  0  0  0  0  0  0  0  0
  141.8260   81.1540  222.5930 C   0  0  0  0  0  0  0  0  0  0  0  0
  142.7220   80.4380  223.5520 C   0  0  2  0  0  0  0  0  0  0  0  0
  144.0680   80.5110  223.2280 O   0  0  0  0  0  0  0  0  0  0  0  0
  142.2640   79.0010  223.4540 C   0  0  0  0  0  0  0  0  0  0  0  0
  141.5720   78.8270  222.1400 C   0  0  1  0  0  0  0  0  0  0  0  0
  140.3350   78.0250  222.2340 C   0  0  0  0  0  0  0  0  0  0  0  0
  139.1070   78.5760  222.6060 C   0  0  0  0  0  0  0  0  0  0  0  0
  137.9660   77.7810  222.6810 C   0  0  0  0  0  0  0  0  0  0  0  0
  138.0600   76.4240  222.3810 C   0  0  0  0  0  0  0  0  0  0  0  0
  139.2830   75.8730  222.0100 C   0  0  0  0  0  0  0  0  0  0  0  0
  140.4280   76.6680  221.9340 C   0  0  0  0  0  0  0  0  0  0  0  0
  142.0830   76.4420  218.6930 C   0  0  0  0  0  0  0  0  0  0  0  0
  141.5860   75.3920  217.9520 C   0  0  0  0  0  0  0  0  0  0  0  0
  142.1290   74.1070  218.0470 C   0  0  0  0  0  0  0  0  0  0  0  0
  143.1920   73.9270  218.9200 C   0  0  0  0  0  0  0  0  0  0  0  0
  143.7990   72.6910  219.0860 C   0  0  0  0  0  0  0  0  0  0  0  0
  144.8550   72.4940  219.9480 C   0  0  0  0  0  0  0  0  0  0  0  0
  145.3540   73.5640  220.6960 C   0  0  0  0  0  0  0  0  0  0  0  0
  146.6970   73.3550  221.8050 Cl  0  0  0  0  0  0  0  0  0  0  0  0
  144.7420   74.7930  220.5240 C   0  0  0  0  0  0  0  0  0  0  0  0
  143.6870   74.9920  219.6630 C   0  0  0  0  0  0  0  0  0  0  0  0
  143.1150   76.2020  219.5200 N   0  0  0  0  0  0  0  0  0  0  0  0
  143.0780   78.6730  219.6850 H   0  0  0  0  0  0  0  0  0  0  0  0
  142.4428   80.9562  218.9592 H   0  0  0  0  0  0  0  0  0  0  0  0
  140.9544   80.3151  218.2197 H   0  0  0  0  0  0  0  0  0  0  0  0
  142.3719   81.9653  222.0892 H   0  0  0  0  0  0  0  0  0  0  0  0
  140.9669   81.6145  223.1028 H   0  0  0  0  0  0  0  0  0  0  0  0
  142.6489   80.8850  224.5544 H   0  0  0  0  0  0  0  0  0  0  0  0
  144.2370   80.0950  222.3480 H   0  0  0  0  0  0  0  0  0  0  0  0
  143.1319   78.3275  223.5113 H   0  0  0  0  0  0  0  0  0  0  0  0
  141.5806   78.7597  224.2815 H   0  0  0  0  0  0  0  0  0  0  0  0
  142.1646   78.2242  221.4361 H   0  0  0  0  0  0  0  0  0  0  0  0
  139.0402   79.6483  222.8421 H   0  0  0  0  0  0  0  0  0  0  0  0
  137.0009   78.2200  222.9740 H   0  0  0  0  0  0  0  0  0  0  0  0
  137.1655   75.7863  222.4374 H   0  0  0  0  0  0  0  0  0  0  0  0
  139.3481   74.8005  221.7743 H   0  0  0  0  0  0  0  0  0  0  0  0
  141.3925   76.2279  221.6406 H   0  0  0  0  0  0  0  0  0  0  0  0
  140.7418   75.5689  217.2693 H   0  0  0  0  0  0  0  0  0  0  0  0
  141.7291   73.2719  217.4531 H   0  0  0  0  0  0  0  0  0  0  0  0
  143.4225   71.8350  218.5068 H   0  0  0  0  0  0  0  0  0  0  0  0
  145.3053   71.4953  220.0477 H   0  0  0  0  0  0  0  0  0  0  0  0
  145.1161   75.6507  221.1023 H   0  0  0  0  0  0  0  0  0  0  0  0
  1  2  2  0
  2  3  1  0
  3  4  1  0
  4  5  1  0
  5  6  2  0
  5  7  1  0
  7  8  1  0
  8  9  1  0
  9 10  1  0
  9 11  1  0
 11 12  1  0
 12 13  1  0
 13 14  2  0
 14 15  1  0
 15 16  2  0
 16 17  1  0
 17 18  2  0
  2 19  1  0
 19 20  2  0
 20 21  1  0
 21 22  2  0
 22 23  1  0
 23 24  2  0
 24 25  1  0
 25 26  1  0
 25 27  2  0
 27 28  1  0
 28 29  2  0
 12  7  1  0
 18 13  1  0
 29 19  1  0
 28 22  1  0
  3 30  1  0
  4 31  1  0
  4 32  1  0
  8 33  1  0
  8 34  1  0
  9 35  1  1
 10 36  1  0
 11 37  1  0
 11 38  1  0
 12 39  1  6
 14 40  1  0
 15 41  1  0
 16 42  1  0
 17 43  1  0
 18 44  1  0
 20 45  1  0
 21 46  1  0
 23 47  1  0
 24 48  1  0
 27 49  1  0
M  END
>  <meeko>  (9) 
{"free_energy": -7.21, "intermolecular_energy": -9.0, "internal_energy": -2.43, "cluster_size": 1, "cluster_id": 7, "rank_in_cluster": 1}

$$$$

     RDKit          3D

 49 52  0  0  0  0  0  0  0  0999 V2000
  140.8810   74.0270  220.3480 O   0  0  0  0  0  0  0  0  0  0  0  0
  140.2780   74.0380  221.4530 C   0  0  0  0  0  0  0  0  0  0  0  0
  139.8470   75.2670  222.0350 N   0  0  0  0  0  0  0  0  0  0  0  0
  140.0940   76.5370  221.3630 C   0  0  0  0  0  0  0  0  0  0  0  0
  139.8010   77.6170  222.3330 C   0  0  0  0  0  0  0  0  0  0  0  0
  138.8240   77.4190  223.1270 O   0  0  0  0  0  0  0  0  0  0  0  0
  140.5520   78.8250  222.4000 N   0  0  0  0  0  0  0  0  0  0  0  0
  141.5790   79.1490  221.4190 C   0  0  0  0  0  0  0  0  0  0  0  0
  142.4440   80.1790  222.0720 C   0  0  2  0  0  0  0  0  0  0  0  0
  143.5490   79.6550  222.7240 O   0  0  0  0  0  0  0  0  0  0  0  0
  141.5240   80.8160  223.0890 C   0  0  0  0  0  0  0  0  0  0  0  0
  140.4230   79.8490  223.3840 C   0  0  1  0  0  0  0  0  0  0  0  0
  139.0920   80.4850  223.4640 C   0  0  0  0  0  0  0  0  0  0  0  0
  138.2650   80.3610  224.5820 C   0  0  0  0  0  0  0  0  0  0  0  0
  137.0180   80.9800  224.6130 C   0  0  0  0  0  0  0  0  0  0  0  0
  136.5990   81.7260  223.5130 C   0  0  0  0  0  0  0  0  0  0  0  0
  137.4220   81.8490  222.3990 C   0  0  0  0  0  0  0  0  0  0  0  0
  138.6730   81.2310  222.3650 C   0  0  0  0  0  0  0  0  0  0  0  0
  140.0110   72.7890  222.1590 C   0  0  0  0  0  0  0  0  0  0  0  0
  139.4150   71.7290  221.5100 C   0  0  0  0  0  0  0  0  0  0  0  0
  139.1510   70.5240  222.1670 C   0  0  0  0  0  0  0  0  0  0  0  0
  139.5110   70.4320  223.5040 C   0  0  0  0  0  0  0  0  0  0  0  0
  139.2900   69.2810  224.2420 C   0  0  0  0  0  0  0  0  0  0  0  0
  139.6420   69.1730  225.5700 C   0  0  0  0  0  0  0  0  0  0  0  0
  140.2460   70.2510  226.2210 C   0  0  0  0  0  0  0  0  0  0  0  0
  140.7090   70.1540  227.9110 Cl  0  0  0  0  0  0  0  0  0  0  0  0
  140.4620   71.3960  225.4760 C   0  0  0  0  0  0  0  0  0  0  0  0
  140.1120   71.5070  224.1500 C   0  0  0  0  0  0  0  0  0  0  0  0
  140.3370   72.6370  223.4550 N   0  0  0  0  0  0  0  0  0  0  0  0
  139.3470   75.2100  222.9630 H   0  0  0  0  0  0  0  0  0  0  0  0
  141.1447   76.5945  221.0427 H   0  0  0  0  0  0  0  0  0  0  0  0
  139.4579   76.6339  220.4708 H   0  0  0  0  0  0  0  0  0  0  0  0
  142.1682   78.2543  221.1694 H   0  0  0  0  0  0  0  0  0  0  0  0
  141.1434   79.5183  220.4788 H   0  0  0  0  0  0  0  0  0  0  0  0
  142.8588   80.8664  221.3201 H   0  0  0  0  0  0  0  0  0  0  0  0
  143.9140   78.8830  222.2260 H   0  0  0  0  0  0  0  0  0  0  0  0
  142.0825   81.0384  224.0102 H   0  0  0  0  0  0  0  0  0  0  0  0
  141.1116   81.7568  222.6955 H   0  0  0  0  0  0  0  0  0  0  0  0
  140.5123   79.4148  224.3907 H   0  0  0  0  0  0  0  0  0  0  0  0
  138.6014   79.7691  225.4460 H   0  0  0  0  0  0  0  0  0  0  0  0
  136.3704   80.8812  225.4966 H   0  0  0  0  0  0  0  0  0  0  0  0
  135.6155   82.2184  223.5260 H   0  0  0  0  0  0  0  0  0  0  0  0
  137.0834   82.4398  221.5351 H   0  0  0  0  0  0  0  0  0  0  0  0
  139.3200   81.3319  221.4812 H   0  0  0  0  0  0  0  0  0  0  0  0
  139.1407   71.8340  220.4499 H   0  0  0  0  0  0  0  0  0  0  0  0
  138.6760   69.6807  221.6442 H   0  0  0  0  0  0  0  0  0  0  0  0
  138.8152   68.4198  223.7491 H   0  0  0  0  0  0  0  0  0  0  0  0
  139.4474   68.2386  226.1168 H   0  0  0  0  0  0  0  0  0  0  0  0
  140.9361   72.2588  225.9668 H   0  0  0  0  0  0  0  0  0  0  0  0
  1  2  2  0
  2  3  1  0
  3  4  1  0
  4  5  1  0
  5  6  2  0
  5  7  1  0
  7  8  1  0
  8  9  1  0
  9 10  1  0
  9 11  1  0
 11 12  1  0
 12 13  1  0
 13 14  2  0
 14 15  1  0
 15 16  2  0
 16 17  1  0
 17 18  2  0
  2 19  1  0
 19 20  2  0
 20 21  1  0
 21 22  2  0
 22 23  1  0
 23 24  2  0
 24 25  1  0
 25 26  1  0
 25 27  2  0
 27 28  1  0
 28 29  2  0
 12  7  1  0
 18 13  1  0
 29 19  1  0
 28 22  1  0
  3 30  1  0
  4 31  1  0
  4 32  1  0
  8 33  1  0
  8 34  1  0
  9 35  1  6
 10 36  1  0
 11 37  1  0
 11 38  1  0
 12 39  1  1
 14 40  1  0
 15 41  1  0
 16 42  1  0
 17 43  1  0
 18 44  1  0
 20 45  1  0
 21 46  1  0
 23 47  1  0
 24 48  1  0
 27 49  1  0
M  END
>  <meeko>  (10) 
{"free_energy": -8.01, "intermolecular_energy": -9.8, "internal_energy": -1.77, "cluster_size": 3, "cluster_id": 1, "rank_in_cluster": 3}

$$$$

     RDKit          3D

 49 52  0  0  0  0  0  0  0  0999 V2000
  136.2150   70.4690  223.1170 O   0  0  0  0  0  0  0  0  0  0  0  0
  136.1080   71.6410  223.5670 C   0  0  0  0  0  0  0  0  0  0  0  0
  136.9760   72.6760  223.1120 N   0  0  0  0  0  0  0  0  0  0  0  0
  138.0060   72.4030  222.1170 C   0  0  0  0  0  0  0  0  0  0  0  0
  139.1480   71.7750  222.8190 C   0  0  0  0  0  0  0  0  0  0  0  0
  140.1810   72.5000  222.9880 O   0  0  0  0  0  0  0  0  0  0  0  0
  139.1240   70.4320  223.2940 N   0  0  0  0  0  0  0  0  0  0  0  0
  139.4370   69.3030  222.4290 C   0  0  0  0  0  0  0  0  0  0  0  0
  138.8400   68.1080  223.1000 C   0  0  2  0  0  0  0  0  0  0  0  0
  137.5610   67.7970  222.6660 O   0  0  0  0  0  0  0  0  0  0  0  0
  138.7860   68.5140  224.5560 C   0  0  0  0  0  0  0  0  0  0  0  0
  138.8080   70.0080  224.6180 C   0  0  1  0  0  0  0  0  0  0  0  0
  139.6890   70.5350  225.6790 C   0  0  0  0  0  0  0  0  0  0  0  0
  140.6390   71.5310  225.4410 C   0  0  0  0  0  0  0  0  0  0  0  0
  141.4490   71.9990  226.4730 C   0  0  0  0  0  0  0  0  0  0  0  0
  141.3050   71.4610  227.7500 C   0  0  0  0  0  0  0  0  0  0  0  0
  140.3590   70.4690  227.9880 C   0  0  0  0  0  0  0  0  0  0  0  0
  139.5450   69.9990  226.9570 C   0  0  0  0  0  0  0  0  0  0  0  0
  135.0900   71.9570  224.5640 C   0  0  0  0  0  0  0  0  0  0  0  0
  134.3760   70.9530  225.1810 C   0  0  0  0  0  0  0  0  0  0  0  0
  133.3970   71.2340  226.1390 C   0  0  0  0  0  0  0  0  0  0  0  0
  133.1710   72.5670  226.4480 C   0  0  0  0  0  0  0  0  0  0  0  0
  132.2210   72.9490  227.3840 C   0  0  0  0  0  0  0  0  0  0  0  0
  131.9830   74.2680  227.7030 C   0  0  0  0  0  0  0  0  0  0  0  0
  132.7120   75.2790  227.0740 C   0  0  0  0  0  0  0  0  0  0  0  0
  132.4390   76.9710  227.4510 Cl  0  0  0  0  0  0  0  0  0  0  0  0
  133.6570   74.8900  226.1410 C   0  0  0  0  0  0  0  0  0  0  0  0
  133.8970   73.5730  225.8210 C   0  0  0  0  0  0  0  0  0  0  0  0
  134.8240   73.2290  224.9080 N   0  0  0  0  0  0  0  0  0  0  0  0
  136.8370   73.6370  223.5270 H   0  0  0  0  0  0  0  0  0  0  0  0
  137.6148   71.7189  221.3496 H   0  0  0  0  0  0  0  0  0  0  0  0
  138.3206   73.3326  221.6202 H   0  0  0  0  0  0  0  0  0  0  0  0
  138.9924   69.4468  221.4332 H   0  0  0  0  0  0  0  0  0  0  0  0
  140.5213   69.1895  222.2826 H   0  0  0  0  0  0  0  0  0  0  0  0
  139.4362   67.2087  222.8861 H   0  0  0  0  0  0  0  0  0  0  0  0
  137.0480   68.6200  222.4780 H   0  0  0  0  0  0  0  0  0  0  0  0
  137.8615   68.1345  225.0157 H   0  0  0  0  0  0  0  0  0  0  0  0
  139.6439   68.0953  225.1025 H   0  0  0  0  0  0  0  0  0  0  0  0
  137.8364   70.4247  224.9220 H   0  0  0  0  0  0  0  0  0  0  0  0
  140.7484   71.9495  224.4296 H   0  0  0  0  0  0  0  0  0  0  0  0
  142.1944   72.7850  226.2818 H   0  0  0  0  0  0  0  0  0  0  0  0
  141.9408   71.8214  228.5721 H   0  0  0  0  0  0  0  0  0  0  0  0
  140.2517   70.0508  228.9998 H   0  0  0  0  0  0  0  0  0  0  0  0
  138.7985   69.2147  227.1508 H   0  0  0  0  0  0  0  0  0  0  0  0
  134.5810   69.9059  224.9137 H   0  0  0  0  0  0  0  0  0  0  0  0
  132.8285   70.4294  226.6283 H   0  0  0  0  0  0  0  0  0  0  0  0
  131.6349   72.1684  227.8912 H   0  0  0  0  0  0  0  0  0  0  0  0
  131.2196   74.5242  228.4523 H   0  0  0  0  0  0  0  0  0  0  0  0
  134.2433   75.6690  225.6317 H   0  0  0  0  0  0  0  0  0  0  0  0
  1  2  2  0
  2  3  1  0
  3  4  1  0
  4  5  1  0
  5  6  2  0
  5  7  1  0
  7  8  1  0
  8  9  1  0
  9 10  1  0
  9 11  1  0
 11 12  1  0
 12 13  1  0
 13 14  2  0
 14 15  1  0
 15 16  2  0
 16 17  1  0
 17 18  2  0
  2 19  1  0
 19 20  2  0
 20 21  1  0
 21 22  2  0
 22 23  1  0
 23 24  2  0
 24 25  1  0
 25 26  1  0
 25 27  2  0
 27 28  1  0
 28 29  2  0
 12  7  1  0
 18 13  1  0
 29 19  1  0
 28 22  1  0
  3 30  1  0
  4 31  1  0
  4 32  1  0
  8 33  1  0
  8 34  1  0
  9 35  1  1
 10 36  1  0
 11 37  1  0
 11 38  1  0
 12 39  1  1
 14 40  1  0
 15 41  1  0
 16 42  1  0
 17 43  1  0
 18 44  1  0
 20 45  1  0
 21 46  1  0
 23 47  1  0
 24 48  1  0
 27 49  1  0
M  END
>  <meeko>  (11) 
{"free_energy": -7.7, "intermolecular_energy": -9.49, "internal_energy": -2.48, "cluster_size": 5, "cluster_id": 3, "rank_in_cluster": 4}

$$$$

     RDKit          3D

 49 52  0  0  0  0  0  0  0  0999 V2000
  138.8440   73.6960  221.2770 O   0  0  0  0  0  0  0  0  0  0  0  0
  139.8320   74.4080  221.5970 C   0  0  0  0  0  0  0  0  0  0  0  0
  141.1550   73.8780  221.5500 N   0  0  0  0  0  0  0  0  0  0  0  0
  141.3940   72.5020  221.1290 C   0  0  0  0  0  0  0  0  0  0  0  0
  142.3480   72.5410  219.9980 C   0  0  0  0  0  0  0  0  0  0  0  0
  141.9490   72.0330  218.9000 O   0  0  0  0  0  0  0  0  0  0  0  0
  143.6490   73.1110  220.0980 N   0  0  0  0  0  0  0  0  0  0  0  0
  144.8530   72.3260  219.8610 C   0  0  0  0  0  0  0  0  0  0  0  0
  145.9600   73.0840  220.5230 C   0  0  2  0  0  0  0  0  0  0  0  0
  146.2220   72.6800  221.8220 O   0  0  0  0  0  0  0  0  0  0  0  0
  145.4490   74.5070  220.5390 C   0  0  0  0  0  0  0  0  0  0  0  0
  143.9590   74.4630  220.4270 C   0  0  1  0  0  0  0  0  0  0  0  0
  143.4120   75.4790  219.5050 C   0  0  0  0  0  0  0  0  0  0  0  0
  142.6410   76.5570  219.9460 C   0  0  0  0  0  0  0  0  0  0  0  0
  142.1470   77.4930  219.0400 C   0  0  0  0  0  0  0  0  0  0  0  0
  142.4280   77.3420  217.6840 C   0  0  0  0  0  0  0  0  0  0  0  0
  143.1950   76.2680  217.2440 C   0  0  0  0  0  0  0  0  0  0  0  0
  143.6930   75.3300  218.1490 C   0  0  0  0  0  0  0  0  0  0  0  0
  139.6390   75.7900  222.0240 C   0  0  0  0  0  0  0  0  0  0  0  0
  138.3720   76.3250  222.1190 C   0  0  0  0  0  0  0  0  0  0  0  0
  138.1640   77.6460  222.5260 C   0  0  0  0  0  0  0  0  0  0  0  0
  139.2850   78.4030  222.8320 C   0  0  0  0  0  0  0  0  0  0  0  0
  139.1840   79.7230  223.2440 C   0  0  0  0  0  0  0  0  0  0  0  0
  140.2860   80.4900  223.5510 C   0  0  0  0  0  0  0  0  0  0  0  0
  141.5670   79.9410  223.4520 C   0  0  0  0  0  0  0  0  0  0  0  0
  142.9960   80.8850  223.8340 Cl  0  0  0  0  0  0  0  0  0  0  0  0
  141.6580   78.6240  223.0400 C   0  0  0  0  0  0  0  0  0  0  0  0
  140.5590   77.8550  222.7330 C   0  0  0  0  0  0  0  0  0  0  0  0
  140.6840   76.5760  222.3340 N   0  0  0  0  0  0  0  0  0  0  0  0
  141.9420   74.5230  221.8310 H   0  0  0  0  0  0  0  0  0  0  0  0
  141.8218   71.9238  221.9612 H   0  0  0  0  0  0  0  0  0  0  0  0
  140.4525   72.0213  220.8247 H   0  0  0  0  0  0  0  0  0  0  0  0
  144.7530   71.3248  220.3054 H   0  0  0  0  0  0  0  0  0  0  0  0
  145.0419   72.1820  218.7869 H   0  0  0  0  0  0  0  0  0  0  0  0
  146.9069   72.9318  219.9842 H   0  0  0  0  0  0  0  0  0  0  0  0
  145.6470   71.9160  222.0720 H   0  0  0  0  0  0  0  0  0  0  0  0
  145.7385   74.9972  221.4802 H   0  0  0  0  0  0  0  0  0  0  0  0
  145.8788   75.0773  219.7023 H   0  0  0  0  0  0  0  0  0  0  0  0
  143.4650   74.7421  221.3694 H   0  0  0  0  0  0  0  0  0  0  0  0
  142.4219   76.6679  221.0182 H   0  0  0  0  0  0  0  0  0  0  0  0
  141.5419   78.3417  219.3915 H   0  0  0  0  0  0  0  0  0  0  0  0
  142.0423   78.0740  216.9591 H   0  0  0  0  0  0  0  0  0  0  0  0
  143.4112   76.1571  216.1712 H   0  0  0  0  0  0  0  0  0  0  0  0
  144.3000   74.4833  217.7959 H   0  0  0  0  0  0  0  0  0  0  0  0
  137.5040   75.6974  221.8686 H   0  0  0  0  0  0  0  0  0  0  0  0
  137.1511   78.0685  222.6006 H   0  0  0  0  0  0  0  0  0  0  0  0
  138.1849   80.1753  223.3290 H   0  0  0  0  0  0  0  0  0  0  0  0
  140.1577   81.5337  223.8738 H   0  0  0  0  0  0  0  0  0  0  0  0
  142.6561   78.1697  222.9536 H   0  0  0  0  0  0  0  0  0  0  0  0
  1  2  2  0
  2  3  1  0
  3  4  1  0
  4  5  1  0
  5  6  2  0
  5  7  1  0
  7  8  1  0
  8  9  1  0
  9 10  1  0
  9 11  1  0
 11 12  1  0
 12 13  1  0
 13 14  2  0
 14 15  1  0
 15 16  2  0
 16 17  1  0
 17 18  2  0
  2 19  1  0
 19 20  2  0
 20 21  1  0
 21 22  2  0
 22 23  1  0
 23 24  2  0
 24 25  1  0
 25 26  1  0
 25 27  2  0
 27 28  1  0
 28 29  2  0
 12  7  1  0
 18 13  1  0
 29 19  1  0
 28 22  1  0
  3 30  1  0
  4 31  1  0
  4 32  1  0
  8 33  1  0
  8 34  1  0
  9 35  1  6
 10 36  1  0
 11 37  1  0
 11 38  1  0
 12 39  1  1
 14 40  1  0
 15 41  1  0
 16 42  1  0
 17 43  1  0
 18 44  1  0
 20 45  1  0
 21 46  1  0
 23 47  1  0
 24 48  1  0
 27 49  1  0
M  END
>  <meeko>  (12) 
{"free_energy": -7.41, "intermolecular_energy": -9.2, "internal_energy": -2.41, "cluster_size": 1, "cluster_id": 6, "rank_in_cluster": 1}

$$$$

     RDKit          3D

 49 52  0  0  0  0  0  0  0  0999 V2000
  136.1620   70.4980  223.2150 O   0  0  0  0  0  0  0  0  0  0  0  0
  136.0680   71.6820  223.6330 C   0  0  0  0  0  0  0  0  0  0  0  0
  136.9390   72.6980  223.1400 N   0  0  0  0  0  0  0  0  0  0  0  0
  137.9570   72.3890  222.1430 C   0  0  0  0  0  0  0  0  0  0  0  0
  139.1020   71.7730  222.8510 C   0  0  0  0  0  0  0  0  0  0  0  0
  140.1230   72.5120  223.0320 O   0  0  0  0  0  0  0  0  0  0  0  0
  139.0920   70.4280  223.3190 N   0  0  0  0  0  0  0  0  0  0  0  0
  139.4070   69.3060  222.4440 C   0  0  0  0  0  0  0  0  0  0  0  0
  138.8260   68.1020  223.1150 C   0  0  2  0  0  0  0  0  0  0  0  0
  137.5460   67.7840  222.6900 O   0  0  0  0  0  0  0  0  0  0  0  0
  138.7820   68.5000  224.5730 C   0  0  0  0  0  0  0  0  0  0  0  0
  138.7920   69.9940  224.6430 C   0  0  1  0  0  0  0  0  0  0  0  0
  139.6790   70.5220  225.6990 C   0  0  0  0  0  0  0  0  0  0  0  0
  140.6430   71.5020  225.4510 C   0  0  0  0  0  0  0  0  0  0  0  0
  141.4570   71.9710  226.4780 C   0  0  0  0  0  0  0  0  0  0  0  0
  141.3030   71.4520  227.7620 C   0  0  0  0  0  0  0  0  0  0  0  0
  140.3430   70.4770  228.0100 C   0  0  0  0  0  0  0  0  0  0  0  0
  139.5240   70.0050  226.9830 C   0  0  0  0  0  0  0  0  0  0  0  0
  135.0630   72.0350  224.6310 C   0  0  0  0  0  0  0  0  0  0  0  0
  134.3210   71.0560  225.2560 C   0  0  0  0  0  0  0  0  0  0  0  0
  133.3550   71.3720  226.2150 C   0  0  0  0  0  0  0  0  0  0  0  0
  133.1680   72.7120  226.5160 C   0  0  0  0  0  0  0  0  0  0  0  0
  132.2330   73.1270  227.4520 C   0  0  0  0  0  0  0  0  0  0  0  0
  132.0340   74.4550  227.7630 C   0  0  0  0  0  0  0  0  0  0  0  0
  132.7900   75.4410  227.1250 C   0  0  0  0  0  0  0  0  0  0  0  0
  132.5670   77.1420  227.4920 Cl  0  0  0  0  0  0  0  0  0  0  0  0
  133.7200   75.0180  226.1930 C   0  0  0  0  0  0  0  0  0  0  0  0
  133.9210   73.6920  225.8800 C   0  0  0  0  0  0  0  0  0  0  0  0
  134.8350   73.3160  224.9670 N   0  0  0  0  0  0  0  0  0  0  0  0
  136.8120   73.6710  223.5290 H   0  0  0  0  0  0  0  0  0  0  0  0
  137.5532   71.6861  221.3995 H   0  0  0  0  0  0  0  0  0  0  0  0
  138.2730   73.3018  221.6168 H   0  0  0  0  0  0  0  0  0  0  0  0
  138.9518   69.4513  221.4532 H   0  0  0  0  0  0  0  0  0  0  0  0
  140.4907   69.2027  222.2862 H   0  0  0  0  0  0  0  0  0  0  0  0
  139.4274   67.2083  222.8923 H   0  0  0  0  0  0  0  0  0  0  0  0
  136.9670   68.5840  222.6980 H   0  0  0  0  0  0  0  0  0  0  0  0
  137.8650   68.1103  225.0391 H   0  0  0  0  0  0  0  0  0  0  0  0
  139.6485   68.0858  225.1092 H   0  0  0  0  0  0  0  0  0  0  0  0
  137.8199   70.4010  224.9580 H   0  0  0  0  0  0  0  0  0  0  0  0
  140.7599   71.9067  224.4349 H   0  0  0  0  0  0  0  0  0  0  0  0
  142.2142   72.7435  226.2781 H   0  0  0  0  0  0  0  0  0  0  0  0
  141.9419   71.8142  228.5809 H   0  0  0  0  0  0  0  0  0  0  0  0
  140.2278   70.0733  229.0267 H   0  0  0  0  0  0  0  0  0  0  0  0
  138.7656   69.2343  227.1852 H   0  0  0  0  0  0  0  0  0  0  0  0
  134.4932   70.0017  224.9939 H   0  0  0  0  0  0  0  0  0  0  0  0
  132.7656   70.5874  226.7120 H   0  0  0  0  0  0  0  0  0  0  0  0
  131.6265   72.3670  227.9663 H   0  0  0  0  0  0  0  0  0  0  0  0
  131.2806   74.7380  228.5129 H   0  0  0  0  0  0  0  0  0  0  0  0
  134.3277   75.7762  225.6775 H   0  0  0  0  0  0  0  0  0  0  0  0
  1  2  2  0
  2  3  1  0
  3  4  1  0
  4  5  1  0
  5  6  2  0
  5  7  1  0
  7  8  1  0
  8  9  1  0
  9 10  1  0
  9 11  1  0
 11 12  1  0
 12 13  1  0
 13 14  2  0
 14 15  1  0
 15 16  2  0
 16 17  1  0
 17 18  2  0
  2 19  1  0
 19 20  2  0
 20 21  1  0
 21 22  2  0
 22 23  1  0
 23 24  2  0
 24 25  1  0
 25 26  1  0
 25 27  2  0
 27 28  1  0
 28 29  2  0
 12  7  1  0
 18 13  1  0
 29 19  1  0
 28 22  1  0
  3 30  1  0
  4 31  1  0
  4 32  1  0
  8 33  1  0
  8 34  1  0
  9 35  1  1
 10 36  1  0
 11 37  1  0
 11 38  1  0
 12 39  1  1
 14 40  1  0
 15 41  1  0
 16 42  1  0
 17 43  1  0
 18 44  1  0
 20 45  1  0
 21 46  1  0
 23 47  1  0
 24 48  1  0
 27 49  1  0
M  END
>  <meeko>  (13) 
{"free_energy": -7.72, "intermolecular_energy": -9.51, "internal_energy": -2.45, "cluster_size": 5, "cluster_id": 3, "rank_in_cluster": 2}

$$$$

     RDKit          3D

 49 52  0  0  0  0  0  0  0  0999 V2000
  141.2820   73.3450  221.0800 O   0  0  0  0  0  0  0  0  0  0  0  0
  140.3930   73.4360  221.9670 C   0  0  0  0  0  0  0  0  0  0  0  0
  139.8080   74.6980  222.2840 N   0  0  0  0  0  0  0  0  0  0  0  0
  140.2250   75.9090  221.5870 C   0  0  0  0  0  0  0  0  0  0  0  0
  139.7190   77.0640  222.3630 C   0  0  0  0  0  0  0  0  0  0  0  0
  138.6380   76.8840  223.0120 O   0  0  0  0  0  0  0  0  0  0  0  0
  140.3820   78.3240  222.4020 N   0  0  0  0  0  0  0  0  0  0  0  0
  141.3920   78.6940  221.4190 C   0  0  0  0  0  0  0  0  0  0  0  0
  142.1770   79.8000  222.0500 C   0  0  2  0  0  0  0  0  0  0  0  0
  143.3110   79.3730  222.7220 O   0  0  0  0  0  0  0  0  0  0  0  0
  141.2050   80.3970  223.0420 C   0  0  0  0  0  0  0  0  0  0  0  0
  140.1730   79.3620  223.3570 C   0  0  1  0  0  0  0  0  0  0  0  0
  138.8000   79.9040  223.4100 C   0  0  0  0  0  0  0  0  0  0  0  0
  137.9140   79.8170  222.3340 C   0  0  0  0  0  0  0  0  0  0  0  0
  136.6280   80.3420  222.4290 C   0  0  0  0  0  0  0  0  0  0  0  0
  136.2310   80.9600  223.6130 C   0  0  0  0  0  0  0  0  0  0  0  0
  137.1120   81.0480  224.6860 C   0  0  0  0  0  0  0  0  0  0  0  0
  138.4010   80.5220  224.5930 C   0  0  0  0  0  0  0  0  0  0  0  0
  139.9470   72.2480  222.6890 C   0  0  0  0  0  0  0  0  0  0  0  0
  139.0550   71.3700  222.1120 C   0  0  0  0  0  0  0  0  0  0  0  0
  138.6160   70.2270  222.7850 C   0  0  0  0  0  0  0  0  0  0  0  0
  139.1120   70.0070  224.0620 C   0  0  0  0  0  0  0  0  0  0  0  0
  138.7360   68.9030  224.8110 C   0  0  0  0  0  0  0  0  0  0  0  0
  139.2190   68.6690  226.0800 C   0  0  0  0  0  0  0  0  0  0  0  0
  140.1230   69.5640  226.6580 C   0  0  0  0  0  0  0  0  0  0  0  0
  140.7610   69.3030  228.2720 Cl  0  0  0  0  0  0  0  0  0  0  0  0
  140.4920   70.6630  225.9030 C   0  0  0  0  0  0  0  0  0  0  0  0
  140.0110   70.8990  224.6350 C   0  0  0  0  0  0  0  0  0  0  0  0
  140.3910   71.9790  223.9290 N   0  0  0  0  0  0  0  0  0  0  0  0
  139.0690   74.7090  223.0370 H   0  0  0  0  0  0  0  0  0  0  0  0
  141.3226   75.9487  221.5265 H   0  0  0  0  0  0  0  0  0  0  0  0
  139.8247   75.9245  220.5626 H   0  0  0  0  0  0  0  0  0  0  0  0
  142.0450   77.8370  221.1974 H   0  0  0  0  0  0  0  0  0  0  0  0
  140.9394   79.0066  220.4664 H   0  0  0  0  0  0  0  0  0  0  0  0
  142.5493   80.4955  221.2834 H   0  0  0  0  0  0  0  0  0  0  0  0
  143.7750   78.6660  222.2100 H   0  0  0  0  0  0  0  0  0  0  0  0
  141.7380   80.6844  223.9603 H   0  0  0  0  0  0  0  0  0  0  0  0
  140.7298   81.2944  222.6190 H   0  0  0  0  0  0  0  0  0  0  0  0
  140.2849   78.9625  224.3757 H   0  0  0  0  0  0  0  0  0  0  0  0
  138.2354   79.3288  221.4021 H   0  0  0  0  0  0  0  0  0  0  0  0
  135.9334   80.2697  221.5791 H   0  0  0  0  0  0  0  0  0  0  0  0
  135.2179   81.3796  223.6996 H   0  0  0  0  0  0  0  0  0  0  0  0
  136.7892   81.5371  225.6169 H   0  0  0  0  0  0  0  0  0  0  0  0
  139.0942   80.5945  225.4440 H   0  0  0  0  0  0  0  0  0  0  0  0
  138.6800   71.5738  221.0982 H   0  0  0  0  0  0  0  0  0  0  0  0
  137.9046   69.5284  222.3204 H   0  0  0  0  0  0  0  0  0  0  0  0
  138.0245   68.1860  224.3755 H   0  0  0  0  0  0  0  0  0  0  0  0
  138.8932   67.7785  226.6375 H   0  0  0  0  0  0  0  0  0  0  0  0
  141.2030   71.3819  226.3362 H   0  0  0  0  0  0  0  0  0  0  0  0
  1  2  2  0
  2  3  1  0
  3  4  1  0
  4  5  1  0
  5  6  2  0
  5  7  1  0
  7  8  1  0
  8  9  1  0
  9 10  1  0
  9 11  1  0
 11 12  1  0
 12 13  1  0
 13 14  2  0
 14 15  1  0
 15 16  2  0
 16 17  1  0
 17 18  2  0
  2 19  1  0
 19 20  2  0
 20 21  1  0
 21 22  2  0
 22 23  1  0
 23 24  2  0
 24 25  1  0
 25 26  1  0
 25 27  2  0
 27 28  1  0
 28 29  2  0
 12  7  1  0
 18 13  1  0
 29 19  1  0
 28 22  1  0
  3 30  1  0
  4 31  1  0
  4 32  1  0
  8 33  1  0
  8 34  1  0
  9 35  1  6
 10 36  1  0
 11 37  1  0
 11 38  1  0
 12 39  1  1
 14 40  1  0
 15 41  1  0
 16 42  1  0
 17 43  1  0
 18 44  1  0
 20 45  1  0
 21 46  1  0
 23 47  1  0
 24 48  1  0
 27 49  1  0
M  END
>  <meeko>  (14) 
{"free_energy": -8.4, "intermolecular_energy": -10.19, "internal_energy": -1.71, "cluster_size": 3, "cluster_id": 1, "rank_in_cluster": 1}

$$$$

     RDKit          3D

 49 52  0  0  0  0  0  0  0  0999 V2000
  141.2750   73.3830  221.0640 O   0  0  0  0  0  0  0  0  0  0  0  0
  140.3850   73.4690  221.9510 C   0  0  0  0  0  0  0  0  0  0  0  0
  139.8020   74.7290  222.2770 N   0  0  0  0  0  0  0  0  0  0  0  0
  140.2220   75.9450  221.5900 C   0  0  0  0  0  0  0  0  0  0  0  0
  139.7180   77.0950  222.3750 C   0  0  0  0  0  0  0  0  0  0  0  0
  138.6340   76.9120  223.0200 O   0  0  0  0  0  0  0  0  0  0  0  0
  140.3850   78.3520  222.4280 N   0  0  0  0  0  0  0  0  0  0  0  0
  141.3840   78.7360  221.4390 C   0  0  0  0  0  0  0  0  0  0  0  0
  142.1800   79.8280  222.0790 C   0  0  2  0  0  0  0  0  0  0  0  0
  143.3200   79.3870  222.7310 O   0  0  0  0  0  0  0  0  0  0  0  0
  141.2210   80.4110  223.0930 C   0  0  0  0  0  0  0  0  0  0  0  0
  140.1900   79.3740  223.4020 C   0  0  1  0  0  0  0  0  0  0  0  0
  138.8200   79.9200  223.4810 C   0  0  0  0  0  0  0  0  0  0  0  0
  138.3120   80.5140  224.6380 C   0  0  0  0  0  0  0  0  0  0  0  0
  137.0130   81.0160  224.6670 C   0  0  0  0  0  0  0  0  0  0  0  0
  136.2200   80.9170  223.5260 C   0  0  0  0  0  0  0  0  0  0  0  0
  136.7240   80.3250  222.3730 C   0  0  0  0  0  0  0  0  0  0  0  0
  138.0250   79.8230  222.3410 C   0  0  0  0  0  0  0  0  0  0  0  0
  139.9360   72.2760  222.6620 C   0  0  0  0  0  0  0  0  0  0  0  0
  139.0440   71.4040  222.0770 C   0  0  0  0  0  0  0  0  0  0  0  0
  138.6020   70.2560  222.7400 C   0  0  0  0  0  0  0  0  0  0  0  0
  139.0950   70.0250  224.0160 C   0  0  0  0  0  0  0  0  0  0  0  0
  138.7160   68.9160  224.7560 C   0  0  0  0  0  0  0  0  0  0  0  0
  139.1960   68.6720  226.0240 C   0  0  0  0  0  0  0  0  0  0  0  0
  140.1000   69.5610  226.6110 C   0  0  0  0  0  0  0  0  0  0  0  0
  140.7340   69.2860  228.2240 Cl  0  0  0  0  0  0  0  0  0  0  0  0
  140.4720   70.6650  225.8660 C   0  0  0  0  0  0  0  0  0  0  0  0
  139.9940   70.9110  224.5980 C   0  0  0  0  0  0  0  0  0  0  0  0
  140.3770   71.9970  223.9010 N   0  0  0  0  0  0  0  0  0  0  0  0
  139.0620   74.7360  223.0290 H   0  0  0  0  0  0  0  0  0  0  0  0
  141.3197   75.9829  221.5304 H   0  0  0  0  0  0  0  0  0  0  0  0
  139.8222   75.9696  220.5655 H   0  0  0  0  0  0  0  0  0  0  0  0
  142.0314   77.8810  221.1944 H   0  0  0  0  0  0  0  0  0  0  0  0
  140.9206   79.0665  220.4977 H   0  0  0  0  0  0  0  0  0  0  0  0
  142.5459   80.5345  221.3194 H   0  0  0  0  0  0  0  0  0  0  0  0
  143.7720   78.6820  222.2060 H   0  0  0  0  0  0  0  0  0  0  0  0
  141.7656   80.6810  224.0098 H   0  0  0  0  0  0  0  0  0  0  0  0
  140.7437   81.3170  222.6912 H   0  0  0  0  0  0  0  0  0  0  0  0
  140.3119   78.9558  224.4121 H   0  0  0  0  0  0  0  0  0  0  0  0
  138.9439   80.5862  225.5355 H   0  0  0  0  0  0  0  0  0  0  0  0
  136.6180   81.4851  225.5802 H   0  0  0  0  0  0  0  0  0  0  0  0
  135.1920   81.3083  223.5371 H   0  0  0  0  0  0  0  0  0  0  0  0
  136.0901   80.2519  221.4770 H   0  0  0  0  0  0  0  0  0  0  0  0
  138.4187   79.3559  221.4262 H   0  0  0  0  0  0  0  0  0  0  0  0
  138.6710   71.6165  221.0642 H   0  0  0  0  0  0  0  0  0  0  0  0
  137.8906   69.5622  222.2683 H   0  0  0  0  0  0  0  0  0  0  0  0
  138.0045   68.2032  224.3137 H   0  0  0  0  0  0  0  0  0  0  0  0
  138.8677   67.7777  226.5741 H   0  0  0  0  0  0  0  0  0  0  0  0
  141.1826   71.3798  226.3065 H   0  0  0  0  0  0  0  0  0  0  0  0
  1  2  2  0
  2  3  1  0
  3  4  1  0
  4  5  1  0
  5  6  2  0
  5  7  1  0
  7  8  1  0
  8  9  1  0
  9 10  1  0
  9 11  1  0
 11 12  1  0
 12 13  1  0
 13 14  2  0
 14 15  1  0
 15 16  2  0
 16 17  1  0
 17 18  2  0
  2 19  1  0
 19 20  2  0
 20 21  1  0
 21 22  2  0
 22 23  1  0
 23 24  2  0
 24 25  1  0
 25 26  1  0
 25 27  2  0
 27 28  1  0
 28 29  2  0
 12  7  1  0
 18 13  1  0
 29 19  1  0
 28 22  1  0
  3 30  1  0
  4 31  1  0
  4 32  1  0
  8 33  1  0
  8 34  1  0
  9 35  1  6
 10 36  1  0
 11 37  1  0
 11 38  1  0
 12 39  1  1
 14 40  1  0
 15 41  1  0
 16 42  1  0
 17 43  1  0
 18 44  1  0
 20 45  1  0
 21 46  1  0
 23 47  1  0
 24 48  1  0
 27 49  1  0
M  END
>  <meeko>  (15) 
{"free_energy": -8.38, "intermolecular_energy": -10.17, "internal_energy": -1.7, "cluster_size": 3, "cluster_id": 1, "rank_in_cluster": 2}

$$$$

     RDKit          3D

 49 52  0  0  0  0  0  0  0  0999 V2000
  136.9090   75.1480  221.1440 O   0  0  0  0  0  0  0  0  0  0  0  0
  137.9020   75.3850  221.8810 C   0  0  0  0  0  0  0  0  0  0  0  0
  138.7370   74.3230  222.3400 N   0  0  0  0  0  0  0  0  0  0  0  0
  138.4600   72.9410  221.9650 C   0  0  0  0  0  0  0  0  0  0  0  0
  139.4950   72.0930  222.6000 C   0  0  0  0  0  0  0  0  0  0  0  0
  140.6090   72.6540  222.8590 O   0  0  0  0  0  0  0  0  0  0  0  0
  139.2880   70.7210  222.9160 N   0  0  0  0  0  0  0  0  0  0  0  0
  139.5880   69.6570  221.9660 C   0  0  0  0  0  0  0  0  0  0  0  0
  138.8060   68.4710  222.4340 C   0  0  2  0  0  0  0  0  0  0  0  0
  137.5610   68.3470  221.8380 O   0  0  0  0  0  0  0  0  0  0  0  0
  138.6260   68.7320  223.9130 C   0  0  0  0  0  0  0  0  0  0  0  0
  138.7830   70.2010  224.1440 C   0  0  1  0  0  0  0  0  0  0  0  0
  139.5850   70.5200  225.3430 C   0  0  0  0  0  0  0  0  0  0  0  0
  140.5230   71.5550  225.3660 C   0  0  0  0  0  0  0  0  0  0  0  0
  141.2560   71.8210  226.5200 C   0  0  0  0  0  0  0  0  0  0  0  0
  141.0470   71.0410  227.6550 C   0  0  0  0  0  0  0  0  0  0  0  0
  140.1140   70.0100  227.6330 C   0  0  0  0  0  0  0  0  0  0  0  0
  139.3760   69.7420  226.4790 C   0  0  0  0  0  0  0  0  0  0  0  0
  138.2150   76.7540  222.2790 C   0  0  0  0  0  0  0  0  0  0  0  0
  137.2070   77.6640  222.5150 C   0  0  0  0  0  0  0  0  0  0  0  0
  137.4850   78.9790  222.8980 C   0  0  0  0  0  0  0  0  0  0  0  0
  138.8180   79.3380  223.0320 C   0  0  0  0  0  0  0  0  0  0  0  0
  139.1950   80.6180  223.4060 C   0  0  0  0  0  0  0  0  0  0  0  0
  140.5150   80.9910  223.5440 C   0  0  0  0  0  0  0  0  0  0  0  0
  141.5300   80.0630  223.3030 C   0  0  0  0  0  0  0  0  0  0  0  0
  143.2220   80.4980  223.4670 Cl  0  0  0  0  0  0  0  0  0  0  0  0
  141.1440   78.7880  222.9300 C   0  0  0  0  0  0  0  0  0  0  0  0
  139.8270   78.4120  222.7920 C   0  0  0  0  0  0  0  0  0  0  0  0
  139.4870   77.1630  222.4270 N   0  0  0  0  0  0  0  0  0  0  0  0
  139.5530   74.5860  222.9550 H   0  0  0  0  0  0  0  0  0  0  0  0
  137.4621   72.6473  222.3227 H   0  0  0  0  0  0  0  0  0  0  0  0
  138.4800   72.8242  220.8714 H   0  0  0  0  0  0  0  0  0  0  0  0
  139.2757   69.9476  220.9521 H   0  0  0  0  0  0  0  0  0  0  0  0
  140.6660   69.4428  221.9203 H   0  0  0  0  0  0  0  0  0  0  0  0
  139.3326   67.5382  222.1839 H   0  0  0  0  0  0  0  0  0  0  0  0
  137.1200   69.2280  221.7640 H   0  0  0  0  0  0  0  0  0  0  0  0
  137.6234   68.4091  224.2300 H   0  0  0  0  0  0  0  0  0  0  0  0
  139.3728   68.1712  224.4943 H   0  0  0  0  0  0  0  0  0  0  0  0
  137.8269   70.6860  224.3903 H   0  0  0  0  0  0  0  0  0  0  0  0
  140.6840   72.1651  224.4650 H   0  0  0  0  0  0  0  0  0  0  0  0
  141.9921   72.6383  226.5350 H   0  0  0  0  0  0  0  0  0  0  0  0
  141.6216   71.2411  228.5714 H   0  0  0  0  0  0  0  0  0  0  0  0
  139.9560   69.3995  228.5343 H   0  0  0  0  0  0  0  0  0  0  0  0
  138.6383   68.9262  226.4670 H   0  0  0  0  0  0  0  0  0  0  0  0
  136.1598   77.3480  222.3992 H   0  0  0  0  0  0  0  0  0  0  0  0
  136.6774   79.7018  223.0860 H   0  0  0  0  0  0  0  0  0  0  0  0
  138.4111   81.3649  223.6002 H   0  0  0  0  0  0  0  0  0  0  0  0
  140.7683   82.0186  223.8437 H   0  0  0  0  0  0  0  0  0  0  0  0
  141.9261   78.0396  222.7345 H   0  0  0  0  0  0  0  0  0  0  0  0
  1  2  2  0
  2  3  1  0
  3  4  1  0
  4  5  1  0
  5  6  2  0
  5  7  1  0
  7  8  1  0
  8  9  1  0
  9 10  1  0
  9 11  1  0
 11 12  1  0
 12 13  1  0
 13 14  2  0
 14 15  1  0
 15 16  2  0
 16 17  1  0
 17 18  2  0
  2 19  1  0
 19 20  2  0
 20 21  1  0
 21 22  2  0
 22 23  1  0
 23 24  2  0
 24 25  1  0
 25 26  1  0
 25 27  2  0
 27 28  1  0
 28 29  2  0
 12  7  1  0
 18 13  1  0
 29 19  1  0
 28 22  1  0
  3 30  1  0
  4 31  1  0
  4 32  1  0
  8 33  1  0
  8 34  1  0
  9 35  1  1
 10 36  1  0
 11 37  1  0
 11 38  1  0
 12 39  1  1
 14 40  1  0
 15 41  1  0
 16 42  1  0
 17 43  1  0
 18 44  1  0
 20 45  1  0
 21 46  1  0
 23 47  1  0
 24 48  1  0
 27 49  1  0
M  END
>  <meeko>  (16) 
{"free_energy": -8.15, "intermolecular_energy": -9.94, "internal_energy": -1.73, "cluster_size": 8, "cluster_id": 2, "rank_in_cluster": 4}

$$$$

     RDKit          3D

 49 52  0  0  0  0  0  0  0  0999 V2000
  138.1410   73.4540  221.8230 O   0  0  0  0  0  0  0  0  0  0  0  0
  139.1990   74.1110  222.0150 C   0  0  0  0  0  0  0  0  0  0  0  0
  140.4700   73.4640  222.0010 N   0  0  0  0  0  0  0  0  0  0  0  0
  140.5740   72.0290  221.7630 C   0  0  0  0  0  0  0  0  0  0  0  0
  140.2580   71.3430  223.0370 C   0  0  0  0  0  0  0  0  0  0  0  0
  141.1880   71.3050  223.9080 O   0  0  0  0  0  0  0  0  0  0  0  0
  138.9930   70.7470  223.3060 N   0  0  0  0  0  0  0  0  0  0  0  0
  138.1190   70.2820  222.2370 C   0  0  0  0  0  0  0  0  0  0  0  0
  136.7550   70.1990  222.8460 C   0  0  2  0  0  0  0  0  0  0  0  0
  135.9890   71.3410  222.6700 O   0  0  0  0  0  0  0  0  0  0  0  0
  137.0400   70.0120  224.3190 C   0  0  0  0  0  0  0  0  0  0  0  0
  138.4170   70.5250  224.5910 C   0  0  1  0  0  0  0  0  0  0  0  0
  139.1980   69.6510  225.4910 C   0  0  0  0  0  0  0  0  0  0  0  0
  139.2020   68.2600  225.3710 C   0  0  0  0  0  0  0  0  0  0  0  0
  139.9540   67.4760  226.2430 C   0  0  0  0  0  0  0  0  0  0  0  0
  140.7040   68.0940  227.2410 C   0  0  0  0  0  0  0  0  0  0  0  0
  140.7000   69.4800  227.3610 C   0  0  0  0  0  0  0  0  0  0  0  0
  139.9490   70.2680  226.4890 C   0  0  0  0  0  0  0  0  0  0  0  0
  139.1390   75.5490  222.2570 C   0  0  0  0  0  0  0  0  0  0  0  0
  137.9310   76.2120  222.2520 C   0  0  0  0  0  0  0  0  0  0  0  0
  137.8520   77.5890  222.4820 C   0  0  0  0  0  0  0  0  0  0  0  0
  139.0390   78.2670  222.7160 C   0  0  0  0  0  0  0  0  0  0  0  0
  139.0660   79.6320  222.9540 C   0  0  0  0  0  0  0  0  0  0  0  0
  140.2360   80.3210  223.1890 C   0  0  0  0  0  0  0  0  0  0  0  0
  141.4560   79.6410  223.1930 C   0  0  0  0  0  0  0  0  0  0  0  0
  142.9680   80.4820  223.4870 Cl  0  0  0  0  0  0  0  0  0  0  0  0
  141.4200   78.2790  222.9540 C   0  0  0  0  0  0  0  0  0  0  0  0
  140.2530   77.5880  222.7200 C   0  0  0  0  0  0  0  0  0  0  0  0
  140.2540   76.2620  222.4910 N   0  0  0  0  0  0  0  0  0  0  0  0
  141.3180   74.0680  222.1690 H   0  0  0  0  0  0  0  0  0  0  0  0
  139.8587   71.7244  220.9848 H   0  0  0  0  0  0  0  0  0  0  0  0
  141.5857   71.7650  221.4211 H   0  0  0  0  0  0  0  0  0  0  0  0
  138.1235   70.9945  221.3990 H   0  0  0  0  0  0  0  0  0  0  0  0
  138.4464   69.3123  221.8339 H   0  0  0  0  0  0  0  0  0  0  0  0
  136.1711   69.3935  222.3767 H   0  0  0  0  0  0  0  0  0  0  0  0
  136.5580   72.1040  222.4070 H   0  0  0  0  0  0  0  0  0  0  0  0
  136.3071   70.5751  224.9156 H   0  0  0  0  0  0  0  0  0  0  0  0
  136.9675   68.9485  224.5905 H   0  0  0  0  0  0  0  0  0  0  0  0
  138.4036   71.4644  225.1631 H   0  0  0  0  0  0  0  0  0  0  0  0
  138.6063   67.7791  224.5812 H   0  0  0  0  0  0  0  0  0  0  0  0
  139.9555   66.3804  226.1445 H   0  0  0  0  0  0  0  0  0  0  0  0
  141.3007   67.4848  227.9358 H   0  0  0  0  0  0  0  0  0  0  0  0
  141.2954   69.9595  228.1519 H   0  0  0  0  0  0  0  0  0  0  0  0
  139.9497   71.3635  226.5881 H   0  0  0  0  0  0  0  0  0  0  0  0
  137.0076   75.6450  222.0627 H   0  0  0  0  0  0  0  0  0  0  0  0
  136.8855   78.1143  222.4775 H   0  0  0  0  0  0  0  0  0  0  0  0
  138.1163   80.1871  222.9554 H   0  0  0  0  0  0  0  0  0  0  0  0
  140.2092   81.4051  223.3732 H   0  0  0  0  0  0  0  0  0  0  0  0
  142.3686   77.7221  222.9508 H   0  0  0  0  0  0  0  0  0  0  0  0
  1  2  2  0
  2  3  1  0
  3  4  1  0
  4  5  1  0
  5  6  2  0
  5  7  1  0
  7  8  1  0
  8  9  1  0
  9 10  1  0
  9 11  1  0
 11 12  1  0
 12 13  1  0
 13 14  2  0
 14 15  1  0
 15 16  2  0
 16 17  1  0
 17 18  2  0
  2 19  1  0
 19 20  2  0
 20 21  1  0
 21 22  2  0
 22 23  1  0
 23 24  2  0
 24 25  1  0
 25 26  1  0
 25 27  2  0
 27 28  1  0
 28 29  2  0
 12  7  1  0
 18 13  1  0
 29 19  1  0
 28 22  1  0
  3 30  1  0
  4 31  1  0
  4 32  1  0
  8 33  1  0
  8 34  1  0
  9 35  1  6
 10 36  1  0
 11 37  1  0
 11 38  1  0
 12 39  1  1
 14 40  1  0
 15 41  1  0
 16 42  1  0
 17 43  1  0
 18 44  1  0
 20 45  1  0
 21 46  1  0
 23 47  1  0
 24 48  1  0
 27 49  1  0
M  END
>  <meeko>  (17) 
{"free_energy": -7.47, "intermolecular_energy": -9.26, "internal_energy": -2.48, "cluster_size": 8, "cluster_id": 2, "rank_in_cluster": 6}

$$$$

     RDKit          3D

 49 52  0  0  0  0  0  0  0  0999 V2000
  140.9210   74.3240  220.8640 O   0  0  0  0  0  0  0  0  0  0  0  0
  140.0370   74.6530  221.6990 C   0  0  0  0  0  0  0  0  0  0  0  0
  139.2390   73.6610  222.3420 N   0  0  0  0  0  0  0  0  0  0  0  0
  139.4280   72.2450  222.0490 C   0  0  0  0  0  0  0  0  0  0  0  0
  138.5080   71.4830  222.9240 C   0  0  0  0  0  0  0  0  0  0  0  0
  137.4650   72.0960  223.3230 O   0  0  0  0  0  0  0  0  0  0  0  0
  138.7470   70.1350  223.3150 N   0  0  0  0  0  0  0  0  0  0  0  0
  139.1770   69.1210  222.3620 C   0  0  0  0  0  0  0  0  0  0  0  0
  138.8440   67.8080  222.9980 C   0  0  2  0  0  0  0  0  0  0  0  0
  137.6060   67.3040  222.6340 O   0  0  0  0  0  0  0  0  0  0  0  0
  138.8370   68.1270  224.4750 C   0  0  0  0  0  0  0  0  0  0  0  0
  138.6110   69.5980  224.6290 C   0  0  1  0  0  0  0  0  0  0  0  0
  139.4720   70.2160  225.6570 C   0  0  0  0  0  0  0  0  0  0  0  0
  140.3170   71.2940  225.3820 C   0  0  0  0  0  0  0  0  0  0  0  0
  141.1110   71.8460  226.3840 C   0  0  0  0  0  0  0  0  0  0  0  0
  141.0570   71.3100  227.6690 C   0  0  0  0  0  0  0  0  0  0  0  0
  140.2160   70.2370  227.9440 C   0  0  0  0  0  0  0  0  0  0  0  0
  139.4180   69.6820  226.9430 C   0  0  0  0  0  0  0  0  0  0  0  0
  139.8140   76.0590  222.0210 C   0  0  0  0  0  0  0  0  0  0  0  0
  138.5690   76.6270  221.8590 C   0  0  0  0  0  0  0  0  0  0  0  0
  138.3340   77.9710  222.1620 C   0  0  0  0  0  0  0  0  0  0  0  0
  139.4040   78.7160  222.6340 C   0  0  0  0  0  0  0  0  0  0  0  0
  139.2730   80.0570  222.9610 C   0  0  0  0  0  0  0  0  0  0  0  0
  140.3250   80.8120  223.4310 C   0  0  0  0  0  0  0  0  0  0  0  0
  141.5840   80.2280  223.5940 C   0  0  0  0  0  0  0  0  0  0  0  0
  142.9490   81.1550  224.1890 Cl  0  0  0  0  0  0  0  0  0  0  0  0
  141.7060   78.8900  223.2640 C   0  0  0  0  0  0  0  0  0  0  0  0
  140.6560   78.1340  222.7940 C   0  0  0  0  0  0  0  0  0  0  0  0
  140.8100   76.8340  222.4830 N   0  0  0  0  0  0  0  0  0  0  0  0
  138.5140   73.9990  223.0310 H   0  0  0  0  0  0  0  0  0  0  0  0
  139.1935   72.0454  220.9930 H   0  0  0  0  0  0  0  0  0  0  0  0
  140.4712   71.9475  222.2310 H   0  0  0  0  0  0  0  0  0  0  0  0
  138.6378   69.2348  221.4100 H   0  0  0  0  0  0  0  0  0  0  0  0
  140.2500   69.2038  222.1343 H   0  0  0  0  0  0  0  0  0  0  0  0
  139.5640   67.0358  222.6893 H   0  0  0  0  0  0  0  0  0  0  0  0
  136.9330   68.0270  222.5960 H   0  0  0  0  0  0  0  0  0  0  0  0
  138.0292   67.5710  224.9732 H   0  0  0  0  0  0  0  0  0  0  0  0
  139.7942   67.8373  224.9331 H   0  0  0  0  0  0  0  0  0  0  0  0
  137.6101   69.8248  225.0249 H   0  0  0  0  0  0  0  0  0  0  0  0
  140.3555   71.7106  224.3647 H   0  0  0  0  0  0  0  0  0  0  0  0
  141.7736   72.6959  226.1635 H   0  0  0  0  0  0  0  0  0  0  0  0
  141.6812   71.7366  228.4680 H   0  0  0  0  0  0  0  0  0  0  0  0
  140.1795   69.8213  228.9618 H   0  0  0  0  0  0  0  0  0  0  0  0
  138.7545   68.8335  227.1662 H   0  0  0  0  0  0  0  0  0  0  0  0
  137.7410   76.0084  221.4825 H   0  0  0  0  0  0  0  0  0  0  0  0
  137.3386   78.4205  222.0311 H   0  0  0  0  0  0  0  0  0  0  0  0
  138.2905   80.5368  222.8404 H   0  0  0  0  0  0  0  0  0  0  0  0
  140.1742   81.8733  223.6777 H   0  0  0  0  0  0  0  0  0  0  0  0
  142.6876   78.4079  223.3827 H   0  0  0  0  0  0  0  0  0  0  0  0
  1  2  2  0
  2  3  1  0
  3  4  1  0
  4  5  1  0
  5  6  2  0
  5  7  1  0
  7  8  1  0
  8  9  1  0
  9 10  1  0
  9 11  1  0
 11 12  1  0
 12 13  1  0
 13 14  2  0
 14 15  1  0
 15 16  2  0
 16 17  1  0
 17 18  2  0
  2 19  1  0
 19 20  2  0
 20 21  1  0
 21 22  2  0
 22 23  1  0
 23 24  2  0
 24 25  1  0
 25 26  1  0
 25 27  2  0
 27 28  1  0
 28 29  2  0
 12  7  1  0
 18 13  1  0
 29 19  1  0
 28 22  1  0
  3 30  1  0
  4 31  1  0
  4 32  1  0
  8 33  1  0
  8 34  1  0
  9 35  1  1
 10 36  1  0
 11 37  1  0
 11 38  1  0
 12 39  1  1
 14 40  1  0
 15 41  1  0
 16 42  1  0
 17 43  1  0
 18 44  1  0
 20 45  1  0
 21 46  1  0
 23 47  1  0
 24 48  1  0
 27 49  1  0
M  END
>  <meeko>  (18) 
{"free_energy": -8.26, "intermolecular_energy": -10.05, "internal_energy": -1.75, "cluster_size": 8, "cluster_id": 2, "rank_in_cluster": 2}

$$$$

     RDKit          3D

 49 52  0  0  0  0  0  0  0  0999 V2000
  140.0130   72.6340  219.7970 O   0  0  0  0  0  0  0  0  0  0  0  0
  140.2900   72.9580  220.9820 C   0  0  0  0  0  0  0  0  0  0  0  0
  140.8190   74.2490  221.2790 N   0  0  0  0  0  0  0  0  0  0  0  0
  141.0500   75.2220  220.2180 C   0  0  0  0  0  0  0  0  0  0  0  0
  141.0750   76.5640  220.8430 C   0  0  0  0  0  0  0  0  0  0  0  0
  140.9020   76.6060  222.1050 O   0  0  0  0  0  0  0  0  0  0  0  0
  141.2800   77.7620  220.1020 N   0  0  0  0  0  0  0  0  0  0  0  0
  140.9000   77.8760  218.7010 C   0  0  0  0  0  0  0  0  0  0  0  0
  141.6910   79.0260  218.1640 C   0  0  2  0  0  0  0  0  0  0  0  0
  142.8910   78.6590  217.5760 O   0  0  0  0  0  0  0  0  0  0  0  0
  141.9740   79.8600  219.3930 C   0  0  0  0  0  0  0  0  0  0  0  0
  141.8570   78.9720  220.5900 C   0  0  1  0  0  0  0  0  0  0  0  0
  141.1430   79.6030  221.7180 C   0  0  0  0  0  0  0  0  0  0  0  0
  141.8080   80.2560  222.7580 C   0  0  0  0  0  0  0  0  0  0  0  0
  141.0930   80.8380  223.8020 C   0  0  0  0  0  0  0  0  0  0  0  0
  139.7010   80.7620  223.8000 C   0  0  0  0  0  0  0  0  0  0  0  0
  139.0380   80.1120  222.7650 C   0  0  0  0  0  0  0  0  0  0  0  0
  139.7520   79.5280  221.7170 C   0  0  0  0  0  0  0  0  0  0  0  0
  140.0740   72.0140  222.0750 C   0  0  0  0  0  0  0  0  0  0  0  0
  139.4640   70.8000  221.8430 C   0  0  0  0  0  0  0  0  0  0  0  0
  139.2480   69.8810  222.8740 C   0  0  0  0  0  0  0  0  0  0  0  0
  139.6730   70.2370  224.1460 C   0  0  0  0  0  0  0  0  0  0  0  0
  139.5030   69.3960  225.2340 C   0  0  0  0  0  0  0  0  0  0  0  0
  139.9180   69.7330  226.5040 C   0  0  0  0  0  0  0  0  0  0  0  0
  140.5370   70.9650  226.7300 C   0  0  0  0  0  0  0  0  0  0  0  0
  141.0800   71.4330  228.3320 Cl  0  0  0  0  0  0  0  0  0  0  0  0
  140.7010   71.7980  225.6390 C   0  0  0  0  0  0  0  0  0  0  0  0
  140.2870   71.4640  224.3690 C   0  0  0  0  0  0  0  0  0  0  0  0
  140.4630   72.2990  223.3290 N   0  0  0  0  0  0  0  0  0  0  0  0
  141.0320   74.4600  222.2910 H   0  0  0  0  0  0  0  0  0  0  0  0
  142.0123   75.0191  219.7253 H   0  0  0  0  0  0  0  0  0  0  0  0
  140.2565   75.1629  219.4585 H   0  0  0  0  0  0  0  0  0  0  0  0
  141.1490   76.9518  218.1589 H   0  0  0  0  0  0  0  0  0  0  0  0
  139.8179   78.0352  218.5836 H   0  0  0  0  0  0  0  0  0  0  0  0
  141.1326   79.5397  217.3676 H   0  0  0  0  0  0  0  0  0  0  0  0
  143.3140   79.4340  217.1330 H   0  0  0  0  0  0  0  0  0  0  0  0
  142.9902   80.2771  219.3354 H   0  0  0  0  0  0  0  0  0  0  0  0
  141.2587   80.6927  219.4632 H   0  0  0  0  0  0  0  0  0  0  0  0
  142.8352   78.7628  221.0476 H   0  0  0  0  0  0  0  0  0  0  0  0
  142.9066   80.3112  222.7526 H   0  0  0  0  0  0  0  0  0  0  0  0
  141.6208   81.3519  224.6190 H   0  0  0  0  0  0  0  0  0  0  0  0
  139.1256   81.2175  224.6194 H   0  0  0  0  0  0  0  0  0  0  0  0
  137.9394   80.0573  222.7720 H   0  0  0  0  0  0  0  0  0  0  0  0
  139.2227   79.0150  220.9005 H   0  0  0  0  0  0  0  0  0  0  0  0
  139.1395   70.5484  220.8225 H   0  0  0  0  0  0  0  0  0  0  0  0
  138.7602   68.9135  222.6843 H   0  0  0  0  0  0  0  0  0  0  0  0
  139.0178   68.4212  225.0778 H   0  0  0  0  0  0  0  0  0  0  0  0
  139.7622   69.0333  227.3384 H   0  0  0  0  0  0  0  0  0  0  0  0
  141.1851   72.7737  225.7927 H   0  0  0  0  0  0  0  0  0  0  0  0
  1  2  2  0
  2  3  1  0
  3  4  1  0
  4  5  1  0
  5  6  2  0
  5  7  1  0
  7  8  1  0
  8  9  1  0
  9 10  1  0
  9 11  1  0
 11 12  1  0
 12 13  1  0
 13 14  2  0
 14 15  1  0
 15 16  2  0
 16 17  1  0
 17 18  2  0
  2 19  1  0
 19 20  2  0
 20 21  1  0
 21 22  2  0
 22 23  1  0
 23 24  2  0
 24 25  1  0
 25 26  1  0
 25 27  2  0
 27 28  1  0
 28 29  2  0
 12  7  1  0
 18 13  1  0
 29 19  1  0
 28 22  1  0
  3 30  1  0
  4 31  1  0
  4 32  1  0
  8 33  1  0
  8 34  1  0
  9 35  1  6
 10 36  1  0
 11 37  1  0
 11 38  1  0
 12 39  1  1
 14 40  1  0
 15 41  1  0
 16 42  1  0
 17 43  1  0
 18 44  1  0
 20 45  1  0
 21 46  1  0
 23 47  1  0
 24 48  1  0
 27 49  1  0
M  END
>  <meeko>  (19) 
{"free_energy": -7.61, "intermolecular_energy": -9.4, "internal_energy": -2.09, "cluster_size": 1, "cluster_id": 4, "rank_in_cluster": 1}

$$$$

     RDKit          3D

 49 52  0  0  0  0  0  0  0  0999 V2000
  138.1120   73.4680  221.7920 O   0  0  0  0  0  0  0  0  0  0  0  0
  139.1710   74.1190  221.9930 C   0  0  0  0  0  0  0  0  0  0  0  0
  140.4400   73.4680  221.9800 N   0  0  0  0  0  0  0  0  0  0  0  0
  140.5400   72.0340  221.7320 C   0  0  0  0  0  0  0  0  0  0  0  0
  140.2390   71.3410  223.0050 C   0  0  0  0  0  0  0  0  0  0  0  0
  141.1820   71.2880  223.8610 O   0  0  0  0  0  0  0  0  0  0  0  0
  138.9730   70.7540  223.2890 N   0  0  0  0  0  0  0  0  0  0  0  0
  138.0890   70.2810  222.2320 C   0  0  0  0  0  0  0  0  0  0  0  0
  136.7290   70.2110  222.8510 C   0  0  2  0  0  0  0  0  0  0  0  0
  135.9670   71.3540  222.6690 O   0  0  0  0  0  0  0  0  0  0  0  0
  137.0230   70.0390  224.3240 C   0  0  0  0  0  0  0  0  0  0  0  0
  138.4060   70.5480  224.5810 C   0  0  1  0  0  0  0  0  0  0  0  0
  139.1880   69.6810  225.4850 C   0  0  0  0  0  0  0  0  0  0  0  0
  139.1960   68.2890  225.3710 C   0  0  0  0  0  0  0  0  0  0  0  0
  139.9500   67.5100  226.2460 C   0  0  0  0  0  0  0  0  0  0  0  0
  140.7000   68.1350  227.2410 C   0  0  0  0  0  0  0  0  0  0  0  0
  140.6920   69.5210  227.3550 C   0  0  0  0  0  0  0  0  0  0  0  0
  139.9380   70.3040  226.4790 C   0  0  0  0  0  0  0  0  0  0  0  0
  139.1160   75.5560  222.2460 C   0  0  0  0  0  0  0  0  0  0  0  0
  137.9080   76.2200  222.2600 C   0  0  0  0  0  0  0  0  0  0  0  0
  137.8330   77.5950  222.5000 C   0  0  0  0  0  0  0  0  0  0  0  0
  139.0230   78.2700  222.7250 C   0  0  0  0  0  0  0  0  0  0  0  0
  139.0540   79.6340  222.9710 C   0  0  0  0  0  0  0  0  0  0  0  0
  140.2270   80.3210  223.1960 C   0  0  0  0  0  0  0  0  0  0  0  0
  141.4470   79.6400  223.1810 C   0  0  0  0  0  0  0  0  0  0  0  0
  142.9630   80.4780  223.4620 Cl  0  0  0  0  0  0  0  0  0  0  0  0
  141.4070   78.2800  222.9340 C   0  0  0  0  0  0  0  0  0  0  0  0
  140.2360   77.5920  222.7090 C   0  0  0  0  0  0  0  0  0  0  0  0
  140.2340   76.2670  222.4710 N   0  0  0  0  0  0  0  0  0  0  0  0
  141.2900   74.0680  222.1570 H   0  0  0  0  0  0  0  0  0  0  0  0
  139.8150   71.7346  220.9607 H   0  0  0  0  0  0  0  0  0  0  0  0
  141.5472   71.7713  221.3762 H   0  0  0  0  0  0  0  0  0  0  0  0
  138.0907   70.9840  221.3859 H   0  0  0  0  0  0  0  0  0  0  0  0
  138.4091   69.3051  221.8380 H   0  0  0  0  0  0  0  0  0  0  0  0
  136.1388   69.4032  222.3936 H   0  0  0  0  0  0  0  0  0  0  0  0
  136.5370   72.1120  222.3920 H   0  0  0  0  0  0  0  0  0  0  0  0
  136.2973   70.6127  224.9191 H   0  0  0  0  0  0  0  0  0  0  0  0
  136.9466   68.9791  224.6081 H   0  0  0  0  0  0  0  0  0  0  0  0
  138.4027   71.4934  225.1433 H   0  0  0  0  0  0  0  0  0  0  0  0
  138.6015   67.8033  224.5831 H   0  0  0  0  0  0  0  0  0  0  0  0
  139.9534   66.4140  226.1527 H   0  0  0  0  0  0  0  0  0  0  0  0
  141.2995   67.5306  227.9376 H   0  0  0  0  0  0  0  0  0  0  0  0
  141.2861   70.0055  228.1438 H   0  0  0  0  0  0  0  0  0  0  0  0
  139.9364   71.4000  226.5729 H   0  0  0  0  0  0  0  0  0  0  0  0
  136.9820   75.6549  222.0781 H   0  0  0  0  0  0  0  0  0  0  0  0
  136.8671   78.1212  222.5100 H   0  0  0  0  0  0  0  0  0  0  0  0
  138.1048   80.1897  222.9872 H   0  0  0  0  0  0  0  0  0  0  0  0
  140.2030   81.4040  223.3872 H   0  0  0  0  0  0  0  0  0  0  0  0
  142.3548   77.7220  222.9165 H   0  0  0  0  0  0  0  0  0  0  0  0
  1  2  2  0
  2  3  1  0
  3  4  1  0
  4  5  1  0
  5  6  2  0
  5  7  1  0
  7  8  1  0
  8  9  1  0
  9 10  1  0
  9 11  1  0
 11 12  1  0
 12 13  1  0
 13 14  2  0
 14 15  1  0
 15 16  2  0
 16 17  1  0
 17 18  2  0
  2 19  1  0
 19 20  2  0
 20 21  1  0
 21 22  2  0
 22 23  1  0
 23 24  2  0
 24 25  1  0
 25 26  1  0
 25 27  2  0
 27 28  1  0
 28 29  2  0
 12  7  1  0
 18 13  1  0
 29 19  1  0
 28 22  1  0
  3 30  1  0
  4 31  1  0
  4 32  1  0
  8 33  1  0
  8 34  1  0
  9 35  1  6
 10 36  1  0
 11 37  1  0
 11 38  1  0
 12 39  1  1
 14 40  1  0
 15 41  1  0
 16 42  1  0
 17 43  1  0
 18 44  1  0
 20 45  1  0
 21 46  1  0
 23 47  1  0
 24 48  1  0
 27 49  1  0
M  END
>  <meeko>  (20) 
{"free_energy": -7.47, "intermolecular_energy": -9.26, "internal_energy": -2.49, "cluster_size": 8, "cluster_id": 2, "rank_in_cluster": 7}

$$$$
