
     RDKit          3D

 57 60  0  0  0  0  0  0  0  0999 V2000
  138.7160   72.9260  221.3020 O   0  0  0  0  0  0  0  0  0  0  0  0
  139.7820   72.7820  221.9460 C   0  0  0  0  0  0  0  0  0  0  0  0
  140.8970   73.5700  221.5040 N   0  0  0  0  0  0  0  0  0  0  0  0
  140.6560   74.4370  220.3640 C   0  0  0  0  0  0  0  0  0  0  0  0
  141.0040   75.8070  220.7910 C   0  0  0  0  0  0  0  0  0  0  0  0
  142.1680   76.2190  220.4890 O   0  0  0  0  0  0  0  0  0  0  0  0
  140.0830   76.6520  221.5140 N   0  0  0  0  0  0  0  0  0  0  0  0
  139.3030   76.0280  222.5450 C   0  0  0  0  0  0  0  0  0  0  0  0
  137.9730   76.6580  222.7060 C   0  0  0  0  0  0  0  0  0  0  0  0
  137.5960   77.7020  221.7050 C   0  0  0  0  0  0  0  0  0  0  0  0
  138.6920   78.6900  221.4070 C   0  0  0  0  0  0  0  0  0  0  0  0
  140.0180   78.0460  221.1530 C   0  0  1  0  0  0  0  0  0  0  0  0
  141.1950   78.7420  221.7970 C   0  0  0  0  0  0  0  0  0  0  0  0
  141.0260   80.2140  221.5960 C   0  0  0  0  0  0  0  0  0  0  0  0
  142.1680   81.0260  222.1630 C   0  0  0  0  0  0  0  0  0  0  0  0
  143.0430   80.1350  223.0460 C   0  0  0  0  0  0  0  0  0  0  0  0
  142.0850   79.4620  224.0190 C   0  0  0  0  0  0  0  0  0  0  0  0
  141.4120   78.3380  223.2220 C   0  0  0  0  0  0  0  0  0  0  0  0
  139.8940   71.8730  223.0790 C   0  0  0  0  0  0  0  0  0  0  0  0
  139.4700   70.5830  222.9170 C   0  0  0  0  0  0  0  0  0  0  0  0
  139.5460   69.6690  223.9440 C   0  0  0  0  0  0  0  0  0  0  0  0
  140.0680   70.0760  225.1700 C   0  0  0  0  0  0  0  0  0  0  0  0
  140.1360   69.1430  226.1890 C   0  0  0  0  0  0  0  0  0  0  0  0
  140.6570   69.5650  227.3990 C   0  0  0  0  0  0  0  0  0  0  0  0
  140.7610   68.4050  228.7220 Cl  0  0  0  0  0  0  0  0  0  0  0  0
  141.0800   70.8610  227.5490 C   0  0  0  0  0  0  0  0  0  0  0  0
  141.0070   71.7860  226.5210 C   0  0  0  0  0  0  0  0  0  0  0  0
  140.4870   71.3630  225.3160 C   0  0  0  0  0  0  0  0  0  0  0  0
  140.3920   72.2310  224.2720 N   0  0  0  0  0  0  0  0  0  0  0  0
  141.8140   73.5000  221.9950 H   0  0  0  0  0  0  0  0  0  0  0  0
  141.2872   74.1325  219.5161 H   0  0  0  0  0  0  0  0  0  0  0  0
  139.6071   74.3789  220.0378 H   0  0  0  0  0  0  0  0  0  0  0  0
  139.1628   74.9674  222.2889 H   0  0  0  0  0  0  0  0  0  0  0  0
  139.8466   76.1451  223.4941 H   0  0  0  0  0  0  0  0  0  0  0  0
  137.2182   75.8595  222.6544 H   0  0  0  0  0  0  0  0  0  0  0  0
  138.0198   77.1867  223.6695 H   0  0  0  0  0  0  0  0  0  0  0  0
  137.3204   77.1980  220.7669 H   0  0  0  0  0  0  0  0  0  0  0  0
  136.7627   78.2733  222.1401 H   0  0  0  0  0  0  0  0  0  0  0  0
  138.4080   79.2675  220.5149 H   0  0  0  0  0  0  0  0  0  0  0  0
  138.8053   79.3280  222.2959 H   0  0  0  0  0  0  0  0  0  0  0  0
  140.0989   78.1442  220.0604 H   0  0  0  0  0  0  0  0  0  0  0  0
  142.1279   78.4246  221.3081 H   0  0  0  0  0  0  0  0  0  0  0  0
  140.9566   80.4140  220.5166 H   0  0  0  0  0  0  0  0  0  0  0  0
  140.1130   80.5149  222.1308 H   0  0  0  0  0  0  0  0  0  0  0  0
  142.7731   81.4317  221.3389 H   0  0  0  0  0  0  0  0  0  0  0  0
  141.7641   81.8530  222.7654 H   0  0  0  0  0  0  0  0  0  0  0  0
  143.5638   79.3820  222.4363 H   0  0  0  0  0  0  0  0  0  0  0  0
  143.8177   80.7140  223.5701 H   0  0  0  0  0  0  0  0  0  0  0  0
  142.6360   79.0483  224.8764 H   0  0  0  0  0  0  0  0  0  0  0  0
  141.3487   80.1724  224.4231 H   0  0  0  0  0  0  0  0  0  0  0  0
  142.0539   77.4451  223.2483 H   0  0  0  0  0  0  0  0  0  0  0  0
  140.4336   78.1249  223.6772 H   0  0  0  0  0  0  0  0  0  0  0  0
  139.0596   70.2690  221.9459 H   0  0  0  0  0  0  0  0  0  0  0  0
  139.2004   68.6348  223.7989 H   0  0  0  0  0  0  0  0  0  0  0  0
  139.7903   68.1089  226.0433 H   0  0  0  0  0  0  0  0  0  0  0  0
  141.4914   71.1765  228.5192 H   0  0  0  0  0  0  0  0  0  0  0  0
  141.3516   72.8213  226.6607 H   0  0  0  0  0  0  0  0  0  0  0  0
  1  2  2  0
  2  3  1  0
  3  4  1  0
  4  5  1  0
  5  6  2  0
  5  7  1  0
  7  8  1  0
  8  9  1  0
  9 10  1  0
 10 11  1  0
 11 12  1  0
 12 13  1  0
 13 14  1  0
 14 15  1  0
 15 16  1  0
 16 17  1  0
 17 18  1  0
  2 19  1  0
 19 20  2  0
 20 21  1  0
 21 22  2  0
 22 23  1  0
 23 24  2  0
 24 25  1  0
 24 26  1  0
 26 27  2  0
 27 28  1  0
 28 29  2  0
 12  7  1  0
 18 13  1  0
 29 19  1  0
 28 22  1  0
  3 30  1  0
  4 31  1  0
  4 32  1  0
  8 33  1  0
  8 34  1  0
  9 35  1  0
  9 36  1  0
 10 37  1  0
 10 38  1  0
 11 39  1  0
 11 40  1  0
 12 41  1  6
 13 42  1  0
 14 43  1  0
 14 44  1  0
 15 45  1  0
 15 46  1  0
 16 47  1  0
 16 48  1  0
 17 49  1  0
 17 50  1  0
 18 51  1  0
 18 52  1  0
 20 53  1  0
 21 54  1  0
 23 55  1  0
 26 56  1  0
 27 57  1  0
M  END
>  <meeko>  (1) 
{"free_energy": -8.33, "intermolecular_energy": -9.82, "internal_energy": -1.66, "cluster_size": 15, "cluster_id": 1, "rank_in_cluster": 12}

$$$$

     RDKit          3D

 57 60  0  0  0  0  0  0  0  0999 V2000
  140.0400   72.3740  220.8270 O   0  0  0  0  0  0  0  0  0  0  0  0
  139.8840   72.7320  222.0180 C   0  0  0  0  0  0  0  0  0  0  0  0
  139.6130   74.1250  222.2280 N   0  0  0  0  0  0  0  0  0  0  0  0
  139.5520   74.9520  221.0360 C   0  0  0  0  0  0  0  0  0  0  0  0
  140.0580   76.2850  221.4160 C   0  0  0  0  0  0  0  0  0  0  0  0
  140.2070   76.5030  222.6600 O   0  0  0  0  0  0  0  0  0  0  0  0
  140.3760   77.3020  220.4430 N   0  0  0  0  0  0  0  0  0  0  0  0
  139.4480   77.4770  219.3620 C   0  0  0  0  0  0  0  0  0  0  0  0
  140.1120   77.9160  218.1130 C   0  0  0  0  0  0  0  0  0  0  0  0
  141.6060   77.9530  218.1210 C   0  0  0  0  0  0  0  0  0  0  0  0
  142.1970   78.5720  219.3590 C   0  0  0  0  0  0  0  0  0  0  0  0
  141.5890   78.0590  220.6260 C   0  0  1  0  0  0  0  0  0  0  0  0
  141.3150   79.1160  221.6710 C   0  0  0  0  0  0  0  0  0  0  0  0
  142.3910   79.0320  222.7070 C   0  0  0  0  0  0  0  0  0  0  0  0
  142.2070   80.0170  223.8370 C   0  0  0  0  0  0  0  0  0  0  0  0
  141.1270   81.0330  223.4620 C   0  0  0  0  0  0  0  0  0  0  0  0
  141.5310   81.5710  222.0970 C   0  0  0  0  0  0  0  0  0  0  0  0
  141.1270   80.4840  221.0920 C   0  0  0  0  0  0  0  0  0  0  0  0
  139.9700   71.7960  223.1320 C   0  0  0  0  0  0  0  0  0  0  0  0
  139.5220   70.5180  222.9400 C   0  0  0  0  0  0  0  0  0  0  0  0
  139.5730   69.5820  223.9460 C   0  0  0  0  0  0  0  0  0  0  0  0
  140.0940   69.9510  225.1850 C   0  0  0  0  0  0  0  0  0  0  0  0
  140.1370   68.9960  226.1840 C   0  0  0  0  0  0  0  0  0  0  0  0
  140.6560   69.3820  227.4060 C   0  0  0  0  0  0  0  0  0  0  0  0
  140.7270   68.1920  228.7050 Cl  0  0  0  0  0  0  0  0  0  0  0  0
  141.1020   70.6660  227.5880 C   0  0  0  0  0  0  0  0  0  0  0  0
  141.0550   71.6140  226.5800 C   0  0  0  0  0  0  0  0  0  0  0  0
  140.5360   71.2270  225.3610 C   0  0  0  0  0  0  0  0  0  0  0  0
  140.4660   72.1190  224.3360 N   0  0  0  0  0  0  0  0  0  0  0  0
  139.4720   74.4900  223.1950 H   0  0  0  0  0  0  0  0  0  0  0  0
  140.1803   74.5203  220.2430 H   0  0  0  0  0  0  0  0  0  0  0  0
  138.5234   75.0150  220.6514 H   0  0  0  0  0  0  0  0  0  0  0  0
  138.9399   76.5196  219.1742 H   0  0  0  0  0  0  0  0  0  0  0  0
  138.7348   78.2611  219.6560 H   0  0  0  0  0  0  0  0  0  0  0  0
  139.8004   77.2299  217.3116 H   0  0  0  0  0  0  0  0  0  0  0  0
  139.7990   78.9612  217.9728 H   0  0  0  0  0  0  0  0  0  0  0  0
  141.9779   76.9210  218.0391 H   0  0  0  0  0  0  0  0  0  0  0  0
  141.9130   78.5828  217.2730 H   0  0  0  0  0  0  0  0  0  0  0  0
  143.2753   78.3555  219.3767 H   0  0  0  0  0  0  0  0  0  0  0  0
  141.9913   79.6516  219.3131 H   0  0  0  0  0  0  0  0  0  0  0  0
  142.3841   77.3919  220.9904 H   0  0  0  0  0  0  0  0  0  0  0  0
  140.3462   78.9183  222.1531 H   0  0  0  0  0  0  0  0  0  0  0  0
  142.3938   78.0151  223.1265 H   0  0  0  0  0  0  0  0  0  0  0  0
  143.3419   79.2770  222.2113 H   0  0  0  0  0  0  0  0  0  0  0  0
  141.9026   79.4781  224.7463 H   0  0  0  0  0  0  0  0  0  0  0  0
  143.1553   80.5433  224.0206 H   0  0  0  0  0  0  0  0  0  0  0  0
  140.1427   80.5450  223.4069 H   0  0  0  0  0  0  0  0  0  0  0  0
  141.0452   81.8361  224.2092 H   0  0  0  0  0  0  0  0  0  0  0  0
  141.0004   82.5102  221.8815 H   0  0  0  0  0  0  0  0  0  0  0  0
  142.6074   81.7925  222.0479 H   0  0  0  0  0  0  0  0  0  0  0  0
  140.0686   80.6182  220.8242 H   0  0  0  0  0  0  0  0  0  0  0  0
  141.7665   80.5769  220.2018 H   0  0  0  0  0  0  0  0  0  0  0  0
  139.1121   70.2329  221.9598 H   0  0  0  0  0  0  0  0  0  0  0  0
  139.2084   68.5583  223.7757 H   0  0  0  0  0  0  0  0  0  0  0  0
  139.7734   67.9719  226.0137 H   0  0  0  0  0  0  0  0  0  0  0  0
  141.5110   70.9525  228.5681 H   0  0  0  0  0  0  0  0  0  0  0  0
  141.4183   72.6391  226.7448 H   0  0  0  0  0  0  0  0  0  0  0  0
  1  2  2  0
  2  3  1  0
  3  4  1  0
  4  5  1  0
  5  6  2  0
  5  7  1  0
  7  8  1  0
  8  9  1  0
  9 10  1  0
 10 11  1  0
 11 12  1  0
 12 13  1  0
 13 14  1  0
 14 15  1  0
 15 16  1  0
 16 17  1  0
 17 18  1  0
  2 19  1  0
 19 20  2  0
 20 21  1  0
 21 22  2  0
 22 23  1  0
 23 24  2  0
 24 25  1  0
 24 26  1  0
 26 27  2  0
 27 28  1  0
 28 29  2  0
 12  7  1  0
 18 13  1  0
 29 19  1  0
 28 22  1  0
  3 30  1  0
  4 31  1  0
  4 32  1  0
  8 33  1  0
  8 34  1  0
  9 35  1  0
  9 36  1  0
 10 37  1  0
 10 38  1  0
 11 39  1  0
 11 40  1  0
 12 41  1  1
 13 42  1  0
 14 43  1  0
 14 44  1  0
 15 45  1  0
 15 46  1  0
 16 47  1  0
 16 48  1  0
 17 49  1  0
 17 50  1  0
 18 51  1  0
 18 52  1  0
 20 53  1  0
 21 54  1  0
 23 55  1  0
 26 56  1  0
 27 57  1  0
M  END
>  <meeko>  (2) 
{"free_energy": -8.71, "intermolecular_energy": -10.2, "internal_energy": -2.02, "cluster_size": 15, "cluster_id": 1, "rank_in_cluster": 3}

$$$$

     RDKit          3D

 57 60  0  0  0  0  0  0  0  0999 V2000
  140.5330   72.5540  220.9760 O   0  0  0  0  0  0  0  0  0  0  0  0
  139.9740   72.7670  222.0770 C   0  0  0  0  0  0  0  0  0  0  0  0
  139.2610   74.0070  222.1940 N   0  0  0  0  0  0  0  0  0  0  0  0
  139.2730   74.8650  221.0230 C   0  0  0  0  0  0  0  0  0  0  0  0
  139.1840   76.2540  221.5130 C   0  0  0  0  0  0  0  0  0  0  0  0
  138.7650   76.4120  222.7030 O   0  0  0  0  0  0  0  0  0  0  0  0
  139.5500   77.3900  220.7000 N   0  0  0  0  0  0  0  0  0  0  0  0
  138.4840   78.0710  220.0210 C   0  0  0  0  0  0  0  0  0  0  0  0
  138.9200   78.6580  218.7340 C   0  0  0  0  0  0  0  0  0  0  0  0
  140.3040   78.3300  218.2770 C   0  0  0  0  0  0  0  0  0  0  0  0
  141.3460   78.4280  219.3590 C   0  0  0  0  0  0  0  0  0  0  0  0
  140.9430   77.7530  220.6320 C   0  0  1  0  0  0  0  0  0  0  0  0
  141.2780   78.5200  221.8900 C   0  0  0  0  0  0  0  0  0  0  0  0
  142.2040   79.6350  221.5180 C   0  0  0  0  0  0  0  0  0  0  0  0
  142.6490   80.4580  222.7040 C   0  0  0  0  0  0  0  0  0  0  0  0
  141.7980   80.1050  223.9240 C   0  0  0  0  0  0  0  0  0  0  0  0
  140.3530   80.2310  223.4620 C   0  0  0  0  0  0  0  0  0  0  0  0
  140.0680   78.9580  222.6550 C   0  0  0  0  0  0  0  0  0  0  0  0
  140.0360   71.8170  223.1810 C   0  0  0  0  0  0  0  0  0  0  0  0
  139.5840   70.5450  222.9660 C   0  0  0  0  0  0  0  0  0  0  0  0
  139.6130   69.5960  223.9620 C   0  0  0  0  0  0  0  0  0  0  0  0
  140.1170   69.9470  225.2130 C   0  0  0  0  0  0  0  0  0  0  0  0
  140.1380   68.9790  226.2000 C   0  0  0  0  0  0  0  0  0  0  0  0
  140.6410   69.3460  227.4350 C   0  0  0  0  0  0  0  0  0  0  0  0
  140.6850   68.1400  228.7200 Cl  0  0  0  0  0  0  0  0  0  0  0  0
  141.0920   70.6250  227.6390 C   0  0  0  0  0  0  0  0  0  0  0  0
  141.0660   71.5860  226.6430 C   0  0  0  0  0  0  0  0  0  0  0  0
  140.5640   71.2170  225.4110 C   0  0  0  0  0  0  0  0  0  0  0  0
  140.5150   72.1220  224.3960 N   0  0  0  0  0  0  0  0  0  0  0  0
  138.7720   74.2460  223.0840 H   0  0  0  0  0  0  0  0  0  0  0  0
  140.2057   74.7216  220.4577 H   0  0  0  0  0  0  0  0  0  0  0  0
  138.4348   74.6284  220.3510 H   0  0  0  0  0  0  0  0  0  0  0  0
  137.6738   77.3531  219.8256 H   0  0  0  0  0  0  0  0  0  0  0  0
  138.1454   78.8938  220.6678 H   0  0  0  0  0  0  0  0  0  0  0  0
  138.2225   78.3115  217.9572 H   0  0  0  0  0  0  0  0  0  0  0  0
  138.9226   79.7453  218.9005 H   0  0  0  0  0  0  0  0  0  0  0  0
  140.3050   77.3010  217.8881 H   0  0  0  0  0  0  0  0  0  0  0  0
  140.5703   79.0730  217.5108 H   0  0  0  0  0  0  0  0  0  0  0  0
  142.2728   77.9609  218.9944 H   0  0  0  0  0  0  0  0  0  0  0  0
  141.4811   79.4960  219.5853 H   0  0  0  0  0  0  0  0  0  0  0  0
  141.5566   76.8408  220.5947 H   0  0  0  0  0  0  0  0  0  0  0  0
  141.7917   77.8577  222.6024 H   0  0  0  0  0  0  0  0  0  0  0  0
  143.0946   79.2044  221.0370 H   0  0  0  0  0  0  0  0  0  0  0  0
  141.6537   80.3059  220.8419 H   0  0  0  0  0  0  0  0  0  0  0  0
  143.7060   80.2446  222.9213 H   0  0  0  0  0  0  0  0  0  0  0  0
  142.5281   81.5265  222.4721 H   0  0  0  0  0  0  0  0  0  0  0  0
  142.0077   79.0770  224.2546 H   0  0  0  0  0  0  0  0  0  0  0  0
  142.0130   80.7659  224.7766 H   0  0  0  0  0  0  0  0  0  0  0  0
  139.6771   80.2969  224.3274 H   0  0  0  0  0  0  0  0  0  0  0  0
  140.1944   81.1388  222.8615 H   0  0  0  0  0  0  0  0  0  0  0  0
  139.7696   78.1550  223.3450 H   0  0  0  0  0  0  0  0  0  0  0  0
  139.2617   79.1730  221.9383 H   0  0  0  0  0  0  0  0  0  0  0  0
  139.1887   70.2743  221.9758 H   0  0  0  0  0  0  0  0  0  0  0  0
  139.2444   68.5768  223.7738 H   0  0  0  0  0  0  0  0  0  0  0  0
  139.7701   67.9597  226.0110 H   0  0  0  0  0  0  0  0  0  0  0  0
  141.4882   70.8967  228.6286 H   0  0  0  0  0  0  0  0  0  0  0  0
  141.4321   72.6069  226.8266 H   0  0  0  0  0  0  0  0  0  0  0  0
  1  2  2  0
  2  3  1  0
  3  4  1  0
  4  5  1  0
  5  6  2  0
  5  7  1  0
  7  8  1  0
  8  9  1  0
  9 10  1  0
 10 11  1  0
 11 12  1  0
 12 13  1  0
 13 14  1  0
 14 15  1  0
 15 16  1  0
 16 17  1  0
 17 18  1  0
  2 19  1  0
 19 20  2  0
 20 21  1  0
 21 22  2  0
 22 23  1  0
 23 24  2  0
 24 25  1  0
 24 26  1  0
 26 27  2  0
 27 28  1  0
 28 29  2  0
 12  7  1  0
 18 13  1  0
 29 19  1  0
 28 22  1  0
  3 30  1  0
  4 31  1  0
  4 32  1  0
  8 33  1  0
  8 34  1  0
  9 35  1  0
  9 36  1  0
 10 37  1  0
 10 38  1  0
 11 39  1  0
 11 40  1  0
 12 41  1  1
 13 42  1  0
 14 43  1  0
 14 44  1  0
 15 45  1  0
 15 46  1  0
 16 47  1  0
 16 48  1  0
 17 49  1  0
 17 50  1  0
 18 51  1  0
 18 52  1  0
 20 53  1  0
 21 54  1  0
 23 55  1  0
 26 56  1  0
 27 57  1  0
M  END
>  <meeko>  (3) 
{"free_energy": -8.46, "intermolecular_energy": -9.95, "internal_energy": -1.87, "cluster_size": 15, "cluster_id": 1, "rank_in_cluster": 10}

$$$$

     RDKit          3D

 57 60  0  0  0  0  0  0  0  0999 V2000
  139.5700   72.3970  220.8640 O   0  0  0  0  0  0  0  0  0  0  0  0
  139.5660   72.7460  222.0680 C   0  0  0  0  0  0  0  0  0  0  0  0
  139.3540   74.1420  222.3200 N   0  0  0  0  0  0  0  0  0  0  0  0
  139.1710   74.9830  221.1500 C   0  0  0  0  0  0  0  0  0  0  0  0
  139.6600   76.3280  221.5120 C   0  0  0  0  0  0  0  0  0  0  0  0
  139.6110   76.6380  222.7440 O   0  0  0  0  0  0  0  0  0  0  0  0
  140.1710   77.2580  220.5340 N   0  0  0  0  0  0  0  0  0  0  0  0
  139.3390   77.5240  219.3940 C   0  0  0  0  0  0  0  0  0  0  0  0
  140.1270   77.8240  218.1780 C   0  0  0  0  0  0  0  0  0  0  0  0
  141.6090   77.6550  218.2750 C   0  0  0  0  0  0  0  0  0  0  0  0
  142.2090   78.2280  219.5310 C   0  0  0  0  0  0  0  0  0  0  0  0
  141.4650   77.8470  220.7710 C   0  0  1  0  0  0  0  0  0  0  0  0
  141.2820   78.9670  221.7700 C   0  0  0  0  0  0  0  0  0  0  0  0
  142.5060   79.0230  222.6290 C   0  0  0  0  0  0  0  0  0  0  0  0
  142.4300   80.0830  223.7030 C   0  0  0  0  0  0  0  0  0  0  0  0
  141.2410   81.0050  223.4320 C   0  0  0  0  0  0  0  0  0  0  0  0
  141.3970   81.4550  221.9860 C   0  0  0  0  0  0  0  0  0  0  0  0
  140.9190   80.2720  221.1340 C   0  0  0  0  0  0  0  0  0  0  0  0
  139.7620   71.7970  223.1570 C   0  0  0  0  0  0  0  0  0  0  0  0
  139.4120   70.4910  222.9460 C   0  0  0  0  0  0  0  0  0  0  0  0
  139.5700   69.5400  223.9290 C   0  0  0  0  0  0  0  0  0  0  0  0
  140.0980   69.9240  225.1600 C   0  0  0  0  0  0  0  0  0  0  0  0
  140.2490   68.9540  226.1340 C   0  0  0  0  0  0  0  0  0  0  0  0
  140.7740   69.3550  227.3490 C   0  0  0  0  0  0  0  0  0  0  0  0
  140.9820   68.1470  228.6160 Cl  0  0  0  0  0  0  0  0  0  0  0  0
  141.1210   70.6660  227.5480 C   0  0  0  0  0  0  0  0  0  0  0  0
  140.9660   71.6290  226.5650 C   0  0  0  0  0  0  0  0  0  0  0  0
  140.4420   71.2270  225.3530 C   0  0  0  0  0  0  0  0  0  0  0  0
  140.2680   72.1330  224.3520 N   0  0  0  0  0  0  0  0  0  0  0  0
  139.3380   74.5000  223.2990 H   0  0  0  0  0  0  0  0  0  0  0  0
  139.7492   74.5849  220.3031 H   0  0  0  0  0  0  0  0  0  0  0  0
  138.1138   75.0150  220.8479 H   0  0  0  0  0  0  0  0  0  0  0  0
  138.7127   76.6408  219.2000 H   0  0  0  0  0  0  0  0  0  0  0  0
  138.7277   78.4091  219.6242 H   0  0  0  0  0  0  0  0  0  0  0  0
  139.7684   77.1605  217.3773 H   0  0  0  0  0  0  0  0  0  0  0  0
  139.9718   78.8971  217.9926 H   0  0  0  0  0  0  0  0  0  0  0  0
  141.8375   76.5795  218.2418 H   0  0  0  0  0  0  0  0  0  0  0  0
  142.0485   78.2073  217.4313 H   0  0  0  0  0  0  0  0  0  0  0  0
  143.2439   77.8658  219.6199 H   0  0  0  0  0  0  0  0  0  0  0  0
  142.1583   79.3235  219.4451 H   0  0  0  0  0  0  0  0  0  0  0  0
  142.1375   77.0898  221.2004 H   0  0  0  0  0  0  0  0  0  0  0  0
  140.4120   78.7562  222.4093 H   0  0  0  0  0  0  0  0  0  0  0  0
  142.6391   78.0440  223.1125 H   0  0  0  0  0  0  0  0  0  0  0  0
  143.3531   79.2791  221.9756 H   0  0  0  0  0  0  0  0  0  0  0  0
  142.3035   79.6016  224.6839 H   0  0  0  0  0  0  0  0  0  0  0  0
  143.3580   80.6736  223.6990 H   0  0  0  0  0  0  0  0  0  0  0  0
  140.2943   80.4609  223.5654 H   0  0  0  0  0  0  0  0  0  0  0  0
  141.2201   81.8588  224.1253 H   0  0  0  0  0  0  0  0  0  0  0  0
  140.7786   82.3436  221.7912 H   0  0  0  0  0  0  0  0  0  0  0  0
  142.4365   81.7306  221.7545 H   0  0  0  0  0  0  0  0  0  0  0  0
  139.8258   80.3265  221.0251 H   0  0  0  0  0  0  0  0  0  0  0  0
  141.4094   80.3294  220.1510 H   0  0  0  0  0  0  0  0  0  0  0  0
  138.9961   70.1951  221.9716 H   0  0  0  0  0  0  0  0  0  0  0  0
  139.2840   68.4938  223.7455 H   0  0  0  0  0  0  0  0  0  0  0  0
  139.9636   67.9077  225.9501 H   0  0  0  0  0  0  0  0  0  0  0  0
  141.5369   70.9634  228.5220 H   0  0  0  0  0  0  0  0  0  0  0  0
  141.2502   72.6765  226.7436 H   0  0  0  0  0  0  0  0  0  0  0  0
  1  2  2  0
  2  3  1  0
  3  4  1  0
  4  5  1  0
  5  6  2  0
  5  7  1  0
  7  8  1  0
  8  9  1  0
  9 10  1  0
 10 11  1  0
 11 12  1  0
 12 13  1  0
 13 14  1  0
 14 15  1  0
 15 16  1  0
 16 17  1  0
 17 18  1  0
  2 19  1  0
 19 20  2  0
 20 21  1  0
 21 22  2  0
 22 23  1  0
 23 24  2  0
 24 25  1  0
 24 26  1  0
 26 27  2  0
 27 28  1  0
 28 29  2  0
 12  7  1  0
 18 13  1  0
 29 19  1  0
 28 22  1  0
  3 30  1  0
  4 31  1  0
  4 32  1  0
  8 33  1  0
  8 34  1  0
  9 35  1  0
  9 36  1  0
 10 37  1  0
 10 38  1  0
 11 39  1  0
 11 40  1  0
 12 41  1  1
 13 42  1  0
 14 43  1  0
 14 44  1  0
 15 45  1  0
 15 46  1  0
 16 47  1  0
 16 48  1  0
 17 49  1  0
 17 50  1  0
 18 51  1  0
 18 52  1  0
 20 53  1  0
 21 54  1  0
 23 55  1  0
 26 56  1  0
 27 57  1  0
M  END
>  <meeko>  (4) 
{"free_energy": -8.45, "intermolecular_energy": -9.95, "internal_energy": -2.04, "cluster_size": 15, "cluster_id": 1, "rank_in_cluster": 11}

$$$$

     RDKit          3D

 57 60  0  0  0  0  0  0  0  0999 V2000
  139.9110   72.5140  220.8060 O   0  0  0  0  0  0  0  0  0  0  0  0
  139.8270   72.8740  222.0040 C   0  0  0  0  0  0  0  0  0  0  0  0
  139.6130   74.2740  222.2300 N   0  0  0  0  0  0  0  0  0  0  0  0
  139.5190   75.1070  221.0450 C   0  0  0  0  0  0  0  0  0  0  0  0
  139.0090   76.4190  221.4860 C   0  0  0  0  0  0  0  0  0  0  0  0
  138.4750   76.4640  222.6380 O   0  0  0  0  0  0  0  0  0  0  0  0
  139.1020   77.6040  220.6660 N   0  0  0  0  0  0  0  0  0  0  0  0
  137.8720   78.1370  220.1530 C   0  0  0  0  0  0  0  0  0  0  0  0
  138.0460   78.7940  218.8390 C   0  0  0  0  0  0  0  0  0  0  0  0
  139.3890   78.6690  218.1940 C   0  0  0  0  0  0  0  0  0  0  0  0
  140.5430   78.9000  219.1340 C   0  0  0  0  0  0  0  0  0  0  0  0
  140.4110   78.1600  220.4270 C   0  0  1  0  0  0  0  0  0  0  0  0
  140.8030   78.9520  221.6530 C   0  0  0  0  0  0  0  0  0  0  0  0
  141.4220   78.0080  222.6340 C   0  0  0  0  0  0  0  0  0  0  0  0
  141.8230   78.6750  223.9290 C   0  0  0  0  0  0  0  0  0  0  0  0
  141.7530   80.1940  223.7680 C   0  0  0  0  0  0  0  0  0  0  0  0
  142.5590   80.5080  222.5170 C   0  0  0  0  0  0  0  0  0  0  0  0
  141.6460   80.1490  221.3380 C   0  0  0  0  0  0  0  0  0  0  0  0
  139.9390   71.9310  223.1110 C   0  0  0  0  0  0  0  0  0  0  0  0
  139.5440   70.6390  222.9020 C   0  0  0  0  0  0  0  0  0  0  0  0
  139.6220   69.6960  223.9010 C   0  0  0  0  0  0  0  0  0  0  0  0
  140.1140   70.0740  225.1490 C   0  0  0  0  0  0  0  0  0  0  0  0
  140.1840   69.1110  226.1390 C   0  0  0  0  0  0  0  0  0  0  0  0
  140.6760   69.5060  227.3700 C   0  0  0  0  0  0  0  0  0  0  0  0
  140.7800   68.3080  228.6590 Cl  0  0  0  0  0  0  0  0  0  0  0  0
  141.0680   70.8050  227.5680 C   0  0  0  0  0  0  0  0  0  0  0  0
  140.9940   71.7600  226.5680 C   0  0  0  0  0  0  0  0  0  0  0  0
  140.5030   71.3640  225.3410 C   0  0  0  0  0  0  0  0  0  0  0  0
  140.4090   72.2620  224.3230 N   0  0  0  0  0  0  0  0  0  0  0  0
  139.5330   74.6400  223.2040 H   0  0  0  0  0  0  0  0  0  0  0  0
  140.5107   75.2219  220.5832 H   0  0  0  0  0  0  0  0  0  0  0  0
  138.8513   74.6551  220.2967 H   0  0  0  0  0  0  0  0  0  0  0  0
  137.1492   77.3150  220.0439 H   0  0  0  0  0  0  0  0  0  0  0  0
  137.5142   78.8972  220.8630 H   0  0  0  0  0  0  0  0  0  0  0  0
  137.3049   78.3619  218.1505 H   0  0  0  0  0  0  0  0  0  0  0  0
  137.9211   79.8689  219.0365 H   0  0  0  0  0  0  0  0  0  0  0  0
  139.4797   77.6550  217.7773 H   0  0  0  0  0  0  0  0  0  0  0  0
  139.4456   79.4504  217.4219 H   0  0  0  0  0  0  0  0  0  0  0  0
  141.4684   78.5728  218.6375 H   0  0  0  0  0  0  0  0  0  0  0  0
  140.5579   79.9735  219.3734 H   0  0  0  0  0  0  0  0  0  0  0  0
  141.1333   77.3432  220.2820 H   0  0  0  0  0  0  0  0  0  0  0  0
  139.9066   79.3968  222.1098 H   0  0  0  0  0  0  0  0  0  0  0  0
  140.6962   77.2130  222.8602 H   0  0  0  0  0  0  0  0  0  0  0  0
  142.3384   77.6112  222.1728 H   0  0  0  0  0  0  0  0  0  0  0  0
  141.1382   78.3600  224.7302 H   0  0  0  0  0  0  0  0  0  0  0  0
  142.8515   78.3824  224.1869 H   0  0  0  0  0  0  0  0  0  0  0  0
  140.7096   80.5198  223.6448 H   0  0  0  0  0  0  0  0  0  0  0  0
  142.1500   80.7165  224.6509 H   0  0  0  0  0  0  0  0  0  0  0  0
  142.8223   81.5756  222.4877 H   0  0  0  0  0  0  0  0  0  0  0  0
  143.5026   79.9434  222.4881 H   0  0  0  0  0  0  0  0  0  0  0  0
  140.9888   81.0036  221.1195 H   0  0  0  0  0  0  0  0  0  0  0  0
  142.2761   79.9130  220.4678 H   0  0  0  0  0  0  0  0  0  0  0  0
  139.1559   70.3473  221.9149 H   0  0  0  0  0  0  0  0  0  0  0  0
  139.3010   68.6600  223.7175 H   0  0  0  0  0  0  0  0  0  0  0  0
  139.8622   68.0753  225.9554 H   0  0  0  0  0  0  0  0  0  0  0  0
  141.4545   71.0985  228.5551 H   0  0  0  0  0  0  0  0  0  0  0  0
  141.3151   72.7970  226.7455 H   0  0  0  0  0  0  0  0  0  0  0  0
  1  2  2  0
  2  3  1  0
  3  4  1  0
  4  5  1  0
  5  6  2  0
  5  7  1  0
  7  8  1  0
  8  9  1  0
  9 10  1  0
 10 11  1  0
 11 12  1  0
 12 13  1  0
 13 14  1  0
 14 15  1  0
 15 16  1  0
 16 17  1  0
 17 18  1  0
  2 19  1  0
 19 20  2  0
 20 21  1  0
 21 22  2  0
 22 23  1  0
 23 24  2  0
 24 25  1  0
 24 26  1  0
 26 27  2  0
 27 28  1  0
 28 29  2  0
 12  7  1  0
 18 13  1  0
 29 19  1  0
 28 22  1  0
  3 30  1  0
  4 31  1  0
  4 32  1  0
  8 33  1  0
  8 34  1  0
  9 35  1  0
  9 36  1  0
 10 37  1  0
 10 38  1  0
 11 39  1  0
 11 40  1  0
 12 41  1  6
 13 42  1  0
 14 43  1  0
 14 44  1  0
 15 45  1  0
 15 46  1  0
 16 47  1  0
 16 48  1  0
 17 49  1  0
 17 50  1  0
 18 51  1  0
 18 52  1  0
 20 53  1  0
 21 54  1  0
 23 55  1  0
 26 56  1  0
 27 57  1  0
M  END
>  <meeko>  (5) 
{"free_energy": -8.17, "intermolecular_energy": -9.66, "internal_energy": -2.05, "cluster_size": 15, "cluster_id": 1, "rank_in_cluster": 13}

$$$$

     RDKit          3D

 57 60  0  0  0  0  0  0  0  0999 V2000
  139.8810   72.1960  220.7600 O   0  0  0  0  0  0  0  0  0  0  0  0
  139.7760   72.5840  221.9470 C   0  0  0  0  0  0  0  0  0  0  0  0
  139.5360   73.9860  222.1340 N   0  0  0  0  0  0  0  0  0  0  0  0
  139.4440   74.7860  220.9260 C   0  0  0  0  0  0  0  0  0  0  0  0
  139.6790   76.1880  221.3240 C   0  0  0  0  0  0  0  0  0  0  0  0
  139.4310   76.4840  222.5360 O   0  0  0  0  0  0  0  0  0  0  0  0
  140.1660   77.1860  220.4030 N   0  0  0  0  0  0  0  0  0  0  0  0
  139.3320   77.4890  219.2740 C   0  0  0  0  0  0  0  0  0  0  0  0
  140.1160   77.8810  218.0810 C   0  0  0  0  0  0  0  0  0  0  0  0
  141.6020   77.7530  218.1790 C   0  0  0  0  0  0  0  0  0  0  0  0
  142.1780   78.2740  219.4690 C   0  0  0  0  0  0  0  0  0  0  0  0
  141.4390   77.8010  220.6810 C   0  0  1  0  0  0  0  0  0  0  0  0
  141.2170   78.8570  221.7390 C   0  0  0  0  0  0  0  0  0  0  0  0
  141.6720   78.3000  223.0510 C   0  0  0  0  0  0  0  0  0  0  0  0
  141.4630   79.2510  224.2060 C   0  0  0  0  0  0  0  0  0  0  0  0
  141.1110   80.6390  223.6710 C   0  0  0  0  0  0  0  0  0  0  0  0
  142.1930   80.9690  222.6540 C   0  0  0  0  0  0  0  0  0  0  0  0
  141.8260   80.1800  221.3910 C   0  0  0  0  0  0  0  0  0  0  0  0
  139.8880   71.6730  223.0800 C   0  0  0  0  0  0  0  0  0  0  0  0
  139.4640   70.3830  222.9150 C   0  0  0  0  0  0  0  0  0  0  0  0
  139.5400   69.4680  223.9400 C   0  0  0  0  0  0  0  0  0  0  0  0
  140.0610   69.8730  225.1680 C   0  0  0  0  0  0  0  0  0  0  0  0
  140.1300   68.9390  226.1850 C   0  0  0  0  0  0  0  0  0  0  0  0
  140.6500   69.3590  227.3960 C   0  0  0  0  0  0  0  0  0  0  0  0
  140.7530   68.1980  228.7180 Cl  0  0  0  0  0  0  0  0  0  0  0  0
  141.0710   70.6550  227.5490 C   0  0  0  0  0  0  0  0  0  0  0  0
  140.9980   71.5820  226.5220 C   0  0  0  0  0  0  0  0  0  0  0  0
  140.4790   71.1600  225.3150 C   0  0  0  0  0  0  0  0  0  0  0  0
  140.3850   72.0300  224.2730 N   0  0  0  0  0  0  0  0  0  0  0  0
  139.4370   74.3760  223.0960 H   0  0  0  0  0  0  0  0  0  0  0  0
  140.2062   74.4655  220.2005 H   0  0  0  0  0  0  0  0  0  0  0  0
  138.4590   74.6706  220.4502 H   0  0  0  0  0  0  0  0  0  0  0  0
  138.7348   76.5988  219.0272 H   0  0  0  0  0  0  0  0  0  0  0  0
  138.6923   78.3406  219.5491 H   0  0  0  0  0  0  0  0  0  0  0  0
  139.7825   77.2522  217.2423 H   0  0  0  0  0  0  0  0  0  0  0  0
  139.9276   78.9573  217.9538 H   0  0  0  0  0  0  0  0  0  0  0  0
  141.8642   76.6886  218.0881 H   0  0  0  0  0  0  0  0  0  0  0  0
  142.0281   78.3648  217.3702 H   0  0  0  0  0  0  0  0  0  0  0  0
  143.2232   77.9397  219.5448 H   0  0  0  0  0  0  0  0  0  0  0  0
  142.0943   79.3705  219.4437 H   0  0  0  0  0  0  0  0  0  0  0  0
  142.1319   77.0415  221.0722 H   0  0  0  0  0  0  0  0  0  0  0  0
  140.1445   79.0915  221.8085 H   0  0  0  0  0  0  0  0  0  0  0  0
  141.1097   77.3763  223.2525 H   0  0  0  0  0  0  0  0  0  0  0  0
  142.7535   78.1162  222.9706 H   0  0  0  0  0  0  0  0  0  0  0  0
  140.6416   78.8835  224.8386 H   0  0  0  0  0  0  0  0  0  0  0  0
  142.3867   79.3123  224.8001 H   0  0  0  0  0  0  0  0  0  0  0  0
  140.1220   80.6260  223.1896 H   0  0  0  0  0  0  0  0  0  0  0  0
  141.0657   81.3872  224.4760 H   0  0  0  0  0  0  0  0  0  0  0  0
  142.2049   82.0484  222.4426 H   0  0  0  0  0  0  0  0  0  0  0  0
  143.1942   80.7027  223.0238 H   0  0  0  0  0  0  0  0  0  0  0  0
  141.1044   80.7633  220.8002 H   0  0  0  0  0  0  0  0  0  0  0  0
  142.7442   80.0003  220.8125 H   0  0  0  0  0  0  0  0  0  0  0  0
  139.0540   70.0707  221.9432 H   0  0  0  0  0  0  0  0  0  0  0  0
  139.1952   68.4338  223.7928 H   0  0  0  0  0  0  0  0  0  0  0  0
  139.7857   67.9048  226.0373 H   0  0  0  0  0  0  0  0  0  0  0  0
  141.4807   70.9693  228.5203 H   0  0  0  0  0  0  0  0  0  0  0  0
  141.3415   72.6174  226.6636 H   0  0  0  0  0  0  0  0  0  0  0  0
  1  2  2  0
  2  3  1  0
  3  4  1  0
  4  5  1  0
  5  6  2  0
  5  7  1  0
  7  8  1  0
  8  9  1  0
  9 10  1  0
 10 11  1  0
 11 12  1  0
 12 13  1  0
 13 14  1  0
 14 15  1  0
 15 16  1  0
 16 17  1  0
 17 18  1  0
  2 19  1  0
 19 20  2  0
 20 21  1  0
 21 22  2  0
 22 23  1  0
 23 24  2  0
 24 25  1  0
 24 26  1  0
 26 27  2  0
 27 28  1  0
 28 29  2  0
 12  7  1  0
 18 13  1  0
 29 19  1  0
 28 22  1  0
  3 30  1  0
  4 31  1  0
  4 32  1  0
  8 33  1  0
  8 34  1  0
  9 35  1  0
  9 36  1  0
 10 37  1  0
 10 38  1  0
 11 39  1  0
 11 40  1  0
 12 41  1  1
 13 42  1  0
 14 43  1  0
 14 44  1  0
 15 45  1  0
 15 46  1  0
 16 47  1  0
 16 48  1  0
 17 49  1  0
 17 50  1  0
 18 51  1  0
 18 52  1  0
 20 53  1  0
 21 54  1  0
 23 55  1  0
 26 56  1  0
 27 57  1  0
M  END
>  <meeko>  (6) 
{"free_energy": -8.66, "intermolecular_energy": -10.15, "internal_energy": -2.04, "cluster_size": 15, "cluster_id": 1, "rank_in_cluster": 5}

$$$$

     RDKit          3D

 57 60  0  0  0  0  0  0  0  0999 V2000
  140.1590   72.4540  220.7950 O   0  0  0  0  0  0  0  0  0  0  0  0
  139.9060   72.8030  221.9730 C   0  0  0  0  0  0  0  0  0  0  0  0
  139.5260   74.1730  222.1580 N   0  0  0  0  0  0  0  0  0  0  0  0
  139.4800   74.9930  220.9600 C   0  0  0  0  0  0  0  0  0  0  0  0
  139.8420   76.3640  221.3680 C   0  0  0  0  0  0  0  0  0  0  0  0
  139.7850   76.6210  222.6120 O   0  0  0  0  0  0  0  0  0  0  0  0
  140.2430   77.3760  220.4210 N   0  0  0  0  0  0  0  0  0  0  0  0
  139.3480   77.6330  219.3280 C   0  0  0  0  0  0  0  0  0  0  0  0
  140.0610   78.0510  218.1000 C   0  0  0  0  0  0  0  0  0  0  0  0
  141.5540   77.9880  218.1330 C   0  0  0  0  0  0  0  0  0  0  0  0
  142.1620   78.5440  219.3930 C   0  0  0  0  0  0  0  0  0  0  0  0
  141.4990   78.0480  220.6390 C   0  0  1  0  0  0  0  0  0  0  0  0
  141.2770   79.1010  221.7010 C   0  0  0  0  0  0  0  0  0  0  0  0
  142.4360   79.0560  222.6450 C   0  0  0  0  0  0  0  0  0  0  0  0
  142.3130   80.0410  223.7850 C   0  0  0  0  0  0  0  0  0  0  0  0
  141.1740   81.0200  223.4970 C   0  0  0  0  0  0  0  0  0  0  0  0
  141.4480   81.5630  222.1020 C   0  0  0  0  0  0  0  0  0  0  0  0
  141.0000   80.4590  221.1350 C   0  0  0  0  0  0  0  0  0  0  0  0
  139.9890   71.8760  223.0960 C   0  0  0  0  0  0  0  0  0  0  0  0
  139.5430   70.5960  222.9120 C   0  0  0  0  0  0  0  0  0  0  0  0
  139.5920   69.6690  223.9270 C   0  0  0  0  0  0  0  0  0  0  0  0
  140.1080   70.0500  225.1650 C   0  0  0  0  0  0  0  0  0  0  0  0
  140.1480   69.1020  226.1710 C   0  0  0  0  0  0  0  0  0  0  0  0
  140.6630   69.4990  227.3920 C   0  0  0  0  0  0  0  0  0  0  0  0
  140.7310   68.3210  228.7010 Cl  0  0  0  0  0  0  0  0  0  0  0  0
  141.1070   70.7850  227.5640 C   0  0  0  0  0  0  0  0  0  0  0  0
  141.0620   71.7250  226.5480 C   0  0  0  0  0  0  0  0  0  0  0  0
  140.5480   71.3270  225.3310 C   0  0  0  0  0  0  0  0  0  0  0  0
  140.4800   72.2100  224.2980 N   0  0  0  0  0  0  0  0  0  0  0  0
  139.3020   74.5290  223.1130 H   0  0  0  0  0  0  0  0  0  0  0  0
  140.1979   74.6172  220.2161 H   0  0  0  0  0  0  0  0  0  0  0  0
  138.4798   74.9682  220.5028 H   0  0  0  0  0  0  0  0  0  0  0  0
  138.7815   76.7151  219.1122 H   0  0  0  0  0  0  0  0  0  0  0  0
  138.6830   78.4570  219.6262 H   0  0  0  0  0  0  0  0  0  0  0  0
  139.7187   77.4031  217.2796 H   0  0  0  0  0  0  0  0  0  0  0  0
  139.8206   79.1173  217.9765 H   0  0  0  0  0  0  0  0  0  0  0  0
  141.8581   76.9352  218.0374 H   0  0  0  0  0  0  0  0  0  0  0  0
  141.9175   78.6106  217.3022 H   0  0  0  0  0  0  0  0  0  0  0  0
  143.2235   78.2572  219.4245 H   0  0  0  0  0  0  0  0  0  0  0  0
  142.0281   79.6355  219.3652 H   0  0  0  0  0  0  0  0  0  0  0  0
  142.2417   77.3227  221.0028 H   0  0  0  0  0  0  0  0  0  0  0  0
  140.3577   78.8757  222.2615 H   0  0  0  0  0  0  0  0  0  0  0  0
  142.5058   78.0418  223.0651 H   0  0  0  0  0  0  0  0  0  0  0  0
  143.3350   79.3285  222.0727 H   0  0  0  0  0  0  0  0  0  0  0  0
  142.1012   79.4971  224.7174 H   0  0  0  0  0  0  0  0  0  0  0  0
  143.2557   80.5981  223.8895 H   0  0  0  0  0  0  0  0  0  0  0  0
  140.2046   80.5007  223.5239 H   0  0  0  0  0  0  0  0  0  0  0  0
  141.1276   81.8241  224.2462 H   0  0  0  0  0  0  0  0  0  0  0  0
  140.8713   82.4834  221.9280 H   0  0  0  0  0  0  0  0  0  0  0  0
  142.5092   81.8182  221.9654 H   0  0  0  0  0  0  0  0  0  0  0  0
  139.9199   80.5584  220.9520 H   0  0  0  0  0  0  0  0  0  0  0  0
  141.5630   80.5675  220.1963 H   0  0  0  0  0  0  0  0  0  0  0  0
  139.1371   70.3022  221.9328 H   0  0  0  0  0  0  0  0  0  0  0  0
  139.2298   68.6431  223.7646 H   0  0  0  0  0  0  0  0  0  0  0  0
  139.7859   68.0763  226.0074 H   0  0  0  0  0  0  0  0  0  0  0  0
  141.5129   71.0801  228.5428 H   0  0  0  0  0  0  0  0  0  0  0  0
  141.4231   72.7520  226.7056 H   0  0  0  0  0  0  0  0  0  0  0  0
  1  2  2  0
  2  3  1  0
  3  4  1  0
  4  5  1  0
  5  6  2  0
  5  7  1  0
  7  8  1  0
  8  9  1  0
  9 10  1  0
 10 11  1  0
 11 12  1  0
 12 13  1  0
 13 14  1  0
 14 15  1  0
 15 16  1  0
 16 17  1  0
 17 18  1  0
  2 19  1  0
 19 20  2  0
 20 21  1  0
 21 22  2  0
 22 23  1  0
 23 24  2  0
 24 25  1  0
 24 26  1  0
 26 27  2  0
 27 28  1  0
 28 29  2  0
 12  7  1  0
 18 13  1  0
 29 19  1  0
 28 22  1  0
  3 30  1  0
  4 31  1  0
  4 32  1  0
  8 33  1  0
  8 34  1  0
  9 35  1  0
  9 36  1  0
 10 37  1  0
 10 38  1  0
 11 39  1  0
 11 40  1  0
 12 41  1  1
 13 42  1  0
 14 43  1  0
 14 44  1  0
 15 45  1  0
 15 46  1  0
 16 47  1  0
 16 48  1  0
 17 49  1  0
 17 50  1  0
 18 51  1  0
 18 52  1  0
 20 53  1  0
 21 54  1  0
 23 55  1  0
 26 56  1  0
 27 57  1  0
M  END
>  <meeko>  (7) 
{"free_energy": -8.65, "intermolecular_energy": -10.14, "internal_energy": -2.02, "cluster_size": 15, "cluster_id": 1, "rank_in_cluster": 6}

$$$$

     RDKit          3D

 57 60  0  0  0  0  0  0  0  0999 V2000
  140.2020   72.3460  220.8140 O   0  0  0  0  0  0  0  0  0  0  0  0
  139.9740   72.7030  221.9940 C   0  0  0  0  0  0  0  0  0  0  0  0
  139.6520   74.0880  222.1830 N   0  0  0  0  0  0  0  0  0  0  0  0
  139.6300   74.9100  220.9860 C   0  0  0  0  0  0  0  0  0  0  0  0
  140.7000   75.9140  221.1400 C   0  0  0  0  0  0  0  0  0  0  0  0
  140.7130   76.5700  222.2290 O   0  0  0  0  0  0  0  0  0  0  0  0
  141.6910   76.1560  220.1180 N   0  0  0  0  0  0  0  0  0  0  0  0
  142.1990   77.4940  220.0110 C   0  0  0  0  0  0  0  0  0  0  0  0
  142.5710   77.8470  218.6220 C   0  0  0  0  0  0  0  0  0  0  0  0
  142.2250   76.8550  217.5580 C   0  0  0  0  0  0  0  0  0  0  0  0
  142.5530   75.4310  217.9190 C   0  0  0  0  0  0  0  0  0  0  0  0
  142.0930   75.0460  219.2900 C   0  0  1  0  0  0  0  0  0  0  0  0
  143.0810   74.2200  220.0810 C   0  0  0  0  0  0  0  0  0  0  0  0
  143.0560   72.8260  219.5370 C   0  0  0  0  0  0  0  0  0  0  0  0
  143.9770   71.8830  220.2760 C   0  0  0  0  0  0  0  0  0  0  0  0
  144.9040   72.6830  221.1930 C   0  0  0  0  0  0  0  0  0  0  0  0
  145.5270   73.7530  220.3080 C   0  0  0  0  0  0  0  0  0  0  0  0
  144.4470   74.8300  220.1410 C   0  0  0  0  0  0  0  0  0  0  0  0
  140.0290   71.7730  223.1150 C   0  0  0  0  0  0  0  0  0  0  0  0
  139.5740   70.4980  222.9200 C   0  0  0  0  0  0  0  0  0  0  0  0
  139.5960   69.5670  223.9330 C   0  0  0  0  0  0  0  0  0  0  0  0
  140.0940   69.9390  225.1800 C   0  0  0  0  0  0  0  0  0  0  0  0
  140.1080   68.9890  226.1850 C   0  0  0  0  0  0  0  0  0  0  0  0
  140.6050   69.3780  227.4150 C   0  0  0  0  0  0  0  0  0  0  0  0
  140.6390   68.1950  228.7220 Cl  0  0  0  0  0  0  0  0  0  0  0  0
  141.0590   70.6590  227.5990 C   0  0  0  0  0  0  0  0  0  0  0  0
  141.0400   71.6020  226.5850 C   0  0  0  0  0  0  0  0  0  0  0  0
  140.5430   71.2120  225.3580 C   0  0  0  0  0  0  0  0  0  0  0  0
  140.5020   72.0980  224.3270 N   0  0  0  0  0  0  0  0  0  0  0  0
  139.4500   74.4510  223.1400 H   0  0  0  0  0  0  0  0  0  0  0  0
  139.8174   74.2899  220.0970 H   0  0  0  0  0  0  0  0  0  0  0  0
  138.6504   75.3932  220.8564 H   0  0  0  0  0  0  0  0  0  0  0  0
  141.4253   78.1945  220.3584 H   0  0  0  0  0  0  0  0  0  0  0  0
  143.1073   77.5583  220.6282 H   0  0  0  0  0  0  0  0  0  0  0  0
  142.0665   78.7921  218.3724 H   0  0  0  0  0  0  0  0  0  0  0  0
  143.6699   77.8968  218.6224 H   0  0  0  0  0  0  0  0  0  0  0  0
  141.1449   76.9219  217.3607 H   0  0  0  0  0  0  0  0  0  0  0  0
  142.8329   77.1082  216.6769 H   0  0  0  0  0  0  0  0  0  0  0  0
  142.0691   74.7656  217.1889 H   0  0  0  0  0  0  0  0  0  0  0  0
  143.6488   75.3358  217.9047 H   0  0  0  0  0  0  0  0  0  0  0  0
  141.2142   74.4271  219.0563 H   0  0  0  0  0  0  0  0  0  0  0  0
  142.7789   74.1919  221.1383 H   0  0  0  0  0  0  0  0  0  0  0  0
  142.0284   72.4403  219.6102 H   0  0  0  0  0  0  0  0  0  0  0  0
  143.4052   72.8750  218.4950 H   0  0  0  0  0  0  0  0  0  0  0  0
  143.3783   71.1850  220.8797 H   0  0  0  0  0  0  0  0  0  0  0  0
  144.5804   71.3185  219.5498 H   0  0  0  0  0  0  0  0  0  0  0  0
  144.3309   73.1456  222.0100 H   0  0  0  0  0  0  0  0  0  0  0  0
  145.6679   72.0436  221.6594 H   0  0  0  0  0  0  0  0  0  0  0  0
  146.4208   74.1768  220.7891 H   0  0  0  0  0  0  0  0  0  0  0  0
  145.8473   73.3438  219.3385 H   0  0  0  0  0  0  0  0  0  0  0  0
  144.4943   75.5215  220.9952 H   0  0  0  0  0  0  0  0  0  0  0  0
  144.6315   75.3661  219.1984 H   0  0  0  0  0  0  0  0  0  0  0  0
  139.1824   70.2109  221.9330 H   0  0  0  0  0  0  0  0  0  0  0  0
  139.2263   68.5453  223.7611 H   0  0  0  0  0  0  0  0  0  0  0  0
  139.7393   67.9670  226.0129 H   0  0  0  0  0  0  0  0  0  0  0  0
  141.4515   70.9471  228.5854 H   0  0  0  0  0  0  0  0  0  0  0  0
  141.4078   72.6252  226.7516 H   0  0  0  0  0  0  0  0  0  0  0  0
  1  2  2  0
  2  3  1  0
  3  4  1  0
  4  5  1  0
  5  6  2  0
  5  7  1  0
  7  8  1  0
  8  9  1  0
  9 10  1  0
 10 11  1  0
 11 12  1  0
 12 13  1  0
 13 14  1  0
 14 15  1  0
 15 16  1  0
 16 17  1  0
 17 18  1  0
  2 19  1  0
 19 20  2  0
 20 21  1  0
 21 22  2  0
 22 23  1  0
 23 24  2  0
 24 25  1  0
 24 26  1  0
 26 27  2  0
 27 28  1  0
 28 29  2  0
 12  7  1  0
 18 13  1  0
 29 19  1  0
 28 22  1  0
  3 30  1  0
  4 31  1  0
  4 32  1  0
  8 33  1  0
  8 34  1  0
  9 35  1  0
  9 36  1  0
 10 37  1  0
 10 38  1  0
 11 39  1  0
 11 40  1  0
 12 41  1  6
 13 42  1  0
 14 43  1  0
 14 44  1  0
 15 45  1  0
 15 46  1  0
 16 47  1  0
 16 48  1  0
 17 49  1  0
 17 50  1  0
 18 51  1  0
 18 52  1  0
 20 53  1  0
 21 54  1  0
 23 55  1  0
 26 56  1  0
 27 57  1  0
M  END
>  <meeko>  (8) 
{"free_energy": -8.39, "intermolecular_energy": -9.88, "internal_energy": -2.19, "cluster_size": 3, "cluster_id": 2, "rank_in_cluster": 2}

$$$$

     RDKit          3D

 57 60  0  0  0  0  0  0  0  0999 V2000
  140.0320   71.8430  220.8540 O   0  0  0  0  0  0  0  0  0  0  0  0
  139.9890   72.2910  222.0240 C   0  0  0  0  0  0  0  0  0  0  0  0
  139.8970   73.7170  222.1510 N   0  0  0  0  0  0  0  0  0  0  0  0
  139.8650   74.4690  220.9090 C   0  0  0  0  0  0  0  0  0  0  0  0
  140.8550   75.5550  221.0440 C   0  0  0  0  0  0  0  0  0  0  0  0
  140.9930   76.0600  222.2020 O   0  0  0  0  0  0  0  0  0  0  0  0
  141.6380   76.0340  219.9300 N   0  0  0  0  0  0  0  0  0  0  0  0
  142.1190   77.3850  220.0080 C   0  0  0  0  0  0  0  0  0  0  0  0
  142.2260   78.0240  218.6770 C   0  0  0  0  0  0  0  0  0  0  0  0
  141.6870   77.2550  217.5140 C   0  0  0  0  0  0  0  0  0  0  0  0
  142.0750   75.8000  217.5100 C   0  0  0  0  0  0  0  0  0  0  0  0
  141.8790   75.1300  218.8330 C   0  0  1  0  0  0  0  0  0  0  0  0
  142.9960   74.1980  219.2440 C   0  0  0  0  0  0  0  0  0  0  0  0
  143.9490   74.9700  220.0990 C   0  0  0  0  0  0  0  0  0  0  0  0
  145.1410   74.1550  220.5450 C   0  0  0  0  0  0  0  0  0  0  0  0
  144.8960   72.6770  220.2390 C   0  0  0  0  0  0  0  0  0  0  0  0
  143.5380   72.3560  220.8450 C   0  0  0  0  0  0  0  0  0  0  0  0
  142.5050   72.9280  219.8650 C   0  0  0  0  0  0  0  0  0  0  0  0
  140.0290   71.4230  223.1950 C   0  0  0  0  0  0  0  0  0  0  0  0
  139.5510   70.1480  223.0710 C   0  0  0  0  0  0  0  0  0  0  0  0
  139.5580   69.2740  224.1330 C   0  0  0  0  0  0  0  0  0  0  0  0
  140.0640   69.7050  225.3580 C   0  0  0  0  0  0  0  0  0  0  0  0
  140.0630   68.8110  226.4130 C   0  0  0  0  0  0  0  0  0  0  0  0
  140.5690   69.2580  227.6200 C   0  0  0  0  0  0  0  0  0  0  0  0
  140.5840   68.1490  228.9900 Cl  0  0  0  0  0  0  0  0  0  0  0  0
  141.0460   70.5390  227.7330 C   0  0  0  0  0  0  0  0  0  0  0  0
  141.0430   71.4250  226.6680 C   0  0  0  0  0  0  0  0  0  0  0  0
  140.5370   70.9770  225.4650 C   0  0  0  0  0  0  0  0  0  0  0  0
  140.5100   71.8060  224.3870 N   0  0  0  0  0  0  0  0  0  0  0  0
  139.8570   74.1560  223.0960 H   0  0  0  0  0  0  0  0  0  0  0  0
  140.1309   73.8167  220.0641 H   0  0  0  0  0  0  0  0  0  0  0  0
  138.8598   74.8722  220.7169 H   0  0  0  0  0  0  0  0  0  0  0  0
  141.4244   77.9720  220.6268 H   0  0  0  0  0  0  0  0  0  0  0  0
  143.1266   77.3572  220.4485 H   0  0  0  0  0  0  0  0  0  0  0  0
  141.6848   78.9806  218.7228 H   0  0  0  0  0  0  0  0  0  0  0  0
  143.3058   78.1133  218.4870 H   0  0  0  0  0  0  0  0  0  0  0  0
  140.5891   77.3203  217.5349 H   0  0  0  0  0  0  0  0  0  0  0  0
  142.1204   77.7028  216.6076 H   0  0  0  0  0  0  0  0  0  0  0  0
  141.4624   75.2777  216.7603 H   0  0  0  0  0  0  0  0  0  0  0  0
  143.1488   75.7506  217.2765 H   0  0  0  0  0  0  0  0  0  0  0  0
  140.9717   74.5382  218.6415 H   0  0  0  0  0  0  0  0  0  0  0  0
  143.5322   73.8431  218.3515 H   0  0  0  0  0  0  0  0  0  0  0  0
  144.3119   75.8353  219.5250 H   0  0  0  0  0  0  0  0  0  0  0  0
  143.4036   75.2749  221.0043 H   0  0  0  0  0  0  0  0  0  0  0  0
  146.0388   74.4959  220.0086 H   0  0  0  0  0  0  0  0  0  0  0  0
  145.2872   74.2843  221.6275 H   0  0  0  0  0  0  0  0  0  0  0  0
  144.8820   72.5066  219.1524 H   0  0  0  0  0  0  0  0  0  0  0  0
  145.6892   72.0375  220.6535 H   0  0  0  0  0  0  0  0  0  0  0  0
  143.4100   71.2682  220.9466 H   0  0  0  0  0  0  0  0  0  0  0  0
  143.4282   72.7874  221.8509 H   0  0  0  0  0  0  0  0  0  0  0  0
  142.3157   72.1900  219.0716 H   0  0  0  0  0  0  0  0  0  0  0  0
  141.5805   73.1455  220.4199 H   0  0  0  0  0  0  0  0  0  0  0  0
  139.1525   69.8143  222.1016 H   0  0  0  0  0  0  0  0  0  0  0  0
  139.1704   68.2511  224.0173 H   0  0  0  0  0  0  0  0  0  0  0  0
  139.6762   67.7878  226.2971 H   0  0  0  0  0  0  0  0  0  0  0  0
  141.4444   70.8742  228.7020 H   0  0  0  0  0  0  0  0  0  0  0  0
  141.4301   72.4488  226.7775 H   0  0  0  0  0  0  0  0  0  0  0  0
  1  2  2  0
  2  3  1  0
  3  4  1  0
  4  5  1  0
  5  6  2  0
  5  7  1  0
  7  8  1  0
  8  9  1  0
  9 10  1  0
 10 11  1  0
 11 12  1  0
 12 13  1  0
 13 14  1  0
 14 15  1  0
 15 16  1  0
 16 17  1  0
 17 18  1  0
  2 19  1  0
 19 20  2  0
 20 21  1  0
 21 22  2  0
 22 23  1  0
 23 24  2  0
 24 25  1  0
 24 26  1  0
 26 27  2  0
 27 28  1  0
 28 29  2  0
 12  7  1  0
 18 13  1  0
 29 19  1  0
 28 22  1  0
  3 30  1  0
  4 31  1  0
  4 32  1  0
  8 33  1  0
  8 34  1  0
  9 35  1  0
  9 36  1  0
 10 37  1  0
 10 38  1  0
 11 39  1  0
 11 40  1  0
 12 41  1  6
 13 42  1  0
 14 43  1  0
 14 44  1  0
 15 45  1  0
 15 46  1  0
 16 47  1  0
 16 48  1  0
 17 49  1  0
 17 50  1  0
 18 51  1  0
 18 52  1  0
 20 53  1  0
 21 54  1  0
 23 55  1  0
 26 56  1  0
 27 57  1  0
M  END
>  <meeko>  (9) 
{"free_energy": -7.94, "intermolecular_energy": -9.43, "internal_energy": -2.22, "cluster_size": 3, "cluster_id": 2, "rank_in_cluster": 3}

$$$$

     RDKit          3D

 57 60  0  0  0  0  0  0  0  0999 V2000
  133.9640   70.4890  226.5780 O   0  0  0  0  0  0  0  0  0  0  0  0
  134.1200   71.6210  226.0620 C   0  0  0  0  0  0  0  0  0  0  0  0
  135.0340   71.6900  224.9580 N   0  0  0  0  0  0  0  0  0  0  0  0
  135.6670   70.4420  224.5720 C   0  0  0  0  0  0  0  0  0  0  0  0
  136.8810   70.7980  223.8120 C   0  0  0  0  0  0  0  0  0  0  0  0
  136.8950   71.9470  223.2680 O   0  0  0  0  0  0  0  0  0  0  0  0
  138.0060   69.9030  223.6820 N   0  0  0  0  0  0  0  0  0  0  0  0
  138.6310   69.8290  222.3920 C   0  0  0  0  0  0  0  0  0  0  0  0
  139.1980   68.4900  222.1150 C   0  0  0  0  0  0  0  0  0  0  0  0
  138.9070   67.4150  223.1120 C   0  0  0  0  0  0  0  0  0  0  0  0
  139.0700   67.8470  224.5450 C   0  0  0  0  0  0  0  0  0  0  0  0
  138.4160   69.1580  224.8460 C   0  0  1  0  0  0  0  0  0  0  0  0
  139.2280   70.0860  225.7210 C   0  0  0  0  0  0  0  0  0  0  0  0
  139.6860   69.3100  226.9160 C   0  0  0  0  0  0  0  0  0  0  0  0
  140.4800   70.1430  227.8960 C   0  0  0  0  0  0  0  0  0  0  0  0
  140.8480   71.4810  227.2530 C   0  0  0  0  0  0  0  0  0  0  0  0
  141.4920   71.1280  225.9200 C   0  0  0  0  0  0  0  0  0  0  0  0
  140.3300   70.7800  224.9820 C   0  0  0  0  0  0  0  0  0  0  0  0
  133.4200   72.8040  226.5470 C   0  0  0  0  0  0  0  0  0  0  0  0
  132.1860   72.6370  227.1150 C   0  0  0  0  0  0  0  0  0  0  0  0
  131.4680   73.7080  227.5950 C   0  0  0  0  0  0  0  0  0  0  0  0
  132.0160   74.9860  227.4960 C   0  0  0  0  0  0  0  0  0  0  0  0
  131.2790   76.0490  227.9840 C   0  0  0  0  0  0  0  0  0  0  0  0
  131.8400   77.3090  227.8780 C   0  0  0  0  0  0  0  0  0  0  0  0
  130.9310   78.6900  228.4880 Cl  0  0  0  0  0  0  0  0  0  0  0  0
  133.0770   77.4640  227.3070 C   0  0  0  0  0  0  0  0  0  0  0  0
  133.8060   76.3910  226.8210 C   0  0  0  0  0  0  0  0  0  0  0  0
  133.2450   75.1350  226.9290 C   0  0  0  0  0  0  0  0  0  0  0  0
  133.9180   74.0460  226.4690 N   0  0  0  0  0  0  0  0  0  0  0  0
  135.2100   72.6020  224.4830 H   0  0  0  0  0  0  0  0  0  0  0  0
  135.9367   69.8614  225.4666 H   0  0  0  0  0  0  0  0  0  0  0  0
  134.9876   69.8255  223.9652 H   0  0  0  0  0  0  0  0  0  0  0  0
  137.8803   70.0608  221.6221 H   0  0  0  0  0  0  0  0  0  0  0  0
  139.4591   70.5529  222.3788 H   0  0  0  0  0  0  0  0  0  0  0  0
  138.8056   68.1572  221.1428 H   0  0  0  0  0  0  0  0  0  0  0  0
  140.2889   68.6268  222.1497 H   0  0  0  0  0  0  0  0  0  0  0  0
  137.8688   67.0813  222.9675 H   0  0  0  0  0  0  0  0  0  0  0  0
  139.6387   66.6126  222.9368 H   0  0  0  0  0  0  0  0  0  0  0  0
  138.6257   67.0781  225.1941 H   0  0  0  0  0  0  0  0  0  0  0  0
  140.1477   67.9712  224.7271 H   0  0  0  0  0  0  0  0  0  0  0  0
  137.5250   68.8299  225.4014 H   0  0  0  0  0  0  0  0  0  0  0  0
  138.5980   70.9205  226.0626 H   0  0  0  0  0  0  0  0  0  0  0  0
  138.8016   68.9095  227.4332 H   0  0  0  0  0  0  0  0  0  0  0  0
  140.3487   68.5104  226.5533 H   0  0  0  0  0  0  0  0  0  0  0  0
  139.8751   70.3239  228.7967 H   0  0  0  0  0  0  0  0  0  0  0  0
  141.3993   69.6052  228.1713 H   0  0  0  0  0  0  0  0  0  0  0  0
  139.9472   72.0922  227.0949 H   0  0  0  0  0  0  0  0  0  0  0  0
  141.5254   72.0677  227.8909 H   0  0  0  0  0  0  0  0  0  0  0  0
  142.0587   71.9854  225.5280 H   0  0  0  0  0  0  0  0  0  0  0  0
  142.2009   70.2927  226.0182 H   0  0  0  0  0  0  0  0  0  0  0  0
  139.9368   71.7067  224.5385 H   0  0  0  0  0  0  0  0  0  0  0  0
  140.7043   70.1042  224.1989 H   0  0  0  0  0  0  0  0  0  0  0  0
  131.7595   71.6258  227.1893 H   0  0  0  0  0  0  0  0  0  0  0  0
  130.4776   73.5583  228.0495 H   0  0  0  0  0  0  0  0  0  0  0  0
  130.2881   75.8991  228.4375 H   0  0  0  0  0  0  0  0  0  0  0  0
  133.5049   78.4746  227.2323 H   0  0  0  0  0  0  0  0  0  0  0  0
  134.7967   76.5351  226.3653 H   0  0  0  0  0  0  0  0  0  0  0  0
  1  2  2  0
  2  3  1  0
  3  4  1  0
  4  5  1  0
  5  6  2  0
  5  7  1  0
  7  8  1  0
  8  9  1  0
  9 10  1  0
 10 11  1  0
 11 12  1  0
 12 13  1  0
 13 14  1  0
 14 15  1  0
 15 16  1  0
 16 17  1  0
 17 18  1  0
  2 19  1  0
 19 20  2  0
 20 21  1  0
 21 22  2  0
 22 23  1  0
 23 24  2  0
 24 25  1  0
 24 26  1  0
 26 27  2  0
 27 28  1  0
 28 29  2  0
 12  7  1  0
 18 13  1  0
 29 19  1  0
 28 22  1  0
  3 30  1  0
  4 31  1  0
  4 32  1  0
  8 33  1  0
  8 34  1  0
  9 35  1  0
  9 36  1  0
 10 37  1  0
 10 38  1  0
 11 39  1  0
 11 40  1  0
 12 41  1  1
 13 42  1  0
 14 43  1  0
 14 44  1  0
 15 45  1  0
 15 46  1  0
 16 47  1  0
 16 48  1  0
 17 49  1  0
 17 50  1  0
 18 51  1  0
 18 52  1  0
 20 53  1  0
 21 54  1  0
 23 55  1  0
 26 56  1  0
 27 57  1  0
M  END
>  <meeko>  (10) 
{"free_energy": -8.1, "intermolecular_energy": -9.6, "internal_energy": -2.13, "cluster_size": 1, "cluster_id": 3, "rank_in_cluster": 1}

$$$$

     RDKit          3D

 57 60  0  0  0  0  0  0  0  0999 V2000
  139.8840   72.3440  220.8400 O   0  0  0  0  0  0  0  0  0  0  0  0
  139.7930   72.7110  222.0350 C   0  0  0  0  0  0  0  0  0  0  0  0
  139.5800   74.1130  222.2510 N   0  0  0  0  0  0  0  0  0  0  0  0
  139.4970   74.9380  221.0600 C   0  0  0  0  0  0  0  0  0  0  0  0
  139.9880   76.2780  221.4350 C   0  0  0  0  0  0  0  0  0  0  0  0
  140.1180   76.5090  222.6790 O   0  0  0  0  0  0  0  0  0  0  0  0
  140.3110   77.2890  220.4570 N   0  0  0  0  0  0  0  0  0  0  0  0
  139.3830   77.4660  219.3760 C   0  0  0  0  0  0  0  0  0  0  0  0
  140.0480   77.8950  218.1250 C   0  0  0  0  0  0  0  0  0  0  0  0
  141.5430   77.9230  218.1320 C   0  0  0  0  0  0  0  0  0  0  0  0
  142.1390   78.5440  219.3670 C   0  0  0  0  0  0  0  0  0  0  0  0
  141.5280   78.0400  220.6360 C   0  0  1  0  0  0  0  0  0  0  0  0
  141.2610   79.1030  221.6770 C   0  0  0  0  0  0  0  0  0  0  0  0
  142.3420   79.0210  222.7080 C   0  0  0  0  0  0  0  0  0  0  0  0
  142.1650   80.0130  223.8350 C   0  0  0  0  0  0  0  0  0  0  0  0
  141.0870   81.0300  223.4590 C   0  0  0  0  0  0  0  0  0  0  0  0
  141.4860   81.5590  222.0900 C   0  0  0  0  0  0  0  0  0  0  0  0
  141.0760   80.4690  221.0920 C   0  0  0  0  0  0  0  0  0  0  0  0
  139.8940   71.7750  223.1480 C   0  0  0  0  0  0  0  0  0  0  0  0
  139.4640   70.4910  222.9550 C   0  0  0  0  0  0  0  0  0  0  0  0
  139.5300   69.5540  223.9610 C   0  0  0  0  0  0  0  0  0  0  0  0
  140.0480   69.9300  225.1990 C   0  0  0  0  0  0  0  0  0  0  0  0
  140.1060   68.9740  226.1970 C   0  0  0  0  0  0  0  0  0  0  0  0
  140.6230   69.3660  227.4180 C   0  0  0  0  0  0  0  0  0  0  0  0
  140.7130   68.1770  228.7160 Cl  0  0  0  0  0  0  0  0  0  0  0  0
  141.0500   70.6560  227.6010 C   0  0  0  0  0  0  0  0  0  0  0  0
  140.9870   71.6050  226.5940 C   0  0  0  0  0  0  0  0  0  0  0  0
  140.4720   71.2120  225.3760 C   0  0  0  0  0  0  0  0  0  0  0  0
  140.3870   72.1030  224.3520 N   0  0  0  0  0  0  0  0  0  0  0  0
  139.4940   74.4850  223.2220 H   0  0  0  0  0  0  0  0  0  0  0  0
  140.1240   74.5146  220.2615 H   0  0  0  0  0  0  0  0  0  0  0  0
  138.4642   74.9867  220.6846 H   0  0  0  0  0  0  0  0  0  0  0  0
  138.8681   76.5114  219.1928 H   0  0  0  0  0  0  0  0  0  0  0  0
  138.6757   78.2564  219.6676 H   0  0  0  0  0  0  0  0  0  0  0  0
  139.7317   77.2070  217.3271 H   0  0  0  0  0  0  0  0  0  0  0  0
  139.7410   78.9413  217.9798 H   0  0  0  0  0  0  0  0  0  0  0  0
  141.9085   76.8884  218.0545 H   0  0  0  0  0  0  0  0  0  0  0  0
  141.8531   78.5473  217.2811 H   0  0  0  0  0  0  0  0  0  0  0  0
  143.2160   78.3207  219.3852 H   0  0  0  0  0  0  0  0  0  0  0  0
  141.9408   79.6248  219.3165 H   0  0  0  0  0  0  0  0  0  0  0  0
  142.3193   77.3696  221.0026 H   0  0  0  0  0  0  0  0  0  0  0  0
  140.2935   78.9107  222.1637 H   0  0  0  0  0  0  0  0  0  0  0  0
  142.3444   78.0062  223.1324 H   0  0  0  0  0  0  0  0  0  0  0  0
  143.2913   79.2609  222.2068 H   0  0  0  0  0  0  0  0  0  0  0  0
  141.8623   79.4795  224.7481 H   0  0  0  0  0  0  0  0  0  0  0  0
  143.1156   80.5373  224.0127 H   0  0  0  0  0  0  0  0  0  0  0  0
  140.1010   80.5448  223.4111 H   0  0  0  0  0  0  0  0  0  0  0  0
  141.0114   81.8376  224.2020 H   0  0  0  0  0  0  0  0  0  0  0  0
  140.9566   82.4983  221.8719 H   0  0  0  0  0  0  0  0  0  0  0  0
  142.5628   81.7770  222.0355 H   0  0  0  0  0  0  0  0  0  0  0  0
  140.0173   80.6054  220.8264 H   0  0  0  0  0  0  0  0  0  0  0  0
  141.7136   80.5555  220.1998 H   0  0  0  0  0  0  0  0  0  0  0  0
  139.0569   70.2011  221.9751 H   0  0  0  0  0  0  0  0  0  0  0  0
  139.1797   68.5253  223.7907 H   0  0  0  0  0  0  0  0  0  0  0  0
  139.7556   67.9453  226.0265 H   0  0  0  0  0  0  0  0  0  0  0  0
  141.4564   70.9472  228.5808 H   0  0  0  0  0  0  0  0  0  0  0  0
  141.3352   72.6352  226.7596 H   0  0  0  0  0  0  0  0  0  0  0  0
  1  2  2  0
  2  3  1  0
  3  4  1  0
  4  5  1  0
  5  6  2  0
  5  7  1  0
  7  8  1  0
  8  9  1  0
  9 10  1  0
 10 11  1  0
 11 12  1  0
 12 13  1  0
 13 14  1  0
 14 15  1  0
 15 16  1  0
 16 17  1  0
 17 18  1  0
  2 19  1  0
 19 20  2  0
 20 21  1  0
 21 22  2  0
 22 23  1  0
 23 24  2  0
 24 25  1  0
 24 26  1  0
 26 27  2  0
 27 28  1  0
 28 29  2  0
 12  7  1  0
 18 13  1  0
 29 19  1  0
 28 22  1  0
  3 30  1  0
  4 31  1  0
  4 32  1  0
  8 33  1  0
  8 34  1  0
  9 35  1  0
  9 36  1  0
 10 37  1  0
 10 38  1  0
 11 39  1  0
 11 40  1  0
 12 41  1  1
 13 42  1  0
 14 43  1  0
 14 44  1  0
 15 45  1  0
 15 46  1  0
 16 47  1  0
 16 48  1  0
 17 49  1  0
 17 50  1  0
 18 51  1  0
 18 52  1  0
 20 53  1  0
 21 54  1  0
 23 55  1  0
 26 56  1  0
 27 57  1  0
M  END
>  <meeko>  (11) 
{"free_energy": -8.68, "intermolecular_energy": -10.18, "internal_energy": -2.05, "cluster_size": 15, "cluster_id": 1, "rank_in_cluster": 4}

$$$$

     RDKit          3D

 57 60  0  0  0  0  0  0  0  0999 V2000
  139.6570   72.3960  220.8720 O   0  0  0  0  0  0  0  0  0  0  0  0
  139.6710   72.7650  222.0700 C   0  0  0  0  0  0  0  0  0  0  0  0
  139.5290   74.1740  222.2980 N   0  0  0  0  0  0  0  0  0  0  0  0
  139.3860   75.0030  221.1150 C   0  0  0  0  0  0  0  0  0  0  0  0
  140.5180   75.9500  221.1200 C   0  0  0  0  0  0  0  0  0  0  0  0
  141.3890   75.7920  222.0320 O   0  0  0  0  0  0  0  0  0  0  0  0
  140.6480   77.0100  220.1480 N   0  0  0  0  0  0  0  0  0  0  0  0
  139.7290   76.9950  219.0460 C   0  0  0  0  0  0  0  0  0  0  0  0
  140.3200   77.5570  217.8100 C   0  0  0  0  0  0  0  0  0  0  0  0
  141.7760   77.8910  217.8510 C   0  0  0  0  0  0  0  0  0  0  0  0
  142.2030   78.6170  219.0990 C   0  0  0  0  0  0  0  0  0  0  0  0
  141.6800   77.9940  220.3550 C   0  0  1  0  0  0  0  0  0  0  0  0
  141.1770   78.9760  221.3870 C   0  0  0  0  0  0  0  0  0  0  0  0
  141.8270   78.6470  222.6930 C   0  0  0  0  0  0  0  0  0  0  0  0
  141.3720   79.5380  223.8260 C   0  0  0  0  0  0  0  0  0  0  0  0
  140.5880   80.7240  223.2630 C   0  0  0  0  0  0  0  0  0  0  0  0
  141.4790   81.3260  222.1870 C   0  0  0  0  0  0  0  0  0  0  0  0
  141.3320   80.4050  220.9680 C   0  0  0  0  0  0  0  0  0  0  0  0
  139.8210   71.8250  223.1750 C   0  0  0  0  0  0  0  0  0  0  0  0
  139.4420   70.5270  222.9750 C   0  0  0  0  0  0  0  0  0  0  0  0
  139.5560   69.5860  223.9730 C   0  0  0  0  0  0  0  0  0  0  0  0
  140.0700   69.9730  225.2090 C   0  0  0  0  0  0  0  0  0  0  0  0
  140.1770   69.0120  226.1980 C   0  0  0  0  0  0  0  0  0  0  0  0
  140.6900   69.4150  227.4180 C   0  0  0  0  0  0  0  0  0  0  0  0
  140.8420   68.2200  228.7040 Cl  0  0  0  0  0  0  0  0  0  0  0  0
  141.0670   70.7200  227.6060 C   0  0  0  0  0  0  0  0  0  0  0  0
  140.9560   71.6730  226.6080 C   0  0  0  0  0  0  0  0  0  0  0  0
  140.4440   71.2690  225.3920 C   0  0  0  0  0  0  0  0  0  0  0  0
  140.3130   72.1640  224.3760 N   0  0  0  0  0  0  0  0  0  0  0  0
  139.5320   74.5480  223.2720 H   0  0  0  0  0  0  0  0  0  0  0  0
  139.4176   74.3795  220.2093 H   0  0  0  0  0  0  0  0  0  0  0  0
  138.4242   75.5368  221.1204 H   0  0  0  0  0  0  0  0  0  0  0  0
  139.4271   75.9552  218.8520 H   0  0  0  0  0  0  0  0  0  0  0  0
  138.8668   77.6208  219.3199 H   0  0  0  0  0  0  0  0  0  0  0  0
  140.1696   76.8223  217.0053 H   0  0  0  0  0  0  0  0  0  0  0  0
  139.8082   78.5187  217.6576 H   0  0  0  0  0  0  0  0  0  0  0  0
  142.3479   76.9538  217.7833 H   0  0  0  0  0  0  0  0  0  0  0  0
  141.9710   78.5683  217.0064 H   0  0  0  0  0  0  0  0  0  0  0  0
  143.3021   78.6200  219.1423 H   0  0  0  0  0  0  0  0  0  0  0  0
  141.7874   79.6339  219.0424 H   0  0  0  0  0  0  0  0  0  0  0  0
  142.5830   77.4992  220.7420 H   0  0  0  0  0  0  0  0  0  0  0  0
  140.0878   78.8704  221.4991 H   0  0  0  0  0  0  0  0  0  0  0  0
  141.5872   77.6047  222.9500 H   0  0  0  0  0  0  0  0  0  0  0  0
  142.9086   78.8036  222.5683 H   0  0  0  0  0  0  0  0  0  0  0  0
  140.7274   78.9634  224.5074 H   0  0  0  0  0  0  0  0  0  0  0  0
  142.2504   79.9083  224.3748 H   0  0  0  0  0  0  0  0  0  0  0  0
  139.6363   80.3843  222.8284 H   0  0  0  0  0  0  0  0  0  0  0  0
  140.3397   81.4571  224.0446 H   0  0  0  0  0  0  0  0  0  0  0  0
  141.1480   82.3456  221.9403 H   0  0  0  0  0  0  0  0  0  0  0  0
  142.5253   81.3994  222.5184 H   0  0  0  0  0  0  0  0  0  0  0  0
  140.4448   80.7090  220.3931 H   0  0  0  0  0  0  0  0  0  0  0  0
  142.2400   80.4920  220.3531 H   0  0  0  0  0  0  0  0  0  0  0  0
  139.0377   70.2284  221.9966 H   0  0  0  0  0  0  0  0  0  0  0  0
  139.2463   68.5452  223.7977 H   0  0  0  0  0  0  0  0  0  0  0  0
  139.8673   67.9713  226.0220 H   0  0  0  0  0  0  0  0  0  0  0  0
  141.4717   71.0200  228.5839 H   0  0  0  0  0  0  0  0  0  0  0  0
  141.2649   72.7149  226.7783 H   0  0  0  0  0  0  0  0  0  0  0  0
  1  2  2  0
  2  3  1  0
  3  4  1  0
  4  5  1  0
  5  6  2  0
  5  7  1  0
  7  8  1  0
  8  9  1  0
  9 10  1  0
 10 11  1  0
 11 12  1  0
 12 13  1  0
 13 14  1  0
 14 15  1  0
 15 16  1  0
 16 17  1  0
 17 18  1  0
  2 19  1  0
 19 20  2  0
 20 21  1  0
 21 22  2  0
 22 23  1  0
 23 24  2  0
 24 25  1  0
 24 26  1  0
 26 27  2  0
 27 28  1  0
 28 29  2  0
 12  7  1  0
 18 13  1  0
 29 19  1  0
 28 22  1  0
  3 30  1  0
  4 31  1  0
  4 32  1  0
  8 33  1  0
  8 34  1  0
  9 35  1  0
  9 36  1  0
 10 37  1  0
 10 38  1  0
 11 39  1  0
 11 40  1  0
 12 41  1  1
 13 42  1  0
 14 43  1  0
 14 44  1  0
 15 45  1  0
 15 46  1  0
 16 47  1  0
 16 48  1  0
 17 49  1  0
 17 50  1  0
 18 51  1  0
 18 52  1  0
 20 53  1  0
 21 54  1  0
 23 55  1  0
 26 56  1  0
 27 57  1  0
M  END
>  <meeko>  (12) 
{"free_energy": -8.54, "intermolecular_energy": -10.03, "internal_energy": -1.71, "cluster_size": 15, "cluster_id": 1, "rank_in_cluster": 9}

$$$$

     RDKit          3D

 57 60  0  0  0  0  0  0  0  0999 V2000
  140.9600   72.6870  221.0440 O   0  0  0  0  0  0  0  0  0  0  0  0
  140.1700   72.8020  222.0100 C   0  0  0  0  0  0  0  0  0  0  0  0
  139.2700   73.9180  221.9610 N   0  0  0  0  0  0  0  0  0  0  0  0
  139.3830   74.7800  220.7980 C   0  0  0  0  0  0  0  0  0  0  0  0
  140.0630   76.0110  221.2460 C   0  0  0  0  0  0  0  0  0  0  0  0
  141.3330   76.0030  221.2140 O   0  0  0  0  0  0  0  0  0  0  0  0
  139.3410   77.1760  221.7000 N   0  0  0  0  0  0  0  0  0  0  0  0
  138.3490   76.9690  222.7170 C   0  0  0  0  0  0  0  0  0  0  0  0
  137.2200   77.9200  222.6060 C   0  0  0  0  0  0  0  0  0  0  0  0
  137.2040   78.8110  221.4060 C   0  0  0  0  0  0  0  0  0  0  0  0
  138.5380   79.4300  221.0840 C   0  0  0  0  0  0  0  0  0  0  0  0
  139.6660   78.4480  221.1060 C   0  0  1  0  0  0  0  0  0  0  0  0
  140.9310   78.9510  221.7630 C   0  0  0  0  0  0  0  0  0  0  0  0
  140.9170   80.4450  221.7090 C   0  0  0  0  0  0  0  0  0  0  0  0
  142.1570   81.0730  222.3020 C   0  0  0  0  0  0  0  0  0  0  0  0
  142.9560   80.0140  223.0620 C   0  0  0  0  0  0  0  0  0  0  0  0
  141.9610   79.3540  224.0060 C   0  0  0  0  0  0  0  0  0  0  0  0
  141.1460   78.3890  223.1340 C   0  0  0  0  0  0  0  0  0  0  0  0
  140.1570   71.8610  223.1240 C   0  0  0  0  0  0  0  0  0  0  0  0
  139.6380   70.6140  222.9100 C   0  0  0  0  0  0  0  0  0  0  0  0
  139.5930   69.6750  223.9150 C   0  0  0  0  0  0  0  0  0  0  0  0
  140.0910   70.0100  225.1730 C   0  0  0  0  0  0  0  0  0  0  0  0
  140.0380   69.0520  226.1690 C   0  0  0  0  0  0  0  0  0  0  0  0
  140.5360   69.4030  227.4110 C   0  0  0  0  0  0  0  0  0  0  0  0
  140.4850   68.2100  228.7070 Cl  0  0  0  0  0  0  0  0  0  0  0  0
  141.0540   70.6560  227.6130 C   0  0  0  0  0  0  0  0  0  0  0  0
  141.1020   71.6070  226.6070 C   0  0  0  0  0  0  0  0  0  0  0  0
  140.6050   71.2550  225.3700 C   0  0  0  0  0  0  0  0  0  0  0  0
  140.6270   72.1510  224.3460 N   0  0  0  0  0  0  0  0  0  0  0  0
  138.5860   74.0720  222.7330 H   0  0  0  0  0  0  0  0  0  0  0  0
  139.9747   74.2839  220.0146 H   0  0  0  0  0  0  0  0  0  0  0  0
  138.3927   75.0066  220.3761 H   0  0  0  0  0  0  0  0  0  0  0  0
  137.9583   75.9447  222.6261 H   0  0  0  0  0  0  0  0  0  0  0  0
  138.8300   77.1319  223.6928 H   0  0  0  0  0  0  0  0  0  0  0  0
  136.2900   77.3326  222.5966 H   0  0  0  0  0  0  0  0  0  0  0  0
  137.3292   78.5975  223.4657 H   0  0  0  0  0  0  0  0  0  0  0  0
  136.8801   78.2170  220.5387 H   0  0  0  0  0  0  0  0  0  0  0  0
  136.5162   79.6387  221.6338 H   0  0  0  0  0  0  0  0  0  0  0  0
  138.4828   79.8761  220.0800 H   0  0  0  0  0  0  0  0  0  0  0  0
  138.7447   80.1814  221.8603 H   0  0  0  0  0  0  0  0  0  0  0  0
  139.8506   78.3102  220.0304 H   0  0  0  0  0  0  0  0  0  0  0  0
  141.8081   78.5875  221.2076 H   0  0  0  0  0  0  0  0  0  0  0  0
  140.8362   80.7562  220.6570 H   0  0  0  0  0  0  0  0  0  0  0  0
  140.0593   80.7860  222.3074 H   0  0  0  0  0  0  0  0  0  0  0  0
  142.7774   81.4904  221.4952 H   0  0  0  0  0  0  0  0  0  0  0  0
  141.8639   81.8758  222.9946 H   0  0  0  0  0  0  0  0  0  0  0  0
  143.3735   79.2732  222.3642 H   0  0  0  0  0  0  0  0  0  0  0  0
  143.8041   80.4551  223.6062 H   0  0  0  0  0  0  0  0  0  0  0  0
  142.4897   78.8032  224.7979 H   0  0  0  0  0  0  0  0  0  0  0  0
  141.3187   80.0948  224.5047 H   0  0  0  0  0  0  0  0  0  0  0  0
  141.6881   77.4355  223.0503 H   0  0  0  0  0  0  0  0  0  0  0  0
  140.1645   78.2359  223.6064 H   0  0  0  0  0  0  0  0  0  0  0  0
  139.2485   70.3562  221.9141 H   0  0  0  0  0  0  0  0  0  0  0  0
  139.1709   68.6764  223.7286 H   0  0  0  0  0  0  0  0  0  0  0  0
  139.6175   68.0530  225.9815 H   0  0  0  0  0  0  0  0  0  0  0  0
  141.4449   70.9151  228.6080 H   0  0  0  0  0  0  0  0  0  0  0  0
  141.5217   72.6074  226.7885 H   0  0  0  0  0  0  0  0  0  0  0  0
  1  2  2  0
  2  3  1  0
  3  4  1  0
  4  5  1  0
  5  6  2  0
  5  7  1  0
  7  8  1  0
  8  9  1  0
  9 10  1  0
 10 11  1  0
 11 12  1  0
 12 13  1  0
 13 14  1  0
 14 15  1  0
 15 16  1  0
 16 17  1  0
 17 18  1  0
  2 19  1  0
 19 20  2  0
 20 21  1  0
 21 22  2  0
 22 23  1  0
 23 24  2  0
 24 25  1  0
 24 26  1  0
 26 27  2  0
 27 28  1  0
 28 29  2  0
 12  7  1  0
 18 13  1  0
 29 19  1  0
 28 22  1  0
  3 30  1  0
  4 31  1  0
  4 32  1  0
  8 33  1  0
  8 34  1  0
  9 35  1  0
  9 36  1  0
 10 37  1  0
 10 38  1  0
 11 39  1  0
 11 40  1  0
 12 41  1  6
 13 42  1  0
 14 43  1  0
 14 44  1  0
 15 45  1  0
 15 46  1  0
 16 47  1  0
 16 48  1  0
 17 49  1  0
 17 50  1  0
 18 51  1  0
 18 52  1  0
 20 53  1  0
 21 54  1  0
 23 55  1  0
 26 56  1  0
 27 57  1  0
M  END
>  <meeko>  (13) 
{"free_energy": -8.76, "intermolecular_energy": -10.25, "internal_energy": -1.39, "cluster_size": 15, "cluster_id": 1, "rank_in_cluster": 1}

$$$$

     RDKit          3D

 57 60  0  0  0  0  0  0  0  0999 V2000
  139.7190   72.1420  220.7710 O   0  0  0  0  0  0  0  0  0  0  0  0
  139.7010   72.5450  221.9580 C   0  0  0  0  0  0  0  0  0  0  0  0
  139.5360   73.9580  222.1430 N   0  0  0  0  0  0  0  0  0  0  0  0
  139.4090   74.7510  220.9330 C   0  0  0  0  0  0  0  0  0  0  0  0
  139.6530   76.1550  221.3170 C   0  0  0  0  0  0  0  0  0  0  0  0
  139.3990   76.4680  222.5230 O   0  0  0  0  0  0  0  0  0  0  0  0
  140.1560   77.1380  220.3870 N   0  0  0  0  0  0  0  0  0  0  0  0
  139.3360   77.4320  219.2470 C   0  0  0  0  0  0  0  0  0  0  0  0
  140.1350   77.8030  218.0570 C   0  0  0  0  0  0  0  0  0  0  0  0
  141.6190   77.6650  218.1710 C   0  0  0  0  0  0  0  0  0  0  0  0
  142.1860   78.1980  219.4600 C   0  0  0  0  0  0  0  0  0  0  0  0
  141.4320   77.7470  220.6710 C   0  0  1  0  0  0  0  0  0  0  0  0
  141.2070   78.8180  221.7130 C   0  0  0  0  0  0  0  0  0  0  0  0
  141.6690   78.2830  223.0310 C   0  0  0  0  0  0  0  0  0  0  0  0
  141.4580   79.2510  224.1720 C   0  0  0  0  0  0  0  0  0  0  0  0
  141.0980   80.6300  223.6160 C   0  0  0  0  0  0  0  0  0  0  0  0
  142.1760   80.9500  222.5910 C   0  0  0  0  0  0  0  0  0  0  0  0
  141.8080   80.1380  221.3420 C   0  0  0  0  0  0  0  0  0  0  0  0
  139.8390   71.6400  223.0920 C   0  0  0  0  0  0  0  0  0  0  0  0
  139.4400   70.3410  222.9350 C   0  0  0  0  0  0  0  0  0  0  0  0
  139.5410   69.4310  223.9620 C   0  0  0  0  0  0  0  0  0  0  0  0
  140.0630   69.8490  225.1840 C   0  0  0  0  0  0  0  0  0  0  0  0
  140.1570   68.9200  226.2040 C   0  0  0  0  0  0  0  0  0  0  0  0
  140.6770   69.3540  227.4090 C   0  0  0  0  0  0  0  0  0  0  0  0
  140.8130   68.1990  228.7330 Cl  0  0  0  0  0  0  0  0  0  0  0  0
  141.0740   70.6580  227.5560 C   0  0  0  0  0  0  0  0  0  0  0  0
  140.9760   71.5810  226.5270 C   0  0  0  0  0  0  0  0  0  0  0  0
  140.4560   71.1450  225.3250 C   0  0  0  0  0  0  0  0  0  0  0  0
  140.3370   72.0090  224.2810 N   0  0  0  0  0  0  0  0  0  0  0  0
  139.5120   74.3600  223.1050 H   0  0  0  0  0  0  0  0  0  0  0  0
  140.1511   74.4274  220.1883 H   0  0  0  0  0  0  0  0  0  0  0  0
  138.4114   74.6315  220.4851 H   0  0  0  0  0  0  0  0  0  0  0  0
  138.7349   76.5429  219.0056 H   0  0  0  0  0  0  0  0  0  0  0  0
  138.6995   78.2914  219.5046 H   0  0  0  0  0  0  0  0  0  0  0  0
  139.8048   77.1663  217.2230 H   0  0  0  0  0  0  0  0  0  0  0  0
  139.9564   78.8791  217.9148 H   0  0  0  0  0  0  0  0  0  0  0  0
  141.8740   76.5976  218.0961 H   0  0  0  0  0  0  0  0  0  0  0  0
  142.0578   78.2631  217.3587 H   0  0  0  0  0  0  0  0  0  0  0  0
  143.2278   77.8566  219.5505 H   0  0  0  0  0  0  0  0  0  0  0  0
  142.1105   79.2947  219.4196 H   0  0  0  0  0  0  0  0  0  0  0  0
  142.1156   76.9883  221.0798 H   0  0  0  0  0  0  0  0  0  0  0  0
  140.1338   79.0488  221.7831 H   0  0  0  0  0  0  0  0  0  0  0  0
  141.1123   77.3595  223.2482 H   0  0  0  0  0  0  0  0  0  0  0  0
  142.7512   78.1030  222.9502 H   0  0  0  0  0  0  0  0  0  0  0  0
  140.6397   78.8895  224.8121 H   0  0  0  0  0  0  0  0  0  0  0  0
  142.3827   79.3257  224.7630 H   0  0  0  0  0  0  0  0  0  0  0  0
  140.1079   80.6049  223.1373 H   0  0  0  0  0  0  0  0  0  0  0  0
  141.0514   81.3902  224.4097 H   0  0  0  0  0  0  0  0  0  0  0  0
  142.1817   82.0259  222.3622 H   0  0  0  0  0  0  0  0  0  0  0  0
  143.1800   80.6960  222.9618 H   0  0  0  0  0  0  0  0  0  0  0  0
  141.0813   80.7080  220.7445 H   0  0  0  0  0  0  0  0  0  0  0  0
  142.7252   79.9532  220.7635 H   0  0  0  0  0  0  0  0  0  0  0  0
  139.0297   70.0171  221.9671 H   0  0  0  0  0  0  0  0  0  0  0  0
  139.2148   68.3901  223.8204 H   0  0  0  0  0  0  0  0  0  0  0  0
  139.8315   67.8789  226.0623 H   0  0  0  0  0  0  0  0  0  0  0  0
  141.4843   70.9826  228.5236 H   0  0  0  0  0  0  0  0  0  0  0  0
  141.3008   72.6231  226.6631 H   0  0  0  0  0  0  0  0  0  0  0  0
  1  2  2  0
  2  3  1  0
  3  4  1  0
  4  5  1  0
  5  6  2  0
  5  7  1  0
  7  8  1  0
  8  9  1  0
  9 10  1  0
 10 11  1  0
 11 12  1  0
 12 13  1  0
 13 14  1  0
 14 15  1  0
 15 16  1  0
 16 17  1  0
 17 18  1  0
  2 19  1  0
 19 20  2  0
 20 21  1  0
 21 22  2  0
 22 23  1  0
 23 24  2  0
 24 25  1  0
 24 26  1  0
 26 27  2  0
 27 28  1  0
 28 29  2  0
 12  7  1  0
 18 13  1  0
 29 19  1  0
 28 22  1  0
  3 30  1  0
  4 31  1  0
  4 32  1  0
  8 33  1  0
  8 34  1  0
  9 35  1  0
  9 36  1  0
 10 37  1  0
 10 38  1  0
 11 39  1  0
 11 40  1  0
 12 41  1  1
 13 42  1  0
 14 43  1  0
 14 44  1  0
 15 45  1  0
 15 46  1  0
 16 47  1  0
 16 48  1  0
 17 49  1  0
 17 50  1  0
 18 51  1  0
 18 52  1  0
 20 53  1  0
 21 54  1  0
 23 55  1  0
 26 56  1  0
 27 57  1  0
M  END
>  <meeko>  (14) 
{"free_energy": -8.64, "intermolecular_energy": -10.13, "internal_energy": -2.05, "cluster_size": 15, "cluster_id": 1, "rank_in_cluster": 7}

$$$$

     RDKit          3D

 57 60  0  0  0  0  0  0  0  0999 V2000
  138.9940   72.5460  221.0580 O   0  0  0  0  0  0  0  0  0  0  0  0
  139.7800   72.7370  222.0160 C   0  0  0  0  0  0  0  0  0  0  0  0
  140.5680   73.9340  221.9580 N   0  0  0  0  0  0  0  0  0  0  0  0
  140.3620   74.7800  220.7950 C   0  0  0  0  0  0  0  0  0  0  0  0
  140.7420   76.1490  221.1930 C   0  0  0  0  0  0  0  0  0  0  0  0
  141.0590   76.3210  222.4120 O   0  0  0  0  0  0  0  0  0  0  0  0
  140.7610   77.2520  220.2610 N   0  0  0  0  0  0  0  0  0  0  0  0
  139.7320   77.2720  219.2600 C   0  0  0  0  0  0  0  0  0  0  0  0
  140.1860   77.8950  217.9960 C   0  0  0  0  0  0  0  0  0  0  0  0
  141.6350   78.2480  217.9010 C   0  0  0  0  0  0  0  0  0  0  0  0
  142.1830   78.9250  219.1290 C   0  0  0  0  0  0  0  0  0  0  0  0
  141.8000   78.2410  220.4030 C   0  0  1  0  0  0  0  0  0  0  0  0
  141.3970   79.1700  221.5250 C   0  0  0  0  0  0  0  0  0  0  0  0
  142.4010   79.0270  222.6250 C   0  0  0  0  0  0  0  0  0  0  0  0
  142.0850   79.8800  223.8320 C   0  0  0  0  0  0  0  0  0  0  0  0
  140.9820   80.8790  223.4800 C   0  0  0  0  0  0  0  0  0  0  0  0
  141.4530   81.5740  222.2110 C   0  0  0  0  0  0  0  0  0  0  0  0
  141.1790   80.5800  221.0740 C   0  0  0  0  0  0  0  0  0  0  0  0
  139.8920   71.8050  223.1310 C   0  0  0  0  0  0  0  0  0  0  0  0
  139.4720   70.5170  222.9420 C   0  0  0  0  0  0  0  0  0  0  0  0
  139.5490   69.5830  223.9500 C   0  0  0  0  0  0  0  0  0  0  0  0
  140.0680   69.9660  225.1860 C   0  0  0  0  0  0  0  0  0  0  0  0
  140.1370   69.0130  226.1850 C   0  0  0  0  0  0  0  0  0  0  0  0
  140.6540   69.4120  227.4040 C   0  0  0  0  0  0  0  0  0  0  0  0
  140.7580   68.2260  228.7040 Cl  0  0  0  0  0  0  0  0  0  0  0  0
  141.0720   70.7050  227.5820 C   0  0  0  0  0  0  0  0  0  0  0  0
  140.9980   71.6520  226.5730 C   0  0  0  0  0  0  0  0  0  0  0  0
  140.4820   71.2510  225.3580 C   0  0  0  0  0  0  0  0  0  0  0  0
  140.3860   72.1400  224.3320 N   0  0  0  0  0  0  0  0  0  0  0  0
  141.2410   74.1550  222.7230 H   0  0  0  0  0  0  0  0  0  0  0  0
  140.9934   74.4386  219.9614 H   0  0  0  0  0  0  0  0  0  0  0  0
  139.3153   74.7421  220.4590 H   0  0  0  0  0  0  0  0  0  0  0  0
  139.4212   76.2375  219.0522 H   0  0  0  0  0  0  0  0  0  0  0  0
  138.8972   77.8733  219.6493 H   0  0  0  0  0  0  0  0  0  0  0  0
  139.9602   77.1935  217.1794 H   0  0  0  0  0  0  0  0  0  0  0  0
  139.6517   78.8549  217.9402 H   0  0  0  0  0  0  0  0  0  0  0  0
  142.2059   77.3230  217.7324 H   0  0  0  0  0  0  0  0  0  0  0  0
  141.7339   78.9644  217.0722 H   0  0  0  0  0  0  0  0  0  0  0  0
  143.2806   78.9415  219.0580 H   0  0  0  0  0  0  0  0  0  0  0  0
  141.7542   79.9375  219.1614 H   0  0  0  0  0  0  0  0  0  0  0  0
  142.7436   77.7433  220.6711 H   0  0  0  0  0  0  0  0  0  0  0  0
  140.4082   78.8803  221.9102 H   0  0  0  0  0  0  0  0  0  0  0  0
  142.4284   77.9731  222.9389 H   0  0  0  0  0  0  0  0  0  0  0  0
  143.3703   79.3649  222.2298 H   0  0  0  0  0  0  0  0  0  0  0  0
  141.7459   79.2359  224.6567 H   0  0  0  0  0  0  0  0  0  0  0  0
  142.9886   80.4269  224.1393 H   0  0  0  0  0  0  0  0  0  0  0  0
  140.0315   80.3550  223.3012 H   0  0  0  0  0  0  0  0  0  0  0  0
  140.8045   81.5952  224.2958 H   0  0  0  0  0  0  0  0  0  0  0  0
  140.8903   82.5056  222.0513 H   0  0  0  0  0  0  0  0  0  0  0  0
  142.5169   81.8480  222.2663 H   0  0  0  0  0  0  0  0  0  0  0  0
  140.1366   80.6934  220.7414 H   0  0  0  0  0  0  0  0  0  0  0  0
  141.8743   80.7937  220.2488 H   0  0  0  0  0  0  0  0  0  0  0  0
  139.0642   70.2215  221.9640 H   0  0  0  0  0  0  0  0  0  0  0  0
  139.2066   68.5511  223.7831 H   0  0  0  0  0  0  0  0  0  0  0  0
  139.7951   67.9810  226.0174 H   0  0  0  0  0  0  0  0  0  0  0  0
  141.4803   71.0013  228.5595 H   0  0  0  0  0  0  0  0  0  0  0  0
  141.3382   72.6855  226.7349 H   0  0  0  0  0  0  0  0  0  0  0  0
  1  2  2  0
  2  3  1  0
  3  4  1  0
  4  5  1  0
  5  6  2  0
  5  7  1  0
  7  8  1  0
  8  9  1  0
  9 10  1  0
 10 11  1  0
 11 12  1  0
 12 13  1  0
 13 14  1  0
 14 15  1  0
 15 16  1  0
 16 17  1  0
 17 18  1  0
  2 19  1  0
 19 20  2  0
 20 21  1  0
 21 22  2  0
 22 23  1  0
 23 24  2  0
 24 25  1  0
 24 26  1  0
 26 27  2  0
 27 28  1  0
 28 29  2  0
 12  7  1  0
 18 13  1  0
 29 19  1  0
 28 22  1  0
  3 30  1  0
  4 31  1  0
  4 32  1  0
  8 33  1  0
  8 34  1  0
  9 35  1  0
  9 36  1  0
 10 37  1  0
 10 38  1  0
 11 39  1  0
 11 40  1  0
 12 41  1  1
 13 42  1  0
 14 43  1  0
 14 44  1  0
 15 45  1  0
 15 46  1  0
 16 47  1  0
 16 48  1  0
 17 49  1  0
 17 50  1  0
 18 51  1  0
 18 52  1  0
 20 53  1  0
 21 54  1  0
 23 55  1  0
 26 56  1  0
 27 57  1  0
M  END
>  <meeko>  (15) 
{"free_energy": -8.1, "intermolecular_energy": -9.6, "internal_energy": -2.05, "cluster_size": 15, "cluster_id": 1, "rank_in_cluster": 15}

$$$$

     RDKit          3D

 57 60  0  0  0  0  0  0  0  0999 V2000
  140.2800   72.3120  220.8240 O   0  0  0  0  0  0  0  0  0  0  0  0
  139.9100   72.6280  221.9790 C   0  0  0  0  0  0  0  0  0  0  0  0
  139.3990   73.9590  222.1370 N   0  0  0  0  0  0  0  0  0  0  0  0
  139.3730   74.7800  220.9400 C   0  0  0  0  0  0  0  0  0  0  0  0
  140.6090   75.5870  220.9490 C   0  0  0  0  0  0  0  0  0  0  0  0
  141.6930   74.9680  220.7100 O   0  0  0  0  0  0  0  0  0  0  0  0
  140.6080   77.0060  221.2140 N   0  0  0  0  0  0  0  0  0  0  0  0
  141.2170   77.8500  220.2260 C   0  0  0  0  0  0  0  0  0  0  0  0
  141.8320   79.0590  220.8180 C   0  0  0  0  0  0  0  0  0  0  0  0
  141.8660   79.1370  222.3100 C   0  0  0  0  0  0  0  0  0  0  0  0
  140.5740   78.7390  222.9730 C   0  0  0  0  0  0  0  0  0  0  0  0
  140.0010   77.4660  222.4370 C   0  0  1  0  0  0  0  0  0  0  0  0
  138.5040   77.4840  222.2280 C   0  0  0  0  0  0  0  0  0  0  0  0
  137.9040   76.4240  223.0960 C   0  0  0  0  0  0  0  0  0  0  0  0
  136.4040   76.3110  222.9460 C   0  0  0  0  0  0  0  0  0  0  0  0
  135.8750   77.5130  222.1620 C   0  0  0  0  0  0  0  0  0  0  0  0
  136.4380   78.7380  222.8670 C   0  0  0  0  0  0  0  0  0  0  0  0
  137.8990   78.8410  222.4090 C   0  0  0  0  0  0  0  0  0  0  0  0
  139.9890   71.7040  223.1040 C   0  0  0  0  0  0  0  0  0  0  0  0
  139.5520   70.4210  222.9190 C   0  0  0  0  0  0  0  0  0  0  0  0
  139.5960   69.4950  223.9360 C   0  0  0  0  0  0  0  0  0  0  0  0
  140.0990   69.8810  225.1770 C   0  0  0  0  0  0  0  0  0  0  0  0
  140.1370   68.9350  226.1850 C   0  0  0  0  0  0  0  0  0  0  0  0
  140.6390   69.3370  227.4100 C   0  0  0  0  0  0  0  0  0  0  0  0
  140.7020   68.1610  228.7210 Cl  0  0  0  0  0  0  0  0  0  0  0  0
  141.0740   70.6260  227.5840 C   0  0  0  0  0  0  0  0  0  0  0  0
  141.0330   71.5640  226.5660 C   0  0  0  0  0  0  0  0  0  0  0  0
  140.5310   71.1610  225.3450 C   0  0  0  0  0  0  0  0  0  0  0  0
  140.4670   72.0420  224.3100 N   0  0  0  0  0  0  0  0  0  0  0  0
  139.0740   74.2860  223.0720 H   0  0  0  0  0  0  0  0  0  0  0  0
  139.3436   74.1424  220.0441 H   0  0  0  0  0  0  0  0  0  0  0  0
  138.4814   75.4240  220.9226 H   0  0  0  0  0  0  0  0  0  0  0  0
  141.9970   77.2765  219.7039 H   0  0  0  0  0  0  0  0  0  0  0  0
  140.4278   78.1797  219.5343 H   0  0  0  0  0  0  0  0  0  0  0  0
  142.8701   79.1142  220.4583 H   0  0  0  0  0  0  0  0  0  0  0  0
  141.1888   79.8932  220.5011 H   0  0  0  0  0  0  0  0  0  0  0  0
  142.6613   78.4696  222.6734 H   0  0  0  0  0  0  0  0  0  0  0  0
  142.0460   80.1906  222.5699 H   0  0  0  0  0  0  0  0  0  0  0  0
  140.7589   78.6123  224.0499 H   0  0  0  0  0  0  0  0  0  0  0  0
  139.8441   79.5361  222.7684 H   0  0  0  0  0  0  0  0  0  0  0  0
  140.2410   76.7636  223.2488 H   0  0  0  0  0  0  0  0  0  0  0  0
  138.2727   77.2514  221.1781 H   0  0  0  0  0  0  0  0  0  0  0  0
  138.3559   75.4570  222.8301 H   0  0  0  0  0  0  0  0  0  0  0  0
  138.1084   76.7019  224.1405 H   0  0  0  0  0  0  0  0  0  0  0  0
  136.1588   75.3848  222.4056 H   0  0  0  0  0  0  0  0  0  0  0  0
  135.9377   76.2905  223.9421 H   0  0  0  0  0  0  0  0  0  0  0  0
  136.2235   77.4755  221.1194 H   0  0  0  0  0  0  0  0  0  0  0  0
  134.7755   77.5288  222.1321 H   0  0  0  0  0  0  0  0  0  0  0  0
  135.8795   79.6397  222.5754 H   0  0  0  0  0  0  0  0  0  0  0  0
  136.3589   78.6511  223.9607 H   0  0  0  0  0  0  0  0  0  0  0  0
  137.9382   79.3823  221.4522 H   0  0  0  0  0  0  0  0  0  0  0  0
  138.4700   79.3780  223.1808 H   0  0  0  0  0  0  0  0  0  0  0  0
  139.1571   70.1232  221.9365 H   0  0  0  0  0  0  0  0  0  0  0  0
  139.2400   68.4672  223.7721 H   0  0  0  0  0  0  0  0  0  0  0  0
  139.7831   67.9066  226.0199 H   0  0  0  0  0  0  0  0  0  0  0  0
  141.4691   70.9251  228.5661 H   0  0  0  0  0  0  0  0  0  0  0  0
  141.3877   72.5931  226.7247 H   0  0  0  0  0  0  0  0  0  0  0  0
  1  2  2  0
  2  3  1  0
  3  4  1  0
  4  5  1  0
  5  6  2  0
  5  7  1  0
  7  8  1  0
  8  9  1  0
  9 10  1  0
 10 11  1  0
 11 12  1  0
 12 13  1  0
 13 14  1  0
 14 15  1  0
 15 16  1  0
 16 17  1  0
 17 18  1  0
  2 19  1  0
 19 20  2  0
 20 21  1  0
 21 22  2  0
 22 23  1  0
 23 24  2  0
 24 25  1  0
 24 26  1  0
 26 27  2  0
 27 28  1  0
 28 29  2  0
 12  7  1  0
 18 13  1  0
 29 19  1  0
 28 22  1  0
  3 30  1  0
  4 31  1  0
  4 32  1  0
  8 33  1  0
  8 34  1  0
  9 35  1  0
  9 36  1  0
 10 37  1  0
 10 38  1  0
 11 39  1  0
 11 40  1  0
 12 41  1  1
 13 42  1  0
 14 43  1  0
 14 44  1  0
 15 45  1  0
 15 46  1  0
 16 47  1  0
 16 48  1  0
 17 49  1  0
 17 50  1  0
 18 51  1  0
 18 52  1  0
 20 53  1  0
 21 54  1  0
 23 55  1  0
 26 56  1  0
 27 57  1  0
M  END
>  <meeko>  (16) 
{"free_energy": -8.11, "intermolecular_energy": -9.6, "internal_energy": -1.48, "cluster_size": 15, "cluster_id": 1, "rank_in_cluster": 14}

$$$$

     RDKit          3D

 57 60  0  0  0  0  0  0  0  0999 V2000
  140.4570   72.4230  220.8610 O   0  0  0  0  0  0  0  0  0  0  0  0
  140.0630   72.7350  222.0100 C   0  0  0  0  0  0  0  0  0  0  0  0
  139.5820   74.0770  222.1680 N   0  0  0  0  0  0  0  0  0  0  0  0
  139.6100   74.9120  220.9810 C   0  0  0  0  0  0  0  0  0  0  0  0
  140.7090   75.8800  221.1670 C   0  0  0  0  0  0  0  0  0  0  0  0
  140.7470   76.4900  222.2810 O   0  0  0  0  0  0  0  0  0  0  0  0
  141.7000   76.1340  220.1490 N   0  0  0  0  0  0  0  0  0  0  0  0
  142.2020   77.4760  220.0530 C   0  0  0  0  0  0  0  0  0  0  0  0
  142.5750   77.8410  218.6680 C   0  0  0  0  0  0  0  0  0  0  0  0
  142.2370   76.8550  217.5960 C   0  0  0  0  0  0  0  0  0  0  0  0
  142.5710   75.4300  217.9470 C   0  0  0  0  0  0  0  0  0  0  0  0
  142.1110   75.0330  219.3140 C   0  0  1  0  0  0  0  0  0  0  0  0
  143.1010   74.2060  220.1010 C   0  0  0  0  0  0  0  0  0  0  0  0
  143.1370   72.8360  219.5020 C   0  0  0  0  0  0  0  0  0  0  0  0
  144.0670   71.8930  220.2300 C   0  0  0  0  0  0  0  0  0  0  0  0
  144.9400   72.6830  221.2050 C   0  0  0  0  0  0  0  0  0  0  0  0
  145.5530   73.8070  220.3830 C   0  0  0  0  0  0  0  0  0  0  0  0
  144.4440   74.8550  220.2270 C   0  0  0  0  0  0  0  0  0  0  0  0
  140.0860   71.7970  223.1250 C   0  0  0  0  0  0  0  0  0  0  0  0
  139.5890   70.5390  222.9220 C   0  0  0  0  0  0  0  0  0  0  0  0
  139.5800   69.6020  223.9300 C   0  0  0  0  0  0  0  0  0  0  0  0
  140.0890   69.9500  225.1790 C   0  0  0  0  0  0  0  0  0  0  0  0
  140.0710   68.9930  226.1780 C   0  0  0  0  0  0  0  0  0  0  0  0
  140.5800   69.3580  227.4110 C   0  0  0  0  0  0  0  0  0  0  0  0
  140.5740   68.1670  228.7110 Cl  0  0  0  0  0  0  0  0  0  0  0  0
  141.0750   70.6220  227.6030 C   0  0  0  0  0  0  0  0  0  0  0  0
  141.0890   71.5710  226.5950 C   0  0  0  0  0  0  0  0  0  0  0  0
  140.5800   71.2060  225.3650 C   0  0  0  0  0  0  0  0  0  0  0  0
  140.5690   72.0990  224.3390 N   0  0  0  0  0  0  0  0  0  0  0  0
  139.2380   74.4030  223.0980 H   0  0  0  0  0  0  0  0  0  0  0  0
  139.7949   74.2959  220.0887 H   0  0  0  0  0  0  0  0  0  0  0  0
  138.6491   75.4280  220.8384 H   0  0  0  0  0  0  0  0  0  0  0  0
  141.4242   78.1701  220.4040 H   0  0  0  0  0  0  0  0  0  0  0  0
  143.1087   77.5401  220.6725 H   0  0  0  0  0  0  0  0  0  0  0  0
  142.0658   78.7851  218.4242 H   0  0  0  0  0  0  0  0  0  0  0  0
  143.6736   77.8968  218.6713 H   0  0  0  0  0  0  0  0  0  0  0  0
  141.1571   76.9180  217.3962 H   0  0  0  0  0  0  0  0  0  0  0  0
  142.8463   77.1177  216.7186 H   0  0  0  0  0  0  0  0  0  0  0  0
  142.0912   74.7677  217.2113 H   0  0  0  0  0  0  0  0  0  0  0  0
  143.6672   75.3399  217.9336 H   0  0  0  0  0  0  0  0  0  0  0  0
  141.2362   74.4109  219.0736 H   0  0  0  0  0  0  0  0  0  0  0  0
  142.7687   74.1250  221.1465 H   0  0  0  0  0  0  0  0  0  0  0  0
  142.1209   72.4155  219.5293 H   0  0  0  0  0  0  0  0  0  0  0  0
  143.5139   72.9383  218.4737 H   0  0  0  0  0  0  0  0  0  0  0  0
  143.4745   71.1523  220.7870 H   0  0  0  0  0  0  0  0  0  0  0  0
  144.7091   71.3782  219.5002 H   0  0  0  0  0  0  0  0  0  0  0  0
  144.3288   73.0936  222.0222 H   0  0  0  0  0  0  0  0  0  0  0  0
  145.7106   72.0493  221.6683 H   0  0  0  0  0  0  0  0  0  0  0  0
  146.4183   74.2386  220.9074 H   0  0  0  0  0  0  0  0  0  0  0  0
  145.9144   73.4482  219.4080 H   0  0  0  0  0  0  0  0  0  0  0  0
  144.4440   75.5117  221.1095 H   0  0  0  0  0  0  0  0  0  0  0  0
  144.6383   75.4348  219.3126 H   0  0  0  0  0  0  0  0  0  0  0  0
  139.1885   70.2708  221.9332 H   0  0  0  0  0  0  0  0  0  0  0  0
  139.1771   68.5940  223.7521 H   0  0  0  0  0  0  0  0  0  0  0  0
  139.6690   67.9848  225.9992 H   0  0  0  0  0  0  0  0  0  0  0  0
  141.4747   70.8914  228.5918 H   0  0  0  0  0  0  0  0  0  0  0  0
  141.4915   72.5800  226.7682 H   0  0  0  0  0  0  0  0  0  0  0  0
  1  2  2  0
  2  3  1  0
  3  4  1  0
  4  5  1  0
  5  6  2  0
  5  7  1  0
  7  8  1  0
  8  9  1  0
  9 10  1  0
 10 11  1  0
 11 12  1  0
 12 13  1  0
 13 14  1  0
 14 15  1  0
 15 16  1  0
 16 17  1  0
 17 18  1  0
  2 19  1  0
 19 20  2  0
 20 21  1  0
 21 22  2  0
 22 23  1  0
 23 24  2  0
 24 25  1  0
 24 26  1  0
 26 27  2  0
 27 28  1  0
 28 29  2  0
 12  7  1  0
 18 13  1  0
 29 19  1  0
 28 22  1  0
  3 30  1  0
  4 31  1  0
  4 32  1  0
  8 33  1  0
  8 34  1  0
  9 35  1  0
  9 36  1  0
 10 37  1  0
 10 38  1  0
 11 39  1  0
 11 40  1  0
 12 41  1  6
 13 42  1  0
 14 43  1  0
 14 44  1  0
 15 45  1  0
 15 46  1  0
 16 47  1  0
 16 48  1  0
 17 49  1  0
 17 50  1  0
 18 51  1  0
 18 52  1  0
 20 53  1  0
 21 54  1  0
 23 55  1  0
 26 56  1  0
 27 57  1  0
M  END
>  <meeko>  (17) 
{"free_energy": -8.45, "intermolecular_energy": -9.94, "internal_energy": -2.13, "cluster_size": 3, "cluster_id": 2, "rank_in_cluster": 1}

$$$$

     RDKit          3D

 57 60  0  0  0  0  0  0  0  0999 V2000
  139.8680   72.1510  220.7620 O   0  0  0  0  0  0  0  0  0  0  0  0
  139.7880   72.5440  221.9500 C   0  0  0  0  0  0  0  0  0  0  0  0
  139.5790   73.9510  222.1370 N   0  0  0  0  0  0  0  0  0  0  0  0
  139.4850   74.7500  220.9280 C   0  0  0  0  0  0  0  0  0  0  0  0
  139.8190   76.1370  221.3080 C   0  0  0  0  0  0  0  0  0  0  0  0
  139.7230   76.4270  222.5420 O   0  0  0  0  0  0  0  0  0  0  0  0
  140.2360   77.1270  220.3440 N   0  0  0  0  0  0  0  0  0  0  0  0
  139.3850   77.3220  219.2050 C   0  0  0  0  0  0  0  0  0  0  0  0
  140.1410   77.7170  217.9960 C   0  0  0  0  0  0  0  0  0  0  0  0
  141.6330   77.6990  218.0970 C   0  0  0  0  0  0  0  0  0  0  0  0
  142.1680   78.3130  219.3630 C   0  0  0  0  0  0  0  0  0  0  0  0
  141.4620   77.8410  220.5950 C   0  0  1  0  0  0  0  0  0  0  0  0
  141.1640   78.9230  221.6080 C   0  0  0  0  0  0  0  0  0  0  0  0
  141.8240   78.5440  222.8950 C   0  0  0  0  0  0  0  0  0  0  0  0
  141.5650   79.5310  224.0090 C   0  0  0  0  0  0  0  0  0  0  0  0
  140.9390   80.8020  223.4340 C   0  0  0  0  0  0  0  0  0  0  0  0
  141.8540   81.2260  222.2940 C   0  0  0  0  0  0  0  0  0  0  0  0
  141.5090   80.2970  221.1230 C   0  0  0  0  0  0  0  0  0  0  0  0
  139.8990   71.6330  223.0820 C   0  0  0  0  0  0  0  0  0  0  0  0
  139.4660   70.3450  222.9210 C   0  0  0  0  0  0  0  0  0  0  0  0
  139.5410   69.4310  223.9470 C   0  0  0  0  0  0  0  0  0  0  0  0
  140.0690   69.8340  225.1720 C   0  0  0  0  0  0  0  0  0  0  0  0
  140.1360   68.9000  226.1890 C   0  0  0  0  0  0  0  0  0  0  0  0
  140.6640   69.3180  227.3980 C   0  0  0  0  0  0  0  0  0  0  0  0
  140.7650   68.1580  228.7200 Cl  0  0  0  0  0  0  0  0  0  0  0  0
  141.0940   70.6120  227.5480 C   0  0  0  0  0  0  0  0  0  0  0  0
  141.0220   71.5380  226.5210 C   0  0  0  0  0  0  0  0  0  0  0  0
  140.4960   71.1180  225.3160 C   0  0  0  0  0  0  0  0  0  0  0  0
  140.4030   71.9880  224.2740 N   0  0  0  0  0  0  0  0  0  0  0  0
  139.5030   74.3440  223.1000 H   0  0  0  0  0  0  0  0  0  0  0  0
  140.1965   74.3818  220.1742 H   0  0  0  0  0  0  0  0  0  0  0  0
  138.4764   74.6913  220.4928 H   0  0  0  0  0  0  0  0  0  0  0  0
  138.8525   76.3822  218.9971 H   0  0  0  0  0  0  0  0  0  0  0  0
  138.6864   78.1372  219.4445 H   0  0  0  0  0  0  0  0  0  0  0  0
  139.8542   77.0309  217.1854 H   0  0  0  0  0  0  0  0  0  0  0  0
  139.8772   78.7709  217.8235 H   0  0  0  0  0  0  0  0  0  0  0  0
  141.9703   76.6530  218.0504 H   0  0  0  0  0  0  0  0  0  0  0  0
  142.0160   78.3049  217.2626 H   0  0  0  0  0  0  0  0  0  0  0  0
  143.2340   78.0566  219.4518 H   0  0  0  0  0  0  0  0  0  0  0  0
  142.0069   79.3988  219.2914 H   0  0  0  0  0  0  0  0  0  0  0  0
  142.2058   77.1497  221.0178 H   0  0  0  0  0  0  0  0  0  0  0  0
  140.0786   78.9874  221.7744 H   0  0  0  0  0  0  0  0  0  0  0  0
  141.4454   77.5590  223.2054 H   0  0  0  0  0  0  0  0  0  0  0  0
  142.9091   78.5312  222.7149 H   0  0  0  0  0  0  0  0  0  0  0  0
  140.8774   79.0836  224.7418 H   0  0  0  0  0  0  0  0  0  0  0  0
  142.5157   79.7830  224.5017 H   0  0  0  0  0  0  0  0  0  0  0  0
  139.9263   80.5954  223.0576 H   0  0  0  0  0  0  0  0  0  0  0  0
  140.8433   81.5902  224.1953 H   0  0  0  0  0  0  0  0  0  0  0  0
  141.6665   82.2748  222.0206 H   0  0  0  0  0  0  0  0  0  0  0  0
  142.9152   81.1522  222.5740 H   0  0  0  0  0  0  0  0  0  0  0  0
  140.6489   80.7117  220.5769 H   0  0  0  0  0  0  0  0  0  0  0  0
  142.3870   80.2246  220.4643 H   0  0  0  0  0  0  0  0  0  0  0  0
  139.0495   70.0338  221.9516 H   0  0  0  0  0  0  0  0  0  0  0  0
  139.1897   68.3987  223.8024 H   0  0  0  0  0  0  0  0  0  0  0  0
  139.7844   67.8679  226.0434 H   0  0  0  0  0  0  0  0  0  0  0  0
  141.5101   70.9246  228.5171 H   0  0  0  0  0  0  0  0  0  0  0  0
  141.3716   72.5716  226.6605 H   0  0  0  0  0  0  0  0  0  0  0  0
  1  2  2  0
  2  3  1  0
  3  4  1  0
  4  5  1  0
  5  6  2  0
  5  7  1  0
  7  8  1  0
  8  9  1  0
  9 10  1  0
 10 11  1  0
 11 12  1  0
 12 13  1  0
 13 14  1  0
 14 15  1  0
 15 16  1  0
 16 17  1  0
 17 18  1  0
  2 19  1  0
 19 20  2  0
 20 21  1  0
 21 22  2  0
 22 23  1  0
 23 24  2  0
 24 25  1  0
 24 26  1  0
 26 27  2  0
 27 28  1  0
 28 29  2  0
 12  7  1  0
 18 13  1  0
 29 19  1  0
 28 22  1  0
  3 30  1  0
  4 31  1  0
  4 32  1  0
  8 33  1  0
  8 34  1  0
  9 35  1  0
  9 36  1  0
 10 37  1  0
 10 38  1  0
 11 39  1  0
 11 40  1  0
 12 41  1  1
 13 42  1  0
 14 43  1  0
 14 44  1  0
 15 45  1  0
 15 46  1  0
 16 47  1  0
 16 48  1  0
 17 49  1  0
 17 50  1  0
 18 51  1  0
 18 52  1  0
 20 53  1  0
 21 54  1  0
 23 55  1  0
 26 56  1  0
 27 57  1  0
M  END
>  <meeko>  (18) 
{"free_energy": -8.63, "intermolecular_energy": -10.12, "internal_energy": -2.05, "cluster_size": 15, "cluster_id": 1, "rank_in_cluster": 8}

$$$$

     RDKit          3D

 57 60  0  0  0  0  0  0  0  0999 V2000
  140.0830   72.2080  220.7870 O   0  0  0  0  0  0  0  0  0  0  0  0
  139.8220   72.5640  221.9610 C   0  0  0  0  0  0  0  0  0  0  0  0
  139.4180   73.9300  222.1310 N   0  0  0  0  0  0  0  0  0  0  0  0
  139.3610   74.7360  220.9240 C   0  0  0  0  0  0  0  0  0  0  0  0
  139.6950   76.1180  221.3190 C   0  0  0  0  0  0  0  0  0  0  0  0
  139.5380   76.4130  222.5460 O   0  0  0  0  0  0  0  0  0  0  0  0
  140.1780   77.0990  220.3780 N   0  0  0  0  0  0  0  0  0  0  0  0
  139.3440   77.3740  219.2420 C   0  0  0  0  0  0  0  0  0  0  0  0
  140.1280   77.7450  218.0420 C   0  0  0  0  0  0  0  0  0  0  0  0
  141.6140   77.6260  218.1450 C   0  0  0  0  0  0  0  0  0  0  0  0
  142.1860   78.1760  219.4240 C   0  0  0  0  0  0  0  0  0  0  0  0
  141.4490   77.7260  220.6450 C   0  0  1  0  0  0  0  0  0  0  0  0
  141.2200   78.8020  221.6810 C   0  0  0  0  0  0  0  0  0  0  0  0
  141.6750   78.2740  223.0040 C   0  0  0  0  0  0  0  0  0  0  0  0
  141.4600   79.2480  224.1390 C   0  0  0  0  0  0  0  0  0  0  0  0
  141.1030   80.6240  223.5740 C   0  0  0  0  0  0  0  0  0  0  0  0
  142.1860   80.9370  222.5520 C   0  0  0  0  0  0  0  0  0  0  0  0
  141.8240   80.1200  221.3060 C   0  0  0  0  0  0  0  0  0  0  0  0
  139.9180   71.6510  223.0930 C   0  0  0  0  0  0  0  0  0  0  0  0
  139.4800   70.3660  222.9270 C   0  0  0  0  0  0  0  0  0  0  0  0
  139.5410   69.4500  223.9520 C   0  0  0  0  0  0  0  0  0  0  0  0
  140.0620   69.8480  225.1820 C   0  0  0  0  0  0  0  0  0  0  0  0
  140.1160   68.9130  226.1990 C   0  0  0  0  0  0  0  0  0  0  0  0
  140.6360   69.3270  227.4120 C   0  0  0  0  0  0  0  0  0  0  0  0
  140.7200   68.1640  228.7330 Cl  0  0  0  0  0  0  0  0  0  0  0  0
  141.0720   70.6180  227.5670 C   0  0  0  0  0  0  0  0  0  0  0  0
  141.0140   71.5460  226.5400 C   0  0  0  0  0  0  0  0  0  0  0  0
  140.4950   71.1310  225.3310 C   0  0  0  0  0  0  0  0  0  0  0  0
  140.4150   72.0010  224.2890 N   0  0  0  0  0  0  0  0  0  0  0  0
  139.1860   74.2920  223.0810 H   0  0  0  0  0  0  0  0  0  0  0  0
  140.0889   74.3663  220.1868 H   0  0  0  0  0  0  0  0  0  0  0  0
  138.3634   74.6870  220.4630 H   0  0  0  0  0  0  0  0  0  0  0  0
  138.7517   76.4758  219.0131 H   0  0  0  0  0  0  0  0  0  0  0  0
  138.6994   78.2277  219.4983 H   0  0  0  0  0  0  0  0  0  0  0  0
  139.7987   77.0975  217.2160 H   0  0  0  0  0  0  0  0  0  0  0  0
  139.9348   78.8175  217.8921 H   0  0  0  0  0  0  0  0  0  0  0  0
  141.8811   76.5611  218.0766 H   0  0  0  0  0  0  0  0  0  0  0  0
  142.0383   78.2232  217.3244 H   0  0  0  0  0  0  0  0  0  0  0  0
  143.2326   77.8479  219.5075 H   0  0  0  0  0  0  0  0  0  0  0  0
  142.0967   79.2713  219.3755 H   0  0  0  0  0  0  0  0  0  0  0  0
  142.1463   76.9795  221.0530 H   0  0  0  0  0  0  0  0  0  0  0  0
  140.1465   79.0332  221.7451 H   0  0  0  0  0  0  0  0  0  0  0  0
  141.1162   77.3523  223.2236 H   0  0  0  0  0  0  0  0  0  0  0  0
  142.7574   78.0928  222.9291 H   0  0  0  0  0  0  0  0  0  0  0  0
  140.6390   78.8903  224.7777 H   0  0  0  0  0  0  0  0  0  0  0  0
  142.3823   79.3254  224.7335 H   0  0  0  0  0  0  0  0  0  0  0  0
  140.1150   80.5968  223.0912 H   0  0  0  0  0  0  0  0  0  0  0  0
  141.0530   81.3888  224.3630 H   0  0  0  0  0  0  0  0  0  0  0  0
  142.1941   82.0117  222.3177 H   0  0  0  0  0  0  0  0  0  0  0  0
  143.1877   80.6830  222.9290 H   0  0  0  0  0  0  0  0  0  0  0  0
  141.1007   80.6876  220.7021 H   0  0  0  0  0  0  0  0  0  0  0  0
  142.7438   79.9319  220.7328 H   0  0  0  0  0  0  0  0  0  0  0  0
  139.0703   70.0583  221.9536 H   0  0  0  0  0  0  0  0  0  0  0  0
  139.1843   68.4201  223.8031 H   0  0  0  0  0  0  0  0  0  0  0  0
  139.7603   67.8829  226.0497 H   0  0  0  0  0  0  0  0  0  0  0  0
  141.4817   70.9272  228.5399 H   0  0  0  0  0  0  0  0  0  0  0  0
  141.3692   72.5771  226.6834 H   0  0  0  0  0  0  0  0  0  0  0  0
  1  2  2  0
  2  3  1  0
  3  4  1  0
  4  5  1  0
  5  6  2  0
  5  7  1  0
  7  8  1  0
  8  9  1  0
  9 10  1  0
 10 11  1  0
 11 12  1  0
 12 13  1  0
 13 14  1  0
 14 15  1  0
 15 16  1  0
 16 17  1  0
 17 18  1  0
  2 19  1  0
 19 20  2  0
 20 21  1  0
 21 22  2  0
 22 23  1  0
 23 24  2  0
 24 25  1  0
 24 26  1  0
 26 27  2  0
 27 28  1  0
 28 29  2  0
 12  7  1  0
 18 13  1  0
 29 19  1  0
 28 22  1  0
  3 30  1  0
  4 31  1  0
  4 32  1  0
  8 33  1  0
  8 34  1  0
  9 35  1  0
  9 36  1  0
 10 37  1  0
 10 38  1  0
 11 39  1  0
 11 40  1  0
 12 41  1  1
 13 42  1  0
 14 43  1  0
 14 44  1  0
 15 45  1  0
 15 46  1  0
 16 47  1  0
 16 48  1  0
 17 49  1  0
 17 50  1  0
 18 51  1  0
 18 52  1  0
 20 53  1  0
 21 54  1  0
 23 55  1  0
 26 56  1  0
 27 57  1  0
M  END
>  <meeko>  (19) 
{"free_energy": -8.71, "intermolecular_energy": -10.2, "internal_energy": -1.96, "cluster_size": 15, "cluster_id": 1, "rank_in_cluster": 2}

$$$$

     RDKit          3D

 57 60  0  0  0  0  0  0  0  0999 V2000
  138.8510   72.8910  220.7620 O   0  0  0  0  0  0  0  0  0  0  0  0
  138.5190   73.7370  221.6260 C   0  0  0  0  0  0  0  0  0  0  0  0
  137.3630   73.4180  222.4120 N   0  0  0  0  0  0  0  0  0  0  0  0
  136.7140   72.1540  222.1120 C   0  0  0  0  0  0  0  0  0  0  0  0
  137.0090   71.2460  223.2380 C   0  0  0  0  0  0  0  0  0  0  0  0
  136.2860   71.3740  224.2760 O   0  0  0  0  0  0  0  0  0  0  0  0
  138.0600   70.2580  223.1840 N   0  0  0  0  0  0  0  0  0  0  0  0
  138.7840   70.1470  221.9500 C   0  0  0  0  0  0  0  0  0  0  0  0
  139.2550   68.7670  221.6930 C   0  0  0  0  0  0  0  0  0  0  0  0
  138.7870   67.7080  222.6390 C   0  0  0  0  0  0  0  0  0  0  0  0
  138.8650   68.1050  224.0890 C   0  0  0  0  0  0  0  0  0  0  0  0
  138.3030   69.4640  224.3630 C   0  0  1  0  0  0  0  0  0  0  0  0
  139.1150   70.3040  225.3210 C   0  0  0  0  0  0  0  0  0  0  0  0
  139.3960   69.4770  226.5360 C   0  0  0  0  0  0  0  0  0  0  0  0
  140.1720   70.2230  227.5960 C   0  0  0  0  0  0  0  0  0  0  0  0
  140.7120   71.5300  227.0140 C   0  0  0  0  0  0  0  0  0  0  0  0
  141.4360   71.1370  225.7350 C   0  0  0  0  0  0  0  0  0  0  0  0
  140.3340   70.9050  224.6930 C   0  0  0  0  0  0  0  0  0  0  0  0
  139.2600   74.9760  221.8290 C   0  0  0  0  0  0  0  0  0  0  0  0
  140.5750   75.0130  221.4530 C   0  0  0  0  0  0  0  0  0  0  0  0
  141.3350   76.1480  221.6140 C   0  0  0  0  0  0  0  0  0  0  0  0
  140.7450   77.2800  222.1740 C   0  0  0  0  0  0  0  0  0  0  0  0
  141.5250   78.4110  222.3270 C   0  0  0  0  0  0  0  0  0  0  0  0
  140.9230   79.5240  222.8850 C   0  0  0  0  0  0  0  0  0  0  0  0
  141.8840   80.9860  223.0980 Cl  0  0  0  0  0  0  0  0  0  0  0  0
  139.6040   79.4760  223.2580 C   0  0  0  0  0  0  0  0  0  0  0  0
  138.8320   78.3370  223.0990 C   0  0  0  0  0  0  0  0  0  0  0  0
  139.4360   77.2280  222.5430 C   0  0  0  0  0  0  0  0  0  0  0  0
  138.7230   76.0830  222.3640 N   0  0  0  0  0  0  0  0  0  0  0  0
  137.0330   74.0780  223.1490 H   0  0  0  0  0  0  0  0  0  0  0  0
  135.6278   72.2991  222.0169 H   0  0  0  0  0  0  0  0  0  0  0  0
  137.0806   71.7374  221.1622 H   0  0  0  0  0  0  0  0  0  0  0  0
  138.1247   70.4544  221.1249 H   0  0  0  0  0  0  0  0  0  0  0  0
  139.6697   70.7953  222.0218 H   0  0  0  0  0  0  0  0  0  0  0  0
  138.9204   68.4836  220.6842 H   0  0  0  0  0  0  0  0  0  0  0  0
  140.3467   68.8066  221.8223 H   0  0  0  0  0  0  0  0  0  0  0  0
  137.7397   67.4700  222.4013 H   0  0  0  0  0  0  0  0  0  0  0  0
  139.4572   66.8456  222.5085 H   0  0  0  0  0  0  0  0  0  0  0  0
  138.3033   67.3690  224.6829 H   0  0  0  0  0  0  0  0  0  0  0  0
  139.9303   68.1327  224.3617 H   0  0  0  0  0  0  0  0  0  0  0  0
  137.3431   69.2086  224.8357 H   0  0  0  0  0  0  0  0  0  0  0  0
  138.5343   71.1881  225.6230 H   0  0  0  0  0  0  0  0  0  0  0  0
  138.4376   69.1524  226.9675 H   0  0  0  0  0  0  0  0  0  0  0  0
  140.0142   68.6252  226.2164 H   0  0  0  0  0  0  0  0  0  0  0  0
  139.5093   70.4468  228.4450 H   0  0  0  0  0  0  0  0  0  0  0  0
  141.0125   69.6013  227.9380 H   0  0  0  0  0  0  0  0  0  0  0  0
  139.8863   72.2218  226.7913 H   0  0  0  0  0  0  0  0  0  0  0  0
  141.3804   72.0454  227.7194 H   0  0  0  0  0  0  0  0  0  0  0  0
  142.1079   71.9451  225.4101 H   0  0  0  0  0  0  0  0  0  0  0  0
  142.0573   70.2405  225.8775 H   0  0  0  0  0  0  0  0  0  0  0  0
  140.0643   71.8681  224.2351 H   0  0  0  0  0  0  0  0  0  0  0  0
  140.7144   70.2076  223.9321 H   0  0  0  0  0  0  0  0  0  0  0  0
  141.0343   74.1158  221.0125 H   0  0  0  0  0  0  0  0  0  0  0  0
  142.3909   76.1622  221.3060 H   0  0  0  0  0  0  0  0  0  0  0  0
  142.5805   78.4251  222.0178 H   0  0  0  0  0  0  0  0  0  0  0  0
  139.1435   80.3726  223.6984 H   0  0  0  0  0  0  0  0  0  0  0  0
  137.7756   78.3173  223.4049 H   0  0  0  0  0  0  0  0  0  0  0  0
  1  2  2  0
  2  3  1  0
  3  4  1  0
  4  5  1  0
  5  6  2  0
  5  7  1  0
  7  8  1  0
  8  9  1  0
  9 10  1  0
 10 11  1  0
 11 12  1  0
 12 13  1  0
 13 14  1  0
 14 15  1  0
 15 16  1  0
 16 17  1  0
 17 18  1  0
  2 19  1  0
 19 20  2  0
 20 21  1  0
 21 22  2  0
 22 23  1  0
 23 24  2  0
 24 25  1  0
 24 26  1  0
 26 27  2  0
 27 28  1  0
 28 29  2  0
 12  7  1  0
 18 13  1  0
 29 19  1  0
 28 22  1  0
  3 30  1  0
  4 31  1  0
  4 32  1  0
  8 33  1  0
  8 34  1  0
  9 35  1  0
  9 36  1  0
 10 37  1  0
 10 38  1  0
 11 39  1  0
 11 40  1  0
 12 41  1  1
 13 42  1  0
 14 43  1  0
 14 44  1  0
 15 45  1  0
 15 46  1  0
 16 47  1  0
 16 48  1  0
 17 49  1  0
 17 50  1  0
 18 51  1  0
 18 52  1  0
 20 53  1  0
 21 54  1  0
 23 55  1  0
 26 56  1  0
 27 57  1  0
M  END
>  <meeko>  (20) 
{"free_energy": -7.88, "intermolecular_energy": -9.37, "internal_energy": -1.9, "cluster_size": 1, "cluster_id": 4, "rank_in_cluster": 1}

$$$$
