
     RDKit          3D

 45 47  0  0  0  0  0  0  0  0999 V2000
  145.7410   73.4700  220.4310 C   0  0  0  0  0  0  0  0  0  0  0  0
  144.5990   73.6870  221.2340 O   0  0  0  0  0  0  0  0  0  0  0  0
  143.5090   73.8660  220.4260 C   0  0  0  0  0  0  0  0  0  0  0  0
  143.3370   75.2680  219.9770 C   0  0  1  0  0  0  0  0  0  0  0  0
  143.1340   75.4020  218.4790 C   0  0  0  0  0  0  0  0  0  0  0  0
  142.5580   76.8060  218.3540 C   0  0  0  0  0  0  0  0  0  0  0  0
  142.2010   77.2540  219.7700 C   0  0  0  0  0  0  0  0  0  0  0  0
  142.1460   75.9400  220.4460 N   0  0  0  0  0  0  0  0  0  0  0  0
  141.1240   75.5240  221.3300 C   0  0  0  0  0  0  0  0  0  0  0  0
  140.7400   76.1670  222.3370 O   0  0  0  0  0  0  0  0  0  0  0  0
  140.4230   74.2230  221.0790 C   0  0  0  0  0  0  0  0  0  0  0  0
  140.0980   73.5630  222.3290 N   0  0  0  0  0  0  0  0  0  0  0  0
  140.5920   72.2330  222.4930 C   0  0  0  0  0  0  0  0  0  0  0  0
  141.2630   71.7780  221.5140 O   0  0  0  0  0  0  0  0  0  0  0  0
  140.3440   71.4510  223.6930 C   0  0  0  0  0  0  0  0  0  0  0  0
  139.6830   70.2520  223.5540 C   0  0  0  0  0  0  0  0  0  0  0  0
  139.3910   69.4230  224.6210 C   0  0  0  0  0  0  0  0  0  0  0  0
  139.7870   69.8280  225.8840 C   0  0  0  0  0  0  0  0  0  0  0  0
  139.5070   69.0160  226.9630 C   0  0  0  0  0  0  0  0  0  0  0  0
  139.9130   69.4420  228.2170 C   0  0  0  0  0  0  0  0  0  0  0  0
  140.5730   70.6410  228.3450 C   0  0  0  0  0  0  0  0  0  0  0  0
  140.8580   71.4640  227.2570 C   0  0  0  0  0  0  0  0  0  0  0  0
  140.4530   71.0370  226.0110 C   0  0  0  0  0  0  0  0  0  0  0  0
  140.7140   71.8150  224.9230 N   0  0  0  0  0  0  0  0  0  0  0  0
  146.6165   73.3037  221.0759 H   0  0  0  0  0  0  0  0  0  0  0  0
  145.5802   72.5863  219.7960 H   0  0  0  0  0  0  0  0  0  0  0  0
  145.9155   74.3511  219.7960 H   0  0  0  0  0  0  0  0  0  0  0  0
  143.6234   73.2265  219.5383 H   0  0  0  0  0  0  0  0  0  0  0  0
  142.6190   73.6008  221.0155 H   0  0  0  0  0  0  0  0  0  0  0  0
  144.2665   75.7018  220.3743 H   0  0  0  0  0  0  0  0  0  0  0  0
  144.0877   75.3131  217.9382 H   0  0  0  0  0  0  0  0  0  0  0  0
  142.4885   74.6213  218.0504 H   0  0  0  0  0  0  0  0  0  0  0  0
  143.3042   77.4857  217.9168 H   0  0  0  0  0  0  0  0  0  0  0  0
  141.6752   76.8176  217.6979 H   0  0  0  0  0  0  0  0  0  0  0  0
  142.9773   77.9032  220.2012 H   0  0  0  0  0  0  0  0  0  0  0  0
  141.2836   77.8557  219.8492 H   0  0  0  0  0  0  0  0  0  0  0  0
  139.4948   74.4154  220.5209 H   0  0  0  0  0  0  0  0  0  0  0  0
  141.0906   73.5693  220.4985 H   0  0  0  0  0  0  0  0  0  0  0  0
  139.5360   74.0100  223.0910 H   0  0  0  0  0  0  0  0  0  0  0  0
  139.3724   69.9385  222.5464 H   0  0  0  0  0  0  0  0  0  0  0  0
  138.8605   68.4711  224.4710 H   0  0  0  0  0  0  0  0  0  0  0  0
  138.9781   68.0604  226.8320 H   0  0  0  0  0  0  0  0  0  0  0  0
  139.7086   68.8250  229.1044 H   0  0  0  0  0  0  0  0  0  0  0  0
  140.8893   70.9643  229.3477 H   0  0  0  0  0  0  0  0  0  0  0  0
  141.3869   72.4195  227.3881 H   0  0  0  0  0  0  0  0  0  0  0  0
  1  2  1  0
  2  3  1  0
  3  4  1  0
  4  5  1  0
  5  6  1  0
  6  7  1  0
  7  8  1  0
  8  9  1  0
  9 10  2  0
  9 11  1  0
 11 12  1  0
 12 13  1  0
 13 14  2  0
 13 15  1  0
 15 16  2  0
 16 17  1  0
 17 18  2  0
 18 19  1  0
 19 20  2  0
 20 21  1  0
 21 22  2  0
 22 23  1  0
 23 24  2  0
  8  4  1  0
 24 15  1  0
 23 18  1  0
  1 25  1  0
  1 26  1  0
  1 27  1  0
  3 28  1  0
  3 29  1  0
  4 30  1  1
  5 31  1  0
  5 32  1  0
  6 33  1  0
  6 34  1  0
  7 35  1  0
  7 36  1  0
 11 37  1  0
 11 38  1  0
 12 39  1  0
 16 40  1  0
 17 41  1  0
 19 42  1  0
 20 43  1  0
 21 44  1  0
 22 45  1  0
M  END
>  <meeko>  (1) 
{"free_energy": -6.95, "intermolecular_energy": -8.74, "internal_energy": -1.33, "cluster_size": 6, "cluster_id": 1, "rank_in_cluster": 2}

$$$$

     RDKit          3D

 45 47  0  0  0  0  0  0  0  0999 V2000
  141.4000   73.0660  220.9690 C   0  0  0  0  0  0  0  0  0  0  0  0
  140.8040   73.8380  221.9920 O   0  0  0  0  0  0  0  0  0  0  0  0
  140.8040   75.1550  221.6190 C   0  0  0  0  0  0  0  0  0  0  0  0
  139.7590   75.9560  222.2990 C   0  0  1  0  0  0  0  0  0  0  0  0
  139.9200   77.4510  222.1030 C   0  0  0  0  0  0  0  0  0  0  0  0
  138.5460   77.9800  222.4900 C   0  0  0  0  0  0  0  0  0  0  0  0
  137.6270   76.7630  222.5910 C   0  0  0  0  0  0  0  0  0  0  0  0
  138.4110   75.7870  221.8020 N   0  0  0  0  0  0  0  0  0  0  0  0
  137.8800   74.9310  220.8110 C   0  0  0  0  0  0  0  0  0  0  0  0
  137.6830   75.2540  219.6140 O   0  0  0  0  0  0  0  0  0  0  0  0
  137.5090   73.5260  221.1790 C   0  0  0  0  0  0  0  0  0  0  0  0
  138.2820   73.0700  222.3180 N   0  0  0  0  0  0  0  0  0  0  0  0
  138.2480   71.6690  222.5910 C   0  0  0  0  0  0  0  0  0  0  0  0
  137.5360   70.9770  221.7960 O   0  0  0  0  0  0  0  0  0  0  0  0
  138.9730   71.0720  223.7010 C   0  0  0  0  0  0  0  0  0  0  0  0
  140.0190   71.7830  224.2420 C   0  0  0  0  0  0  0  0  0  0  0  0
  140.7800   71.3190  225.2980 C   0  0  0  0  0  0  0  0  0  0  0  0
  140.4670   70.0800  225.8280 C   0  0  0  0  0  0  0  0  0  0  0  0
  141.2140   69.5980  226.8820 C   0  0  0  0  0  0  0  0  0  0  0  0
  140.8820   68.3550  227.3960 C   0  0  0  0  0  0  0  0  0  0  0  0
  139.8360   67.6520  226.8490 C   0  0  0  0  0  0  0  0  0  0  0  0
  139.0780   68.1360  225.7840 C   0  0  0  0  0  0  0  0  0  0  0  0
  139.4110   69.3730  225.2750 C   0  0  0  0  0  0  0  0  0  0  0  0
  138.6940   69.8800  224.2320 N   0  0  0  0  0  0  0  0  0  0  0  0
  142.0133   72.2716  221.4192 H   0  0  0  0  0  0  0  0  0  0  0  0
  140.6143   72.6140  220.3458 H   0  0  0  0  0  0  0  0  0  0  0  0
  142.0362   73.7117  220.3458 H   0  0  0  0  0  0  0  0  0  0  0  0
  141.7868   75.5863  221.8601 H   0  0  0  0  0  0  0  0  0  0  0  0
  140.5904   75.1885  220.5405 H   0  0  0  0  0  0  0  0  0  0  0  0
  139.8922   75.5929  223.3287 H   0  0  0  0  0  0  0  0  0  0  0  0
  140.7027   77.8568  222.7608 H   0  0  0  0  0  0  0  0  0  0  0  0
  140.2283   77.7306  221.0848 H   0  0  0  0  0  0  0  0  0  0  0  0
  138.5973   78.4992  223.4584 H   0  0  0  0  0  0  0  0  0  0  0  0
  138.1728   78.7006  221.7474 H   0  0  0  0  0  0  0  0  0  0  0  0
  137.4958   76.4352  223.6328 H   0  0  0  0  0  0  0  0  0  0  0  0
  136.5984   76.9270  222.2374 H   0  0  0  0  0  0  0  0  0  0  0  0
  136.4391   73.4901  221.4318 H   0  0  0  0  0  0  0  0  0  0  0  0
  137.7227   72.8695  220.3227 H   0  0  0  0  0  0  0  0  0  0  0  0
  138.8460   73.7080  222.9270 H   0  0  0  0  0  0  0  0  0  0  0  0
  140.2610   72.7670  223.8140 H   0  0  0  0  0  0  0  0  0  0  0  0
  141.6092   71.9165  225.7047 H   0  0  0  0  0  0  0  0  0  0  0  0
  142.0468   70.1816  227.3013 H   0  0  0  0  0  0  0  0  0  0  0  0
  141.4524   67.9336  228.2369 H   0  0  0  0  0  0  0  0  0  0  0  0
  139.5863   66.6664  227.2689 H   0  0  0  0  0  0  0  0  0  0  0  0
  138.2449   67.5524  225.3652 H   0  0  0  0  0  0  0  0  0  0  0  0
  1  2  1  0
  2  3  1  0
  3  4  1  0
  4  5  1  0
  5  6  1  0
  6  7  1  0
  7  8  1  0
  8  9  1  0
  9 10  2  0
  9 11  1  0
 11 12  1  0
 12 13  1  0
 13 14  2  0
 13 15  1  0
 15 16  2  0
 16 17  1  0
 17 18  2  0
 18 19  1  0
 19 20  2  0
 20 21  1  0
 21 22  2  0
 22 23  1  0
 23 24  2  0
  8  4  1  0
 24 15  1  0
 23 18  1  0
  1 25  1  0
  1 26  1  0
  1 27  1  0
  3 28  1  0
  3 29  1  0
  4 30  1  1
  5 31  1  0
  5 32  1  0
  6 33  1  0
  6 34  1  0
  7 35  1  0
  7 36  1  0
 11 37  1  0
 11 38  1  0
 12 39  1  0
 16 40  1  0
 17 41  1  0
 19 42  1  0
 20 43  1  0
 21 44  1  0
 22 45  1  0
M  END
>  <meeko>  (2) 
{"free_energy": -6.06, "intermolecular_energy": -7.85, "internal_energy": -2.09, "cluster_size": 6, "cluster_id": 4, "rank_in_cluster": 2}

$$$$

     RDKit          3D

 45 47  0  0  0  0  0  0  0  0999 V2000
  138.5180   68.0740  222.8590 C   0  0  0  0  0  0  0  0  0  0  0  0
  138.8760   67.6530  224.1600 O   0  0  0  0  0  0  0  0  0  0  0  0
  138.4130   68.5640  225.0700 C   0  0  0  0  0  0  0  0  0  0  0  0
  139.1790   68.5650  226.3390 C   0  0  1  0  0  0  0  0  0  0  0  0
  140.1900   67.4390  226.4360 C   0  0  0  0  0  0  0  0  0  0  0  0
  141.1010   67.9150  227.5590 C   0  0  0  0  0  0  0  0  0  0  0  0
  140.7380   69.3770  227.8180 C   0  0  0  0  0  0  0  0  0  0  0  0
  140.0530   69.6980  226.5480 N   0  0  0  0  0  0  0  0  0  0  0  0
  140.2690   70.8660  225.7820 C   0  0  0  0  0  0  0  0  0  0  0  0
  140.6470   71.9700  226.2470 O   0  0  0  0  0  0  0  0  0  0  0  0
  140.0410   70.8250  224.3010 C   0  0  0  0  0  0  0  0  0  0  0  0
  140.3440   72.1080  223.6970 N   0  0  0  0  0  0  0  0  0  0  0  0
  140.6780   72.0940  222.3080 C   0  0  0  0  0  0  0  0  0  0  0  0
  140.6710   70.9480  221.7580 O   0  0  0  0  0  0  0  0  0  0  0  0
  141.0050   73.3050  221.5720 C   0  0  0  0  0  0  0  0  0  0  0  0
  141.6810   73.1700  220.3810 C   0  0  0  0  0  0  0  0  0  0  0  0
  142.0450   74.2470  219.5950 C   0  0  0  0  0  0  0  0  0  0  0  0
  141.7090   75.5150  220.0350 C   0  0  0  0  0  0  0  0  0  0  0  0
  142.0620   76.6040  219.2660 C   0  0  0  0  0  0  0  0  0  0  0  0
  141.7140   77.8630  219.7270 C   0  0  0  0  0  0  0  0  0  0  0  0
  141.0390   77.9860  220.9170 C   0  0  0  0  0  0  0  0  0  0  0  0
  140.6800   76.8890  221.6970 C   0  0  0  0  0  0  0  0  0  0  0  0
  141.0270   75.6370  221.2360 C   0  0  0  0  0  0  0  0  0  0  0  0
  140.6930   74.5400  221.9720 N   0  0  0  0  0  0  0  0  0  0  0  0
  137.8068   68.9104  222.9270 H   0  0  0  0  0  0  0  0  0  0  0  0
  139.4185   68.4014  222.3188 H   0  0  0  0  0  0  0  0  0  0  0  0
  138.0501   67.2378  222.3188 H   0  0  0  0  0  0  0  0  0  0  0  0
  138.4761   69.5672  224.6231 H   0  0  0  0  0  0  0  0  0  0  0  0
  137.3777   68.2839  225.3142 H   0  0  0  0  0  0  0  0  0  0  0  0
  138.3451   68.5205  227.0550 H   0  0  0  0  0  0  0  0  0  0  0  0
  139.7026   66.4875  226.6950 H   0  0  0  0  0  0  0  0  0  0  0  0
  140.7206   67.2417  225.4928 H   0  0  0  0  0  0  0  0  0  0  0  0
  140.9331   67.3149  228.4655 H   0  0  0  0  0  0  0  0  0  0  0  0
  142.1610   67.8096  227.2847 H   0  0  0  0  0  0  0  0  0  0  0  0
  140.0667   69.4843  228.6828 H   0  0  0  0  0  0  0  0  0  0  0  0
  141.5884   70.0297  228.0645 H   0  0  0  0  0  0  0  0  0  0  0  0
  140.6900   70.0555  223.8575 H   0  0  0  0  0  0  0  0  0  0  0  0
  138.9832   70.5885  224.1138 H   0  0  0  0  0  0  0  0  0  0  0  0
  140.3280   73.0140  224.2220 H   0  0  0  0  0  0  0  0  0  0  0  0
  141.9438   72.1582  220.0387 H   0  0  0  0  0  0  0  0  0  0  0  0
  142.5855   74.1005  218.6482 H   0  0  0  0  0  0  0  0  0  0  0  0
  142.6028   76.4768  218.3166 H   0  0  0  0  0  0  0  0  0  0  0  0
  141.9764   78.7582  219.1441 H   0  0  0  0  0  0  0  0  0  0  0  0
  140.7707   78.9931  221.2689 H   0  0  0  0  0  0  0  0  0  0  0  0
  140.1393   77.0172  222.6463 H   0  0  0  0  0  0  0  0  0  0  0  0
  1  2  1  0
  2  3  1  0
  3  4  1  0
  4  5  1  0
  5  6  1  0
  6  7  1  0
  7  8  1  0
  8  9  1  0
  9 10  2  0
  9 11  1  0
 11 12  1  0
 12 13  1  0
 13 14  2  0
 13 15  1  0
 15 16  2  0
 16 17  1  0
 17 18  2  0
 18 19  1  0
 19 20  2  0
 20 21  1  0
 21 22  2  0
 22 23  1  0
 23 24  2  0
  8  4  1  0
 24 15  1  0
 23 18  1  0
  1 25  1  0
  1 26  1  0
  1 27  1  0
  3 28  1  0
  3 29  1  0
  4 30  1  1
  5 31  1  0
  5 32  1  0
  6 33  1  0
  6 34  1  0
  7 35  1  0
  7 36  1  0
 11 37  1  0
 11 38  1  0
 12 39  1  0
 16 40  1  0
 17 41  1  0
 19 42  1  0
 20 43  1  0
 21 44  1  0
 22 45  1  0
M  END
>  <meeko>  (3) 
{"free_energy": -6.36, "intermolecular_energy": -8.15, "internal_energy": -1.45, "cluster_size": 2, "cluster_id": 2, "rank_in_cluster": 2}

$$$$

     RDKit          3D

 45 47  0  0  0  0  0  0  0  0999 V2000
  142.2880   77.4960  219.5240 C   0  0  0  0  0  0  0  0  0  0  0  0
  143.0470   76.3900  219.9660 O   0  0  0  0  0  0  0  0  0  0  0  0
  143.1550   75.4830  218.9470 C   0  0  0  0  0  0  0  0  0  0  0  0
  143.9620   74.2920  219.3050 C   0  0  1  0  0  0  0  0  0  0  0  0
  144.8990   74.5250  220.4750 C   0  0  0  0  0  0  0  0  0  0  0  0
  145.2450   73.1060  220.9030 C   0  0  0  0  0  0  0  0  0  0  0  0
  144.2770   72.1840  220.1630 C   0  0  0  0  0  0  0  0  0  0  0  0
  143.2210   73.1560  219.8080 N   0  0  0  0  0  0  0  0  0  0  0  0
  141.8330   72.9390  219.9620 C   0  0  0  0  0  0  0  0  0  0  0  0
  141.0790   72.4570  219.0810 O   0  0  0  0  0  0  0  0  0  0  0  0
  141.1740   73.2980  221.2600 C   0  0  0  0  0  0  0  0  0  0  0  0
  141.3960   74.6940  221.5820 N   0  0  0  0  0  0  0  0  0  0  0  0
  140.2480   75.4470  221.9760 C   0  0  0  0  0  0  0  0  0  0  0  0
  139.1550   74.7980  221.9990 O   0  0  0  0  0  0  0  0  0  0  0  0
  140.3210   76.8560  222.3260 C   0  0  0  0  0  0  0  0  0  0  0  0
  139.1400   77.5520  222.4430 C   0  0  0  0  0  0  0  0  0  0  0  0
  139.0840   78.8930  222.7710 C   0  0  0  0  0  0  0  0  0  0  0  0
  140.2770   79.5580  222.9900 C   0  0  0  0  0  0  0  0  0  0  0  0
  140.2440   80.8970  223.3190 C   0  0  0  0  0  0  0  0  0  0  0  0
  141.4520   81.5410  223.5330 C   0  0  0  0  0  0  0  0  0  0  0  0
  142.6260   80.8380  223.4140 C   0  0  0  0  0  0  0  0  0  0  0  0
  142.6640   79.4850  223.0830 C   0  0  0  0  0  0  0  0  0  0  0  0
  141.4610   78.8470  222.8700 C   0  0  0  0  0  0  0  0  0  0  0  0
  141.4570   77.5230  222.5430 N   0  0  0  0  0  0  0  0  0  0  0  0
  141.9073   78.0507  220.3942 H   0  0  0  0  0  0  0  0  0  0  0  0
  142.9233   78.1575  218.9168 H   0  0  0  0  0  0  0  0  0  0  0  0
  141.4422   77.1411  218.9168 H   0  0  0  0  0  0  0  0  0  0  0  0
  142.1446   75.1492  218.6682 H   0  0  0  0  0  0  0  0  0  0  0  0
  143.6693   75.9870  218.1154 H   0  0  0  0  0  0  0  0  0  0  0  0
  144.4467   74.1024  218.3359 H   0  0  0  0  0  0  0  0  0  0  0  0
  145.7976   75.0766  220.1617 H   0  0  0  0  0  0  0  0  0  0  0  0
  144.4564   75.1314  221.2790 H   0  0  0  0  0  0  0  0  0  0  0  0
  146.2830   72.8679  220.6274 H   0  0  0  0  0  0  0  0  0  0  0  0
  145.1562   72.9854  221.9928 H   0  0  0  0  0  0  0  0  0  0  0  0
  144.7392   71.7384  219.2698 H   0  0  0  0  0  0  0  0  0  0  0  0
  143.9318   71.3137  220.7404 H   0  0  0  0  0  0  0  0  0  0  0  0
  140.0925   73.1145  221.1781 H   0  0  0  0  0  0  0  0  0  0  0  0
  141.6084   72.6788  222.0587 H   0  0  0  0  0  0  0  0  0  0  0  0
  142.3350   75.1570  221.5380 H   0  0  0  0  0  0  0  0  0  0  0  0
  138.1959   77.0156  222.2671 H   0  0  0  0  0  0  0  0  0  0  0  0
  138.1199   79.4159  222.8554 H   0  0  0  0  0  0  0  0  0  0  0  0
  139.2895   81.4363  223.4086 H   0  0  0  0  0  0  0  0  0  0  0  0
  141.4707   82.6088  223.7966 H   0  0  0  0  0  0  0  0  0  0  0  0
  143.5758   81.3651  223.5872 H   0  0  0  0  0  0  0  0  0  0  0  0
  143.6188   78.9460  222.9949 H   0  0  0  0  0  0  0  0  0  0  0  0
  1  2  1  0
  2  3  1  0
  3  4  1  0
  4  5  1  0
  5  6  1  0
  6  7  1  0
  7  8  1  0
  8  9  1  0
  9 10  2  0
  9 11  1  0
 11 12  1  0
 12 13  1  0
 13 14  2  0
 13 15  1  0
 15 16  2  0
 16 17  1  0
 17 18  2  0
 18 19  1  0
 19 20  2  0
 20 21  1  0
 21 22  2  0
 22 23  1  0
 23 24  2  0
  8  4  1  0
 24 15  1  0
 23 18  1  0
  1 25  1  0
  1 26  1  0
  1 27  1  0
  3 28  1  0
  3 29  1  0
  4 30  1  6
  5 31  1  0
  5 32  1  0
  6 33  1  0
  6 34  1  0
  7 35  1  0
  7 36  1  0
 11 37  1  0
 11 38  1  0
 12 39  1  0
 16 40  1  0
 17 41  1  0
 19 42  1  0
 20 43  1  0
 21 44  1  0
 22 45  1  0
M  END
>  <meeko>  (4) 
{"free_energy": -5.9, "intermolecular_energy": -7.69, "internal_energy": -2.42, "cluster_size": 4, "cluster_id": 5, "rank_in_cluster": 2}

$$$$

     RDKit          3D

 45 47  0  0  0  0  0  0  0  0999 V2000
  138.6240   76.0280  222.4820 C   0  0  0  0  0  0  0  0  0  0  0  0
  139.5570   74.9740  222.3570 O   0  0  0  0  0  0  0  0  0  0  0  0
  140.0410   74.9530  221.0770 C   0  0  0  0  0  0  0  0  0  0  0  0
  140.6710   73.6630  220.7100 C   0  0  1  0  0  0  0  0  0  0  0  0
  141.2740   72.9270  221.8910 C   0  0  0  0  0  0  0  0  0  0  0  0
  141.4340   71.5140  221.3480 C   0  0  0  0  0  0  0  0  0  0  0  0
  140.6580   71.4670  220.0320 C   0  0  0  0  0  0  0  0  0  0  0  0
  139.7760   72.6410  220.2150 N   0  0  0  0  0  0  0  0  0  0  0  0
  138.3890   72.6630  219.9460 C   0  0  0  0  0  0  0  0  0  0  0  0
  137.8760   72.5230  218.8080 O   0  0  0  0  0  0  0  0  0  0  0  0
  137.4250   72.8670  221.0760 C   0  0  0  0  0  0  0  0  0  0  0  0
  138.0500   72.5560  222.3480 N   0  0  0  0  0  0  0  0  0  0  0  0
  138.1950   71.1710  222.6630 C   0  0  0  0  0  0  0  0  0  0  0  0
  137.7540   70.3640  221.7850 O   0  0  0  0  0  0  0  0  0  0  0  0
  138.8010   70.7120  223.9020 C   0  0  0  0  0  0  0  0  0  0  0  0
  138.6820   69.3790  224.2210 C   0  0  0  0  0  0  0  0  0  0  0  0
  139.2170   68.8270  225.3700 C   0  0  0  0  0  0  0  0  0  0  0  0
  139.9030   69.6640  226.2330 C   0  0  0  0  0  0  0  0  0  0  0  0
  140.4450   69.1340  227.3850 C   0  0  0  0  0  0  0  0  0  0  0  0
  141.1270   69.9920  228.2330 C   0  0  0  0  0  0  0  0  0  0  0  0
  141.2400   71.3210  227.9060 C   0  0  0  0  0  0  0  0  0  0  0  0
  140.6950   71.8600  226.7420 C   0  0  0  0  0  0  0  0  0  0  0  0
  140.0170   71.0040  225.9000 C   0  0  0  0  0  0  0  0  0  0  0  0
  139.4680   71.4950  224.7530 N   0  0  0  0  0  0  0  0  0  0  0  0
  138.4427   76.2328  223.5475 H   0  0  0  0  0  0  0  0  0  0  0  0
  139.0240   76.9311  221.9979 H   0  0  0  0  0  0  0  0  0  0  0  0
  137.6790   75.7405  221.9979 H   0  0  0  0  0  0  0  0  0  0  0  0
  139.2073   75.1437  220.3852 H   0  0  0  0  0  0  0  0  0  0  0  0
  140.8200   75.7268  221.0104 H   0  0  0  0  0  0  0  0  0  0  0  0
  141.3861   74.0186  219.9535 H   0  0  0  0  0  0  0  0  0  0  0  0
  142.2461   73.3571  222.1738 H   0  0  0  0  0  0  0  0  0  0  0  0
  140.6605   72.9809  222.8024 H   0  0  0  0  0  0  0  0  0  0  0  0
  142.4968   71.2925  221.1711 H   0  0  0  0  0  0  0  0  0  0  0  0
  141.0550   70.7674  222.0613 H   0  0  0  0  0  0  0  0  0  0  0  0
  141.3209   71.5855  219.1622 H   0  0  0  0  0  0  0  0  0  0  0  0
  140.1351   70.5195  219.8348 H   0  0  0  0  0  0  0  0  0  0  0  0
  137.0945   73.9162  221.0834 H   0  0  0  0  0  0  0  0  0  0  0  0
  136.5652   72.1962  220.9319 H   0  0  0  0  0  0  0  0  0  0  0  0
  138.3880   73.2840  223.0200 H   0  0  0  0  0  0  0  0  0  0  0  0
  138.1354   68.7214  223.5291 H   0  0  0  0  0  0  0  0  0  0  0  0
  139.1011   67.7558  225.5916 H   0  0  0  0  0  0  0  0  0  0  0  0
  140.3395   68.0652  227.6230 H   0  0  0  0  0  0  0  0  0  0  0  0
  141.5751   69.6108  229.1625 H   0  0  0  0  0  0  0  0  0  0  0  0
  141.7834   71.9880  228.5914 H   0  0  0  0  0  0  0  0  0  0  0  0
  140.8018   72.9286  226.5038 H   0  0  0  0  0  0  0  0  0  0  0  0
  1  2  1  0
  2  3  1  0
  3  4  1  0
  4  5  1  0
  5  6  1  0
  6  7  1  0
  7  8  1  0
  8  9  1  0
  9 10  2  0
  9 11  1  0
 11 12  1  0
 12 13  1  0
 13 14  2  0
 13 15  1  0
 15 16  2  0
 16 17  1  0
 17 18  2  0
 18 19  1  0
 19 20  2  0
 20 21  1  0
 21 22  2  0
 22 23  1  0
 23 24  2  0
  8  4  1  0
 24 15  1  0
 23 18  1  0
  1 25  1  0
  1 26  1  0
  1 27  1  0
  3 28  1  0
  3 29  1  0
  4 30  1  6
  5 31  1  0
  5 32  1  0
  6 33  1  0
  6 34  1  0
  7 35  1  0
  7 36  1  0
 11 37  1  0
 11 38  1  0
 12 39  1  0
 16 40  1  0
 17 41  1  0
 19 42  1  0
 20 43  1  0
 21 44  1  0
 22 45  1  0
M  END
>  <meeko>  (5) 
{"free_energy": -5.37, "intermolecular_energy": -7.16, "internal_energy": -2.64, "cluster_size": 6, "cluster_id": 4, "rank_in_cluster": 6}

$$$$

     RDKit          3D

 45 47  0  0  0  0  0  0  0  0999 V2000
  142.1840   79.5420  223.2470 C   0  0  0  0  0  0  0  0  0  0  0  0
  141.6580   79.2720  221.9630 O   0  0  0  0  0  0  0  0  0  0  0  0
  141.0980   78.0240  221.9610 C   0  0  0  0  0  0  0  0  0  0  0  0
  141.1030   77.3820  220.6250 C   0  0  1  0  0  0  0  0  0  0  0  0
  142.4950   77.1680  220.0620 C   0  0  0  0  0  0  0  0  0  0  0  0
  142.2490   76.1420  218.9650 C   0  0  0  0  0  0  0  0  0  0  0  0
  140.8240   75.6290  219.1660 C   0  0  0  0  0  0  0  0  0  0  0  0
  140.6070   76.0240  220.5750 N   0  0  0  0  0  0  0  0  0  0  0  0
  140.0420   75.1970  221.5720 C   0  0  0  0  0  0  0  0  0  0  0  0
  139.5590   75.6070  222.6550 O   0  0  0  0  0  0  0  0  0  0  0  0
  139.9990   73.7140  221.3560 C   0  0  0  0  0  0  0  0  0  0  0  0
  139.8650   73.0130  222.6180 N   0  0  0  0  0  0  0  0  0  0  0  0
  140.1490   71.6140  222.6030 C   0  0  0  0  0  0  0  0  0  0  0  0
  140.4900   71.1410  221.4730 O   0  0  0  0  0  0  0  0  0  0  0  0
  140.0560   70.7850  223.7940 C   0  0  0  0  0  0  0  0  0  0  0  0
  139.3820   69.5900  223.6940 C   0  0  0  0  0  0  0  0  0  0  0  0
  139.2280   68.7190  224.7560 C   0  0  0  0  0  0  0  0  0  0  0  0
  139.7820   69.0770  225.9730 C   0  0  0  0  0  0  0  0  0  0  0  0
  139.6400   68.2230  227.0470 C   0  0  0  0  0  0  0  0  0  0  0  0
  140.2030   68.6020  228.2550 C   0  0  0  0  0  0  0  0  0  0  0  0
  140.8740   69.7980  228.3440 C   0  0  0  0  0  0  0  0  0  0  0  0
  141.0190   70.6630  227.2620 C   0  0  0  0  0  0  0  0  0  0  0  0
  140.4580   70.2830  226.0610 C   0  0  0  0  0  0  0  0  0  0  0  0
  140.5790   71.1040  224.9800 N   0  0  0  0  0  0  0  0  0  0  0  0
  141.4824   79.1819  224.0138 H   0  0  0  0  0  0  0  0  0  0  0  0
  143.1496   79.0281  223.3632 H   0  0  0  0  0  0  0  0  0  0  0  0
  142.3293   80.6262  223.3632 H   0  0  0  0  0  0  0  0  0  0  0  0
  141.6631   77.3865  222.6569 H   0  0  0  0  0  0  0  0  0  0  0  0
  140.0468   78.1378  222.2642 H   0  0  0  0  0  0  0  0  0  0  0  0
  140.4713   78.0968  220.0773 H   0  0  0  0  0  0  0  0  0  0  0  0
  142.9053   78.1014  219.6492 H   0  0  0  0  0  0  0  0  0  0  0  0
  143.2280   76.8406  220.8140 H   0  0  0  0  0  0  0  0  0  0  0  0
  142.3481   76.6119  217.9754 H   0  0  0  0  0  0  0  0  0  0  0  0
  142.9793   75.3210  219.0158 H   0  0  0  0  0  0  0  0  0  0  0  0
  140.1123   76.1238  218.4888 H   0  0  0  0  0  0  0  0  0  0  0  0
  140.6826   74.5583  218.9573 H   0  0  0  0  0  0  0  0  0  0  0  0
  139.1403   73.4679  220.7140 H   0  0  0  0  0  0  0  0  0  0  0  0
  140.9381   73.4004  220.8767 H   0  0  0  0  0  0  0  0  0  0  0  0
  139.5780   73.4790  223.5110 H   0  0  0  0  0  0  0  0  0  0  0  0
  138.9449   69.3146  222.7228 H   0  0  0  0  0  0  0  0  0  0  0  0
  138.6824   67.7712  224.6379 H   0  0  0  0  0  0  0  0  0  0  0  0
  139.0971   67.2715  226.9476 H   0  0  0  0  0  0  0  0  0  0  0  0
  140.1135   67.9502  229.1365 H   0  0  0  0  0  0  0  0  0  0  0  0
  141.3150   70.0842  229.3102 H   0  0  0  0  0  0  0  0  0  0  0  0
  141.5614   71.6148  227.3619 H   0  0  0  0  0  0  0  0  0  0  0  0
  1  2  1  0
  2  3  1  0
  3  4  1  0
  4  5  1  0
  5  6  1  0
  6  7  1  0
  7  8  1  0
  8  9  1  0
  9 10  2  0
  9 11  1  0
 11 12  1  0
 12 13  1  0
 13 14  2  0
 13 15  1  0
 15 16  2  0
 16 17  1  0
 17 18  2  0
 18 19  1  0
 19 20  2  0
 20 21  1  0
 21 22  2  0
 22 23  1  0
 23 24  2  0
  8  4  1  0
 24 15  1  0
 23 18  1  0
  1 25  1  0
  1 26  1  0
  1 27  1  0
  3 28  1  0
  3 29  1  0
  4 30  1  6
  5 31  1  0
  5 32  1  0
  6 33  1  0
  6 34  1  0
  7 35  1  0
  7 36  1  0
 11 37  1  0
 11 38  1  0
 12 39  1  0
 16 40  1  0
 17 41  1  0
 19 42  1  0
 20 43  1  0
 21 44  1  0
 22 45  1  0
M  END
>  <meeko>  (6) 
{"free_energy": -6.6, "intermolecular_energy": -8.39, "internal_energy": -1.46, "cluster_size": 6, "cluster_id": 1, "rank_in_cluster": 4}

$$$$

     RDKit          3D

 45 47  0  0  0  0  0  0  0  0999 V2000
  139.2810   75.8170  222.3220 C   0  0  0  0  0  0  0  0  0  0  0  0
  139.8980   74.5460  222.3440 O   0  0  0  0  0  0  0  0  0  0  0  0
  140.9710   74.5530  221.4940 C   0  0  0  0  0  0  0  0  0  0  0  0
  141.1000   73.3070  220.7030 C   0  0  1  0  0  0  0  0  0  0  0  0
  141.4890   72.0990  221.5350 C   0  0  0  0  0  0  0  0  0  0  0  0
  141.1230   70.9410  220.6170 C   0  0  0  0  0  0  0  0  0  0  0  0
  140.2980   71.5360  219.4780 C   0  0  0  0  0  0  0  0  0  0  0  0
  139.8820   72.8100  220.1040 N   0  0  0  0  0  0  0  0  0  0  0  0
  138.5710   73.3380  220.0740 C   0  0  0  0  0  0  0  0  0  0  0  0
  138.1940   74.2820  219.3370 O   0  0  0  0  0  0  0  0  0  0  0  0
  137.5250   72.7550  220.9760 C   0  0  0  0  0  0  0  0  0  0  0  0
  138.0690   72.4960  222.2950 N   0  0  0  0  0  0  0  0  0  0  0  0
  138.3130   71.1280  222.6250 C   0  0  0  0  0  0  0  0  0  0  0  0
  138.0220   70.2890  221.7150 O   0  0  0  0  0  0  0  0  0  0  0  0
  138.8550   70.7200  223.9110 C   0  0  0  0  0  0  0  0  0  0  0  0
  138.5700   69.4490  224.3550 C   0  0  0  0  0  0  0  0  0  0  0  0
  139.0290   68.9500  225.5600 C   0  0  0  0  0  0  0  0  0  0  0  0
  139.8130   69.7760  226.3470 C   0  0  0  0  0  0  0  0  0  0  0  0
  140.2820   69.2980  227.5530 C   0  0  0  0  0  0  0  0  0  0  0  0
  141.0640   70.1430  228.3240 C   0  0  0  0  0  0  0  0  0  0  0  0
  141.3430   71.4100  227.8710 C   0  0  0  0  0  0  0  0  0  0  0  0
  140.8710   71.8960  226.6540 C   0  0  0  0  0  0  0  0  0  0  0  0
  140.0940   71.0530  225.8890 C   0  0  0  0  0  0  0  0  0  0  0  0
  139.6130   71.4940  224.6910 N   0  0  0  0  0  0  0  0  0  0  0  0
  139.1139   76.1613  223.3533 H   0  0  0  0  0  0  0  0  0  0  0  0
  139.9324   76.5318  221.7978 H   0  0  0  0  0  0  0  0  0  0  0  0
  138.3164   75.7473  221.7978 H   0  0  0  0  0  0  0  0  0  0  0  0
  140.8601   75.3981  220.7987 H   0  0  0  0  0  0  0  0  0  0  0  0
  141.8762   74.6414  222.1127 H   0  0  0  0  0  0  0  0  0  0  0  0
  141.8450   73.6376  219.9643 H   0  0  0  0  0  0  0  0  0  0  0  0
  142.5652   72.1020  221.7627 H   0  0  0  0  0  0  0  0  0  0  0  0
  140.9896   72.0595  222.5143 H   0  0  0  0  0  0  0  0  0  0  0  0
  142.0334   70.4680  220.2202 H   0  0  0  0  0  0  0  0  0  0  0  0
  140.5567   70.1681  221.1573 H   0  0  0  0  0  0  0  0  0  0  0  0
  140.9062   71.7030  218.5768 H   0  0  0  0  0  0  0  0  0  0  0  0
  139.4724   70.9021  219.1223 H   0  0  0  0  0  0  0  0  0  0  0  0
  136.6885   73.4640  221.0637 H   0  0  0  0  0  0  0  0  0  0  0  0
  137.1776   71.8045  220.5449 H   0  0  0  0  0  0  0  0  0  0  0  0
  138.2830   73.2480  222.9910 H   0  0  0  0  0  0  0  0  0  0  0  0
  137.9479   68.7996  223.7215 H   0  0  0  0  0  0  0  0  0  0  0  0
  138.7790   67.9287  225.8832 H   0  0  0  0  0  0  0  0  0  0  0  0
  140.0429   68.2791  227.8916 H   0  0  0  0  0  0  0  0  0  0  0  0
  141.4589   69.8018  229.2923 H   0  0  0  0  0  0  0  0  0  0  0  0
  141.9651   72.0679  228.4956 H   0  0  0  0  0  0  0  0  0  0  0  0
  141.1096   72.9152  226.3159 H   0  0  0  0  0  0  0  0  0  0  0  0
  1  2  1  0
  2  3  1  0
  3  4  1  0
  4  5  1  0
  5  6  1  0
  6  7  1  0
  7  8  1  0
  8  9  1  0
  9 10  2  0
  9 11  1  0
 11 12  1  0
 12 13  1  0
 13 14  2  0
 13 15  1  0
 15 16  2  0
 16 17  1  0
 17 18  2  0
 18 19  1  0
 19 20  2  0
 20 21  1  0
 21 22  2  0
 22 23  1  0
 23 24  2  0
  8  4  1  0
 24 15  1  0
 23 18  1  0
  1 25  1  0
  1 26  1  0
  1 27  1  0
  3 28  1  0
  3 29  1  0
  4 30  1  6
  5 31  1  0
  5 32  1  0
  6 33  1  0
  6 34  1  0
  7 35  1  0
  7 36  1  0
 11 37  1  0
 11 38  1  0
 12 39  1  0
 16 40  1  0
 17 41  1  0
 19 42  1  0
 20 43  1  0
 21 44  1  0
 22 45  1  0
M  END
>  <meeko>  (7) 
{"free_energy": -5.68, "intermolecular_energy": -7.47, "internal_energy": -2.6, "cluster_size": 6, "cluster_id": 1, "rank_in_cluster": 5}

$$$$

     RDKit          3D

 45 47  0  0  0  0  0  0  0  0999 V2000
  139.1780   75.9090  222.3140 C   0  0  0  0  0  0  0  0  0  0  0  0
  139.8900   74.6890  222.3190 O   0  0  0  0  0  0  0  0  0  0  0  0
  140.8480   74.7230  221.3420 C   0  0  0  0  0  0  0  0  0  0  0  0
  141.0810   73.4060  220.7040 C   0  0  1  0  0  0  0  0  0  0  0  0
  141.4050   72.3030  221.6940 C   0  0  0  0  0  0  0  0  0  0  0  0
  141.1580   71.0460  220.8730 C   0  0  0  0  0  0  0  0  0  0  0  0
  140.4430   71.4950  219.6000 C   0  0  0  0  0  0  0  0  0  0  0  0
  139.9410   72.8140  220.0420 N   0  0  0  0  0  0  0  0  0  0  0  0
  138.6300   73.2970  219.8250 C   0  0  0  0  0  0  0  0  0  0  0  0
  138.2690   73.9710  218.8290 O   0  0  0  0  0  0  0  0  0  0  0  0
  137.5640   73.0030  220.8370 C   0  0  0  0  0  0  0  0  0  0  0  0
  138.1500   72.6490  222.1150 N   0  0  0  0  0  0  0  0  0  0  0  0
  138.2530   71.2540  222.4040 C   0  0  0  0  0  0  0  0  0  0  0  0
  137.8120   70.4780  221.4980 O   0  0  0  0  0  0  0  0  0  0  0  0
  138.8180   70.7540  223.6460 C   0  0  0  0  0  0  0  0  0  0  0  0
  138.6590   69.4180  223.9340 C   0  0  0  0  0  0  0  0  0  0  0  0
  139.1530   68.8290  225.0820 C   0  0  0  0  0  0  0  0  0  0  0  0
  139.8380   69.6300  225.9790 C   0  0  0  0  0  0  0  0  0  0  0  0
  140.3400   69.0630  227.1310 C   0  0  0  0  0  0  0  0  0  0  0  0
  141.0220   69.8850  228.0140 C   0  0  0  0  0  0  0  0  0  0  0  0
  141.1770   71.2180  227.7180 C   0  0  0  0  0  0  0  0  0  0  0  0
  140.6720   71.7940  226.5540 C   0  0  0  0  0  0  0  0  0  0  0  0
  139.9930   70.9740  225.6780 C   0  0  0  0  0  0  0  0  0  0  0  0
  139.4840   71.5020  224.5290 N   0  0  0  0  0  0  0  0  0  0  0  0
  138.9913   76.2288  223.3498 H   0  0  0  0  0  0  0  0  0  0  0  0
  139.7698   76.6768  221.7942 H   0  0  0  0  0  0  0  0  0  0  0  0
  138.2184   75.7714  221.7942 H   0  0  0  0  0  0  0  0  0  0  0  0
  140.5306   75.4355  220.5664 H   0  0  0  0  0  0  0  0  0  0  0  0
  141.7913   75.0247  221.8208 H   0  0  0  0  0  0  0  0  0  0  0  0
  141.8914   73.6803  220.0126 H   0  0  0  0  0  0  0  0  0  0  0  0
  142.4517   72.3618  222.0271 H   0  0  0  0  0  0  0  0  0  0  0  0
  140.8078   72.3504  222.6166 H   0  0  0  0  0  0  0  0  0  0  0  0
  142.1133   70.5619  220.6220 H   0  0  0  0  0  0  0  0  0  0  0  0
  140.5543   70.3166  221.4329 H   0  0  0  0  0  0  0  0  0  0  0  0
  141.1373   71.5854  218.7516 H   0  0  0  0  0  0  0  0  0  0  0  0
  139.6704   70.8034  219.2330 H   0  0  0  0  0  0  0  0  0  0  0  0
  136.9323   73.8945  220.9646 H   0  0  0  0  0  0  0  0  0  0  0  0
  136.9621   72.1550  220.4784 H   0  0  0  0  0  0  0  0  0  0  0  0
  138.4910   73.3540  222.8110 H   0  0  0  0  0  0  0  0  0  0  0  0
  138.1125   68.7888  223.2160 H   0  0  0  0  0  0  0  0  0  0  0  0
  139.0064   67.7564  225.2771 H   0  0  0  0  0  0  0  0  0  0  0  0
  140.2035   67.9922  227.3426 H   0  0  0  0  0  0  0  0  0  0  0  0
  141.4366   69.4731  228.9459 H   0  0  0  0  0  0  0  0  0  0  0  0
  141.7220   71.8564  228.4290 H   0  0  0  0  0  0  0  0  0  0  0  0
  140.8101   72.8644  226.3417 H   0  0  0  0  0  0  0  0  0  0  0  0
  1  2  1  0
  2  3  1  0
  3  4  1  0
  4  5  1  0
  5  6  1  0
  6  7  1  0
  7  8  1  0
  8  9  1  0
  9 10  2  0
  9 11  1  0
 11 12  1  0
 12 13  1  0
 13 14  2  0
 13 15  1  0
 15 16  2  0
 16 17  1  0
 17 18  2  0
 18 19  1  0
 19 20  2  0
 20 21  1  0
 21 22  2  0
 22 23  1  0
 23 24  2  0
  8  4  1  0
 24 15  1  0
 23 18  1  0
  1 25  1  0
  1 26  1  0
  1 27  1  0
  3 28  1  0
  3 29  1  0
  4 30  1  6
  5 31  1  0
  5 32  1  0
  6 33  1  0
  6 34  1  0
  7 35  1  0
  7 36  1  0
 11 37  1  0
 11 38  1  0
 12 39  1  0
 16 40  1  0
 17 41  1  0
 19 42  1  0
 20 43  1  0
 21 44  1  0
 22 45  1  0
M  END
>  <meeko>  (8) 
{"free_energy": -5.49, "intermolecular_energy": -7.28, "internal_energy": -2.71, "cluster_size": 6, "cluster_id": 4, "rank_in_cluster": 5}

$$$$

     RDKit          3D

 45 47  0  0  0  0  0  0  0  0999 V2000
  143.1330   68.6390  219.3780 C   0  0  0  0  0  0  0  0  0  0  0  0
  142.5990   69.8760  219.8040 O   0  0  0  0  0  0  0  0  0  0  0  0
  143.2590   70.8930  219.1660 C   0  0  0  0  0  0  0  0  0  0  0  0
  144.2240   71.6020  220.0390 C   0  0  1  0  0  0  0  0  0  0  0  0
  145.5420   71.9130  219.3550 C   0  0  0  0  0  0  0  0  0  0  0  0
  146.1360   72.9810  220.2630 C   0  0  0  0  0  0  0  0  0  0  0  0
  145.0180   73.4120  221.2110 C   0  0  0  0  0  0  0  0  0  0  0  0
  143.8420   72.9340  220.4520 N   0  0  0  0  0  0  0  0  0  0  0  0
  142.6620   73.6800  220.2300 C   0  0  0  0  0  0  0  0  0  0  0  0
  142.6240   74.9140  220.0020 O   0  0  0  0  0  0  0  0  0  0  0  0
  141.3360   72.9800  220.2620 C   0  0  0  0  0  0  0  0  0  0  0  0
  141.2810   72.0300  221.3560 N   0  0  0  0  0  0  0  0  0  0  0  0
  140.4960   72.4070  222.4880 C   0  0  0  0  0  0  0  0  0  0  0  0
  139.9320   73.5440  222.4030 O   0  0  0  0  0  0  0  0  0  0  0  0
  140.3510   71.5550  223.6570 C   0  0  0  0  0  0  0  0  0  0  0  0
  139.7450   70.3310  223.4890 C   0  0  0  0  0  0  0  0  0  0  0  0
  139.5530   69.4360  224.5250 C   0  0  0  0  0  0  0  0  0  0  0  0
  139.9940   69.7990  225.7850 C   0  0  0  0  0  0  0  0  0  0  0  0
  139.8120   68.9210  226.8330 C   0  0  0  0  0  0  0  0  0  0  0  0
  140.2620   69.3050  228.0860 C   0  0  0  0  0  0  0  0  0  0  0  0
  140.8650   70.5300  228.2430 C   0  0  0  0  0  0  0  0  0  0  0  0
  141.0510   71.4190  227.1870 C   0  0  0  0  0  0  0  0  0  0  0  0
  140.6030   71.0340  225.9420 C   0  0  0  0  0  0  0  0  0  0  0  0
  140.7660   71.8780  224.8840 N   0  0  0  0  0  0  0  0  0  0  0  0
  143.3955   68.0310  220.2563 H   0  0  0  0  0  0  0  0  0  0  0  0
  142.3850   68.1056  218.7730 H   0  0  0  0  0  0  0  0  0  0  0  0
  144.0342   68.8175  218.7730 H   0  0  0  0  0  0  0  0  0  0  0  0
  143.8064   70.4715  218.3100 H   0  0  0  0  0  0  0  0  0  0  0  0
  142.5022   71.6270  218.8522 H   0  0  0  0  0  0  0  0  0  0  0  0
  144.2755   70.8862  220.8726 H   0  0  0  0  0  0  0  0  0  0  0  0
  146.1876   71.0234  219.3114 H   0  0  0  0  0  0  0  0  0  0  0  0
  145.4297   72.2369  218.3098 H   0  0  0  0  0  0  0  0  0  0  0  0
  146.9808   72.5681  220.8339 H   0  0  0  0  0  0  0  0  0  0  0  0
  146.5156   73.8334  219.6805 H   0  0  0  0  0  0  0  0  0  0  0  0
  145.1001   72.9186  222.1907 H   0  0  0  0  0  0  0  0  0  0  0  0
  145.0065   74.4838  221.4582 H   0  0  0  0  0  0  0  0  0  0  0  0
  140.5377   73.7256  220.3915 H   0  0  0  0  0  0  0  0  0  0  0  0
  141.2020   72.4357  219.3156 H   0  0  0  0  0  0  0  0  0  0  0  0
  141.7780   71.1080  221.3480 H   0  0  0  0  0  0  0  0  0  0  0  0
  139.3971   70.0517  222.4835 H   0  0  0  0  0  0  0  0  0  0  0  0
  139.0648   68.4654  224.3528 H   0  0  0  0  0  0  0  0  0  0  0  0
  139.3250   67.9468  226.6790 H   0  0  0  0  0  0  0  0  0  0  0  0
  140.1375   68.6342  228.9489 H   0  0  0  0  0  0  0  0  0  0  0  0
  141.2154   70.8205  229.2444 H   0  0  0  0  0  0  0  0  0  0  0  0
  141.5379   72.3932  227.3413 H   0  0  0  0  0  0  0  0  0  0  0  0
  1  2  1  0
  2  3  1  0
  3  4  1  0
  4  5  1  0
  5  6  1  0
  6  7  1  0
  7  8  1  0
  8  9  1  0
  9 10  2  0
  9 11  1  0
 11 12  1  0
 12 13  1  0
 13 14  2  0
 13 15  1  0
 15 16  2  0
 16 17  1  0
 17 18  2  0
 18 19  1  0
 19 20  2  0
 20 21  1  0
 21 22  2  0
 22 23  1  0
 23 24  2  0
  8  4  1  0
 24 15  1  0
 23 18  1  0
  1 25  1  0
  1 26  1  0
  1 27  1  0
  3 28  1  0
  3 29  1  0
  4 30  1  1
  5 31  1  0
  5 32  1  0
  6 33  1  0
  6 34  1  0
  7 35  1  0
  7 36  1  0
 11 37  1  0
 11 38  1  0
 12 39  1  0
 16 40  1  0
 17 41  1  0
 19 42  1  0
 20 43  1  0
 21 44  1  0
 22 45  1  0
M  END
>  <meeko>  (9) 
{"free_energy": -6.31, "intermolecular_energy": -8.1, "internal_energy": -1.77, "cluster_size": 1, "cluster_id": 3, "rank_in_cluster": 1}

$$$$

     RDKit          3D

 45 47  0  0  0  0  0  0  0  0999 V2000
  141.5480   73.0990  220.8660 C   0  0  0  0  0  0  0  0  0  0  0  0
  140.9240   73.7440  221.9580 O   0  0  0  0  0  0  0  0  0  0  0  0
  140.6820   75.0500  221.6300 C   0  0  0  0  0  0  0  0  0  0  0  0
  139.4940   75.6150  222.3130 C   0  0  1  0  0  0  0  0  0  0  0  0
  139.4060   77.1270  222.2210 C   0  0  0  0  0  0  0  0  0  0  0  0
  137.9500   77.3900  222.5800 C   0  0  0  0  0  0  0  0  0  0  0  0
  137.2480   76.0330  222.5600 C   0  0  0  0  0  0  0  0  0  0  0  0
  138.2120   75.2600  221.7460 N   0  0  0  0  0  0  0  0  0  0  0  0
  137.8660   74.4010  220.6790 C   0  0  0  0  0  0  0  0  0  0  0  0
  137.4830   74.7810  219.5450 O   0  0  0  0  0  0  0  0  0  0  0  0
  137.9490   72.9160  220.8770 C   0  0  0  0  0  0  0  0  0  0  0  0
  138.5190   72.6010  222.1730 N   0  0  0  0  0  0  0  0  0  0  0  0
  138.4670   71.2310  222.5740 C   0  0  0  0  0  0  0  0  0  0  0  0
  137.9210   70.4410  221.7400 O   0  0  0  0  0  0  0  0  0  0  0  0
  138.9980   70.7690  223.8460 C   0  0  0  0  0  0  0  0  0  0  0  0
  138.8080   69.4490  224.1810 C   0  0  0  0  0  0  0  0  0  0  0  0
  139.2670   68.8960  225.3610 C   0  0  0  0  0  0  0  0  0  0  0  0
  139.9490   69.7190  226.2410 C   0  0  0  0  0  0  0  0  0  0  0  0
  140.4160   69.1890  227.4250 C   0  0  0  0  0  0  0  0  0  0  0  0
  141.0950   70.0320  228.2890 C   0  0  0  0  0  0  0  0  0  0  0  0
  141.2800   71.3490  227.9450 C   0  0  0  0  0  0  0  0  0  0  0  0
  140.8100   71.8890  226.7500 C   0  0  0  0  0  0  0  0  0  0  0  0
  140.1340   71.0480  225.8920 C   0  0  0  0  0  0  0  0  0  0  0  0
  139.6590   71.5400  224.7130 N   0  0  0  0  0  0  0  0  0  0  0  0
  142.2670   72.3558  221.2412 H   0  0  0  0  0  0  0  0  0  0  0  0
  140.7858   72.5951  220.2535 H   0  0  0  0  0  0  0  0  0  0  0  0
  142.0768   73.8441  220.2535 H   0  0  0  0  0  0  0  0  0  0  0  0
  141.5621   75.6487  221.9076 H   0  0  0  0  0  0  0  0  0  0  0  0
  140.4829   75.0831  220.5487 H   0  0  0  0  0  0  0  0  0  0  0  0
  139.6520   75.2065  223.3221 H   0  0  0  0  0  0  0  0  0  0  0  0
  140.0865   77.6099  222.9377 H   0  0  0  0  0  0  0  0  0  0  0  0
  139.6961   77.5260  221.2378 H   0  0  0  0  0  0  0  0  0  0  0  0
  137.8805   77.8394  223.5816 H   0  0  0  0  0  0  0  0  0  0  0  0
  137.4847   78.0898  221.8702 H   0  0  0  0  0  0  0  0  0  0  0  0
  137.1390   75.6143  223.5713 H   0  0  0  0  0  0  0  0  0  0  0  0
  136.2191   76.0482  222.1712 H   0  0  0  0  0  0  0  0  0  0  0  0
  136.9383   72.4865  220.8133 H   0  0  0  0  0  0  0  0  0  0  0  0
  138.5951   72.4912  220.0946 H   0  0  0  0  0  0  0  0  0  0  0  0
  138.9520   73.3150  222.8040 H   0  0  0  0  0  0  0  0  0  0  0  0
  138.2647   68.8026  223.4760 H   0  0  0  0  0  0  0  0  0  0  0  0
  139.0959   67.8347  225.5941 H   0  0  0  0  0  0  0  0  0  0  0  0
  140.2544   68.1302  227.6755 H   0  0  0  0  0  0  0  0  0  0  0  0
  141.4836   69.6495  229.2443 H   0  0  0  0  0  0  0  0  0  0  0  0
  141.8220   72.0047  228.6424 H   0  0  0  0  0  0  0  0  0  0  0  0
  140.9723   72.9479  226.5001 H   0  0  0  0  0  0  0  0  0  0  0  0
  1  2  1  0
  2  3  1  0
  3  4  1  0
  4  5  1  0
  5  6  1  0
  6  7  1  0
  7  8  1  0
  8  9  1  0
  9 10  2  0
  9 11  1  0
 11 12  1  0
 12 13  1  0
 13 14  2  0
 13 15  1  0
 15 16  2  0
 16 17  1  0
 17 18  2  0
 18 19  1  0
 19 20  2  0
 20 21  1  0
 21 22  2  0
 22 23  1  0
 23 24  2  0
  8  4  1  0
 24 15  1  0
 23 18  1  0
  1 25  1  0
  1 26  1  0
  1 27  1  0
  3 28  1  0
  3 29  1  0
  4 30  1  1
  5 31  1  0
  5 32  1  0
  6 33  1  0
  6 34  1  0
  7 35  1  0
  7 36  1  0
 11 37  1  0
 11 38  1  0
 12 39  1  0
 16 40  1  0
 17 41  1  0
 19 42  1  0
 20 43  1  0
 21 44  1  0
 22 45  1  0
M  END
>  <meeko>  (10) 
{"free_energy": -6.11, "intermolecular_energy": -7.9, "internal_energy": -2.17, "cluster_size": 6, "cluster_id": 4, "rank_in_cluster": 1}

$$$$

     RDKit          3D

 45 47  0  0  0  0  0  0  0  0999 V2000
  142.3880   77.4200  219.4380 C   0  0  0  0  0  0  0  0  0  0  0  0
  143.0780   76.2880  219.9260 O   0  0  0  0  0  0  0  0  0  0  0  0
  143.3390   75.4370  218.8870 C   0  0  0  0  0  0  0  0  0  0  0  0
  144.1240   74.2460  219.2880 C   0  0  1  0  0  0  0  0  0  0  0  0
  145.0220   74.4880  220.4870 C   0  0  0  0  0  0  0  0  0  0  0  0
  145.3440   73.0730  220.9440 C   0  0  0  0  0  0  0  0  0  0  0  0
  144.3960   72.1470  220.1830 C   0  0  0  0  0  0  0  0  0  0  0  0
  143.3590   73.1210  219.7790 N   0  0  0  0  0  0  0  0  0  0  0  0
  141.9650   72.9140  219.8880 C   0  0  0  0  0  0  0  0  0  0  0  0
  141.2380   72.4290  218.9860 O   0  0  0  0  0  0  0  0  0  0  0  0
  141.2650   73.2900  221.1590 C   0  0  0  0  0  0  0  0  0  0  0  0
  141.4410   74.7010  221.4470 N   0  0  0  0  0  0  0  0  0  0  0  0
  140.3080   75.3890  221.9780 C   0  0  0  0  0  0  0  0  0  0  0  0
  139.2660   74.6770  222.1370 O   0  0  0  0  0  0  0  0  0  0  0  0
  140.3390   76.8030  222.3120 C   0  0  0  0  0  0  0  0  0  0  0  0
  139.1400   77.4730  222.3880 C   0  0  0  0  0  0  0  0  0  0  0  0
  139.0440   78.8160  222.6970 C   0  0  0  0  0  0  0  0  0  0  0  0
  140.2160   79.5110  222.9410 C   0  0  0  0  0  0  0  0  0  0  0  0
  140.1440   80.8520  223.2520 C   0  0  0  0  0  0  0  0  0  0  0  0
  141.3300   81.5270  223.4910 C   0  0  0  0  0  0  0  0  0  0  0  0
  142.5230   80.8490  223.4130 C   0  0  0  0  0  0  0  0  0  0  0  0
  142.6000   79.4930  223.1000 C   0  0  0  0  0  0  0  0  0  0  0  0
  141.4180   78.8250  222.8620 C   0  0  0  0  0  0  0  0  0  0  0  0
  141.4530   77.4980  222.5520 N   0  0  0  0  0  0  0  0  0  0  0  0
  142.0224   78.0197  220.2846 H   0  0  0  0  0  0  0  0  0  0  0  0
  143.0690   78.0283  218.8247 H   0  0  0  0  0  0  0  0  0  0  0  0
  141.5352   77.0934  218.8247 H   0  0  0  0  0  0  0  0  0  0  0  0
  142.3817   75.0981  218.4643 H   0  0  0  0  0  0  0  0  0  0  0  0
  143.9420   75.9930  218.1540 H   0  0  0  0  0  0  0  0  0  0  0  0
  144.6401   74.0410  218.3385 H   0  0  0  0  0  0  0  0  0  0  0  0
  145.9344   75.0303  220.1980 H   0  0  0  0  0  0  0  0  0  0  0  0
  144.5559   75.1069  221.2678 H   0  0  0  0  0  0  0  0  0  0  0  0
  146.3892   72.8254  220.7070 H   0  0  0  0  0  0  0  0  0  0  0  0
  145.2172   72.9668  222.0315 H   0  0  0  0  0  0  0  0  0  0  0  0
  144.8858   71.6868  219.3122 H   0  0  0  0  0  0  0  0  0  0  0  0
  144.0254   71.2865  220.7594 H   0  0  0  0  0  0  0  0  0  0  0  0
  140.1913   73.0742  221.0566 H   0  0  0  0  0  0  0  0  0  0  0  0
  141.6964   72.7054  221.9849 H   0  0  0  0  0  0  0  0  0  0  0  0
  142.3390   75.2160  221.2870 H   0  0  0  0  0  0  0  0  0  0  0  0
  138.2136   76.9127  222.1935 H   0  0  0  0  0  0  0  0  0  0  0  0
  138.0664   79.3177  222.7476 H   0  0  0  0  0  0  0  0  0  0  0  0
  139.1752   81.3699  223.3086 H   0  0  0  0  0  0  0  0  0  0  0  0
  141.3170   82.5980  223.7414 H   0  0  0  0  0  0  0  0  0  0  0  0
  143.4557   81.3994  223.6056 H   0  0  0  0  0  0  0  0  0  0  0  0
  143.5687   78.9748  223.0449 H   0  0  0  0  0  0  0  0  0  0  0  0
  1  2  1  0
  2  3  1  0
  3  4  1  0
  4  5  1  0
  5  6  1  0
  6  7  1  0
  7  8  1  0
  8  9  1  0
  9 10  2  0
  9 11  1  0
 11 12  1  0
 12 13  1  0
 13 14  2  0
 13 15  1  0
 15 16  2  0
 16 17  1  0
 17 18  2  0
 18 19  1  0
 19 20  2  0
 20 21  1  0
 21 22  2  0
 22 23  1  0
 23 24  2  0
  8  4  1  0
 24 15  1  0
 23 18  1  0
  1 25  1  0
  1 26  1  0
  1 27  1  0
  3 28  1  0
  3 29  1  0
  4 30  1  6
  5 31  1  0
  5 32  1  0
  6 33  1  0
  6 34  1  0
  7 35  1  0
  7 36  1  0
 11 37  1  0
 11 38  1  0
 12 39  1  0
 16 40  1  0
 17 41  1  0
 19 42  1  0
 20 43  1  0
 21 44  1  0
 22 45  1  0
M  END
>  <meeko>  (11) 
{"free_energy": -5.92, "intermolecular_energy": -7.71, "internal_energy": -2.38, "cluster_size": 4, "cluster_id": 5, "rank_in_cluster": 1}

$$$$

     RDKit          3D

 45 47  0  0  0  0  0  0  0  0999 V2000
  142.3910   77.2840  219.3680 C   0  0  0  0  0  0  0  0  0  0  0  0
  143.1590   76.2310  219.9130 O   0  0  0  0  0  0  0  0  0  0  0  0
  143.5400   75.3850  218.9060 C   0  0  0  0  0  0  0  0  0  0  0  0
  144.2640   74.1860  219.3910 C   0  0  1  0  0  0  0  0  0  0  0  0
  145.0600   74.4320  220.6580 C   0  0  0  0  0  0  0  0  0  0  0  0
  145.3140   73.0180  221.1630 C   0  0  0  0  0  0  0  0  0  0  0  0
  144.4160   72.0980  220.3370 C   0  0  0  0  0  0  0  0  0  0  0  0
  143.4370   73.0840  219.8310 N   0  0  0  0  0  0  0  0  0  0  0  0
  142.0350   72.9050  219.8220 C   0  0  0  0  0  0  0  0  0  0  0  0
  141.3740   72.4620  218.8510 O   0  0  0  0  0  0  0  0  0  0  0  0
  141.2430   73.2600  221.0450 C   0  0  0  0  0  0  0  0  0  0  0  0
  141.4180   74.6590  221.3840 N   0  0  0  0  0  0  0  0  0  0  0  0
  140.2840   75.3260  221.9400 C   0  0  0  0  0  0  0  0  0  0  0  0
  139.2430   74.6080  222.0730 O   0  0  0  0  0  0  0  0  0  0  0  0
  140.3140   76.7270  222.3250 C   0  0  0  0  0  0  0  0  0  0  0  0
  139.1160   77.3410  222.6130 C   0  0  0  0  0  0  0  0  0  0  0  0
  139.0200   78.6670  222.9910 C   0  0  0  0  0  0  0  0  0  0  0  0
  140.1880   79.4030  223.0800 C   0  0  0  0  0  0  0  0  0  0  0  0
  140.1150   80.7280  223.4560 C   0  0  0  0  0  0  0  0  0  0  0  0
  141.2980   81.4440  223.5380 C   0  0  0  0  0  0  0  0  0  0  0  0
  142.4890   80.8220  223.2490 C   0  0  0  0  0  0  0  0  0  0  0  0
  142.5670   79.4840  222.8700 C   0  0  0  0  0  0  0  0  0  0  0  0
  141.3880   78.7740  222.7880 C   0  0  0  0  0  0  0  0  0  0  0  0
  141.4250   77.4620  222.4200 N   0  0  0  0  0  0  0  0  0  0  0  0
  141.9559   77.8806  220.1833 H   0  0  0  0  0  0  0  0  0  0  0  0
  143.0352   77.9249  218.7481 H   0  0  0  0  0  0  0  0  0  0  0  0
  141.5839   76.8664  218.7481 H   0  0  0  0  0  0  0  0  0  0  0  0
  142.6394   75.0551  218.3675 H   0  0  0  0  0  0  0  0  0  0  0  0
  144.2305   75.9421  218.2558 H   0  0  0  0  0  0  0  0  0  0  0  0
  144.8557   73.9548  218.4930 H   0  0  0  0  0  0  0  0  0  0  0  0
  146.0042   74.9526  220.4402 H   0  0  0  0  0  0  0  0  0  0  0  0
  144.5410   75.0726  221.3862 H   0  0  0  0  0  0  0  0  0  0  0  0
  146.3705   72.7470  221.0204 H   0  0  0  0  0  0  0  0  0  0  0  0
  145.0931   72.9321  222.2372 H   0  0  0  0  0  0  0  0  0  0  0  0
  144.9692   71.6145  219.5183 H   0  0  0  0  0  0  0  0  0  0  0  0
  143.9801   71.2544  220.8923 H   0  0  0  0  0  0  0  0  0  0  0  0
  140.1773   73.0660  220.8533 H   0  0  0  0  0  0  0  0  0  0  0  0
  141.5989   72.6464  221.8858 H   0  0  0  0  0  0  0  0  0  0  0  0
  142.3150   75.1820  221.2420 H   0  0  0  0  0  0  0  0  0  0  0  0
  138.1921   76.7487  222.5389 H   0  0  0  0  0  0  0  0  0  0  0  0
  138.0443   79.1233  223.2143 H   0  0  0  0  0  0  0  0  0  0  0  0
  139.1483   81.2010  223.6835 H   0  0  0  0  0  0  0  0  0  0  0  0
  141.2843   82.5037  223.8326 H   0  0  0  0  0  0  0  0  0  0  0  0
  143.4191   81.4050  223.3199 H   0  0  0  0  0  0  0  0  0  0  0  0
  143.5341   79.0110  222.6443 H   0  0  0  0  0  0  0  0  0  0  0  0
  1  2  1  0
  2  3  1  0
  3  4  1  0
  4  5  1  0
  5  6  1  0
  6  7  1  0
  7  8  1  0
  8  9  1  0
  9 10  2  0
  9 11  1  0
 11 12  1  0
 12 13  1  0
 13 14  2  0
 13 15  1  0
 15 16  2  0
 16 17  1  0
 17 18  2  0
 18 19  1  0
 19 20  2  0
 20 21  1  0
 21 22  2  0
 22 23  1  0
 23 24  2  0
  8  4  1  0
 24 15  1  0
 23 18  1  0
  1 25  1  0
  1 26  1  0
  1 27  1  0
  3 28  1  0
  3 29  1  0
  4 30  1  6
  5 31  1  0
  5 32  1  0
  6 33  1  0
  6 34  1  0
  7 35  1  0
  7 36  1  0
 11 37  1  0
 11 38  1  0
 12 39  1  0
 16 40  1  0
 17 41  1  0
 19 42  1  0
 20 43  1  0
 21 44  1  0
 22 45  1  0
M  END
>  <meeko>  (12) 
{"free_energy": -5.8, "intermolecular_energy": -7.59, "internal_energy": -2.4, "cluster_size": 4, "cluster_id": 5, "rank_in_cluster": 4}

$$$$

     RDKit          3D

 45 47  0  0  0  0  0  0  0  0999 V2000
  139.4260   75.7710  222.3140 C   0  0  0  0  0  0  0  0  0  0  0  0
  140.1090   74.5350  222.3300 O   0  0  0  0  0  0  0  0  0  0  0  0
  140.9760   74.4860  221.2720 C   0  0  0  0  0  0  0  0  0  0  0  0
  141.0190   73.1600  220.6110 C   0  0  1  0  0  0  0  0  0  0  0  0
  141.4320   72.0340  221.5410 C   0  0  0  0  0  0  0  0  0  0  0  0
  140.9770   70.7990  220.7780 C   0  0  0  0  0  0  0  0  0  0  0  0
  140.0910   71.2980  219.6370 C   0  0  0  0  0  0  0  0  0  0  0  0
  139.7510   72.6430  220.1490 N   0  0  0  0  0  0  0  0  0  0  0  0
  138.4550   73.2070  220.1470 C   0  0  0  0  0  0  0  0  0  0  0  0
  138.0440   74.0600  219.3230 O   0  0  0  0  0  0  0  0  0  0  0  0
  137.4690   72.7810  221.1930 C   0  0  0  0  0  0  0  0  0  0  0  0
  138.1400   72.4880  222.4450 N   0  0  0  0  0  0  0  0  0  0  0  0
  138.2280   71.1110  222.8130 C   0  0  0  0  0  0  0  0  0  0  0  0
  137.7010   70.2940  221.9920 O   0  0  0  0  0  0  0  0  0  0  0  0
  138.8720   70.6700  224.0390 C   0  0  0  0  0  0  0  0  0  0  0  0
  138.8580   69.3240  224.3250 C   0  0  0  0  0  0  0  0  0  0  0  0
  139.4380   68.7880  225.4590 C   0  0  0  0  0  0  0  0  0  0  0  0
  140.0580   69.6540  226.3430 C   0  0  0  0  0  0  0  0  0  0  0  0
  140.6430   69.1400  227.4810 C   0  0  0  0  0  0  0  0  0  0  0  0
  141.2570   70.0270  228.3500 C   0  0  0  0  0  0  0  0  0  0  0  0
  141.2650   71.3690  228.0560 C   0  0  0  0  0  0  0  0  0  0  0  0
  140.6760   71.8920  226.9070 C   0  0  0  0  0  0  0  0  0  0  0  0
  140.0650   71.0070  226.0440 C   0  0  0  0  0  0  0  0  0  0  0  0
  139.4770   71.4820  224.9090 N   0  0  0  0  0  0  0  0  0  0  0  0
  139.2430   76.1022  223.3469 H   0  0  0  0  0  0  0  0  0  0  0  0
  140.0376   76.5212  221.7913 H   0  0  0  0  0  0  0  0  0  0  0  0
  138.4654   75.6524  221.7913 H   0  0  0  0  0  0  0  0  0  0  0  0
  140.6645   75.2361  220.5302 H   0  0  0  0  0  0  0  0  0  0  0  0
  141.9831   74.6867  221.6662 H   0  0  0  0  0  0  0  0  0  0  0  0
  141.7200   73.3867  219.7942 H   0  0  0  0  0  0  0  0  0  0  0  0
  142.5207   72.0264  221.6982 H   0  0  0  0  0  0  0  0  0  0  0  0
  140.9979   72.1137  222.5486 H   0  0  0  0  0  0  0  0  0  0  0  0
  141.8466   70.2586  220.3758 H   0  0  0  0  0  0  0  0  0  0  0  0
  140.4300   70.1050  221.4330 H   0  0  0  0  0  0  0  0  0  0  0  0
  140.6405   71.3498  218.6855 H   0  0  0  0  0  0  0  0  0  0  0  0
  139.2274   70.6573  219.4054 H   0  0  0  0  0  0  0  0  0  0  0  0
  136.7421   73.5907  221.3544 H   0  0  0  0  0  0  0  0  0  0  0  0
  136.9579   71.8710  220.8457 H   0  0  0  0  0  0  0  0  0  0  0  0
  138.5500   73.2230  223.0680 H   0  0  0  0  0  0  0  0  0  0  0  0
  138.3619   68.6429  223.6179 H   0  0  0  0  0  0  0  0  0  0  0  0
  139.4079   67.7057  225.6533 H   0  0  0  0  0  0  0  0  0  0  0  0
  140.6228   68.0606  227.6919 H   0  0  0  0  0  0  0  0  0  0  0  0
  141.7352   69.6591  229.2698 H   0  0  0  0  0  0  0  0  0  0  0  0
  141.7570   72.0593  228.7571 H   0  0  0  0  0  0  0  0  0  0  0  0
  140.6975   72.9713  226.6959 H   0  0  0  0  0  0  0  0  0  0  0  0
  1  2  1  0
  2  3  1  0
  3  4  1  0
  4  5  1  0
  5  6  1  0
  6  7  1  0
  7  8  1  0
  8  9  1  0
  9 10  2  0
  9 11  1  0
 11 12  1  0
 12 13  1  0
 13 14  2  0
 13 15  1  0
 15 16  2  0
 16 17  1  0
 17 18  2  0
 18 19  1  0
 19 20  2  0
 20 21  1  0
 21 22  2  0
 22 23  1  0
 23 24  2  0
  8  4  1  0
 24 15  1  0
 23 18  1  0
  1 25  1  0
  1 26  1  0
  1 27  1  0
  3 28  1  0
  3 29  1  0
  4 30  1  6
  5 31  1  0
  5 32  1  0
  6 33  1  0
  6 34  1  0
  7 35  1  0
  7 36  1  0
 11 37  1  0
 11 38  1  0
 12 39  1  0
 16 40  1  0
 17 41  1  0
 19 42  1  0
 20 43  1  0
 21 44  1  0
 22 45  1  0
M  END
>  <meeko>  (13) 
{"free_energy": -5.61, "intermolecular_energy": -7.4, "internal_energy": -2.67, "cluster_size": 6, "cluster_id": 4, "rank_in_cluster": 4}

$$$$

     RDKit          3D

 45 47  0  0  0  0  0  0  0  0999 V2000
  145.4340   73.0230  221.1680 C   0  0  0  0  0  0  0  0  0  0  0  0
  145.0820   74.2600  220.5840 O   0  0  0  0  0  0  0  0  0  0  0  0
  143.7230   74.3140  220.4300 C   0  0  0  0  0  0  0  0  0  0  0  0
  143.2490   75.5970  219.8590 C   0  0  1  0  0  0  0  0  0  0  0  0
  143.0200   75.5450  218.3610 C   0  0  0  0  0  0  0  0  0  0  0  0
  142.1510   76.7710  218.1210 C   0  0  0  0  0  0  0  0  0  0  0  0
  141.7050   77.2600  219.4980 C   0  0  0  0  0  0  0  0  0  0  0  0
  141.9400   76.0340  220.2920 N   0  0  0  0  0  0  0  0  0  0  0  0
  141.0350   75.4900  221.2310 C   0  0  0  0  0  0  0  0  0  0  0  0
  140.7250   76.0260  222.3230 O   0  0  0  0  0  0  0  0  0  0  0  0
  140.3750   74.1760  220.9360 C   0  0  0  0  0  0  0  0  0  0  0  0
  139.9660   73.5190  222.1630 N   0  0  0  0  0  0  0  0  0  0  0  0
  140.6410   72.3030  222.4880 C   0  0  0  0  0  0  0  0  0  0  0  0
  141.5290   71.9350  221.6560 O   0  0  0  0  0  0  0  0  0  0  0  0
  140.3350   71.5370  223.6850 C   0  0  0  0  0  0  0  0  0  0  0  0
  139.6340   70.3620  223.5350 C   0  0  0  0  0  0  0  0  0  0  0  0
  139.2870   69.5500  224.5980 C   0  0  0  0  0  0  0  0  0  0  0  0
  139.6660   69.9460  225.8680 C   0  0  0  0  0  0  0  0  0  0  0  0
  139.3300   69.1510  226.9430 C   0  0  0  0  0  0  0  0  0  0  0  0
  139.7210   69.5680  228.2050 C   0  0  0  0  0  0  0  0  0  0  0  0
  140.4200   70.7430  228.3440 C   0  0  0  0  0  0  0  0  0  0  0  0
  140.7620   71.5490  227.2610 C   0  0  0  0  0  0  0  0  0  0  0  0
  140.3720   71.1310  226.0060 C   0  0  0  0  0  0  0  0  0  0  0  0
  140.6880   71.8940  224.9220 N   0  0  0  0  0  0  0  0  0  0  0  0
  145.4080   73.1143  222.2639 H   0  0  0  0  0  0  0  0  0  0  0  0
  144.7202   72.2499  220.8475 H   0  0  0  0  0  0  0  0  0  0  0  0
  146.4479   72.7415  220.8475 H   0  0  0  0  0  0  0  0  0  0  0  0
  143.4148   73.4982  219.7595 H   0  0  0  0  0  0  0  0  0  0  0  0
  143.2773   74.2181  221.4310 H   0  0  0  0  0  0  0  0  0  0  0  0
  144.0624   76.2574  220.1941 H   0  0  0  0  0  0  0  0  0  0  0  0
  143.9697   75.6163  217.8105 H   0  0  0  0  0  0  0  0  0  0  0  0
  142.5600   74.6062  218.0188 H   0  0  0  0  0  0  0  0  0  0  0  0
  142.7301   77.5534  217.6087 H   0  0  0  0  0  0  0  0  0  0  0  0
  141.2870   76.5289  217.4847 H   0  0  0  0  0  0  0  0  0  0  0  0
  142.3201   78.1004  219.8522 H   0  0  0  0  0  0  0  0  0  0  0  0
  140.6779   77.6513  219.5414 H   0  0  0  0  0  0  0  0  0  0  0  0
  139.4892   74.3502  220.3075 H   0  0  0  0  0  0  0  0  0  0  0  0
  141.0944   73.5294  220.4122 H   0  0  0  0  0  0  0  0  0  0  0  0
  139.2210   73.8900  222.7980 H   0  0  0  0  0  0  0  0  0  0  0  0
  139.3361   70.0550  222.5216 H   0  0  0  0  0  0  0  0  0  0  0  0
  138.7264   68.6170  224.4390 H   0  0  0  0  0  0  0  0  0  0  0  0
  138.7692   68.2151  226.8032 H   0  0  0  0  0  0  0  0  0  0  0  0
  139.4736   68.9628  229.0896 H   0  0  0  0  0  0  0  0  0  0  0  0
  140.7221   71.0602  229.3530 H   0  0  0  0  0  0  0  0  0  0  0  0
  141.3227   72.4849  227.4015 H   0  0  0  0  0  0  0  0  0  0  0  0
  1  2  1  0
  2  3  1  0
  3  4  1  0
  4  5  1  0
  5  6  1  0
  6  7  1  0
  7  8  1  0
  8  9  1  0
  9 10  2  0
  9 11  1  0
 11 12  1  0
 12 13  1  0
 13 14  2  0
 13 15  1  0
 15 16  2  0
 16 17  1  0
 17 18  2  0
 18 19  1  0
 19 20  2  0
 20 21  1  0
 21 22  2  0
 22 23  1  0
 23 24  2  0
  8  4  1  0
 24 15  1  0
 23 18  1  0
  1 25  1  0
  1 26  1  0
  1 27  1  0
  3 28  1  0
  3 29  1  0
  4 30  1  6
  5 31  1  0
  5 32  1  0
  6 33  1  0
  6 34  1  0
  7 35  1  0
  7 36  1  0
 11 37  1  0
 11 38  1  0
 12 39  1  0
 16 40  1  0
 17 41  1  0
 19 42  1  0
 20 43  1  0
 21 44  1  0
 22 45  1  0
M  END
>  <meeko>  (14) 
{"free_energy": -6.97, "intermolecular_energy": -8.76, "internal_energy": -1.27, "cluster_size": 6, "cluster_id": 1, "rank_in_cluster": 1}

$$$$

     RDKit          3D

 45 47  0  0  0  0  0  0  0  0999 V2000
  142.5800   77.2740  219.2460 C   0  0  0  0  0  0  0  0  0  0  0  0
  141.4650   77.7410  219.9770 O   0  0  0  0  0  0  0  0  0  0  0  0
  141.7010   79.0270  220.3830 C   0  0  0  0  0  0  0  0  0  0  0  0
  142.1530   79.1230  221.7920 C   0  0  1  0  0  0  0  0  0  0  0  0
  142.5290   80.5320  222.2110 C   0  0  0  0  0  0  0  0  0  0  0  0
  142.5140   80.4340  223.7300 C   0  0  0  0  0  0  0  0  0  0  0  0
  141.8580   79.0960  224.0700 C   0  0  0  0  0  0  0  0  0  0  0  0
  141.1570   78.8260  222.7960 N   0  0  0  0  0  0  0  0  0  0  0  0
  139.8190   78.3840  222.6850 C   0  0  0  0  0  0  0  0  0  0  0  0
  138.8090   79.1260  222.7580 O   0  0  0  0  0  0  0  0  0  0  0  0
  139.5450   76.9260  222.4630 C   0  0  0  0  0  0  0  0  0  0  0  0
  140.7330   76.2450  221.9870 N   0  0  0  0  0  0  0  0  0  0  0  0
  140.5940   74.8550  221.6900 C   0  0  0  0  0  0  0  0  0  0  0  0
  139.4330   74.3720  221.8820 O   0  0  0  0  0  0  0  0  0  0  0  0
  141.7000   74.0460  221.2050 C   0  0  0  0  0  0  0  0  0  0  0  0
  141.4370   72.7400  220.8590 C   0  0  0  0  0  0  0  0  0  0  0  0
  142.4070   71.8760  220.3850 C   0  0  0  0  0  0  0  0  0  0  0  0
  143.6980   72.3570  220.2580 C   0  0  0  0  0  0  0  0  0  0  0  0
  144.6810   71.5120  219.7870 C   0  0  0  0  0  0  0  0  0  0  0  0
  145.9660   72.0160  219.6690 C   0  0  0  0  0  0  0  0  0  0  0  0
  146.2180   73.3210  220.0180 C   0  0  0  0  0  0  0  0  0  0  0  0
  145.2270   74.1780  220.4930 C   0  0  0  0  0  0  0  0  0  0  0  0
  143.9500   73.6740  220.6100 C   0  0  0  0  0  0  0  0  0  0  0  0
  142.9540   74.4820  221.0720 N   0  0  0  0  0  0  0  0  0  0  0  0
  143.3644   76.9455  219.9437 H   0  0  0  0  0  0  0  0  0  0  0  0
  142.2749   76.4280  218.6125 H   0  0  0  0  0  0  0  0  0  0  0  0
  142.9689   78.0849  218.6125 H   0  0  0  0  0  0  0  0  0  0  0  0
  142.4784   79.4602  219.7365 H   0  0  0  0  0  0  0  0  0  0  0  0
  140.7487   79.5725  220.3081 H   0  0  0  0  0  0  0  0  0  0  0  0
  142.9777   78.3954  221.7691 H   0  0  0  0  0  0  0  0  0  0  0  0
  143.5277   80.8049  221.8393 H   0  0  0  0  0  0  0  0  0  0  0  0
  141.8547   81.3045  221.8129 H   0  0  0  0  0  0  0  0  0  0  0  0
  143.5408   80.4650  224.1233 H   0  0  0  0  0  0  0  0  0  0  0  0
  141.9625   81.2736  224.1782 H   0  0  0  0  0  0  0  0  0  0  0  0
  142.6046   78.3210  224.2980 H   0  0  0  0  0  0  0  0  0  0  0  0
  141.2135   79.1079  224.9613 H   0  0  0  0  0  0  0  0  0  0  0  0
  139.2243   76.4709  223.4117 H   0  0  0  0  0  0  0  0  0  0  0  0
  138.7546   76.8276  221.7043 H   0  0  0  0  0  0  0  0  0  0  0  0
  141.6580   76.7180  221.8550 H   0  0  0  0  0  0  0  0  0  0  0  0
  140.4078   72.3664  220.9644 H   0  0  0  0  0  0  0  0  0  0  0  0
  142.1598   70.8381  220.1171 H   0  0  0  0  0  0  0  0  0  0  0  0
  144.4521   70.4713  219.5138 H   0  0  0  0  0  0  0  0  0  0  0  0
  146.7797   71.3754  219.2982 H   0  0  0  0  0  0  0  0  0  0  0  0
  147.2440   73.7049  219.9184 H   0  0  0  0  0  0  0  0  0  0  0  0
  145.4560   75.2190  220.7646 H   0  0  0  0  0  0  0  0  0  0  0  0
  1  2  1  0
  2  3  1  0
  3  4  1  0
  4  5  1  0
  5  6  1  0
  6  7  1  0
  7  8  1  0
  8  9  1  0
  9 10  2  0
  9 11  1  0
 11 12  1  0
 12 13  1  0
 13 14  2  0
 13 15  1  0
 15 16  2  0
 16 17  1  0
 17 18  2  0
 18 19  1  0
 19 20  2  0
 20 21  1  0
 21 22  2  0
 22 23  1  0
 23 24  2  0
  8  4  1  0
 24 15  1  0
 23 18  1  0
  1 25  1  0
  1 26  1  0
  1 27  1  0
  3 28  1  0
  3 29  1  0
  4 30  1  6
  5 31  1  0
  5 32  1  0
  6 33  1  0
  6 34  1  0
  7 35  1  0
  7 36  1  0
 11 37  1  0
 11 38  1  0
 12 39  1  0
 16 40  1  0
 17 41  1  0
 19 42  1  0
 20 43  1  0
 21 44  1  0
 22 45  1  0
M  END
>  <meeko>  (15) 
{"free_energy": -5.85, "intermolecular_energy": -7.64, "internal_energy": -2.25, "cluster_size": 1, "cluster_id": 6, "rank_in_cluster": 1}

$$$$

     RDKit          3D

 45 47  0  0  0  0  0  0  0  0999 V2000
  142.4950   77.3470  219.1590 C   0  0  0  0  0  0  0  0  0  0  0  0
  143.0670   76.2070  219.7680 O   0  0  0  0  0  0  0  0  0  0  0  0
  143.4760   75.3360  218.7940 C   0  0  0  0  0  0  0  0  0  0  0  0
  144.2280   74.1750  219.3260 C   0  0  1  0  0  0  0  0  0  0  0  0
  145.0740   74.5070  220.5410 C   0  0  0  0  0  0  0  0  0  0  0  0
  145.3590   73.1310  221.1260 C   0  0  0  0  0  0  0  0  0  0  0  0
  144.4350   72.1540  220.4000 C   0  0  0  0  0  0  0  0  0  0  0  0
  143.4290   73.1000  219.8710 N   0  0  0  0  0  0  0  0  0  0  0  0
  142.0290   72.9140  219.9320 C   0  0  0  0  0  0  0  0  0  0  0  0
  141.3210   72.4780  218.9920 O   0  0  0  0  0  0  0  0  0  0  0  0
  141.2990   73.2520  221.1980 C   0  0  0  0  0  0  0  0  0  0  0  0
  141.4770   74.6510  221.5370 N   0  0  0  0  0  0  0  0  0  0  0  0
  140.3070   75.3580  221.9520 C   0  0  0  0  0  0  0  0  0  0  0  0
  139.2370   74.6720  221.9760 O   0  0  0  0  0  0  0  0  0  0  0  0
  140.3350   76.7640  222.3210 C   0  0  0  0  0  0  0  0  0  0  0  0
  139.1310   77.4040  222.5050 C   0  0  0  0  0  0  0  0  0  0  0  0
  139.0320   78.7370  222.8570 C   0  0  0  0  0  0  0  0  0  0  0  0
  140.2050   79.4520  223.0300 C   0  0  0  0  0  0  0  0  0  0  0  0
  140.1290   80.7830  223.3810 C   0  0  0  0  0  0  0  0  0  0  0  0
  141.3160   81.4770  223.5490 C   0  0  0  0  0  0  0  0  0  0  0  0
  142.5130   80.8280  223.3630 C   0  0  0  0  0  0  0  0  0  0  0  0
  142.5940   79.4830  223.0080 C   0  0  0  0  0  0  0  0  0  0  0  0
  141.4110   78.7950  222.8420 C   0  0  0  0  0  0  0  0  0  0  0  0
  141.4500   77.4780  222.4950 N   0  0  0  0  0  0  0  0  0  0  0  0
  142.1462   78.0421  219.9369 H   0  0  0  0  0  0  0  0  0  0  0  0
  143.2496   77.8458  218.5331 H   0  0  0  0  0  0  0  0  0  0  0  0
  141.6440   77.0402  218.5331 H   0  0  0  0  0  0  0  0  0  0  0  0
  142.5876   74.9633  218.2630 H   0  0  0  0  0  0  0  0  0  0  0  0
  144.1554   75.8873  218.1274 H   0  0  0  0  0  0  0  0  0  0  0  0
  144.7835   73.8889  218.4207 H   0  0  0  0  0  0  0  0  0  0  0  0
  146.0046   75.0167  220.2508 H   0  0  0  0  0  0  0  0  0  0  0  0
  144.5805   75.1913  221.2468 H   0  0  0  0  0  0  0  0  0  0  0  0
  146.4108   72.8564  220.9578 H   0  0  0  0  0  0  0  0  0  0  0  0
  145.1828   73.1148  222.2117 H   0  0  0  0  0  0  0  0  0  0  0  0
  144.9580   71.6201  219.5928 H   0  0  0  0  0  0  0  0  0  0  0  0
  144.0284   71.3468  221.0269 H   0  0  0  0  0  0  0  0  0  0  0  0
  140.2268   73.0475  221.0617 H   0  0  0  0  0  0  0  0  0  0  0  0
  141.7052   72.6368  222.0144 H   0  0  0  0  0  0  0  0  0  0  0  0
  142.3980   75.1460  221.4910 H   0  0  0  0  0  0  0  0  0  0  0  0
  138.2042   76.8281  222.3655 H   0  0  0  0  0  0  0  0  0  0  0  0
  138.0511   79.2152  222.9955 H   0  0  0  0  0  0  0  0  0  0  0  0
  139.1570   81.2780  223.5231 H   0  0  0  0  0  0  0  0  0  0  0  0
  141.3006   82.5405  223.8294 H   0  0  0  0  0  0  0  0  0  0  0  0
  143.4462   81.3940  223.5001 H   0  0  0  0  0  0  0  0  0  0  0  0
  143.5661   78.9884  222.8654 H   0  0  0  0  0  0  0  0  0  0  0  0
  1  2  1  0
  2  3  1  0
  3  4  1  0
  4  5  1  0
  5  6  1  0
  6  7  1  0
  7  8  1  0
  8  9  1  0
  9 10  2  0
  9 11  1  0
 11 12  1  0
 12 13  1  0
 13 14  2  0
 13 15  1  0
 15 16  2  0
 16 17  1  0
 17 18  2  0
 18 19  1  0
 19 20  2  0
 20 21  1  0
 21 22  2  0
 22 23  1  0
 23 24  2  0
  8  4  1  0
 24 15  1  0
 23 18  1  0
  1 25  1  0
  1 26  1  0
  1 27  1  0
  3 28  1  0
  3 29  1  0
  4 30  1  6
  5 31  1  0
  5 32  1  0
  6 33  1  0
  6 34  1  0
  7 35  1  0
  7 36  1  0
 11 37  1  0
 11 38  1  0
 12 39  1  0
 16 40  1  0
 17 41  1  0
 19 42  1  0
 20 43  1  0
 21 44  1  0
 22 45  1  0
M  END
>  <meeko>  (16) 
{"free_energy": -5.89, "intermolecular_energy": -7.68, "internal_energy": -2.39, "cluster_size": 4, "cluster_id": 5, "rank_in_cluster": 3}

$$$$

     RDKit          3D

 45 47  0  0  0  0  0  0  0  0999 V2000
  140.9610   71.9160  227.9670 C   0  0  0  0  0  0  0  0  0  0  0  0
  140.5980   71.7350  226.6140 O   0  0  0  0  0  0  0  0  0  0  0  0
  141.4430   70.8240  226.0400 C   0  0  0  0  0  0  0  0  0  0  0  0
  140.8110   69.5030  225.8090 C   0  0  1  0  0  0  0  0  0  0  0  0
  140.1670   68.9150  227.0510 C   0  0  0  0  0  0  0  0  0  0  0  0
  139.2520   67.8470  226.4690 C   0  0  0  0  0  0  0  0  0  0  0  0
  139.2100   68.0900  224.9610 C   0  0  0  0  0  0  0  0  0  0  0  0
  139.6740   69.4940  224.9170 N   0  0  0  0  0  0  0  0  0  0  0  0
  139.0780   70.5210  224.1500 C   0  0  0  0  0  0  0  0  0  0  0  0
  138.0540   71.1660  224.4860 O   0  0  0  0  0  0  0  0  0  0  0  0
  139.6840   70.8980  222.8320 C   0  0  0  0  0  0  0  0  0  0  0  0
  139.7580   72.3400  222.6920 N   0  0  0  0  0  0  0  0  0  0  0  0
  140.7710   72.8430  221.8200 C   0  0  0  0  0  0  0  0  0  0  0  0
  141.4970   71.9600  221.2630 O   0  0  0  0  0  0  0  0  0  0  0  0
  140.9620   74.2650  221.5840 C   0  0  0  0  0  0  0  0  0  0  0  0
  141.8770   74.6410  220.6280 C   0  0  0  0  0  0  0  0  0  0  0  0
  142.1430   75.9610  220.3160 C   0  0  0  0  0  0  0  0  0  0  0  0
  141.4510   76.9420  221.0050 C   0  0  0  0  0  0  0  0  0  0  0  0
  141.7010   78.2660  220.7100 C   0  0  0  0  0  0  0  0  0  0  0  0
  140.9970   79.2300  221.4120 C   0  0  0  0  0  0  0  0  0  0  0  0
  140.0850   78.8440  222.3640 C   0  0  0  0  0  0  0  0  0  0  0  0
  139.8290   77.5080  222.6650 C   0  0  0  0  0  0  0  0  0  0  0  0
  140.5320   76.5510  221.9650 C   0  0  0  0  0  0  0  0  0  0  0  0
  140.3090   75.2330  222.2320 N   0  0  0  0  0  0  0  0  0  0  0  0
  140.1662   71.5197  228.6160 H   0  0  0  0  0  0  0  0  0  0  0  0
  141.9005   71.3809  228.1693 H   0  0  0  0  0  0  0  0  0  0  0  0
  141.0990   72.9884  228.1693 H   0  0  0  0  0  0  0  0  0  0  0  0
  141.7817   71.2231  225.0725 H   0  0  0  0  0  0  0  0  0  0  0  0
  142.2779   70.6682  226.7390 H   0  0  0  0  0  0  0  0  0  0  0  0
  141.6783   68.9533  225.4145 H   0  0  0  0  0  0  0  0  0  0  0  0
  140.9208   68.4726  227.7189 H   0  0  0  0  0  0  0  0  0  0  0  0
  139.6395   69.6583  227.6669 H   0  0  0  0  0  0  0  0  0  0  0  0
  139.6532   66.8451  226.6819 H   0  0  0  0  0  0  0  0  0  0  0  0
  138.2456   67.9007  226.9098 H   0  0  0  0  0  0  0  0  0  0  0  0
  139.8913   67.4172  224.4195 H   0  0  0  0  0  0  0  0  0  0  0  0
  138.2334   67.9086  224.4883 H   0  0  0  0  0  0  0  0  0  0  0  0
  140.6983   70.4771  222.7680 H   0  0  0  0  0  0  0  0  0  0  0  0
  139.0514   70.4978  222.0260 H   0  0  0  0  0  0  0  0  0  0  0  0
  139.1180   73.0030  223.1880 H   0  0  0  0  0  0  0  0  0  0  0  0
  142.4226   73.8542  220.0865 H   0  0  0  0  0  0  0  0  0  0  0  0
  142.8815   76.2237  219.5443 H   0  0  0  0  0  0  0  0  0  0  0  0
  142.4362   78.5472  219.9416 H   0  0  0  0  0  0  0  0  0  0  0  0
  141.1669   80.2976  221.2087 H   0  0  0  0  0  0  0  0  0  0  0  0
  139.5337   79.6225  222.9117 H   0  0  0  0  0  0  0  0  0  0  0  0
  139.0931   77.2273  223.4328 H   0  0  0  0  0  0  0  0  0  0  0  0
  1  2  1  0
  2  3  1  0
  3  4  1  0
  4  5  1  0
  5  6  1  0
  6  7  1  0
  7  8  1  0
  8  9  1  0
  9 10  2  0
  9 11  1  0
 11 12  1  0
 12 13  1  0
 13 14  2  0
 13 15  1  0
 15 16  2  0
 16 17  1  0
 17 18  2  0
 18 19  1  0
 19 20  2  0
 20 21  1  0
 21 22  2  0
 22 23  1  0
 23 24  2  0
  8  4  1  0
 24 15  1  0
 23 18  1  0
  1 25  1  0
  1 26  1  0
  1 27  1  0
  3 28  1  0
  3 29  1  0
  4 30  1  6
  5 31  1  0
  5 32  1  0
  6 33  1  0
  6 34  1  0
  7 35  1  0
  7 36  1  0
 11 37  1  0
 11 38  1  0
 12 39  1  0
 16 40  1  0
 17 41  1  0
 19 42  1  0
 20 43  1  0
 21 44  1  0
 22 45  1  0
M  END
>  <meeko>  (17) 
{"free_energy": -6.56, "intermolecular_energy": -8.35, "internal_energy": -1.52, "cluster_size": 2, "cluster_id": 2, "rank_in_cluster": 1}

$$$$

     RDKit          3D

 45 47  0  0  0  0  0  0  0  0999 V2000
  139.2920   75.7790  222.3370 C   0  0  0  0  0  0  0  0  0  0  0  0
  139.9730   74.5410  222.3470 O   0  0  0  0  0  0  0  0  0  0  0  0
  141.0960   74.6410  221.5710 C   0  0  0  0  0  0  0  0  0  0  0  0
  141.3530   73.4300  220.7550 C   0  0  1  0  0  0  0  0  0  0  0  0
  141.7270   72.2130  221.5800 C   0  0  0  0  0  0  0  0  0  0  0  0
  141.4990   71.0720  220.5990 C   0  0  0  0  0  0  0  0  0  0  0  0
  140.7470   71.6690  219.4100 C   0  0  0  0  0  0  0  0  0  0  0  0
  140.2170   72.8990  220.0370 N   0  0  0  0  0  0  0  0  0  0  0  0
  138.8890   73.3670  219.9080 C   0  0  0  0  0  0  0  0  0  0  0  0
  138.5280   74.3070  219.1580 O   0  0  0  0  0  0  0  0  0  0  0  0
  137.8020   72.7190  220.7130 C   0  0  0  0  0  0  0  0  0  0  0  0
  138.2380   72.4900  222.0770 N   0  0  0  0  0  0  0  0  0  0  0  0
  138.5920   71.1480  222.4150 C   0  0  0  0  0  0  0  0  0  0  0  0
  138.4820   70.3030  221.4710 O   0  0  0  0  0  0  0  0  0  0  0  0
  139.0460   70.7710  223.7430 C   0  0  0  0  0  0  0  0  0  0  0  0
  138.6270   69.5610  224.2470 C   0  0  0  0  0  0  0  0  0  0  0  0
  138.9930   69.0960  225.4960 C   0  0  0  0  0  0  0  0  0  0  0  0
  139.8190   69.8940  226.2680 C   0  0  0  0  0  0  0  0  0  0  0  0
  140.1970   69.4490  227.5180 C   0  0  0  0  0  0  0  0  0  0  0  0
  141.0240   70.2640  228.2730 C   0  0  0  0  0  0  0  0  0  0  0  0
  141.4370   71.4710  227.7610 C   0  0  0  0  0  0  0  0  0  0  0  0
  141.0580   71.9230  226.4990 C   0  0  0  0  0  0  0  0  0  0  0  0
  140.2350   71.1100  225.7500 C   0  0  0  0  0  0  0  0  0  0  0  0
  139.8420   71.5190  224.5100 N   0  0  0  0  0  0  0  0  0  0  0  0
  139.1118   76.1067  223.3715 H   0  0  0  0  0  0  0  0  0  0  0  0
  139.9040   76.5299  221.8159 H   0  0  0  0  0  0  0  0  0  0  0  0
  138.3301   75.6642  221.8159 H   0  0  0  0  0  0  0  0  0  0  0  0
  140.9776   75.4999  220.8940 H   0  0  0  0  0  0  0  0  0  0  0  0
  141.9523   74.7647  222.2503 H   0  0  0  0  0  0  0  0  0  0  0  0
  142.1414   73.8202  220.0946 H   0  0  0  0  0  0  0  0  0  0  0  0
  142.7780   72.2576  221.9015 H   0  0  0  0  0  0  0  0  0  0  0  0
  141.1470   72.1165  222.5096 H   0  0  0  0  0  0  0  0  0  0  0  0
  142.4622   70.6553  220.2696 H   0  0  0  0  0  0  0  0  0  0  0  0
  140.9269   70.2552  221.0633 H   0  0  0  0  0  0  0  0  0  0  0  0
  141.4220   71.8958  218.5715 H   0  0  0  0  0  0  0  0  0  0  0  0
  139.9873   71.0110  218.9629 H   0  0  0  0  0  0  0  0  0  0  0  0
  136.9196   73.3757  220.7219 H   0  0  0  0  0  0  0  0  0  0  0  0
  137.5538   71.7502  220.2549 H   0  0  0  0  0  0  0  0  0  0  0  0
  138.3020   73.2450  222.7990 H   0  0  0  0  0  0  0  0  0  0  0  0
  137.9697   68.9342  223.6264 H   0  0  0  0  0  0  0  0  0  0  0  0
  138.6388   68.1221  225.8649 H   0  0  0  0  0  0  0  0  0  0  0  0
  139.8525   68.4778  227.9028 H   0  0  0  0  0  0  0  0  0  0  0  0
  141.3481   69.9476  229.2754 H   0  0  0  0  0  0  0  0  0  0  0  0
  142.0940   72.1063  228.3732 H   0  0  0  0  0  0  0  0  0  0  0  0
  141.4032   72.8939  226.1141 H   0  0  0  0  0  0  0  0  0  0  0  0
  1  2  1  0
  2  3  1  0
  3  4  1  0
  4  5  1  0
  5  6  1  0
  6  7  1  0
  7  8  1  0
  8  9  1  0
  9 10  2  0
  9 11  1  0
 11 12  1  0
 12 13  1  0
 13 14  2  0
 13 15  1  0
 15 16  2  0
 16 17  1  0
 17 18  2  0
 18 19  1  0
 19 20  2  0
 20 21  1  0
 21 22  2  0
 22 23  1  0
 23 24  2  0
  8  4  1  0
 24 15  1  0
 23 18  1  0
  1 25  1  0
  1 26  1  0
  1 27  1  0
  3 28  1  0
  3 29  1  0
  4 30  1  6
  5 31  1  0
  5 32  1  0
  6 33  1  0
  6 34  1  0
  7 35  1  0
  7 36  1  0
 11 37  1  0
 11 38  1  0
 12 39  1  0
 16 40  1  0
 17 41  1  0
 19 42  1  0
 20 43  1  0
 21 44  1  0
 22 45  1  0
M  END
>  <meeko>  (18) 
{"free_energy": -5.61, "intermolecular_energy": -7.4, "internal_energy": -2.6, "cluster_size": 6, "cluster_id": 1, "rank_in_cluster": 6}

$$$$

     RDKit          3D

 45 47  0  0  0  0  0  0  0  0999 V2000
  141.1840   72.1340  221.5760 C   0  0  0  0  0  0  0  0  0  0  0  0
  140.6810   73.2000  222.3550 O   0  0  0  0  0  0  0  0  0  0  0  0
  140.7610   74.3600  221.6340 C   0  0  0  0  0  0  0  0  0  0  0  0
  139.6900   75.3300  221.9630 C   0  0  1  0  0  0  0  0  0  0  0  0
  139.9560   76.7280  221.4370 C   0  0  0  0  0  0  0  0  0  0  0  0
  138.5780   77.3700  221.5070 C   0  0  0  0  0  0  0  0  0  0  0  0
  137.5880   76.2390  221.7780 C   0  0  0  0  0  0  0  0  0  0  0  0
  138.4030   75.0800  221.3540 N   0  0  0  0  0  0  0  0  0  0  0  0
  137.9440   74.0210  220.5370 C   0  0  0  0  0  0  0  0  0  0  0  0
  137.9630   74.0230  219.2810 O   0  0  0  0  0  0  0  0  0  0  0  0
  137.3860   72.7870  221.1810 C   0  0  0  0  0  0  0  0  0  0  0  0
  138.0800   72.4940  222.4200 N   0  0  0  0  0  0  0  0  0  0  0  0
  138.0520   71.1350  222.8590 C   0  0  0  0  0  0  0  0  0  0  0  0
  137.4140   70.3340  222.1050 O   0  0  0  0  0  0  0  0  0  0  0  0
  138.7030   70.6970  224.0820 C   0  0  0  0  0  0  0  0  0  0  0  0
  138.6010   69.3680  224.4240 C   0  0  0  0  0  0  0  0  0  0  0  0
  139.1780   68.8350  225.5610 C   0  0  0  0  0  0  0  0  0  0  0  0
  139.8900   69.6870  226.3880 C   0  0  0  0  0  0  0  0  0  0  0  0
  140.4740   69.1760  227.5270 C   0  0  0  0  0  0  0  0  0  0  0  0
  141.1820   70.0480  228.3390 C   0  0  0  0  0  0  0  0  0  0  0  0
  141.2780   71.3730  227.9880 C   0  0  0  0  0  0  0  0  0  0  0  0
  140.6900   71.8930  226.8370 C   0  0  0  0  0  0  0  0  0  0  0  0
  139.9870   71.0230  226.0320 C   0  0  0  0  0  0  0  0  0  0  0  0
  139.3960   71.4950  224.8970 N   0  0  0  0  0  0  0  0  0  0  0  0
  141.5586   71.3402  222.2391 H   0  0  0  0  0  0  0  0  0  0  0  0
  140.3803   71.7326  220.9412 H   0  0  0  0  0  0  0  0  0  0  0  0
  142.0048   72.4992  220.9412 H   0  0  0  0  0  0  0  0  0  0  0  0
  141.7337   74.8314  221.8380 H   0  0  0  0  0  0  0  0  0  0  0  0
  140.6440   74.0930  220.5733 H   0  0  0  0  0  0  0  0  0  0  0  0
  139.6815   75.2261  223.0580 H   0  0  0  0  0  0  0  0  0  0  0  0
  140.6769   77.2623  222.0732 H   0  0  0  0  0  0  0  0  0  0  0  0
  140.3973   76.7424  220.4295 H   0  0  0  0  0  0  0  0  0  0  0  0
  138.5436   78.1089  222.3212 H   0  0  0  0  0  0  0  0  0  0  0  0
  138.3356   77.8964  220.5720 H   0  0  0  0  0  0  0  0  0  0  0  0
  137.3164   76.1800  222.8423 H   0  0  0  0  0  0  0  0  0  0  0  0
  136.6194   76.3374  221.2660 H   0  0  0  0  0  0  0  0  0  0  0  0
  136.3181   72.9428  221.3939 H   0  0  0  0  0  0  0  0  0  0  0  0
  137.5196   71.9391  220.4931 H   0  0  0  0  0  0  0  0  0  0  0  0
  138.5850   73.2160  222.9860 H   0  0  0  0  0  0  0  0  0  0  0  0
  138.0334   68.6983  223.7611 H   0  0  0  0  0  0  0  0  0  0  0  0
  139.0747   67.7666  225.8016 H   0  0  0  0  0  0  0  0  0  0  0  0
  140.3812   68.1103  227.7834 H   0  0  0  0  0  0  0  0  0  0  0  0
  141.6636   69.6820  229.2578 H   0  0  0  0  0  0  0  0  0  0  0  0
  141.8431   72.0519  228.6436 H   0  0  0  0  0  0  0  0  0  0  0  0
  140.7834   72.9585  226.5803 H   0  0  0  0  0  0  0  0  0  0  0  0
  1  2  1  0
  2  3  1  0
  3  4  1  0
  4  5  1  0
  5  6  1  0
  6  7  1  0
  7  8  1  0
  8  9  1  0
  9 10  2  0
  9 11  1  0
 11 12  1  0
 12 13  1  0
 13 14  2  0
 13 15  1  0
 15 16  2  0
 16 17  1  0
 17 18  2  0
 18 19  1  0
 19 20  2  0
 20 21  1  0
 21 22  2  0
 22 23  1  0
 23 24  2  0
  8  4  1  0
 24 15  1  0
 23 18  1  0
  1 25  1  0
  1 26  1  0
  1 27  1  0
  3 28  1  0
  3 29  1  0
  4 30  1  1
  5 31  1  0
  5 32  1  0
  6 33  1  0
  6 34  1  0
  7 35  1  0
  7 36  1  0
 11 37  1  0
 11 38  1  0
 12 39  1  0
 16 40  1  0
 17 41  1  0
 19 42  1  0
 20 43  1  0
 21 44  1  0
 22 45  1  0
M  END
>  <meeko>  (19) 
{"free_energy": -5.82, "intermolecular_energy": -7.61, "internal_energy": -2.27, "cluster_size": 6, "cluster_id": 4, "rank_in_cluster": 3}

$$$$

     RDKit          3D

 45 47  0  0  0  0  0  0  0  0999 V2000
  142.3010   79.7600  223.1390 C   0  0  0  0  0  0  0  0  0  0  0  0
  141.0240   79.1640  223.2420 O   0  0  0  0  0  0  0  0  0  0  0  0
  141.0760   77.8990  222.7230 C   0  0  0  0  0  0  0  0  0  0  0  0
  140.8620   77.8580  221.2560 C   0  0  1  0  0  0  0  0  0  0  0  0
  142.1380   77.6460  220.4640 C   0  0  0  0  0  0  0  0  0  0  0  0
  141.6100   77.2090  219.1060 C   0  0  0  0  0  0  0  0  0  0  0  0
  140.1220   76.9190  219.2940 C   0  0  0  0  0  0  0  0  0  0  0  0
  140.0800   76.7470  220.7630 N   0  0  0  0  0  0  0  0  0  0  0  0
  139.4080   75.7020  221.4380 C   0  0  0  0  0  0  0  0  0  0  0  0
  138.4250   75.8580  222.2030 O   0  0  0  0  0  0  0  0  0  0  0  0
  139.8760   74.2900  221.2530 C   0  0  0  0  0  0  0  0  0  0  0  0
  139.5840   73.4920  222.4290 N   0  0  0  0  0  0  0  0  0  0  0  0
  140.4330   72.3670  222.6610 C   0  0  0  0  0  0  0  0  0  0  0  0
  141.3520   72.1930  221.8000 O   0  0  0  0  0  0  0  0  0  0  0  0
  140.2580   71.4800  223.7990 C   0  0  0  0  0  0  0  0  0  0  0  0
  139.5940   70.2920  223.5930 C   0  0  0  0  0  0  0  0  0  0  0  0
  139.3690   69.3700  224.5970 C   0  0  0  0  0  0  0  0  0  0  0  0
  139.8380   69.6640  225.8650 C   0  0  0  0  0  0  0  0  0  0  0  0
  139.6240   68.7580  226.8820 C   0  0  0  0  0  0  0  0  0  0  0  0
  140.1020   69.0740  228.1430 C   0  0  0  0  0  0  0  0  0  0  0  0
  140.7640   70.2620  228.3390 C   0  0  0  0  0  0  0  0  0  0  0  0
  140.9830   71.1810  227.3140 C   0  0  0  0  0  0  0  0  0  0  0  0
  140.5050   70.8630  226.0600 C   0  0  0  0  0  0  0  0  0  0  0  0
  140.6990   71.7370  225.0320 N   0  0  0  0  0  0  0  0  0  0  0  0
  142.7009   79.9466  224.1466 H   0  0  0  0  0  0  0  0  0  0  0  0
  142.9780   79.0848  222.5951 H   0  0  0  0  0  0  0  0  0  0  0  0
  142.2183   80.7125  222.5951 H   0  0  0  0  0  0  0  0  0  0  0  0
  142.0652   77.4714  222.9437 H   0  0  0  0  0  0  0  0  0  0  0  0
  140.2624   77.3224  223.1874 H   0  0  0  0  0  0  0  0  0  0  0  0
  140.3704   78.8321  221.1168 H   0  0  0  0  0  0  0  0  0  0  0  0
  142.7169   78.5780  220.3849 H   0  0  0  0  0  0  0  0  0  0  0  0
  142.8250   76.9199  220.9231 H   0  0  0  0  0  0  0  0  0  0  0  0
  141.7507   78.0116  218.3670 H   0  0  0  0  0  0  0  0  0  0  0  0
  142.1454   76.3218  218.7370 H   0  0  0  0  0  0  0  0  0  0  0  0
  139.4965   77.7612  218.9631 H   0  0  0  0  0  0  0  0  0  0  0  0
  139.7386   76.0656  218.7155 H   0  0  0  0  0  0  0  0  0  0  0  0
  139.3644   73.8515  220.3835 H   0  0  0  0  0  0  0  0  0  0  0  0
  140.9643   74.2974  221.0934 H   0  0  0  0  0  0  0  0  0  0  0  0
  138.8030   73.7040  223.0930 H   0  0  0  0  0  0  0  0  0  0  0  0
  139.2252   70.0661  222.5816 H   0  0  0  0  0  0  0  0  0  0  0  0
  138.8333   68.4308  224.3944 H   0  0  0  0  0  0  0  0  0  0  0  0
  139.0904   67.8139  226.6977 H   0  0  0  0  0  0  0  0  0  0  0  0
  139.9526   68.3785  228.9820 H   0  0  0  0  0  0  0  0  0  0  0  0
  141.1367   70.4977  229.3468 H   0  0  0  0  0  0  0  0  0  0  0  0
  141.5172   72.1247  227.4985 H   0  0  0  0  0  0  0  0  0  0  0  0
  1  2  1  0
  2  3  1  0
  3  4  1  0
  4  5  1  0
  5  6  1  0
  6  7  1  0
  7  8  1  0
  8  9  1  0
  9 10  2  0
  9 11  1  0
 11 12  1  0
 12 13  1  0
 13 14  2  0
 13 15  1  0
 15 16  2  0
 16 17  1  0
 17 18  2  0
 18 19  1  0
 19 20  2  0
 20 21  1  0
 21 22  2  0
 22 23  1  0
 23 24  2  0
  8  4  1  0
 24 15  1  0
 23 18  1  0
  1 25  1  0
  1 26  1  0
  1 27  1  0
  3 28  1  0
  3 29  1  0
  4 30  1  6
  5 31  1  0
  5 32  1  0
  6 33  1  0
  6 34  1  0
  7 35  1  0
  7 36  1  0
 11 37  1  0
 11 38  1  0
 12 39  1  0
 16 40  1  0
 17 41  1  0
 19 42  1  0
 20 43  1  0
 21 44  1  0
 22 45  1  0
M  END
>  <meeko>  (20) 
{"free_energy": -6.65, "intermolecular_energy": -8.44, "internal_energy": -1.36, "cluster_size": 6, "cluster_id": 1, "rank_in_cluster": 3}

$$$$
