
     RDKit          3D

 49 52  0  0  0  0  0  0  0  0999 V2000
  140.5240   71.7460  221.1240 O   0  0  0  0  0  0  0  0  0  0  0  0
  140.1770   72.2490  222.2300 C   0  0  0  0  0  0  0  0  0  0  0  0
  139.8590   73.6420  222.3550 N   0  0  0  0  0  0  0  0  0  0  0  0
  139.9320   74.5100  221.2000 C   0  0  0  0  0  0  0  0  0  0  0  0
  140.4080   75.8750  221.5780 C   0  0  0  0  0  0  0  0  0  0  0  0
  140.0160   76.3010  222.6920 O   0  0  0  0  0  0  0  0  0  0  0  0
  141.2430   76.5750  220.6840 N   0  0  0  0  0  0  0  0  0  0  0  0
  141.7640   76.0250  219.4050 C   0  0  0  0  0  0  0  0  0  0  0  0
  141.9330   77.2000  218.4860 C   0  0  2  0  0  0  0  0  0  0  0  0
  143.3090   77.4680  218.3460 O   0  0  0  0  0  0  0  0  0  0  0  0
  141.3620   78.3610  219.3100 C   0  0  0  0  0  0  0  0  0  0  0  0
  141.7980   77.9050  220.6900 C   0  0  1  0  0  0  0  0  0  0  0  0
  141.4010   78.7830  221.7750 C   0  0  0  0  0  0  0  0  0  0  0  0
  140.0980   79.1990  221.9130 C   0  0  0  0  0  0  0  0  0  0  0  0
  139.7280   80.0630  222.9500 C   0  0  0  0  0  0  0  0  0  0  0  0
  140.7040   80.5000  223.8520 C   0  0  0  0  0  0  0  0  0  0  0  0
  142.0090   80.0690  223.6970 C   0  0  0  0  0  0  0  0  0  0  0  0
  142.3880   79.2100  222.6670 C   0  0  0  0  0  0  0  0  0  0  0  0
  140.0830   71.4150  223.4470 C   0  0  0  0  0  0  0  0  0  0  0  0
  139.5470   70.1360  223.3150 C   0  0  0  0  0  0  0  0  0  0  0  0
  139.4510   69.3480  224.4300 C   0  0  0  0  0  0  0  0  0  0  0  0
  139.8750   69.8030  225.6590 C   0  0  0  0  0  0  0  0  0  0  0  0
  139.7800   69.0060  226.7950 C   0  0  0  0  0  0  0  0  0  0  0  0
  140.2230   69.5160  228.0090 C   0  0  0  0  0  0  0  0  0  0  0  0
  140.1260   68.7310  229.1130 F   0  0  0  0  0  0  0  0  0  0  0  0
  140.7510   70.7890  228.1130 C   0  0  0  0  0  0  0  0  0  0  0  0
  140.8280   71.5410  226.9730 C   0  0  0  0  0  0  0  0  0  0  0  0
  140.4050   71.0930  225.7350 C   0  0  0  0  0  0  0  0  0  0  0  0
  140.5020   71.8740  224.6430 N   0  0  0  0  0  0  0  0  0  0  0  0
  139.5780   73.9990  223.2990 H   0  0  0  0  0  0  0  0  0  0  0  0
  140.6303   74.0763  220.4690 H   0  0  0  0  0  0  0  0  0  0  0  0
  138.9243   74.6001  220.7682 H   0  0  0  0  0  0  0  0  0  0  0  0
  142.7307   75.5264  219.5692 H   0  0  0  0  0  0  0  0  0  0  0  0
  141.0786   75.2770  218.9798 H   0  0  0  0  0  0  0  0  0  0  0  0
  141.4710   77.0455  217.4997 H   0  0  0  0  0  0  0  0  0  0  0  0
  143.6630   77.9220  219.1520 H   0  0  0  0  0  0  0  0  0  0  0  0
  141.8124   79.3254  219.0322 H   0  0  0  0  0  0  0  0  0  0  0  0
  140.2839   78.5432  219.1892 H   0  0  0  0  0  0  0  0  0  0  0  0
  142.8813   77.9248  220.8800 H   0  0  0  0  0  0  0  0  0  0  0  0
  139.3372   78.8486  221.1999 H   0  0  0  0  0  0  0  0  0  0  0  0
  138.6842   80.3939  223.0544 H   0  0  0  0  0  0  0  0  0  0  0  0
  140.4365   81.1788  224.6752 H   0  0  0  0  0  0  0  0  0  0  0  0
  142.7722   80.4153  224.4095 H   0  0  0  0  0  0  0  0  0  0  0  0
  143.4314   78.8786  222.5597 H   0  0  0  0  0  0  0  0  0  0  0  0
  139.2081   69.7672  222.3356 H   0  0  0  0  0  0  0  0  0  0  0  0
  139.0288   68.3359  224.3433 H   0  0  0  0  0  0  0  0  0  0  0  0
  139.3618   67.9905  226.7333 H   0  0  0  0  0  0  0  0  0  0  0  0
  141.0975   71.1839  229.0794 H   0  0  0  0  0  0  0  0  0  0  0  0
  141.2483   72.5550  227.0448 H   0  0  0  0  0  0  0  0  0  0  0  0
  1  2  2  0
  2  3  1  0
  3  4  1  0
  4  5  1  0
  5  6  2  0
  5  7  1  0
  7  8  1  0
  8  9  1  0
  9 10  1  0
  9 11  1  0
 11 12  1  0
 12 13  1  0
 13 14  2  0
 14 15  1  0
 15 16  2  0
 16 17  1  0
 17 18  2  0
  2 19  1  0
 19 20  2  0
 20 21  1  0
 21 22  2  0
 22 23  1  0
 23 24  2  0
 24 25  1  0
 24 26  1  0
 26 27  2  0
 27 28  1  0
 28 29  2  0
 12  7  1  0
 18 13  1  0
 29 19  1  0
 28 22  1  0
  3 30  1  0
  4 31  1  0
  4 32  1  0
  8 33  1  0
  8 34  1  0
  9 35  1  6
 10 36  1  0
 11 37  1  0
 11 38  1  0
 12 39  1  6
 14 40  1  0
 15 41  1  0
 16 42  1  0
 17 43  1  0
 18 44  1  0
 20 45  1  0
 21 46  1  0
 23 47  1  0
 26 48  1  0
 27 49  1  0
M  END
>  <meeko>  (1) 
{"free_energy": -8.78, "intermolecular_energy": -10.57, "internal_energy": -1.64, "cluster_size": 11, "cluster_id": 1, "rank_in_cluster": 10}

$$$$

     RDKit          3D

 49 52  0  0  0  0  0  0  0  0999 V2000
  140.2730   71.6360  220.9800 O   0  0  0  0  0  0  0  0  0  0  0  0
  140.0170   72.1670  222.0980 C   0  0  0  0  0  0  0  0  0  0  0  0
  139.7390   73.5690  222.2170 N   0  0  0  0  0  0  0  0  0  0  0  0
  139.7480   74.4130  221.0420 C   0  0  0  0  0  0  0  0  0  0  0  0
  140.7800   75.4880  221.1570 C   0  0  0  0  0  0  0  0  0  0  0  0
  141.0090   75.9050  222.3190 O   0  0  0  0  0  0  0  0  0  0  0  0
  141.4130   75.9510  219.9850 N   0  0  0  0  0  0  0  0  0  0  0  0
  140.9690   77.1260  219.1900 C   0  0  0  0  0  0  0  0  0  0  0  0
  142.2070   77.6910  218.5590 C   0  0  2  0  0  0  0  0  0  0  0  0
  142.1880   77.3910  217.1830 O   0  0  0  0  0  0  0  0  0  0  0  0
  143.3220   76.8260  219.1610 C   0  0  0  0  0  0  0  0  0  0  0  0
  142.5720   75.5100  219.2520 C   0  0  1  0  0  0  0  0  0  0  0  0
  143.3360   74.4130  219.8180 C   0  0  0  0  0  0  0  0  0  0  0  0
  144.5890   74.6150  220.3440 C   0  0  0  0  0  0  0  0  0  0  0  0
  145.3270   73.5480  220.8680 C   0  0  0  0  0  0  0  0  0  0  0  0
  144.7700   72.2640  220.8530 C   0  0  0  0  0  0  0  0  0  0  0  0
  143.5070   72.0810  220.3200 C   0  0  0  0  0  0  0  0  0  0  0  0
  142.7650   73.1370  219.7950 C   0  0  0  0  0  0  0  0  0  0  0  0
  139.9920   71.3580  223.3340 C   0  0  0  0  0  0  0  0  0  0  0  0
  139.5160   70.0510  223.2440 C   0  0  0  0  0  0  0  0  0  0  0  0
  139.4850   69.2860  224.3770 C   0  0  0  0  0  0  0  0  0  0  0  0
  139.9130   69.7890  225.5860 C   0  0  0  0  0  0  0  0  0  0  0  0
  139.8840   69.0160  226.7410 C   0  0  0  0  0  0  0  0  0  0  0  0
  140.3280   69.5740  227.9330 C   0  0  0  0  0  0  0  0  0  0  0  0
  140.2940   68.8110  229.0560 F   0  0  0  0  0  0  0  0  0  0  0  0
  140.7940   70.8740  227.9960 C   0  0  0  0  0  0  0  0  0  0  0  0
  140.8080   71.6020  226.8380 C   0  0  0  0  0  0  0  0  0  0  0  0
  140.3800   71.1050  225.6210 C   0  0  0  0  0  0  0  0  0  0  0  0
  140.4140   71.8640  224.5100 N   0  0  0  0  0  0  0  0  0  0  0  0
  139.5330   73.9490  223.1710 H   0  0  0  0  0  0  0  0  0  0  0  0
  139.9694   73.7960  220.1587 H   0  0  0  0  0  0  0  0  0  0  0  0
  138.7601   74.8872  220.9460 H   0  0  0  0  0  0  0  0  0  0  0  0
  140.2532   76.8145  218.4150 H   0  0  0  0  0  0  0  0  0  0  0  0
  140.4629   77.8712  219.8213 H   0  0  0  0  0  0  0  0  0  0  0  0
  142.3123   78.7751  218.7131 H   0  0  0  0  0  0  0  0  0  0  0  0
  142.7940   77.9930  216.6820 H   0  0  0  0  0  0  0  0  0  0  0  0
  144.1964   76.7582  218.4971 H   0  0  0  0  0  0  0  0  0  0  0  0
  143.7515   77.1940  220.1045 H   0  0  0  0  0  0  0  0  0  0  0  0
  142.3250   75.0322  218.2925 H   0  0  0  0  0  0  0  0  0  0  0  0
  145.0174   75.6281  220.3533 H   0  0  0  0  0  0  0  0  0  0  0  0
  146.3306   73.7158  221.2858 H   0  0  0  0  0  0  0  0  0  0  0  0
  145.3306   71.4099  221.2606 H   0  0  0  0  0  0  0  0  0  0  0  0
  143.0745   71.0696  220.3103 H   0  0  0  0  0  0  0  0  0  0  0  0
  141.7616   72.9720  219.3756 H   0  0  0  0  0  0  0  0  0  0  0  0
  139.1725   69.6435  222.2817 H   0  0  0  0  0  0  0  0  0  0  0  0
  139.1124   68.2525  224.3222 H   0  0  0  0  0  0  0  0  0  0  0  0
  139.5157   67.9799  226.7115 H   0  0  0  0  0  0  0  0  0  0  0  0
  141.1417   71.3082  228.9450 H   0  0  0  0  0  0  0  0  0  0  0  0
  141.1791   72.6368  226.8772 H   0  0  0  0  0  0  0  0  0  0  0  0
  1  2  2  0
  2  3  1  0
  3  4  1  0
  4  5  1  0
  5  6  2  0
  5  7  1  0
  7  8  1  0
  8  9  1  0
  9 10  1  0
  9 11  1  0
 11 12  1  0
 12 13  1  0
 13 14  2  0
 14 15  1  0
 15 16  2  0
 16 17  1  0
 17 18  2  0
  2 19  1  0
 19 20  2  0
 20 21  1  0
 21 22  2  0
 22 23  1  0
 23 24  2  0
 24 25  1  0
 24 26  1  0
 26 27  2  0
 27 28  1  0
 28 29  2  0
 12  7  1  0
 18 13  1  0
 29 19  1  0
 28 22  1  0
  3 30  1  0
  4 31  1  0
  4 32  1  0
  8 33  1  0
  8 34  1  0
  9 35  1  6
 10 36  1  0
 11 37  1  0
 11 38  1  0
 12 39  1  6
 14 40  1  0
 15 41  1  0
 16 42  1  0
 17 43  1  0
 18 44  1  0
 20 45  1  0
 21 46  1  0
 23 47  1  0
 26 48  1  0
 27 49  1  0
M  END
>  <meeko>  (2) 
{"free_energy": -7.95, "intermolecular_energy": -9.73, "internal_energy": -1.98, "cluster_size": 2, "cluster_id": 2, "rank_in_cluster": 1}

$$$$

     RDKit          3D

 49 52  0  0  0  0  0  0  0  0999 V2000
  141.0840   77.1540  217.5910 O   0  0  0  0  0  0  0  0  0  0  0  0
  141.9730   77.0720  218.4850 C   0  0  0  0  0  0  0  0  0  0  0  0
  142.2030   78.1390  219.4150 N   0  0  0  0  0  0  0  0  0  0  0  0
  141.4100   79.3470  219.3450 C   0  0  0  0  0  0  0  0  0  0  0  0
  140.0740   79.1540  219.9880 C   0  0  0  0  0  0  0  0  0  0  0  0
  139.1640   79.9240  219.5980 O   0  0  0  0  0  0  0  0  0  0  0  0
  139.9300   78.1460  220.9630 N   0  0  0  0  0  0  0  0  0  0  0  0
  139.2610   76.8370  220.7370 C   0  0  0  0  0  0  0  0  0  0  0  0
  139.9330   75.8630  221.6600 C   0  0  2  0  0  0  0  0  0  0  0  0
  139.0500   75.5600  222.7140 O   0  0  0  0  0  0  0  0  0  0  0  0
  141.0570   76.7030  222.2820 C   0  0  0  0  0  0  0  0  0  0  0  0
  140.3430   78.0410  222.3400 C   0  0  1  0  0  0  0  0  0  0  0  0
  141.1370   79.1300  222.8780 C   0  0  0  0  0  0  0  0  0  0  0  0
  140.5430   80.2040  223.4970 C   0  0  0  0  0  0  0  0  0  0  0  0
  141.3140   81.2610  223.9950 C   0  0  0  0  0  0  0  0  0  0  0  0
  142.7050   81.2100  223.8570 C   0  0  0  0  0  0  0  0  0  0  0  0
  143.2840   80.1200  223.2320 C   0  0  0  0  0  0  0  0  0  0  0  0
  142.5250   79.0640  222.7330 C   0  0  0  0  0  0  0  0  0  0  0  0
  142.8160   75.8640  218.6080 C   0  0  0  0  0  0  0  0  0  0  0  0
  142.7490   74.9210  217.5850 C   0  0  0  0  0  0  0  0  0  0  0  0
  143.5220   73.7960  217.6800 C   0  0  0  0  0  0  0  0  0  0  0  0
  144.3500   73.5920  218.7620 C   0  0  0  0  0  0  0  0  0  0  0  0
  145.1370   72.4500  218.8630 C   0  0  0  0  0  0  0  0  0  0  0  0
  145.9540   72.2970  219.9770 C   0  0  0  0  0  0  0  0  0  0  0  0
  146.7180   71.1780  220.0670 F   0  0  0  0  0  0  0  0  0  0  0  0
  146.0010   73.2470  220.9790 C   0  0  0  0  0  0  0  0  0  0  0  0
  145.2120   74.3570  220.8410 C   0  0  0  0  0  0  0  0  0  0  0  0
  144.3780   74.5690  219.7600 C   0  0  0  0  0  0  0  0  0  0  0  0
  143.6210   75.6790  219.6730 N   0  0  0  0  0  0  0  0  0  0  0  0
  142.9550   78.0100  220.1340 H   0  0  0  0  0  0  0  0  0  0  0  0
  141.9439   80.1574  219.8629 H   0  0  0  0  0  0  0  0  0  0  0  0
  141.2539   79.6006  218.2861 H   0  0  0  0  0  0  0  0  0  0  0  0
  138.1891   76.9099  220.9732 H   0  0  0  0  0  0  0  0  0  0  0  0
  139.3432   76.5190  219.6872 H   0  0  0  0  0  0  0  0  0  0  0  0
  140.2550   74.9410  221.1537 H   0  0  0  0  0  0  0  0  0  0  0  0
  139.2390   74.6610  223.0850 H   0  0  0  0  0  0  0  0  0  0  0  0
  141.3383   76.3411  223.2819 H   0  0  0  0  0  0  0  0  0  0  0  0
  142.0117   76.6976  221.7356 H   0  0  0  0  0  0  0  0  0  0  0  0
  139.5072   78.1077  223.0520 H   0  0  0  0  0  0  0  0  0  0  0  0
  139.4484   80.2333  223.6023 H   0  0  0  0  0  0  0  0  0  0  0  0
  140.8331   82.1190  224.4875 H   0  0  0  0  0  0  0  0  0  0  0  0
  143.3320   82.0280  224.2414 H   0  0  0  0  0  0  0  0  0  0  0  0
  144.3783   80.0862  223.1258 H   0  0  0  0  0  0  0  0  0  0  0  0
  143.0035   78.2049  222.2401 H   0  0  0  0  0  0  0  0  0  0  0  0
  142.0887   75.0774  216.7192 H   0  0  0  0  0  0  0  0  0  0  0  0
  143.4817   73.0424  216.8797 H   0  0  0  0  0  0  0  0  0  0  0  0
  145.1134   71.6820  218.0759 H   0  0  0  0  0  0  0  0  0  0  0  0
  146.6501   73.1159  221.8574 H   0  0  0  0  0  0  0  0  0  0  0  0
  145.2436   75.1204  221.6324 H   0  0  0  0  0  0  0  0  0  0  0  0
  1  2  2  0
  2  3  1  0
  3  4  1  0
  4  5  1  0
  5  6  2  0
  5  7  1  0
  7  8  1  0
  8  9  1  0
  9 10  1  0
  9 11  1  0
 11 12  1  0
 12 13  1  0
 13 14  2  0
 14 15  1  0
 15 16  2  0
 16 17  1  0
 17 18  2  0
  2 19  1  0
 19 20  2  0
 20 21  1  0
 21 22  2  0
 22 23  1  0
 23 24  2  0
 24 25  1  0
 24 26  1  0
 26 27  2  0
 27 28  1  0
 28 29  2  0
 12  7  1  0
 18 13  1  0
 29 19  1  0
 28 22  1  0
  3 30  1  0
  4 31  1  0
  4 32  1  0
  8 33  1  0
  8 34  1  0
  9 35  1  6
 10 36  1  0
 11 37  1  0
 11 38  1  0
 12 39  1  1
 14 40  1  0
 15 41  1  0
 16 42  1  0
 17 43  1  0
 18 44  1  0
 20 45  1  0
 21 46  1  0
 23 47  1  0
 26 48  1  0
 27 49  1  0
M  END
>  <meeko>  (3) 
{"free_energy": -7.31, "intermolecular_energy": -9.1, "internal_energy": -2.31, "cluster_size": 4, "cluster_id": 5, "rank_in_cluster": 4}

$$$$

     RDKit          3D

 49 52  0  0  0  0  0  0  0  0999 V2000
  136.4270   77.4060  222.7590 O   0  0  0  0  0  0  0  0  0  0  0  0
  136.7330   76.2320  223.1110 C   0  0  0  0  0  0  0  0  0  0  0  0
  137.9700   75.6260  222.7090 N   0  0  0  0  0  0  0  0  0  0  0  0
  138.9020   76.3600  221.8810 C   0  0  0  0  0  0  0  0  0  0  0  0
  140.1760   75.5990  221.6990 C   0  0  0  0  0  0  0  0  0  0  0  0
  140.2390   74.4900  222.2820 O   0  0  0  0  0  0  0  0  0  0  0  0
  141.1960   76.1640  220.9050 N   0  0  0  0  0  0  0  0  0  0  0  0
  141.9150   75.4500  219.8170 C   0  0  0  0  0  0  0  0  0  0  0  0
  142.3080   76.5030  218.8210 C   0  0  2  0  0  0  0  0  0  0  0  0
  143.6970   76.7130  218.9140 O   0  0  0  0  0  0  0  0  0  0  0  0
  141.6540   77.7690  219.3880 C   0  0  0  0  0  0  0  0  0  0  0  0
  141.8060   77.4690  220.8670 C   0  0  1  0  0  0  0  0  0  0  0  0
  141.2600   78.4810  221.7530 C   0  0  0  0  0  0  0  0  0  0  0  0
  140.2560   79.3220  221.3390 C   0  0  0  0  0  0  0  0  0  0  0  0
  139.7500   80.3090  222.1930 C   0  0  0  0  0  0  0  0  0  0  0  0
  140.2810   80.4300  223.4820 C   0  0  0  0  0  0  0  0  0  0  0  0
  141.2910   79.5730  223.8800 C   0  0  0  0  0  0  0  0  0  0  0  0
  141.8010   78.5880  223.0370 C   0  0  0  0  0  0  0  0  0  0  0  0
  135.8230   75.4320  223.9570 C   0  0  0  0  0  0  0  0  0  0  0  0
  135.8090   74.0520  223.7670 C   0  0  0  0  0  0  0  0  0  0  0  0
  134.9730   73.2930  224.5400 C   0  0  0  0  0  0  0  0  0  0  0  0
  134.1600   73.8730  225.4880 C   0  0  0  0  0  0  0  0  0  0  0  0
  133.3090   73.1070  226.2760 C   0  0  0  0  0  0  0  0  0  0  0  0
  132.5110   73.7450  227.2170 C   0  0  0  0  0  0  0  0  0  0  0  0
  131.6820   72.9880  227.9810 F   0  0  0  0  0  0  0  0  0  0  0  0
  132.5430   75.1170  227.3850 C   0  0  0  0  0  0  0  0  0  0  0  0
  133.3940   75.8360  226.5910 C   0  0  0  0  0  0  0  0  0  0  0  0
  134.2130   75.2610  225.6370 C   0  0  0  0  0  0  0  0  0  0  0  0
  135.0330   76.0150  224.8800 N   0  0  0  0  0  0  0  0  0  0  0  0
  138.1660   74.6500  223.0340 H   0  0  0  0  0  0  0  0  0  0  0  0
  138.4453   76.5366  220.8960 H   0  0  0  0  0  0  0  0  0  0  0  0
  139.1331   77.3142  222.3770 H   0  0  0  0  0  0  0  0  0  0  0  0
  142.8089   74.9476  220.2150 H   0  0  0  0  0  0  0  0  0  0  0  0
  141.2836   74.6755  219.3570 H   0  0  0  0  0  0  0  0  0  0  0  0
  142.0277   76.2461  217.7888 H   0  0  0  0  0  0  0  0  0  0  0  0
  143.9270   77.1920  219.7490 H   0  0  0  0  0  0  0  0  0  0  0  0
  142.1950   78.6805  219.0938 H   0  0  0  0  0  0  0  0  0  0  0  0
  140.6268   77.9654  219.0471 H   0  0  0  0  0  0  0  0  0  0  0  0
  142.8355   77.4812  221.2543 H   0  0  0  0  0  0  0  0  0  0  0  0
  139.8446   79.2186  220.3241 H   0  0  0  0  0  0  0  0  0  0  0  0
  138.9463   80.9800  221.8556 H   0  0  0  0  0  0  0  0  0  0  0  0
  139.8995   81.1980  224.1709 H   0  0  0  0  0  0  0  0  0  0  0  0
  141.7047   79.6723  224.8944 H   0  0  0  0  0  0  0  0  0  0  0  0
  142.6045   77.9154  223.3717 H   0  0  0  0  0  0  0  0  0  0  0  0
  136.4562   73.5824  223.0116 H   0  0  0  0  0  0  0  0  0  0  0  0
  134.9501   72.2020  224.4018 H   0  0  0  0  0  0  0  0  0  0  0  0
  133.2682   72.0143  226.1565 H   0  0  0  0  0  0  0  0  0  0  0  0
  131.9059   75.6135  228.1317 H   0  0  0  0  0  0  0  0  0  0  0  0
  133.4284   76.9281  226.7182 H   0  0  0  0  0  0  0  0  0  0  0  0
  1  2  2  0
  2  3  1  0
  3  4  1  0
  4  5  1  0
  5  6  2  0
  5  7  1  0
  7  8  1  0
  8  9  1  0
  9 10  1  0
  9 11  1  0
 11 12  1  0
 12 13  1  0
 13 14  2  0
 14 15  1  0
 15 16  2  0
 16 17  1  0
 17 18  2  0
  2 19  1  0
 19 20  2  0
 20 21  1  0
 21 22  2  0
 22 23  1  0
 23 24  2  0
 24 25  1  0
 24 26  1  0
 26 27  2  0
 27 28  1  0
 28 29  2  0
 12  7  1  0
 18 13  1  0
 29 19  1  0
 28 22  1  0
  3 30  1  0
  4 31  1  0
  4 32  1  0
  8 33  1  0
  8 34  1  0
  9 35  1  6
 10 36  1  0
 11 37  1  0
 11 38  1  0
 12 39  1  1
 14 40  1  0
 15 41  1  0
 16 42  1  0
 17 43  1  0
 18 44  1  0
 20 45  1  0
 21 46  1  0
 23 47  1  0
 26 48  1  0
 27 49  1  0
M  END
>  <meeko>  (4) 
{"free_energy": -7.66, "intermolecular_energy": -9.45, "internal_energy": -1.82, "cluster_size": 2, "cluster_id": 3, "rank_in_cluster": 1}

$$$$

     RDKit          3D

 49 52  0  0  0  0  0  0  0  0999 V2000
  141.0060   77.0960  217.6290 O   0  0  0  0  0  0  0  0  0  0  0  0
  141.9340   77.0380  218.4840 C   0  0  0  0  0  0  0  0  0  0  0  0
  142.2000   78.1260  219.3800 N   0  0  0  0  0  0  0  0  0  0  0  0
  141.3970   79.3280  219.3200 C   0  0  0  0  0  0  0  0  0  0  0  0
  140.0580   79.1150  219.9480 C   0  0  0  0  0  0  0  0  0  0  0  0
  139.1330   79.8530  219.5290 O   0  0  0  0  0  0  0  0  0  0  0  0
  139.9250   78.1250  220.9440 N   0  0  0  0  0  0  0  0  0  0  0  0
  139.2430   76.8180  220.7530 C   0  0  0  0  0  0  0  0  0  0  0  0
  139.9250   75.8550  221.6790 C   0  0  2  0  0  0  0  0  0  0  0  0
  139.0610   75.5760  222.7560 O   0  0  0  0  0  0  0  0  0  0  0  0
  141.0660   76.6970  222.2650 C   0  0  0  0  0  0  0  0  0  0  0  0
  140.3640   78.0410  222.3130 C   0  0  1  0  0  0  0  0  0  0  0  0
  141.1750   79.1330  222.8180 C   0  0  0  0  0  0  0  0  0  0  0  0
  142.5460   79.1010  222.7310 C   0  0  0  0  0  0  0  0  0  0  0  0
  143.3220   80.1490  223.2380 C   0  0  0  0  0  0  0  0  0  0  0  0
  142.6820   81.2390  223.8380 C   0  0  0  0  0  0  0  0  0  0  0  0
  141.3000   81.2540  223.9150 C   0  0  0  0  0  0  0  0  0  0  0  0
  140.5200   80.2150  223.4130 C   0  0  0  0  0  0  0  0  0  0  0  0
  142.7890   75.8370  218.5950 C   0  0  0  0  0  0  0  0  0  0  0  0
  142.7620   74.9240  217.5430 C   0  0  0  0  0  0  0  0  0  0  0  0
  143.5460   73.8060  217.6260 C   0  0  0  0  0  0  0  0  0  0  0  0
  144.3470   73.5800  218.7240 C   0  0  0  0  0  0  0  0  0  0  0  0
  145.1460   72.4460  218.8130 C   0  0  0  0  0  0  0  0  0  0  0  0
  145.9350   72.2690  219.9440 C   0  0  0  0  0  0  0  0  0  0  0  0
  146.7110   71.1580  220.0230 F   0  0  0  0  0  0  0  0  0  0  0  0
  145.9430   73.1910  220.9740 C   0  0  0  0  0  0  0  0  0  0  0  0
  145.1440   74.2940  220.8480 C   0  0  0  0  0  0  0  0  0  0  0  0
  144.3360   74.5280  219.7500 C   0  0  0  0  0  0  0  0  0  0  0  0
  143.5670   75.6300  219.6750 N   0  0  0  0  0  0  0  0  0  0  0  0
  142.9840   78.0160  220.0660 H   0  0  0  0  0  0  0  0  0  0  0  0
  141.9194   80.1355  219.8539 H   0  0  0  0  0  0  0  0  0  0  0  0
  141.2478   79.5949  218.2634 H   0  0  0  0  0  0  0  0  0  0  0  0
  138.1764   76.9029  221.0081 H   0  0  0  0  0  0  0  0  0  0  0  0
  139.3031   76.4818  219.7074 H   0  0  0  0  0  0  0  0  0  0  0  0
  140.2298   74.9223  221.1818 H   0  0  0  0  0  0  0  0  0  0  0  0
  139.1880   74.6490  223.0790 H   0  0  0  0  0  0  0  0  0  0  0  0
  141.3633   76.3503  223.2657 H   0  0  0  0  0  0  0  0  0  0  0  0
  142.0100   76.6748  221.7008 H   0  0  0  0  0  0  0  0  0  0  0  0
  139.5427   78.1269  223.0397 H   0  0  0  0  0  0  0  0  0  0  0  0
  143.0399   78.2402  222.2566 H   0  0  0  0  0  0  0  0  0  0  0  0
  144.4192   80.1165  223.1660 H   0  0  0  0  0  0  0  0  0  0  0  0
  143.2706   82.0748  224.2441 H   0  0  0  0  0  0  0  0  0  0  0  0
  140.8021   82.1135  224.3875 H   0  0  0  0  0  0  0  0  0  0  0  0
  139.4226   80.2450  223.4826 H   0  0  0  0  0  0  0  0  0  0  0  0
  142.1238   75.0984  216.6642 H   0  0  0  0  0  0  0  0  0  0  0  0
  143.5368   73.0760  216.8032 H   0  0  0  0  0  0  0  0  0  0  0  0
  145.1539   71.7018  218.0030 H   0  0  0  0  0  0  0  0  0  0  0  0
  146.5708   73.0426  221.8650 H   0  0  0  0  0  0  0  0  0  0  0  0
  145.1440   75.0335  221.6623 H   0  0  0  0  0  0  0  0  0  0  0  0
  1  2  2  0
  2  3  1  0
  3  4  1  0
  4  5  1  0
  5  6  2  0
  5  7  1  0
  7  8  1  0
  8  9  1  0
  9 10  1  0
  9 11  1  0
 11 12  1  0
 12 13  1  0
 13 14  2  0
 14 15  1  0
 15 16  2  0
 16 17  1  0
 17 18  2  0
  2 19  1  0
 19 20  2  0
 20 21  1  0
 21 22  2  0
 22 23  1  0
 23 24  2  0
 24 25  1  0
 24 26  1  0
 26 27  2  0
 27 28  1  0
 28 29  2  0
 12  7  1  0
 18 13  1  0
 29 19  1  0
 28 22  1  0
  3 30  1  0
  4 31  1  0
  4 32  1  0
  8 33  1  0
  8 34  1  0
  9 35  1  6
 10 36  1  0
 11 37  1  0
 11 38  1  0
 12 39  1  1
 14 40  1  0
 15 41  1  0
 16 42  1  0
 17 43  1  0
 18 44  1  0
 20 45  1  0
 21 46  1  0
 23 47  1  0
 26 48  1  0
 27 49  1  0
M  END
>  <meeko>  (5) 
{"free_energy": -7.35, "intermolecular_energy": -9.14, "internal_energy": -2.29, "cluster_size": 4, "cluster_id": 5, "rank_in_cluster": 1}

$$$$

     RDKit          3D

 49 52  0  0  0  0  0  0  0  0999 V2000
  140.1830   71.5180  220.9580 O   0  0  0  0  0  0  0  0  0  0  0  0
  139.9680   72.0840  222.0660 C   0  0  0  0  0  0  0  0  0  0  0  0
  139.7520   73.5000  222.1570 N   0  0  0  0  0  0  0  0  0  0  0  0
  139.7780   74.3160  220.9640 C   0  0  0  0  0  0  0  0  0  0  0  0
  140.6570   75.5110  221.1450 C   0  0  0  0  0  0  0  0  0  0  0  0
  140.6910   75.9940  222.3030 O   0  0  0  0  0  0  0  0  0  0  0  0
  141.3710   76.0040  220.0340 N   0  0  0  0  0  0  0  0  0  0  0  0
  141.0540   77.2670  219.3150 C   0  0  0  0  0  0  0  0  0  0  0  0
  142.3580   77.7720  218.7710 C   0  0  2  0  0  0  0  0  0  0  0  0
  142.3710   77.5750  217.3770 O   0  0  0  0  0  0  0  0  0  0  0  0
  143.3750   76.7770  219.3450 C   0  0  0  0  0  0  0  0  0  0  0  0
  142.5200   75.5240  219.3100 C   0  0  1  0  0  0  0  0  0  0  0  0
  143.1700   74.3290  219.8170 C   0  0  0  0  0  0  0  0  0  0  0  0
  142.5640   73.0990  219.7310 C   0  0  0  0  0  0  0  0  0  0  0  0
  143.1890   71.9550  220.2410 C   0  0  0  0  0  0  0  0  0  0  0  0
  144.4470   72.0780  220.8410 C   0  0  0  0  0  0  0  0  0  0  0  0
  145.0410   73.3250  220.9170 C   0  0  0  0  0  0  0  0  0  0  0  0
  144.4270   74.4700  220.4120 C   0  0  0  0  0  0  0  0  0  0  0  0
  139.9290   71.3050  223.3220 C   0  0  0  0  0  0  0  0  0  0  0  0
  139.4340   70.0040  223.2610 C   0  0  0  0  0  0  0  0  0  0  0  0
  139.3900   69.2660  224.4120 C   0  0  0  0  0  0  0  0  0  0  0  0
  139.8230   69.7910  225.6090 C   0  0  0  0  0  0  0  0  0  0  0  0
  139.7810   69.0450  226.7820 C   0  0  0  0  0  0  0  0  0  0  0  0
  140.2320   69.6240  227.9610 C   0  0  0  0  0  0  0  0  0  0  0  0
  140.1850   68.8880  229.1010 F   0  0  0  0  0  0  0  0  0  0  0  0
  140.7190   70.9180  227.9950 C   0  0  0  0  0  0  0  0  0  0  0  0
  140.7450   71.6180  226.8200 C   0  0  0  0  0  0  0  0  0  0  0  0
  140.3110   71.1000  225.6140 C   0  0  0  0  0  0  0  0  0  0  0  0
  140.3570   71.8320  224.4850 N   0  0  0  0  0  0  0  0  0  0  0  0
  139.5780   73.9090  223.1060 H   0  0  0  0  0  0  0  0  0  0  0  0
  140.1591   73.7140  220.1259 H   0  0  0  0  0  0  0  0  0  0  0  0
  138.7551   74.6643  220.7582 H   0  0  0  0  0  0  0  0  0  0  0  0
  140.3473   77.0727  218.4947 H   0  0  0  0  0  0  0  0  0  0  0  0
  140.5839   78.0037  219.9831 H   0  0  0  0  0  0  0  0  0  0  0  0
  142.5432   78.8298  219.0093 H   0  0  0  0  0  0  0  0  0  0  0  0
  143.0340   78.1690  216.9430 H   0  0  0  0  0  0  0  0  0  0  0  0
  144.2680   76.6858  218.7092 H   0  0  0  0  0  0  0  0  0  0  0  0
  143.7929   77.0393  220.3281 H   0  0  0  0  0  0  0  0  0  0  0  0
  142.2756   75.1396  218.3087 H   0  0  0  0  0  0  0  0  0  0  0  0
  141.5758   73.0121  219.2557 H   0  0  0  0  0  0  0  0  0  0  0  0
  142.6980   70.9731  220.1710 H   0  0  0  0  0  0  0  0  0  0  0  0
  144.9580   71.1929  221.2478 H   0  0  0  0  0  0  0  0  0  0  0  0
  146.0294   73.4159  221.3911 H   0  0  0  0  0  0  0  0  0  0  0  0
  144.9160   75.4530  220.4795 H   0  0  0  0  0  0  0  0  0  0  0  0
  139.0861   69.5794  222.3078 H   0  0  0  0  0  0  0  0  0  0  0  0
  139.0026   68.2369  224.3808 H   0  0  0  0  0  0  0  0  0  0  0  0
  139.3972   68.0141  226.7760 H   0  0  0  0  0  0  0  0  0  0  0  0
  141.0730   71.3685  228.9340 H   0  0  0  0  0  0  0  0  0  0  0  0
  141.1317   72.6477  226.8356 H   0  0  0  0  0  0  0  0  0  0  0  0
  1  2  2  0
  2  3  1  0
  3  4  1  0
  4  5  1  0
  5  6  2  0
  5  7  1  0
  7  8  1  0
  8  9  1  0
  9 10  1  0
  9 11  1  0
 11 12  1  0
 12 13  1  0
 13 14  2  0
 14 15  1  0
 15 16  2  0
 16 17  1  0
 17 18  2  0
  2 19  1  0
 19 20  2  0
 20 21  1  0
 21 22  2  0
 22 23  1  0
 23 24  2  0
 24 25  1  0
 24 26  1  0
 26 27  2  0
 27 28  1  0
 28 29  2  0
 12  7  1  0
 18 13  1  0
 29 19  1  0
 28 22  1  0
  3 30  1  0
  4 31  1  0
  4 32  1  0
  8 33  1  0
  8 34  1  0
  9 35  1  6
 10 36  1  0
 11 37  1  0
 11 38  1  0
 12 39  1  6
 14 40  1  0
 15 41  1  0
 16 42  1  0
 17 43  1  0
 18 44  1  0
 20 45  1  0
 21 46  1  0
 23 47  1  0
 26 48  1  0
 27 49  1  0
M  END
>  <meeko>  (6) 
{"free_energy": -7.91, "intermolecular_energy": -9.7, "internal_energy": -2.07, "cluster_size": 2, "cluster_id": 2, "rank_in_cluster": 2}

$$$$

     RDKit          3D

 49 52  0  0  0  0  0  0  0  0999 V2000
  136.2170   77.4150  222.6950 O   0  0  0  0  0  0  0  0  0  0  0  0
  136.4170   76.2280  223.0780 C   0  0  0  0  0  0  0  0  0  0  0  0
  137.5240   75.4580  222.5900 N   0  0  0  0  0  0  0  0  0  0  0  0
  138.4450   76.0350  221.6350 C   0  0  0  0  0  0  0  0  0  0  0  0
  139.7850   75.3760  221.7100 C   0  0  0  0  0  0  0  0  0  0  0  0
  139.8280   74.2960  222.3480 O   0  0  0  0  0  0  0  0  0  0  0  0
  140.8820   75.9940  221.0750 N   0  0  0  0  0  0  0  0  0  0  0  0
  141.7180   75.3600  220.0210 C   0  0  0  0  0  0  0  0  0  0  0  0
  142.2120   76.4820  219.1550 C   0  0  2  0  0  0  0  0  0  0  0  0
  143.5820   76.6790  219.4130 O   0  0  0  0  0  0  0  0  0  0  0  0
  141.4940   77.7050  219.7390 C   0  0  0  0  0  0  0  0  0  0  0  0
  141.4860   77.2960  221.2000 C   0  0  1  0  0  0  0  0  0  0  0  0
  140.8440   78.2420  222.0940 C   0  0  0  0  0  0  0  0  0  0  0  0
  139.6890   78.8910  221.7310 C   0  0  0  0  0  0  0  0  0  0  0  0
  139.0870   79.8180  222.5900 C   0  0  0  0  0  0  0  0  0  0  0  0
  139.6770   80.0750  223.8320 C   0  0  0  0  0  0  0  0  0  0  0  0
  140.8400   79.4110  224.1800 C   0  0  0  0  0  0  0  0  0  0  0  0
  141.4460   78.4870  223.3310 C   0  0  0  0  0  0  0  0  0  0  0  0
  135.5120   75.5820  224.0520 C   0  0  0  0  0  0  0  0  0  0  0  0
  134.6750   76.4050  224.8020 C   0  0  0  0  0  0  0  0  0  0  0  0
  133.8290   75.8260  225.7090 C   0  0  0  0  0  0  0  0  0  0  0  0
  133.8010   74.4600  225.8830 C   0  0  0  0  0  0  0  0  0  0  0  0
  132.9440   73.8670  226.8030 C   0  0  0  0  0  0  0  0  0  0  0  0
  132.9570   72.4840  226.9370 C   0  0  0  0  0  0  0  0  0  0  0  0
  132.1180   71.9150  227.8390 F   0  0  0  0  0  0  0  0  0  0  0  0
  133.7990   71.6900  226.1800 C   0  0  0  0  0  0  0  0  0  0  0  0
  134.6260   72.3120  225.2860 C   0  0  0  0  0  0  0  0  0  0  0  0
  134.6620   73.6820  225.1050 C   0  0  0  0  0  0  0  0  0  0  0  0
  135.4960   74.2440  224.2110 N   0  0  0  0  0  0  0  0  0  0  0  0
  137.6370   74.4790  222.9470 H   0  0  0  0  0  0  0  0  0  0  0  0
  138.0381   75.9062  220.6212 H   0  0  0  0  0  0  0  0  0  0  0  0
  138.5681   77.1023  221.8709 H   0  0  0  0  0  0  0  0  0  0  0  0
  142.5656   74.8259  220.4751 H   0  0  0  0  0  0  0  0  0  0  0  0
  141.1435   74.6244  219.4389 H   0  0  0  0  0  0  0  0  0  0  0  0
  142.0467   76.3035  218.0822 H   0  0  0  0  0  0  0  0  0  0  0  0
  143.7190   77.4530  220.0150 H   0  0  0  0  0  0  0  0  0  0  0  0
  142.0593   78.6340  219.5733 H   0  0  0  0  0  0  0  0  0  0  0  0
  140.5090   77.9294  219.3038 H   0  0  0  0  0  0  0  0  0  0  0  0
  142.4671   77.2757  221.6970 H   0  0  0  0  0  0  0  0  0  0  0  0
  139.2315   78.6797  220.7532 H   0  0  0  0  0  0  0  0  0  0  0  0
  138.1636   80.3367  222.2927 H   0  0  0  0  0  0  0  0  0  0  0  0
  139.2211   80.7975  224.5249 H   0  0  0  0  0  0  0  0  0  0  0  0
  141.3005   79.6190  225.1571 H   0  0  0  0  0  0  0  0  0  0  0  0
  142.3694   77.9667  223.6254 H   0  0  0  0  0  0  0  0  0  0  0  0
  134.6935   77.4967  224.6683 H   0  0  0  0  0  0  0  0  0  0  0  0
  133.1608   76.4618  226.3085 H   0  0  0  0  0  0  0  0  0  0  0  0
  132.2672   74.4820  227.4144 H   0  0  0  0  0  0  0  0  0  0  0  0
  133.8034   70.5958  226.2931 H   0  0  0  0  0  0  0  0  0  0  0  0
  135.2986   71.6888  224.6784 H   0  0  0  0  0  0  0  0  0  0  0  0
  1  2  2  0
  2  3  1  0
  3  4  1  0
  4  5  1  0
  5  6  2  0
  5  7  1  0
  7  8  1  0
  8  9  1  0
  9 10  1  0
  9 11  1  0
 11 12  1  0
 12 13  1  0
 13 14  2  0
 14 15  1  0
 15 16  2  0
 16 17  1  0
 17 18  2  0
  2 19  1  0
 19 20  2  0
 20 21  1  0
 21 22  2  0
 22 23  1  0
 23 24  2  0
 24 25  1  0
 24 26  1  0
 26 27  2  0
 27 28  1  0
 28 29  2  0
 12  7  1  0
 18 13  1  0
 29 19  1  0
 28 22  1  0
  3 30  1  0
  4 31  1  0
  4 32  1  0
  8 33  1  0
  8 34  1  0
  9 35  1  6
 10 36  1  0
 11 37  1  0
 11 38  1  0
 12 39  1  1
 14 40  1  0
 15 41  1  0
 16 42  1  0
 17 43  1  0
 18 44  1  0
 20 45  1  0
 21 46  1  0
 23 47  1  0
 26 48  1  0
 27 49  1  0
M  END
>  <meeko>  (7) 
{"free_energy": -7.28, "intermolecular_energy": -9.07, "internal_energy": -2.14, "cluster_size": 2, "cluster_id": 3, "rank_in_cluster": 2}

$$$$

     RDKit          3D

 49 52  0  0  0  0  0  0  0  0999 V2000
  140.7900   71.8200  221.1760 O   0  0  0  0  0  0  0  0  0  0  0  0
  140.3190   72.3090  222.2410 C   0  0  0  0  0  0  0  0  0  0  0  0
  139.9220   73.6850  222.3230 N   0  0  0  0  0  0  0  0  0  0  0  0
  140.0560   74.5500  221.1710 C   0  0  0  0  0  0  0  0  0  0  0  0
  140.5640   75.9000  221.5660 C   0  0  0  0  0  0  0  0  0  0  0  0
  140.2480   76.2880  222.7170 O   0  0  0  0  0  0  0  0  0  0  0  0
  141.3430   76.6280  220.6440 N   0  0  0  0  0  0  0  0  0  0  0  0
  141.8290   76.0990  219.3410 C   0  0  0  0  0  0  0  0  0  0  0  0
  141.9280   77.2830  218.4250 C   0  0  2  0  0  0  0  0  0  0  0  0
  143.2890   77.5910  218.2320 O   0  0  0  0  0  0  0  0  0  0  0  0
  141.3570   78.4230  219.2780 C   0  0  0  0  0  0  0  0  0  0  0  0
  141.8600   77.9730  220.6360 C   0  0  1  0  0  0  0  0  0  0  0  0
  141.4810   78.8340  221.7410 C   0  0  0  0  0  0  0  0  0  0  0  0
  140.1640   79.1420  221.9830 C   0  0  0  0  0  0  0  0  0  0  0  0
  139.8090   79.9910  223.0390 C   0  0  0  0  0  0  0  0  0  0  0  0
  140.8160   80.5230  223.8510 C   0  0  0  0  0  0  0  0  0  0  0  0
  142.1360   80.1990  223.5920 C   0  0  0  0  0  0  0  0  0  0  0  0
  142.4990   79.3570  222.5440 C   0  0  0  0  0  0  0  0  0  0  0  0
  140.1560   71.4770  223.4510 C   0  0  0  0  0  0  0  0  0  0  0  0
  139.5290   70.2410  223.3070 C   0  0  0  0  0  0  0  0  0  0  0  0
  139.3680   69.4560  224.4160 C   0  0  0  0  0  0  0  0  0  0  0  0
  139.8140   69.8710  225.6520 C   0  0  0  0  0  0  0  0  0  0  0  0
  139.6540   69.0770  226.7810 C   0  0  0  0  0  0  0  0  0  0  0  0
  140.1230   69.5460  228.0020 C   0  0  0  0  0  0  0  0  0  0  0  0
  139.9610   68.7630  229.1000 F   0  0  0  0  0  0  0  0  0  0  0  0
  140.7410   70.7770  228.1180 C   0  0  0  0  0  0  0  0  0  0  0  0
  140.8810   71.5280  226.9830 C   0  0  0  0  0  0  0  0  0  0  0  0
  140.4360   71.1190  225.7390 C   0  0  0  0  0  0  0  0  0  0  0  0
  140.5970   71.8980  224.6530 N   0  0  0  0  0  0  0  0  0  0  0  0
  139.5370   74.0310  223.2340 H   0  0  0  0  0  0  0  0  0  0  0  0
  140.7615   74.0948  220.4603 H   0  0  0  0  0  0  0  0  0  0  0  0
  139.0652   74.6716  220.7090 H   0  0  0  0  0  0  0  0  0  0  0  0
  142.8151   75.6273  219.4639 H   0  0  0  0  0  0  0  0  0  0  0  0
  141.1493   75.3337  218.9381 H   0  0  0  0  0  0  0  0  0  0  0  0
  141.4316   77.1207  217.4569 H   0  0  0  0  0  0  0  0  0  0  0  0
  143.6930   77.9400  219.0660 H   0  0  0  0  0  0  0  0  0  0  0  0
  141.7682   79.4013  218.9886 H   0  0  0  0  0  0  0  0  0  0  0  0
  140.2702   78.5747  219.2010 H   0  0  0  0  0  0  0  0  0  0  0  0
  142.9490   78.0226  220.7831 H   0  0  0  0  0  0  0  0  0  0  0  0
  139.3793   78.7169  221.3400 H   0  0  0  0  0  0  0  0  0  0  0  0
  138.7532   80.2359  223.2271 H   0  0  0  0  0  0  0  0  0  0  0  0
  140.5613   81.1917  224.6864 H   0  0  0  0  0  0  0  0  0  0  0  0
  142.9236   80.6199  224.2343 H   0  0  0  0  0  0  0  0  0  0  0  0
  143.5541   79.1109  222.3538 H   0  0  0  0  0  0  0  0  0  0  0  0
  139.1712   69.9037  222.3230 H   0  0  0  0  0  0  0  0  0  0  0  0
  138.8745   68.4777  224.3194 H   0  0  0  0  0  0  0  0  0  0  0  0
  139.1647   68.0944  226.7095 H   0  0  0  0  0  0  0  0  0  0  0  0
  141.1076   71.1403  229.0894 H   0  0  0  0  0  0  0  0  0  0  0  0
  141.3732   72.5084  227.0641 H   0  0  0  0  0  0  0  0  0  0  0  0
  1  2  2  0
  2  3  1  0
  3  4  1  0
  4  5  1  0
  5  6  2  0
  5  7  1  0
  7  8  1  0
  8  9  1  0
  9 10  1  0
  9 11  1  0
 11 12  1  0
 12 13  1  0
 13 14  2  0
 14 15  1  0
 15 16  2  0
 16 17  1  0
 17 18  2  0
  2 19  1  0
 19 20  2  0
 20 21  1  0
 21 22  2  0
 22 23  1  0
 23 24  2  0
 24 25  1  0
 24 26  1  0
 26 27  2  0
 27 28  1  0
 28 29  2  0
 12  7  1  0
 18 13  1  0
 29 19  1  0
 28 22  1  0
  3 30  1  0
  4 31  1  0
  4 32  1  0
  8 33  1  0
  8 34  1  0
  9 35  1  6
 10 36  1  0
 11 37  1  0
 11 38  1  0
 12 39  1  6
 14 40  1  0
 15 41  1  0
 16 42  1  0
 17 43  1  0
 18 44  1  0
 20 45  1  0
 21 46  1  0
 23 47  1  0
 26 48  1  0
 27 49  1  0
M  END
>  <meeko>  (8) 
{"free_energy": -8.88, "intermolecular_energy": -10.67, "internal_energy": -1.59, "cluster_size": 11, "cluster_id": 1, "rank_in_cluster": 2}

$$$$

     RDKit          3D

 49 52  0  0  0  0  0  0  0  0999 V2000
  141.0450   77.0890  217.5950 O   0  0  0  0  0  0  0  0  0  0  0  0
  141.9500   77.0200  218.4730 C   0  0  0  0  0  0  0  0  0  0  0  0
  142.1960   78.1000  219.3840 N   0  0  0  0  0  0  0  0  0  0  0  0
  141.3990   79.3050  219.3130 C   0  0  0  0  0  0  0  0  0  0  0  0
  140.0490   79.0970  219.9200 C   0  0  0  0  0  0  0  0  0  0  0  0
  139.1340   79.8370  219.4840 O   0  0  0  0  0  0  0  0  0  0  0  0
  139.8970   78.1090  220.9140 N   0  0  0  0  0  0  0  0  0  0  0  0
  139.2140   76.8030  220.7130 C   0  0  0  0  0  0  0  0  0  0  0  0
  139.8780   75.8400  221.6520 C   0  0  2  0  0  0  0  0  0  0  0  0
  138.9950   75.5650  222.7140 O   0  0  0  0  0  0  0  0  0  0  0  0
  141.0120   76.6790  222.2560 C   0  0  0  0  0  0  0  0  0  0  0  0
  140.3120   78.0250  222.2910 C   0  0  1  0  0  0  0  0  0  0  0  0
  141.1170   79.1170  222.8080 C   0  0  0  0  0  0  0  0  0  0  0  0
  142.4890   79.0800  222.7440 C   0  0  0  0  0  0  0  0  0  0  0  0
  143.2590   80.1270  223.2640 C   0  0  0  0  0  0  0  0  0  0  0  0
  142.6120   81.2200  223.8500 C   0  0  0  0  0  0  0  0  0  0  0  0
  141.2300   81.2380  223.9040 C   0  0  0  0  0  0  0  0  0  0  0  0
  140.4550   80.2010  223.3900 C   0  0  0  0  0  0  0  0  0  0  0  0
  142.7970   75.8150  218.5970 C   0  0  0  0  0  0  0  0  0  0  0  0
  142.7440   74.8780  217.5670 C   0  0  0  0  0  0  0  0  0  0  0  0
  143.5210   73.7560  217.6630 C   0  0  0  0  0  0  0  0  0  0  0  0
  144.3400   73.5490  218.7500 C   0  0  0  0  0  0  0  0  0  0  0  0
  145.1310   72.4110  218.8520 C   0  0  0  0  0  0  0  0  0  0  0  0
  145.9390   72.2540  219.9720 C   0  0  0  0  0  0  0  0  0  0  0  0
  146.7080   71.1390  220.0630 F   0  0  0  0  0  0  0  0  0  0  0  0
  145.9730   73.1990  220.9800 C   0  0  0  0  0  0  0  0  0  0  0  0
  145.1810   74.3060  220.8420 C   0  0  0  0  0  0  0  0  0  0  0  0
  144.3550   74.5210  219.7540 C   0  0  0  0  0  0  0  0  0  0  0  0
  143.5940   75.6280  219.6680 N   0  0  0  0  0  0  0  0  0  0  0  0
  142.9610   77.9820  220.0910 H   0  0  0  0  0  0  0  0  0  0  0  0
  141.9163   80.1098  219.8559 H   0  0  0  0  0  0  0  0  0  0  0  0
  141.2672   79.5735  218.2544 H   0  0  0  0  0  0  0  0  0  0  0  0
  138.1435   76.8911  220.9500 H   0  0  0  0  0  0  0  0  0  0  0  0
  139.2903   76.4650  219.6690 H   0  0  0  0  0  0  0  0  0  0  0  0
  140.1889   74.9058  221.1614 H   0  0  0  0  0  0  0  0  0  0  0  0
  139.1830   74.6760  223.1080 H   0  0  0  0  0  0  0  0  0  0  0  0
  141.2919   76.3325  223.2618 H   0  0  0  0  0  0  0  0  0  0  0  0
  141.9654   76.6536  221.7079 H   0  0  0  0  0  0  0  0  0  0  0  0
  139.4789   78.1126  223.0040 H   0  0  0  0  0  0  0  0  0  0  0  0
  142.9883   78.2174  222.2786 H   0  0  0  0  0  0  0  0  0  0  0  0
  144.3572   80.0907  223.2125 H   0  0  0  0  0  0  0  0  0  0  0  0
  143.1957   82.0558  224.2632 H   0  0  0  0  0  0  0  0  0  0  0  0
  140.7267   82.0991  224.3679 H   0  0  0  0  0  0  0  0  0  0  0  0
  139.3567   80.2344  223.4407 H   0  0  0  0  0  0  0  0  0  0  0  0
  142.0917   75.0370  216.6957 H   0  0  0  0  0  0  0  0  0  0  0  0
  143.4908   73.0068  216.8582 H   0  0  0  0  0  0  0  0  0  0  0  0
  145.1179   71.6477  218.0601 H   0  0  0  0  0  0  0  0  0  0  0  0
  146.6150   73.0656  221.8632 H   0  0  0  0  0  0  0  0  0  0  0  0
  145.2024   75.0647  221.6382 H   0  0  0  0  0  0  0  0  0  0  0  0
  1  2  2  0
  2  3  1  0
  3  4  1  0
  4  5  1  0
  5  6  2  0
  5  7  1  0
  7  8  1  0
  8  9  1  0
  9 10  1  0
  9 11  1  0
 11 12  1  0
 12 13  1  0
 13 14  2  0
 14 15  1  0
 15 16  2  0
 16 17  1  0
 17 18  2  0
  2 19  1  0
 19 20  2  0
 20 21  1  0
 21 22  2  0
 22 23  1  0
 23 24  2  0
 24 25  1  0
 24 26  1  0
 26 27  2  0
 27 28  1  0
 28 29  2  0
 12  7  1  0
 18 13  1  0
 29 19  1  0
 28 22  1  0
  3 30  1  0
  4 31  1  0
  4 32  1  0
  8 33  1  0
  8 34  1  0
  9 35  1  6
 10 36  1  0
 11 37  1  0
 11 38  1  0
 12 39  1  1
 14 40  1  0
 15 41  1  0
 16 42  1  0
 17 43  1  0
 18 44  1  0
 20 45  1  0
 21 46  1  0
 23 47  1  0
 26 48  1  0
 27 49  1  0
M  END
>  <meeko>  (9) 
{"free_energy": -7.33, "intermolecular_energy": -9.12, "internal_energy": -2.29, "cluster_size": 4, "cluster_id": 5, "rank_in_cluster": 2}

$$$$

     RDKit          3D

 49 52  0  0  0  0  0  0  0  0999 V2000
  140.5210   71.7730  221.1110 O   0  0  0  0  0  0  0  0  0  0  0  0
  140.1690   72.2700  222.2180 C   0  0  0  0  0  0  0  0  0  0  0  0
  139.8570   73.6640  222.3500 N   0  0  0  0  0  0  0  0  0  0  0  0
  139.9400   74.5380  221.2010 C   0  0  0  0  0  0  0  0  0  0  0  0
  140.4300   75.8960  221.5890 C   0  0  0  0  0  0  0  0  0  0  0  0
  140.0480   76.3160  222.7080 O   0  0  0  0  0  0  0  0  0  0  0  0
  141.2680   76.5960  220.6970 N   0  0  0  0  0  0  0  0  0  0  0  0
  141.7980   76.0430  219.4230 C   0  0  0  0  0  0  0  0  0  0  0  0
  141.9680   77.2150  218.5010 C   0  0  2  0  0  0  0  0  0  0  0  0
  143.3430   77.4880  218.3680 O   0  0  0  0  0  0  0  0  0  0  0  0
  141.3880   78.3770  219.3180 C   0  0  0  0  0  0  0  0  0  0  0  0
  141.8180   77.9280  220.7010 C   0  0  1  0  0  0  0  0  0  0  0  0
  141.4110   78.8080  221.7810 C   0  0  0  0  0  0  0  0  0  0  0  0
  140.1050   79.2140  221.9150 C   0  0  0  0  0  0  0  0  0  0  0  0
  139.7260   80.0800  222.9470 C   0  0  0  0  0  0  0  0  0  0  0  0
  140.6970   80.5300  223.8480 C   0  0  0  0  0  0  0  0  0  0  0  0
  142.0060   80.1100  223.6970 C   0  0  0  0  0  0  0  0  0  0  0  0
  142.3940   79.2480  222.6730 C   0  0  0  0  0  0  0  0  0  0  0  0
  140.0650   71.4290  223.4290 C   0  0  0  0  0  0  0  0  0  0  0  0
  139.5150   70.1570  223.2880 C   0  0  0  0  0  0  0  0  0  0  0  0
  139.4100   69.3620  224.3970 C   0  0  0  0  0  0  0  0  0  0  0  0
  139.8360   69.8040  225.6300 C   0  0  0  0  0  0  0  0  0  0  0  0
  139.7320   69.0010  226.7600 C   0  0  0  0  0  0  0  0  0  0  0  0
  140.1780   69.4970  227.9790 C   0  0  0  0  0  0  0  0  0  0  0  0
  140.0710   68.7050  229.0760 F   0  0  0  0  0  0  0  0  0  0  0  0
  140.7200   70.7640  228.0920 C   0  0  0  0  0  0  0  0  0  0  0  0
  140.8060   71.5230  226.9570 C   0  0  0  0  0  0  0  0  0  0  0  0
  140.3800   71.0880  225.7150 C   0  0  0  0  0  0  0  0  0  0  0  0
  140.4870   71.8750  224.6290 N   0  0  0  0  0  0  0  0  0  0  0  0
  139.5710   74.0160  223.2950 H   0  0  0  0  0  0  0  0  0  0  0  0
  140.6345   74.1019  220.4679 H   0  0  0  0  0  0  0  0  0  0  0  0
  138.9339   74.6412  220.7685 H   0  0  0  0  0  0  0  0  0  0  0  0
  142.7654   75.5483  219.5944 H   0  0  0  0  0  0  0  0  0  0  0  0
  141.1177   75.2910  218.9968 H   0  0  0  0  0  0  0  0  0  0  0  0
  141.5123   77.0550  217.5127 H   0  0  0  0  0  0  0  0  0  0  0  0
  143.7040   77.8950  219.1950 H   0  0  0  0  0  0  0  0  0  0  0  0
  141.8362   79.3421  219.0392 H   0  0  0  0  0  0  0  0  0  0  0  0
  140.3099   78.5546  219.1908 H   0  0  0  0  0  0  0  0  0  0  0  0
  142.9002   77.9530  220.8964 H   0  0  0  0  0  0  0  0  0  0  0  0
  139.3483   78.8539  221.2024 H   0  0  0  0  0  0  0  0  0  0  0  0
  138.6792   80.4024  223.0483 H   0  0  0  0  0  0  0  0  0  0  0  0
  140.4224   81.2104  224.6675 H   0  0  0  0  0  0  0  0  0  0  0  0
  142.7653   80.4678  224.4080 H   0  0  0  0  0  0  0  0  0  0  0  0
  143.4401   78.9241  222.5697 H   0  0  0  0  0  0  0  0  0  0  0  0
  139.1723   69.7991  222.3059 H   0  0  0  0  0  0  0  0  0  0  0  0
  138.9788   68.3545  224.3022 H   0  0  0  0  0  0  0  0  0  0  0  0
  139.3039   67.9901  226.6903 H   0  0  0  0  0  0  0  0  0  0  0  0
  141.0701   71.1485  229.0613 H   0  0  0  0  0  0  0  0  0  0  0  0
  141.2365   72.5322  227.0363 H   0  0  0  0  0  0  0  0  0  0  0  0
  1  2  2  0
  2  3  1  0
  3  4  1  0
  4  5  1  0
  5  6  2  0
  5  7  1  0
  7  8  1  0
  8  9  1  0
  9 10  1  0
  9 11  1  0
 11 12  1  0
 12 13  1  0
 13 14  2  0
 14 15  1  0
 15 16  2  0
 16 17  1  0
 17 18  2  0
  2 19  1  0
 19 20  2  0
 20 21  1  0
 21 22  2  0
 22 23  1  0
 23 24  2  0
 24 25  1  0
 24 26  1  0
 26 27  2  0
 27 28  1  0
 28 29  2  0
 12  7  1  0
 18 13  1  0
 29 19  1  0
 28 22  1  0
  3 30  1  0
  4 31  1  0
  4 32  1  0
  8 33  1  0
  8 34  1  0
  9 35  1  6
 10 36  1  0
 11 37  1  0
 11 38  1  0
 12 39  1  6
 14 40  1  0
 15 41  1  0
 16 42  1  0
 17 43  1  0
 18 44  1  0
 20 45  1  0
 21 46  1  0
 23 47  1  0
 26 48  1  0
 27 49  1  0
M  END
>  <meeko>  (10) 
{"free_energy": -8.82, "intermolecular_energy": -10.61, "internal_energy": -1.64, "cluster_size": 11, "cluster_id": 1, "rank_in_cluster": 5}

$$$$

     RDKit          3D

 49 52  0  0  0  0  0  0  0  0999 V2000
  140.8570   71.8030  221.2090 O   0  0  0  0  0  0  0  0  0  0  0  0
  140.3640   72.2960  222.2620 C   0  0  0  0  0  0  0  0  0  0  0  0
  139.9540   73.6690  222.3290 N   0  0  0  0  0  0  0  0  0  0  0  0
  140.1020   74.5270  221.1740 C   0  0  0  0  0  0  0  0  0  0  0  0
  140.5930   75.8830  221.5680 C   0  0  0  0  0  0  0  0  0  0  0  0
  140.2730   76.2680  222.7190 O   0  0  0  0  0  0  0  0  0  0  0  0
  141.3640   76.6200  220.6460 N   0  0  0  0  0  0  0  0  0  0  0  0
  141.8580   76.0960  219.3450 C   0  0  0  0  0  0  0  0  0  0  0  0
  141.9430   77.2810  218.4270 C   0  0  2  0  0  0  0  0  0  0  0  0
  143.2990   77.6060  218.2360 O   0  0  0  0  0  0  0  0  0  0  0  0
  141.3550   78.4140  219.2780 C   0  0  0  0  0  0  0  0  0  0  0  0
  141.8630   77.9720  220.6380 C   0  0  1  0  0  0  0  0  0  0  0  0
  141.4720   78.8290  221.7410 C   0  0  0  0  0  0  0  0  0  0  0  0
  140.1530   79.1430  221.9650 C   0  0  0  0  0  0  0  0  0  0  0  0
  139.7860   79.9880  223.0190 C   0  0  0  0  0  0  0  0  0  0  0  0
  140.7830   80.5110  223.8490 C   0  0  0  0  0  0  0  0  0  0  0  0
  142.1050   80.1820  223.6090 C   0  0  0  0  0  0  0  0  0  0  0  0
  142.4800   79.3430  222.5610 C   0  0  0  0  0  0  0  0  0  0  0  0
  140.1870   71.4700  223.4750 C   0  0  0  0  0  0  0  0  0  0  0  0
  139.5170   70.2560  223.3400 C   0  0  0  0  0  0  0  0  0  0  0  0
  139.3430   69.4770  224.4510 C   0  0  0  0  0  0  0  0  0  0  0  0
  139.8160   69.8770  225.6810 C   0  0  0  0  0  0  0  0  0  0  0  0
  139.6420   69.0890  226.8130 C   0  0  0  0  0  0  0  0  0  0  0  0
  140.1410   69.5430  228.0280 C   0  0  0  0  0  0  0  0  0  0  0  0
  139.9650   68.7670  229.1280 F   0  0  0  0  0  0  0  0  0  0  0  0
  140.8010   70.7520  228.1360 C   0  0  0  0  0  0  0  0  0  0  0  0
  140.9530   71.4980  226.9990 C   0  0  0  0  0  0  0  0  0  0  0  0
  140.4800   71.1040  225.7600 C   0  0  0  0  0  0  0  0  0  0  0  0
  140.6560   71.8760  224.6720 N   0  0  0  0  0  0  0  0  0  0  0  0
  139.5510   74.0170  223.2310 H   0  0  0  0  0  0  0  0  0  0  0  0
  140.8231   74.0721  220.4790 H   0  0  0  0  0  0  0  0  0  0  0  0
  139.1185   74.6382  220.6940 H   0  0  0  0  0  0  0  0  0  0  0  0
  142.8499   75.6371  219.4696 H   0  0  0  0  0  0  0  0  0  0  0  0
  141.1887   75.3215  218.9423 H   0  0  0  0  0  0  0  0  0  0  0  0
  141.4506   77.1116  217.4580 H   0  0  0  0  0  0  0  0  0  0  0  0
  143.7220   77.8700  219.0910 H   0  0  0  0  0  0  0  0  0  0  0  0
  141.7529   79.3977  218.9881 H   0  0  0  0  0  0  0  0  0  0  0  0
  140.2663   78.5506  219.1995 H   0  0  0  0  0  0  0  0  0  0  0  0
  142.9510   78.0361  220.7870 H   0  0  0  0  0  0  0  0  0  0  0  0
  139.3760   78.7252  221.3080 H   0  0  0  0  0  0  0  0  0  0  0  0
  138.7286   80.2371  223.1920 H   0  0  0  0  0  0  0  0  0  0  0  0
  140.5186   81.1769  224.6837 H   0  0  0  0  0  0  0  0  0  0  0  0
  142.8846   80.5954  224.2657 H   0  0  0  0  0  0  0  0  0  0  0  0
  143.5367   79.0932  222.3849 H   0  0  0  0  0  0  0  0  0  0  0  0
  139.1359   69.9307  222.3607 H   0  0  0  0  0  0  0  0  0  0  0  0
  138.8167   68.5153  224.3604 H   0  0  0  0  0  0  0  0  0  0  0  0
  139.1188   68.1236  226.7482 H   0  0  0  0  0  0  0  0  0  0  0  0
  141.1909   71.1028  229.1029 H   0  0  0  0  0  0  0  0  0  0  0  0
  141.4788   72.4613  227.0740 H   0  0  0  0  0  0  0  0  0  0  0  0
  1  2  2  0
  2  3  1  0
  3  4  1  0
  4  5  1  0
  5  6  2  0
  5  7  1  0
  7  8  1  0
  8  9  1  0
  9 10  1  0
  9 11  1  0
 11 12  1  0
 12 13  1  0
 13 14  2  0
 14 15  1  0
 15 16  2  0
 16 17  1  0
 17 18  2  0
  2 19  1  0
 19 20  2  0
 20 21  1  0
 21 22  2  0
 22 23  1  0
 23 24  2  0
 24 25  1  0
 24 26  1  0
 26 27  2  0
 27 28  1  0
 28 29  2  0
 12  7  1  0
 18 13  1  0
 29 19  1  0
 28 22  1  0
  3 30  1  0
  4 31  1  0
  4 32  1  0
  8 33  1  0
  8 34  1  0
  9 35  1  6
 10 36  1  0
 11 37  1  0
 11 38  1  0
 12 39  1  6
 14 40  1  0
 15 41  1  0
 16 42  1  0
 17 43  1  0
 18 44  1  0
 20 45  1  0
 21 46  1  0
 23 47  1  0
 26 48  1  0
 27 49  1  0
M  END
>  <meeko>  (11) 
{"free_energy": -8.89, "intermolecular_energy": -10.68, "internal_energy": -1.58, "cluster_size": 11, "cluster_id": 1, "rank_in_cluster": 1}

$$$$

     RDKit          3D

 49 52  0  0  0  0  0  0  0  0999 V2000
  140.8230   71.6640  221.1670 O   0  0  0  0  0  0  0  0  0  0  0  0
  140.3460   72.1640  222.2240 C   0  0  0  0  0  0  0  0  0  0  0  0
  139.9490   73.5410  222.2910 N   0  0  0  0  0  0  0  0  0  0  0  0
  140.0900   74.3940  221.1310 C   0  0  0  0  0  0  0  0  0  0  0  0
  140.5020   75.7760  221.5240 C   0  0  0  0  0  0  0  0  0  0  0  0
  140.0880   76.1740  222.6400 O   0  0  0  0  0  0  0  0  0  0  0  0
  141.3080   76.5210  220.6390 N   0  0  0  0  0  0  0  0  0  0  0  0
  141.8570   76.0080  219.3570 C   0  0  0  0  0  0  0  0  0  0  0  0
  141.9760   77.1980  218.4500 C   0  0  2  0  0  0  0  0  0  0  0  0
  143.3380   77.5290  218.3180 O   0  0  0  0  0  0  0  0  0  0  0  0
  141.3500   78.3240  219.2830 C   0  0  0  0  0  0  0  0  0  0  0  0
  141.8020   77.8750  220.6600 C   0  0  1  0  0  0  0  0  0  0  0  0
  141.3620   78.7240  221.7520 C   0  0  0  0  0  0  0  0  0  0  0  0
  142.2320   79.1200  222.7390 C   0  0  0  0  0  0  0  0  0  0  0  0
  141.7950   79.9220  223.8000 C   0  0  0  0  0  0  0  0  0  0  0  0
  140.4550   80.3190  223.8430 C   0  0  0  0  0  0  0  0  0  0  0  0
  139.5950   79.9110  222.8400 C   0  0  0  0  0  0  0  0  0  0  0  0
  140.0200   79.1130  221.7800 C   0  0  0  0  0  0  0  0  0  0  0  0
  140.1760   71.3440  223.4420 C   0  0  0  0  0  0  0  0  0  0  0  0
  139.5510   70.1060  223.3070 C   0  0  0  0  0  0  0  0  0  0  0  0
  139.3850   69.3320  224.4230 C   0  0  0  0  0  0  0  0  0  0  0  0
  139.8220   69.7610  225.6570 C   0  0  0  0  0  0  0  0  0  0  0  0
  139.6560   68.9780  226.7940 C   0  0  0  0  0  0  0  0  0  0  0  0
  140.1170   69.4600  228.0130 C   0  0  0  0  0  0  0  0  0  0  0  0
  139.9490   68.6890  229.1170 F   0  0  0  0  0  0  0  0  0  0  0  0
  140.7330   70.6930  228.1200 C   0  0  0  0  0  0  0  0  0  0  0  0
  140.8790   71.4320  226.9780 C   0  0  0  0  0  0  0  0  0  0  0  0
  140.4420   71.0100  225.7360 C   0  0  0  0  0  0  0  0  0  0  0  0
  140.6100   71.7780  224.6430 N   0  0  0  0  0  0  0  0  0  0  0  0
  139.5590   73.8960  223.1960 H   0  0  0  0  0  0  0  0  0  0  0  0
  140.8532   73.9682  220.4630 H   0  0  0  0  0  0  0  0  0  0  0  0
  139.1173   74.4521  220.6207 H   0  0  0  0  0  0  0  0  0  0  0  0
  142.8446   75.5517  219.5199 H   0  0  0  0  0  0  0  0  0  0  0  0
  141.2071   75.2344  218.9222 H   0  0  0  0  0  0  0  0  0  0  0  0
  141.5250   77.0324  217.4604 H   0  0  0  0  0  0  0  0  0  0  0  0
  143.6990   77.8860  219.1680 H   0  0  0  0  0  0  0  0  0  0  0  0
  141.7569   79.3105  219.0160 H   0  0  0  0  0  0  0  0  0  0  0  0
  140.2652   78.4582  219.1601 H   0  0  0  0  0  0  0  0  0  0  0  0
  142.8826   77.9420  220.8544 H   0  0  0  0  0  0  0  0  0  0  0  0
  143.2844   78.8031  222.6950 H   0  0  0  0  0  0  0  0  0  0  0  0
  142.4955   80.2352  224.5882 H   0  0  0  0  0  0  0  0  0  0  0  0
  140.0886   80.9496  224.6665 H   0  0  0  0  0  0  0  0  0  0  0  0
  138.5420   80.2265  222.8803 H   0  0  0  0  0  0  0  0  0  0  0  0
  139.3215   78.7991  220.9903 H   0  0  0  0  0  0  0  0  0  0  0  0
  139.1987   69.7585  222.3246 H   0  0  0  0  0  0  0  0  0  0  0  0
  138.8947   68.3514  224.3334 H   0  0  0  0  0  0  0  0  0  0  0  0
  139.1682   67.9942  226.7296 H   0  0  0  0  0  0  0  0  0  0  0  0
  141.0933   71.0669  229.0897 H   0  0  0  0  0  0  0  0  0  0  0  0
  141.3699   72.4136  227.0518 H   0  0  0  0  0  0  0  0  0  0  0  0
  1  2  2  0
  2  3  1  0
  3  4  1  0
  4  5  1  0
  5  6  2  0
  5  7  1  0
  7  8  1  0
  8  9  1  0
  9 10  1  0
  9 11  1  0
 11 12  1  0
 12 13  1  0
 13 14  2  0
 14 15  1  0
 15 16  2  0
 16 17  1  0
 17 18  2  0
  2 19  1  0
 19 20  2  0
 20 21  1  0
 21 22  2  0
 22 23  1  0
 23 24  2  0
 24 25  1  0
 24 26  1  0
 26 27  2  0
 27 28  1  0
 28 29  2  0
 12  7  1  0
 18 13  1  0
 29 19  1  0
 28 22  1  0
  3 30  1  0
  4 31  1  0
  4 32  1  0
  8 33  1  0
  8 34  1  0
  9 35  1  6
 10 36  1  0
 11 37  1  0
 11 38  1  0
 12 39  1  6
 14 40  1  0
 15 41  1  0
 16 42  1  0
 17 43  1  0
 18 44  1  0
 20 45  1  0
 21 46  1  0
 23 47  1  0
 26 48  1  0
 27 49  1  0
M  END
>  <meeko>  (12) 
{"free_energy": -8.79, "intermolecular_energy": -10.58, "internal_energy": -1.64, "cluster_size": 11, "cluster_id": 1, "rank_in_cluster": 9}

$$$$

     RDKit          3D

 49 52  0  0  0  0  0  0  0  0999 V2000
  140.7770   71.7780  221.1840 O   0  0  0  0  0  0  0  0  0  0  0  0
  140.3110   72.2690  222.2500 C   0  0  0  0  0  0  0  0  0  0  0  0
  139.9180   73.6460  222.3340 N   0  0  0  0  0  0  0  0  0  0  0  0
  140.0490   74.5090  221.1810 C   0  0  0  0  0  0  0  0  0  0  0  0
  140.5520   75.8610  221.5730 C   0  0  0  0  0  0  0  0  0  0  0  0
  140.2210   76.2570  222.7170 O   0  0  0  0  0  0  0  0  0  0  0  0
  141.3440   76.5830  220.6570 N   0  0  0  0  0  0  0  0  0  0  0  0
  141.8470   76.0460  219.3650 C   0  0  0  0  0  0  0  0  0  0  0  0
  141.9590   77.2240  218.4420 C   0  0  2  0  0  0  0  0  0  0  0  0
  143.3220   77.5300  218.2660 O   0  0  0  0  0  0  0  0  0  0  0  0
  141.3770   78.3700  219.2800 C   0  0  0  0  0  0  0  0  0  0  0  0
  141.8620   77.9280  220.6480 C   0  0  1  0  0  0  0  0  0  0  0  0
  141.4690   78.7960  221.7430 C   0  0  0  0  0  0  0  0  0  0  0  0
  142.3880   79.2390  222.6640 C   0  0  0  0  0  0  0  0  0  0  0  0
  141.9970   80.0590  223.7290 C   0  0  0  0  0  0  0  0  0  0  0  0
  140.6520   80.4270  223.8450 C   0  0  0  0  0  0  0  0  0  0  0  0
  139.7430   79.9710  222.9070 C   0  0  0  0  0  0  0  0  0  0  0  0
  140.1220   79.1540  221.8440 C   0  0  0  0  0  0  0  0  0  0  0  0
  140.1520   71.4380  223.4620 C   0  0  0  0  0  0  0  0  0  0  0  0
  139.5330   70.1980  223.3200 C   0  0  0  0  0  0  0  0  0  0  0  0
  139.3760   69.4130  224.4300 C   0  0  0  0  0  0  0  0  0  0  0  0
  139.8180   69.8330  225.6650 C   0  0  0  0  0  0  0  0  0  0  0  0
  139.6610   69.0400  226.7960 C   0  0  0  0  0  0  0  0  0  0  0  0
  140.1270   69.5140  228.0160 C   0  0  0  0  0  0  0  0  0  0  0  0
  139.9680   68.7320  229.1150 F   0  0  0  0  0  0  0  0  0  0  0  0
  140.7380   70.7480  228.1310 C   0  0  0  0  0  0  0  0  0  0  0  0
  140.8740   71.4980  226.9950 C   0  0  0  0  0  0  0  0  0  0  0  0
  140.4320   71.0850  225.7510 C   0  0  0  0  0  0  0  0  0  0  0  0
  140.5900   71.8630  224.6640 N   0  0  0  0  0  0  0  0  0  0  0  0
  139.5380   73.9930  223.2470 H   0  0  0  0  0  0  0  0  0  0  0  0
  140.7561   74.0549  220.4712 H   0  0  0  0  0  0  0  0  0  0  0  0
  139.0577   74.6263  220.7189 H   0  0  0  0  0  0  0  0  0  0  0  0
  142.8312   75.5749  219.5043 H   0  0  0  0  0  0  0  0  0  0  0  0
  141.1723   75.2785  218.9581 H   0  0  0  0  0  0  0  0  0  0  0  0
  141.4759   77.0555  217.4682 H   0  0  0  0  0  0  0  0  0  0  0  0
  143.7120   77.8970  219.0990 H   0  0  0  0  0  0  0  0  0  0  0  0
  141.7925   79.3463  218.9899 H   0  0  0  0  0  0  0  0  0  0  0  0
  140.2915   78.5219  219.1875 H   0  0  0  0  0  0  0  0  0  0  0  0
  142.9489   77.9782  220.8094 H   0  0  0  0  0  0  0  0  0  0  0  0
  143.4434   78.9457  222.5630 H   0  0  0  0  0  0  0  0  0  0  0  0
  142.7365   80.4091  224.4642 H   0  0  0  0  0  0  0  0  0  0  0  0
  140.3211   81.0716  224.6727 H   0  0  0  0  0  0  0  0  0  0  0  0
  138.6869   80.2629  223.0036 H   0  0  0  0  0  0  0  0  0  0  0  0
  139.3844   78.8020  221.1077 H   0  0  0  0  0  0  0  0  0  0  0  0
  139.1779   69.8570  222.3363 H   0  0  0  0  0  0  0  0  0  0  0  0
  138.8892   68.4312  224.3343 H   0  0  0  0  0  0  0  0  0  0  0  0
  139.1765   68.0549  226.7262 H   0  0  0  0  0  0  0  0  0  0  0  0
  141.1023   71.1145  229.1020 H   0  0  0  0  0  0  0  0  0  0  0  0
  141.3605   72.4813  227.0750 H   0  0  0  0  0  0  0  0  0  0  0  0
  1  2  2  0
  2  3  1  0
  3  4  1  0
  4  5  1  0
  5  6  2  0
  5  7  1  0
  7  8  1  0
  8  9  1  0
  9 10  1  0
  9 11  1  0
 11 12  1  0
 12 13  1  0
 13 14  2  0
 14 15  1  0
 15 16  2  0
 16 17  1  0
 17 18  2  0
  2 19  1  0
 19 20  2  0
 20 21  1  0
 21 22  2  0
 22 23  1  0
 23 24  2  0
 24 25  1  0
 24 26  1  0
 26 27  2  0
 27 28  1  0
 28 29  2  0
 12  7  1  0
 18 13  1  0
 29 19  1  0
 28 22  1  0
  3 30  1  0
  4 31  1  0
  4 32  1  0
  8 33  1  0
  8 34  1  0
  9 35  1  6
 10 36  1  0
 11 37  1  0
 11 38  1  0
 12 39  1  6
 14 40  1  0
 15 41  1  0
 16 42  1  0
 17 43  1  0
 18 44  1  0
 20 45  1  0
 21 46  1  0
 23 47  1  0
 26 48  1  0
 27 49  1  0
M  END
>  <meeko>  (13) 
{"free_energy": -8.84, "intermolecular_energy": -10.63, "internal_energy": -1.61, "cluster_size": 11, "cluster_id": 1, "rank_in_cluster": 4}

$$$$

     RDKit          3D

 49 52  0  0  0  0  0  0  0  0999 V2000
  140.7370   71.7670  221.1580 O   0  0  0  0  0  0  0  0  0  0  0  0
  140.2900   72.2560  222.2330 C   0  0  0  0  0  0  0  0  0  0  0  0
  139.9070   73.6350  222.3280 N   0  0  0  0  0  0  0  0  0  0  0  0
  140.0270   74.5030  221.1770 C   0  0  0  0  0  0  0  0  0  0  0  0
  140.4850   75.8690  221.5760 C   0  0  0  0  0  0  0  0  0  0  0  0
  140.1030   76.2660  222.7030 O   0  0  0  0  0  0  0  0  0  0  0  0
  141.2940   76.6010  220.6840 N   0  0  0  0  0  0  0  0  0  0  0  0
  141.8460   76.0690  219.4090 C   0  0  0  0  0  0  0  0  0  0  0  0
  141.9690   77.2470  218.4880 C   0  0  2  0  0  0  0  0  0  0  0  0
  143.3330   77.5730  218.3540 O   0  0  0  0  0  0  0  0  0  0  0  0
  141.3440   78.3860  219.3050 C   0  0  0  0  0  0  0  0  0  0  0  0
  141.7920   77.9530  220.6880 C   0  0  1  0  0  0  0  0  0  0  0  0
  141.3520   78.8170  221.7680 C   0  0  0  0  0  0  0  0  0  0  0  0
  140.0420   79.2200  221.8670 C   0  0  0  0  0  0  0  0  0  0  0  0
  139.6300   80.0710  222.9000 C   0  0  0  0  0  0  0  0  0  0  0  0
  140.5720   80.5070  223.8370 C   0  0  0  0  0  0  0  0  0  0  0  0
  141.8860   80.0900  223.7200 C   0  0  0  0  0  0  0  0  0  0  0  0
  142.3060   79.2440  222.6960 C   0  0  0  0  0  0  0  0  0  0  0  0
  140.1430   71.4210  223.4440 C   0  0  0  0  0  0  0  0  0  0  0  0
  139.5440   70.1710  223.2990 C   0  0  0  0  0  0  0  0  0  0  0  0
  139.3990   69.3830  224.4080 C   0  0  0  0  0  0  0  0  0  0  0  0
  139.8320   69.8080  225.6440 C   0  0  0  0  0  0  0  0  0  0  0  0
  139.6870   69.0110  226.7730 C   0  0  0  0  0  0  0  0  0  0  0  0
  140.1420   69.4910  227.9950 C   0  0  0  0  0  0  0  0  0  0  0  0
  139.9950   68.7050  229.0930 F   0  0  0  0  0  0  0  0  0  0  0  0
  140.7330   70.7350  228.1120 C   0  0  0  0  0  0  0  0  0  0  0  0
  140.8580   71.4890  226.9770 C   0  0  0  0  0  0  0  0  0  0  0  0
  140.4250   71.0700  225.7320 C   0  0  0  0  0  0  0  0  0  0  0  0
  140.5720   71.8520  224.6460 N   0  0  0  0  0  0  0  0  0  0  0  0
  139.5420   73.9810  223.2480 H   0  0  0  0  0  0  0  0  0  0  0  0
  140.7560   74.0706  220.4759 H   0  0  0  0  0  0  0  0  0  0  0  0
  139.0385   74.5916  220.7027 H   0  0  0  0  0  0  0  0  0  0  0  0
  142.8323   75.6132  219.5803 H   0  0  0  0  0  0  0  0  0  0  0  0
  141.1964   75.2904  218.9826 H   0  0  0  0  0  0  0  0  0  0  0  0
  141.5188   77.0699  217.5001 H   0  0  0  0  0  0  0  0  0  0  0  0
  143.7660   77.6490  219.2420 H   0  0  0  0  0  0  0  0  0  0  0  0
  141.7542   79.3678  219.0263 H   0  0  0  0  0  0  0  0  0  0  0  0
  140.2599   78.5221  219.1780 H   0  0  0  0  0  0  0  0  0  0  0  0
  142.8726   78.0189  220.8830 H   0  0  0  0  0  0  0  0  0  0  0  0
  139.3083   78.8700  221.1260 H   0  0  0  0  0  0  0  0  0  0  0  0
  138.5804   80.3919  222.9733 H   0  0  0  0  0  0  0  0  0  0  0  0
  140.2715   81.1743  224.6582 H   0  0  0  0  0  0  0  0  0  0  0  0
  142.6227   80.4376  224.4592 H   0  0  0  0  0  0  0  0  0  0  0  0
  143.3552   78.9222  222.6202 H   0  0  0  0  0  0  0  0  0  0  0  0
  139.1955   69.8255  222.3145 H   0  0  0  0  0  0  0  0  0  0  0  0
  138.9286   68.3934  224.3106 H   0  0  0  0  0  0  0  0  0  0  0  0
  139.2202   68.0176  226.7006 H   0  0  0  0  0  0  0  0  0  0  0  0
  141.0905   71.1060  229.0839 H   0  0  0  0  0  0  0  0  0  0  0  0
  141.3275   72.4804  227.0590 H   0  0  0  0  0  0  0  0  0  0  0  0
  1  2  2  0
  2  3  1  0
  3  4  1  0
  4  5  1  0
  5  6  2  0
  5  7  1  0
  7  8  1  0
  8  9  1  0
  9 10  1  0
  9 11  1  0
 11 12  1  0
 12 13  1  0
 13 14  2  0
 14 15  1  0
 15 16  2  0
 16 17  1  0
 17 18  2  0
  2 19  1  0
 19 20  2  0
 20 21  1  0
 21 22  2  0
 22 23  1  0
 23 24  2  0
 24 25  1  0
 24 26  1  0
 26 27  2  0
 27 28  1  0
 28 29  2  0
 12  7  1  0
 18 13  1  0
 29 19  1  0
 28 22  1  0
  3 30  1  0
  4 31  1  0
  4 32  1  0
  8 33  1  0
  8 34  1  0
  9 35  1  6
 10 36  1  0
 11 37  1  0
 11 38  1  0
 12 39  1  6
 14 40  1  0
 15 41  1  0
 16 42  1  0
 17 43  1  0
 18 44  1  0
 20 45  1  0
 21 46  1  0
 23 47  1  0
 26 48  1  0
 27 49  1  0
M  END
>  <meeko>  (14) 
{"free_energy": -8.81, "intermolecular_energy": -10.6, "internal_energy": -1.63, "cluster_size": 11, "cluster_id": 1, "rank_in_cluster": 8}

$$$$

     RDKit          3D

 49 52  0  0  0  0  0  0  0  0999 V2000
  141.2010   77.2250  217.5440 O   0  0  0  0  0  0  0  0  0  0  0  0
  142.0640   77.1090  218.4590 C   0  0  0  0  0  0  0  0  0  0  0  0
  142.2710   78.1440  219.4310 N   0  0  0  0  0  0  0  0  0  0  0  0
  141.4840   79.3560  219.3790 C   0  0  0  0  0  0  0  0  0  0  0  0
  140.1280   79.1460  219.9710 C   0  0  0  0  0  0  0  0  0  0  0  0
  139.2190   79.8930  219.5350 O   0  0  0  0  0  0  0  0  0  0  0  0
  139.9640   78.1490  220.9540 N   0  0  0  0  0  0  0  0  0  0  0  0
  139.2810   76.8470  220.7350 C   0  0  0  0  0  0  0  0  0  0  0  0
  139.9340   75.8730  221.6720 C   0  0  2  0  0  0  0  0  0  0  0  0
  139.0400   75.5900  222.7220 O   0  0  0  0  0  0  0  0  0  0  0  0
  141.0630   76.7050  222.2940 C   0  0  0  0  0  0  0  0  0  0  0  0
  140.3660   78.0520  222.3350 C   0  0  1  0  0  0  0  0  0  0  0  0
  141.1690   79.1360  222.8690 C   0  0  0  0  0  0  0  0  0  0  0  0
  140.5860   80.2030  223.5100 C   0  0  0  0  0  0  0  0  0  0  0  0
  141.3650   81.2560  224.0040 C   0  0  0  0  0  0  0  0  0  0  0  0
  142.7540   81.2080  223.8390 C   0  0  0  0  0  0  0  0  0  0  0  0
  143.3220   80.1250  223.1920 C   0  0  0  0  0  0  0  0  0  0  0  0
  142.5540   79.0730  222.6960 C   0  0  0  0  0  0  0  0  0  0  0  0
  142.8990   75.8940  218.5660 C   0  0  0  0  0  0  0  0  0  0  0  0
  142.8650   74.9900  217.5070 C   0  0  0  0  0  0  0  0  0  0  0  0
  143.6310   73.8590  217.5860 C   0  0  0  0  0  0  0  0  0  0  0  0
  144.4210   73.6120  218.6880 C   0  0  0  0  0  0  0  0  0  0  0  0
  145.2010   72.4640  218.7740 C   0  0  0  0  0  0  0  0  0  0  0  0
  145.9780   72.2660  219.9080 C   0  0  0  0  0  0  0  0  0  0  0  0
  146.7360   71.1420  219.9830 F   0  0  0  0  0  0  0  0  0  0  0  0
  145.9930   73.1780  220.9460 C   0  0  0  0  0  0  0  0  0  0  0  0
  145.2120   74.2950  220.8230 C   0  0  0  0  0  0  0  0  0  0  0  0
  144.4170   74.5510  219.7220 C   0  0  0  0  0  0  0  0  0  0  0  0
  143.6660   75.6660  219.6510 N   0  0  0  0  0  0  0  0  0  0  0  0
  143.0010   77.9870  220.1660 H   0  0  0  0  0  0  0  0  0  0  0  0
  142.0031   80.1453  219.9425 H   0  0  0  0  0  0  0  0  0  0  0  0
  141.3626   79.6474  218.3253 H   0  0  0  0  0  0  0  0  0  0  0  0
  138.2084   76.9353  220.9624 H   0  0  0  0  0  0  0  0  0  0  0  0
  139.3672   76.5184  219.6888 H   0  0  0  0  0  0  0  0  0  0  0  0
  140.2481   74.9424  221.1767 H   0  0  0  0  0  0  0  0  0  0  0  0
  139.1860   74.6760  223.0730 H   0  0  0  0  0  0  0  0  0  0  0  0
  141.3328   76.3489  223.2992 H   0  0  0  0  0  0  0  0  0  0  0  0
  142.0211   76.6830  221.7540 H   0  0  0  0  0  0  0  0  0  0  0  0
  139.5264   78.1360  223.0407 H   0  0  0  0  0  0  0  0  0  0  0  0
  139.4936   80.2298  223.6364 H   0  0  0  0  0  0  0  0  0  0  0  0
  140.8925   82.1083  224.5142 H   0  0  0  0  0  0  0  0  0  0  0  0
  143.3874   82.0228  224.2197 H   0  0  0  0  0  0  0  0  0  0  0  0
  144.4142   80.0932  223.0650 H   0  0  0  0  0  0  0  0  0  0  0  0
  143.0235   78.2199  222.1844 H   0  0  0  0  0  0  0  0  0  0  0  0
  142.2355   75.1813  216.6255 H   0  0  0  0  0  0  0  0  0  0  0  0
  143.6161   73.1358  216.7573 H   0  0  0  0  0  0  0  0  0  0  0  0
  145.2026   71.7259  217.9584 H   0  0  0  0  0  0  0  0  0  0  0  0
  146.6114   73.0119  221.8404 H   0  0  0  0  0  0  0  0  0  0  0  0
  145.2173   75.0275  221.6436 H   0  0  0  0  0  0  0  0  0  0  0  0
  1  2  2  0
  2  3  1  0
  3  4  1  0
  4  5  1  0
  5  6  2  0
  5  7  1  0
  7  8  1  0
  8  9  1  0
  9 10  1  0
  9 11  1  0
 11 12  1  0
 12 13  1  0
 13 14  2  0
 14 15  1  0
 15 16  2  0
 16 17  1  0
 17 18  2  0
  2 19  1  0
 19 20  2  0
 20 21  1  0
 21 22  2  0
 22 23  1  0
 23 24  2  0
 24 25  1  0
 24 26  1  0
 26 27  2  0
 27 28  1  0
 28 29  2  0
 12  7  1  0
 18 13  1  0
 29 19  1  0
 28 22  1  0
  3 30  1  0
  4 31  1  0
  4 32  1  0
  8 33  1  0
  8 34  1  0
  9 35  1  6
 10 36  1  0
 11 37  1  0
 11 38  1  0
 12 39  1  1
 14 40  1  0
 15 41  1  0
 16 42  1  0
 17 43  1  0
 18 44  1  0
 20 45  1  0
 21 46  1  0
 23 47  1  0
 26 48  1  0
 27 49  1  0
M  END
>  <meeko>  (15) 
{"free_energy": -7.33, "intermolecular_energy": -9.12, "internal_energy": -2.28, "cluster_size": 4, "cluster_id": 5, "rank_in_cluster": 3}

$$$$

     RDKit          3D

 49 52  0  0  0  0  0  0  0  0999 V2000
  141.0500   71.6180  221.3110 O   0  0  0  0  0  0  0  0  0  0  0  0
  140.4850   72.1390  222.3130 C   0  0  0  0  0  0  0  0  0  0  0  0
  140.0470   73.5050  222.3020 N   0  0  0  0  0  0  0  0  0  0  0  0
  140.2470   74.3220  221.1260 C   0  0  0  0  0  0  0  0  0  0  0  0
  140.5900   75.7290  221.4970 C   0  0  0  0  0  0  0  0  0  0  0  0
  140.1510   76.1250  222.6040 O   0  0  0  0  0  0  0  0  0  0  0  0
  141.3620   76.4980  220.6030 N   0  0  0  0  0  0  0  0  0  0  0  0
  141.8920   76.0080  219.3030 C   0  0  0  0  0  0  0  0  0  0  0  0
  141.9700   77.2090  218.4070 C   0  0  2  0  0  0  0  0  0  0  0  0
  143.3230   77.5660  218.2490 O   0  0  0  0  0  0  0  0  0  0  0  0
  141.3430   78.3150  219.2660 C   0  0  0  0  0  0  0  0  0  0  0  0
  141.8330   77.8600  220.6280 C   0  0  1  0  0  0  0  0  0  0  0  0
  141.4030   78.6890  221.7380 C   0  0  0  0  0  0  0  0  0  0  0  0
  140.0700   78.9110  221.9850 C   0  0  0  0  0  0  0  0  0  0  0  0
  139.6640   79.7300  223.0460 C   0  0  0  0  0  0  0  0  0  0  0  0
  140.6370   80.3210  223.8580 C   0  0  0  0  0  0  0  0  0  0  0  0
  141.9740   80.0850  223.5940 C   0  0  0  0  0  0  0  0  0  0  0  0
  142.3880   79.2720  222.5410 C   0  0  0  0  0  0  0  0  0  0  0  0
  140.2510   71.3560  223.5450 C   0  0  0  0  0  0  0  0  0  0  0  0
  139.5890   70.1370  223.4200 C   0  0  0  0  0  0  0  0  0  0  0  0
  139.3630   69.3970  224.5490 C   0  0  0  0  0  0  0  0  0  0  0  0
  139.7770   69.8410  225.7850 C   0  0  0  0  0  0  0  0  0  0  0  0
  139.5500   69.0930  226.9350 C   0  0  0  0  0  0  0  0  0  0  0  0
  139.9890   69.5900  228.1550 C   0  0  0  0  0  0  0  0  0  0  0  0
  139.7620   68.8530  229.2720 F   0  0  0  0  0  0  0  0  0  0  0  0
  140.6430   70.8050  228.2520 C   0  0  0  0  0  0  0  0  0  0  0  0
  140.8480   71.5100  227.0970 C   0  0  0  0  0  0  0  0  0  0  0  0
  140.4360   71.0710  225.8530 C   0  0  0  0  0  0  0  0  0  0  0  0
  140.6620   71.8050  224.7470 N   0  0  0  0  0  0  0  0  0  0  0  0
  139.5830   73.8790  223.1650 H   0  0  0  0  0  0  0  0  0  0  0  0
  141.0683   73.8978  220.5298 H   0  0  0  0  0  0  0  0  0  0  0  0
  139.3122   74.3327  220.5463 H   0  0  0  0  0  0  0  0  0  0  0  0
  142.8908   75.5677  219.4393 H   0  0  0  0  0  0  0  0  0  0  0  0
  141.2464   75.2275  218.8740 H   0  0  0  0  0  0  0  0  0  0  0  0
  141.5003   77.0457  217.4258 H   0  0  0  0  0  0  0  0  0  0  0  0
  143.7050   77.8900  219.1030 H   0  0  0  0  0  0  0  0  0  0  0  0
  141.7265   79.3113  219.0008 H   0  0  0  0  0  0  0  0  0  0  0  0
  140.2535   78.4310  219.1684 H   0  0  0  0  0  0  0  0  0  0  0  0
  142.9163   77.9442  220.7995 H   0  0  0  0  0  0  0  0  0  0  0  0
  139.3124   78.4398  221.3416 H   0  0  0  0  0  0  0  0  0  0  0  0
  138.5952   79.9058  223.2378 H   0  0  0  0  0  0  0  0  0  0  0  0
  140.3421   80.9670  224.6981 H   0  0  0  0  0  0  0  0  0  0  0  0
  142.7345   80.5540  224.2356 H   0  0  0  0  0  0  0  0  0  0  0  0
  143.4562   79.0944  222.3475 H   0  0  0  0  0  0  0  0  0  0  0  0
  139.2552   69.7769  222.4357 H   0  0  0  0  0  0  0  0  0  0  0  0
  138.8420   68.4316  224.4677 H   0  0  0  0  0  0  0  0  0  0  0  0
  139.0317   68.1244  226.8792 H   0  0  0  0  0  0  0  0  0  0  0  0
  140.9862   71.1910  229.2232 H   0  0  0  0  0  0  0  0  0  0  0  0
  141.3681   72.4771  227.1623 H   0  0  0  0  0  0  0  0  0  0  0  0
  1  2  2  0
  2  3  1  0
  3  4  1  0
  4  5  1  0
  5  6  2  0
  5  7  1  0
  7  8  1  0
  8  9  1  0
  9 10  1  0
  9 11  1  0
 11 12  1  0
 12 13  1  0
 13 14  2  0
 14 15  1  0
 15 16  2  0
 16 17  1  0
 17 18  2  0
  2 19  1  0
 19 20  2  0
 20 21  1  0
 21 22  2  0
 22 23  1  0
 23 24  2  0
 24 25  1  0
 24 26  1  0
 26 27  2  0
 27 28  1  0
 28 29  2  0
 12  7  1  0
 18 13  1  0
 29 19  1  0
 28 22  1  0
  3 30  1  0
  4 31  1  0
  4 32  1  0
  8 33  1  0
  8 34  1  0
  9 35  1  6
 10 36  1  0
 11 37  1  0
 11 38  1  0
 12 39  1  6
 14 40  1  0
 15 41  1  0
 16 42  1  0
 17 43  1  0
 18 44  1  0
 20 45  1  0
 21 46  1  0
 23 47  1  0
 26 48  1  0
 27 49  1  0
M  END
>  <meeko>  (16) 
{"free_energy": -8.82, "intermolecular_energy": -10.61, "internal_energy": -1.57, "cluster_size": 11, "cluster_id": 1, "rank_in_cluster": 7}

$$$$

     RDKit          3D

 49 52  0  0  0  0  0  0  0  0999 V2000
  139.7680   71.3420  220.9410 O   0  0  0  0  0  0  0  0  0  0  0  0
  139.8330   71.9300  222.0570 C   0  0  0  0  0  0  0  0  0  0  0  0
  139.8790   73.3600  222.1510 N   0  0  0  0  0  0  0  0  0  0  0  0
  139.8510   74.1670  220.9500 C   0  0  0  0  0  0  0  0  0  0  0  0
  140.8580   73.6880  219.9540 C   0  0  0  0  0  0  0  0  0  0  0  0
  140.3960   73.3070  218.8510 O   0  0  0  0  0  0  0  0  0  0  0  0
  142.2220   73.6970  220.3100 N   0  0  0  0  0  0  0  0  0  0  0  0
  142.9690   72.5230  220.8320 C   0  0  0  0  0  0  0  0  0  0  0  0
  144.3910   72.7060  220.3900 C   0  0  2  0  0  0  0  0  0  0  0  0
  145.1690   73.0620  221.5090 O   0  0  0  0  0  0  0  0  0  0  0  0
  144.3160   73.9640  219.5150 C   0  0  0  0  0  0  0  0  0  0  0  0
  143.2410   74.7150  220.2770 C   0  0  1  0  0  0  0  0  0  0  0  0
  142.8770   76.0000  219.7090 C   0  0  0  0  0  0  0  0  0  0  0  0
  142.1070   76.8950  220.4110 C   0  0  0  0  0  0  0  0  0  0  0  0
  141.7420   78.1240  219.8470 C   0  0  0  0  0  0  0  0  0  0  0  0
  142.1750   78.4320  218.5530 C   0  0  0  0  0  0  0  0  0  0  0  0
  142.9510   77.5180  217.8630 C   0  0  0  0  0  0  0  0  0  0  0  0
  143.3180   76.2930  218.4160 C   0  0  0  0  0  0  0  0  0  0  0  0
  139.8640   71.1610  223.3200 C   0  0  0  0  0  0  0  0  0  0  0  0
  139.3710   69.8580  223.2960 C   0  0  0  0  0  0  0  0  0  0  0  0
  139.3910   69.1300  224.4540 C   0  0  0  0  0  0  0  0  0  0  0  0
  139.8850   69.6670  225.6230 C   0  0  0  0  0  0  0  0  0  0  0  0
  139.9080   68.9310  226.8020 C   0  0  0  0  0  0  0  0  0  0  0  0
  140.4180   69.5220  227.9510 C   0  0  0  0  0  0  0  0  0  0  0  0
  140.4350   68.7960  229.0980 F   0  0  0  0  0  0  0  0  0  0  0  0
  140.9010   70.8180  227.9480 C   0  0  0  0  0  0  0  0  0  0  0  0
  140.8620   71.5080  226.7670 C   0  0  0  0  0  0  0  0  0  0  0  0
  140.3670   70.9770  225.5900 C   0  0  0  0  0  0  0  0  0  0  0  0
  140.3510   71.7000  224.4540 N   0  0  0  0  0  0  0  0  0  0  0  0
  139.9320   73.7880  223.1060 H   0  0  0  0  0  0  0  0  0  0  0  0
  138.8479   74.1096  220.5023 H   0  0  0  0  0  0  0  0  0  0  0  0
  140.0954   75.2046  221.2214 H   0  0  0  0  0  0  0  0  0  0  0  0
  142.9114   72.4911  221.9300 H   0  0  0  0  0  0  0  0  0  0  0  0
  142.5489   71.5788  220.4552 H   0  0  0  0  0  0  0  0  0  0  0  0
  144.8086   71.8126  219.9026 H   0  0  0  0  0  0  0  0  0  0  0  0
  145.5980   72.2630  221.9080 H   0  0  0  0  0  0  0  0  0  0  0  0
  145.2694   74.5124  219.4975 H   0  0  0  0  0  0  0  0  0  0  0  0
  144.1074   73.7888  218.4493 H   0  0  0  0  0  0  0  0  0  0  0  0
  143.5268   75.0777  221.2754 H   0  0  0  0  0  0  0  0  0  0  0  0
  141.7730   76.6435  221.4284 H   0  0  0  0  0  0  0  0  0  0  0  0
  141.1240   78.8364  220.4132 H   0  0  0  0  0  0  0  0  0  0  0  0
  141.9013   79.3910  218.0889 H   0  0  0  0  0  0  0  0  0  0  0  0
  143.2889   77.7661  216.8460 H   0  0  0  0  0  0  0  0  0  0  0  0
  143.9358   75.5786  217.8521 H   0  0  0  0  0  0  0  0  0  0  0  0
  138.9744   69.4242  222.3662 H   0  0  0  0  0  0  0  0  0  0  0  0
  139.0066   68.0994  224.4520 H   0  0  0  0  0  0  0  0  0  0  0  0
  139.5290   67.8986  226.8247 H   0  0  0  0  0  0  0  0  0  0  0  0
  141.3025   71.2780  228.8630 H   0  0  0  0  0  0  0  0  0  0  0  0
  141.2445   72.5393  226.7531 H   0  0  0  0  0  0  0  0  0  0  0  0
  1  2  2  0
  2  3  1  0
  3  4  1  0
  4  5  1  0
  5  6  2  0
  5  7  1  0
  7  8  1  0
  8  9  1  0
  9 10  1  0
  9 11  1  0
 11 12  1  0
 12 13  1  0
 13 14  2  0
 14 15  1  0
 15 16  2  0
 16 17  1  0
 17 18  2  0
  2 19  1  0
 19 20  2  0
 20 21  1  0
 21 22  2  0
 22 23  1  0
 23 24  2  0
 24 25  1  0
 24 26  1  0
 26 27  2  0
 27 28  1  0
 28 29  2  0
 12  7  1  0
 18 13  1  0
 29 19  1  0
 28 22  1  0
  3 30  1  0
  4 31  1  0
  4 32  1  0
  8 33  1  0
  8 34  1  0
  9 35  1  6
 10 36  1  0
 11 37  1  0
 11 38  1  0
 12 39  1  1
 14 40  1  0
 15 41  1  0
 16 42  1  0
 17 43  1  0
 18 44  1  0
 20 45  1  0
 21 46  1  0
 23 47  1  0
 26 48  1  0
 27 49  1  0
M  END
>  <meeko>  (17) 
{"free_energy": -7.65, "intermolecular_energy": -9.44, "internal_energy": -1.67, "cluster_size": 1, "cluster_id": 4, "rank_in_cluster": 1}

$$$$

     RDKit          3D

 49 52  0  0  0  0  0  0  0  0999 V2000
  140.9620   71.8160  221.1850 O   0  0  0  0  0  0  0  0  0  0  0  0
  140.4260   72.3370  222.2030 C   0  0  0  0  0  0  0  0  0  0  0  0
  140.0330   73.7170  222.2210 N   0  0  0  0  0  0  0  0  0  0  0  0
  140.2460   74.5480  221.0570 C   0  0  0  0  0  0  0  0  0  0  0  0
  140.6730   75.9260  221.4480 C   0  0  0  0  0  0  0  0  0  0  0  0
  140.3380   76.2970  222.5980 O   0  0  0  0  0  0  0  0  0  0  0  0
  141.4060   76.6970  220.5220 N   0  0  0  0  0  0  0  0  0  0  0  0
  141.8640   76.2150  219.1920 C   0  0  0  0  0  0  0  0  0  0  0  0
  141.9070   77.4260  218.3060 C   0  0  2  0  0  0  0  0  0  0  0  0
  143.2530   77.7720  218.0810 O   0  0  0  0  0  0  0  0  0  0  0  0
  141.3350   78.5280  219.2060 C   0  0  0  0  0  0  0  0  0  0  0  0
  141.8900   78.0540  220.5360 C   0  0  1  0  0  0  0  0  0  0  0  0
  141.5260   78.8760  221.6760 C   0  0  0  0  0  0  0  0  0  0  0  0
  140.2150   79.2060  221.9240 C   0  0  0  0  0  0  0  0  0  0  0  0
  139.8740   80.0160  223.0130 C   0  0  0  0  0  0  0  0  0  0  0  0
  140.8890   80.4880  223.8530 C   0  0  0  0  0  0  0  0  0  0  0  0
  142.2020   80.1440  223.5870 C   0  0  0  0  0  0  0  0  0  0  0  0
  142.5510   79.3390  222.5050 C   0  0  0  0  0  0  0  0  0  0  0  0
  140.1810   71.5410  223.4240 C   0  0  0  0  0  0  0  0  0  0  0  0
  139.3890   70.4010  223.3040 C   0  0  0  0  0  0  0  0  0  0  0  0
  139.1510   69.6490  224.4230 C   0  0  0  0  0  0  0  0  0  0  0  0
  139.6780   70.0060  225.6440 C   0  0  0  0  0  0  0  0  0  0  0  0
  139.4390   69.2460  226.7830 C   0  0  0  0  0  0  0  0  0  0  0  0
  139.9960   69.6520  227.9890 C   0  0  0  0  0  0  0  0  0  0  0  0
  139.7560   68.9040  229.0960 F   0  0  0  0  0  0  0  0  0  0  0  0
  140.7780   70.7890  228.0810 C   0  0  0  0  0  0  0  0  0  0  0  0
  140.9910   71.5090  226.9370 C   0  0  0  0  0  0  0  0  0  0  0  0
  140.4650   71.1580  225.7070 C   0  0  0  0  0  0  0  0  0  0  0  0
  140.7040   71.9030  224.6120 N   0  0  0  0  0  0  0  0  0  0  0  0
  139.5920   74.0900  223.0960 H   0  0  0  0  0  0  0  0  0  0  0  0
  141.0279   74.0942  220.4303 H   0  0  0  0  0  0  0  0  0  0  0  0
  139.2987   74.6208  220.5027 H   0  0  0  0  0  0  0  0  0  0  0  0
  142.8642   75.7644  219.2723 H   0  0  0  0  0  0  0  0  0  0  0  0
  141.1907   75.4442  218.7888 H   0  0  0  0  0  0  0  0  0  0  0  0
  141.3854   77.2777  217.3489 H   0  0  0  0  0  0  0  0  0  0  0  0
  143.3250   78.4740  217.3860 H   0  0  0  0  0  0  0  0  0  0  0  0
  141.7137   79.5236  218.9315 H   0  0  0  0  0  0  0  0  0  0  0  0
  140.2431   78.6550  219.1654 H   0  0  0  0  0  0  0  0  0  0  0  0
  142.9815   78.1264  220.6519 H   0  0  0  0  0  0  0  0  0  0  0  0
  139.4244   78.8289  221.2586 H   0  0  0  0  0  0  0  0  0  0  0  0
  138.8232   80.2780  223.2060 H   0  0  0  0  0  0  0  0  0  0  0  0
  140.6452   81.1257  224.7155 H   0  0  0  0  0  0  0  0  0  0  0  0
  142.9956   80.5178  224.2507 H   0  0  0  0  0  0  0  0  0  0  0  0
  143.6010   79.0760  222.3093 H   0  0  0  0  0  0  0  0  0  0  0  0
  138.9643   70.1115  222.3315 H   0  0  0  0  0  0  0  0  0  0  0  0
  138.5288   68.7452  224.3454 H   0  0  0  0  0  0  0  0  0  0  0  0
  138.8194   68.3386  226.7303 H   0  0  0  0  0  0  0  0  0  0  0  0
  141.2137   71.1037  229.0407 H   0  0  0  0  0  0  0  0  0  0  0  0
  141.6130   72.4141  226.9989 H   0  0  0  0  0  0  0  0  0  0  0  0
  1  2  2  0
  2  3  1  0
  3  4  1  0
  4  5  1  0
  5  6  2  0
  5  7  1  0
  7  8  1  0
  8  9  1  0
  9 10  1  0
  9 11  1  0
 11 12  1  0
 12 13  1  0
 13 14  2  0
 14 15  1  0
 15 16  2  0
 16 17  1  0
 17 18  2  0
  2 19  1  0
 19 20  2  0
 20 21  1  0
 21 22  2  0
 22 23  1  0
 23 24  2  0
 24 25  1  0
 24 26  1  0
 26 27  2  0
 27 28  1  0
 28 29  2  0
 12  7  1  0
 18 13  1  0
 29 19  1  0
 28 22  1  0
  3 30  1  0
  4 31  1  0
  4 32  1  0
  8 33  1  0
  8 34  1  0
  9 35  1  6
 10 36  1  0
 11 37  1  0
 11 38  1  0
 12 39  1  6
 14 40  1  0
 15 41  1  0
 16 42  1  0
 17 43  1  0
 18 44  1  0
 20 45  1  0
 21 46  1  0
 23 47  1  0
 26 48  1  0
 27 49  1  0
M  END
>  <meeko>  (18) 
{"free_energy": -8.58, "intermolecular_energy": -10.37, "internal_energy": -1.61, "cluster_size": 11, "cluster_id": 1, "rank_in_cluster": 11}

$$$$

     RDKit          3D

 49 52  0  0  0  0  0  0  0  0999 V2000
  140.7930   71.8180  221.1700 O   0  0  0  0  0  0  0  0  0  0  0  0
  140.3340   72.3100  222.2400 C   0  0  0  0  0  0  0  0  0  0  0  0
  139.9510   73.6900  222.3270 N   0  0  0  0  0  0  0  0  0  0  0  0
  140.0860   74.5550  221.1760 C   0  0  0  0  0  0  0  0  0  0  0  0
  140.6100   75.8990  221.5690 C   0  0  0  0  0  0  0  0  0  0  0  0
  140.3120   76.2860  222.7260 O   0  0  0  0  0  0  0  0  0  0  0  0
  141.3840   76.6240  220.6410 N   0  0  0  0  0  0  0  0  0  0  0  0
  141.8650   76.0900  219.3390 C   0  0  0  0  0  0  0  0  0  0  0  0
  141.9590   77.2700  218.4160 C   0  0  2  0  0  0  0  0  0  0  0  0
  143.3180   77.5790  218.2170 O   0  0  0  0  0  0  0  0  0  0  0  0
  141.3880   78.4130  219.2660 C   0  0  0  0  0  0  0  0  0  0  0  0
  141.8980   77.9700  220.6240 C   0  0  1  0  0  0  0  0  0  0  0  0
  141.5220   78.8360  221.7270 C   0  0  0  0  0  0  0  0  0  0  0  0
  142.4570   79.2890  222.6260 C   0  0  0  0  0  0  0  0  0  0  0  0
  142.0820   80.1060  223.6990 C   0  0  0  0  0  0  0  0  0  0  0  0
  140.7370   80.4620  223.8450 C   0  0  0  0  0  0  0  0  0  0  0  0
  139.8110   79.9970  222.9280 C   0  0  0  0  0  0  0  0  0  0  0  0
  140.1740   79.1820  221.8580 C   0  0  0  0  0  0  0  0  0  0  0  0
  140.1720   71.4780  223.4500 C   0  0  0  0  0  0  0  0  0  0  0  0
  139.5200   70.2540  223.3110 C   0  0  0  0  0  0  0  0  0  0  0  0
  139.3600   69.4680  224.4190 C   0  0  0  0  0  0  0  0  0  0  0  0
  139.8290   69.8710  225.6500 C   0  0  0  0  0  0  0  0  0  0  0  0
  139.6690   69.0760  226.7790 C   0  0  0  0  0  0  0  0  0  0  0  0
  140.1630   69.5320  227.9950 C   0  0  0  0  0  0  0  0  0  0  0  0
  140.0010   68.7500  229.0920 F   0  0  0  0  0  0  0  0  0  0  0  0
  140.8060   70.7510  228.1060 C   0  0  0  0  0  0  0  0  0  0  0  0
  140.9440   71.5030  226.9720 C   0  0  0  0  0  0  0  0  0  0  0  0
  140.4750   71.1070  225.7330 C   0  0  0  0  0  0  0  0  0  0  0  0
  140.6370   71.8860  224.6470 N   0  0  0  0  0  0  0  0  0  0  0  0
  139.5760   74.0380  223.2420 H   0  0  0  0  0  0  0  0  0  0  0  0
  140.7821   74.0937  220.4600 H   0  0  0  0  0  0  0  0  0  0  0  0
  139.0933   74.6873  220.7210 H   0  0  0  0  0  0  0  0  0  0  0  0
  142.8522   75.6201  219.4601 H   0  0  0  0  0  0  0  0  0  0  0  0
  141.1842   75.3222  218.9427 H   0  0  0  0  0  0  0  0  0  0  0  0
  141.4601   77.1025  217.4500 H   0  0  0  0  0  0  0  0  0  0  0  0
  143.7330   77.9000  219.0570 H   0  0  0  0  0  0  0  0  0  0  0  0
  141.7955   79.3911  218.9705 H   0  0  0  0  0  0  0  0  0  0  0  0
  140.3006   78.5619  219.1926 H   0  0  0  0  0  0  0  0  0  0  0  0
  142.9876   78.0222  220.7657 H   0  0  0  0  0  0  0  0  0  0  0  0
  143.5127   79.0063  222.5011 H   0  0  0  0  0  0  0  0  0  0  0  0
  142.8345   80.4632  224.4175 H   0  0  0  0  0  0  0  0  0  0  0  0
  140.4191   81.1044  224.6794 H   0  0  0  0  0  0  0  0  0  0  0  0
  138.7547   80.2798  223.0476 H   0  0  0  0  0  0  0  0  0  0  0  0
  139.4234   78.8221  221.1389 H   0  0  0  0  0  0  0  0  0  0  0  0
  139.1421   69.9270  222.3311 H   0  0  0  0  0  0  0  0  0  0  0  0
  138.8486   68.4986  224.3256 H   0  0  0  0  0  0  0  0  0  0  0  0
  139.1603   68.1031  226.7110 H   0  0  0  0  0  0  0  0  0  0  0  0
  141.1933   71.1039  229.0732 H   0  0  0  0  0  0  0  0  0  0  0  0
  141.4550   72.4740  227.0497 H   0  0  0  0  0  0  0  0  0  0  0  0
  1  2  2  0
  2  3  1  0
  3  4  1  0
  4  5  1  0
  5  6  2  0
  5  7  1  0
  7  8  1  0
  8  9  1  0
  9 10  1  0
  9 11  1  0
 11 12  1  0
 12 13  1  0
 13 14  2  0
 14 15  1  0
 15 16  2  0
 16 17  1  0
 17 18  2  0
  2 19  1  0
 19 20  2  0
 20 21  1  0
 21 22  2  0
 22 23  1  0
 23 24  2  0
 24 25  1  0
 24 26  1  0
 26 27  2  0
 27 28  1  0
 28 29  2  0
 12  7  1  0
 18 13  1  0
 29 19  1  0
 28 22  1  0
  3 30  1  0
  4 31  1  0
  4 32  1  0
  8 33  1  0
  8 34  1  0
  9 35  1  6
 10 36  1  0
 11 37  1  0
 11 38  1  0
 12 39  1  6
 14 40  1  0
 15 41  1  0
 16 42  1  0
 17 43  1  0
 18 44  1  0
 20 45  1  0
 21 46  1  0
 23 47  1  0
 26 48  1  0
 27 49  1  0
M  END
>  <meeko>  (19) 
{"free_energy": -8.84, "intermolecular_energy": -10.63, "internal_energy": -1.61, "cluster_size": 11, "cluster_id": 1, "rank_in_cluster": 3}

$$$$

     RDKit          3D

 49 52  0  0  0  0  0  0  0  0999 V2000
  140.8470   71.8140  221.1980 O   0  0  0  0  0  0  0  0  0  0  0  0
  140.3610   72.3070  222.2550 C   0  0  0  0  0  0  0  0  0  0  0  0
  139.9600   73.6820  222.3260 N   0  0  0  0  0  0  0  0  0  0  0  0
  140.1080   74.5420  221.1730 C   0  0  0  0  0  0  0  0  0  0  0  0
  140.5850   75.9020  221.5700 C   0  0  0  0  0  0  0  0  0  0  0  0
  140.2490   76.2860  222.7170 O   0  0  0  0  0  0  0  0  0  0  0  0
  141.3620   76.6430  220.6560 N   0  0  0  0  0  0  0  0  0  0  0  0
  141.8830   76.1170  219.3670 C   0  0  0  0  0  0  0  0  0  0  0  0
  141.9690   77.2970  218.4430 C   0  0  2  0  0  0  0  0  0  0  0  0
  143.3250   77.6370  218.2720 O   0  0  0  0  0  0  0  0  0  0  0  0
  141.3550   78.4280  219.2780 C   0  0  0  0  0  0  0  0  0  0  0  0
  141.8460   78.0000  220.6480 C   0  0  1  0  0  0  0  0  0  0  0  0
  141.4270   78.8590  221.7400 C   0  0  0  0  0  0  0  0  0  0  0  0
  142.3240   79.2980  222.6840 C   0  0  0  0  0  0  0  0  0  0  0  0
  141.9080   80.1090  223.7460 C   0  0  0  0  0  0  0  0  0  0  0  0
  140.5600   80.4720  223.8350 C   0  0  0  0  0  0  0  0  0  0  0  0
  139.6720   80.0220  222.8750 C   0  0  0  0  0  0  0  0  0  0  0  0
  140.0770   79.2130  221.8150 C   0  0  0  0  0  0  0  0  0  0  0  0
  140.1840   71.4790  223.4670 C   0  0  0  0  0  0  0  0  0  0  0  0
  139.5470   70.2490  223.3230 C   0  0  0  0  0  0  0  0  0  0  0  0
  139.3730   69.4680  224.4330 C   0  0  0  0  0  0  0  0  0  0  0  0
  139.8160   69.8820  225.6690 C   0  0  0  0  0  0  0  0  0  0  0  0
  139.6420   69.0930  226.8000 C   0  0  0  0  0  0  0  0  0  0  0  0
  140.1090   69.5610  228.0220 C   0  0  0  0  0  0  0  0  0  0  0  0
  139.9340   68.7830  229.1210 F   0  0  0  0  0  0  0  0  0  0  0  0
  140.7370   70.7860  228.1380 C   0  0  0  0  0  0  0  0  0  0  0  0
  140.8890   71.5330  227.0020 C   0  0  0  0  0  0  0  0  0  0  0  0
  140.4480   71.1250  225.7570 C   0  0  0  0  0  0  0  0  0  0  0  0
  140.6220   71.8990  224.6700 N   0  0  0  0  0  0  0  0  0  0  0  0
  139.5630   74.0310  223.2310 H   0  0  0  0  0  0  0  0  0  0  0  0
  140.8372   74.0936  220.4823 H   0  0  0  0  0  0  0  0  0  0  0  0
  139.1263   74.6454  220.6876 H   0  0  0  0  0  0  0  0  0  0  0  0
  142.8781   75.6707  219.5106 H   0  0  0  0  0  0  0  0  0  0  0  0
  141.2294   75.3322  218.9585 H   0  0  0  0  0  0  0  0  0  0  0  0
  141.4943   77.1160  217.4674 H   0  0  0  0  0  0  0  0  0  0  0  0
  143.7290   77.9180  219.1310 H   0  0  0  0  0  0  0  0  0  0  0  0
  141.7464   79.4144  218.9885 H   0  0  0  0  0  0  0  0  0  0  0  0
  140.2662   78.5517  219.1815 H   0  0  0  0  0  0  0  0  0  0  0  0
  142.9306   78.0775  220.8139 H   0  0  0  0  0  0  0  0  0  0  0  0
  143.3822   79.0083  222.6039 H   0  0  0  0  0  0  0  0  0  0  0  0
  142.6304   80.4559  224.4996 H   0  0  0  0  0  0  0  0  0  0  0  0
  140.2097   81.1091  224.6605 H   0  0  0  0  0  0  0  0  0  0  0  0
  138.6135   80.3116  222.9504 H   0  0  0  0  0  0  0  0  0  0  0  0
  139.3565   78.8638  221.0607 H   0  0  0  0  0  0  0  0  0  0  0  0
  139.1913   69.9125  222.3380 H   0  0  0  0  0  0  0  0  0  0  0  0
  138.8712   68.4939  224.3362 H   0  0  0  0  0  0  0  0  0  0  0  0
  139.1433   68.1151  226.7288 H   0  0  0  0  0  0  0  0  0  0  0  0
  141.1022   71.1483  229.1103 H   0  0  0  0  0  0  0  0  0  0  0  0
  141.3884   72.5097  227.0836 H   0  0  0  0  0  0  0  0  0  0  0  0
  1  2  2  0
  2  3  1  0
  3  4  1  0
  4  5  1  0
  5  6  2  0
  5  7  1  0
  7  8  1  0
  8  9  1  0
  9 10  1  0
  9 11  1  0
 11 12  1  0
 12 13  1  0
 13 14  2  0
 14 15  1  0
 15 16  2  0
 16 17  1  0
 17 18  2  0
  2 19  1  0
 19 20  2  0
 20 21  1  0
 21 22  2  0
 22 23  1  0
 23 24  2  0
 24 25  1  0
 24 26  1  0
 26 27  2  0
 27 28  1  0
 28 29  2  0
 12  7  1  0
 18 13  1  0
 29 19  1  0
 28 22  1  0
  3 30  1  0
  4 31  1  0
  4 32  1  0
  8 33  1  0
  8 34  1  0
  9 35  1  6
 10 36  1  0
 11 37  1  0
 11 38  1  0
 12 39  1  6
 14 40  1  0
 15 41  1  0
 16 42  1  0
 17 43  1  0
 18 44  1  0
 20 45  1  0
 21 46  1  0
 23 47  1  0
 26 48  1  0
 27 49  1  0
M  END
>  <meeko>  (20) 
{"free_energy": -8.82, "intermolecular_energy": -10.61, "internal_energy": -1.63, "cluster_size": 11, "cluster_id": 1, "rank_in_cluster": 6}

$$$$
