
     RDKit          3D

 54 57  0  0  0  0  0  0  0  0999 V2000
  140.9710   72.7210  221.3940 O   0  0  0  0  0  0  0  0  0  0  0  0
  140.0660   72.6870  222.2650 C   0  0  0  0  0  0  0  0  0  0  0  0
  138.9830   73.6100  222.2470 N   0  0  0  0  0  0  0  0  0  0  0  0
  138.9030   74.6380  221.1920 C   0  0  0  0  0  0  0  0  0  0  0  0
  139.5600   75.8760  221.6140 C   0  0  0  0  0  0  0  0  0  0  0  0
  138.9170   76.6010  222.4580 O   0  0  0  0  0  0  0  0  0  0  0  0
  140.8080   76.3660  221.2090 N   0  0  0  0  0  0  0  0  0  0  0  0
  141.8080   75.4770  220.5660 C   0  0  0  0  0  0  0  0  0  0  0  0
  142.2880   76.3920  219.4440 C   0  0  2  0  0  0  0  0  0  0  0  0
  143.6570   76.3990  219.3160 O   0  0  0  0  0  0  0  0  0  0  0  0
  141.8200   77.7920  219.7830 C   0  0  0  0  0  0  0  0  0  0  0  0
  141.4590   77.6440  221.2510 C   0  0  1  0  0  0  0  0  0  0  0  0
  140.6880   78.7850  221.7840 C   0  0  0  0  0  0  0  0  0  0  0  0
  141.6710   79.8610  222.0230 N   0  0  0  0  0  0  0  0  0  0  0  0
  141.0400   81.0050  222.6310 C   0  0  0  0  0  0  0  0  0  0  0  0
  141.8610   81.4280  223.8190 C   0  0  0  0  0  0  0  0  0  0  0  0
  143.1000   80.5650  223.7810 C   0  0  0  0  0  0  0  0  0  0  0  0
  142.7270   79.4220  222.8730 C   0  0  0  0  0  0  0  0  0  0  0  0
  140.0770   71.6880  223.3500 C   0  0  0  0  0  0  0  0  0  0  0  0
  139.5720   70.4160  223.0560 C   0  0  0  0  0  0  0  0  0  0  0  0
  139.5970   69.5000  224.0960 C   0  0  0  0  0  0  0  0  0  0  0  0
  140.0770   69.7840  225.3440 C   0  0  0  0  0  0  0  0  0  0  0  0
  140.0890   68.8400  226.3730 C   0  0  0  0  0  0  0  0  0  0  0  0
  140.6020   69.2590  227.5880 C   0  0  0  0  0  0  0  0  0  0  0  0
  140.6560   68.1380  228.9350 Cl  0  0  0  0  0  0  0  0  0  0  0  0
  141.0840   70.5320  227.8040 C   0  0  0  0  0  0  0  0  0  0  0  0
  141.0700   71.4660  226.7830 C   0  0  0  0  0  0  0  0  0  0  0  0
  140.5600   71.0560  225.5680 C   0  0  0  0  0  0  0  0  0  0  0  0
  140.5440   71.9590  224.5700 N   0  0  0  0  0  0  0  0  0  0  0  0
  138.2290   73.5690  222.9850 H   0  0  0  0  0  0  0  0  0  0  0  0
  139.3962   74.2606  220.2841 H   0  0  0  0  0  0  0  0  0  0  0  0
  137.8429   74.8543  220.9936 H   0  0  0  0  0  0  0  0  0  0  0  0
  142.6235   75.2131  221.2554 H   0  0  0  0  0  0  0  0  0  0  0  0
  141.4192   74.5022  220.2363 H   0  0  0  0  0  0  0  0  0  0  0  0
  141.8783   76.0290  218.4898 H   0  0  0  0  0  0  0  0  0  0  0  0
  144.0870   77.1450  219.7980 H   0  0  0  0  0  0  0  0  0  0  0  0
  142.6230   78.5299  219.6392 H   0  0  0  0  0  0  0  0  0  0  0  0
  140.9943   78.1536  219.1526 H   0  0  0  0  0  0  0  0  0  0  0  0
  142.2928   77.6672  221.9681 H   0  0  0  0  0  0  0  0  0  0  0  0
  139.9333   79.1115  221.0534 H   0  0  0  0  0  0  0  0  0  0  0  0
  140.1523   78.5151  222.7060 H   0  0  0  0  0  0  0  0  0  0  0  0
  140.9867   81.8291  221.9044 H   0  0  0  0  0  0  0  0  0  0  0  0
  140.0196   80.7470  222.9507 H   0  0  0  0  0  0  0  0  0  0  0  0
  142.1307   82.4916  223.7409 H   0  0  0  0  0  0  0  0  0  0  0  0
  141.3075   81.3062  224.7618 H   0  0  0  0  0  0  0  0  0  0  0  0
  143.9535   81.1256  223.3719 H   0  0  0  0  0  0  0  0  0  0  0  0
  143.4076   80.2254  224.7810 H   0  0  0  0  0  0  0  0  0  0  0  0
  143.5964   79.1280  222.2667 H   0  0  0  0  0  0  0  0  0  0  0  0
  142.4044   78.5531  223.4654 H   0  0  0  0  0  0  0  0  0  0  0  0
  139.1795   70.1592  222.0610 H   0  0  0  0  0  0  0  0  0  0  0  0
  139.2090   68.4883  223.9065 H   0  0  0  0  0  0  0  0  0  0  0  0
  139.7108   67.8176  226.2256 H   0  0  0  0  0  0  0  0  0  0  0  0
  141.4815   70.8067  228.7922 H   0  0  0  0  0  0  0  0  0  0  0  0
  141.4480   72.4881  226.9330 H   0  0  0  0  0  0  0  0  0  0  0  0
  1  2  2  0
  2  3  1  0
  3  4  1  0
  4  5  1  0
  5  6  2  0
  5  7  1  0
  7  8  1  0
  8  9  1  0
  9 10  1  0
  9 11  1  0
 11 12  1  0
 12 13  1  0
 13 14  1  0
 14 15  1  0
 15 16  1  0
 16 17  1  0
 17 18  1  0
  2 19  1  0
 19 20  2  0
 20 21  1  0
 21 22  2  0
 22 23  1  0
 23 24  2  0
 24 25  1  0
 24 26  1  0
 26 27  2  0
 27 28  1  0
 28 29  2  0
 12  7  1  0
 18 14  1  0
 29 19  1  0
 28 22  1  0
  3 30  1  0
  4 31  1  0
  4 32  1  0
  8 33  1  0
  8 34  1  0
  9 35  1  6
 10 36  1  0
 11 37  1  0
 11 38  1  0
 12 39  1  1
 13 40  1  0
 13 41  1  0
 15 42  1  0
 15 43  1  0
 16 44  1  0
 16 45  1  0
 17 46  1  0
 17 47  1  0
 18 48  1  0
 18 49  1  0
 20 50  1  0
 21 51  1  0
 23 52  1  0
 26 53  1  0
 27 54  1  0
M  END
>  <meeko>  (1) 
{"free_energy": -8.96, "intermolecular_energy": -11.05, "internal_energy": -1.3, "cluster_size": 18, "cluster_id": 1, "rank_in_cluster": 1}

$$$$

     RDKit          3D

 54 57  0  0  0  0  0  0  0  0999 V2000
  140.6370   72.4810  220.7300 O   0  0  0  0  0  0  0  0  0  0  0  0
  140.2520   72.8410  221.8700 C   0  0  0  0  0  0  0  0  0  0  0  0
  139.8830   74.1890  222.1380 N   0  0  0  0  0  0  0  0  0  0  0  0
  139.9480   75.2020  221.0670 C   0  0  0  0  0  0  0  0  0  0  0  0
  141.3140   75.6980  220.8950 C   0  0  0  0  0  0  0  0  0  0  0  0
  142.2580   74.8670  221.1550 O   0  0  0  0  0  0  0  0  0  0  0  0
  141.7170   76.9730  220.4770 N   0  0  0  0  0  0  0  0  0  0  0  0
  142.7170   77.1440  219.3940 C   0  0  0  0  0  0  0  0  0  0  0  0
  142.0590   78.2710  218.6050 C   0  0  2  0  0  0  0  0  0  0  0  0
  142.9490   79.2570  218.2480 O   0  0  0  0  0  0  0  0  0  0  0  0
  140.9940   78.8730  219.4980 C   0  0  0  0  0  0  0  0  0  0  0  0
  141.3860   78.3170  220.8560 C   0  0  1  0  0  0  0  0  0  0  0  0
  140.3460   78.4980  221.8880 C   0  0  0  0  0  0  0  0  0  0  0  0
  141.0350   79.0750  223.0600 N   0  0  0  0  0  0  0  0  0  0  0  0
  142.4640   79.0550  222.8740 C   0  0  0  0  0  0  0  0  0  0  0  0
  143.0080   80.4180  223.2020 C   0  0  0  0  0  0  0  0  0  0  0  0
  141.8350   81.2000  223.7470 C   0  0  0  0  0  0  0  0  0  0  0  0
  140.6290   80.4200  223.2930 C   0  0  0  0  0  0  0  0  0  0  0  0
  140.1610   71.8860  222.9900 C   0  0  0  0  0  0  0  0  0  0  0  0
  139.5550   70.6520  222.7330 C   0  0  0  0  0  0  0  0  0  0  0  0
  139.4840   69.7770  223.8060 C   0  0  0  0  0  0  0  0  0  0  0  0
  139.9680   70.0650  225.0520 C   0  0  0  0  0  0  0  0  0  0  0  0
  139.8840   69.1640  226.1150 C   0  0  0  0  0  0  0  0  0  0  0  0
  140.4120   69.5830  227.3230 C   0  0  0  0  0  0  0  0  0  0  0  0
  140.3490   68.5130  228.7100 Cl  0  0  0  0  0  0  0  0  0  0  0  0
  140.9980   70.8180  227.5010 C   0  0  0  0  0  0  0  0  0  0  0  0
  141.0790   71.7100  226.4470 C   0  0  0  0  0  0  0  0  0  0  0  0
  140.5550   71.3000  225.2390 C   0  0  0  0  0  0  0  0  0  0  0  0
  140.6310   72.1630  224.2080 N   0  0  0  0  0  0  0  0  0  0  0  0
  139.5620   74.4780  223.1010 H   0  0  0  0  0  0  0  0  0  0  0  0
  139.6082   74.7500  220.1235 H   0  0  0  0  0  0  0  0  0  0  0  0
  139.3012   76.0472  221.3450 H   0  0  0  0  0  0  0  0  0  0  0  0
  143.6999   77.4411  219.7885 H   0  0  0  0  0  0  0  0  0  0  0  0
  142.9324   76.2350  218.8132 H   0  0  0  0  0  0  0  0  0  0  0  0
  141.6460   77.8581  217.6728 H   0  0  0  0  0  0  0  0  0  0  0  0
  143.5030   79.0130  217.4680 H   0  0  0  0  0  0  0  0  0  0  0  0
  141.0349   79.9722  219.4870 H   0  0  0  0  0  0  0  0  0  0  0  0
  139.9650   78.6300  219.1945 H   0  0  0  0  0  0  0  0  0  0  0  0
  142.2133   78.8232  221.3750 H   0  0  0  0  0  0  0  0  0  0  0  0
  139.5646   79.1834  221.5278 H   0  0  0  0  0  0  0  0  0  0  0  0
  139.8539   77.5462  222.1369 H   0  0  0  0  0  0  0  0  0  0  0  0
  142.9144   78.3055  223.5413 H   0  0  0  0  0  0  0  0  0  0  0  0
  142.7045   78.7942  221.8328 H   0  0  0  0  0  0  0  0  0  0  0  0
  143.8042   80.3427  223.9573 H   0  0  0  0  0  0  0  0  0  0  0  0
  143.4487   80.9049  222.3196 H   0  0  0  0  0  0  0  0  0  0  0  0
  141.8762   81.2508  224.8450 H   0  0  0  0  0  0  0  0  0  0  0  0
  141.8214   82.2414  223.3929 H   0  0  0  0  0  0  0  0  0  0  0  0
  139.8531   80.4457  224.0723 H   0  0  0  0  0  0  0  0  0  0  0  0
  140.2154   80.8584  222.3728 H   0  0  0  0  0  0  0  0  0  0  0  0
  139.1590   70.3917  221.7403 H   0  0  0  0  0  0  0  0  0  0  0  0
  139.0120   68.7964  223.6461 H   0  0  0  0  0  0  0  0  0  0  0  0
  139.4220   68.1726  225.9981 H   0  0  0  0  0  0  0  0  0  0  0  0
  141.4029   71.0953  228.4855 H   0  0  0  0  0  0  0  0  0  0  0  0
  141.5404   72.7013  226.5669 H   0  0  0  0  0  0  0  0  0  0  0  0
  1  2  2  0
  2  3  1  0
  3  4  1  0
  4  5  1  0
  5  6  2  0
  5  7  1  0
  7  8  1  0
  8  9  1  0
  9 10  1  0
  9 11  1  0
 11 12  1  0
 12 13  1  0
 13 14  1  0
 14 15  1  0
 15 16  1  0
 16 17  1  0
 17 18  1  0
  2 19  1  0
 19 20  2  0
 20 21  1  0
 21 22  2  0
 22 23  1  0
 23 24  2  0
 24 25  1  0
 24 26  1  0
 26 27  2  0
 27 28  1  0
 28 29  2  0
 12  7  1  0
 18 14  1  0
 29 19  1  0
 28 22  1  0
  3 30  1  0
  4 31  1  0
  4 32  1  0
  8 33  1  0
  8 34  1  0
  9 35  1  6
 10 36  1  0
 11 37  1  0
 11 38  1  0
 12 39  1  1
 13 40  1  0
 13 41  1  0
 15 42  1  0
 15 43  1  0
 16 44  1  0
 16 45  1  0
 17 46  1  0
 17 47  1  0
 18 48  1  0
 18 49  1  0
 20 50  1  0
 21 51  1  0
 23 52  1  0
 26 53  1  0
 27 54  1  0
M  END
>  <meeko>  (2) 
{"free_energy": -8.7, "intermolecular_energy": -10.79, "internal_energy": -1.42, "cluster_size": 18, "cluster_id": 1, "rank_in_cluster": 3}

$$$$

     RDKit          3D

 54 57  0  0  0  0  0  0  0  0999 V2000
  139.3400   72.6230  220.4510 O   0  0  0  0  0  0  0  0  0  0  0  0
  139.8850   72.9110  221.5460 C   0  0  0  0  0  0  0  0  0  0  0  0
  140.5220   74.1670  221.7520 N   0  0  0  0  0  0  0  0  0  0  0  0
  140.5550   75.1660  220.6680 C   0  0  0  0  0  0  0  0  0  0  0  0
  141.0670   76.4500  221.1500 C   0  0  0  0  0  0  0  0  0  0  0  0
  141.0820   76.6120  222.4250 O   0  0  0  0  0  0  0  0  0  0  0  0
  141.5460   77.5240  220.3890 N   0  0  0  0  0  0  0  0  0  0  0  0
  142.6270   77.3320  219.3900 C   0  0  0  0  0  0  0  0  0  0  0  0
  142.0690   78.1640  218.2390 C   0  0  2  0  0  0  0  0  0  0  0  0
  143.0180   78.9750  217.6640 O   0  0  0  0  0  0  0  0  0  0  0  0
  140.9660   79.0290  218.8110 C   0  0  0  0  0  0  0  0  0  0  0  0
  141.2390   78.9230  220.3020 C   0  0  1  0  0  0  0  0  0  0  0  0
  140.1350   79.4320  221.1400 C   0  0  0  0  0  0  0  0  0  0  0  0
  140.7740   80.1960  222.2300 N   0  0  0  0  0  0  0  0  0  0  0  0
  140.7730   79.4380  223.4550 C   0  0  0  0  0  0  0  0  0  0  0  0
  142.1590   79.4680  224.0380 C   0  0  0  0  0  0  0  0  0  0  0  0
  142.9420   80.4230  223.1670 C   0  0  0  0  0  0  0  0  0  0  0  0
  142.1210   80.5330  221.9090 C   0  0  0  0  0  0  0  0  0  0  0  0
  139.8920   71.9630  222.6760 C   0  0  0  0  0  0  0  0  0  0  0  0
  139.2910   70.7160  222.4720 C   0  0  0  0  0  0  0  0  0  0  0  0
  139.3140   69.8490  223.5520 C   0  0  0  0  0  0  0  0  0  0  0  0
  139.8810   70.1550  224.7580 C   0  0  0  0  0  0  0  0  0  0  0  0
  139.8900   69.2610  225.8300 C   0  0  0  0  0  0  0  0  0  0  0  0
  140.4960   69.6980  226.9940 C   0  0  0  0  0  0  0  0  0  0  0  0
  140.5520   68.6380  228.3890 Cl  0  0  0  0  0  0  0  0  0  0  0  0
  141.0710   70.9450  227.1220 C   0  0  0  0  0  0  0  0  0  0  0  0
  141.0600   71.8300  226.0580 C   0  0  0  0  0  0  0  0  0  0  0  0
  140.4580   71.4010  224.8940 C   0  0  0  0  0  0  0  0  0  0  0  0
  140.4440   72.2570  223.8550 N   0  0  0  0  0  0  0  0  0  0  0  0
  140.9760   74.3950  222.6770 H   0  0  0  0  0  0  0  0  0  0  0  0
  141.2067   74.7994  219.8613 H   0  0  0  0  0  0  0  0  0  0  0  0
  139.5295   75.3151  220.2990 H   0  0  0  0  0  0  0  0  0  0  0  0
  143.5899   77.7244  219.7489 H   0  0  0  0  0  0  0  0  0  0  0  0
  142.8491   76.2838  219.1410 H   0  0  0  0  0  0  0  0  0  0  0  0
  141.7080   77.4850  217.4525 H   0  0  0  0  0  0  0  0  0  0  0  0
  143.3320   78.6440  216.7890 H   0  0  0  0  0  0  0  0  0  0  0  0
  141.0481   80.0684  218.4605 H   0  0  0  0  0  0  0  0  0  0  0  0
  139.9532   78.7159  218.5175 H   0  0  0  0  0  0  0  0  0  0  0  0
  142.0451   79.5563  220.7009 H   0  0  0  0  0  0  0  0  0  0  0  0
  139.4763   80.0858  220.5495 H   0  0  0  0  0  0  0  0  0  0  0  0
  139.5137   78.6128  221.5311 H   0  0  0  0  0  0  0  0  0  0  0  0
  140.0619   79.8837  224.1662 H   0  0  0  0  0  0  0  0  0  0  0  0
  140.4718   78.3993  223.2543 H   0  0  0  0  0  0  0  0  0  0  0  0
  142.1316   79.8292  225.0766 H   0  0  0  0  0  0  0  0  0  0  0  0
  142.6149   78.4672  224.0591 H   0  0  0  0  0  0  0  0  0  0  0  0
  143.0416   81.4038  223.6550 H   0  0  0  0  0  0  0  0  0  0  0  0
  143.9664   80.0726  222.9725 H   0  0  0  0  0  0  0  0  0  0  0  0
  142.1663   81.5620  221.5227 H   0  0  0  0  0  0  0  0  0  0  0  0
  142.5113   79.8525  221.1379 H   0  0  0  0  0  0  0  0  0  0  0  0
  138.8285   70.4410  221.5126 H   0  0  0  0  0  0  0  0  0  0  0  0
  138.8501   68.8588  223.4328 H   0  0  0  0  0  0  0  0  0  0  0  0
  139.4386   68.2609  225.7531 H   0  0  0  0  0  0  0  0  0  0  0  0
  141.5400   71.2372  228.0731 H   0  0  0  0  0  0  0  0  0  0  0  0
  141.5110   72.8302  226.1373 H   0  0  0  0  0  0  0  0  0  0  0  0
  1  2  2  0
  2  3  1  0
  3  4  1  0
  4  5  1  0
  5  6  2  0
  5  7  1  0
  7  8  1  0
  8  9  1  0
  9 10  1  0
  9 11  1  0
 11 12  1  0
 12 13  1  0
 13 14  1  0
 14 15  1  0
 15 16  1  0
 16 17  1  0
 17 18  1  0
  2 19  1  0
 19 20  2  0
 20 21  1  0
 21 22  2  0
 22 23  1  0
 23 24  2  0
 24 25  1  0
 24 26  1  0
 26 27  2  0
 27 28  1  0
 28 29  2  0
 12  7  1  0
 18 14  1  0
 29 19  1  0
 28 22  1  0
  3 30  1  0
  4 31  1  0
  4 32  1  0
  8 33  1  0
  8 34  1  0
  9 35  1  6
 10 36  1  0
 11 37  1  0
 11 38  1  0
 12 39  1  6
 13 40  1  0
 13 41  1  0
 15 42  1  0
 15 43  1  0
 16 44  1  0
 16 45  1  0
 17 46  1  0
 17 47  1  0
 18 48  1  0
 18 49  1  0
 20 50  1  0
 21 51  1  0
 23 52  1  0
 26 53  1  0
 27 54  1  0
M  END
>  <meeko>  (3) 
{"free_energy": -7.66, "intermolecular_energy": -9.74, "internal_energy": -2.28, "cluster_size": 18, "cluster_id": 1, "rank_in_cluster": 18}

$$$$

     RDKit          3D

 54 57  0  0  0  0  0  0  0  0999 V2000
  140.3520   72.6000  220.6210 O   0  0  0  0  0  0  0  0  0  0  0  0
  140.0820   72.9570  221.7950 C   0  0  0  0  0  0  0  0  0  0  0  0
  139.8210   74.3180  222.1160 N   0  0  0  0  0  0  0  0  0  0  0  0
  139.8660   75.3490  221.0620 C   0  0  0  0  0  0  0  0  0  0  0  0
  140.6950   76.4840  221.4710 C   0  0  0  0  0  0  0  0  0  0  0  0
  140.7190   76.7450  222.7280 O   0  0  0  0  0  0  0  0  0  0  0  0
  141.4690   77.3190  220.6540 N   0  0  0  0  0  0  0  0  0  0  0  0
  142.4640   76.7560  219.7080 C   0  0  0  0  0  0  0  0  0  0  0  0
  142.1800   77.6220  218.4850 C   0  0  2  0  0  0  0  0  0  0  0  0
  143.3280   78.0880  217.8890 O   0  0  0  0  0  0  0  0  0  0  0  0
  141.3600   78.8040  218.9590 C   0  0  0  0  0  0  0  0  0  0  0  0
  141.5720   78.7370  220.4620 C   0  0  1  0  0  0  0  0  0  0  0  0
  140.6470   79.5980  221.2250 C   0  0  0  0  0  0  0  0  0  0  0  0
  141.2000   79.6730  222.5930 N   0  0  0  0  0  0  0  0  0  0  0  0
  142.6150   79.4050  222.5870 C   0  0  0  0  0  0  0  0  0  0  0  0
  143.3080   80.4810  223.3780 C   0  0  0  0  0  0  0  0  0  0  0  0
  142.2020   81.3120  223.9850 C   0  0  0  0  0  0  0  0  0  0  0  0
  140.9850   80.9580  223.1700 C   0  0  0  0  0  0  0  0  0  0  0  0
  140.0180   71.9830  222.9020 C   0  0  0  0  0  0  0  0  0  0  0  0
  139.3830   70.7630  222.6470 C   0  0  0  0  0  0  0  0  0  0  0  0
  139.3400   69.8700  223.7060 C   0  0  0  0  0  0  0  0  0  0  0  0
  139.8750   70.1290  224.9370 C   0  0  0  0  0  0  0  0  0  0  0  0
  139.8170   69.2100  225.9870 C   0  0  0  0  0  0  0  0  0  0  0  0
  140.3970   69.6000  227.1810 C   0  0  0  0  0  0  0  0  0  0  0  0
  140.3690   68.5070  228.5510 Cl  0  0  0  0  0  0  0  0  0  0  0  0
  141.0080   70.8230  227.3580 C   0  0  0  0  0  0  0  0  0  0  0  0
  141.0630   71.7320  226.3170 C   0  0  0  0  0  0  0  0  0  0  0  0
  140.4870   71.3510  225.1230 C   0  0  0  0  0  0  0  0  0  0  0  0
  140.5380   72.2310  224.1050 N   0  0  0  0  0  0  0  0  0  0  0  0
  139.5950   74.6040  223.1070 H   0  0  0  0  0  0  0  0  0  0  0  0
  140.2865   74.9084  220.1460 H   0  0  0  0  0  0  0  0  0  0  0  0
  138.8427   75.7102  220.8823 H   0  0  0  0  0  0  0  0  0  0  0  0
  143.4938   76.8872  220.0717 H   0  0  0  0  0  0  0  0  0  0  0  0
  142.3832   75.6721  219.5390 H   0  0  0  0  0  0  0  0  0  0  0  0
  141.6518   77.0149  217.7350 H   0  0  0  0  0  0  0  0  0  0  0  0
  143.1790   78.8940  217.3380 H   0  0  0  0  0  0  0  0  0  0  0  0
  141.7384   79.7488  218.5416 H   0  0  0  0  0  0  0  0  0  0  0  0
  140.3040   78.7686  218.6532 H   0  0  0  0  0  0  0  0  0  0  0  0
  142.5191   79.1451  220.8446 H   0  0  0  0  0  0  0  0  0  0  0  0
  140.5994   80.6010  220.7759 H   0  0  0  0  0  0  0  0  0  0  0  0
  139.6243   79.1929  221.2242 H   0  0  0  0  0  0  0  0  0  0  0  0
  142.8088   78.4241  223.0457 H   0  0  0  0  0  0  0  0  0  0  0  0
  142.9923   79.3946  221.5538 H   0  0  0  0  0  0  0  0  0  0  0  0
  143.9321   80.0364  224.1672 H   0  0  0  0  0  0  0  0  0  0  0  0
  143.9738   81.0871  222.7461 H   0  0  0  0  0  0  0  0  0  0  0  0
  142.0529   81.0502  225.0429 H   0  0  0  0  0  0  0  0  0  0  0  0
  142.4243   82.3891  223.9649 H   0  0  0  0  0  0  0  0  0  0  0  0
  140.0964   80.9324  223.8179 H   0  0  0  0  0  0  0  0  0  0  0  0
  140.8212   81.7081  222.3822 H   0  0  0  0  0  0  0  0  0  0  0  0
  138.9447   70.5269  221.6661 H   0  0  0  0  0  0  0  0  0  0  0  0
  138.8481   68.8990  223.5471 H   0  0  0  0  0  0  0  0  0  0  0  0
  139.3355   68.2278  225.8708 H   0  0  0  0  0  0  0  0  0  0  0  0
  141.4536   71.0770  228.3311 H   0  0  0  0  0  0  0  0  0  0  0  0
  141.5442   72.7140  226.4359 H   0  0  0  0  0  0  0  0  0  0  0  0
  1  2  2  0
  2  3  1  0
  3  4  1  0
  4  5  1  0
  5  6  2  0
  5  7  1  0
  7  8  1  0
  8  9  1  0
  9 10  1  0
  9 11  1  0
 11 12  1  0
 12 13  1  0
 13 14  1  0
 14 15  1  0
 15 16  1  0
 16 17  1  0
 17 18  1  0
  2 19  1  0
 19 20  2  0
 20 21  1  0
 21 22  2  0
 22 23  1  0
 23 24  2  0
 24 25  1  0
 24 26  1  0
 26 27  2  0
 27 28  1  0
 28 29  2  0
 12  7  1  0
 18 14  1  0
 29 19  1  0
 28 22  1  0
  3 30  1  0
  4 31  1  0
  4 32  1  0
  8 33  1  0
  8 34  1  0
  9 35  1  6
 10 36  1  0
 11 37  1  0
 11 38  1  0
 12 39  1  6
 13 40  1  0
 13 41  1  0
 15 42  1  0
 15 43  1  0
 16 44  1  0
 16 45  1  0
 17 46  1  0
 17 47  1  0
 18 48  1  0
 18 49  1  0
 20 50  1  0
 21 51  1  0
 23 52  1  0
 26 53  1  0
 27 54  1  0
M  END
>  <meeko>  (4) 
{"free_energy": -8.46, "intermolecular_energy": -10.55, "internal_energy": -1.73, "cluster_size": 18, "cluster_id": 1, "rank_in_cluster": 7}

$$$$

     RDKit          3D

 54 57  0  0  0  0  0  0  0  0999 V2000
  138.8600   73.9620  222.3400 O   0  0  0  0  0  0  0  0  0  0  0  0
  139.8450   74.6260  221.9310 C   0  0  0  0  0  0  0  0  0  0  0  0
  141.0110   73.9880  221.4230 N   0  0  0  0  0  0  0  0  0  0  0  0
  141.0860   72.5160  221.3690 C   0  0  0  0  0  0  0  0  0  0  0  0
  142.3770   72.0740  220.8390 C   0  0  0  0  0  0  0  0  0  0  0  0
  142.5730   70.8050  220.8060 O   0  0  0  0  0  0  0  0  0  0  0  0
  143.4260   72.8700  220.3600 N   0  0  0  0  0  0  0  0  0  0  0  0
  144.8210   72.6540  220.8180 C   0  0  0  0  0  0  0  0  0  0  0  0
  145.5540   72.7740  219.4850 C   0  0  2  0  0  0  0  0  0  0  0  0
  146.6820   73.5550  219.5710 O   0  0  0  0  0  0  0  0  0  0  0  0
  144.5910   73.4110  218.5050 C   0  0  0  0  0  0  0  0  0  0  0  0
  143.5300   73.9660  219.4390 C   0  0  1  0  0  0  0  0  0  0  0  0
  142.2990   74.3910  218.7440 C   0  0  0  0  0  0  0  0  0  0  0  0
  141.9680   75.7250  219.2870 N   0  0  0  0  0  0  0  0  0  0  0  0
  143.0970   76.6140  219.1830 C   0  0  0  0  0  0  0  0  0  0  0  0
  142.6320   77.9070  218.5710 C   0  0  0  0  0  0  0  0  0  0  0  0
  141.1300   77.7870  218.4670 C   0  0  0  0  0  0  0  0  0  0  0  0
  140.8680   76.3090  218.5960 C   0  0  0  0  0  0  0  0  0  0  0  0
  139.8430   76.1010  221.9530 C   0  0  0  0  0  0  0  0  0  0  0  0
  138.6020   76.7400  222.0520 C   0  0  0  0  0  0  0  0  0  0  0  0
  138.6340   78.1250  222.0700 C   0  0  0  0  0  0  0  0  0  0  0  0
  139.7870   78.8570  222.0000 C   0  0  0  0  0  0  0  0  0  0  0  0
  139.7890   80.2530  222.0210 C   0  0  0  0  0  0  0  0  0  0  0  0
  141.0250   80.8690  221.9430 C   0  0  0  0  0  0  0  0  0  0  0  0
  141.1200   82.6190  221.9630 Cl  0  0  0  0  0  0  0  0  0  0  0  0
  142.2110   80.1720  221.8480 C   0  0  0  0  0  0  0  0  0  0  0  0
  142.2060   78.7880  221.8270 C   0  0  0  0  0  0  0  0  0  0  0  0
  140.9770   78.1660  221.9050 C   0  0  0  0  0  0  0  0  0  0  0  0
  140.9650   76.8200  221.8850 N   0  0  0  0  0  0  0  0  0  0  0  0
  141.8310   74.5590  221.0820 H   0  0  0  0  0  0  0  0  0  0  0  0
  140.9568   72.1121  222.3840 H   0  0  0  0  0  0  0  0  0  0  0  0
  140.2907   72.1495  220.7034 H   0  0  0  0  0  0  0  0  0  0  0  0
  145.1414   73.4270  221.5320 H   0  0  0  0  0  0  0  0  0  0  0  0
  144.9921   71.7120  221.3597 H   0  0  0  0  0  0  0  0  0  0  0  0
  145.8794   71.7725  219.1670 H   0  0  0  0  0  0  0  0  0  0  0  0
  146.5000   74.5160  219.4360 H   0  0  0  0  0  0  0  0  0  0  0  0
  145.0765   74.2116  217.9277 H   0  0  0  0  0  0  0  0  0  0  0  0
  144.2009   72.7178  217.7452 H   0  0  0  0  0  0  0  0  0  0  0  0
  143.7647   74.9163  219.9409 H   0  0  0  0  0  0  0  0  0  0  0  0
  142.4732   74.4517  217.6596 H   0  0  0  0  0  0  0  0  0  0  0  0
  141.4784   73.6756  218.9016 H   0  0  0  0  0  0  0  0  0  0  0  0
  143.5120   76.8053  220.1836 H   0  0  0  0  0  0  0  0  0  0  0  0
  143.8778   76.1595  218.5555 H   0  0  0  0  0  0  0  0  0  0  0  0
  142.9062   78.7569  219.2133 H   0  0  0  0  0  0  0  0  0  0  0  0
  143.0962   78.0842  217.5896 H   0  0  0  0  0  0  0  0  0  0  0  0
  140.6370   78.3429  219.2781 H   0  0  0  0  0  0  0  0  0  0  0  0
  140.7378   78.2042  217.5278 H   0  0  0  0  0  0  0  0  0  0  0  0
  139.9402   76.1426  219.1631 H   0  0  0  0  0  0  0  0  0  0  0  0
  140.7562   75.8528  217.6013 H   0  0  0  0  0  0  0  0  0  0  0  0
  137.6588   76.1771  222.1119 H   0  0  0  0  0  0  0  0  0  0  0  0
  137.6790   78.6658  222.1448 H   0  0  0  0  0  0  0  0  0  0  0  0
  138.8569   80.8324  222.0956 H   0  0  0  0  0  0  0  0  0  0  0  0
  143.1643   80.7177  221.7887 H   0  0  0  0  0  0  0  0  0  0  0  0
  143.1392   78.2105  221.7516 H   0  0  0  0  0  0  0  0  0  0  0  0
  1  2  2  0
  2  3  1  0
  3  4  1  0
  4  5  1  0
  5  6  2  0
  5  7  1  0
  7  8  1  0
  8  9  1  0
  9 10  1  0
  9 11  1  0
 11 12  1  0
 12 13  1  0
 13 14  1  0
 14 15  1  0
 15 16  1  0
 16 17  1  0
 17 18  1  0
  2 19  1  0
 19 20  2  0
 20 21  1  0
 21 22  2  0
 22 23  1  0
 23 24  2  0
 24 25  1  0
 24 26  1  0
 26 27  2  0
 27 28  1  0
 28 29  2  0
 12  7  1  0
 18 14  1  0
 29 19  1  0
 28 22  1  0
  3 30  1  0
  4 31  1  0
  4 32  1  0
  8 33  1  0
  8 34  1  0
  9 35  1  6
 10 36  1  0
 11 37  1  0
 11 38  1  0
 12 39  1  1
 13 40  1  0
 13 41  1  0
 15 42  1  0
 15 43  1  0
 16 44  1  0
 16 45  1  0
 17 46  1  0
 17 47  1  0
 18 48  1  0
 18 49  1  0
 20 50  1  0
 21 51  1  0
 23 52  1  0
 26 53  1  0
 27 54  1  0
M  END
>  <meeko>  (5) 
{"free_energy": -5.59, "intermolecular_energy": -7.68, "internal_energy": -3.39, "cluster_size": 1, "cluster_id": 3, "rank_in_cluster": 1}

$$$$

     RDKit          3D

 54 57  0  0  0  0  0  0  0  0999 V2000
  138.5080   71.8300  220.9760 O   0  0  0  0  0  0  0  0  0  0  0  0
  138.9800   72.2350  222.0670 C   0  0  0  0  0  0  0  0  0  0  0  0
  139.2450   73.6140  222.2960 N   0  0  0  0  0  0  0  0  0  0  0  0
  138.9670   74.6060  221.2400 C   0  0  0  0  0  0  0  0  0  0  0  0
  139.5630   75.9020  221.5660 C   0  0  0  0  0  0  0  0  0  0  0  0
  138.8510   76.6880  222.2920 O   0  0  0  0  0  0  0  0  0  0  0  0
  140.8200   76.3900  221.1840 N   0  0  0  0  0  0  0  0  0  0  0  0
  141.8600   75.4820  220.6410 C   0  0  0  0  0  0  0  0  0  0  0  0
  142.3730   76.3350  219.4850 C   0  0  2  0  0  0  0  0  0  0  0  0
  143.7460   76.3590  219.4140 O   0  0  0  0  0  0  0  0  0  0  0  0
  141.8690   77.7440  219.7160 C   0  0  0  0  0  0  0  0  0  0  0  0
  141.4480   77.6800  221.1740 C   0  0  1  0  0  0  0  0  0  0  0  0
  140.6360   78.8370  221.6020 C   0  0  0  0  0  0  0  0  0  0  0  0
  141.5990   79.9060  221.9330 N   0  0  0  0  0  0  0  0  0  0  0  0
  140.9430   80.9920  222.6150 C   0  0  0  0  0  0  0  0  0  0  0  0
  141.7420   81.3380  223.8430 C   0  0  0  0  0  0  0  0  0  0  0  0
  142.9940   80.4980  223.7580 C   0  0  0  0  0  0  0  0  0  0  0  0
  142.6500   79.4200  222.7630 C   0  0  0  0  0  0  0  0  0  0  0  0
  139.2820   71.3030  223.1700 C   0  0  0  0  0  0  0  0  0  0  0  0
  138.9420   69.9580  222.9850 C   0  0  0  0  0  0  0  0  0  0  0  0
  139.2390   69.1080  224.0380 C   0  0  0  0  0  0  0  0  0  0  0  0
  139.8290   69.5200  225.2010 C   0  0  0  0  0  0  0  0  0  0  0  0
  140.1170   68.6410  226.2470 C   0  0  0  0  0  0  0  0  0  0  0  0
  140.7140   69.1890  227.3680 C   0  0  0  0  0  0  0  0  0  0  0  0
  141.1110   68.1570  228.7270 Cl  0  0  0  0  0  0  0  0  0  0  0  0
  141.0220   70.5290  227.4780 C   0  0  0  0  0  0  0  0  0  0  0  0
  140.7350   71.3980  226.4410 C   0  0  0  0  0  0  0  0  0  0  0  0
  140.1400   70.8590  225.3200 C   0  0  0  0  0  0  0  0  0  0  0  0
  139.8570   71.6990  224.3060 N   0  0  0  0  0  0  0  0  0  0  0  0
  139.6410   73.9400  223.2180 H   0  0  0  0  0  0  0  0  0  0  0  0
  139.3871   74.2461  220.2892 H   0  0  0  0  0  0  0  0  0  0  0  0
  137.8775   74.7329  221.1573 H   0  0  0  0  0  0  0  0  0  0  0  0
  142.6492   75.2764  221.3792 H   0  0  0  0  0  0  0  0  0  0  0  0
  141.5015   74.4816  220.3572 H   0  0  0  0  0  0  0  0  0  0  0  0
  142.0102   75.9066  218.5390 H   0  0  0  0  0  0  0  0  0  0  0  0
  144.1360   77.2000  219.7520 H   0  0  0  0  0  0  0  0  0  0  0  0
  142.6657   78.4863  219.5600 H   0  0  0  0  0  0  0  0  0  0  0  0
  141.0655   78.0509  219.0303 H   0  0  0  0  0  0  0  0  0  0  0  0
  142.2498   77.7630  221.9225 H   0  0  0  0  0  0  0  0  0  0  0  0
  139.9707   79.1599  220.7877 H   0  0  0  0  0  0  0  0  0  0  0  0
  139.9982   78.5869  222.4626 H   0  0  0  0  0  0  0  0  0  0  0  0
  140.8863   81.8669  221.9507 H   0  0  0  0  0  0  0  0  0  0  0  0
  139.9228   80.6959  222.9006 H   0  0  0  0  0  0  0  0  0  0  0  0
  141.9964   82.4082  223.8475 H   0  0  0  0  0  0  0  0  0  0  0  0
  141.1785   81.1392  224.7666 H   0  0  0  0  0  0  0  0  0  0  0  0
  143.8438   81.0995  223.4031 H   0  0  0  0  0  0  0  0  0  0  0  0
  143.2941   80.0896  224.7343 H   0  0  0  0  0  0  0  0  0  0  0  0
  143.5316   79.1836  222.1490 H   0  0  0  0  0  0  0  0  0  0  0  0
  142.3326   78.5053  223.2851 H   0  0  0  0  0  0  0  0  0  0  0  0
  138.4679   69.5978  222.0601 H   0  0  0  0  0  0  0  0  0  0  0  0
  138.9862   68.0426  223.9328 H   0  0  0  0  0  0  0  0  0  0  0  0
  139.8814   67.5684  226.1829 H   0  0  0  0  0  0  0  0  0  0  0  0
  141.4979   70.9081  228.3944 H   0  0  0  0  0  0  0  0  0  0  0  0
  140.9707   72.4704  226.5075 H   0  0  0  0  0  0  0  0  0  0  0  0
  1  2  2  0
  2  3  1  0
  3  4  1  0
  4  5  1  0
  5  6  2  0
  5  7  1  0
  7  8  1  0
  8  9  1  0
  9 10  1  0
  9 11  1  0
 11 12  1  0
 12 13  1  0
 13 14  1  0
 14 15  1  0
 15 16  1  0
 16 17  1  0
 17 18  1  0
  2 19  1  0
 19 20  2  0
 20 21  1  0
 21 22  2  0
 22 23  1  0
 23 24  2  0
 24 25  1  0
 24 26  1  0
 26 27  2  0
 27 28  1  0
 28 29  2  0
 12  7  1  0
 18 14  1  0
 29 19  1  0
 28 22  1  0
  3 30  1  0
  4 31  1  0
  4 32  1  0
  8 33  1  0
  8 34  1  0
  9 35  1  6
 10 36  1  0
 11 37  1  0
 11 38  1  0
 12 39  1  1
 13 40  1  0
 13 41  1  0
 15 42  1  0
 15 43  1  0
 16 44  1  0
 16 45  1  0
 17 46  1  0
 17 47  1  0
 18 48  1  0
 18 49  1  0
 20 50  1  0
 21 51  1  0
 23 52  1  0
 26 53  1  0
 27 54  1  0
M  END
>  <meeko>  (6) 
{"free_energy": -8.64, "intermolecular_energy": -10.73, "internal_energy": -1.47, "cluster_size": 18, "cluster_id": 1, "rank_in_cluster": 5}

$$$$

     RDKit          3D

 54 57  0  0  0  0  0  0  0  0999 V2000
  140.8250   72.8220  221.1240 O   0  0  0  0  0  0  0  0  0  0  0  0
  139.9730   72.8240  222.0470 C   0  0  0  0  0  0  0  0  0  0  0  0
  138.9290   73.7900  222.0920 N   0  0  0  0  0  0  0  0  0  0  0  0
  138.8290   74.8210  221.0410 C   0  0  0  0  0  0  0  0  0  0  0  0
  139.4430   76.0770  221.4760 C   0  0  0  0  0  0  0  0  0  0  0  0
  138.7530   76.7940  222.2890 O   0  0  0  0  0  0  0  0  0  0  0  0
  140.6950   76.5900  221.1140 N   0  0  0  0  0  0  0  0  0  0  0  0
  141.8490   75.6900  220.8680 C   0  0  0  0  0  0  0  0  0  0  0  0
  142.4200   76.3360  219.6100 C   0  0  2  0  0  0  0  0  0  0  0  0
  143.7880   76.4710  219.6590 O   0  0  0  0  0  0  0  0  0  0  0  0
  141.7960   77.7110  219.4950 C   0  0  0  0  0  0  0  0  0  0  0  0
  141.2270   77.9040  220.8900 C   0  0  1  0  0  0  0  0  0  0  0  0
  140.2940   79.0440  220.9930 C   0  0  0  0  0  0  0  0  0  0  0  0
  140.7270   79.8150  222.1760 N   0  0  0  0  0  0  0  0  0  0  0  0
  140.5660   79.0390  223.3790 C   0  0  0  0  0  0  0  0  0  0  0  0
  141.8430   79.1130  224.1700 C   0  0  0  0  0  0  0  0  0  0  0  0
  142.7130   80.1090  223.4400 C   0  0  0  0  0  0  0  0  0  0  0  0
  142.0930   80.2060  222.0700 C   0  0  0  0  0  0  0  0  0  0  0  0
  140.0080   71.8250  223.1310 C   0  0  0  0  0  0  0  0  0  0  0  0
  139.5100   70.5490  222.8440 C   0  0  0  0  0  0  0  0  0  0  0  0
  139.5570   69.6330  223.8830 C   0  0  0  0  0  0  0  0  0  0  0  0
  140.0530   69.9210  225.1250 C   0  0  0  0  0  0  0  0  0  0  0  0
  140.0870   68.9770  226.1540 C   0  0  0  0  0  0  0  0  0  0  0  0
  140.6140   69.4000  227.3610 C   0  0  0  0  0  0  0  0  0  0  0  0
  140.6960   68.2800  228.7070 Cl  0  0  0  0  0  0  0  0  0  0  0  0
  141.0870   70.6780  227.5710 C   0  0  0  0  0  0  0  0  0  0  0  0
  141.0510   71.6110  226.5500 C   0  0  0  0  0  0  0  0  0  0  0  0
  140.5280   71.1970  225.3430 C   0  0  0  0  0  0  0  0  0  0  0  0
  140.4900   72.1000  224.3450 N   0  0  0  0  0  0  0  0  0  0  0  0
  138.2190   73.7800  222.8730 H   0  0  0  0  0  0  0  0  0  0  0  0
  139.3435   74.4636  220.1368 H   0  0  0  0  0  0  0  0  0  0  0  0
  137.7649   75.0057  220.8323 H   0  0  0  0  0  0  0  0  0  0  0  0
  142.5679   75.7101  221.7003 H   0  0  0  0  0  0  0  0  0  0  0  0
  141.5946   74.6244  220.7688 H   0  0  0  0  0  0  0  0  0  0  0  0
  142.1909   75.6946  218.7462 H   0  0  0  0  0  0  0  0  0  0  0  0
  144.0840   77.1940  220.2620 H   0  0  0  0  0  0  0  0  0  0  0  0
  142.5505   78.4761  219.2595 H   0  0  0  0  0  0  0  0  0  0  0  0
  141.0506   77.7990  218.6909 H   0  0  0  0  0  0  0  0  0  0  0  0
  141.9367   78.2099  221.6728 H   0  0  0  0  0  0  0  0  0  0  0  0
  140.3500   79.6673  220.0884 H   0  0  0  0  0  0  0  0  0  0  0  0
  139.2518   78.7058  221.0903 H   0  0  0  0  0  0  0  0  0  0  0  0
  139.7363   79.4467  223.9751 H   0  0  0  0  0  0  0  0  0  0  0  0
  140.3405   77.9928  223.1249 H   0  0  0  0  0  0  0  0  0  0  0  0
  141.6409   79.4577  225.1949 H   0  0  0  0  0  0  0  0  0  0  0  0
  142.3294   78.1298  224.2525 H   0  0  0  0  0  0  0  0  0  0  0  0
  142.6968   81.0857  223.9457 H   0  0  0  0  0  0  0  0  0  0  0  0
  143.7683   79.8005  223.4043 H   0  0  0  0  0  0  0  0  0  0  0  0
  142.1576   81.2411  221.7035 H   0  0  0  0  0  0  0  0  0  0  0  0
  142.6240   79.5515  221.3632 H   0  0  0  0  0  0  0  0  0  0  0  0
  139.1060   70.2890  221.8544 H   0  0  0  0  0  0  0  0  0  0  0  0
  139.1743   68.6183  223.6988 H   0  0  0  0  0  0  0  0  0  0  0  0
  139.7145   67.9518  226.0121 H   0  0  0  0  0  0  0  0  0  0  0  0
  141.4945   70.9568  228.5540 H   0  0  0  0  0  0  0  0  0  0  0  0
  141.4226   72.6362  226.6944 H   0  0  0  0  0  0  0  0  0  0  0  0
  1  2  2  0
  2  3  1  0
  3  4  1  0
  4  5  1  0
  5  6  2  0
  5  7  1  0
  7  8  1  0
  8  9  1  0
  9 10  1  0
  9 11  1  0
 11 12  1  0
 12 13  1  0
 13 14  1  0
 14 15  1  0
 15 16  1  0
 16 17  1  0
 17 18  1  0
  2 19  1  0
 19 20  2  0
 20 21  1  0
 21 22  2  0
 22 23  1  0
 23 24  2  0
 24 25  1  0
 24 26  1  0
 26 27  2  0
 27 28  1  0
 28 29  2  0
 12  7  1  0
 18 14  1  0
 29 19  1  0
 28 22  1  0
  3 30  1  0
  4 31  1  0
  4 32  1  0
  8 33  1  0
  8 34  1  0
  9 35  1  6
 10 36  1  0
 11 37  1  0
 11 38  1  0
 12 39  1  1
 13 40  1  0
 13 41  1  0
 15 42  1  0
 15 43  1  0
 16 44  1  0
 16 45  1  0
 17 46  1  0
 17 47  1  0
 18 48  1  0
 18 49  1  0
 20 50  1  0
 21 51  1  0
 23 52  1  0
 26 53  1  0
 27 54  1  0
M  END
>  <meeko>  (7) 
{"free_energy": -8.71, "intermolecular_energy": -10.8, "internal_energy": -1.59, "cluster_size": 18, "cluster_id": 1, "rank_in_cluster": 2}

$$$$

     RDKit          3D

 54 57  0  0  0  0  0  0  0  0999 V2000
  140.1270   72.1390  220.6630 O   0  0  0  0  0  0  0  0  0  0  0  0
  139.9290   72.5260  221.8420 C   0  0  0  0  0  0  0  0  0  0  0  0
  139.6660   73.8930  222.1400 N   0  0  0  0  0  0  0  0  0  0  0  0
  139.6230   74.8920  221.0560 C   0  0  0  0  0  0  0  0  0  0  0  0
  140.1730   76.1740  221.5000 C   0  0  0  0  0  0  0  0  0  0  0  0
  139.8280   76.5640  222.6740 O   0  0  0  0  0  0  0  0  0  0  0  0
  141.0350   77.0260  220.7980 N   0  0  0  0  0  0  0  0  0  0  0  0
  142.1870   76.4890  220.0320 C   0  0  0  0  0  0  0  0  0  0  0  0
  142.0680   77.3250  218.7610 C   0  0  2  0  0  0  0  0  0  0  0  0
  143.2780   77.8270  218.3430 O   0  0  0  0  0  0  0  0  0  0  0  0
  141.1410   78.4810  219.0760 C   0  0  0  0  0  0  0  0  0  0  0  0
  141.1160   78.4450  220.5950 C   0  0  1  0  0  0  0  0  0  0  0  0
  140.0510   79.2800  221.1850 C   0  0  0  0  0  0  0  0  0  0  0  0
  140.7060   80.0850  222.2360 N   0  0  0  0  0  0  0  0  0  0  0  0
  140.7530   79.3610  223.4810 C   0  0  0  0  0  0  0  0  0  0  0  0
  142.1540   79.4330  224.0230 C   0  0  0  0  0  0  0  0  0  0  0  0
  142.8930   80.3780  223.1060 C   0  0  0  0  0  0  0  0  0  0  0  0
  142.0360   80.4380  221.8690 C   0  0  0  0  0  0  0  0  0  0  0  0
  139.9560   71.5860  222.9780 C   0  0  0  0  0  0  0  0  0  0  0  0
  139.4290   70.3070  222.7640 C   0  0  0  0  0  0  0  0  0  0  0  0
  139.4690   69.4470  223.8500 C   0  0  0  0  0  0  0  0  0  0  0  0
  139.9850   69.7900  225.0690 C   0  0  0  0  0  0  0  0  0  0  0  0
  140.0120   68.9020  226.1470 C   0  0  0  0  0  0  0  0  0  0  0  0
  140.5610   69.3770  227.3240 C   0  0  0  0  0  0  0  0  0  0  0  0
  140.6360   68.3290  228.7270 Cl  0  0  0  0  0  0  0  0  0  0  0  0
  141.0630   70.6540  227.4600 C   0  0  0  0  0  0  0  0  0  0  0  0
  141.0340   71.5320  226.3920 C   0  0  0  0  0  0  0  0  0  0  0  0
  140.4890   71.0660  225.2140 C   0  0  0  0  0  0  0  0  0  0  0  0
  140.4570   71.9150  224.1690 N   0  0  0  0  0  0  0  0  0  0  0  0
  139.5010   74.2040  223.1350 H   0  0  0  0  0  0  0  0  0  0  0  0
  140.2131   74.5235  220.2039 H   0  0  0  0  0  0  0  0  0  0  0  0
  138.5740   75.0444  220.7621 H   0  0  0  0  0  0  0  0  0  0  0  0
  143.1409   76.6664  220.5502 H   0  0  0  0  0  0  0  0  0  0  0  0
  142.1738   75.4003  219.8751 H   0  0  0  0  0  0  0  0  0  0  0  0
  141.6873   76.6865  217.9502 H   0  0  0  0  0  0  0  0  0  0  0  0
  143.9190   77.9570  219.0820 H   0  0  0  0  0  0  0  0  0  0  0  0
  141.5458   79.4335  218.7034 H   0  0  0  0  0  0  0  0  0  0  0  0
  140.1483   78.3994  218.6093 H   0  0  0  0  0  0  0  0  0  0  0  0
  141.9756   78.8956  221.1127 H   0  0  0  0  0  0  0  0  0  0  0  0
  139.6100   79.9355  220.4196 H   0  0  0  0  0  0  0  0  0  0  0  0
  139.2356   78.6659  221.5948 H   0  0  0  0  0  0  0  0  0  0  0  0
  140.0536   79.8131  224.1996 H   0  0  0  0  0  0  0  0  0  0  0  0
  140.4658   78.3118  223.3176 H   0  0  0  0  0  0  0  0  0  0  0  0
  142.1486   79.8215  225.0521 H   0  0  0  0  0  0  0  0  0  0  0  0
  142.6299   78.4418  224.0572 H   0  0  0  0  0  0  0  0  0  0  0  0
  142.9863   81.3735  223.5646 H   0  0  0  0  0  0  0  0  0  0  0  0
  143.9184   80.0421  222.8923 H   0  0  0  0  0  0  0  0  0  0  0  0
  142.0506   81.4566  221.4541 H   0  0  0  0  0  0  0  0  0  0  0  0
  142.4182   79.7440  221.1059 H   0  0  0  0  0  0  0  0  0  0  0  0
  139.0091   70.0033  221.7938 H   0  0  0  0  0  0  0  0  0  0  0  0
  139.0632   68.4323  223.7245 H   0  0  0  0  0  0  0  0  0  0  0  0
  139.6173   67.8786  226.0640 H   0  0  0  0  0  0  0  0  0  0  0  0
  141.4883   70.9757  228.4221 H   0  0  0  0  0  0  0  0  0  0  0  0
  141.4277   72.5555  226.4782 H   0  0  0  0  0  0  0  0  0  0  0  0
  1  2  2  0
  2  3  1  0
  3  4  1  0
  4  5  1  0
  5  6  2  0
  5  7  1  0
  7  8  1  0
  8  9  1  0
  9 10  1  0
  9 11  1  0
 11 12  1  0
 12 13  1  0
 13 14  1  0
 14 15  1  0
 15 16  1  0
 16 17  1  0
 17 18  1  0
  2 19  1  0
 19 20  2  0
 20 21  1  0
 21 22  2  0
 22 23  1  0
 23 24  2  0
 24 25  1  0
 24 26  1  0
 26 27  2  0
 27 28  1  0
 28 29  2  0
 12  7  1  0
 18 14  1  0
 29 19  1  0
 28 22  1  0
  3 30  1  0
  4 31  1  0
  4 32  1  0
  8 33  1  0
  8 34  1  0
  9 35  1  6
 10 36  1  0
 11 37  1  0
 11 38  1  0
 12 39  1  1
 13 40  1  0
 13 41  1  0
 15 42  1  0
 15 43  1  0
 16 44  1  0
 16 45  1  0
 17 46  1  0
 17 47  1  0
 18 48  1  0
 18 49  1  0
 20 50  1  0
 21 51  1  0
 23 52  1  0
 26 53  1  0
 27 54  1  0
M  END
>  <meeko>  (8) 
{"free_energy": -8.37, "intermolecular_energy": -10.46, "internal_energy": -1.91, "cluster_size": 18, "cluster_id": 1, "rank_in_cluster": 12}

$$$$

     RDKit          3D

 54 57  0  0  0  0  0  0  0  0999 V2000
  138.5230   72.7510  221.2310 O   0  0  0  0  0  0  0  0  0  0  0  0
  139.5280   72.7220  221.9850 C   0  0  0  0  0  0  0  0  0  0  0  0
  140.6030   73.6400  221.8260 N   0  0  0  0  0  0  0  0  0  0  0  0
  140.5580   74.6550  220.7560 C   0  0  0  0  0  0  0  0  0  0  0  0
  141.8440   75.3410  220.6270 C   0  0  0  0  0  0  0  0  0  0  0  0
  142.8920   74.6290  220.8410 O   0  0  0  0  0  0  0  0  0  0  0  0
  142.0710   76.6830  220.2960 N   0  0  0  0  0  0  0  0  0  0  0  0
  142.9940   77.0550  219.1950 C   0  0  0  0  0  0  0  0  0  0  0  0
  142.1690   78.1470  218.5210 C   0  0  2  0  0  0  0  0  0  0  0  0
  142.9170   79.2580  218.2100 O   0  0  0  0  0  0  0  0  0  0  0  0
  141.0800   78.5450  219.4950 C   0  0  0  0  0  0  0  0  0  0  0  0
  141.5980   77.9450  220.7910 C   0  0  1  0  0  0  0  0  0  0  0  0
  140.5910   77.9190  221.8700 C   0  0  0  0  0  0  0  0  0  0  0  0
  141.1600   78.7200  222.9730 N   0  0  0  0  0  0  0  0  0  0  0  0
  142.5450   79.0290  222.7190 C   0  0  0  0  0  0  0  0  0  0  0  0
  142.7550   80.5010  222.9420 C   0  0  0  0  0  0  0  0  0  0  0  0
  141.4480   81.0160  223.4980 C   0  0  0  0  0  0  0  0  0  0  0  0
  140.4500   79.9430  223.1480 C   0  0  0  0  0  0  0  0  0  0  0  0
  139.6440   71.7370  223.0770 C   0  0  0  0  0  0  0  0  0  0  0  0
  139.0960   70.4680  222.8570 C   0  0  0  0  0  0  0  0  0  0  0  0
  139.2220   69.5650  223.9010 C   0  0  0  0  0  0  0  0  0  0  0  0
  139.8380   69.8580  225.0860 C   0  0  0  0  0  0  0  0  0  0  0  0
  139.9500   68.9280  226.1210 C   0  0  0  0  0  0  0  0  0  0  0  0
  140.5960   69.3550  227.2670 C   0  0  0  0  0  0  0  0  0  0  0  0
  140.7820   68.2520  228.6160 Cl  0  0  0  0  0  0  0  0  0  0  0  0
  141.1140   70.6250  227.4120 C   0  0  0  0  0  0  0  0  0  0  0  0
  141.0000   71.5450  226.3850 C   0  0  0  0  0  0  0  0  0  0  0  0
  140.3570   71.1270  225.2390 C   0  0  0  0  0  0  0  0  0  0  0  0
  140.2440   72.0170  224.2350 N   0  0  0  0  0  0  0  0  0  0  0  0
  141.4410   73.6040  222.4670 H   0  0  0  0  0  0  0  0  0  0  0  0
  140.3166   74.1619  219.8028 H   0  0  0  0  0  0  0  0  0  0  0  0
  139.7891   75.3988  221.0118 H   0  0  0  0  0  0  0  0  0  0  0  0
  143.9505   77.4418  219.5764 H   0  0  0  0  0  0  0  0  0  0  0  0
  143.2919   76.2249  218.5376 H   0  0  0  0  0  0  0  0  0  0  0  0
  141.7663   77.7559  217.5750 H   0  0  0  0  0  0  0  0  0  0  0  0
  143.5220   79.1160  217.4430 H   0  0  0  0  0  0  0  0  0  0  0  0
  140.9862   79.6386  219.5678 H   0  0  0  0  0  0  0  0  0  0  0  0
  140.0755   78.1984  219.2105 H   0  0  0  0  0  0  0  0  0  0  0  0
  142.3806   78.5109  221.3177 H   0  0  0  0  0  0  0  0  0  0  0  0
  139.6462   78.3626  221.5226 H   0  0  0  0  0  0  0  0  0  0  0  0
  140.3683   76.8905  222.1904 H   0  0  0  0  0  0  0  0  0  0  0  0
  143.1850   78.4549  223.4052 H   0  0  0  0  0  0  0  0  0  0  0  0
  142.8062   78.7640  221.6838 H   0  0  0  0  0  0  0  0  0  0  0  0
  143.5709   80.6683  223.6606 H   0  0  0  0  0  0  0  0  0  0  0  0
  143.0351   81.0185  222.0126 H   0  0  0  0  0  0  0  0  0  0  0  0
  141.5127   81.1482  224.5881 H   0  0  0  0  0  0  0  0  0  0  0  0
  141.1727   81.9983  223.0866 H   0  0  0  0  0  0  0  0  0  0  0  0
  139.7169   79.8358  223.9611 H   0  0  0  0  0  0  0  0  0  0  0  0
  139.9127   80.2078  222.2254 H   0  0  0  0  0  0  0  0  0  0  0  0
  138.5960   70.2036  221.9135 H   0  0  0  0  0  0  0  0  0  0  0  0
  138.8031   68.5565  223.7688 H   0  0  0  0  0  0  0  0  0  0  0  0
  139.5457   67.9091  226.0299 H   0  0  0  0  0  0  0  0  0  0  0  0
  141.6195   70.9074  228.3473 H   0  0  0  0  0  0  0  0  0  0  0  0
  141.4040   72.5638  226.4784 H   0  0  0  0  0  0  0  0  0  0  0  0
  1  2  2  0
  2  3  1  0
  3  4  1  0
  4  5  1  0
  5  6  2  0
  5  7  1  0
  7  8  1  0
  8  9  1  0
  9 10  1  0
  9 11  1  0
 11 12  1  0
 12 13  1  0
 13 14  1  0
 14 15  1  0
 15 16  1  0
 16 17  1  0
 17 18  1  0
  2 19  1  0
 19 20  2  0
 20 21  1  0
 21 22  2  0
 22 23  1  0
 23 24  2  0
 24 25  1  0
 24 26  1  0
 26 27  2  0
 27 28  1  0
 28 29  2  0
 12  7  1  0
 18 14  1  0
 29 19  1  0
 28 22  1  0
  3 30  1  0
  4 31  1  0
  4 32  1  0
  8 33  1  0
  8 34  1  0
  9 35  1  6
 10 36  1  0
 11 37  1  0
 11 38  1  0
 12 39  1  1
 13 40  1  0
 13 41  1  0
 15 42  1  0
 15 43  1  0
 16 44  1  0
 16 45  1  0
 17 46  1  0
 17 47  1  0
 18 48  1  0
 18 49  1  0
 20 50  1  0
 21 51  1  0
 23 52  1  0
 26 53  1  0
 27 54  1  0
M  END
>  <meeko>  (9) 
{"free_energy": -8.09, "intermolecular_energy": -10.18, "internal_energy": -1.8, "cluster_size": 18, "cluster_id": 1, "rank_in_cluster": 15}

$$$$

     RDKit          3D

 54 57  0  0  0  0  0  0  0  0999 V2000
  140.0640   72.1220  220.6860 O   0  0  0  0  0  0  0  0  0  0  0  0
  139.9110   72.5090  221.8710 C   0  0  0  0  0  0  0  0  0  0  0  0
  139.6780   73.8790  222.1810 N   0  0  0  0  0  0  0  0  0  0  0  0
  139.6130   74.8810  221.1010 C   0  0  0  0  0  0  0  0  0  0  0  0
  140.2100   76.1490  221.5240 C   0  0  0  0  0  0  0  0  0  0  0  0
  139.9210   76.5450  222.7120 O   0  0  0  0  0  0  0  0  0  0  0  0
  141.0630   76.9830  220.7890 N   0  0  0  0  0  0  0  0  0  0  0  0
  142.2250   76.4310  220.0500 C   0  0  0  0  0  0  0  0  0  0  0  0
  142.0990   77.2100  218.7450 C   0  0  2  0  0  0  0  0  0  0  0  0
  143.3030   77.7100  218.3090 O   0  0  0  0  0  0  0  0  0  0  0  0
  141.1540   78.3650  219.0080 C   0  0  0  0  0  0  0  0  0  0  0  0
  141.1250   78.3930  220.5260 C   0  0  1  0  0  0  0  0  0  0  0  0
  140.0460   79.2370  221.0770 C   0  0  0  0  0  0  0  0  0  0  0  0
  140.6780   80.0710  222.1200 N   0  0  0  0  0  0  0  0  0  0  0  0
  140.7650   79.3530  223.3660 C   0  0  0  0  0  0  0  0  0  0  0  0
  142.1670   79.4810  223.8950 C   0  0  0  0  0  0  0  0  0  0  0  0
  142.8610   80.4510  222.9680 C   0  0  0  0  0  0  0  0  0  0  0  0
  141.9900   80.4740  221.7380 C   0  0  0  0  0  0  0  0  0  0  0  0
  139.9620   71.5660  223.0030 C   0  0  0  0  0  0  0  0  0  0  0  0
  139.4670   70.2750  222.7850 C   0  0  0  0  0  0  0  0  0  0  0  0
  139.5290   69.4120  223.8680 C   0  0  0  0  0  0  0  0  0  0  0  0
  140.0360   69.7630  225.0880 C   0  0  0  0  0  0  0  0  0  0  0  0
  140.0860   68.8720  226.1620 C   0  0  0  0  0  0  0  0  0  0  0  0
  140.6230   69.3570  227.3420 C   0  0  0  0  0  0  0  0  0  0  0  0
  140.7250   68.3050  228.7400 Cl  0  0  0  0  0  0  0  0  0  0  0  0
  141.0930   70.6450  227.4820 C   0  0  0  0  0  0  0  0  0  0  0  0
  141.0420   71.5260  226.4170 C   0  0  0  0  0  0  0  0  0  0  0  0
  140.5080   71.0510  225.2380 C   0  0  0  0  0  0  0  0  0  0  0  0
  140.4550   71.9030  224.1960 N   0  0  0  0  0  0  0  0  0  0  0  0
  139.5510   74.1900  223.1820 H   0  0  0  0  0  0  0  0  0  0  0  0
  140.1589   74.5012  220.2248 H   0  0  0  0  0  0  0  0  0  0  0  0
  138.5566   75.0578  220.8506 H   0  0  0  0  0  0  0  0  0  0  0  0
  143.1744   76.6440  220.5631 H   0  0  0  0  0  0  0  0  0  0  0  0
  142.2278   75.3366  219.9393 H   0  0  0  0  0  0  0  0  0  0  0  0
  141.7302   76.5325  217.9607 H   0  0  0  0  0  0  0  0  0  0  0  0
  143.9470   77.8620  219.0420 H   0  0  0  0  0  0  0  0  0  0  0  0
  141.5460   79.3067  218.5962 H   0  0  0  0  0  0  0  0  0  0  0  0
  140.1640   78.2493  218.5426 H   0  0  0  0  0  0  0  0  0  0  0  0
  141.9768   78.8770  221.0262 H   0  0  0  0  0  0  0  0  0  0  0  0
  139.6157   79.8715  220.2882 H   0  0  0  0  0  0  0  0  0  0  0  0
  139.2266   78.6286  221.4874 H   0  0  0  0  0  0  0  0  0  0  0  0
  140.0551   79.7794  224.0900 H   0  0  0  0  0  0  0  0  0  0  0  0
  140.5178   78.2929  223.2076 H   0  0  0  0  0  0  0  0  0  0  0  0
  142.1558   79.8726  224.9229 H   0  0  0  0  0  0  0  0  0  0  0  0
  142.6811   78.5091  223.9280 H   0  0  0  0  0  0  0  0  0  0  0  0
  142.9204   81.4508  223.4228 H   0  0  0  0  0  0  0  0  0  0  0  0
  143.8965   80.1540  222.7457 H   0  0  0  0  0  0  0  0  0  0  0  0
  141.9612   81.4911  221.3199 H   0  0  0  0  0  0  0  0  0  0  0  0
  142.3913   79.7932  220.9728 H   0  0  0  0  0  0  0  0  0  0  0  0
  139.0541   69.9644  221.8139 H   0  0  0  0  0  0  0  0  0  0  0  0
  139.1491   68.3878  223.7385 H   0  0  0  0  0  0  0  0  0  0  0  0
  139.7180   67.8390  226.0749 H   0  0  0  0  0  0  0  0  0  0  0  0
  141.5106   70.9738  228.4451 H   0  0  0  0  0  0  0  0  0  0  0  0
  141.4107   72.5585  226.5066 H   0  0  0  0  0  0  0  0  0  0  0  0
  1  2  2  0
  2  3  1  0
  3  4  1  0
  4  5  1  0
  5  6  2  0
  5  7  1  0
  7  8  1  0
  8  9  1  0
  9 10  1  0
  9 11  1  0
 11 12  1  0
 12 13  1  0
 13 14  1  0
 14 15  1  0
 15 16  1  0
 16 17  1  0
 17 18  1  0
  2 19  1  0
 19 20  2  0
 20 21  1  0
 21 22  2  0
 22 23  1  0
 23 24  2  0
 24 25  1  0
 24 26  1  0
 26 27  2  0
 27 28  1  0
 28 29  2  0
 12  7  1  0
 18 14  1  0
 29 19  1  0
 28 22  1  0
  3 30  1  0
  4 31  1  0
  4 32  1  0
  8 33  1  0
  8 34  1  0
  9 35  1  6
 10 36  1  0
 11 37  1  0
 11 38  1  0
 12 39  1  1
 13 40  1  0
 13 41  1  0
 15 42  1  0
 15 43  1  0
 16 44  1  0
 16 45  1  0
 17 46  1  0
 17 47  1  0
 18 48  1  0
 18 49  1  0
 20 50  1  0
 21 51  1  0
 23 52  1  0
 26 53  1  0
 27 54  1  0
M  END
>  <meeko>  (10) 
{"free_energy": -8.39, "intermolecular_energy": -10.48, "internal_energy": -1.93, "cluster_size": 18, "cluster_id": 1, "rank_in_cluster": 10}

$$$$

     RDKit          3D

 54 57  0  0  0  0  0  0  0  0999 V2000
  139.0130   72.0210  220.8320 O   0  0  0  0  0  0  0  0  0  0  0  0
  139.2460   72.4230  221.9990 C   0  0  0  0  0  0  0  0  0  0  0  0
  139.2850   73.8110  222.3120 N   0  0  0  0  0  0  0  0  0  0  0  0
  139.0520   74.8150  221.2570 C   0  0  0  0  0  0  0  0  0  0  0  0
  139.8130   76.0380  221.5180 C   0  0  0  0  0  0  0  0  0  0  0  0
  139.2210   76.9360  222.2200 O   0  0  0  0  0  0  0  0  0  0  0  0
  141.1130   76.3460  221.0940 N   0  0  0  0  0  0  0  0  0  0  0  0
  142.0910   75.2750  220.7830 C   0  0  0  0  0  0  0  0  0  0  0  0
  142.6960   75.8380  219.5010 C   0  0  2  0  0  0  0  0  0  0  0  0
  144.0680   75.7490  219.4790 O   0  0  0  0  0  0  0  0  0  0  0  0
  142.2980   77.2970  219.4270 C   0  0  0  0  0  0  0  0  0  0  0  0
  141.8400   77.5590  220.8520 C   0  0  1  0  0  0  0  0  0  0  0  0
  141.1110   78.8340  221.0090 C   0  0  0  0  0  0  0  0  0  0  0  0
  142.0660   79.7700  221.6380 N   0  0  0  0  0  0  0  0  0  0  0  0
  141.4950   81.0880  221.7450 C   0  0  0  0  0  0  0  0  0  0  0  0
  141.7000   81.5860  223.1490 C   0  0  0  0  0  0  0  0  0  0  0  0
  142.5690   80.5480  223.8220 C   0  0  0  0  0  0  0  0  0  0  0  0
  142.4410   79.3320  222.9410 C   0  0  0  0  0  0  0  0  0  0  0  0
  139.4880   71.4790  223.1060 C   0  0  0  0  0  0  0  0  0  0  0  0
  139.1180   70.1440  222.9040 C   0  0  0  0  0  0  0  0  0  0  0  0
  139.3580   69.2830  223.9620 C   0  0  0  0  0  0  0  0  0  0  0  0
  139.9210   69.6740  225.1450 C   0  0  0  0  0  0  0  0  0  0  0  0
  140.1520   68.7840  226.1960 C   0  0  0  0  0  0  0  0  0  0  0  0
  140.7270   69.3120  227.3380 C   0  0  0  0  0  0  0  0  0  0  0  0
  141.0520   68.2630  228.7040 Cl  0  0  0  0  0  0  0  0  0  0  0  0
  141.0660   70.6420  227.4650 C   0  0  0  0  0  0  0  0  0  0  0  0
  140.8360   71.5230  226.4230 C   0  0  0  0  0  0  0  0  0  0  0  0
  140.2630   71.0040  225.2810 C   0  0  0  0  0  0  0  0  0  0  0  0
  140.0360   71.8550  224.2630 N   0  0  0  0  0  0  0  0  0  0  0  0
  139.4820   74.1340  223.2980 H   0  0  0  0  0  0  0  0  0  0  0  0
  139.3637   74.3975  220.2882 H   0  0  0  0  0  0  0  0  0  0  0  0
  137.9810   75.0655  221.2427 H   0  0  0  0  0  0  0  0  0  0  0  0
  142.8444   75.1661  221.5771 H   0  0  0  0  0  0  0  0  0  0  0  0
  141.6618   74.2664  220.6904 H   0  0  0  0  0  0  0  0  0  0  0  0
  142.3233   75.2543  218.6464 H   0  0  0  0  0  0  0  0  0  0  0  0
  144.4420   75.7630  218.5660 H   0  0  0  0  0  0  0  0  0  0  0  0
  143.1533   77.9336  219.1564 H   0  0  0  0  0  0  0  0  0  0  0  0
  141.5366   77.5159  218.6639 H   0  0  0  0  0  0  0  0  0  0  0  0
  142.6280   77.7334  221.5994 H   0  0  0  0  0  0  0  0  0  0  0  0
  140.7908   79.2153  220.0281 H   0  0  0  0  0  0  0  0  0  0  0  0
  140.2049   78.7093  221.6200 H   0  0  0  0  0  0  0  0  0  0  0  0
  141.9914   81.7659  221.0350 H   0  0  0  0  0  0  0  0  0  0  0  0
  140.4207   81.0527  221.5114 H   0  0  0  0  0  0  0  0  0  0  0  0
  142.2048   82.5633  223.1405 H   0  0  0  0  0  0  0  0  0  0  0  0
  140.7449   81.7236  223.6771 H   0  0  0  0  0  0  0  0  0  0  0  0
  143.6145   80.8864  223.8705 H   0  0  0  0  0  0  0  0  0  0  0  0
  142.2628   80.3507  224.8600 H   0  0  0  0  0  0  0  0  0  0  0  0
  143.4038   78.8020  222.8940 H   0  0  0  0  0  0  0  0  0  0  0  0
  141.6836   78.6447  223.3459 H   0  0  0  0  0  0  0  0  0  0  0  0
  138.6645   69.8000  221.9628 H   0  0  0  0  0  0  0  0  0  0  0  0
  139.0801   68.2253  223.8439 H   0  0  0  0  0  0  0  0  0  0  0  0
  139.8903   67.7183  226.1197 H   0  0  0  0  0  0  0  0  0  0  0  0
  141.5212   71.0045  228.3985 H   0  0  0  0  0  0  0  0  0  0  0  0
  141.0982   72.5884  226.5020 H   0  0  0  0  0  0  0  0  0  0  0  0
  1  2  2  0
  2  3  1  0
  3  4  1  0
  4  5  1  0
  5  6  2  0
  5  7  1  0
  7  8  1  0
  8  9  1  0
  9 10  1  0
  9 11  1  0
 11 12  1  0
 12 13  1  0
 13 14  1  0
 14 15  1  0
 15 16  1  0
 16 17  1  0
 17 18  1  0
  2 19  1  0
 19 20  2  0
 20 21  1  0
 21 22  2  0
 22 23  1  0
 23 24  2  0
 24 25  1  0
 24 26  1  0
 26 27  2  0
 27 28  1  0
 28 29  2  0
 12  7  1  0
 18 14  1  0
 29 19  1  0
 28 22  1  0
  3 30  1  0
  4 31  1  0
  4 32  1  0
  8 33  1  0
  8 34  1  0
  9 35  1  6
 10 36  1  0
 11 37  1  0
 11 38  1  0
 12 39  1  1
 13 40  1  0
 13 41  1  0
 15 42  1  0
 15 43  1  0
 16 44  1  0
 16 45  1  0
 17 46  1  0
 17 47  1  0
 18 48  1  0
 18 49  1  0
 20 50  1  0
 21 51  1  0
 23 52  1  0
 26 53  1  0
 27 54  1  0
M  END
>  <meeko>  (11) 
{"free_energy": -8.42, "intermolecular_energy": -10.51, "internal_energy": -1.5, "cluster_size": 18, "cluster_id": 1, "rank_in_cluster": 8}

$$$$

     RDKit          3D

 54 57  0  0  0  0  0  0  0  0999 V2000
  140.1790   72.1100  220.6570 O   0  0  0  0  0  0  0  0  0  0  0  0
  139.9760   72.4950  221.8360 C   0  0  0  0  0  0  0  0  0  0  0  0
  139.7170   73.8610  222.1370 N   0  0  0  0  0  0  0  0  0  0  0  0
  139.6840   74.8640  221.0560 C   0  0  0  0  0  0  0  0  0  0  0  0
  140.2500   76.1380  221.5030 C   0  0  0  0  0  0  0  0  0  0  0  0
  139.9420   76.5090  222.6940 O   0  0  0  0  0  0  0  0  0  0  0  0
  141.0890   77.0020  220.7880 N   0  0  0  0  0  0  0  0  0  0  0  0
  142.2620   76.4850  220.0400 C   0  0  0  0  0  0  0  0  0  0  0  0
  142.1250   77.2900  218.7520 C   0  0  2  0  0  0  0  0  0  0  0  0
  143.3220   77.8200  218.3290 O   0  0  0  0  0  0  0  0  0  0  0  0
  141.1610   78.4220  219.0360 C   0  0  0  0  0  0  0  0  0  0  0  0
  141.1270   78.4180  220.5550 C   0  0  1  0  0  0  0  0  0  0  0  0
  140.0330   79.2320  221.1210 C   0  0  0  0  0  0  0  0  0  0  0  0
  140.6380   80.0130  222.2200 N   0  0  0  0  0  0  0  0  0  0  0  0
  140.4870   79.3280  223.4780 C   0  0  0  0  0  0  0  0  0  0  0  0
  141.8220   79.3000  224.1700 C   0  0  0  0  0  0  0  0  0  0  0  0
  142.7360   80.1490  223.3190 C   0  0  0  0  0  0  0  0  0  0  0  0
  142.0260   80.2400  221.9930 C   0  0  0  0  0  0  0  0  0  0  0  0
  139.9930   71.5500  222.9680 C   0  0  0  0  0  0  0  0  0  0  0  0
  139.4620   70.2740  222.7480 C   0  0  0  0  0  0  0  0  0  0  0  0
  139.4930   69.4100  223.8310 C   0  0  0  0  0  0  0  0  0  0  0  0
  140.0030   69.7470  225.0540 C   0  0  0  0  0  0  0  0  0  0  0  0
  140.0210   68.8550  226.1280 C   0  0  0  0  0  0  0  0  0  0  0  0
  140.5650   69.3250  227.3110 C   0  0  0  0  0  0  0  0  0  0  0  0
  140.6280   68.2710  228.7100 Cl  0  0  0  0  0  0  0  0  0  0  0  0
  141.0720   70.5990  227.4540 C   0  0  0  0  0  0  0  0  0  0  0  0
  141.0520   71.4810  226.3880 C   0  0  0  0  0  0  0  0  0  0  0  0
  140.5110   71.0210  225.2060 C   0  0  0  0  0  0  0  0  0  0  0  0
  140.4890   71.8730  224.1640 N   0  0  0  0  0  0  0  0  0  0  0  0
  139.5480   74.1700  223.1320 H   0  0  0  0  0  0  0  0  0  0  0  0
  140.2682   74.4911  220.2018 H   0  0  0  0  0  0  0  0  0  0  0  0
  138.6364   75.0297  220.7644 H   0  0  0  0  0  0  0  0  0  0  0  0
  143.2067   76.7026  220.5597 H   0  0  0  0  0  0  0  0  0  0  0  0
  142.2837   75.3934  219.9059 H   0  0  0  0  0  0  0  0  0  0  0  0
  141.7689   76.6229  217.9532 H   0  0  0  0  0  0  0  0  0  0  0  0
  143.9940   77.8790  219.0490 H   0  0  0  0  0  0  0  0  0  0  0  0
  141.5383   79.3785  218.6452 H   0  0  0  0  0  0  0  0  0  0  0  0
  140.1744   78.2993  218.5653 H   0  0  0  0  0  0  0  0  0  0  0  0
  141.9686   78.9065  221.0679 H   0  0  0  0  0  0  0  0  0  0  0  0
  139.6207   79.9051  220.3548 H   0  0  0  0  0  0  0  0  0  0  0  0
  139.2050   78.6031  221.4799 H   0  0  0  0  0  0  0  0  0  0  0  0
  139.7556   79.8596  224.1044 H   0  0  0  0  0  0  0  0  0  0  0  0
  140.1295   78.3018  223.3075 H   0  0  0  0  0  0  0  0  0  0  0  0
  141.7388   79.7211  225.1828 H   0  0  0  0  0  0  0  0  0  0  0  0
  142.2032   78.2740  224.2796 H   0  0  0  0  0  0  0  0  0  0  0  0
  142.8654   81.1476  223.7617 H   0  0  0  0  0  0  0  0  0  0  0  0
  143.7455   79.7215  223.2284 H   0  0  0  0  0  0  0  0  0  0  0  0
  142.1745   81.2393  221.5579 H   0  0  0  0  0  0  0  0  0  0  0  0
  142.4261   79.4914  221.2933 H   0  0  0  0  0  0  0  0  0  0  0  0
  139.0455   69.9751  221.7748 H   0  0  0  0  0  0  0  0  0  0  0  0
  139.0847   68.3971  223.6995 H   0  0  0  0  0  0  0  0  0  0  0  0
  139.6240   67.8330  226.0388 H   0  0  0  0  0  0  0  0  0  0  0  0
  141.4941   70.9156  228.4192 H   0  0  0  0  0  0  0  0  0  0  0  0
  141.4496   72.5026  226.4793 H   0  0  0  0  0  0  0  0  0  0  0  0
  1  2  2  0
  2  3  1  0
  3  4  1  0
  4  5  1  0
  5  6  2  0
  5  7  1  0
  7  8  1  0
  8  9  1  0
  9 10  1  0
  9 11  1  0
 11 12  1  0
 12 13  1  0
 13 14  1  0
 14 15  1  0
 15 16  1  0
 16 17  1  0
 17 18  1  0
  2 19  1  0
 19 20  2  0
 20 21  1  0
 21 22  2  0
 22 23  1  0
 23 24  2  0
 24 25  1  0
 24 26  1  0
 26 27  2  0
 27 28  1  0
 28 29  2  0
 12  7  1  0
 18 14  1  0
 29 19  1  0
 28 22  1  0
  3 30  1  0
  4 31  1  0
  4 32  1  0
  8 33  1  0
  8 34  1  0
  9 35  1  6
 10 36  1  0
 11 37  1  0
 11 38  1  0
 12 39  1  1
 13 40  1  0
 13 41  1  0
 15 42  1  0
 15 43  1  0
 16 44  1  0
 16 45  1  0
 17 46  1  0
 17 47  1  0
 18 48  1  0
 18 49  1  0
 20 50  1  0
 21 51  1  0
 23 52  1  0
 26 53  1  0
 27 54  1  0
M  END
>  <meeko>  (12) 
{"free_energy": -8.37, "intermolecular_energy": -10.46, "internal_energy": -1.94, "cluster_size": 18, "cluster_id": 1, "rank_in_cluster": 11}

$$$$

     RDKit          3D

 54 57  0  0  0  0  0  0  0  0999 V2000
  140.1400   72.2430  220.6730 O   0  0  0  0  0  0  0  0  0  0  0  0
  139.9580   72.6300  221.8540 C   0  0  0  0  0  0  0  0  0  0  0  0
  139.7340   74.0020  222.1600 N   0  0  0  0  0  0  0  0  0  0  0  0
  139.7120   75.0070  221.0810 C   0  0  0  0  0  0  0  0  0  0  0  0
  140.4090   76.2280  221.4860 C   0  0  0  0  0  0  0  0  0  0  0  0
  140.3040   76.5580  222.7230 O   0  0  0  0  0  0  0  0  0  0  0  0
  141.1800   77.0820  220.6860 N   0  0  0  0  0  0  0  0  0  0  0  0
  142.3110   76.5600  219.8780 C   0  0  0  0  0  0  0  0  0  0  0  0
  142.0700   77.3160  218.5750 C   0  0  2  0  0  0  0  0  0  0  0  0
  143.2240   77.8520  218.0540 O   0  0  0  0  0  0  0  0  0  0  0  0
  141.1040   78.4390  218.8860 C   0  0  0  0  0  0  0  0  0  0  0  0
  141.1730   78.4890  220.4020 C   0  0  1  0  0  0  0  0  0  0  0  0
  140.1030   79.3020  221.0130 C   0  0  0  0  0  0  0  0  0  0  0  0
  140.7510   80.0820  222.0870 N   0  0  0  0  0  0  0  0  0  0  0  0
  140.5770   79.4380  223.3640 C   0  0  0  0  0  0  0  0  0  0  0  0
  141.9150   79.3650  224.0480 C   0  0  0  0  0  0  0  0  0  0  0  0
  142.8610   80.1480  223.1690 C   0  0  0  0  0  0  0  0  0  0  0  0
  142.1460   80.2380  221.8460 C   0  0  0  0  0  0  0  0  0  0  0  0
  139.9650   71.6840  222.9850 C   0  0  0  0  0  0  0  0  0  0  0  0
  139.3970   70.4230  222.7710 C   0  0  0  0  0  0  0  0  0  0  0  0
  139.4190   69.5570  223.8530 C   0  0  0  0  0  0  0  0  0  0  0  0
  139.9560   69.8780  225.0690 C   0  0  0  0  0  0  0  0  0  0  0  0
  139.9640   68.9840  226.1420 C   0  0  0  0  0  0  0  0  0  0  0  0
  140.5380   69.4360  227.3170 C   0  0  0  0  0  0  0  0  0  0  0  0
  140.5910   68.3790  228.7140 Cl  0  0  0  0  0  0  0  0  0  0  0  0
  141.0810   70.6960  227.4540 C   0  0  0  0  0  0  0  0  0  0  0  0
  141.0710   71.5800  226.3890 C   0  0  0  0  0  0  0  0  0  0  0  0
  140.5010   71.1370  225.2140 C   0  0  0  0  0  0  0  0  0  0  0  0
  140.4870   71.9910  224.1740 N   0  0  0  0  0  0  0  0  0  0  0  0
  139.5820   74.3120  223.1570 H   0  0  0  0  0  0  0  0  0  0  0  0
  140.2056   74.5897  220.1909 H   0  0  0  0  0  0  0  0  0  0  0  0
  138.6646   75.2592  220.8589 H   0  0  0  0  0  0  0  0  0  0  0  0
  143.2839   76.8137  220.3242 H   0  0  0  0  0  0  0  0  0  0  0  0
  142.3468   75.4649  219.7807 H   0  0  0  0  0  0  0  0  0  0  0  0
  141.6744   76.6151  217.8252 H   0  0  0  0  0  0  0  0  0  0  0  0
  143.7860   78.2960  218.7340 H   0  0  0  0  0  0  0  0  0  0  0  0
  141.4335   79.3878  218.4376 H   0  0  0  0  0  0  0  0  0  0  0  0
  140.0905   78.2807  218.4889 H   0  0  0  0  0  0  0  0  0  0  0  0
  142.0372   79.0111  220.8386 H   0  0  0  0  0  0  0  0  0  0  0  0
  139.6597   79.9757  220.2649 H   0  0  0  0  0  0  0  0  0  0  0  0
  139.2907   78.6721  221.4048 H   0  0  0  0  0  0  0  0  0  0  0  0
  139.8763   80.0200  223.9807 H   0  0  0  0  0  0  0  0  0  0  0  0
  140.1699   78.4259  223.2233 H   0  0  0  0  0  0  0  0  0  0  0  0
  141.8596   79.8154  225.0500 H   0  0  0  0  0  0  0  0  0  0  0  0
  142.2486   78.3254  224.1819 H   0  0  0  0  0  0  0  0  0  0  0  0
  143.0404   81.1505  223.5846 H   0  0  0  0  0  0  0  0  0  0  0  0
  143.8486   79.6714  223.0830 H   0  0  0  0  0  0  0  0  0  0  0  0
  142.3376   81.2178  221.3842 H   0  0  0  0  0  0  0  0  0  0  0  0
  142.5055   79.4537  221.1637 H   0  0  0  0  0  0  0  0  0  0  0  0
  138.9598   70.1366  221.8031 H   0  0  0  0  0  0  0  0  0  0  0  0
  138.9803   68.5562  223.7266 H   0  0  0  0  0  0  0  0  0  0  0  0
  139.5366   67.9740  226.0574 H   0  0  0  0  0  0  0  0  0  0  0  0
  141.5241   71.0000  228.4138 H   0  0  0  0  0  0  0  0  0  0  0  0
  141.4982   72.5899  226.4759 H   0  0  0  0  0  0  0  0  0  0  0  0
  1  2  2  0
  2  3  1  0
  3  4  1  0
  4  5  1  0
  5  6  2  0
  5  7  1  0
  7  8  1  0
  8  9  1  0
  9 10  1  0
  9 11  1  0
 11 12  1  0
 12 13  1  0
 13 14  1  0
 14 15  1  0
 15 16  1  0
 16 17  1  0
 17 18  1  0
  2 19  1  0
 19 20  2  0
 20 21  1  0
 21 22  2  0
 22 23  1  0
 23 24  2  0
 24 25  1  0
 24 26  1  0
 26 27  2  0
 27 28  1  0
 28 29  2  0
 12  7  1  0
 18 14  1  0
 29 19  1  0
 28 22  1  0
  3 30  1  0
  4 31  1  0
  4 32  1  0
  8 33  1  0
  8 34  1  0
  9 35  1  6
 10 36  1  0
 11 37  1  0
 11 38  1  0
 12 39  1  6
 13 40  1  0
 13 41  1  0
 15 42  1  0
 15 43  1  0
 16 44  1  0
 16 45  1  0
 17 46  1  0
 17 47  1  0
 18 48  1  0
 18 49  1  0
 20 50  1  0
 21 51  1  0
 23 52  1  0
 26 53  1  0
 27 54  1  0
M  END
>  <meeko>  (13) 
{"free_energy": -8.27, "intermolecular_energy": -10.36, "internal_energy": -1.97, "cluster_size": 18, "cluster_id": 1, "rank_in_cluster": 14}

$$$$

     RDKit          3D

 54 57  0  0  0  0  0  0  0  0999 V2000
  140.0450   72.1110  220.6600 O   0  0  0  0  0  0  0  0  0  0  0  0
  139.9020   72.5000  221.8460 C   0  0  0  0  0  0  0  0  0  0  0  0
  139.6850   73.8720  222.1560 N   0  0  0  0  0  0  0  0  0  0  0  0
  139.6250   74.8750  221.0760 C   0  0  0  0  0  0  0  0  0  0  0  0
  140.2710   76.1240  221.4810 C   0  0  0  0  0  0  0  0  0  0  0  0
  140.0450   76.5170  222.6830 O   0  0  0  0  0  0  0  0  0  0  0  0
  141.1100   76.9440  220.7150 N   0  0  0  0  0  0  0  0  0  0  0  0
  142.2700   76.3800  219.9810 C   0  0  0  0  0  0  0  0  0  0  0  0
  142.1260   77.1210  218.6560 C   0  0  2  0  0  0  0  0  0  0  0  0
  143.3220   77.6180  218.1950 O   0  0  0  0  0  0  0  0  0  0  0  0
  141.1740   78.2740  218.8940 C   0  0  0  0  0  0  0  0  0  0  0  0
  141.1570   78.3460  220.4110 C   0  0  1  0  0  0  0  0  0  0  0  0
  140.0760   79.1960  220.9470 C   0  0  0  0  0  0  0  0  0  0  0  0
  140.6950   80.0140  222.0100 N   0  0  0  0  0  0  0  0  0  0  0  0
  140.5370   79.3850  223.2970 C   0  0  0  0  0  0  0  0  0  0  0  0
  141.8730   79.3650  223.9870 C   0  0  0  0  0  0  0  0  0  0  0  0
  142.7970   80.1640  223.0990 C   0  0  0  0  0  0  0  0  0  0  0  0
  142.0860   80.2100  221.7720 C   0  0  0  0  0  0  0  0  0  0  0  0
  139.9500   71.5570  222.9790 C   0  0  0  0  0  0  0  0  0  0  0  0
  139.4400   70.2710  222.7650 C   0  0  0  0  0  0  0  0  0  0  0  0
  139.4990   69.4090  223.8480 C   0  0  0  0  0  0  0  0  0  0  0  0
  140.0180   69.7550  225.0650 C   0  0  0  0  0  0  0  0  0  0  0  0
  140.0640   68.8650  226.1390 C   0  0  0  0  0  0  0  0  0  0  0  0
  140.6130   69.3450  227.3150 C   0  0  0  0  0  0  0  0  0  0  0  0
  140.7120   68.2930  228.7140 Cl  0  0  0  0  0  0  0  0  0  0  0  0
  141.0980   70.6280  227.4520 C   0  0  0  0  0  0  0  0  0  0  0  0
  141.0490   71.5090  226.3860 C   0  0  0  0  0  0  0  0  0  0  0  0
  140.5030   71.0380  225.2100 C   0  0  0  0  0  0  0  0  0  0  0  0
  140.4530   71.8900  224.1690 N   0  0  0  0  0  0  0  0  0  0  0  0
  139.5670   74.1850  223.1570 H   0  0  0  0  0  0  0  0  0  0  0  0
  140.1371   74.4773  220.1874 H   0  0  0  0  0  0  0  0  0  0  0  0
  138.5687   75.0845  220.8518 H   0  0  0  0  0  0  0  0  0  0  0  0
  143.2223   76.6145  220.4792 H   0  0  0  0  0  0  0  0  0  0  0  0
  142.2805   75.2830  219.9011 H   0  0  0  0  0  0  0  0  0  0  0  0
  141.7560   76.4187  217.8945 H   0  0  0  0  0  0  0  0  0  0  0  0
  143.9180   77.9260  218.9190 H   0  0  0  0  0  0  0  0  0  0  0  0
  141.5543   79.2067  218.4519 H   0  0  0  0  0  0  0  0  0  0  0  0
  140.1812   78.1361  218.4408 H   0  0  0  0  0  0  0  0  0  0  0  0
  142.0083   78.8521  220.8896 H   0  0  0  0  0  0  0  0  0  0  0  0
  139.6686   79.8419  220.1552 H   0  0  0  0  0  0  0  0  0  0  0  0
  139.2420   78.5927  221.3350 H   0  0  0  0  0  0  0  0  0  0  0  0
  139.8157   79.9542  223.9019 H   0  0  0  0  0  0  0  0  0  0  0  0
  140.1632   78.3582  223.1707 H   0  0  0  0  0  0  0  0  0  0  0  0
  141.7991   79.8290  224.9816 H   0  0  0  0  0  0  0  0  0  0  0  0
  142.2389   78.3388  224.1388 H   0  0  0  0  0  0  0  0  0  0  0  0
  142.9421   81.1783  223.4992 H   0  0  0  0  0  0  0  0  0  0  0  0
  143.7997   79.7179  223.0245 H   0  0  0  0  0  0  0  0  0  0  0  0
  142.2488   81.1878  221.2951 H   0  0  0  0  0  0  0  0  0  0  0  0
  142.4732   79.4265  221.1040 H   0  0  0  0  0  0  0  0  0  0  0  0
  139.0184   69.9638  221.7966 H   0  0  0  0  0  0  0  0  0  0  0  0
  139.1064   68.3892  223.7219 H   0  0  0  0  0  0  0  0  0  0  0  0
  139.6839   67.8362  226.0551 H   0  0  0  0  0  0  0  0  0  0  0  0
  141.5255   70.9527  228.4121 H   0  0  0  0  0  0  0  0  0  0  0  0
  141.4281   72.5380  226.4724 H   0  0  0  0  0  0  0  0  0  0  0  0
  1  2  2  0
  2  3  1  0
  3  4  1  0
  4  5  1  0
  5  6  2  0
  5  7  1  0
  7  8  1  0
  8  9  1  0
  9 10  1  0
  9 11  1  0
 11 12  1  0
 12 13  1  0
 13 14  1  0
 14 15  1  0
 15 16  1  0
 16 17  1  0
 17 18  1  0
  2 19  1  0
 19 20  2  0
 20 21  1  0
 21 22  2  0
 22 23  1  0
 23 24  2  0
 24 25  1  0
 24 26  1  0
 26 27  2  0
 27 28  1  0
 28 29  2  0
 12  7  1  0
 18 14  1  0
 29 19  1  0
 28 22  1  0
  3 30  1  0
  4 31  1  0
  4 32  1  0
  8 33  1  0
  8 34  1  0
  9 35  1  6
 10 36  1  0
 11 37  1  0
 11 38  1  0
 12 39  1  1
 13 40  1  0
 13 41  1  0
 15 42  1  0
 15 43  1  0
 16 44  1  0
 16 45  1  0
 17 46  1  0
 17 47  1  0
 18 48  1  0
 18 49  1  0
 20 50  1  0
 21 51  1  0
 23 52  1  0
 26 53  1  0
 27 54  1  0
M  END
>  <meeko>  (14) 
{"free_energy": -8.35, "intermolecular_energy": -10.44, "internal_energy": -1.94, "cluster_size": 18, "cluster_id": 1, "rank_in_cluster": 13}

$$$$

     RDKit          3D

 54 57  0  0  0  0  0  0  0  0999 V2000
  141.4180   73.0040  221.5550 O   0  0  0  0  0  0  0  0  0  0  0  0
  140.3960   72.9220  222.2810 C   0  0  0  0  0  0  0  0  0  0  0  0
  139.2950   73.8090  222.1160 N   0  0  0  0  0  0  0  0  0  0  0  0
  139.3370   74.8550  221.0770 C   0  0  0  0  0  0  0  0  0  0  0  0
  140.2420   75.9410  221.4600 C   0  0  0  0  0  0  0  0  0  0  0  0
  140.1640   76.3420  222.6780 O   0  0  0  0  0  0  0  0  0  0  0  0
  141.1860   76.5940  220.6570 N   0  0  0  0  0  0  0  0  0  0  0  0
  142.3690   75.8740  220.1260 C   0  0  0  0  0  0  0  0  0  0  0  0
  142.3770   76.4040  218.6960 C   0  0  2  0  0  0  0  0  0  0  0  0
  143.6330   76.7720  218.2750 O   0  0  0  0  0  0  0  0  0  0  0  0
  141.4750   77.6200  218.6690 C   0  0  0  0  0  0  0  0  0  0  0  0
  141.3370   77.9280  220.1500 C   0  0  1  0  0  0  0  0  0  0  0  0
  140.2650   78.8980  220.4510 C   0  0  0  0  0  0  0  0  0  0  0  0
  140.7700   79.7240  221.5670 N   0  0  0  0  0  0  0  0  0  0  0  0
  140.2690   79.2420  222.8280 C   0  0  0  0  0  0  0  0  0  0  0  0
  141.4230   79.1170  223.7850 C   0  0  0  0  0  0  0  0  0  0  0  0
  142.6110   79.7060  223.0620 C   0  0  0  0  0  0  0  0  0  0  0  0
  142.1930   79.7200  221.6140 C   0  0  0  0  0  0  0  0  0  0  0  0
  140.2810   71.9010  223.3390 C   0  0  0  0  0  0  0  0  0  0  0  0
  139.6650   70.6910  222.9990 C   0  0  0  0  0  0  0  0  0  0  0  0
  139.5730   69.7530  224.0150 C   0  0  0  0  0  0  0  0  0  0  0  0
  140.0430   69.9600  225.2820 C   0  0  0  0  0  0  0  0  0  0  0  0
  139.9360   68.9960  226.2870 C   0  0  0  0  0  0  0  0  0  0  0  0
  140.4520   69.3350  227.5250 C   0  0  0  0  0  0  0  0  0  0  0  0
  140.3610   68.1830  228.8430 Cl  0  0  0  0  0  0  0  0  0  0  0  0
  141.0480   70.5500  227.7860 C   0  0  0  0  0  0  0  0  0  0  0  0
  141.1520   71.5040  226.7890 C   0  0  0  0  0  0  0  0  0  0  0  0
  140.6390   71.1740  225.5520 C   0  0  0  0  0  0  0  0  0  0  0  0
  140.7370   72.0970  224.5770 N   0  0  0  0  0  0  0  0  0  0  0  0
  138.4420   73.7280  222.7320 H   0  0  0  0  0  0  0  0  0  0  0  0
  139.6875   74.4108  220.1337 H   0  0  0  0  0  0  0  0  0  0  0  0
  138.3251   75.2690  220.9562 H   0  0  0  0  0  0  0  0  0  0  0  0
  143.2882   76.1432  220.6669 H   0  0  0  0  0  0  0  0  0  0  0  0
  142.3250   74.7785  220.2154 H   0  0  0  0  0  0  0  0  0  0  0  0
  142.0326   75.6074  218.0201 H   0  0  0  0  0  0  0  0  0  0  0  0
  144.2740   76.0210  218.2660 H   0  0  0  0  0  0  0  0  0  0  0  0
  141.9426   78.4551  218.1268 H   0  0  0  0  0  0  0  0  0  0  0  0
  140.5169   77.4563  218.1539 H   0  0  0  0  0  0  0  0  0  0  0  0
  142.1730   78.4650  220.6219 H   0  0  0  0  0  0  0  0  0  0  0  0
  140.0594   79.5265  219.5720 H   0  0  0  0  0  0  0  0  0  0  0  0
  139.3245   78.3924  220.7153 H   0  0  0  0  0  0  0  0  0  0  0  0
  139.5299   79.9512  223.2289 H   0  0  0  0  0  0  0  0  0  0  0  0
  139.7853   78.2635  222.6917 H   0  0  0  0  0  0  0  0  0  0  0  0
  141.2187   79.6774  224.7092 H   0  0  0  0  0  0  0  0  0  0  0  0
  141.5999   78.0714  224.0773 H   0  0  0  0  0  0  0  0  0  0  0  0
  142.8180   80.7260  223.4182 H   0  0  0  0  0  0  0  0  0  0  0  0
  143.5334   79.1304  223.2287 H   0  0  0  0  0  0  0  0  0  0  0  0
  142.5853   80.6216  221.1209 H   0  0  0  0  0  0  0  0  0  0  0  0
  142.5901   78.8363  221.0930 H   0  0  0  0  0  0  0  0  0  0  0  0
  139.2778   70.4966  221.9879 H   0  0  0  0  0  0  0  0  0  0  0  0
  139.0952   68.7882  223.7894 H   0  0  0  0  0  0  0  0  0  0  0  0
  139.4661   68.0185  226.1037 H   0  0  0  0  0  0  0  0  0  0  0  0
  141.4425   70.7622  228.7907 H   0  0  0  0  0  0  0  0  0  0  0  0
  141.6223   72.4809  226.9746 H   0  0  0  0  0  0  0  0  0  0  0  0
  1  2  2  0
  2  3  1  0
  3  4  1  0
  4  5  1  0
  5  6  2  0
  5  7  1  0
  7  8  1  0
  8  9  1  0
  9 10  1  0
  9 11  1  0
 11 12  1  0
 12 13  1  0
 13 14  1  0
 14 15  1  0
 15 16  1  0
 16 17  1  0
 17 18  1  0
  2 19  1  0
 19 20  2  0
 20 21  1  0
 21 22  2  0
 22 23  1  0
 23 24  2  0
 24 25  1  0
 24 26  1  0
 26 27  2  0
 27 28  1  0
 28 29  2  0
 12  7  1  0
 18 14  1  0
 29 19  1  0
 28 22  1  0
  3 30  1  0
  4 31  1  0
  4 32  1  0
  8 33  1  0
  8 34  1  0
  9 35  1  6
 10 36  1  0
 11 37  1  0
 11 38  1  0
 12 39  1  1
 13 40  1  0
 13 41  1  0
 15 42  1  0
 15 43  1  0
 16 44  1  0
 16 45  1  0
 17 46  1  0
 17 47  1  0
 18 48  1  0
 18 49  1  0
 20 50  1  0
 21 51  1  0
 23 52  1  0
 26 53  1  0
 27 54  1  0
M  END
>  <meeko>  (15) 
{"free_energy": -8.05, "intermolecular_energy": -10.13, "internal_energy": -1.64, "cluster_size": 18, "cluster_id": 1, "rank_in_cluster": 16}

$$$$

     RDKit          3D

 54 57  0  0  0  0  0  0  0  0999 V2000
  139.3390   72.7380  220.4800 O   0  0  0  0  0  0  0  0  0  0  0  0
  139.9250   72.9670  221.5670 C   0  0  0  0  0  0  0  0  0  0  0  0
  140.6300   74.1830  221.7890 N   0  0  0  0  0  0  0  0  0  0  0  0
  140.6890   75.2090  220.7310 C   0  0  0  0  0  0  0  0  0  0  0  0
  141.1510   76.4900  221.2660 C   0  0  0  0  0  0  0  0  0  0  0  0
  141.1040   76.6240  222.5430 O   0  0  0  0  0  0  0  0  0  0  0  0
  141.6430   77.5910  220.5510 N   0  0  0  0  0  0  0  0  0  0  0  0
  142.6170   77.4130  219.4460 C   0  0  0  0  0  0  0  0  0  0  0  0
  142.0270   78.3760  218.4210 C   0  0  2  0  0  0  0  0  0  0  0  0
  142.9830   79.1670  217.8280 O   0  0  0  0  0  0  0  0  0  0  0  0
  141.0450   79.2620  219.1580 C   0  0  0  0  0  0  0  0  0  0  0  0
  141.4360   79.0100  220.6040 C   0  0  1  0  0  0  0  0  0  0  0  0
  140.4490   79.5190  221.5770 C   0  0  0  0  0  0  0  0  0  0  0  0
  141.1660   79.6210  222.8650 N   0  0  0  0  0  0  0  0  0  0  0  0
  142.5780   79.3970  222.6830 C   0  0  0  0  0  0  0  0  0  0  0  0
  143.3300   80.4990  223.3770 C   0  0  0  0  0  0  0  0  0  0  0  0
  142.2820   81.2990  224.1160 C   0  0  0  0  0  0  0  0  0  0  0  0
  140.9850   80.9020  223.4610 C   0  0  0  0  0  0  0  0  0  0  0  0
  139.9090   71.9900  222.6720 C   0  0  0  0  0  0  0  0  0  0  0  0
  139.2860   70.7600  222.4320 C   0  0  0  0  0  0  0  0  0  0  0  0
  139.2880   69.8640  223.4890 C   0  0  0  0  0  0  0  0  0  0  0  0
  139.8560   70.1280  224.7050 C   0  0  0  0  0  0  0  0  0  0  0  0
  139.8440   69.2060  225.7530 C   0  0  0  0  0  0  0  0  0  0  0  0
  140.4540   69.6010  226.9300 C   0  0  0  0  0  0  0  0  0  0  0  0
  140.4850   68.5040  228.2970 Cl  0  0  0  0  0  0  0  0  0  0  0  0
  141.0510   70.8330  227.0930 C   0  0  0  0  0  0  0  0  0  0  0  0
  141.0610   71.7450  226.0530 C   0  0  0  0  0  0  0  0  0  0  0  0
  140.4550   71.3590  224.8760 C   0  0  0  0  0  0  0  0  0  0  0  0
  140.4610   72.2420  223.8600 N   0  0  0  0  0  0  0  0  0  0  0  0
  141.1170   74.3630  222.7090 H   0  0  0  0  0  0  0  0  0  0  0  0
  141.3835   74.8760  219.9457 H   0  0  0  0  0  0  0  0  0  0  0  0
  139.6780   75.3459  220.3197 H   0  0  0  0  0  0  0  0  0  0  0  0
  143.6337   77.7072  219.7457 H   0  0  0  0  0  0  0  0  0  0  0  0
  142.7380   76.3775  219.0952 H   0  0  0  0  0  0  0  0  0  0  0  0
  141.5495   77.7933  217.6194 H   0  0  0  0  0  0  0  0  0  0  0  0
  143.4750   78.7060  217.1080 H   0  0  0  0  0  0  0  0  0  0  0  0
  141.1749   80.3197  218.8851 H   0  0  0  0  0  0  0  0  0  0  0  0
  139.9900   79.0452  218.9344 H   0  0  0  0  0  0  0  0  0  0  0  0
  142.3189   79.5501  220.9766 H   0  0  0  0  0  0  0  0  0  0  0  0
  140.0791   80.5070  221.2656 H   0  0  0  0  0  0  0  0  0  0  0  0
  139.5759   78.8541  221.6522 H   0  0  0  0  0  0  0  0  0  0  0  0
  142.8585   78.4260  223.1171 H   0  0  0  0  0  0  0  0  0  0  0  0
  142.8232   79.3910  221.6107 H   0  0  0  0  0  0  0  0  0  0  0  0
  144.0622   80.0797  224.0828 H   0  0  0  0  0  0  0  0  0  0  0  0
  143.8918   81.1213  222.6649 H   0  0  0  0  0  0  0  0  0  0  0  0
  142.2748   81.0394  225.1849 H   0  0  0  0  0  0  0  0  0  0  0  0
  142.4655   82.3824  224.0655 H   0  0  0  0  0  0  0  0  0  0  0  0
  140.1857   80.8531  224.2152 H   0  0  0  0  0  0  0  0  0  0  0  0
  140.7007   81.6414  222.6978 H   0  0  0  0  0  0  0  0  0  0  0  0
  138.8231   70.5193  221.4636 H   0  0  0  0  0  0  0  0  0  0  0  0
  138.8061   68.8862  223.3420 H   0  0  0  0  0  0  0  0  0  0  0  0
  139.3740   68.2170  225.6484 H   0  0  0  0  0  0  0  0  0  0  0  0
  141.5210   71.0916  228.0533 H   0  0  0  0  0  0  0  0  0  0  0  0
  141.5312   72.7337  226.1600 H   0  0  0  0  0  0  0  0  0  0  0  0
  1  2  2  0
  2  3  1  0
  3  4  1  0
  4  5  1  0
  5  6  2  0
  5  7  1  0
  7  8  1  0
  8  9  1  0
  9 10  1  0
  9 11  1  0
 11 12  1  0
 12 13  1  0
 13 14  1  0
 14 15  1  0
 15 16  1  0
 16 17  1  0
 17 18  1  0
  2 19  1  0
 19 20  2  0
 20 21  1  0
 21 22  2  0
 22 23  1  0
 23 24  2  0
 24 25  1  0
 24 26  1  0
 26 27  2  0
 27 28  1  0
 28 29  2  0
 12  7  1  0
 18 14  1  0
 29 19  1  0
 28 22  1  0
  3 30  1  0
  4 31  1  0
  4 32  1  0
  8 33  1  0
  8 34  1  0
  9 35  1  6
 10 36  1  0
 11 37  1  0
 11 38  1  0
 12 39  1  1
 13 40  1  0
 13 41  1  0
 15 42  1  0
 15 43  1  0
 16 44  1  0
 16 45  1  0
 17 46  1  0
 17 47  1  0
 18 48  1  0
 18 49  1  0
 20 50  1  0
 21 51  1  0
 23 52  1  0
 26 53  1  0
 27 54  1  0
M  END
>  <meeko>  (16) 
{"free_energy": -7.93, "intermolecular_energy": -10.02, "internal_energy": -2.04, "cluster_size": 18, "cluster_id": 1, "rank_in_cluster": 17}

$$$$

     RDKit          3D

 54 57  0  0  0  0  0  0  0  0999 V2000
  140.4730   72.4660  220.6970 O   0  0  0  0  0  0  0  0  0  0  0  0
  140.0420   72.7790  221.8350 C   0  0  0  0  0  0  0  0  0  0  0  0
  139.5150   74.0750  222.0980 N   0  0  0  0  0  0  0  0  0  0  0  0
  139.4670   75.0870  221.0260 C   0  0  0  0  0  0  0  0  0  0  0  0
  140.7720   75.7230  220.8440 C   0  0  0  0  0  0  0  0  0  0  0  0
  141.4700   75.9010  221.9080 O   0  0  0  0  0  0  0  0  0  0  0  0
  141.3540   76.1610  219.6470 N   0  0  0  0  0  0  0  0  0  0  0  0
  141.1210   77.5370  219.1410 C   0  0  0  0  0  0  0  0  0  0  0  0
  142.5380   77.8980  218.7070 C   0  0  2  0  0  0  0  0  0  0  0  0
  142.5750   78.5000  217.4720 O   0  0  0  0  0  0  0  0  0  0  0  0
  143.3260   76.6060  218.6460 C   0  0  0  0  0  0  0  0  0  0  0  0
  142.2140   75.5710  218.6610 C   0  0  1  0  0  0  0  0  0  0  0  0
  142.6930   74.1970  218.9090 C   0  0  0  0  0  0  0  0  0  0  0  0
  144.0750   74.3360  219.4140 N   0  0  0  0  0  0  0  0  0  0  0  0
  144.1220   74.1320  220.8390 C   0  0  0  0  0  0  0  0  0  0  0  0
  145.2260   73.1580  221.1460 C   0  0  0  0  0  0  0  0  0  0  0  0
  145.9330   72.9220  219.8320 C   0  0  0  0  0  0  0  0  0  0  0  0
  144.9510   73.3990  218.7940 C   0  0  0  0  0  0  0  0  0  0  0  0
  140.0570   71.8220  222.9560 C   0  0  0  0  0  0  0  0  0  0  0  0
  139.5660   70.5350  222.7080 C   0  0  0  0  0  0  0  0  0  0  0  0
  139.5940   69.6590  223.7810 C   0  0  0  0  0  0  0  0  0  0  0  0
  140.0660   69.9930  225.0200 C   0  0  0  0  0  0  0  0  0  0  0  0
  140.0810   69.0890  226.0840 C   0  0  0  0  0  0  0  0  0  0  0  0
  140.5850   69.5570  227.2840 C   0  0  0  0  0  0  0  0  0  0  0  0
  140.6430   68.4880  228.6720 Cl  0  0  0  0  0  0  0  0  0  0  0  0
  141.0540   70.8420  227.4550 C   0  0  0  0  0  0  0  0  0  0  0  0
  141.0360   71.7360  226.3990 C   0  0  0  0  0  0  0  0  0  0  0  0
  140.5360   71.2780  225.1990 C   0  0  0  0  0  0  0  0  0  0  0  0
  140.5160   72.1420  224.1670 N   0  0  0  0  0  0  0  0  0  0  0  0
  139.1560   74.3240  223.0590 H   0  0  0  0  0  0  0  0  0  0  0  0
  139.1701   74.6002  220.0853 H   0  0  0  0  0  0  0  0  0  0  0  0
  138.7374   75.8605  221.3078 H   0  0  0  0  0  0  0  0  0  0  0  0
  140.4187   77.5480  218.2945 H   0  0  0  0  0  0  0  0  0  0  0  0
  140.6663   78.2283  219.8658 H   0  0  0  0  0  0  0  0  0  0  0  0
  142.9582   78.6154  219.4272 H   0  0  0  0  0  0  0  0  0  0  0  0
  143.4000   79.0200  217.3190 H   0  0  0  0  0  0  0  0  0  0  0  0
  143.9218   76.5421  217.7236 H   0  0  0  0  0  0  0  0  0  0  0  0
  144.0582   76.4889  219.4585 H   0  0  0  0  0  0  0  0  0  0  0  0
  141.6978   75.3887  217.7069 H   0  0  0  0  0  0  0  0  0  0  0  0
  142.0596   73.7003  219.6587 H   0  0  0  0  0  0  0  0  0  0  0  0
  142.6559   73.5849  217.9958 H   0  0  0  0  0  0  0  0  0  0  0  0
  144.3202   75.0887  221.3444 H   0  0  0  0  0  0  0  0  0  0  0  0
  143.1597   73.7350  221.1946 H   0  0  0  0  0  0  0  0  0  0  0  0
  145.9203   73.5844  221.8850 H   0  0  0  0  0  0  0  0  0  0  0  0
  144.8373   72.2222  221.5741 H   0  0  0  0  0  0  0  0  0  0  0  0
  146.8666   73.5016  219.7815 H   0  0  0  0  0  0  0  0  0  0  0  0
  146.2186   71.8692  219.6900 H   0  0  0  0  0  0  0  0  0  0  0  0
  145.4891   73.8828  217.9655 H   0  0  0  0  0  0  0  0  0  0  0  0
  144.3791   72.5503  218.3907 H   0  0  0  0  0  0  0  0  0  0  0  0
  139.1813   70.2372  221.7214 H   0  0  0  0  0  0  0  0  0  0  0  0
  139.2153   68.6377  223.6276 H   0  0  0  0  0  0  0  0  0  0  0  0
  139.7114   68.0588  225.9737 H   0  0  0  0  0  0  0  0  0  0  0  0
  141.4438   71.1577  228.4340 H   0  0  0  0  0  0  0  0  0  0  0  0
  141.4043   72.7663  226.5122 H   0  0  0  0  0  0  0  0  0  0  0  0
  1  2  2  0
  2  3  1  0
  3  4  1  0
  4  5  1  0
  5  6  2  0
  5  7  1  0
  7  8  1  0
  8  9  1  0
  9 10  1  0
  9 11  1  0
 11 12  1  0
 12 13  1  0
 13 14  1  0
 14 15  1  0
 15 16  1  0
 16 17  1  0
 17 18  1  0
  2 19  1  0
 19 20  2  0
 20 21  1  0
 21 22  2  0
 22 23  1  0
 23 24  2  0
 24 25  1  0
 24 26  1  0
 26 27  2  0
 27 28  1  0
 28 29  2  0
 12  7  1  0
 18 14  1  0
 29 19  1  0
 28 22  1  0
  3 30  1  0
  4 31  1  0
  4 32  1  0
  8 33  1  0
  8 34  1  0
  9 35  1  1
 10 36  1  0
 11 37  1  0
 11 38  1  0
 12 39  1  6
 13 40  1  0
 13 41  1  0
 15 42  1  0
 15 43  1  0
 16 44  1  0
 16 45  1  0
 17 46  1  0
 17 47  1  0
 18 48  1  0
 18 49  1  0
 20 50  1  0
 21 51  1  0
 23 52  1  0
 26 53  1  0
 27 54  1  0
M  END
>  <meeko>  (17) 
{"free_energy": -7.84, "intermolecular_energy": -9.93, "internal_energy": -1.83, "cluster_size": 1, "cluster_id": 2, "rank_in_cluster": 1}

$$$$

     RDKit          3D

 54 57  0  0  0  0  0  0  0  0999 V2000
  139.8680   72.2130  220.7240 O   0  0  0  0  0  0  0  0  0  0  0  0
  139.7840   72.5970  221.9180 C   0  0  0  0  0  0  0  0  0  0  0  0
  139.6180   73.9720  222.2450 N   0  0  0  0  0  0  0  0  0  0  0  0
  139.5430   74.9840  221.1750 C   0  0  0  0  0  0  0  0  0  0  0  0
  140.1930   76.2310  221.5830 C   0  0  0  0  0  0  0  0  0  0  0  0
  139.8710   76.6870  222.7400 O   0  0  0  0  0  0  0  0  0  0  0  0
  141.1280   76.9860  220.8630 N   0  0  0  0  0  0  0  0  0  0  0  0
  142.1430   76.3300  220.0020 C   0  0  0  0  0  0  0  0  0  0  0  0
  142.0730   77.2380  218.7790 C   0  0  2  0  0  0  0  0  0  0  0  0
  143.3170   77.5830  218.3040 O   0  0  0  0  0  0  0  0  0  0  0  0
  141.3440   78.4960  219.2010 C   0  0  0  0  0  0  0  0  0  0  0  0
  141.4020   78.3870  220.7150 C   0  0  1  0  0  0  0  0  0  0  0  0
  140.5060   79.3340  221.4070 C   0  0  0  0  0  0  0  0  0  0  0  0
  141.1090   79.5630  222.7360 N   0  0  0  0  0  0  0  0  0  0  0  0
  142.5310   79.3370  222.6980 C   0  0  0  0  0  0  0  0  0  0  0  0
  143.2190   80.5070  223.3470 C   0  0  0  0  0  0  0  0  0  0  0  0
  142.1100   81.3620  223.9150 C   0  0  0  0  0  0  0  0  0  0  0  0
  140.8750   80.8930  223.1910 C   0  0  0  0  0  0  0  0  0  0  0  0
  139.8500   71.6440  223.0410 C   0  0  0  0  0  0  0  0  0  0  0  0
  139.3270   70.3630  222.8280 C   0  0  0  0  0  0  0  0  0  0  0  0
  139.4040   69.4910  223.9020 C   0  0  0  0  0  0  0  0  0  0  0  0
  139.9510   69.8240  225.1100 C   0  0  0  0  0  0  0  0  0  0  0  0
  140.0150   68.9240  226.1760 C   0  0  0  0  0  0  0  0  0  0  0  0
  140.5940   69.3910  227.3430 C   0  0  0  0  0  0  0  0  0  0  0  0
  140.7160   68.3270  228.7310 Cl  0  0  0  0  0  0  0  0  0  0  0  0
  141.0900   70.6700  227.4800 C   0  0  0  0  0  0  0  0  0  0  0  0
  141.0240   71.5600  226.4230 C   0  0  0  0  0  0  0  0  0  0  0  0
  140.4490   71.1030  225.2550 C   0  0  0  0  0  0  0  0  0  0  0  0
  140.3820   71.9630  224.2220 N   0  0  0  0  0  0  0  0  0  0  0  0
  139.5490   74.2810  223.2520 H   0  0  0  0  0  0  0  0  0  0  0  0
  140.0442   74.5948  220.2765 H   0  0  0  0  0  0  0  0  0  0  0  0
  138.4836   75.1941  220.9661 H   0  0  0  0  0  0  0  0  0  0  0  0
  143.1411   76.3427  220.4642 H   0  0  0  0  0  0  0  0  0  0  0  0
  141.9627   75.2638  219.8004 H   0  0  0  0  0  0  0  0  0  0  0  0
  141.5566   76.7023  217.9688 H   0  0  0  0  0  0  0  0  0  0  0  0
  143.9460   77.8410  219.0200 H   0  0  0  0  0  0  0  0  0  0  0  0
  141.8606   79.3988  218.8432 H   0  0  0  0  0  0  0  0  0  0  0  0
  140.3246   78.5804  218.7964 H   0  0  0  0  0  0  0  0  0  0  0  0
  142.3463   78.6838  221.1947 H   0  0  0  0  0  0  0  0  0  0  0  0
  140.4422   80.2790  220.8476 H   0  0  0  0  0  0  0  0  0  0  0  0
  139.4838   78.9362  221.4900 H   0  0  0  0  0  0  0  0  0  0  0  0
  142.7745   78.4139  223.2444 H   0  0  0  0  0  0  0  0  0  0  0  0
  142.8679   79.2329  221.6560 H   0  0  0  0  0  0  0  0  0  0  0  0
  143.8886   80.1629  224.1491 H   0  0  0  0  0  0  0  0  0  0  0  0
  143.8389   81.0654  222.6301 H   0  0  0  0  0  0  0  0  0  0  0  0
  142.0109   81.2031  224.9989 H   0  0  0  0  0  0  0  0  0  0  0  0
  142.2953   82.4377  223.7792 H   0  0  0  0  0  0  0  0  0  0  0  0
  140.0135   80.9073  223.8748 H   0  0  0  0  0  0  0  0  0  0  0  0
  140.6567   81.5549  222.3400 H   0  0  0  0  0  0  0  0  0  0  0  0
  138.8820   70.0668  221.8666 H   0  0  0  0  0  0  0  0  0  0  0  0
  139.0029   68.4746  223.7758 H   0  0  0  0  0  0  0  0  0  0  0  0
  139.6259   67.8985  226.0925 H   0  0  0  0  0  0  0  0  0  0  0  0
  141.5399   70.9840  228.4334 H   0  0  0  0  0  0  0  0  0  0  0  0
  141.4123   72.5855  226.5098 H   0  0  0  0  0  0  0  0  0  0  0  0
  1  2  2  0
  2  3  1  0
  3  4  1  0
  4  5  1  0
  5  6  2  0
  5  7  1  0
  7  8  1  0
  8  9  1  0
  9 10  1  0
  9 11  1  0
 11 12  1  0
 12 13  1  0
 13 14  1  0
 14 15  1  0
 15 16  1  0
 16 17  1  0
 17 18  1  0
  2 19  1  0
 19 20  2  0
 20 21  1  0
 21 22  2  0
 22 23  1  0
 23 24  2  0
 24 25  1  0
 24 26  1  0
 26 27  2  0
 27 28  1  0
 28 29  2  0
 12  7  1  0
 18 14  1  0
 29 19  1  0
 28 22  1  0
  3 30  1  0
  4 31  1  0
  4 32  1  0
  8 33  1  0
  8 34  1  0
  9 35  1  6
 10 36  1  0
 11 37  1  0
 11 38  1  0
 12 39  1  1
 13 40  1  0
 13 41  1  0
 15 42  1  0
 15 43  1  0
 16 44  1  0
 16 45  1  0
 17 46  1  0
 17 47  1  0
 18 48  1  0
 18 49  1  0
 20 50  1  0
 21 51  1  0
 23 52  1  0
 26 53  1  0
 27 54  1  0
M  END
>  <meeko>  (18) 
{"free_energy": -8.65, "intermolecular_energy": -10.74, "internal_energy": -1.73, "cluster_size": 18, "cluster_id": 1, "rank_in_cluster": 4}

$$$$

     RDKit          3D

 54 57  0  0  0  0  0  0  0  0999 V2000
  139.7600   72.0920  220.6720 O   0  0  0  0  0  0  0  0  0  0  0  0
  139.7210   72.4890  221.8630 C   0  0  0  0  0  0  0  0  0  0  0  0
  139.5860   73.8700  222.1820 N   0  0  0  0  0  0  0  0  0  0  0  0
  139.4890   74.8720  221.1040 C   0  0  0  0  0  0  0  0  0  0  0  0
  140.0460   76.1570  221.5290 C   0  0  0  0  0  0  0  0  0  0  0  0
  139.6520   76.5970  222.6700 O   0  0  0  0  0  0  0  0  0  0  0  0
  140.9610   76.9650  220.8420 N   0  0  0  0  0  0  0  0  0  0  0  0
  142.1320   76.3750  220.1460 C   0  0  0  0  0  0  0  0  0  0  0  0
  142.0920   77.1740  218.8470 C   0  0  2  0  0  0  0  0  0  0  0  0
  143.3330   77.6310  218.4690 O   0  0  0  0  0  0  0  0  0  0  0  0
  141.1830   78.3610  219.0840 C   0  0  0  0  0  0  0  0  0  0  0  0
  141.0890   78.3740  220.6000 C   0  0  1  0  0  0  0  0  0  0  0  0
  140.0210   79.2540  221.1150 C   0  0  0  0  0  0  0  0  0  0  0  0
  140.6370   80.0410  222.2030 N   0  0  0  0  0  0  0  0  0  0  0  0
  140.5090   79.3570  223.4650 C   0  0  0  0  0  0  0  0  0  0  0  0
  141.8550   79.3390  224.1370 C   0  0  0  0  0  0  0  0  0  0  0  0
  142.7500   80.1930  223.2710 C   0  0  0  0  0  0  0  0  0  0  0  0
  142.0200   80.2780  221.9550 C   0  0  0  0  0  0  0  0  0  0  0  0
  139.8120   71.5470  222.9930 C   0  0  0  0  0  0  0  0  0  0  0  0
  139.3240   70.2510  222.7890 C   0  0  0  0  0  0  0  0  0  0  0  0
  139.4230   69.3890  223.8700 C   0  0  0  0  0  0  0  0  0  0  0  0
  139.9600   69.7450  225.0760 C   0  0  0  0  0  0  0  0  0  0  0  0
  140.0470   68.8550  226.1480 C   0  0  0  0  0  0  0  0  0  0  0  0
  140.6110   69.3450  227.3120 C   0  0  0  0  0  0  0  0  0  0  0  0
  140.7610   68.2950  228.7080 Cl  0  0  0  0  0  0  0  0  0  0  0  0
  141.0730   70.6380  227.4400 C   0  0  0  0  0  0  0  0  0  0  0  0
  140.9850   71.5180  226.3760 C   0  0  0  0  0  0  0  0  0  0  0  0
  140.4230   71.0380  225.2120 C   0  0  0  0  0  0  0  0  0  0  0  0
  140.3340   71.8880  224.1720 N   0  0  0  0  0  0  0  0  0  0  0  0
  139.5540   74.1890  223.1870 H   0  0  0  0  0  0  0  0  0  0  0  0
  140.0460   74.5113  220.2267 H   0  0  0  0  0  0  0  0  0  0  0  0
  138.4274   75.0161  220.8547 H   0  0  0  0  0  0  0  0  0  0  0  0
  143.0661   76.5442  220.7017 H   0  0  0  0  0  0  0  0  0  0  0  0
  142.0973   75.2826  220.0215 H   0  0  0  0  0  0  0  0  0  0  0  0
  141.7306   76.5209  218.0390 H   0  0  0  0  0  0  0  0  0  0  0  0
  143.9240   77.8240  219.2350 H   0  0  0  0  0  0  0  0  0  0  0  0
  141.6287   79.2910  218.7012 H   0  0  0  0  0  0  0  0  0  0  0  0
  140.2103   78.2890  218.5754 H   0  0  0  0  0  0  0  0  0  0  0  0
  141.9362   78.8189  221.1425 H   0  0  0  0  0  0  0  0  0  0  0  0
  139.6568   79.9204  220.3192 H   0  0  0  0  0  0  0  0  0  0  0  0
  139.1572   78.6749  221.4735 H   0  0  0  0  0  0  0  0  0  0  0  0
  139.7836   79.8851  224.1014 H   0  0  0  0  0  0  0  0  0  0  0  0
  140.1554   78.3282  223.3019 H   0  0  0  0  0  0  0  0  0  0  0  0
  141.7844   79.7610  225.1504 H   0  0  0  0  0  0  0  0  0  0  0  0
  142.2448   78.3158  224.2422 H   0  0  0  0  0  0  0  0  0  0  0  0
  142.8793   81.1930  223.7106 H   0  0  0  0  0  0  0  0  0  0  0  0
  143.7606   79.7717  223.1656 H   0  0  0  0  0  0  0  0  0  0  0  0
  142.1548   81.2781  221.5172 H   0  0  0  0  0  0  0  0  0  0  0  0
  142.4152   79.5321  221.2497 H   0  0  0  0  0  0  0  0  0  0  0  0
  138.8885   69.9358  221.8293 H   0  0  0  0  0  0  0  0  0  0  0  0
  139.0488   68.3615  223.7510 H   0  0  0  0  0  0  0  0  0  0  0  0
  139.6861   67.8188  226.0710 H   0  0  0  0  0  0  0  0  0  0  0  0
  141.5131   70.9710  228.3915 H   0  0  0  0  0  0  0  0  0  0  0  0
  141.3470   72.5537  226.4551 H   0  0  0  0  0  0  0  0  0  0  0  0
  1  2  2  0
  2  3  1  0
  3  4  1  0
  4  5  1  0
  5  6  2  0
  5  7  1  0
  7  8  1  0
  8  9  1  0
  9 10  1  0
  9 11  1  0
 11 12  1  0
 12 13  1  0
 13 14  1  0
 14 15  1  0
 15 16  1  0
 16 17  1  0
 17 18  1  0
  2 19  1  0
 19 20  2  0
 20 21  1  0
 21 22  2  0
 22 23  1  0
 23 24  2  0
 24 25  1  0
 24 26  1  0
 26 27  2  0
 27 28  1  0
 28 29  2  0
 12  7  1  0
 18 14  1  0
 29 19  1  0
 28 22  1  0
  3 30  1  0
  4 31  1  0
  4 32  1  0
  8 33  1  0
  8 34  1  0
  9 35  1  6
 10 36  1  0
 11 37  1  0
 11 38  1  0
 12 39  1  1
 13 40  1  0
 13 41  1  0
 15 42  1  0
 15 43  1  0
 16 44  1  0
 16 45  1  0
 17 46  1  0
 17 47  1  0
 18 48  1  0
 18 49  1  0
 20 50  1  0
 21 51  1  0
 23 52  1  0
 26 53  1  0
 27 54  1  0
M  END
>  <meeko>  (19) 
{"free_energy": -8.39, "intermolecular_energy": -10.48, "internal_energy": -1.91, "cluster_size": 18, "cluster_id": 1, "rank_in_cluster": 9}

$$$$

     RDKit          3D

 54 57  0  0  0  0  0  0  0  0999 V2000
  140.4330   72.5300  220.6400 O   0  0  0  0  0  0  0  0  0  0  0  0
  140.1290   72.8930  221.8040 C   0  0  0  0  0  0  0  0  0  0  0  0
  139.8310   74.2520  222.1040 N   0  0  0  0  0  0  0  0  0  0  0  0
  139.8770   75.2720  221.0400 C   0  0  0  0  0  0  0  0  0  0  0  0
  140.6010   76.4640  221.4840 C   0  0  0  0  0  0  0  0  0  0  0  0
  140.4980   76.7590  222.7300 O   0  0  0  0  0  0  0  0  0  0  0  0
  141.3970   77.3210  220.7130 N   0  0  0  0  0  0  0  0  0  0  0  0
  142.4070   76.7850  219.7680 C   0  0  0  0  0  0  0  0  0  0  0  0
  142.1540   77.6950  218.5700 C   0  0  2  0  0  0  0  0  0  0  0  0
  143.3170   78.1730  218.0140 O   0  0  0  0  0  0  0  0  0  0  0  0
  141.3320   78.8660  219.0700 C   0  0  0  0  0  0  0  0  0  0  0  0
  141.5140   78.7450  220.5730 C   0  0  1  0  0  0  0  0  0  0  0  0
  140.5790   79.5850  221.3470 C   0  0  0  0  0  0  0  0  0  0  0  0
  141.1550   79.6850  222.7040 N   0  0  0  0  0  0  0  0  0  0  0  0
  142.5680   79.4040  222.6820 C   0  0  0  0  0  0  0  0  0  0  0  0
  143.2830   80.4910  223.4380 C   0  0  0  0  0  0  0  0  0  0  0  0
  142.1940   81.3440  224.0440 C   0  0  0  0  0  0  0  0  0  0  0  0
  140.9610   80.9830  223.2570 C   0  0  0  0  0  0  0  0  0  0  0  0
  140.0630   71.9300  222.9190 C   0  0  0  0  0  0  0  0  0  0  0  0
  139.4570   70.6940  222.6650 C   0  0  0  0  0  0  0  0  0  0  0  0
  139.4100   69.8120  223.7320 C   0  0  0  0  0  0  0  0  0  0  0  0
  139.9160   70.0950  224.9710 C   0  0  0  0  0  0  0  0  0  0  0  0
  139.8540   69.1860  226.0290 C   0  0  0  0  0  0  0  0  0  0  0  0
  140.4030   69.5990  227.2300 C   0  0  0  0  0  0  0  0  0  0  0  0
  140.3700   68.5200  228.6110 Cl  0  0  0  0  0  0  0  0  0  0  0  0
  140.9860   70.8360  227.4070 C   0  0  0  0  0  0  0  0  0  0  0  0
  141.0440   71.7350  226.3570 C   0  0  0  0  0  0  0  0  0  0  0  0
  140.5000   71.3310  225.1560 C   0  0  0  0  0  0  0  0  0  0  0  0
  140.5530   72.2010  224.1300 N   0  0  0  0  0  0  0  0  0  0  0  0
  139.5770   74.5430  223.0860 H   0  0  0  0  0  0  0  0  0  0  0  0
  140.3845   74.8504  220.1598 H   0  0  0  0  0  0  0  0  0  0  0  0
  138.8460   75.5624  220.7895 H   0  0  0  0  0  0  0  0  0  0  0  0
  143.4300   76.8961  220.1568 H   0  0  0  0  0  0  0  0  0  0  0  0
  142.3223   75.7083  219.5593 H   0  0  0  0  0  0  0  0  0  0  0  0
  141.6377   77.1188  217.7881 H   0  0  0  0  0  0  0  0  0  0  0  0
  143.1600   78.8510  217.3130 H   0  0  0  0  0  0  0  0  0  0  0  0
  141.7245   79.8221  218.6935 H   0  0  0  0  0  0  0  0  0  0  0  0
  140.2819   78.8486  218.7429 H   0  0  0  0  0  0  0  0  0  0  0  0
  142.4562   79.1323  220.9880 H   0  0  0  0  0  0  0  0  0  0  0  0
  140.4948   80.5831  220.8923 H   0  0  0  0  0  0  0  0  0  0  0  0
  139.5682   79.1516  221.3676 H   0  0  0  0  0  0  0  0  0  0  0  0
  142.7604   78.4318  223.1594 H   0  0  0  0  0  0  0  0  0  0  0  0
  142.9288   79.3673  221.6435 H   0  0  0  0  0  0  0  0  0  0  0  0
  143.9161   80.0583  224.2266 H   0  0  0  0  0  0  0  0  0  0  0  0
  143.9437   81.0774  222.7825 H   0  0  0  0  0  0  0  0  0  0  0  0
  142.0600   81.1066  225.1097 H   0  0  0  0  0  0  0  0  0  0  0  0
  142.4247   82.4185  223.9964 H   0  0  0  0  0  0  0  0  0  0  0  0
  140.0832   80.9787  223.9199 H   0  0  0  0  0  0  0  0  0  0  0  0
  140.7907   81.7176  222.4561 H   0  0  0  0  0  0  0  0  0  0  0  0
  139.0433   70.4387  221.6782 H   0  0  0  0  0  0  0  0  0  0  0  0
  138.9400   68.8300  223.5744 H   0  0  0  0  0  0  0  0  0  0  0  0
  139.3930   68.1939  225.9138 H   0  0  0  0  0  0  0  0  0  0  0  0
  141.4063   71.1089  228.3862 H   0  0  0  0  0  0  0  0  0  0  0  0
  141.5035   72.7275  226.4749 H   0  0  0  0  0  0  0  0  0  0  0  0
  1  2  2  0
  2  3  1  0
  3  4  1  0
  4  5  1  0
  5  6  2  0
  5  7  1  0
  7  8  1  0
  8  9  1  0
  9 10  1  0
  9 11  1  0
 11 12  1  0
 12 13  1  0
 13 14  1  0
 14 15  1  0
 15 16  1  0
 16 17  1  0
 17 18  1  0
  2 19  1  0
 19 20  2  0
 20 21  1  0
 21 22  2  0
 22 23  1  0
 23 24  2  0
 24 25  1  0
 24 26  1  0
 26 27  2  0
 27 28  1  0
 28 29  2  0
 12  7  1  0
 18 14  1  0
 29 19  1  0
 28 22  1  0
  3 30  1  0
  4 31  1  0
  4 32  1  0
  8 33  1  0
  8 34  1  0
  9 35  1  6
 10 36  1  0
 11 37  1  0
 11 38  1  0
 12 39  1  6
 13 40  1  0
 13 41  1  0
 15 42  1  0
 15 43  1  0
 16 44  1  0
 16 45  1  0
 17 46  1  0
 17 47  1  0
 18 48  1  0
 18 49  1  0
 20 50  1  0
 21 51  1  0
 23 52  1  0
 26 53  1  0
 27 54  1  0
M  END
>  <meeko>  (20) 
{"free_energy": -8.52, "intermolecular_energy": -10.6, "internal_energy": -1.75, "cluster_size": 18, "cluster_id": 1, "rank_in_cluster": 6}

$$$$
