
     RDKit          3D

 47 49  0  0  0  0  0  0  0  0999 V2000
  142.0250   76.8590  220.3790 C   0  0  0  0  0  0  0  0  0  0  0  0
  141.0650   76.4230  221.4860 C   0  0  2  0  0  0  0  0  0  0  0  0
  140.0050   75.6610  220.8420 N   0  0  0  0  0  0  0  0  0  0  0  0
  139.7210   74.3540  221.3520 C   0  0  0  0  0  0  0  0  0  0  0  0
  140.3600   73.8730  222.3230 O   0  0  0  0  0  0  0  0  0  0  0  0
  138.6200   73.5930  220.6650 C   0  0  0  0  0  0  0  0  0  0  0  0
  137.6320   73.0500  221.6470 C   0  0  0  0  0  0  0  0  0  0  0  0
  138.2240   72.2710  222.7130 N   0  0  0  0  0  0  0  0  0  0  0  0
  137.9790   70.8770  222.8580 C   0  0  0  0  0  0  0  0  0  0  0  0
  137.2270   70.2400  222.0580 O   0  0  0  0  0  0  0  0  0  0  0  0
  138.6140   70.1510  223.9650 C   0  0  0  0  0  0  0  0  0  0  0  0
  138.5710   68.7770  224.0110 C   0  0  0  0  0  0  0  0  0  0  0  0
  139.1700   68.1430  225.0520 C   0  0  0  0  0  0  0  0  0  0  0  0
  139.8150   68.8270  226.0520 C   0  0  0  0  0  0  0  0  0  0  0  0
  140.4290   68.1850  227.1150 C   0  0  0  0  0  0  0  0  0  0  0  0
  141.0760   68.8980  228.1190 C   0  0  0  0  0  0  0  0  0  0  0  0
  141.6700   68.2260  229.1530 F   0  0  0  0  0  0  0  0  0  0  0  0
  141.0980   70.2720  228.0380 C   0  0  0  0  0  0  0  0  0  0  0  0
  140.4900   70.9510  226.9800 C   0  0  0  0  0  0  0  0  0  0  0  0
  139.8540   70.2240  225.9960 C   0  0  0  0  0  0  0  0  0  0  0  0
  139.2490   70.8130  224.9500 N   0  0  0  0  0  0  0  0  0  0  0  0
  140.5870   77.5350  222.3030 C   0  0  0  0  0  0  0  0  0  0  0  0
  139.2300   77.8200  222.3330 C   0  0  0  0  0  0  0  0  0  0  0  0
  138.7980   78.8750  223.1100 C   0  0  0  0  0  0  0  0  0  0  0  0
  139.6770   79.6340  223.8450 C   0  0  0  0  0  0  0  0  0  0  0  0
  141.0430   79.3550  223.8220 C   0  0  0  0  0  0  0  0  0  0  0  0
  141.4600   78.2830  223.0290 C   0  0  0  0  0  0  0  0  0  0  0  0
  142.9390   77.2741  220.8288 H   0  0  0  0  0  0  0  0  0  0  0  0
  142.2848   75.9905  219.7559 H   0  0  0  0  0  0  0  0  0  0  0  0
  141.5420   77.6261  219.7559 H   0  0  0  0  0  0  0  0  0  0  0  0
  141.5828   75.7894  222.2211 H   0  0  0  0  0  0  0  0  0  0  0  0
  139.4830   76.0760  220.0360 H   0  0  0  0  0  0  0  0  0  0  0  0
  138.0989   74.2681  219.9702 H   0  0  0  0  0  0  0  0  0  0  0  0
  139.0706   72.7467  220.1258 H   0  0  0  0  0  0  0  0  0  0  0  0
  137.0917   73.8960  222.0967 H   0  0  0  0  0  0  0  0  0  0  0  0
  136.9707   72.3713  221.0885 H   0  0  0  0  0  0  0  0  0  0  0  0
  138.8660   72.7210  223.4280 H   0  0  0  0  0  0  0  0  0  0  0  0
  138.0624   68.2040  223.2217 H   0  0  0  0  0  0  0  0  0  0  0  0
  139.1371   67.0443  225.0952 H   0  0  0  0  0  0  0  0  0  0  0  0
  140.4043   67.0865  227.1663 H   0  0  0  0  0  0  0  0  0  0  0  0
  141.6063   70.8485  228.8249 H   0  0  0  0  0  0  0  0  0  0  0  0
  140.5180   72.0496  226.9323 H   0  0  0  0  0  0  0  0  0  0  0  0
  138.5153   77.2193  221.7512 H   0  0  0  0  0  0  0  0  0  0  0  0
  137.7248   79.1143  223.1420 H   0  0  0  0  0  0  0  0  0  0  0  0
  139.3002   80.4676  224.4558 H   0  0  0  0  0  0  0  0  0  0  0  0
  141.7609   79.9528  224.4028 H   0  0  0  0  0  0  0  0  0  0  0  0
  142.5312   78.0357  222.9907 H   0  0  0  0  0  0  0  0  0  0  0  0
  1  2  1  0
  2  3  1  0
  3  4  1  0
  4  5  2  0
  4  6  1  0
  6  7  1  0
  7  8  1  0
  8  9  1  0
  9 10  2  0
  9 11  1  0
 11 12  2  0
 12 13  1  0
 13 14  2  0
 14 15  1  0
 15 16  2  0
 16 17  1  0
 16 18  1  0
 18 19  2  0
 19 20  1  0
 20 21  2  0
  2 22  1  0
 22 23  2  0
 23 24  1  0
 24 25  2  0
 25 26  1  0
 26 27  2  0
 21 11  1  0
 27 22  1  0
 20 14  1  0
  1 28  1  0
  1 29  1  0
  1 30  1  0
  2 31  1  1
  3 32  1  0
  6 33  1  0
  6 34  1  0
  7 35  1  0
  7 36  1  0
  8 37  1  0
 12 38  1  0
 13 39  1  0
 15 40  1  0
 18 41  1  0
 19 42  1  0
 23 43  1  0
 24 44  1  0
 25 45  1  0
 26 46  1  0
 27 47  1  0
M  END
>  <meeko>  (1) 
{"free_energy": -7.92, "intermolecular_energy": -9.71, "internal_energy": -1.66, "cluster_size": 13, "cluster_id": 1, "rank_in_cluster": 10}

$$$$

     RDKit          3D

 47 49  0  0  0  0  0  0  0  0999 V2000
  140.3220   71.6420  223.3490 C   0  0  0  0  0  0  0  0  0  0  0  0
  140.3230   70.3990  224.2400 C   0  0  2  0  0  0  0  0  0  0  0  0
  139.1450   69.6250  223.8770 N   0  0  0  0  0  0  0  0  0  0  0  0
  137.8670   70.2550  224.0130 C   0  0  0  0  0  0  0  0  0  0  0  0
  137.7570   71.4370  224.4310 O   0  0  0  0  0  0  0  0  0  0  0  0
  136.6700   69.4300  223.6290 C   0  0  0  0  0  0  0  0  0  0  0  0
  135.7220   69.2720  224.7750 C   0  0  0  0  0  0  0  0  0  0  0  0
  135.1230   70.5100  225.2220 N   0  0  0  0  0  0  0  0  0  0  0  0
  133.9700   70.5360  226.0560 C   0  0  0  0  0  0  0  0  0  0  0  0
  133.4050   69.4710  226.4540 O   0  0  0  0  0  0  0  0  0  0  0  0
  133.4170   71.8310  226.4700 C   0  0  0  0  0  0  0  0  0  0  0  0
  132.2660   71.8870  227.2220 C   0  0  0  0  0  0  0  0  0  0  0  0
  131.7860   73.1040  227.5850 C   0  0  0  0  0  0  0  0  0  0  0  0
  132.4100   74.2730  227.2280 C   0  0  0  0  0  0  0  0  0  0  0  0
  131.9260   75.5170  227.5960 C   0  0  0  0  0  0  0  0  0  0  0  0
  132.5740   76.6900  227.2230 C   0  0  0  0  0  0  0  0  0  0  0  0
  132.0630   77.8990  227.6070 F   0  0  0  0  0  0  0  0  0  0  0  0
  133.7240   76.5930  226.4720 C   0  0  0  0  0  0  0  0  0  0  0  0
  134.2400   75.3550  226.0840 C   0  0  0  0  0  0  0  0  0  0  0  0
  133.5800   74.2060  226.4650 C   0  0  0  0  0  0  0  0  0  0  0  0
  134.0220   72.9820  226.1250 N   0  0  0  0  0  0  0  0  0  0  0  0
  140.4150   70.7130  225.6640 C   0  0  0  0  0  0  0  0  0  0  0  0
  141.0680   71.8710  226.0610 C   0  0  0  0  0  0  0  0  0  0  0  0
  141.1450   72.1490  227.4100 C   0  0  0  0  0  0  0  0  0  0  0  0
  140.5940   71.3130  228.3510 C   0  0  0  0  0  0  0  0  0  0  0  0
  139.9360   70.1470  227.9610 C   0  0  0  0  0  0  0  0  0  0  0  0
  139.8680   69.8820  226.5910 C   0  0  0  0  0  0  0  0  0  0  0  0
  140.3213   72.5442  223.9783 H   0  0  0  0  0  0  0  0  0  0  0  0
  141.2202   71.6386  222.7139 H   0  0  0  0  0  0  0  0  0  0  0  0
  139.4239   71.6372  222.7139 H   0  0  0  0  0  0  0  0  0  0  0  0
  141.2281   69.7982  224.0672 H   0  0  0  0  0  0  0  0  0  0  0  0
  139.2550   68.6430  223.5310 H   0  0  0  0  0  0  0  0  0  0  0  0
  136.1465   69.9251  222.7979 H   0  0  0  0  0  0  0  0  0  0  0  0
  137.0209   68.4308  223.3314 H   0  0  0  0  0  0  0  0  0  0  0  0
  134.9160   68.5907  224.4649 H   0  0  0  0  0  0  0  0  0  0  0  0
  136.3083   68.8808  225.6195 H   0  0  0  0  0  0  0  0  0  0  0  0
  135.5290   71.4480  224.9380 H   0  0  0  0  0  0  0  0  0  0  0  0
  131.7459   70.9655  227.5226 H   0  0  0  0  0  0  0  0  0  0  0  0
  130.8658   73.1547  228.1856 H   0  0  0  0  0  0  0  0  0  0  0  0
  131.0072   75.5792  228.1976 H   0  0  0  0  0  0  0  0  0  0  0  0
  134.2482   77.5120  226.1708 H   0  0  0  0  0  0  0  0  0  0  0  0
  135.1596   75.2972  225.4832 H   0  0  0  0  0  0  0  0  0  0  0  0
  141.5130   72.5502  225.3189 H   0  0  0  0  0  0  0  0  0  0  0  0
  141.6604   73.0628  227.7406 H   0  0  0  0  0  0  0  0  0  0  0  0
  140.6724   71.5651  229.4188 H   0  0  0  0  0  0  0  0  0  0  0  0
  139.4898   69.4654  228.7001 H   0  0  0  0  0  0  0  0  0  0  0  0
  139.3547   68.9705  226.2508 H   0  0  0  0  0  0  0  0  0  0  0  0
  1  2  1  0
  2  3  1  0
  3  4  1  0
  4  5  2  0
  4  6  1  0
  6  7  1  0
  7  8  1  0
  8  9  1  0
  9 10  2  0
  9 11  1  0
 11 12  2  0
 12 13  1  0
 13 14  2  0
 14 15  1  0
 15 16  2  0
 16 17  1  0
 16 18  1  0
 18 19  2  0
 19 20  1  0
 20 21  2  0
  2 22  1  0
 22 23  2  0
 23 24  1  0
 24 25  2  0
 25 26  1  0
 26 27  2  0
 21 11  1  0
 27 22  1  0
 20 14  1  0
  1 28  1  0
  1 29  1  0
  1 30  1  0
  2 31  1  6
  3 32  1  0
  6 33  1  0
  6 34  1  0
  7 35  1  0
  7 36  1  0
  8 37  1  0
 12 38  1  0
 13 39  1  0
 15 40  1  0
 18 41  1  0
 19 42  1  0
 23 43  1  0
 24 44  1  0
 25 45  1  0
 26 46  1  0
 27 47  1  0
M  END
>  <meeko>  (2) 
{"free_energy": -7.94, "intermolecular_energy": -9.73, "internal_energy": -1.63, "cluster_size": 4, "cluster_id": 2, "rank_in_cluster": 2}

$$$$

     RDKit          3D

 47 49  0  0  0  0  0  0  0  0999 V2000
  140.6650   71.6100  223.3720 C   0  0  0  0  0  0  0  0  0  0  0  0
  139.8870   70.6990  224.3240 C   0  0  2  0  0  0  0  0  0  0  0  0
  138.4750   70.9440  224.0750 N   0  0  0  0  0  0  0  0  0  0  0  0
  137.6350   69.8110  223.8300 C   0  0  0  0  0  0  0  0  0  0  0  0
  138.0950   68.6400  223.8270 O   0  0  0  0  0  0  0  0  0  0  0  0
  136.1810   70.0980  223.5760 C   0  0  0  0  0  0  0  0  0  0  0  0
  135.3630   69.9200  224.8150 C   0  0  0  0  0  0  0  0  0  0  0  0
  134.7150   71.1290  225.2750 N   0  0  0  0  0  0  0  0  0  0  0  0
  133.7120   71.1150  226.2840 C   0  0  0  0  0  0  0  0  0  0  0  0
  133.3310   70.0370  226.8360 O   0  0  0  0  0  0  0  0  0  0  0  0
  133.0980   72.3820  226.7000 C   0  0  0  0  0  0  0  0  0  0  0  0
  131.8680   72.3900  227.3160 C   0  0  0  0  0  0  0  0  0  0  0  0
  131.3350   73.5830  227.6860 C   0  0  0  0  0  0  0  0  0  0  0  0
  131.9810   74.7730  227.4670 C   0  0  0  0  0  0  0  0  0  0  0  0
  131.4430   75.9920  227.8420 C   0  0  0  0  0  0  0  0  0  0  0  0
  132.1140   77.1870  227.6090 C   0  0  0  0  0  0  0  0  0  0  0  0
  131.5470   78.3710  227.9960 F   0  0  0  0  0  0  0  0  0  0  0  0
  133.3440   77.1390  226.9910 C   0  0  0  0  0  0  0  0  0  0  0  0
  133.9160   75.9270  226.6000 C   0  0  0  0  0  0  0  0  0  0  0  0
  133.2320   74.7540  226.8400 C   0  0  0  0  0  0  0  0  0  0  0  0
  133.7250   73.5540  226.4900 N   0  0  0  0  0  0  0  0  0  0  0  0
  140.2820   70.8580  225.7220 C   0  0  0  0  0  0  0  0  0  0  0  0
  139.8600   69.9240  226.6560 C   0  0  0  0  0  0  0  0  0  0  0  0
  140.2430   70.0920  227.9710 C   0  0  0  0  0  0  0  0  0  0  0  0
  141.0250   71.1520  228.3620 C   0  0  0  0  0  0  0  0  0  0  0  0
  141.4540   72.0960  227.4310 C   0  0  0  0  0  0  0  0  0  0  0  0
  141.0560   71.9090  226.1050 C   0  0  0  0  0  0  0  0  0  0  0  0
  141.2704   72.3189  223.9558 H   0  0  0  0  0  0  0  0  0  0  0  0
  141.3249   70.9997  222.7379 H   0  0  0  0  0  0  0  0  0  0  0  0
  139.9589   72.1662  222.7379 H   0  0  0  0  0  0  0  0  0  0  0  0
  140.1195   69.6422  224.1263 H   0  0  0  0  0  0  0  0  0  0  0  0
  138.1090   71.9250  224.0810 H   0  0  0  0  0  0  0  0  0  0  0  0
  136.0774   71.1354  223.2252 H   0  0  0  0  0  0  0  0  0  0  0  0
  135.8167   69.3899  222.8171 H   0  0  0  0  0  0  0  0  0  0  0  0
  134.5863   69.1682  224.6109 H   0  0  0  0  0  0  0  0  0  0  0  0
  136.0565   69.6100  225.6106 H   0  0  0  0  0  0  0  0  0  0  0  0
  134.9720   72.0760  224.8690 H   0  0  0  0  0  0  0  0  0  0  0  0
  131.3279   71.4505  227.5047 H   0  0  0  0  0  0  0  0  0  0  0  0
  130.3514   73.5954  228.1783 H   0  0  0  0  0  0  0  0  0  0  0  0
  130.4606   76.0157  228.3364 H   0  0  0  0  0  0  0  0  0  0  0  0
  133.8876   78.0763  226.8013 H   0  0  0  0  0  0  0  0  0  0  0  0
  134.8992   75.9080  226.1071 H   0  0  0  0  0  0  0  0  0  0  0  0
  139.2351   69.0699  226.3560 H   0  0  0  0  0  0  0  0  0  0  0  0
  139.9146   69.3603  228.7238 H   0  0  0  0  0  0  0  0  0  0  0  0
  141.3146   71.2562  229.4181 H   0  0  0  0  0  0  0  0  0  0  0  0
  142.0789   72.9513  227.7274 H   0  0  0  0  0  0  0  0  0  0  0  0
  141.3793   72.6359  225.3453 H   0  0  0  0  0  0  0  0  0  0  0  0
  1  2  1  0
  2  3  1  0
  3  4  1  0
  4  5  2  0
  4  6  1  0
  6  7  1  0
  7  8  1  0
  8  9  1  0
  9 10  2  0
  9 11  1  0
 11 12  2  0
 12 13  1  0
 13 14  2  0
 14 15  1  0
 15 16  2  0
 16 17  1  0
 16 18  1  0
 18 19  2  0
 19 20  1  0
 20 21  2  0
  2 22  1  0
 22 23  2  0
 23 24  1  0
 24 25  2  0
 25 26  1  0
 26 27  2  0
 21 11  1  0
 27 22  1  0
 20 14  1  0
  1 28  1  0
  1 29  1  0
  1 30  1  0
  2 31  1  6
  3 32  1  0
  6 33  1  0
  6 34  1  0
  7 35  1  0
  7 36  1  0
  8 37  1  0
 12 38  1  0
 13 39  1  0
 15 40  1  0
 18 41  1  0
 19 42  1  0
 23 43  1  0
 24 44  1  0
 25 45  1  0
 26 46  1  0
 27 47  1  0
M  END
>  <meeko>  (3) 
{"free_energy": -8.5, "intermolecular_energy": -10.29, "internal_energy": -0.97, "cluster_size": 4, "cluster_id": 2, "rank_in_cluster": 1}

$$$$

     RDKit          3D

 47 49  0  0  0  0  0  0  0  0999 V2000
  145.6330   73.8350  220.8430 C   0  0  0  0  0  0  0  0  0  0  0  0
  144.4570   73.2590  220.0520 C   0  0  2  0  0  0  0  0  0  0  0  0
  143.2490   73.6180  220.7800 N   0  0  0  0  0  0  0  0  0  0  0  0
  142.6780   74.9050  220.5270 C   0  0  0  0  0  0  0  0  0  0  0  0
  143.1960   75.7060  219.7070 O   0  0  0  0  0  0  0  0  0  0  0  0
  141.4300   75.2450  221.2950 C   0  0  0  0  0  0  0  0  0  0  0  0
  140.3660   74.2140  221.0970 C   0  0  0  0  0  0  0  0  0  0  0  0
  140.1110   73.3940  222.2620 N   0  0  0  0  0  0  0  0  0  0  0  0
  140.5670   72.0500  222.3580 C   0  0  0  0  0  0  0  0  0  0  0  0
  141.2250   71.4960  221.4240 O   0  0  0  0  0  0  0  0  0  0  0  0
  140.2700   71.2800  223.5720 C   0  0  0  0  0  0  0  0  0  0  0  0
  139.6010   70.0810  223.4880 C   0  0  0  0  0  0  0  0  0  0  0  0
  139.3450   69.3980  224.6340 C   0  0  0  0  0  0  0  0  0  0  0  0
  139.7310   69.8650  225.8650 C   0  0  0  0  0  0  0  0  0  0  0  0
  139.4740   69.1730  227.0370 C   0  0  0  0  0  0  0  0  0  0  0  0
  139.8740   69.6640  228.2750 C   0  0  0  0  0  0  0  0  0  0  0  0
  139.5990   68.9500  229.4090 F   0  0  0  0  0  0  0  0  0  0  0  0
  140.5410   70.8670  228.3180 C   0  0  0  0  0  0  0  0  0  0  0  0
  140.8180   71.5910  227.1570 C   0  0  0  0  0  0  0  0  0  0  0  0
  140.4120   71.0850  225.9400 C   0  0  0  0  0  0  0  0  0  0  0  0
  140.6450   71.7290  224.7830 N   0  0  0  0  0  0  0  0  0  0  0  0
  144.5910   71.8290  219.7850 C   0  0  0  0  0  0  0  0  0  0  0  0
  145.8110   71.3310  219.3520 C   0  0  0  0  0  0  0  0  0  0  0  0
  145.9160   69.9780  219.1050 C   0  0  0  0  0  0  0  0  0  0  0  0
  144.8500   69.1290  219.2790 C   0  0  0  0  0  0  0  0  0  0  0  0
  143.6190   69.6200  219.7150 C   0  0  0  0  0  0  0  0  0  0  0  0
  143.5320   70.9930  219.9590 C   0  0  0  0  0  0  0  0  0  0  0  0
  145.4333   73.7372  221.9203 H   0  0  0  0  0  0  0  0  0  0  0  0
  146.5507   73.2844  220.5887 H   0  0  0  0  0  0  0  0  0  0  0  0
  145.7606   74.8976  220.5887 H   0  0  0  0  0  0  0  0  0  0  0  0
  144.4202   73.6901  219.0407 H   0  0  0  0  0  0  0  0  0  0  0  0
  142.8310   72.9390  221.4580 H   0  0  0  0  0  0  0  0  0  0  0  0
  141.6746   75.3049  222.3658 H   0  0  0  0  0  0  0  0  0  0  0  0
  141.0494   76.2086  220.9253 H   0  0  0  0  0  0  0  0  0  0  0  0
  139.4324   74.7291  220.8265 H   0  0  0  0  0  0  0  0  0  0  0  0
  140.7238   73.5379  220.3065 H   0  0  0  0  0  0  0  0  0  0  0  0
  139.5680   73.7760  223.0910 H   0  0  0  0  0  0  0  0  0  0  0  0
  139.2802   69.6838  222.5137 H   0  0  0  0  0  0  0  0  0  0  0  0
  138.8104   68.4386  224.5730 H   0  0  0  0  0  0  0  0  0  0  0  0
  138.9408   68.2122  226.9873 H   0  0  0  0  0  0  0  0  0  0  0  0
  140.8636   71.2676  229.2903 H   0  0  0  0  0  0  0  0  0  0  0  0
  141.3522   72.5510  227.2121 H   0  0  0  0  0  0  0  0  0  0  0  0
  146.6735   71.9986  219.2091 H   0  0  0  0  0  0  0  0  0  0  0  0
  146.8770   69.5687  218.7602 H   0  0  0  0  0  0  0  0  0  0  0  0
  144.9678   68.0549  219.0732 H   0  0  0  0  0  0  0  0  0  0  0  0
  142.7547   68.9552  219.8603 H   0  0  0  0  0  0  0  0  0  0  0  0
  142.5750   71.4120  220.3034 H   0  0  0  0  0  0  0  0  0  0  0  0
  1  2  1  0
  2  3  1  0
  3  4  1  0
  4  5  2  0
  4  6  1  0
  6  7  1  0
  7  8  1  0
  8  9  1  0
  9 10  2  0
  9 11  1  0
 11 12  2  0
 12 13  1  0
 13 14  2  0
 14 15  1  0
 15 16  2  0
 16 17  1  0
 16 18  1  0
 18 19  2  0
 19 20  1  0
 20 21  2  0
  2 22  1  0
 22 23  2  0
 23 24  1  0
 24 25  2  0
 25 26  1  0
 26 27  2  0
 21 11  1  0
 27 22  1  0
 20 14  1  0
  1 28  1  0
  1 29  1  0
  1 30  1  0
  2 31  1  6
  3 32  1  0
  6 33  1  0
  6 34  1  0
  7 35  1  0
  7 36  1  0
  8 37  1  0
 12 38  1  0
 13 39  1  0
 15 40  1  0
 18 41  1  0
 19 42  1  0
 23 43  1  0
 24 44  1  0
 25 45  1  0
 26 46  1  0
 27 47  1  0
M  END
>  <meeko>  (4) 
{"free_energy": -7.38, "intermolecular_energy": -9.17, "internal_energy": -1.73, "cluster_size": 3, "cluster_id": 3, "rank_in_cluster": 3}

$$$$

     RDKit          3D

 47 49  0  0  0  0  0  0  0  0999 V2000
  142.0280   77.1960  219.8080 C   0  0  0  0  0  0  0  0  0  0  0  0
  141.4140   77.0950  221.2060 C   0  0  2  0  0  0  0  0  0  0  0  0
  140.0380   76.6600  221.0260 N   0  0  0  0  0  0  0  0  0  0  0  0
  139.6480   75.4200  221.6250 C   0  0  0  0  0  0  0  0  0  0  0  0
  140.4620   74.7240  222.2860 O   0  0  0  0  0  0  0  0  0  0  0  0
  138.2180   74.9990  221.4210 C   0  0  0  0  0  0  0  0  0  0  0  0
  138.1030   73.5190  221.2400 C   0  0  0  0  0  0  0  0  0  0  0  0
  138.5780   72.7460  222.3660 N   0  0  0  0  0  0  0  0  0  0  0  0
  138.3080   71.3540  222.4980 C   0  0  0  0  0  0  0  0  0  0  0  0
  137.6350   70.7160  221.6320 O   0  0  0  0  0  0  0  0  0  0  0  0
  138.8230   70.6350  223.6700 C   0  0  0  0  0  0  0  0  0  0  0  0
  138.6730   69.2710  223.7690 C   0  0  0  0  0  0  0  0  0  0  0  0
  139.1630   68.6420  224.8680 C   0  0  0  0  0  0  0  0  0  0  0  0
  139.8000   69.3210  225.8770 C   0  0  0  0  0  0  0  0  0  0  0  0
  140.3020   68.6850  227.0000 C   0  0  0  0  0  0  0  0  0  0  0  0
  140.9430   69.3920  228.0110 C   0  0  0  0  0  0  0  0  0  0  0  0
  141.4250   68.7260  229.1050 F   0  0  0  0  0  0  0  0  0  0  0  0
  141.0740   70.7560  227.8760 C   0  0  0  0  0  0  0  0  0  0  0  0
  140.5800   71.4290  226.7570 C   0  0  0  0  0  0  0  0  0  0  0  0
  139.9470   70.7070  225.7670 C   0  0  0  0  0  0  0  0  0  0  0  0
  139.4480   71.2920  224.6630 N   0  0  0  0  0  0  0  0  0  0  0  0
  141.5550   78.3230  221.9850 C   0  0  0  0  0  0  0  0  0  0  0  0
  141.4510   78.2640  223.3670 C   0  0  0  0  0  0  0  0  0  0  0  0
  141.5860   79.4340  224.0850 C   0  0  0  0  0  0  0  0  0  0  0  0
  141.8190   80.6380  223.4630 C   0  0  0  0  0  0  0  0  0  0  0  0
  141.9240   80.7070  222.0740 C   0  0  0  0  0  0  0  0  0  0  0  0
  141.7850   79.5110  221.3650 C   0  0  0  0  0  0  0  0  0  0  0  0
  143.1100   77.3740  219.8947 H   0  0  0  0  0  0  0  0  0  0  0  0
  141.8534   76.2571  219.2622 H   0  0  0  0  0  0  0  0  0  0  0  0
  141.5619   78.0295  219.2622 H   0  0  0  0  0  0  0  0  0  0  0  0
  141.9573   76.3591  221.8169 H   0  0  0  0  0  0  0  0  0  0  0  0
  139.3740   77.2520  220.4740 H   0  0  0  0  0  0  0  0  0  0  0  0
  137.6283   75.2985  222.3000 H   0  0  0  0  0  0  0  0  0  0  0  0
  137.8406   75.4884  220.5110 H   0  0  0  0  0  0  0  0  0  0  0  0
  137.0437   73.2728  221.0747 H   0  0  0  0  0  0  0  0  0  0  0  0
  138.7404   73.2546  220.3833 H   0  0  0  0  0  0  0  0  0  0  0  0
  139.1490   73.1980  223.1390 H   0  0  0  0  0  0  0  0  0  0  0  0
  138.1670   68.7023  222.9749 H   0  0  0  0  0  0  0  0  0  0  0  0
  139.0456   67.5516  224.9528 H   0  0  0  0  0  0  0  0  0  0  0  0
  140.1910   67.5947  227.0944 H   0  0  0  0  0  0  0  0  0  0  0  0
  141.5794   71.3284  228.6678 H   0  0  0  0  0  0  0  0  0  0  0  0
  140.6940   72.5193  226.6663 H   0  0  0  0  0  0  0  0  0  0  0  0
  141.2654   77.3076  223.8778 H   0  0  0  0  0  0  0  0  0  0  0  0
  141.5053   79.4031  225.1816 H   0  0  0  0  0  0  0  0  0  0  0  0
  141.9233   81.5528  224.0649 H   0  0  0  0  0  0  0  0  0  0  0  0
  142.1082   81.6614  221.5591 H   0  0  0  0  0  0  0  0  0  0  0  0
  141.8644   79.5313  220.2681 H   0  0  0  0  0  0  0  0  0  0  0  0
  1  2  1  0
  2  3  1  0
  3  4  1  0
  4  5  2  0
  4  6  1  0
  6  7  1  0
  7  8  1  0
  8  9  1  0
  9 10  2  0
  9 11  1  0
 11 12  2  0
 12 13  1  0
 13 14  2  0
 14 15  1  0
 15 16  2  0
 16 17  1  0
 16 18  1  0
 18 19  2  0
 19 20  1  0
 20 21  2  0
  2 22  1  0
 22 23  2  0
 23 24  1  0
 24 25  2  0
 25 26  1  0
 26 27  2  0
 21 11  1  0
 27 22  1  0
 20 14  1  0
  1 28  1  0
  1 29  1  0
  1 30  1  0
  2 31  1  1
  3 32  1  0
  6 33  1  0
  6 34  1  0
  7 35  1  0
  7 36  1  0
  8 37  1  0
 12 38  1  0
 13 39  1  0
 15 40  1  0
 18 41  1  0
 19 42  1  0
 23 43  1  0
 24 44  1  0
 25 45  1  0
 26 46  1  0
 27 47  1  0
M  END
>  <meeko>  (5) 
{"free_energy": -8.28, "intermolecular_energy": -10.07, "internal_energy": -1.6, "cluster_size": 13, "cluster_id": 1, "rank_in_cluster": 5}

$$$$

     RDKit          3D

 47 49  0  0  0  0  0  0  0  0999 V2000
  143.4950   76.5020  219.6670 C   0  0  0  0  0  0  0  0  0  0  0  0
  143.0760   75.0330  219.7520 C   0  0  2  0  0  0  0  0  0  0  0  0
  142.0140   74.9590  220.7440 N   0  0  0  0  0  0  0  0  0  0  0  0
  140.7780   75.6150  220.4450 C   0  0  0  0  0  0  0  0  0  0  0  0
  140.6070   76.2380  219.3660 O   0  0  0  0  0  0  0  0  0  0  0  0
  139.7010   75.5190  221.4910 C   0  0  0  0  0  0  0  0  0  0  0  0
  138.8340   74.3200  221.2770 C   0  0  0  0  0  0  0  0  0  0  0  0
  138.8990   73.3440  222.3420 N   0  0  0  0  0  0  0  0  0  0  0  0
  140.0410   72.5190  222.5470 C   0  0  0  0  0  0  0  0  0  0  0  0
  141.0660   72.5960  221.8030 O   0  0  0  0  0  0  0  0  0  0  0  0
  140.0350   71.5510  223.6500 C   0  0  0  0  0  0  0  0  0  0  0  0
  139.5440   70.2800  223.4570 C   0  0  0  0  0  0  0  0  0  0  0  0
  139.5550   69.4140  224.5030 C   0  0  0  0  0  0  0  0  0  0  0  0
  140.0390   69.7640  225.7380 C   0  0  0  0  0  0  0  0  0  0  0  0
  140.0540   68.8850  226.8070 C   0  0  0  0  0  0  0  0  0  0  0  0
  140.5480   69.2600  228.0520 C   0  0  0  0  0  0  0  0  0  0  0  0
  140.5450   68.3610  229.0830 F   0  0  0  0  0  0  0  0  0  0  0  0
  141.0310   70.5400  228.2060 C   0  0  0  0  0  0  0  0  0  0  0  0
  141.0320   71.4530  227.1490 C   0  0  0  0  0  0  0  0  0  0  0  0
  140.5370   71.0580  225.9240 C   0  0  0  0  0  0  0  0  0  0  0  0
  140.5070   71.8860  224.8650 N   0  0  0  0  0  0  0  0  0  0  0  0
  144.1970   74.1310  220.0080 C   0  0  0  0  0  0  0  0  0  0  0  0
  144.2000   72.8720  219.4260 C   0  0  0  0  0  0  0  0  0  0  0  0
  145.2660   72.0350  219.6800 C   0  0  0  0  0  0  0  0  0  0  0  0
  146.3080   72.4220  220.4890 C   0  0  0  0  0  0  0  0  0  0  0  0
  146.3140   73.6850  221.0780 C   0  0  0  0  0  0  0  0  0  0  0  0
  145.2250   74.5190  220.8080 C   0  0  0  0  0  0  0  0  0  0  0  0
  143.6112   76.9095  220.6821 H   0  0  0  0  0  0  0  0  0  0  0  0
  144.4512   76.5800  219.1289 H   0  0  0  0  0  0  0  0  0  0  0  0
  142.7238   77.0727  219.1289 H   0  0  0  0  0  0  0  0  0  0  0  0
  142.6991   74.6791  218.7811 H   0  0  0  0  0  0  0  0  0  0  0  0
  142.1730   74.4360  221.6360 H   0  0  0  0  0  0  0  0  0  0  0  0
  140.1714   75.4474  222.4827 H   0  0  0  0  0  0  0  0  0  0  0  0
  139.0705   76.4176  221.4203 H   0  0  0  0  0  0  0  0  0  0  0  0
  137.7920   74.6599  221.1837 H   0  0  0  0  0  0  0  0  0  0  0  0
  139.2025   73.8215  220.3683 H   0  0  0  0  0  0  0  0  0  0  0  0
  138.0870   73.2120  223.0130 H   0  0  0  0  0  0  0  0  0  0  0  0
  139.1512   69.9722  222.4767 H   0  0  0  0  0  0  0  0  0  0  0  0
  139.1624   68.3972  224.3550 H   0  0  0  0  0  0  0  0  0  0  0  0
  139.6658   67.8651  226.6687 H   0  0  0  0  0  0  0  0  0  0  0  0
  141.4255   70.8510  229.1846 H   0  0  0  0  0  0  0  0  0  0  0  0
  141.4217   72.4717  227.2915 H   0  0  0  0  0  0  0  0  0  0  0  0
  143.3722   72.5491  218.7776 H   0  0  0  0  0  0  0  0  0  0  0  0
  145.2831   71.0339  219.2245 H   0  0  0  0  0  0  0  0  0  0  0  0
  147.1429   71.7298  220.6727 H   0  0  0  0  0  0  0  0  0  0  0  0
  147.1398   74.0115  221.7272 H   0  0  0  0  0  0  0  0  0  0  0  0
  145.1993   75.5225  221.2579 H   0  0  0  0  0  0  0  0  0  0  0  0
  1  2  1  0
  2  3  1  0
  3  4  1  0
  4  5  2  0
  4  6  1  0
  6  7  1  0
  7  8  1  0
  8  9  1  0
  9 10  2  0
  9 11  1  0
 11 12  2  0
 12 13  1  0
 13 14  2  0
 14 15  1  0
 15 16  2  0
 16 17  1  0
 16 18  1  0
 18 19  2  0
 19 20  1  0
 20 21  2  0
  2 22  1  0
 22 23  2  0
 23 24  1  0
 24 25  2  0
 25 26  1  0
 26 27  2  0
 21 11  1  0
 27 22  1  0
 20 14  1  0
  1 28  1  0
  1 29  1  0
  1 30  1  0
  2 31  1  6
  3 32  1  0
  6 33  1  0
  6 34  1  0
  7 35  1  0
  7 36  1  0
  8 37  1  0
 12 38  1  0
 13 39  1  0
 15 40  1  0
 18 41  1  0
 19 42  1  0
 23 43  1  0
 24 44  1  0
 25 45  1  0
 26 46  1  0
 27 47  1  0
M  END
>  <meeko>  (6) 
{"free_energy": -7.86, "intermolecular_energy": -9.65, "internal_energy": -1.54, "cluster_size": 3, "cluster_id": 3, "rank_in_cluster": 1}

$$$$

     RDKit          3D

 47 49  0  0  0  0  0  0  0  0999 V2000
  141.7270   77.1170  220.5470 C   0  0  0  0  0  0  0  0  0  0  0  0
  141.0560   77.1440  221.9220 C   0  0  2  0  0  0  0  0  0  0  0  0
  139.6880   76.6880  221.7270 N   0  0  0  0  0  0  0  0  0  0  0  0
  139.4110   75.3010  221.9450 C   0  0  0  0  0  0  0  0  0  0  0  0
  140.3140   74.4960  222.2910 O   0  0  0  0  0  0  0  0  0  0  0  0
  137.9880   74.8620  221.7360 C   0  0  0  0  0  0  0  0  0  0  0  0
  137.8970   73.3880  221.5030 C   0  0  0  0  0  0  0  0  0  0  0  0
  138.4350   72.5840  222.5790 N   0  0  0  0  0  0  0  0  0  0  0  0
  138.1210   71.2030  222.7240 C   0  0  0  0  0  0  0  0  0  0  0  0
  137.3500   70.6020  221.9140 O   0  0  0  0  0  0  0  0  0  0  0  0
  138.7050   70.4520  223.8410 C   0  0  0  0  0  0  0  0  0  0  0  0
  138.6240   69.0790  223.8730 C   0  0  0  0  0  0  0  0  0  0  0  0
  139.1760   68.4200  224.9240 C   0  0  0  0  0  0  0  0  0  0  0  0
  139.8100   69.0770  225.9490 C   0  0  0  0  0  0  0  0  0  0  0  0
  140.3760   68.4100  227.0220 C   0  0  0  0  0  0  0  0  0  0  0  0
  141.0120   69.0960  228.0510 C   0  0  0  0  0  0  0  0  0  0  0  0
  141.5580   68.3990  229.0940 F   0  0  0  0  0  0  0  0  0  0  0  0
  141.0730   70.4700  227.9840 C   0  0  0  0  0  0  0  0  0  0  0  0
  140.5140   71.1740  226.9160 C   0  0  0  0  0  0  0  0  0  0  0  0
  139.8870   70.4730  225.9070 C   0  0  0  0  0  0  0  0  0  0  0  0
  139.3280   71.0880  224.8500 N   0  0  0  0  0  0  0  0  0  0  0  0
  141.1640   78.4400  222.5880 C   0  0  0  0  0  0  0  0  0  0  0  0
  140.0240   79.0260  223.1200 C   0  0  0  0  0  0  0  0  0  0  0  0
  140.1470   80.2490  223.7440 C   0  0  0  0  0  0  0  0  0  0  0  0
  141.3600   80.8870  223.8470 C   0  0  0  0  0  0  0  0  0  0  0  0
  142.5100   80.3070  223.3160 C   0  0  0  0  0  0  0  0  0  0  0  0
  142.3660   79.0670  222.6870 C   0  0  0  0  0  0  0  0  0  0  0  0
  142.8189   77.0731  220.6727 H   0  0  0  0  0  0  0  0  0  0  0  0
  141.3861   76.2318  219.9900 H   0  0  0  0  0  0  0  0  0  0  0  0
  141.4583   78.0267  219.9900 H   0  0  0  0  0  0  0  0  0  0  0  0
  141.5741   76.4705  222.6206 H   0  0  0  0  0  0  0  0  0  0  0  0
  138.9490   77.3710  221.4390 H   0  0  0  0  0  0  0  0  0  0  0  0
  137.3998   75.1195  222.6291 H   0  0  0  0  0  0  0  0  0  0  0  0
  137.5956   75.3765  220.8464 H   0  0  0  0  0  0  0  0  0  0  0  0
  136.8372   73.1241  221.3716 H   0  0  0  0  0  0  0  0  0  0  0  0
  138.5036   73.1704  220.6115 H   0  0  0  0  0  0  0  0  0  0  0  0
  139.0880   73.0050  223.3020 H   0  0  0  0  0  0  0  0  0  0  0  0
  138.1227   68.5269  223.0644 H   0  0  0  0  0  0  0  0  0  0  0  0
  139.1130   67.3222  224.9551 H   0  0  0  0  0  0  0  0  0  0  0  0
  140.3214   67.3121  227.0615 H   0  0  0  0  0  0  0  0  0  0  0  0
  141.5737   71.0256  228.7906 H   0  0  0  0  0  0  0  0  0  0  0  0
  140.5727   72.2718  226.8796 H   0  0  0  0  0  0  0  0  0  0  0  0
  139.0466   78.5270  223.0456 H   0  0  0  0  0  0  0  0  0  0  0  0
  139.2521   80.7261  224.1701 H   0  0  0  0  0  0  0  0  0  0  0  0
  141.4232   81.8621  224.3521 H   0  0  0  0  0  0  0  0  0  0  0  0
  143.4890   80.8033  223.3886 H   0  0  0  0  0  0  0  0  0  0  0  0
  143.2553   78.5823  222.2577 H   0  0  0  0  0  0  0  0  0  0  0  0
  1  2  1  0
  2  3  1  0
  3  4  1  0
  4  5  2  0
  4  6  1  0
  6  7  1  0
  7  8  1  0
  8  9  1  0
  9 10  2  0
  9 11  1  0
 11 12  2  0
 12 13  1  0
 13 14  2  0
 14 15  1  0
 15 16  2  0
 16 17  1  0
 16 18  1  0
 18 19  2  0
 19 20  1  0
 20 21  2  0
  2 22  1  0
 22 23  2  0
 23 24  1  0
 24 25  2  0
 25 26  1  0
 26 27  2  0
 21 11  1  0
 27 22  1  0
 20 14  1  0
  1 28  1  0
  1 29  1  0
  1 30  1  0
  2 31  1  1
  3 32  1  0
  6 33  1  0
  6 34  1  0
  7 35  1  0
  7 36  1  0
  8 37  1  0
 12 38  1  0
 13 39  1  0
 15 40  1  0
 18 41  1  0
 19 42  1  0
 23 43  1  0
 24 44  1  0
 25 45  1  0
 26 46  1  0
 27 47  1  0
M  END
>  <meeko>  (7) 
{"free_energy": -8.51, "intermolecular_energy": -10.3, "internal_energy": -1.54, "cluster_size": 13, "cluster_id": 1, "rank_in_cluster": 1}

$$$$

     RDKit          3D

 47 49  0  0  0  0  0  0  0  0999 V2000
  139.1710   77.1050  222.2630 C   0  0  0  0  0  0  0  0  0  0  0  0
  140.5360   77.3190  221.6060 C   0  0  2  0  0  0  0  0  0  0  0  0
  141.2220   76.0360  221.6420 N   0  0  0  0  0  0  0  0  0  0  0  0
  141.9290   75.6260  220.4670 C   0  0  0  0  0  0  0  0  0  0  0  0
  141.9610   76.3430  219.4340 O   0  0  0  0  0  0  0  0  0  0  0  0
  142.6280   74.2960  220.5380 C   0  0  0  0  0  0  0  0  0  0  0  0
  141.6990   73.1700  220.2130 C   0  0  0  0  0  0  0  0  0  0  0  0
  141.4210   72.2910  221.3280 N   0  0  0  0  0  0  0  0  0  0  0  0
  140.4990   72.6370  222.3560 C   0  0  0  0  0  0  0  0  0  0  0  0
  139.8690   73.7380  222.3490 O   0  0  0  0  0  0  0  0  0  0  0  0
  140.2690   71.6930  223.4560 C   0  0  0  0  0  0  0  0  0  0  0  0
  139.5880   70.5190  223.2340 C   0  0  0  0  0  0  0  0  0  0  0  0
  139.3950   69.6720  224.2790 C   0  0  0  0  0  0  0  0  0  0  0  0
  139.8580   69.9500  225.5410 C   0  0  0  0  0  0  0  0  0  0  0  0
  139.6650   69.0900  226.6090 C   0  0  0  0  0  0  0  0  0  0  0  0
  140.1410   69.3920  227.8810 C   0  0  0  0  0  0  0  0  0  0  0  0
  139.9300   68.5150  228.9090 F   0  0  0  0  0  0  0  0  0  0  0  0
  140.8180   70.5760  228.0630 C   0  0  0  0  0  0  0  0  0  0  0  0
  141.0310   71.4660  227.0080 C   0  0  0  0  0  0  0  0  0  0  0  0
  140.5500   71.1460  225.7560 C   0  0  0  0  0  0  0  0  0  0  0  0
  140.7190   71.9570  224.6970 N   0  0  0  0  0  0  0  0  0  0  0  0
  141.2930   78.4170  222.2010 C   0  0  0  0  0  0  0  0  0  0  0  0
  141.8300   79.3950  221.3760 C   0  0  0  0  0  0  0  0  0  0  0  0
  142.5420   80.4240  221.9560 C   0  0  0  0  0  0  0  0  0  0  0  0
  142.7250   80.4940  223.3160 C   0  0  0  0  0  0  0  0  0  0  0  0
  142.1900   79.5170  224.1540 C   0  0  0  0  0  0  0  0  0  0  0  0
  141.4720   78.4830  223.5470 C   0  0  0  0  0  0  0  0  0  0  0  0
  139.2839   77.1227  223.3571 H   0  0  0  0  0  0  0  0  0  0  0  0
  138.4848   77.9065  221.9522 H   0  0  0  0  0  0  0  0  0  0  0  0
  138.7630   76.1319  221.9522 H   0  0  0  0  0  0  0  0  0  0  0  0
  140.4178   77.6456  220.5623 H   0  0  0  0  0  0  0  0  0  0  0  0
  141.1850   75.4520  222.5100 H   0  0  0  0  0  0  0  0  0  0  0  0
  143.4607   74.2911  219.8192 H   0  0  0  0  0  0  0  0  0  0  0  0
  142.9960   74.1541  221.5649 H   0  0  0  0  0  0  0  0  0  0  0  0
  140.7471   73.5974  219.8648 H   0  0  0  0  0  0  0  0  0  0  0  0
  142.1977   72.5597  219.4456 H   0  0  0  0  0  0  0  0  0  0  0  0
  141.9030   71.3490  221.4150 H   0  0  0  0  0  0  0  0  0  0  0  0
  139.2077   70.2709  222.2321 H   0  0  0  0  0  0  0  0  0  0  0  0
  138.8495   68.7322  224.1079 H   0  0  0  0  0  0  0  0  0  0  0  0
  139.1229   68.1465  226.4480 H   0  0  0  0  0  0  0  0  0  0  0  0
  141.2005   70.8275  229.0632 H   0  0  0  0  0  0  0  0  0  0  0  0
  141.5743   72.4081  227.1733 H   0  0  0  0  0  0  0  0  0  0  0  0
  141.6912   79.3507  220.2857 H   0  0  0  0  0  0  0  0  0  0  0  0
  142.9734   81.2069  221.3149 H   0  0  0  0  0  0  0  0  0  0  0  0
  143.2984   81.3279  223.7470 H   0  0  0  0  0  0  0  0  0  0  0  0
  142.3269   79.5580  225.2447 H   0  0  0  0  0  0  0  0  0  0  0  0
  141.0368   77.6956  224.1800 H   0  0  0  0  0  0  0  0  0  0  0  0
  1  2  1  0
  2  3  1  0
  3  4  1  0
  4  5  2  0
  4  6  1  0
  6  7  1  0
  7  8  1  0
  8  9  1  0
  9 10  2  0
  9 11  1  0
 11 12  2  0
 12 13  1  0
 13 14  2  0
 14 15  1  0
 15 16  2  0
 16 17  1  0
 16 18  1  0
 18 19  2  0
 19 20  1  0
 20 21  2  0
  2 22  1  0
 22 23  2  0
 23 24  1  0
 24 25  2  0
 25 26  1  0
 26 27  2  0
 21 11  1  0
 27 22  1  0
 20 14  1  0
  1 28  1  0
  1 29  1  0
  1 30  1  0
  2 31  1  6
  3 32  1  0
  6 33  1  0
  6 34  1  0
  7 35  1  0
  7 36  1  0
  8 37  1  0
 12 38  1  0
 13 39  1  0
 15 40  1  0
 18 41  1  0
 19 42  1  0
 23 43  1  0
 24 44  1  0
 25 45  1  0
 26 46  1  0
 27 47  1  0
M  END
>  <meeko>  (8) 
{"free_energy": -8.38, "intermolecular_energy": -10.17, "internal_energy": -1.55, "cluster_size": 13, "cluster_id": 1, "rank_in_cluster": 4}

$$$$

     RDKit          3D

 47 49  0  0  0  0  0  0  0  0999 V2000
  141.9990   76.9000  220.3190 C   0  0  0  0  0  0  0  0  0  0  0  0
  141.0440   76.4730  221.4350 C   0  0  2  0  0  0  0  0  0  0  0  0
  139.9580   75.7430  220.7980 N   0  0  0  0  0  0  0  0  0  0  0  0
  139.6080   74.4650  221.3390 C   0  0  0  0  0  0  0  0  0  0  0  0
  140.2140   73.9810  222.3300 O   0  0  0  0  0  0  0  0  0  0  0  0
  138.4820   73.7370  220.6580 C   0  0  0  0  0  0  0  0  0  0  0  0
  137.5090   73.1830  221.6490 C   0  0  0  0  0  0  0  0  0  0  0  0
  138.1180   72.4140  222.7110 N   0  0  0  0  0  0  0  0  0  0  0  0
  137.9390   71.0060  222.8270 C   0  0  0  0  0  0  0  0  0  0  0  0
  137.2340   70.3500  222.0010 O   0  0  0  0  0  0  0  0  0  0  0  0
  138.5890   70.2920  223.9320 C   0  0  0  0  0  0  0  0  0  0  0  0
  138.5690   68.9170  223.9790 C   0  0  0  0  0  0  0  0  0  0  0  0
  139.1810   68.2940  225.0180 C   0  0  0  0  0  0  0  0  0  0  0  0
  139.8160   68.9880  226.0170 C   0  0  0  0  0  0  0  0  0  0  0  0
  140.4430   68.3570  227.0790 C   0  0  0  0  0  0  0  0  0  0  0  0
  141.0800   69.0810  228.0820 C   0  0  0  0  0  0  0  0  0  0  0  0
  141.6870   68.4190  229.1140 F   0  0  0  0  0  0  0  0  0  0  0  0
  141.0780   70.4550  228.0000 C   0  0  0  0  0  0  0  0  0  0  0  0
  140.4570   71.1230  226.9440 C   0  0  0  0  0  0  0  0  0  0  0  0
  139.8310   70.3860  225.9610 C   0  0  0  0  0  0  0  0  0  0  0  0
  139.2130   70.9650  224.9160 N   0  0  0  0  0  0  0  0  0  0  0  0
  140.6030   77.5880  222.2720 C   0  0  0  0  0  0  0  0  0  0  0  0
  139.2550   77.9090  222.3170 C   0  0  0  0  0  0  0  0  0  0  0  0
  138.8590   78.9640  223.1130 C   0  0  0  0  0  0  0  0  0  0  0  0
  139.7650   79.6900  223.8480 C   0  0  0  0  0  0  0  0  0  0  0  0
  141.1220   79.3750  223.8090 C   0  0  0  0  0  0  0  0  0  0  0  0
  141.5030   78.3030  222.9980 C   0  0  0  0  0  0  0  0  0  0  0  0
  142.9187   77.3112  220.7607 H   0  0  0  0  0  0  0  0  0  0  0  0
  142.2492   76.0280  219.6969 H   0  0  0  0  0  0  0  0  0  0  0  0
  141.5159   77.6678  219.6969 H   0  0  0  0  0  0  0  0  0  0  0  0
  141.5569   75.8189  222.1555 H   0  0  0  0  0  0  0  0  0  0  0  0
  139.4640   76.1610  219.9750 H   0  0  0  0  0  0  0  0  0  0  0  0
  137.9550   74.4364  219.9923 H   0  0  0  0  0  0  0  0  0  0  0  0
  138.9082   72.8989  220.0871 H   0  0  0  0  0  0  0  0  0  0  0  0
  136.9615   74.0229  222.1015 H   0  0  0  0  0  0  0  0  0  0  0  0
  136.8525   72.4946  221.0966 H   0  0  0  0  0  0  0  0  0  0  0  0
  138.7240   72.8810  223.4470 H   0  0  0  0  0  0  0  0  0  0  0  0
  138.0678   68.3352  223.1914 H   0  0  0  0  0  0  0  0  0  0  0  0
  139.1675   67.1949  225.0607 H   0  0  0  0  0  0  0  0  0  0  0  0
  140.4371   67.2582  227.1305 H   0  0  0  0  0  0  0  0  0  0  0  0
  141.5779   71.0404  228.7857 H   0  0  0  0  0  0  0  0  0  0  0  0
  140.4667   72.2219  226.8964 H   0  0  0  0  0  0  0  0  0  0  0  0
  138.5195   77.3367  221.7326 H   0  0  0  0  0  0  0  0  0  0  0  0
  137.7928   79.2303  223.1604 H   0  0  0  0  0  0  0  0  0  0  0  0
  139.4165   80.5262  224.4720 H   0  0  0  0  0  0  0  0  0  0  0  0
  141.8607   79.9454  224.3912 H   0  0  0  0  0  0  0  0  0  0  0  0
  142.5668   78.0283  222.9451 H   0  0  0  0  0  0  0  0  0  0  0  0
  1  2  1  0
  2  3  1  0
  3  4  1  0
  4  5  2  0
  4  6  1  0
  6  7  1  0
  7  8  1  0
  8  9  1  0
  9 10  2  0
  9 11  1  0
 11 12  2  0
 12 13  1  0
 13 14  2  0
 14 15  1  0
 15 16  2  0
 16 17  1  0
 16 18  1  0
 18 19  2  0
 19 20  1  0
 20 21  2  0
  2 22  1  0
 22 23  2  0
 23 24  1  0
 24 25  2  0
 25 26  1  0
 26 27  2  0
 21 11  1  0
 27 22  1  0
 20 14  1  0
  1 28  1  0
  1 29  1  0
  1 30  1  0
  2 31  1  1
  3 32  1  0
  6 33  1  0
  6 34  1  0
  7 35  1  0
  7 36  1  0
  8 37  1  0
 12 38  1  0
 13 39  1  0
 15 40  1  0
 18 41  1  0
 19 42  1  0
 23 43  1  0
 24 44  1  0
 25 45  1  0
 26 46  1  0
 27 47  1  0
M  END
>  <meeko>  (9) 
{"free_energy": -7.9, "intermolecular_energy": -9.68, "internal_energy": -1.68, "cluster_size": 13, "cluster_id": 1, "rank_in_cluster": 12}

$$$$

     RDKit          3D

 47 49  0  0  0  0  0  0  0  0999 V2000
  141.8350   77.1990  220.3130 C   0  0  0  0  0  0  0  0  0  0  0  0
  141.1140   77.1180  221.6590 C   0  0  2  0  0  0  0  0  0  0  0  0
  139.7680   76.6370  221.3830 N   0  0  0  0  0  0  0  0  0  0  0  0
  139.4540   75.2900  221.7500 C   0  0  0  0  0  0  0  0  0  0  0  0
  140.3070   74.5390  222.2920 O   0  0  0  0  0  0  0  0  0  0  0  0
  138.0550   74.8240  221.4520 C   0  0  0  0  0  0  0  0  0  0  0  0
  138.0000   73.3430  221.2590 C   0  0  0  0  0  0  0  0  0  0  0  0
  138.5020   72.5800  222.3810 N   0  0  0  0  0  0  0  0  0  0  0  0
  138.2670   71.1830  222.5150 C   0  0  0  0  0  0  0  0  0  0  0  0
  137.6020   70.5290  221.6530 O   0  0  0  0  0  0  0  0  0  0  0  0
  138.8080   70.4750  223.6810 C   0  0  0  0  0  0  0  0  0  0  0  0
  138.6890   69.1090  223.7820 C   0  0  0  0  0  0  0  0  0  0  0  0
  139.2030   68.4910  224.8770 C   0  0  0  0  0  0  0  0  0  0  0  0
  139.8350   69.1840  225.8790 C   0  0  0  0  0  0  0  0  0  0  0  0
  140.3610   68.5590  226.9970 C   0  0  0  0  0  0  0  0  0  0  0  0
  140.9970   69.2810  228.0020 C   0  0  0  0  0  0  0  0  0  0  0  0
  141.5040   68.6260  229.0910 F   0  0  0  0  0  0  0  0  0  0  0  0
  141.0970   70.6470  227.8640 C   0  0  0  0  0  0  0  0  0  0  0  0
  140.5780   71.3090  226.7500 C   0  0  0  0  0  0  0  0  0  0  0  0
  139.9520   70.5730  225.7670 C   0  0  0  0  0  0  0  0  0  0  0  0
  139.4290   71.1460  224.6680 N   0  0  0  0  0  0  0  0  0  0  0  0
  141.1570   78.3700  222.4110 C   0  0  0  0  0  0  0  0  0  0  0  0
  142.3420   79.0900  222.4600 C   0  0  0  0  0  0  0  0  0  0  0  0
  142.3630   80.2690  223.1740 C   0  0  0  0  0  0  0  0  0  0  0  0
  141.2480   80.7360  223.8270 C   0  0  0  0  0  0  0  0  0  0  0  0
  140.0520   80.0200  223.7830 C   0  0  0  0  0  0  0  0  0  0  0  0
  140.0510   78.8280  223.0550 C   0  0  0  0  0  0  0  0  0  0  0  0
  142.9151   77.3203  220.4823 H   0  0  0  0  0  0  0  0  0  0  0  0
  141.6546   76.2749  219.7442 H   0  0  0  0  0  0  0  0  0  0  0  0
  141.4540   78.0600  219.7442 H   0  0  0  0  0  0  0  0  0  0  0  0
  141.6275   76.4156  222.3320 H   0  0  0  0  0  0  0  0  0  0  0  0
  139.0710   77.2750  220.9330 H   0  0  0  0  0  0  0  0  0  0  0  0
  137.4001   75.0995  222.2917 H   0  0  0  0  0  0  0  0  0  0  0  0
  137.7219   75.3058  220.5209 H   0  0  0  0  0  0  0  0  0  0  0  0
  136.9520   73.0560  221.0879 H   0  0  0  0  0  0  0  0  0  0  0  0
  138.6504   73.1113  220.4027 H   0  0  0  0  0  0  0  0  0  0  0  0
  139.0690   73.0450  223.1490 H   0  0  0  0  0  0  0  0  0  0  0  0
  138.1882   68.5289  222.9929 H   0  0  0  0  0  0  0  0  0  0  0  0
  139.1096   67.3984  224.9636 H   0  0  0  0  0  0  0  0  0  0  0  0
  140.2740   67.4666  227.0928 H   0  0  0  0  0  0  0  0  0  0  0  0
  141.5978   71.2308  228.6503 H   0  0  0  0  0  0  0  0  0  0  0  0
  140.6673   72.4015  226.6580 H   0  0  0  0  0  0  0  0  0  0  0  0
  143.2426   78.7289  221.9418 H   0  0  0  0  0  0  0  0  0  0  0  0
  143.2956   80.8503  223.2221 H   0  0  0  0  0  0  0  0  0  0  0  0
  141.2990   81.6807  224.3881 H   0  0  0  0  0  0  0  0  0  0  0  0
  139.1490   80.3783  224.2990 H   0  0  0  0  0  0  0  0  0  0  0  0
  139.1232   78.2396  223.0009 H   0  0  0  0  0  0  0  0  0  0  0  0
  1  2  1  0
  2  3  1  0
  3  4  1  0
  4  5  2  0
  4  6  1  0
  6  7  1  0
  7  8  1  0
  8  9  1  0
  9 10  2  0
  9 11  1  0
 11 12  2  0
 12 13  1  0
 13 14  2  0
 14 15  1  0
 15 16  2  0
 16 17  1  0
 16 18  1  0
 18 19  2  0
 19 20  1  0
 20 21  2  0
  2 22  1  0
 22 23  2  0
 23 24  1  0
 24 25  2  0
 25 26  1  0
 26 27  2  0
 21 11  1  0
 27 22  1  0
 20 14  1  0
  1 28  1  0
  1 29  1  0
  1 30  1  0
  2 31  1  1
  3 32  1  0
  6 33  1  0
  6 34  1  0
  7 35  1  0
  7 36  1  0
  8 37  1  0
 12 38  1  0
 13 39  1  0
 15 40  1  0
 18 41  1  0
 19 42  1  0
 23 43  1  0
 24 44  1  0
 25 45  1  0
 26 46  1  0
 27 47  1  0
M  END
>  <meeko>  (10) 
{"free_energy": -8.4, "intermolecular_energy": -10.19, "internal_energy": -1.59, "cluster_size": 13, "cluster_id": 1, "rank_in_cluster": 3}

$$$$

     RDKit          3D

 47 49  0  0  0  0  0  0  0  0999 V2000
  143.5660   76.4730  219.7200 C   0  0  0  0  0  0  0  0  0  0  0  0
  143.1280   75.0080  219.6800 C   0  0  2  0  0  0  0  0  0  0  0  0
  142.0320   74.8740  220.6270 N   0  0  0  0  0  0  0  0  0  0  0  0
  140.9150   75.7580  220.4820 C   0  0  0  0  0  0  0  0  0  0  0  0
  140.8760   76.6240  219.5700 O   0  0  0  0  0  0  0  0  0  0  0  0
  139.7990   75.5940  221.4760 C   0  0  0  0  0  0  0  0  0  0  0  0
  139.0260   74.3370  221.2310 C   0  0  0  0  0  0  0  0  0  0  0  0
  139.0700   73.3920  222.3250 N   0  0  0  0  0  0  0  0  0  0  0  0
  140.0850   72.4000  222.4300 C   0  0  0  0  0  0  0  0  0  0  0  0
  141.0090   72.2920  221.5670 O   0  0  0  0  0  0  0  0  0  0  0  0
  140.0640   71.4740  223.5690 C   0  0  0  0  0  0  0  0  0  0  0  0
  139.5700   70.1990  223.4200 C   0  0  0  0  0  0  0  0  0  0  0  0
  139.5670   69.3730  224.4980 C   0  0  0  0  0  0  0  0  0  0  0  0
  140.0410   69.7690  225.7240 C   0  0  0  0  0  0  0  0  0  0  0  0
  140.0420   68.9310  226.8260 C   0  0  0  0  0  0  0  0  0  0  0  0
  140.5250   69.3520  228.0600 C   0  0  0  0  0  0  0  0  0  0  0  0
  140.5080   68.4930  229.1250 F   0  0  0  0  0  0  0  0  0  0  0  0
  141.0110   70.6350  228.1700 C   0  0  0  0  0  0  0  0  0  0  0  0
  141.0260   71.5060  227.0790 C   0  0  0  0  0  0  0  0  0  0  0  0
  140.5410   71.0670  225.8650 C   0  0  0  0  0  0  0  0  0  0  0  0
  140.5260   71.8540  224.7750 N   0  0  0  0  0  0  0  0  0  0  0  0
  144.2290   74.0740  219.9060 C   0  0  0  0  0  0  0  0  0  0  0  0
  145.2070   74.3920  220.8380 C   0  0  0  0  0  0  0  0  0  0  0  0
  146.2380   73.4970  221.0360 C   0  0  0  0  0  0  0  0  0  0  0  0
  146.3110   72.3160  220.3380 C   0  0  0  0  0  0  0  0  0  0  0  0
  145.3330   71.9880  219.4000 C   0  0  0  0  0  0  0  0  0  0  0  0
  144.2970   72.9060  219.2130 C   0  0  0  0  0  0  0  0  0  0  0  0
  143.6632   76.7982  220.7663 H   0  0  0  0  0  0  0  0  0  0  0  0
  144.5354   76.5799  219.2112 H   0  0  0  0  0  0  0  0  0  0  0  0
  142.8144   77.0944  219.2112 H   0  0  0  0  0  0  0  0  0  0  0  0
  142.7813   74.7337  218.6727 H   0  0  0  0  0  0  0  0  0  0  0  0
  142.0810   74.1480  221.3800 H   0  0  0  0  0  0  0  0  0  0  0  0
  140.2254   75.5595  222.4894 H   0  0  0  0  0  0  0  0  0  0  0  0
  139.1131   76.4472  221.3682 H   0  0  0  0  0  0  0  0  0  0  0  0
  137.9752   74.6077  221.0508 H   0  0  0  0  0  0  0  0  0  0  0  0
  139.4925   73.8421  220.3664 H   0  0  0  0  0  0  0  0  0  0  0  0
  138.3360   73.4100  223.0920 H   0  0  0  0  0  0  0  0  0  0  0  0
  139.1855   69.8556  222.4483 H   0  0  0  0  0  0  0  0  0  0  0  0
  139.1716   68.3528  224.3850 H   0  0  0  0  0  0  0  0  0  0  0  0
  139.6514   67.9079  226.7229 H   0  0  0  0  0  0  0  0  0  0  0  0
  141.3965   70.9822  229.1400 H   0  0  0  0  0  0  0  0  0  0  0  0
  141.4190   72.5278  227.1862 H   0  0  0  0  0  0  0  0  0  0  0  0
  145.1612   75.3338  221.4045 H   0  0  0  0  0  0  0  0  0  0  0  0
  147.0211   73.7349  221.7710 H   0  0  0  0  0  0  0  0  0  0  0  0
  147.1468   71.6244  220.5204 H   0  0  0  0  0  0  0  0  0  0  0  0
  145.3754   71.0470  218.8318 H   0  0  0  0  0  0  0  0  0  0  0  0
  143.5094   72.6763  218.4803 H   0  0  0  0  0  0  0  0  0  0  0  0
  1  2  1  0
  2  3  1  0
  3  4  1  0
  4  5  2  0
  4  6  1  0
  6  7  1  0
  7  8  1  0
  8  9  1  0
  9 10  2  0
  9 11  1  0
 11 12  2  0
 12 13  1  0
 13 14  2  0
 14 15  1  0
 15 16  2  0
 16 17  1  0
 16 18  1  0
 18 19  2  0
 19 20  1  0
 20 21  2  0
  2 22  1  0
 22 23  2  0
 23 24  1  0
 24 25  2  0
 25 26  1  0
 26 27  2  0
 21 11  1  0
 27 22  1  0
 20 14  1  0
  1 28  1  0
  1 29  1  0
  1 30  1  0
  2 31  1  6
  3 32  1  0
  6 33  1  0
  6 34  1  0
  7 35  1  0
  7 36  1  0
  8 37  1  0
 12 38  1  0
 13 39  1  0
 15 40  1  0
 18 41  1  0
 19 42  1  0
 23 43  1  0
 24 44  1  0
 25 45  1  0
 26 46  1  0
 27 47  1  0
M  END
>  <meeko>  (11) 
{"free_energy": -7.79, "intermolecular_energy": -9.58, "internal_energy": -1.44, "cluster_size": 3, "cluster_id": 3, "rank_in_cluster": 2}

$$$$

     RDKit          3D

 47 49  0  0  0  0  0  0  0  0999 V2000
  142.0180   76.7900  220.4510 C   0  0  0  0  0  0  0  0  0  0  0  0
  141.0300   76.3940  221.5490 C   0  0  2  0  0  0  0  0  0  0  0  0
  139.9590   75.6540  220.8990 N   0  0  0  0  0  0  0  0  0  0  0  0
  139.6730   74.3360  221.3790 C   0  0  0  0  0  0  0  0  0  0  0  0
  140.3220   73.8270  222.3290 O   0  0  0  0  0  0  0  0  0  0  0  0
  138.5600   73.5990  220.6870 C   0  0  0  0  0  0  0  0  0  0  0  0
  137.5800   73.0390  221.6670 C   0  0  0  0  0  0  0  0  0  0  0  0
  138.1820   72.2620  222.7290 N   0  0  0  0  0  0  0  0  0  0  0  0
  137.9570   70.8640  222.8660 C   0  0  0  0  0  0  0  0  0  0  0  0
  137.2150   70.2210  222.0620 O   0  0  0  0  0  0  0  0  0  0  0  0
  138.6030   70.1420  223.9690 C   0  0  0  0  0  0  0  0  0  0  0  0
  138.5790   68.7670  224.0080 C   0  0  0  0  0  0  0  0  0  0  0  0
  139.1870   68.1360  225.0460 C   0  0  0  0  0  0  0  0  0  0  0  0
  139.8220   68.8230  226.0500 C   0  0  0  0  0  0  0  0  0  0  0  0
  140.4440   68.1850  227.1090 C   0  0  0  0  0  0  0  0  0  0  0  0
  141.0810   68.9010  228.1180 C   0  0  0  0  0  0  0  0  0  0  0  0
  141.6840   68.2320  229.1480 F   0  0  0  0  0  0  0  0  0  0  0  0
  141.0840   70.2760  228.0430 C   0  0  0  0  0  0  0  0  0  0  0  0
  140.4660   70.9510  226.9890 C   0  0  0  0  0  0  0  0  0  0  0  0
  139.8410   70.2210  226.0010 C   0  0  0  0  0  0  0  0  0  0  0  0
  139.2270   70.8070  224.9580 N   0  0  0  0  0  0  0  0  0  0  0  0
  140.5730   77.5290  222.3470 C   0  0  0  0  0  0  0  0  0  0  0  0
  139.2200   77.8350  222.3760 C   0  0  0  0  0  0  0  0  0  0  0  0
  138.8080   78.9110  223.1350 C   0  0  0  0  0  0  0  0  0  0  0  0
  139.7020   79.6720  223.8500 C   0  0  0  0  0  0  0  0  0  0  0  0
  141.0630   79.3720  223.8270 C   0  0  0  0  0  0  0  0  0  0  0  0
  141.4610   78.2790  223.0530 C   0  0  0  0  0  0  0  0  0  0  0  0
  142.9461   77.1620  220.9096 H   0  0  0  0  0  0  0  0  0  0  0  0
  142.2435   75.9128  219.8268 H   0  0  0  0  0  0  0  0  0  0  0  0
  141.5752   77.5801  219.8268 H   0  0  0  0  0  0  0  0  0  0  0  0
  141.5185   75.7545  222.2989 H   0  0  0  0  0  0  0  0  0  0  0  0
  139.4290   76.0930  220.1100 H   0  0  0  0  0  0  0  0  0  0  0  0
  138.0354   74.2937  220.0146 H   0  0  0  0  0  0  0  0  0  0  0  0
  138.9989   72.7631  220.1225 H   0  0  0  0  0  0  0  0  0  0  0  0
  137.0296   73.8761  222.1213 H   0  0  0  0  0  0  0  0  0  0  0  0
  136.9270   72.3547  221.1055 H   0  0  0  0  0  0  0  0  0  0  0  0
  138.8180   72.7180  223.4460 H   0  0  0  0  0  0  0  0  0  0  0  0
  138.0783   68.1910  223.2158 H   0  0  0  0  0  0  0  0  0  0  0  0
  139.1697   67.0368  225.0830 H   0  0  0  0  0  0  0  0  0  0  0  0
  140.4346   67.0860  227.1542 H   0  0  0  0  0  0  0  0  0  0  0  0
  141.5851   70.8559  228.8320 H   0  0  0  0  0  0  0  0  0  0  0  0
  140.4776   72.0502  226.9475 H   0  0  0  0  0  0  0  0  0  0  0  0
  138.4940   77.2347  221.8081 H   0  0  0  0  0  0  0  0  0  0  0  0
  137.7385   79.1660  223.1688 H   0  0  0  0  0  0  0  0  0  0  0  0
  139.3407   80.5239  224.4447 H   0  0  0  0  0  0  0  0  0  0  0  0
  141.7921   79.9698  224.3936 H   0  0  0  0  0  0  0  0  0  0  0  0
  142.5284   78.0163  223.0133 H   0  0  0  0  0  0  0  0  0  0  0  0
  1  2  1  0
  2  3  1  0
  3  4  1  0
  4  5  2  0
  4  6  1  0
  6  7  1  0
  7  8  1  0
  8  9  1  0
  9 10  2  0
  9 11  1  0
 11 12  2  0
 12 13  1  0
 13 14  2  0
 14 15  1  0
 15 16  2  0
 16 17  1  0
 16 18  1  0
 18 19  2  0
 19 20  1  0
 20 21  2  0
  2 22  1  0
 22 23  2  0
 23 24  1  0
 24 25  2  0
 25 26  1  0
 26 27  2  0
 21 11  1  0
 27 22  1  0
 20 14  1  0
  1 28  1  0
  1 29  1  0
  1 30  1  0
  2 31  1  1
  3 32  1  0
  6 33  1  0
  6 34  1  0
  7 35  1  0
  7 36  1  0
  8 37  1  0
 12 38  1  0
 13 39  1  0
 15 40  1  0
 18 41  1  0
 19 42  1  0
 23 43  1  0
 24 44  1  0
 25 45  1  0
 26 46  1  0
 27 47  1  0
M  END
>  <meeko>  (12) 
{"free_energy": -7.92, "intermolecular_energy": -9.71, "internal_energy": -1.65, "cluster_size": 13, "cluster_id": 1, "rank_in_cluster": 8}

$$$$

     RDKit          3D

 47 49  0  0  0  0  0  0  0  0999 V2000
  142.1420   77.0980  219.8740 C   0  0  0  0  0  0  0  0  0  0  0  0
  141.4390   77.0210  221.2300 C   0  0  2  0  0  0  0  0  0  0  0  0
  140.0660   76.6190  220.9660 N   0  0  0  0  0  0  0  0  0  0  0  0
  139.6050   75.3970  221.5520 C   0  0  0  0  0  0  0  0  0  0  0  0
  140.3550   74.6880  222.2710 O   0  0  0  0  0  0  0  0  0  0  0  0
  138.1800   75.0110  221.2600 C   0  0  0  0  0  0  0  0  0  0  0  0
  138.0280   73.5300  221.1340 C   0  0  0  0  0  0  0  0  0  0  0  0
  138.4940   72.7860  222.2850 N   0  0  0  0  0  0  0  0  0  0  0  0
  138.4050   71.3680  222.3580 C   0  0  0  0  0  0  0  0  0  0  0  0
  137.9110   70.6770  221.4150 O   0  0  0  0  0  0  0  0  0  0  0  0
  138.8980   70.6820  223.5590 C   0  0  0  0  0  0  0  0  0  0  0  0
  138.7330   69.3240  223.7000 C   0  0  0  0  0  0  0  0  0  0  0  0
  139.2030   68.7270  224.8260 C   0  0  0  0  0  0  0  0  0  0  0  0
  139.8350   69.4320  225.8190 C   0  0  0  0  0  0  0  0  0  0  0  0
  140.3170   68.8280  226.9680 C   0  0  0  0  0  0  0  0  0  0  0  0
  140.9540   69.5620  227.9640 C   0  0  0  0  0  0  0  0  0  0  0  0
  141.4160   68.9270  229.0840 F   0  0  0  0  0  0  0  0  0  0  0  0
  141.1000   70.9190  227.7850 C   0  0  0  0  0  0  0  0  0  0  0  0
  140.6270   71.5600  226.6390 C   0  0  0  0  0  0  0  0  0  0  0  0
  139.9980   70.8120  225.6650 C   0  0  0  0  0  0  0  0  0  0  0  0
  139.5190   71.3660  224.5370 N   0  0  0  0  0  0  0  0  0  0  0  0
  141.5620   78.2490  222.0120 C   0  0  0  0  0  0  0  0  0  0  0  0
  141.7930   79.4490  221.3550 C   0  0  0  0  0  0  0  0  0  0  0  0
  141.9060   80.5980  222.1110 C   0  0  0  0  0  0  0  0  0  0  0  0
  141.7950   80.5720  223.4800 C   0  0  0  0  0  0  0  0  0  0  0  0
  141.5630   79.3710  224.1490 C   0  0  0  0  0  0  0  0  0  0  0  0
  141.4510   78.2190  223.3670 C   0  0  0  0  0  0  0  0  0  0  0  0
  143.2246   77.2166  220.0285 H   0  0  0  0  0  0  0  0  0  0  0  0
  141.9513   76.1736  219.3091 H   0  0  0  0  0  0  0  0  0  0  0  0
  141.7557   77.9592  219.3091 H   0  0  0  0  0  0  0  0  0  0  0  0
  141.9243   76.2752  221.8767 H   0  0  0  0  0  0  0  0  0  0  0  0
  139.4550   77.2220  220.3660 H   0  0  0  0  0  0  0  0  0  0  0  0
  137.5382   75.3677  222.0791 H   0  0  0  0  0  0  0  0  0  0  0  0
  137.8873   75.4702  220.3043 H   0  0  0  0  0  0  0  0  0  0  0  0
  136.9617   73.3040  220.9856 H   0  0  0  0  0  0  0  0  0  0  0  0
  138.6518   73.2193  220.2829 H   0  0  0  0  0  0  0  0  0  0  0  0
  138.9220   73.2830  223.1200 H   0  0  0  0  0  0  0  0  0  0  0  0
  138.2316   68.7344  222.9184 H   0  0  0  0  0  0  0  0  0  0  0  0
  139.0725   67.6414  224.9458 H   0  0  0  0  0  0  0  0  0  0  0  0
  140.1935   67.7425  227.0965 H   0  0  0  0  0  0  0  0  0  0  0  0
  141.6015   71.5124  228.5638 H   0  0  0  0  0  0  0  0  0  0  0  0
  140.7538   72.6455  226.5141 H   0  0  0  0  0  0  0  0  0  0  0  0
  141.8838   79.4837  220.2593 H   0  0  0  0  0  0  0  0  0  0  0  0
  142.0893   81.5575  221.6053 H   0  0  0  0  0  0  0  0  0  0  0  0
  141.8899   81.5062  224.0529 H   0  0  0  0  0  0  0  0  0  0  0  0
  141.4722   79.3323  225.2446 H   0  0  0  0  0  0  0  0  0  0  0  0
  141.2668   77.2551  223.8640 H   0  0  0  0  0  0  0  0  0  0  0  0
  1  2  1  0
  2  3  1  0
  3  4  1  0
  4  5  2  0
  4  6  1  0
  6  7  1  0
  7  8  1  0
  8  9  1  0
  9 10  2  0
  9 11  1  0
 11 12  2  0
 12 13  1  0
 13 14  2  0
 14 15  1  0
 15 16  2  0
 16 17  1  0
 16 18  1  0
 18 19  2  0
 19 20  1  0
 20 21  2  0
  2 22  1  0
 22 23  2  0
 23 24  1  0
 24 25  2  0
 25 26  1  0
 26 27  2  0
 21 11  1  0
 27 22  1  0
 20 14  1  0
  1 28  1  0
  1 29  1  0
  1 30  1  0
  2 31  1  1
  3 32  1  0
  6 33  1  0
  6 34  1  0
  7 35  1  0
  7 36  1  0
  8 37  1  0
 12 38  1  0
 13 39  1  0
 15 40  1  0
 18 41  1  0
 19 42  1  0
 23 43  1  0
 24 44  1  0
 25 45  1  0
 26 46  1  0
 27 47  1  0
M  END
>  <meeko>  (13) 
{"free_energy": -8.23, "intermolecular_energy": -10.02, "internal_energy": -1.6, "cluster_size": 13, "cluster_id": 1, "rank_in_cluster": 7}

$$$$

     RDKit          3D

 47 49  0  0  0  0  0  0  0  0999 V2000
  142.0180   76.8850  220.3750 C   0  0  0  0  0  0  0  0  0  0  0  0
  141.0450   76.4530  221.4730 C   0  0  2  0  0  0  0  0  0  0  0  0
  139.9880   75.6980  220.8190 N   0  0  0  0  0  0  0  0  0  0  0  0
  139.6680   74.4060  221.3470 C   0  0  0  0  0  0  0  0  0  0  0  0
  140.2770   73.9320  222.3410 O   0  0  0  0  0  0  0  0  0  0  0  0
  138.5700   73.6510  220.6490 C   0  0  0  0  0  0  0  0  0  0  0  0
  137.5820   73.0950  221.6230 C   0  0  0  0  0  0  0  0  0  0  0  0
  138.1760   72.3280  222.6970 N   0  0  0  0  0  0  0  0  0  0  0  0
  137.9840   70.9240  222.8230 C   0  0  0  0  0  0  0  0  0  0  0  0
  137.2790   70.2660  221.9970 O   0  0  0  0  0  0  0  0  0  0  0  0
  138.6190   70.2130  223.9390 C   0  0  0  0  0  0  0  0  0  0  0  0
  138.5890   68.8390  223.9950 C   0  0  0  0  0  0  0  0  0  0  0  0
  139.1870   68.2180  225.0440 C   0  0  0  0  0  0  0  0  0  0  0  0
  139.8180   68.9150  226.0440 C   0  0  0  0  0  0  0  0  0  0  0  0
  140.4310   68.2880  227.1150 C   0  0  0  0  0  0  0  0  0  0  0  0
  141.0640   69.0140  228.1190 C   0  0  0  0  0  0  0  0  0  0  0  0
  141.6580   68.3550  229.1610 F   0  0  0  0  0  0  0  0  0  0  0  0
  141.0730   70.3870  228.0270 C   0  0  0  0  0  0  0  0  0  0  0  0
  140.4660   71.0520  226.9610 C   0  0  0  0  0  0  0  0  0  0  0  0
  139.8440   70.3120  225.9780 C   0  0  0  0  0  0  0  0  0  0  0  0
  139.2390   70.8880  224.9230 N   0  0  0  0  0  0  0  0  0  0  0  0
  140.5670   77.5680  222.2870 C   0  0  0  0  0  0  0  0  0  0  0  0
  139.2090   77.8530  222.3150 C   0  0  0  0  0  0  0  0  0  0  0  0
  138.7770   78.9100  223.0890 C   0  0  0  0  0  0  0  0  0  0  0  0
  139.6560   79.6710  223.8220 C   0  0  0  0  0  0  0  0  0  0  0  0
  141.0210   79.3920  223.8020 C   0  0  0  0  0  0  0  0  0  0  0  0
  141.4400   78.3180  223.0120 C   0  0  0  0  0  0  0  0  0  0  0  0
  142.9318   77.2907  220.8337 H   0  0  0  0  0  0  0  0  0  0  0  0
  142.2755   76.0166  219.7508 H   0  0  0  0  0  0  0  0  0  0  0  0
  141.5466   77.6584  219.7508 H   0  0  0  0  0  0  0  0  0  0  0  0
  141.5511   75.8151  222.2126 H   0  0  0  0  0  0  0  0  0  0  0  0
  139.4910   76.1070  219.9940 H   0  0  0  0  0  0  0  0  0  0  0  0
  138.0487   74.3330  219.9612 H   0  0  0  0  0  0  0  0  0  0  0  0
  139.0231   72.8121  220.1004 H   0  0  0  0  0  0  0  0  0  0  0  0
  137.0241   73.9335  222.0653 H   0  0  0  0  0  0  0  0  0  0  0  0
  136.9370   72.4043  221.0600 H   0  0  0  0  0  0  0  0  0  0  0  0
  138.7820   72.7960  223.4330 H   0  0  0  0  0  0  0  0  0  0  0  0
  138.0911   68.2555  223.2066 H   0  0  0  0  0  0  0  0  0  0  0  0
  139.1650   67.1194  225.0941 H   0  0  0  0  0  0  0  0  0  0  0  0
  140.4174   67.1897  227.1737 H   0  0  0  0  0  0  0  0  0  0  0  0
  141.5707   70.9744  228.8127 H   0  0  0  0  0  0  0  0  0  0  0  0
  140.4835   72.1505  226.9058 H   0  0  0  0  0  0  0  0  0  0  0  0
  138.4947   77.2508  221.7343 H   0  0  0  0  0  0  0  0  0  0  0  0
  137.7038   79.1494  223.1203 H   0  0  0  0  0  0  0  0  0  0  0  0
  139.2789   80.5070  224.4293 H   0  0  0  0  0  0  0  0  0  0  0  0
  141.7377   79.9911  224.3828 H   0  0  0  0  0  0  0  0  0  0  0  0
  142.5113   78.0710  222.9753 H   0  0  0  0  0  0  0  0  0  0  0  0
  1  2  1  0
  2  3  1  0
  3  4  1  0
  4  5  2  0
  4  6  1  0
  6  7  1  0
  7  8  1  0
  8  9  1  0
  9 10  2  0
  9 11  1  0
 11 12  2  0
 12 13  1  0
 13 14  2  0
 14 15  1  0
 15 16  2  0
 16 17  1  0
 16 18  1  0
 18 19  2  0
 19 20  1  0
 20 21  2  0
  2 22  1  0
 22 23  2  0
 23 24  1  0
 24 25  2  0
 25 26  1  0
 26 27  2  0
 21 11  1  0
 27 22  1  0
 20 14  1  0
  1 28  1  0
  1 29  1  0
  1 30  1  0
  2 31  1  1
  3 32  1  0
  6 33  1  0
  6 34  1  0
  7 35  1  0
  7 36  1  0
  8 37  1  0
 12 38  1  0
 13 39  1  0
 15 40  1  0
 18 41  1  0
 19 42  1  0
 23 43  1  0
 24 44  1  0
 25 45  1  0
 26 46  1  0
 27 47  1  0
M  END
>  <meeko>  (14) 
{"free_energy": -7.91, "intermolecular_energy": -9.7, "internal_energy": -1.67, "cluster_size": 13, "cluster_id": 1, "rank_in_cluster": 11}

$$$$

     RDKit          3D

 47 49  0  0  0  0  0  0  0  0999 V2000
  140.1860   71.6480  223.3570 C   0  0  0  0  0  0  0  0  0  0  0  0
  140.2570   70.4200  224.2650 C   0  0  2  0  0  0  0  0  0  0  0  0
  139.0920   69.6040  223.9560 N   0  0  0  0  0  0  0  0  0  0  0  0
  137.8020   70.2100  224.0860 C   0  0  0  0  0  0  0  0  0  0  0  0
  137.6700   71.4060  224.4560 O   0  0  0  0  0  0  0  0  0  0  0  0
  136.6190   69.3410  223.7580 C   0  0  0  0  0  0  0  0  0  0  0  0
  135.6890   69.2180  224.9230 C   0  0  0  0  0  0  0  0  0  0  0  0
  135.1030   70.4700  225.3470 N   0  0  0  0  0  0  0  0  0  0  0  0
  133.8970   70.5260  226.1010 C   0  0  0  0  0  0  0  0  0  0  0  0
  133.2690   69.4770  226.4410 O   0  0  0  0  0  0  0  0  0  0  0  0
  133.3610   71.8340  226.4960 C   0  0  0  0  0  0  0  0  0  0  0  0
  132.2020   71.9170  227.2310 C   0  0  0  0  0  0  0  0  0  0  0  0
  131.7380   73.1460  227.5770 C   0  0  0  0  0  0  0  0  0  0  0  0
  132.3890   74.3010  227.2200 C   0  0  0  0  0  0  0  0  0  0  0  0
  131.9220   75.5560  227.5710 C   0  0  0  0  0  0  0  0  0  0  0  0
  132.5960   76.7140  227.1970 C   0  0  0  0  0  0  0  0  0  0  0  0
  132.1010   77.9360  227.5640 F   0  0  0  0  0  0  0  0  0  0  0  0
  133.7540   76.5900  226.4620 C   0  0  0  0  0  0  0  0  0  0  0  0
  134.2530   75.3400  226.0920 C   0  0  0  0  0  0  0  0  0  0  0  0
  133.5680   74.2060  226.4730 C   0  0  0  0  0  0  0  0  0  0  0  0
  133.9920   72.9710  226.1500 N   0  0  0  0  0  0  0  0  0  0  0  0
  140.3890   70.7590  225.6810 C   0  0  0  0  0  0  0  0  0  0  0  0
  139.8190   69.9270  226.6330 C   0  0  0  0  0  0  0  0  0  0  0  0
  139.9540   70.2640  227.9630 C   0  0  0  0  0  0  0  0  0  0  0  0
  140.6350   71.3920  228.3540 C   0  0  0  0  0  0  0  0  0  0  0  0
  141.2120   72.2340  227.4050 C   0  0  0  0  0  0  0  0  0  0  0  0
  141.0640   71.8760  226.0620 C   0  0  0  0  0  0  0  0  0  0  0  0
  140.1334   72.5574  223.9736 H   0  0  0  0  0  0  0  0  0  0  0  0
  141.0834   71.6869  222.7220 H   0  0  0  0  0  0  0  0  0  0  0  0
  139.2901   71.5832  222.7220 H   0  0  0  0  0  0  0  0  0  0  0  0
  141.1739   69.8450  224.0682 H   0  0  0  0  0  0  0  0  0  0  0  0
  139.2200   68.6120  223.6490 H   0  0  0  0  0  0  0  0  0  0  0  0
  136.0743   69.7837  222.9111 H   0  0  0  0  0  0  0  0  0  0  0  0
  136.9886   68.3366  223.5041 H   0  0  0  0  0  0  0  0  0  0  0  0
  134.8749   68.5328  224.6440 H   0  0  0  0  0  0  0  0  0  0  0  0
  136.2873   68.8463  225.7679 H   0  0  0  0  0  0  0  0  0  0  0  0
  135.5600   71.3980  225.1070 H   0  0  0  0  0  0  0  0  0  0  0  0
  131.6618   71.0074  227.5325 H   0  0  0  0  0  0  0  0  0  0  0  0
  130.8097   73.2183  228.1627 H   0  0  0  0  0  0  0  0  0  0  0  0
  130.9963   75.6395  228.1594 H   0  0  0  0  0  0  0  0  0  0  0  0
  134.2982   77.4968  226.1596 H   0  0  0  0  0  0  0  0  0  0  0  0
  135.1797   75.2609  225.5047 H   0  0  0  0  0  0  0  0  0  0  0  0
  139.2725   69.0203  226.3342 H   0  0  0  0  0  0  0  0  0  0  0  0
  139.5060   69.6146  228.7295 H   0  0  0  0  0  0  0  0  0  0  0  0
  140.7253   71.6320  229.4237 H   0  0  0  0  0  0  0  0  0  0  0  0
  141.7601   73.1409  227.7001 H   0  0  0  0  0  0  0  0  0  0  0  0
  141.5082   72.5191  225.2880 H   0  0  0  0  0  0  0  0  0  0  0  0
  1  2  1  0
  2  3  1  0
  3  4  1  0
  4  5  2  0
  4  6  1  0
  6  7  1  0
  7  8  1  0
  8  9  1  0
  9 10  2  0
  9 11  1  0
 11 12  2  0
 12 13  1  0
 13 14  2  0
 14 15  1  0
 15 16  2  0
 16 17  1  0
 16 18  1  0
 18 19  2  0
 19 20  1  0
 20 21  2  0
  2 22  1  0
 22 23  2  0
 23 24  1  0
 24 25  2  0
 25 26  1  0
 26 27  2  0
 21 11  1  0
 27 22  1  0
 20 14  1  0
  1 28  1  0
  1 29  1  0
  1 30  1  0
  2 31  1  6
  3 32  1  0
  6 33  1  0
  6 34  1  0
  7 35  1  0
  7 36  1  0
  8 37  1  0
 12 38  1  0
 13 39  1  0
 15 40  1  0
 18 41  1  0
 19 42  1  0
 23 43  1  0
 24 44  1  0
 25 45  1  0
 26 46  1  0
 27 47  1  0
M  END
>  <meeko>  (15) 
{"free_energy": -7.93, "intermolecular_energy": -9.72, "internal_energy": -1.69, "cluster_size": 4, "cluster_id": 2, "rank_in_cluster": 3}

$$$$

     RDKit          3D

 47 49  0  0  0  0  0  0  0  0999 V2000
  142.0410   77.2440  219.7590 C   0  0  0  0  0  0  0  0  0  0  0  0
  141.4230   77.1060  221.1510 C   0  0  2  0  0  0  0  0  0  0  0  0
  140.0450   76.6800  220.9550 N   0  0  0  0  0  0  0  0  0  0  0  0
  139.6240   75.4730  221.5980 C   0  0  0  0  0  0  0  0  0  0  0  0
  140.4120   74.7960  222.3080 O   0  0  0  0  0  0  0  0  0  0  0  0
  138.1950   75.0610  221.3760 C   0  0  0  0  0  0  0  0  0  0  0  0
  138.0700   73.5810  221.2070 C   0  0  0  0  0  0  0  0  0  0  0  0
  138.5490   72.8130  222.3360 N   0  0  0  0  0  0  0  0  0  0  0  0
  138.3350   71.4100  222.4450 C   0  0  0  0  0  0  0  0  0  0  0  0
  137.7130   70.7550  221.5540 O   0  0  0  0  0  0  0  0  0  0  0  0
  138.8500   70.6980  223.6210 C   0  0  0  0  0  0  0  0  0  0  0  0
  138.7070   69.3340  223.7250 C   0  0  0  0  0  0  0  0  0  0  0  0
  139.1960   68.7120  224.8290 C   0  0  0  0  0  0  0  0  0  0  0  0
  139.8270   69.3980  225.8360 C   0  0  0  0  0  0  0  0  0  0  0  0
  140.3290   68.7690  226.9630 C   0  0  0  0  0  0  0  0  0  0  0  0
  140.9640   69.4830  227.9730 C   0  0  0  0  0  0  0  0  0  0  0  0
  141.4460   68.8240  229.0710 F   0  0  0  0  0  0  0  0  0  0  0  0
  141.0880   70.8470  227.8320 C   0  0  0  0  0  0  0  0  0  0  0  0
  140.5940   71.5130  226.7100 C   0  0  0  0  0  0  0  0  0  0  0  0
  139.9680   70.7840  225.7200 C   0  0  0  0  0  0  0  0  0  0  0  0
  139.4700   71.3620  224.6130 N   0  0  0  0  0  0  0  0  0  0  0  0
  141.5650   78.3120  221.9640 C   0  0  0  0  0  0  0  0  0  0  0  0
  141.8250   79.5230  221.3400 C   0  0  0  0  0  0  0  0  0  0  0  0
  141.9560   80.6500  222.1250 C   0  0  0  0  0  0  0  0  0  0  0  0
  141.8350   80.5920  223.4930 C   0  0  0  0  0  0  0  0  0  0  0  0
  141.5750   79.3800  224.1290 C   0  0  0  0  0  0  0  0  0  0  0  0
  141.4450   78.2500  223.3170 C   0  0  0  0  0  0  0  0  0  0  0  0
  143.1105   77.4828  219.8547 H   0  0  0  0  0  0  0  0  0  0  0  0
  141.9243   76.2977  219.2105 H   0  0  0  0  0  0  0  0  0  0  0  0
  141.5328   78.0508  219.2105 H   0  0  0  0  0  0  0  0  0  0  0  0
  141.9624   76.3517  221.7427 H   0  0  0  0  0  0  0  0  0  0  0  0
  139.4030   77.2560  220.3620 H   0  0  0  0  0  0  0  0  0  0  0  0
  137.5944   75.3735  222.2430 H   0  0  0  0  0  0  0  0  0  0  0  0
  137.8361   75.5444  220.4554 H   0  0  0  0  0  0  0  0  0  0  0  0
  137.0081   73.3399  221.0513 H   0  0  0  0  0  0  0  0  0  0  0  0
  138.6995   73.3065  220.3477 H   0  0  0  0  0  0  0  0  0  0  0  0
  139.0800   73.2790  223.1290 H   0  0  0  0  0  0  0  0  0  0  0  0
  138.2074   68.7593  222.9312 H   0  0  0  0  0  0  0  0  0  0  0  0
  139.0824   67.6216  224.9188 H   0  0  0  0  0  0  0  0  0  0  0  0
  140.2228   67.6786  227.0615 H   0  0  0  0  0  0  0  0  0  0  0  0
  141.5884   71.4253  228.6227 H   0  0  0  0  0  0  0  0  0  0  0  0
  140.7021   72.6036  226.6161 H   0  0  0  0  0  0  0  0  0  0  0  0
  141.9243   79.5835  220.2462 H   0  0  0  0  0  0  0  0  0  0  0  0
  142.1621   81.6179  221.6447 H   0  0  0  0  0  0  0  0  0  0  0  0
  141.9443   81.5094  224.0901 H   0  0  0  0  0  0  0  0  0  0  0  0
  141.4763   79.3153  225.2227 H   0  0  0  0  0  0  0  0  0  0  0  0
  141.2387   77.2777  223.7883 H   0  0  0  0  0  0  0  0  0  0  0  0
  1  2  1  0
  2  3  1  0
  3  4  1  0
  4  5  2  0
  4  6  1  0
  6  7  1  0
  7  8  1  0
  8  9  1  0
  9 10  2  0
  9 11  1  0
 11 12  2  0
 12 13  1  0
 13 14  2  0
 14 15  1  0
 15 16  2  0
 16 17  1  0
 16 18  1  0
 18 19  2  0
 19 20  1  0
 20 21  2  0
  2 22  1  0
 22 23  2  0
 23 24  1  0
 24 25  2  0
 25 26  1  0
 26 27  2  0
 21 11  1  0
 27 22  1  0
 20 14  1  0
  1 28  1  0
  1 29  1  0
  1 30  1  0
  2 31  1  1
  3 32  1  0
  6 33  1  0
  6 34  1  0
  7 35  1  0
  7 36  1  0
  8 37  1  0
 12 38  1  0
 13 39  1  0
 15 40  1  0
 18 41  1  0
 19 42  1  0
 23 43  1  0
 24 44  1  0
 25 45  1  0
 26 46  1  0
 27 47  1  0
M  END
>  <meeko>  (16) 
{"free_energy": -8.27, "intermolecular_energy": -10.06, "internal_energy": -1.61, "cluster_size": 13, "cluster_id": 1, "rank_in_cluster": 6}

$$$$

     RDKit          3D

 47 49  0  0  0  0  0  0  0  0999 V2000
  140.1620   71.7330  223.3550 C   0  0  0  0  0  0  0  0  0  0  0  0
  140.2600   70.4820  224.2300 C   0  0  2  0  0  0  0  0  0  0  0  0
  139.1170   69.6470  223.8940 N   0  0  0  0  0  0  0  0  0  0  0  0
  137.8130   70.2300  223.9980 C   0  0  0  0  0  0  0  0  0  0  0  0
  137.6530   71.4210  224.3680 O   0  0  0  0  0  0  0  0  0  0  0  0
  136.6530   69.3410  223.6430 C   0  0  0  0  0  0  0  0  0  0  0  0
  135.7000   69.1990  224.7860 C   0  0  0  0  0  0  0  0  0  0  0  0
  135.1120   70.4460  225.2240 N   0  0  0  0  0  0  0  0  0  0  0  0
  133.9540   70.4890  226.0510 C   0  0  0  0  0  0  0  0  0  0  0  0
  133.3750   69.4320  226.4500 O   0  0  0  0  0  0  0  0  0  0  0  0
  133.4140   71.7920  226.4560 C   0  0  0  0  0  0  0  0  0  0  0  0
  132.2510   71.8650  227.1870 C   0  0  0  0  0  0  0  0  0  0  0  0
  131.7820   73.0900  227.5420 C   0  0  0  0  0  0  0  0  0  0  0  0
  132.4300   74.2490  227.1970 C   0  0  0  0  0  0  0  0  0  0  0  0
  131.9580   75.5000  227.5570 C   0  0  0  0  0  0  0  0  0  0  0  0
  132.6300   76.6630  227.1960 C   0  0  0  0  0  0  0  0  0  0  0  0
  132.1300   77.8800  227.5720 F   0  0  0  0  0  0  0  0  0  0  0  0
  133.7910   76.5490  226.4640 C   0  0  0  0  0  0  0  0  0  0  0  0
  134.2950   75.3040  226.0850 C   0  0  0  0  0  0  0  0  0  0  0  0
  133.6120   74.1640  226.4540 C   0  0  0  0  0  0  0  0  0  0  0  0
  134.0420   72.9340  226.1220 N   0  0  0  0  0  0  0  0  0  0  0  0
  140.3790   70.7850  225.6540 C   0  0  0  0  0  0  0  0  0  0  0  0
  139.8050   69.9260  226.5800 C   0  0  0  0  0  0  0  0  0  0  0  0
  139.9280   70.2300  227.9200 C   0  0  0  0  0  0  0  0  0  0  0  0
  140.5990   71.3520  228.3450 C   0  0  0  0  0  0  0  0  0  0  0  0
  141.1790   72.2210  227.4220 C   0  0  0  0  0  0  0  0  0  0  0  0
  141.0440   71.8960  226.0700 C   0  0  0  0  0  0  0  0  0  0  0  0
  140.0922   72.6242  223.9960 H   0  0  0  0  0  0  0  0  0  0  0  0
  141.0571   71.8073  222.7199 H   0  0  0  0  0  0  0  0  0  0  0  0
  139.2663   71.6670  222.7199 H   0  0  0  0  0  0  0  0  0  0  0  0
  141.1913   69.9350  224.0216 H   0  0  0  0  0  0  0  0  0  0  0  0
  139.2680   68.6580  223.5870 H   0  0  0  0  0  0  0  0  0  0  0  0
  136.1194   69.7757  222.7849 H   0  0  0  0  0  0  0  0  0  0  0  0
  137.0461   68.3437  223.3962 H   0  0  0  0  0  0  0  0  0  0  0  0
  134.8882   68.5242  224.4769 H   0  0  0  0  0  0  0  0  0  0  0  0
  136.2793   68.8065  225.6347 H   0  0  0  0  0  0  0  0  0  0  0  0
  135.5310   71.3790  224.9390 H   0  0  0  0  0  0  0  0  0  0  0  0
  131.7121   70.9512  227.4780 H   0  0  0  0  0  0  0  0  0  0  0  0
  130.8517   73.1545  228.1255 H   0  0  0  0  0  0  0  0  0  0  0  0
  131.0297   75.5758  228.1423 H   0  0  0  0  0  0  0  0  0  0  0  0
  134.3335   77.4601  226.1714 H   0  0  0  0  0  0  0  0  0  0  0  0
  135.2239   75.2329  225.5002 H   0  0  0  0  0  0  0  0  0  0  0  0
  139.2652   69.0248  226.2538 H   0  0  0  0  0  0  0  0  0  0  0  0
  139.4784   69.5585  228.6663 H   0  0  0  0  0  0  0  0  0  0  0  0
  140.6789   71.5657  229.4211 H   0  0  0  0  0  0  0  0  0  0  0  0
  141.7194   73.1233  227.7442 H   0  0  0  0  0  0  0  0  0  0  0  0
  141.4907   72.5612  225.3164 H   0  0  0  0  0  0  0  0  0  0  0  0
  1  2  1  0
  2  3  1  0
  3  4  1  0
  4  5  2  0
  4  6  1  0
  6  7  1  0
  7  8  1  0
  8  9  1  0
  9 10  2  0
  9 11  1  0
 11 12  2  0
 12 13  1  0
 13 14  2  0
 14 15  1  0
 15 16  2  0
 16 17  1  0
 16 18  1  0
 18 19  2  0
 19 20  1  0
 20 21  2  0
  2 22  1  0
 22 23  2  0
 23 24  1  0
 24 25  2  0
 25 26  1  0
 26 27  2  0
 21 11  1  0
 27 22  1  0
 20 14  1  0
  1 28  1  0
  1 29  1  0
  1 30  1  0
  2 31  1  6
  3 32  1  0
  6 33  1  0
  6 34  1  0
  7 35  1  0
  7 36  1  0
  8 37  1  0
 12 38  1  0
 13 39  1  0
 15 40  1  0
 18 41  1  0
 19 42  1  0
 23 43  1  0
 24 44  1  0
 25 45  1  0
 26 46  1  0
 27 47  1  0
M  END
>  <meeko>  (17) 
{"free_energy": -7.91, "intermolecular_energy": -9.7, "internal_energy": -1.67, "cluster_size": 4, "cluster_id": 2, "rank_in_cluster": 4}

$$$$

     RDKit          3D

 47 49  0  0  0  0  0  0  0  0999 V2000
  142.0080   76.8050  220.3890 C   0  0  0  0  0  0  0  0  0  0  0  0
  141.0420   76.3890  221.5010 C   0  0  2  0  0  0  0  0  0  0  0  0
  139.9680   75.6440  220.8620 N   0  0  0  0  0  0  0  0  0  0  0  0
  139.6740   74.3360  221.3650 C   0  0  0  0  0  0  0  0  0  0  0  0
  140.3200   73.8400  222.3250 O   0  0  0  0  0  0  0  0  0  0  0  0
  138.5580   73.5930  220.6840 C   0  0  0  0  0  0  0  0  0  0  0  0
  137.5820   73.0430  221.6740 C   0  0  0  0  0  0  0  0  0  0  0  0
  138.1860   72.2570  222.7280 N   0  0  0  0  0  0  0  0  0  0  0  0
  137.9440   70.8610  222.8670 C   0  0  0  0  0  0  0  0  0  0  0  0
  137.1840   70.2300  222.0700 O   0  0  0  0  0  0  0  0  0  0  0  0
  138.5920   70.1300  223.9610 C   0  0  0  0  0  0  0  0  0  0  0  0
  138.5740   68.7540  223.9850 C   0  0  0  0  0  0  0  0  0  0  0  0
  139.1850   68.1140  225.0150 C   0  0  0  0  0  0  0  0  0  0  0  0
  139.8160   68.7930  226.0270 C   0  0  0  0  0  0  0  0  0  0  0  0
  140.4420   68.1450  227.0790 C   0  0  0  0  0  0  0  0  0  0  0  0
  141.0750   68.8520  228.0950 C   0  0  0  0  0  0  0  0  0  0  0  0
  141.6810   68.1740  229.1180 F   0  0  0  0  0  0  0  0  0  0  0  0
  141.0730   70.2280  228.0370 C   0  0  0  0  0  0  0  0  0  0  0  0
  140.4530   70.9130  226.9900 C   0  0  0  0  0  0  0  0  0  0  0  0
  139.8300   70.1910  225.9940 C   0  0  0  0  0  0  0  0  0  0  0  0
  139.2140   70.7870  224.9570 N   0  0  0  0  0  0  0  0  0  0  0  0
  140.5870   77.5130  222.3160 C   0  0  0  0  0  0  0  0  0  0  0  0
  139.2350   77.8210  222.3500 C   0  0  0  0  0  0  0  0  0  0  0  0
  138.8250   78.8860  223.1250 C   0  0  0  0  0  0  0  0  0  0  0  0
  139.7190   79.6330  223.8520 C   0  0  0  0  0  0  0  0  0  0  0  0
  141.0800   79.3320  223.8240 C   0  0  0  0  0  0  0  0  0  0  0  0
  141.4760   78.2500  223.0340 C   0  0  0  0  0  0  0  0  0  0  0  0
  142.9314   77.2027  220.8353 H   0  0  0  0  0  0  0  0  0  0  0  0
  142.2486   75.9307  219.7663 H   0  0  0  0  0  0  0  0  0  0  0  0
  141.5382   77.5806  219.7663 H   0  0  0  0  0  0  0  0  0  0  0  0
  141.5490   75.7481  222.2374 H   0  0  0  0  0  0  0  0  0  0  0  0
  139.4410   76.0720  220.0650 H   0  0  0  0  0  0  0  0  0  0  0  0
  138.0310   74.2815  220.0071 H   0  0  0  0  0  0  0  0  0  0  0  0
  138.9939   72.7518  220.1251 H   0  0  0  0  0  0  0  0  0  0  0  0
  137.0467   73.8859  222.1356 H   0  0  0  0  0  0  0  0  0  0  0  0
  136.9148   72.3675  221.1185 H   0  0  0  0  0  0  0  0  0  0  0  0
  138.8360   72.7030  223.4390 H   0  0  0  0  0  0  0  0  0  0  0  0
  138.0752   68.1848  223.1867 H   0  0  0  0  0  0  0  0  0  0  0  0
  139.1738   67.0143  225.0390 H   0  0  0  0  0  0  0  0  0  0  0  0
  140.4382   67.0455  227.1113 H   0  0  0  0  0  0  0  0  0  0  0  0
  141.5711   70.8003  228.8335 H   0  0  0  0  0  0  0  0  0  0  0  0
  140.4615   72.0126  226.9602 H   0  0  0  0  0  0  0  0  0  0  0  0
  138.5078   77.2306  221.7733 H   0  0  0  0  0  0  0  0  0  0  0  0
  137.7561   79.1431  223.1615 H   0  0  0  0  0  0  0  0  0  0  0  0
  139.3586   80.4752  224.4610 H   0  0  0  0  0  0  0  0  0  0  0  0
  141.8101   79.9207  224.3988 H   0  0  0  0  0  0  0  0  0  0  0  0
  142.5428   77.9853  222.9913 H   0  0  0  0  0  0  0  0  0  0  0  0
  1  2  1  0
  2  3  1  0
  3  4  1  0
  4  5  2  0
  4  6  1  0
  6  7  1  0
  7  8  1  0
  8  9  1  0
  9 10  2  0
  9 11  1  0
 11 12  2  0
 12 13  1  0
 13 14  2  0
 14 15  1  0
 15 16  2  0
 16 17  1  0
 16 18  1  0
 18 19  2  0
 19 20  1  0
 20 21  2  0
  2 22  1  0
 22 23  2  0
 23 24  1  0
 24 25  2  0
 25 26  1  0
 26 27  2  0
 21 11  1  0
 27 22  1  0
 20 14  1  0
  1 28  1  0
  1 29  1  0
  1 30  1  0
  2 31  1  1
  3 32  1  0
  6 33  1  0
  6 34  1  0
  7 35  1  0
  7 36  1  0
  8 37  1  0
 12 38  1  0
 13 39  1  0
 15 40  1  0
 18 41  1  0
 19 42  1  0
 23 43  1  0
 24 44  1  0
 25 45  1  0
 26 46  1  0
 27 47  1  0
M  END
>  <meeko>  (18) 
{"free_energy": -7.92, "intermolecular_energy": -9.71, "internal_energy": -1.66, "cluster_size": 13, "cluster_id": 1, "rank_in_cluster": 9}

$$$$

     RDKit          3D

 47 49  0  0  0  0  0  0  0  0999 V2000
  141.9580   77.0340  220.1260 C   0  0  0  0  0  0  0  0  0  0  0  0
  141.1080   76.4710  221.2660 C   0  0  2  0  0  0  0  0  0  0  0  0
  140.0860   75.6370  220.6520 N   0  0  0  0  0  0  0  0  0  0  0  0
  139.7680   74.3960  221.2900 C   0  0  0  0  0  0  0  0  0  0  0  0
  140.3480   74.0310  222.3450 O   0  0  0  0  0  0  0  0  0  0  0  0
  138.7080   73.5570  220.6310 C   0  0  0  0  0  0  0  0  0  0  0  0
  137.7080   73.0570  221.6230 C   0  0  0  0  0  0  0  0  0  0  0  0
  138.2810   72.2880  222.7060 N   0  0  0  0  0  0  0  0  0  0  0  0
  138.0260   70.8980  222.8670 C   0  0  0  0  0  0  0  0  0  0  0  0
  137.2790   70.2550  222.0660 O   0  0  0  0  0  0  0  0  0  0  0  0
  138.6430   70.1830  223.9910 C   0  0  0  0  0  0  0  0  0  0  0  0
  138.5960   68.8100  224.0510 C   0  0  0  0  0  0  0  0  0  0  0  0
  139.1790   68.1860  225.1080 C   0  0  0  0  0  0  0  0  0  0  0  0
  139.8100   68.8790  226.1100 C   0  0  0  0  0  0  0  0  0  0  0  0
  140.4060   68.2480  227.1890 C   0  0  0  0  0  0  0  0  0  0  0  0
  141.0390   68.9700  228.1950 C   0  0  0  0  0  0  0  0  0  0  0  0
  141.6160   68.3090  229.2440 F   0  0  0  0  0  0  0  0  0  0  0  0
  141.0650   70.3440  228.0990 C   0  0  0  0  0  0  0  0  0  0  0  0
  140.4750   71.0120  227.0250 C   0  0  0  0  0  0  0  0  0  0  0  0
  139.8520   70.2750  226.0390 C   0  0  0  0  0  0  0  0  0  0  0  0
  139.2630   70.8550  224.9780 N   0  0  0  0  0  0  0  0  0  0  0  0
  140.5800   77.5050  222.1530 C   0  0  0  0  0  0  0  0  0  0  0  0
  141.4630   78.2890  222.8810 C   0  0  0  0  0  0  0  0  0  0  0  0
  140.9440   79.2600  223.7130 C   0  0  0  0  0  0  0  0  0  0  0  0
  139.5900   79.4590  223.8290 C   0  0  0  0  0  0  0  0  0  0  0  0
  138.6940   78.6770  223.1020 C   0  0  0  0  0  0  0  0  0  0  0  0
  139.2380   77.6990  222.2650 C   0  0  0  0  0  0  0  0  0  0  0  0
  142.8063   77.5959  220.5441 H   0  0  0  0  0  0  0  0  0  0  0  0
  142.3355   76.2067  219.5070 H   0  0  0  0  0  0  0  0  0  0  0  0
  141.3436   77.7043  219.5070 H   0  0  0  0  0  0  0  0  0  0  0  0
  141.7234   75.8622  221.9447 H   0  0  0  0  0  0  0  0  0  0  0  0
  139.6140   75.9560  219.7740 H   0  0  0  0  0  0  0  0  0  0  0  0
  138.1887   74.1657  219.8761 H   0  0  0  0  0  0  0  0  0  0  0  0
  139.1962   72.6879  220.1659 H   0  0  0  0  0  0  0  0  0  0  0  0
  137.1862   73.9242  222.0540 H   0  0  0  0  0  0  0  0  0  0  0  0
  137.0326   72.3811  221.0780 H   0  0  0  0  0  0  0  0  0  0  0  0
  138.9180   72.7440  223.4230 H   0  0  0  0  0  0  0  0  0  0  0  0
  138.0974   68.2296  223.2607 H   0  0  0  0  0  0  0  0  0  0  0  0
  139.1438   67.0879  225.1621 H   0  0  0  0  0  0  0  0  0  0  0  0
  140.3781   67.1502  227.2518 H   0  0  0  0  0  0  0  0  0  0  0  0
  141.5624   70.9283  228.8872 H   0  0  0  0  0  0  0  0  0  0  0  0
  140.5062   72.1099  226.9655 H   0  0  0  0  0  0  0  0  0  0  0  0
  142.5497   78.1404  222.7972 H   0  0  0  0  0  0  0  0  0  0  0  0
  141.6312   79.8897  224.2972 H   0  0  0  0  0  0  0  0  0  0  0  0
  139.2095   80.2421  224.5013 H   0  0  0  0  0  0  0  0  0  0  0  0
  137.6068   78.8232  223.1835 H   0  0  0  0  0  0  0  0  0  0  0  0
  138.5584   77.0647  221.6770 H   0  0  0  0  0  0  0  0  0  0  0  0
  1  2  1  0
  2  3  1  0
  3  4  1  0
  4  5  2  0
  4  6  1  0
  6  7  1  0
  7  8  1  0
  8  9  1  0
  9 10  2  0
  9 11  1  0
 11 12  2  0
 12 13  1  0
 13 14  2  0
 14 15  1  0
 15 16  2  0
 16 17  1  0
 16 18  1  0
 18 19  2  0
 19 20  1  0
 20 21  2  0
  2 22  1  0
 22 23  2  0
 23 24  1  0
 24 25  2  0
 25 26  1  0
 26 27  2  0
 21 11  1  0
 27 22  1  0
 20 14  1  0
  1 28  1  0
  1 29  1  0
  1 30  1  0
  2 31  1  1
  3 32  1  0
  6 33  1  0
  6 34  1  0
  7 35  1  0
  7 36  1  0
  8 37  1  0
 12 38  1  0
 13 39  1  0
 15 40  1  0
 18 41  1  0
 19 42  1  0
 23 43  1  0
 24 44  1  0
 25 45  1  0
 26 46  1  0
 27 47  1  0
M  END
>  <meeko>  (19) 
{"free_energy": -7.86, "intermolecular_energy": -9.65, "internal_energy": -1.67, "cluster_size": 13, "cluster_id": 1, "rank_in_cluster": 13}

$$$$

     RDKit          3D

 47 49  0  0  0  0  0  0  0  0999 V2000
  141.7860   77.1190  220.5580 C   0  0  0  0  0  0  0  0  0  0  0  0
  141.0700   77.1450  221.9100 C   0  0  2  0  0  0  0  0  0  0  0  0
  139.7110   76.6820  221.6710 N   0  0  0  0  0  0  0  0  0  0  0  0
  139.4340   75.2940  221.8820 C   0  0  0  0  0  0  0  0  0  0  0  0
  140.3290   74.4940  222.2590 O   0  0  0  0  0  0  0  0  0  0  0  0
  138.0210   74.8480  221.6270 C   0  0  0  0  0  0  0  0  0  0  0  0
  137.9410   73.3700  221.4210 C   0  0  0  0  0  0  0  0  0  0  0  0
  138.4610   72.5890  222.5220 N   0  0  0  0  0  0  0  0  0  0  0  0
  138.1980   71.1970  222.6560 C   0  0  0  0  0  0  0  0  0  0  0  0
  137.4910   70.5630  221.8130 O   0  0  0  0  0  0  0  0  0  0  0  0
  138.7600   70.4700  223.8010 C   0  0  0  0  0  0  0  0  0  0  0  0
  138.6620   69.1000  223.8710 C   0  0  0  0  0  0  0  0  0  0  0  0
  139.1950   68.4640  224.9460 C   0  0  0  0  0  0  0  0  0  0  0  0
  139.8250   69.1430  225.9590 C   0  0  0  0  0  0  0  0  0  0  0  0
  140.3710   68.5000  227.0570 C   0  0  0  0  0  0  0  0  0  0  0  0
  141.0050   69.2070  228.0730 C   0  0  0  0  0  0  0  0  0  0  0  0
  141.5310   68.5340  229.1420 F   0  0  0  0  0  0  0  0  0  0  0  0
  141.0840   70.5780  227.9670 C   0  0  0  0  0  0  0  0  0  0  0  0
  140.5450   71.2580  226.8740 C   0  0  0  0  0  0  0  0  0  0  0  0
  139.9210   70.5360  225.8780 C   0  0  0  0  0  0  0  0  0  0  0  0
  139.3800   71.1270  224.7980 N   0  0  0  0  0  0  0  0  0  0  0  0
  141.1500   78.4430  222.5770 C   0  0  0  0  0  0  0  0  0  0  0  0
  142.3760   79.0870  222.6610 C   0  0  0  0  0  0  0  0  0  0  0  0
  142.4310   80.3110  223.2940 C   0  0  0  0  0  0  0  0  0  0  0  0
  141.3090   80.8930  223.8350 C   0  0  0  0  0  0  0  0  0  0  0  0
  140.0730   80.2530  223.7550 C   0  0  0  0  0  0  0  0  0  0  0  0
  140.0370   79.0140  223.1100 C   0  0  0  0  0  0  0  0  0  0  0  0
  142.8733   77.0795  220.7196 H   0  0  0  0  0  0  0  0  0  0  0  0
  141.4671   76.2318  219.9912 H   0  0  0  0  0  0  0  0  0  0  0  0
  141.5323   78.0270  219.9912 H   0  0  0  0  0  0  0  0  0  0  0  0
  141.5680   76.4751  222.6265 H   0  0  0  0  0  0  0  0  0  0  0  0
  138.9790   77.3620  221.3580 H   0  0  0  0  0  0  0  0  0  0  0  0
  137.3982   75.1225  222.4912 H   0  0  0  0  0  0  0  0  0  0  0  0
  137.6628   75.3434  220.7125 H   0  0  0  0  0  0  0  0  0  0  0  0
  136.8851   73.0988  221.2740 H   0  0  0  0  0  0  0  0  0  0  0  0
  138.5662   73.1384  220.5461 H   0  0  0  0  0  0  0  0  0  0  0  0
  139.0630   73.0370  223.2740 H   0  0  0  0  0  0  0  0  0  0  0  0
  138.1623   68.5313  223.0729 H   0  0  0  0  0  0  0  0  0  0  0  0
  139.1194   67.3683  225.0070 H   0  0  0  0  0  0  0  0  0  0  0  0
  140.3017   67.4044  227.1273 H   0  0  0  0  0  0  0  0  0  0  0  0
  141.5836   71.1503  228.7625 H   0  0  0  0  0  0  0  0  0  0  0  0
  140.6167   72.3537  226.8077 H   0  0  0  0  0  0  0  0  0  0  0  0
  143.2818   78.6325  222.2333 H   0  0  0  0  0  0  0  0  0  0  0  0
  143.3958   80.8342  223.3678 H   0  0  0  0  0  0  0  0  0  0  0  0
  141.3871   81.8701  224.3343 H   0  0  0  0  0  0  0  0  0  0  0  0
  139.1649   80.7041  224.1814 H   0  0  0  0  0  0  0  0  0  0  0  0
  139.0768   78.4832  223.0308 H   0  0  0  0  0  0  0  0  0  0  0  0
  1  2  1  0
  2  3  1  0
  3  4  1  0
  4  5  2  0
  4  6  1  0
  6  7  1  0
  7  8  1  0
  8  9  1  0
  9 10  2  0
  9 11  1  0
 11 12  2  0
 12 13  1  0
 13 14  2  0
 14 15  1  0
 15 16  2  0
 16 17  1  0
 16 18  1  0
 18 19  2  0
 19 20  1  0
 20 21  2  0
  2 22  1  0
 22 23  2  0
 23 24  1  0
 24 25  2  0
 25 26  1  0
 26 27  2  0
 21 11  1  0
 27 22  1  0
 20 14  1  0
  1 28  1  0
  1 29  1  0
  1 30  1  0
  2 31  1  1
  3 32  1  0
  6 33  1  0
  6 34  1  0
  7 35  1  0
  7 36  1  0
  8 37  1  0
 12 38  1  0
 13 39  1  0
 15 40  1  0
 18 41  1  0
 19 42  1  0
 23 43  1  0
 24 44  1  0
 25 45  1  0
 26 46  1  0
 27 47  1  0
M  END
>  <meeko>  (20) 
{"free_energy": -8.49, "intermolecular_energy": -10.28, "internal_energy": -1.56, "cluster_size": 13, "cluster_id": 1, "rank_in_cluster": 2}

$$$$
