
     RDKit          3D

 45 48  0  0  0  0  0  0  0  0999 V2000
  140.5790   71.7870  221.0670 O   0  0  0  0  0  0  0  0  0  0  0  0
  140.2130   72.2590  222.1850 C   0  0  0  0  0  0  0  0  0  0  0  0
  139.8850   73.6400  222.2320 N   0  0  0  0  0  0  0  0  0  0  0  0
  139.9760   74.4420  221.0350 C   0  0  0  0  0  0  0  0  0  0  0  0
  139.0100   75.5770  221.0840 C   0  0  0  0  0  0  0  0  0  0  0  0
  137.9420   75.5380  220.3930 O   0  0  0  0  0  0  0  0  0  0  0  0
  139.2910   76.7020  221.9070 N   0  0  0  0  0  0  0  0  0  0  0  0
  138.3020   77.5110  222.6200 C   0  0  0  0  0  0  0  0  0  0  0  0
  139.0490   78.7150  223.1320 C   0  0  0  0  0  0  0  0  0  0  0  0
  140.2810   78.7330  222.2550 C   0  0  1  0  0  0  0  0  0  0  0  0
  141.3920   79.5370  222.8200 C   0  0  0  0  0  0  0  0  0  0  0  0
  141.3490   80.5120  223.8010 C   0  0  0  0  0  0  0  0  0  0  0  0
  142.5910   80.9580  223.9800 N   0  0  0  0  0  0  0  0  0  0  0  0
  143.3730   80.2740  223.1310 C   0  0  0  0  0  0  0  0  0  0  0  0
  142.6670   79.4010  222.4120 N   0  0  0  0  0  0  0  0  0  0  0  0
  140.6050   77.2490  222.1880 C   0  0  0  0  0  0  0  0  0  0  0  0
  140.1200   71.4550  223.3900 C   0  0  0  0  0  0  0  0  0  0  0  0
  139.5530   70.1950  223.2680 C   0  0  0  0  0  0  0  0  0  0  0  0
  139.4360   69.3800  224.3840 C   0  0  0  0  0  0  0  0  0  0  0  0
  139.8810   69.8270  225.5990 C   0  0  0  0  0  0  0  0  0  0  0  0
  139.8000   69.0730  226.7600 C   0  0  0  0  0  0  0  0  0  0  0  0
  140.2520   69.5330  227.9800 C   0  0  0  0  0  0  0  0  0  0  0  0
  140.1580   68.7750  229.0860 F   0  0  0  0  0  0  0  0  0  0  0  0
  140.8000   70.7970  228.0020 C   0  0  0  0  0  0  0  0  0  0  0  0
  140.9120   71.5990  226.8910 C   0  0  0  0  0  0  0  0  0  0  0  0
  140.4440   71.0940  225.6840 C   0  0  0  0  0  0  0  0  0  0  0  0
  140.5610   71.8930  224.6000 N   0  0  0  0  0  0  0  0  0  0  0  0
  139.5750   74.0640  223.1540 H   0  0  0  0  0  0  0  0  0  0  0  0
  140.9971   74.8410  220.9449 H   0  0  0  0  0  0  0  0  0  0  0  0
  139.7342   73.8101  220.1677 H   0  0  0  0  0  0  0  0  0  0  0  0
  137.4971   77.8213  221.9375 H   0  0  0  0  0  0  0  0  0  0  0  0
  137.8325   76.9471  223.4395 H   0  0  0  0  0  0  0  0  0  0  0  0
  138.4572   79.6335  223.0051 H   0  0  0  0  0  0  0  0  0  0  0  0
  139.2766   78.6654  224.2070 H   0  0  0  0  0  0  0  0  0  0  0  0
  140.1235   79.2092  221.2760 H   0  0  0  0  0  0  0  0  0  0  0  0
  140.4516   80.8563  224.3360 H   0  0  0  0  0  0  0  0  0  0  0  0
  144.4600   80.4157  223.0396 H   0  0  0  0  0  0  0  0  0  0  0  0
  143.0780   78.7660  221.6920 H   0  0  0  0  0  0  0  0  0  0  0  0
  141.3186   77.0255  221.3813 H   0  0  0  0  0  0  0  0  0  0  0  0
  141.0857   76.8443  223.0909 H   0  0  0  0  0  0  0  0  0  0  0  0
  139.1970   69.8431  222.2885 H   0  0  0  0  0  0  0  0  0  0  0  0
  138.9879   68.3795  224.2933 H   0  0  0  0  0  0  0  0  0  0  0  0
  139.3575   68.0674  226.7063 H   0  0  0  0  0  0  0  0  0  0  0  0
  141.1686   71.1863  228.9625 H   0  0  0  0  0  0  0  0  0  0  0  0
  141.3558   72.6035  226.9552 H   0  0  0  0  0  0  0  0  0  0  0  0
  1  2  2  0
  2  3  1  0
  3  4  1  0
  4  5  1  0
  5  6  2  0
  5  7  1  0
  7  8  1  0
  8  9  1  0
  9 10  1  0
 10 11  1  0
 11 12  2  0
 12 13  1  0
 13 14  2  0
 14 15  1  0
 10 16  1  0
  2 17  1  0
 17 18  2  0
 18 19  1  0
 19 20  2  0
 20 21  1  0
 21 22  2  0
 22 23  1  0
 22 24  1  0
 24 25  2  0
 25 26  1  0
 26 27  2  0
 16  7  1  0
 27 17  1  0
 15 11  1  0
 26 20  1  0
  3 28  1  0
  4 29  1  0
  4 30  1  0
  8 31  1  0
  8 32  1  0
  9 33  1  0
  9 34  1  0
 10 35  1  6
 12 36  1  0
 14 37  1  0
 15 38  1  0
 16 39  1  0
 16 40  1  0
 18 41  1  0
 19 42  1  0
 21 43  1  0
 24 44  1  0
 25 45  1  0
M  END
>  <meeko>  (1) 
{"free_energy": -8.39, "intermolecular_energy": -9.88, "internal_energy": -0.91, "cluster_size": 17, "cluster_id": 1, "rank_in_cluster": 10}

$$$$

     RDKit          3D

 45 48  0  0  0  0  0  0  0  0999 V2000
  138.7820   70.8720  221.5520 O   0  0  0  0  0  0  0  0  0  0  0  0
  139.1630   71.3640  222.6560 C   0  0  0  0  0  0  0  0  0  0  0  0
  139.3440   72.7710  222.7130 N   0  0  0  0  0  0  0  0  0  0  0  0
  139.0940   73.5770  221.5410 C   0  0  0  0  0  0  0  0  0  0  0  0
  140.1590   74.6080  221.3710 C   0  0  0  0  0  0  0  0  0  0  0  0
  141.1980   74.3460  220.6850 O   0  0  0  0  0  0  0  0  0  0  0  0
  140.0030   75.8820  221.9810 N   0  0  0  0  0  0  0  0  0  0  0  0
  138.7290   76.5440  222.2710 C   0  0  0  0  0  0  0  0  0  0  0  0
  139.0800   77.9520  222.6720 C   0  0  0  0  0  0  0  0  0  0  0  0
  140.4740   78.1160  222.1060 C   0  0  1  0  0  0  0  0  0  0  0  0
  141.2290   79.2340  222.7210 C   0  0  0  0  0  0  0  0  0  0  0  0
  140.7680   80.2520  223.5360 C   0  0  0  0  0  0  0  0  0  0  0  0
  141.8080   81.0250  223.8450 N   0  0  0  0  0  0  0  0  0  0  0  0
  142.8780   80.4910  223.2350 C   0  0  0  0  0  0  0  0  0  0  0  0
  142.5540   79.4000  222.5440 N   0  0  0  0  0  0  0  0  0  0  0  0
  141.0730   76.7560  222.4250 C   0  0  0  0  0  0  0  0  0  0  0  0
  139.4150   70.5570  223.8360 C   0  0  0  0  0  0  0  0  0  0  0  0
  139.0180   69.2290  223.7910 C   0  0  0  0  0  0  0  0  0  0  0  0
  139.2310   68.4070  224.8880 C   0  0  0  0  0  0  0  0  0  0  0  0
  139.8320   68.9150  226.0090 C   0  0  0  0  0  0  0  0  0  0  0  0
  140.0790   68.1580  227.1440 C   0  0  0  0  0  0  0  0  0  0  0  0
  140.6860   68.6800  228.2690 C   0  0  0  0  0  0  0  0  0  0  0  0
  140.9110   67.9190  229.3530 F   0  0  0  0  0  0  0  0  0  0  0  0
  141.0450   70.0100  228.2190 C   0  0  0  0  0  0  0  0  0  0  0  0
  140.8290   70.8180  227.1280 C   0  0  0  0  0  0  0  0  0  0  0  0
  140.2160   70.2500  226.0180 C   0  0  0  0  0  0  0  0  0  0  0  0
  140.0110   71.0550  224.9520 N   0  0  0  0  0  0  0  0  0  0  0  0
  139.6620   73.2130  223.6240 H   0  0  0  0  0  0  0  0  0  0  0  0
  139.0758   72.9273  220.6535 H   0  0  0  0  0  0  0  0  0  0  0  0
  138.1263   74.0858  221.6624 H   0  0  0  0  0  0  0  0  0  0  0  0
  138.0878   76.5489  221.3772 H   0  0  0  0  0  0  0  0  0  0  0  0
  138.1740   76.0234  223.0653 H   0  0  0  0  0  0  0  0  0  0  0  0
  138.3827   78.6774  222.2276 H   0  0  0  0  0  0  0  0  0  0  0  0
  139.0239   78.1259  223.7567 H   0  0  0  0  0  0  0  0  0  0  0  0
  140.4930   78.3822  221.0389 H   0  0  0  0  0  0  0  0  0  0  0  0
  139.7297   80.3972  223.8690 H   0  0  0  0  0  0  0  0  0  0  0  0
  143.8958   80.9035  223.2982 H   0  0  0  0  0  0  0  0  0  0  0  0
  143.2340   78.8290  221.9940 H   0  0  0  0  0  0  0  0  0  0  0  0
  142.0012   76.5793  221.8617 H   0  0  0  0  0  0  0  0  0  0  0  0
  141.3672   76.6211  223.4763 H   0  0  0  0  0  0  0  0  0  0  0  0
  138.5353   68.8283  222.8874 H   0  0  0  0  0  0  0  0  0  0  0  0
  138.9188   67.3527  224.8577 H   0  0  0  0  0  0  0  0  0  0  0  0
  139.7795   67.0996  227.1484 H   0  0  0  0  0  0  0  0  0  0  0  0
  141.5318   70.4496  229.1020 H   0  0  0  0  0  0  0  0  0  0  0  0
  141.1305   71.8759  227.1336 H   0  0  0  0  0  0  0  0  0  0  0  0
  1  2  2  0
  2  3  1  0
  3  4  1  0
  4  5  1  0
  5  6  2  0
  5  7  1  0
  7  8  1  0
  8  9  1  0
  9 10  1  0
 10 11  1  0
 11 12  2  0
 12 13  1  0
 13 14  2  0
 14 15  1  0
 10 16  1  0
  2 17  1  0
 17 18  2  0
 18 19  1  0
 19 20  2  0
 20 21  1  0
 21 22  2  0
 22 23  1  0
 22 24  1  0
 24 25  2  0
 25 26  1  0
 26 27  2  0
 16  7  1  0
 27 17  1  0
 15 11  1  0
 26 20  1  0
  3 28  1  0
  4 29  1  0
  4 30  1  0
  8 31  1  0
  8 32  1  0
  9 33  1  0
  9 34  1  0
 10 35  1  6
 12 36  1  0
 14 37  1  0
 15 38  1  0
 16 39  1  0
 16 40  1  0
 18 41  1  0
 19 42  1  0
 21 43  1  0
 24 44  1  0
 25 45  1  0
M  END
>  <meeko>  (2) 
{"free_energy": -8.3, "intermolecular_energy": -9.8, "internal_energy": -1.03, "cluster_size": 17, "cluster_id": 1, "rank_in_cluster": 11}

$$$$

     RDKit          3D

 45 48  0  0  0  0  0  0  0  0999 V2000
  142.9690   75.8070  220.1440 O   0  0  0  0  0  0  0  0  0  0  0  0
  141.9950   76.3690  219.5600 C   0  0  0  0  0  0  0  0  0  0  0  0
  140.7510   75.6850  219.5630 N   0  0  0  0  0  0  0  0  0  0  0  0
  140.6370   74.4020  220.2160 C   0  0  0  0  0  0  0  0  0  0  0  0
  140.1740   74.5640  221.6250 C   0  0  0  0  0  0  0  0  0  0  0  0
  139.9290   73.5400  222.3390 O   0  0  0  0  0  0  0  0  0  0  0  0
  140.0090   75.8700  222.1610 N   0  0  0  0  0  0  0  0  0  0  0  0
  138.7300   76.5470  222.3900 C   0  0  0  0  0  0  0  0  0  0  0  0
  139.0760   77.9750  222.7190 C   0  0  0  0  0  0  0  0  0  0  0  0
  140.4810   78.1070  222.1730 C   0  0  1  0  0  0  0  0  0  0  0  0
  141.2260   79.2570  222.7400 C   0  0  0  0  0  0  0  0  0  0  0  0
  140.8950   80.0650  223.8120 C   0  0  0  0  0  0  0  0  0  0  0  0
  141.8650   80.9670  223.9530 N   0  0  0  0  0  0  0  0  0  0  0  0
  142.7670   80.7150  222.9910 C   0  0  0  0  0  0  0  0  0  0  0  0
  142.4020   79.6790  222.2380 N   0  0  0  0  0  0  0  0  0  0  0  0
  141.0710   76.7660  222.5770 C   0  0  0  0  0  0  0  0  0  0  0  0
  142.1060   77.6590  218.9030 C   0  0  0  0  0  0  0  0  0  0  0  0
  142.4450   77.6570  217.5580 C   0  0  0  0  0  0  0  0  0  0  0  0
  142.5670   78.8590  216.8750 C   0  0  0  0  0  0  0  0  0  0  0  0
  142.3520   80.0380  217.5360 C   0  0  0  0  0  0  0  0  0  0  0  0
  142.4550   81.2790  216.9250 C   0  0  0  0  0  0  0  0  0  0  0  0
  142.2370   82.4620  217.6010 C   0  0  0  0  0  0  0  0  0  0  0  0
  142.3440   83.6480  216.9780 F   0  0  0  0  0  0  0  0  0  0  0  0
  141.9050   82.3630  218.9350 C   0  0  0  0  0  0  0  0  0  0  0  0
  141.7870   81.1670  219.6050 C   0  0  0  0  0  0  0  0  0  0  0  0
  142.0150   80.0010  218.8840 C   0  0  0  0  0  0  0  0  0  0  0  0
  141.8940   78.8340  219.5540 N   0  0  0  0  0  0  0  0  0  0  0  0
  139.9160   76.1310  219.0820 H   0  0  0  0  0  0  0  0  0  0  0  0
  139.9131   73.7813  219.6676 H   0  0  0  0  0  0  0  0  0  0  0  0
  141.6261   73.9208  220.2230 H   0  0  0  0  0  0  0  0  0  0  0  0
  138.1056   76.5026  221.4855 H   0  0  0  0  0  0  0  0  0  0  0  0
  138.1591   76.0712  223.2010 H   0  0  0  0  0  0  0  0  0  0  0  0
  138.3889   78.6751  222.2212 H   0  0  0  0  0  0  0  0  0  0  0  0
  138.9990   78.2085  223.7912 H   0  0  0  0  0  0  0  0  0  0  0  0
  140.5216   78.3147  221.0935 H   0  0  0  0  0  0  0  0  0  0  0  0
  139.9932   79.9786  224.4359 H   0  0  0  0  0  0  0  0  0  0  0  0
  143.6918   81.2920  222.8433 H   0  0  0  0  0  0  0  0  0  0  0  0
  142.9580   79.3130  221.4330 H   0  0  0  0  0  0  0  0  0  0  0  0
  142.0096   76.5583  222.0422 H   0  0  0  0  0  0  0  0  0  0  0  0
  141.3443   76.6885  223.6397 H   0  0  0  0  0  0  0  0  0  0  0  0
  142.6167   76.7052  217.0340 H   0  0  0  0  0  0  0  0  0  0  0  0
  142.8350   78.8641  215.8082 H   0  0  0  0  0  0  0  0  0  0  0  0
  142.7212   81.3218  215.8586 H   0  0  0  0  0  0  0  0  0  0  0  0
  141.7242   83.2921  219.4954 H   0  0  0  0  0  0  0  0  0  0  0  0
  141.5219   81.1349  220.6721 H   0  0  0  0  0  0  0  0  0  0  0  0
  1  2  2  0
  2  3  1  0
  3  4  1  0
  4  5  1  0
  5  6  2  0
  5  7  1  0
  7  8  1  0
  8  9  1  0
  9 10  1  0
 10 11  1  0
 11 12  2  0
 12 13  1  0
 13 14  2  0
 14 15  1  0
 10 16  1  0
  2 17  1  0
 17 18  2  0
 18 19  1  0
 19 20  2  0
 20 21  1  0
 21 22  2  0
 22 23  1  0
 22 24  1  0
 24 25  2  0
 25 26  1  0
 26 27  2  0
 16  7  1  0
 27 17  1  0
 15 11  1  0
 26 20  1  0
  3 28  1  0
  4 29  1  0
  4 30  1  0
  8 31  1  0
  8 32  1  0
  9 33  1  0
  9 34  1  0
 10 35  1  6
 12 36  1  0
 14 37  1  0
 15 38  1  0
 16 39  1  0
 16 40  1  0
 18 41  1  0
 19 42  1  0
 21 43  1  0
 24 44  1  0
 25 45  1  0
M  END
>  <meeko>  (3) 
{"free_energy": -6.07, "intermolecular_energy": -7.56, "internal_energy": -2.4, "cluster_size": 2, "cluster_id": 3, "rank_in_cluster": 1}

$$$$

     RDKit          3D

 45 48  0  0  0  0  0  0  0  0999 V2000
  140.5190   71.8480  221.0930 O   0  0  0  0  0  0  0  0  0  0  0  0
  139.9760   72.2110  222.1790 C   0  0  0  0  0  0  0  0  0  0  0  0
  139.3060   73.4630  222.1850 N   0  0  0  0  0  0  0  0  0  0  0  0
  139.2660   74.2620  220.9830 C   0  0  0  0  0  0  0  0  0  0  0  0
  139.9980   75.5480  221.1790 C   0  0  0  0  0  0  0  0  0  0  0  0
  139.4100   76.5430  221.7100 O   0  0  0  0  0  0  0  0  0  0  0  0
  141.3540   75.6510  220.7660 N   0  0  0  0  0  0  0  0  0  0  0  0
  141.9760   76.8250  220.1500 C   0  0  0  0  0  0  0  0  0  0  0  0
  143.3270   76.3670  219.6670 C   0  0  0  0  0  0  0  0  0  0  0  0
  143.1630   74.8640  219.6090 C   0  0  1  0  0  0  0  0  0  0  0  0
  144.4530   74.1320  219.5900 C   0  0  0  0  0  0  0  0  0  0  0  0
  145.0220   73.3980  218.5660 C   0  0  0  0  0  0  0  0  0  0  0  0
  146.1860   72.9230  219.0070 N   0  0  0  0  0  0  0  0  0  0  0  0
  146.3240   73.3580  220.2700 C   0  0  0  0  0  0  0  0  0  0  0  0
  145.2830   74.0970  220.6500 N   0  0  0  0  0  0  0  0  0  0  0  0
  142.3640   74.6150  220.8790 C   0  0  0  0  0  0  0  0  0  0  0  0
  140.0140   71.4090  223.3880 C   0  0  0  0  0  0  0  0  0  0  0  0
  139.5500   70.1040  223.2980 C   0  0  0  0  0  0  0  0  0  0  0  0
  139.5610   69.2880  224.4200 C   0  0  0  0  0  0  0  0  0  0  0  0
  140.0290   69.7790  225.6100 C   0  0  0  0  0  0  0  0  0  0  0  0
  140.0720   69.0270  226.7740 C   0  0  0  0  0  0  0  0  0  0  0  0
  140.5460   69.5310  227.9680 C   0  0  0  0  0  0  0  0  0  0  0  0
  140.5740   68.7750  229.0790 F   0  0  0  0  0  0  0  0  0  0  0  0
  140.9850   70.8370  227.9600 C   0  0  0  0  0  0  0  0  0  0  0  0
  140.9700   71.6400  226.8430 C   0  0  0  0  0  0  0  0  0  0  0  0
  140.4850   71.0900  225.6630 C   0  0  0  0  0  0  0  0  0  0  0  0
  140.4780   71.8890  224.5730 N   0  0  0  0  0  0  0  0  0  0  0  0
  138.8410   73.7940  223.0790 H   0  0  0  0  0  0  0  0  0  0  0  0
  139.7351   73.7013  220.1611 H   0  0  0  0  0  0  0  0  0  0  0  0
  138.2163   74.4860  220.7423 H   0  0  0  0  0  0  0  0  0  0  0  0
  141.3680   77.1820  219.3056 H   0  0  0  0  0  0  0  0  0  0  0  0
  142.0618   77.6587  220.8625 H   0  0  0  0  0  0  0  0  0  0  0  0
  143.5549   76.7805  218.6735 H   0  0  0  0  0  0  0  0  0  0  0  0
  144.1564   76.6926  220.3121 H   0  0  0  0  0  0  0  0  0  0  0  0
  142.6789   74.5046  218.6889 H   0  0  0  0  0  0  0  0  0  0  0  0
  144.5913   73.2354  217.5670 H   0  0  0  0  0  0  0  0  0  0  0  0
  147.1890   73.1322  220.9109 H   0  0  0  0  0  0  0  0  0  0  0  0
  145.1860   74.5330  221.5940 H   0  0  0  0  0  0  0  0  0  0  0  0
  141.9158   73.6105  220.8860 H   0  0  0  0  0  0  0  0  0  0  0  0
  142.9551   74.6514  221.8060 H   0  0  0  0  0  0  0  0  0  0  0  0
  139.1743   69.7175  222.3391 H   0  0  0  0  0  0  0  0  0  0  0  0
  139.1959   68.2524  224.3543 H   0  0  0  0  0  0  0  0  0  0  0  0
  139.7141   67.9873  226.7446 H   0  0  0  0  0  0  0  0  0  0  0  0
  141.3690   71.2614  228.8994 H   0  0  0  0  0  0  0  0  0  0  0  0
  141.3288   72.6791  226.8827 H   0  0  0  0  0  0  0  0  0  0  0  0
  1  2  2  0
  2  3  1  0
  3  4  1  0
  4  5  1  0
  5  6  2  0
  5  7  1  0
  7  8  1  0
  8  9  1  0
  9 10  1  0
 10 11  1  0
 11 12  2  0
 12 13  1  0
 13 14  2  0
 14 15  1  0
 10 16  1  0
  2 17  1  0
 17 18  2  0
 18 19  1  0
 19 20  2  0
 20 21  1  0
 21 22  2  0
 22 23  1  0
 22 24  1  0
 24 25  2  0
 25 26  1  0
 26 27  2  0
 16  7  1  0
 27 17  1  0
 15 11  1  0
 26 20  1  0
  3 28  1  0
  4 29  1  0
  4 30  1  0
  8 31  1  0
  8 32  1  0
  9 33  1  0
  9 34  1  0
 10 35  1  6
 12 36  1  0
 14 37  1  0
 15 38  1  0
 16 39  1  0
 16 40  1  0
 18 41  1  0
 19 42  1  0
 21 43  1  0
 24 44  1  0
 25 45  1  0
M  END
>  <meeko>  (4) 
{"free_energy": -8.05, "intermolecular_energy": -9.54, "internal_energy": -1.06, "cluster_size": 1, "cluster_id": 2, "rank_in_cluster": 1}

$$$$

     RDKit          3D

 45 48  0  0  0  0  0  0  0  0999 V2000
  141.2210   72.1560  221.5020 O   0  0  0  0  0  0  0  0  0  0  0  0
  140.3940   72.4100  222.4290 C   0  0  0  0  0  0  0  0  0  0  0  0
  139.6150   73.5890  222.3010 N   0  0  0  0  0  0  0  0  0  0  0  0
  139.7840   74.4420  221.1480 C   0  0  0  0  0  0  0  0  0  0  0  0
  138.8360   75.5940  221.1980 C   0  0  0  0  0  0  0  0  0  0  0  0
  137.7550   75.5600  220.5290 O   0  0  0  0  0  0  0  0  0  0  0  0
  139.1530   76.7260  221.9970 N   0  0  0  0  0  0  0  0  0  0  0  0
  138.1890   77.5720  222.7040 C   0  0  0  0  0  0  0  0  0  0  0  0
  138.9690   78.7670  223.1860 C   0  0  0  0  0  0  0  0  0  0  0  0
  140.1920   78.7400  222.2970 C   0  0  1  0  0  0  0  0  0  0  0  0
  141.3270   79.5290  222.8360 C   0  0  0  0  0  0  0  0  0  0  0  0
  141.3200   80.5090  223.8110 C   0  0  0  0  0  0  0  0  0  0  0  0
  142.5720   80.9360  223.9640 N   0  0  0  0  0  0  0  0  0  0  0  0
  143.3260   80.2330  223.1040 C   0  0  0  0  0  0  0  0  0  0  0  0
  142.5920   79.3680  222.4050 N   0  0  0  0  0  0  0  0  0  0  0  0
  140.4810   77.2480  222.2540 C   0  0  0  0  0  0  0  0  0  0  0  0
  140.2220   71.5540  223.5890 C   0  0  0  0  0  0  0  0  0  0  0  0
  139.5430   70.3590  223.3980 C   0  0  0  0  0  0  0  0  0  0  0  0
  139.3460   69.4990  224.4690 C   0  0  0  0  0  0  0  0  0  0  0  0
  139.8230   69.8390  225.7070 C   0  0  0  0  0  0  0  0  0  0  0  0
  139.6660   69.0340  226.8260 C   0  0  0  0  0  0  0  0  0  0  0  0
  140.1510   69.3850  228.0690 C   0  0  0  0  0  0  0  0  0  0  0  0
  139.9820   68.5820  229.1330 F   0  0  0  0  0  0  0  0  0  0  0  0
  140.8120   70.5920  228.1600 C   0  0  0  0  0  0  0  0  0  0  0  0
  141.0020   71.4390  227.0930 C   0  0  0  0  0  0  0  0  0  0  0  0
  140.4980   71.0440  225.8600 C   0  0  0  0  0  0  0  0  0  0  0  0
  140.6930   71.8850  224.8210 N   0  0  0  0  0  0  0  0  0  0  0  0
  138.9130   73.8280  223.0610 H   0  0  0  0  0  0  0  0  0  0  0  0
  140.8154   74.8241  221.1300 H   0  0  0  0  0  0  0  0  0  0  0  0
  139.5777   73.8545  220.2412 H   0  0  0  0  0  0  0  0  0  0  0  0
  137.3851   77.8884  222.0231 H   0  0  0  0  0  0  0  0  0  0  0  0
  137.7139   77.0349  223.5382 H   0  0  0  0  0  0  0  0  0  0  0  0
  138.3976   79.6967  223.0478 H   0  0  0  0  0  0  0  0  0  0  0  0
  139.2064   78.7317  224.2595 H   0  0  0  0  0  0  0  0  0  0  0  0
  140.0356   79.2014  221.3107 H   0  0  0  0  0  0  0  0  0  0  0  0
  140.4390   80.8709  224.3613 H   0  0  0  0  0  0  0  0  0  0  0  0
  144.4132   80.3557  222.9906 H   0  0  0  0  0  0  0  0  0  0  0  0
  142.9780   78.7230  221.6800 H   0  0  0  0  0  0  0  0  0  0  0  0
  141.1806   76.9935  221.4442 H   0  0  0  0  0  0  0  0  0  0  0  0
  140.9618   76.8491  223.1594 H   0  0  0  0  0  0  0  0  0  0  0  0
  139.1621   70.0943  222.4006 H   0  0  0  0  0  0  0  0  0  0  0  0
  138.8097   68.5495  224.3245 H   0  0  0  0  0  0  0  0  0  0  0  0
  139.1335   68.0776  226.7178 H   0  0  0  0  0  0  0  0  0  0  0  0
  141.2093   70.8941  229.1403 H   0  0  0  0  0  0  0  0  0  0  0  0
  141.5338   72.3946  227.2116 H   0  0  0  0  0  0  0  0  0  0  0  0
  1  2  2  0
  2  3  1  0
  3  4  1  0
  4  5  1  0
  5  6  2  0
  5  7  1  0
  7  8  1  0
  8  9  1  0
  9 10  1  0
 10 11  1  0
 11 12  2  0
 12 13  1  0
 13 14  2  0
 14 15  1  0
 10 16  1  0
  2 17  1  0
 17 18  2  0
 18 19  1  0
 19 20  2  0
 20 21  1  0
 21 22  2  0
 22 23  1  0
 22 24  1  0
 24 25  2  0
 25 26  1  0
 26 27  2  0
 16  7  1  0
 27 17  1  0
 15 11  1  0
 26 20  1  0
  3 28  1  0
  4 29  1  0
  4 30  1  0
  8 31  1  0
  8 32  1  0
  9 33  1  0
  9 34  1  0
 10 35  1  6
 12 36  1  0
 14 37  1  0
 15 38  1  0
 16 39  1  0
 16 40  1  0
 18 41  1  0
 19 42  1  0
 21 43  1  0
 24 44  1  0
 25 45  1  0
M  END
>  <meeko>  (5) 
{"free_energy": -8.58, "intermolecular_energy": -10.07, "internal_energy": -0.82, "cluster_size": 17, "cluster_id": 1, "rank_in_cluster": 4}

$$$$

     RDKit          3D

 45 48  0  0  0  0  0  0  0  0999 V2000
  140.9860   73.0130  222.3210 O   0  0  0  0  0  0  0  0  0  0  0  0
  139.9530   72.5330  222.8770 C   0  0  0  0  0  0  0  0  0  0  0  0
  138.6920   73.0060  222.4250 N   0  0  0  0  0  0  0  0  0  0  0  0
  138.6290   73.9920  221.3730 C   0  0  0  0  0  0  0  0  0  0  0  0
  138.4480   75.3610  221.9400 C   0  0  0  0  0  0  0  0  0  0  0  0
  137.3980   75.6440  222.6010 O   0  0  0  0  0  0  0  0  0  0  0  0
  139.4560   76.3420  221.7370 N   0  0  0  0  0  0  0  0  0  0  0  0
  140.4990   76.2980  220.7100 C   0  0  0  0  0  0  0  0  0  0  0  0
  141.4600   77.4050  221.0550 C   0  0  0  0  0  0  0  0  0  0  0  0
  141.1500   77.6660  222.5120 C   0  0  1  0  0  0  0  0  0  0  0  0
  141.6300   78.9870  222.9880 C   0  0  0  0  0  0  0  0  0  0  0  0
  140.9380   79.9690  223.6730 C   0  0  0  0  0  0  0  0  0  0  0  0
  141.7780   80.9800  223.8870 N   0  0  0  0  0  0  0  0  0  0  0  0
  142.9540   80.6240  223.3450 C   0  0  0  0  0  0  0  0  0  0  0  0
  142.8910   79.4140  222.7910 N   0  0  0  0  0  0  0  0  0  0  0  0
  139.6340   77.5590  222.5060 C   0  0  0  0  0  0  0  0  0  0  0  0
  140.0130   71.5410  223.9340 C   0  0  0  0  0  0  0  0  0  0  0  0
  139.5440   70.2700  223.6370 C   0  0  0  0  0  0  0  0  0  0  0  0
  139.5750   69.2780  224.6070 C   0  0  0  0  0  0  0  0  0  0  0  0
  140.0680   69.5640  225.8520 C   0  0  0  0  0  0  0  0  0  0  0  0
  140.1330   68.6280  226.8740 C   0  0  0  0  0  0  0  0  0  0  0  0
  140.6310   68.9260  228.1260 C   0  0  0  0  0  0  0  0  0  0  0  0
  140.6800   67.9960  229.0930 F   0  0  0  0  0  0  0  0  0  0  0  0
  141.0730   70.2160  228.3270 C   0  0  0  0  0  0  0  0  0  0  0  0
  141.0390   71.1940  227.3590 C   0  0  0  0  0  0  0  0  0  0  0  0
  140.5290   70.8480  226.1140 C   0  0  0  0  0  0  0  0  0  0  0  0
  140.5010   71.8180  225.1730 N   0  0  0  0  0  0  0  0  0  0  0  0
  137.8080   72.6220  222.8710 H   0  0  0  0  0  0  0  0  0  0  0  0
  139.5639   73.9621  220.7942 H   0  0  0  0  0  0  0  0  0  0  0  0
  137.7702   73.7622  220.7252 H   0  0  0  0  0  0  0  0  0  0  0  0
  141.0127   75.3254  220.7269 H   0  0  0  0  0  0  0  0  0  0  0  0
  140.0798   76.4250  219.7010 H   0  0  0  0  0  0  0  0  0  0  0  0
  142.5030   77.0816  220.9223 H   0  0  0  0  0  0  0  0  0  0  0  0
  141.3509   78.2947  220.4174 H   0  0  0  0  0  0  0  0  0  0  0  0
  141.6518   76.9735  223.2038 H   0  0  0  0  0  0  0  0  0  0  0  0
  139.8841   79.9233  223.9848 H   0  0  0  0  0  0  0  0  0  0  0  0
  143.8565   81.2528  223.3570 H   0  0  0  0  0  0  0  0  0  0  0  0
  143.6930   78.9450  222.3150 H   0  0  0  0  0  0  0  0  0  0  0  0
  139.2303   77.4583  223.5243 H   0  0  0  0  0  0  0  0  0  0  0  0
  139.1148   78.4385  222.0975 H   0  0  0  0  0  0  0  0  0  0  0  0
  139.1483   70.0487  222.6348 H   0  0  0  0  0  0  0  0  0  0  0  0
  139.2056   68.2677  224.3770 H   0  0  0  0  0  0  0  0  0  0  0  0
  139.7730   67.6071  226.6784 H   0  0  0  0  0  0  0  0  0  0  0  0
  141.4755   70.4787  229.3165 H   0  0  0  0  0  0  0  0  0  0  0  0
  141.4022   72.2119  227.5637 H   0  0  0  0  0  0  0  0  0  0  0  0
  1  2  2  0
  2  3  1  0
  3  4  1  0
  4  5  1  0
  5  6  2  0
  5  7  1  0
  7  8  1  0
  8  9  1  0
  9 10  1  0
 10 11  1  0
 11 12  2  0
 12 13  1  0
 13 14  2  0
 14 15  1  0
 10 16  1  0
  2 17  1  0
 17 18  2  0
 18 19  1  0
 19 20  2  0
 20 21  1  0
 21 22  2  0
 22 23  1  0
 22 24  1  0
 24 25  2  0
 25 26  1  0
 26 27  2  0
 16  7  1  0
 27 17  1  0
 15 11  1  0
 26 20  1  0
  3 28  1  0
  4 29  1  0
  4 30  1  0
  8 31  1  0
  8 32  1  0
  9 33  1  0
  9 34  1  0
 10 35  1  1
 12 36  1  0
 14 37  1  0
 15 38  1  0
 16 39  1  0
 16 40  1  0
 18 41  1  0
 19 42  1  0
 21 43  1  0
 24 44  1  0
 25 45  1  0
M  END
>  <meeko>  (6) 
{"free_energy": -8.63, "intermolecular_energy": -10.12, "internal_energy": -0.98, "cluster_size": 17, "cluster_id": 1, "rank_in_cluster": 2}

$$$$

     RDKit          3D

 45 48  0  0  0  0  0  0  0  0999 V2000
  140.5840   71.9610  221.3160 O   0  0  0  0  0  0  0  0  0  0  0  0
  139.8430   72.1790  222.3200 C   0  0  0  0  0  0  0  0  0  0  0  0
  138.9580   73.2880  222.2480 N   0  0  0  0  0  0  0  0  0  0  0  0
  138.9320   74.1110  221.0620 C   0  0  0  0  0  0  0  0  0  0  0  0
  140.0770   75.0680  221.0570 C   0  0  0  0  0  0  0  0  0  0  0  0
  141.1330   74.7970  220.4000 O   0  0  0  0  0  0  0  0  0  0  0  0
  139.9790   76.2810  221.7920 N   0  0  0  0  0  0  0  0  0  0  0  0
  138.7350   76.9610  222.1600 C   0  0  0  0  0  0  0  0  0  0  0  0
  139.1470   78.3080  222.6930 C   0  0  0  0  0  0  0  0  0  0  0  0
  140.5420   78.4710  222.1300 C   0  0  1  0  0  0  0  0  0  0  0  0
  141.3480   79.4910  222.8440 C   0  0  0  0  0  0  0  0  0  0  0  0
  140.9320   80.4560  223.7420 C   0  0  0  0  0  0  0  0  0  0  0  0
  142.0070   81.1450  224.1220 N   0  0  0  0  0  0  0  0  0  0  0  0
  143.0540   80.6140  223.4710 C   0  0  0  0  0  0  0  0  0  0  0  0
  142.6800   79.6050  222.6860 N   0  0  0  0  0  0  0  0  0  0  0  0
  141.0870   77.0620  222.3060 C   0  0  0  0  0  0  0  0  0  0  0  0
  139.8660   71.3530  223.5130 C   0  0  0  0  0  0  0  0  0  0  0  0
  139.3170   70.0830  223.4150 C   0  0  0  0  0  0  0  0  0  0  0  0
  139.3090   69.2460  224.5210 C   0  0  0  0  0  0  0  0  0  0  0  0
  139.8440   69.6820  225.7040 C   0  0  0  0  0  0  0  0  0  0  0  0
  139.8740   68.9070  226.8530 C   0  0  0  0  0  0  0  0  0  0  0  0
  140.4160   69.3560  228.0400 C   0  0  0  0  0  0  0  0  0  0  0  0
  140.4290   68.5780  229.1360 F   0  0  0  0  0  0  0  0  0  0  0  0
  140.9380   70.6320  228.0410 C   0  0  0  0  0  0  0  0  0  0  0  0
  140.9410   71.4550  226.9390 C   0  0  0  0  0  0  0  0  0  0  0  0
  140.3850   70.9610  225.7650 C   0  0  0  0  0  0  0  0  0  0  0  0
  140.3960   71.7800  224.6910 N   0  0  0  0  0  0  0  0  0  0  0  0
  138.3240   73.4960  223.0730 H   0  0  0  0  0  0  0  0  0  0  0  0
  138.9972   73.4657  220.1735 H   0  0  0  0  0  0  0  0  0  0  0  0
  137.9931   74.6839  221.0504 H   0  0  0  0  0  0  0  0  0  0  0  0
  138.0877   77.0793  221.2785 H   0  0  0  0  0  0  0  0  0  0  0  0
  138.1648   76.3873  222.9055 H   0  0  0  0  0  0  0  0  0  0  0  0
  138.4767   79.1010  222.3299 H   0  0  0  0  0  0  0  0  0  0  0  0
  139.1064   78.3763  223.7901 H   0  0  0  0  0  0  0  0  0  0  0  0
  140.5636   78.8412  221.0944 H   0  0  0  0  0  0  0  0  0  0  0  0
  139.8994   80.6246  224.0816 H   0  0  0  0  0  0  0  0  0  0  0  0
  144.0906   80.9677  223.5730 H   0  0  0  0  0  0  0  0  0  0  0  0
  143.3350   79.0500  222.0900 H   0  0  0  0  0  0  0  0  0  0  0  0
  142.0022   76.9045  221.7164 H   0  0  0  0  0  0  0  0  0  0  0  0
  141.3842   76.8119  223.3351 H   0  0  0  0  0  0  0  0  0  0  0  0
  138.8886   69.7401  222.4616 H   0  0  0  0  0  0  0  0  0  0  0  0
  138.8754   68.2377  224.4484 H   0  0  0  0  0  0  0  0  0  0  0  0
  139.4486   67.8932  226.8171 H   0  0  0  0  0  0  0  0  0  0  0  0
  141.3765   71.0131  228.9751 H   0  0  0  0  0  0  0  0  0  0  0  0
  141.3681   72.4677  226.9852 H   0  0  0  0  0  0  0  0  0  0  0  0
  1  2  2  0
  2  3  1  0
  3  4  1  0
  4  5  1  0
  5  6  2  0
  5  7  1  0
  7  8  1  0
  8  9  1  0
  9 10  1  0
 10 11  1  0
 11 12  2  0
 12 13  1  0
 13 14  2  0
 14 15  1  0
 10 16  1  0
  2 17  1  0
 17 18  2  0
 18 19  1  0
 19 20  2  0
 20 21  1  0
 21 22  2  0
 22 23  1  0
 22 24  1  0
 24 25  2  0
 25 26  1  0
 26 27  2  0
 16  7  1  0
 27 17  1  0
 15 11  1  0
 26 20  1  0
  3 28  1  0
  4 29  1  0
  4 30  1  0
  8 31  1  0
  8 32  1  0
  9 33  1  0
  9 34  1  0
 10 35  1  6
 12 36  1  0
 14 37  1  0
 15 38  1  0
 16 39  1  0
 16 40  1  0
 18 41  1  0
 19 42  1  0
 21 43  1  0
 24 44  1  0
 25 45  1  0
M  END
>  <meeko>  (7) 
{"free_energy": -8.48, "intermolecular_energy": -9.97, "internal_energy": -0.88, "cluster_size": 17, "cluster_id": 1, "rank_in_cluster": 7}

$$$$

     RDKit          3D

 45 48  0  0  0  0  0  0  0  0999 V2000
  140.9500   71.9160  221.2440 O   0  0  0  0  0  0  0  0  0  0  0  0
  140.4080   72.3340  222.3110 C   0  0  0  0  0  0  0  0  0  0  0  0
  139.9580   73.6800  222.3270 N   0  0  0  0  0  0  0  0  0  0  0  0
  140.1270   74.5090  221.1570 C   0  0  0  0  0  0  0  0  0  0  0  0
  139.1420   75.6300  221.1550 C   0  0  0  0  0  0  0  0  0  0  0  0
  138.0930   75.5570  220.4380 O   0  0  0  0  0  0  0  0  0  0  0  0
  139.3850   76.7770  221.9590 N   0  0  0  0  0  0  0  0  0  0  0  0
  138.3640   77.5840  222.6310 C   0  0  0  0  0  0  0  0  0  0  0  0
  139.0780   78.8120  223.1330 C   0  0  0  0  0  0  0  0  0  0  0  0
  140.3310   78.8320  222.2850 C   0  0  1  0  0  0  0  0  0  0  0  0
  141.4140   79.6690  222.8570 C   0  0  0  0  0  0  0  0  0  0  0  0
  141.3180   80.7430  223.7230 C   0  0  0  0  0  0  0  0  0  0  0  0
  142.5530   81.1800  223.9630 N   0  0  0  0  0  0  0  0  0  0  0  0
  143.3830   80.3920  223.2610 C   0  0  0  0  0  0  0  0  0  0  0  0
  142.7140   79.4630  222.5790 N   0  0  0  0  0  0  0  0  0  0  0  0
  140.6820   77.3530  222.2580 C   0  0  0  0  0  0  0  0  0  0  0  0
  140.2360   71.5030  223.4880 C   0  0  0  0  0  0  0  0  0  0  0  0
  139.5870   70.2890  223.3160 C   0  0  0  0  0  0  0  0  0  0  0  0
  139.3910   69.4500  224.4040 C   0  0  0  0  0  0  0  0  0  0  0  0
  139.8420   69.8290  225.6400 C   0  0  0  0  0  0  0  0  0  0  0  0
  139.6850   69.0480  226.7750 C   0  0  0  0  0  0  0  0  0  0  0  0
  140.1430   69.4390  228.0170 C   0  0  0  0  0  0  0  0  0  0  0  0
  139.9750   68.6570  229.0970 F   0  0  0  0  0  0  0  0  0  0  0  0
  140.7760   70.6610  228.0890 C   0  0  0  0  0  0  0  0  0  0  0  0
  140.9640   71.4870  227.0050 C   0  0  0  0  0  0  0  0  0  0  0  0
  140.4880   71.0520  225.7740 C   0  0  0  0  0  0  0  0  0  0  0  0
  140.6810   71.8720  224.7180 N   0  0  0  0  0  0  0  0  0  0  0  0
  139.4990   74.0590  223.2050 H   0  0  0  0  0  0  0  0  0  0  0  0
  141.1457   74.9240  221.1532 H   0  0  0  0  0  0  0  0  0  0  0  0
  139.9613   73.8925  220.2612 H   0  0  0  0  0  0  0  0  0  0  0  0
  137.5702   77.8647  221.9232 H   0  0  0  0  0  0  0  0  0  0  0  0
  137.8846   77.0300  223.4515 H   0  0  0  0  0  0  0  0  0  0  0  0
  138.4740   79.7170  222.9712 H   0  0  0  0  0  0  0  0  0  0  0  0
  139.2804   78.7903  224.2140 H   0  0  0  0  0  0  0  0  0  0  0  0
  140.1889   79.2833  221.2919 H   0  0  0  0  0  0  0  0  0  0  0  0
  140.3892   81.1609  224.1386 H   0  0  0  0  0  0  0  0  0  0  0  0
  144.4777   80.4997  223.2502 H   0  0  0  0  0  0  0  0  0  0  0  0
  143.1650   78.7460  221.9670 H   0  0  0  0  0  0  0  0  0  0  0  0
  141.4180   77.1249  221.4730 H   0  0  0  0  0  0  0  0  0  0  0  0
  141.1483   76.9764  223.1803 H   0  0  0  0  0  0  0  0  0  0  0  0
  139.2285   69.9920  222.3194 H   0  0  0  0  0  0  0  0  0  0  0  0
  138.8765   68.4864  224.2742 H   0  0  0  0  0  0  0  0  0  0  0  0
  139.1750   68.0779  226.6818 H   0  0  0  0  0  0  0  0  0  0  0  0
  141.1518   70.9945  229.0676 H   0  0  0  0  0  0  0  0  0  0  0  0
  141.4727   72.4567  227.1089 H   0  0  0  0  0  0  0  0  0  0  0  0
  1  2  2  0
  2  3  1  0
  3  4  1  0
  4  5  1  0
  5  6  2  0
  5  7  1  0
  7  8  1  0
  8  9  1  0
  9 10  1  0
 10 11  1  0
 11 12  2  0
 12 13  1  0
 13 14  2  0
 14 15  1  0
 10 16  1  0
  2 17  1  0
 17 18  2  0
 18 19  1  0
 19 20  2  0
 20 21  1  0
 21 22  2  0
 22 23  1  0
 22 24  1  0
 24 25  2  0
 25 26  1  0
 26 27  2  0
 16  7  1  0
 27 17  1  0
 15 11  1  0
 26 20  1  0
  3 28  1  0
  4 29  1  0
  4 30  1  0
  8 31  1  0
  8 32  1  0
  9 33  1  0
  9 34  1  0
 10 35  1  6
 12 36  1  0
 14 37  1  0
 15 38  1  0
 16 39  1  0
 16 40  1  0
 18 41  1  0
 19 42  1  0
 21 43  1  0
 24 44  1  0
 25 45  1  0
M  END
>  <meeko>  (8) 
{"free_energy": -8.49, "intermolecular_energy": -9.99, "internal_energy": -0.86, "cluster_size": 17, "cluster_id": 1, "rank_in_cluster": 5}

$$$$

     RDKit          3D

 45 48  0  0  0  0  0  0  0  0999 V2000
  140.3760   71.7870  221.0990 O   0  0  0  0  0  0  0  0  0  0  0  0
  140.0800   72.2380  222.2460 C   0  0  0  0  0  0  0  0  0  0  0  0
  139.7730   73.6210  222.3420 N   0  0  0  0  0  0  0  0  0  0  0  0
  139.8060   74.4480  221.1590 C   0  0  0  0  0  0  0  0  0  0  0  0
  138.9370   75.6500  221.3290 C   0  0  0  0  0  0  0  0  0  0  0  0
  137.6840   75.5130  221.5000 O   0  0  0  0  0  0  0  0  0  0  0  0
  139.5210   76.9450  221.2980 N   0  0  0  0  0  0  0  0  0  0  0  0
  139.6460   77.8010  220.1160 C   0  0  0  0  0  0  0  0  0  0  0  0
  140.5450   78.9370  220.5260 C   0  0  0  0  0  0  0  0  0  0  0  0
  141.2460   78.3780  221.7440 C   0  0  1  0  0  0  0  0  0  0  0  0
  141.8550   79.4230  222.6030 C   0  0  0  0  0  0  0  0  0  0  0  0
  141.2330   80.4040  223.3530 C   0  0  0  0  0  0  0  0  0  0  0  0
  142.1840   81.1120  223.9600 N   0  0  0  0  0  0  0  0  0  0  0  0
  143.3580   80.5770  223.5880 C   0  0  0  0  0  0  0  0  0  0  0  0
  143.1860   79.5470  222.7620 N   0  0  0  0  0  0  0  0  0  0  0  0
  140.0980   77.6520  222.4260 C   0  0  0  0  0  0  0  0  0  0  0  0
  140.0460   71.4090  223.4370 C   0  0  0  0  0  0  0  0  0  0  0  0
  139.5280   70.1290  223.3020 C   0  0  0  0  0  0  0  0  0  0  0  0
  139.4680   69.2880  224.4040 C   0  0  0  0  0  0  0  0  0  0  0  0
  139.9210   69.7300  225.6180 C   0  0  0  0  0  0  0  0  0  0  0  0
  139.8940   68.9520  226.7650 C   0  0  0  0  0  0  0  0  0  0  0  0
  140.3540   69.4070  227.9850 C   0  0  0  0  0  0  0  0  0  0  0  0
  140.3140   68.6260  229.0770 F   0  0  0  0  0  0  0  0  0  0  0  0
  140.8510   70.6920  228.0200 C   0  0  0  0  0  0  0  0  0  0  0  0
  140.9060   71.5190  226.9230 C   0  0  0  0  0  0  0  0  0  0  0  0
  140.4330   71.0180  225.7160 C   0  0  0  0  0  0  0  0  0  0  0  0
  140.4940   71.8410  224.6450 N   0  0  0  0  0  0  0  0  0  0  0  0
  139.5210   74.0280  223.2890 H   0  0  0  0  0  0  0  0  0  0  0  0
  140.8405   74.7738  220.9753 H   0  0  0  0  0  0  0  0  0  0  0  0
  139.4330   73.8605  220.3071 H   0  0  0  0  0  0  0  0  0  0  0  0
  140.0935   77.2400  219.2823 H   0  0  0  0  0  0  0  0  0  0  0  0
  138.6658   78.1637  219.7731 H   0  0  0  0  0  0  0  0  0  0  0  0
  141.2645   79.1812  219.7306 H   0  0  0  0  0  0  0  0  0  0  0  0
  140.0042   79.8743  220.7235 H   0  0  0  0  0  0  0  0  0  0  0  0
  142.1102   77.7404  221.5062 H   0  0  0  0  0  0  0  0  0  0  0  0
  140.1486   80.5698  223.4338 H   0  0  0  0  0  0  0  0  0  0  0  0
  144.3392   80.9438  223.9237 H   0  0  0  0  0  0  0  0  0  0  0  0
  143.9660   78.9860  222.3520 H   0  0  0  0  0  0  0  0  0  0  0  0
  140.4593   76.9571  223.1984 H   0  0  0  0  0  0  0  0  0  0  0  0
  139.3962   78.3080  222.9619 H   0  0  0  0  0  0  0  0  0  0  0  0
  139.1656   69.7816  222.3233 H   0  0  0  0  0  0  0  0  0  0  0  0
  139.0588   68.2720  224.3028 H   0  0  0  0  0  0  0  0  0  0  0  0
  139.4898   67.9310  226.7008 H   0  0  0  0  0  0  0  0  0  0  0  0
  141.2248   71.0778  228.9799 H   0  0  0  0  0  0  0  0  0  0  0  0
  141.3095   72.5396  226.9979 H   0  0  0  0  0  0  0  0  0  0  0  0
  1  2  2  0
  2  3  1  0
  3  4  1  0
  4  5  1  0
  5  6  2  0
  5  7  1  0
  7  8  1  0
  8  9  1  0
  9 10  1  0
 10 11  1  0
 11 12  2  0
 12 13  1  0
 13 14  2  0
 14 15  1  0
 10 16  1  0
  2 17  1  0
 17 18  2  0
 18 19  1  0
 19 20  2  0
 20 21  1  0
 21 22  2  0
 22 23  1  0
 22 24  1  0
 24 25  2  0
 25 26  1  0
 26 27  2  0
 16  7  1  0
 27 17  1  0
 15 11  1  0
 26 20  1  0
  3 28  1  0
  4 29  1  0
  4 30  1  0
  8 31  1  0
  8 32  1  0
  9 33  1  0
  9 34  1  0
 10 35  1  6
 12 36  1  0
 14 37  1  0
 15 38  1  0
 16 39  1  0
 16 40  1  0
 18 41  1  0
 19 42  1  0
 21 43  1  0
 24 44  1  0
 25 45  1  0
M  END
>  <meeko>  (9) 
{"free_energy": -8.14, "intermolecular_energy": -9.63, "internal_energy": -0.95, "cluster_size": 17, "cluster_id": 1, "rank_in_cluster": 16}

$$$$

     RDKit          3D

 45 48  0  0  0  0  0  0  0  0999 V2000
  140.7900   72.0210  221.2990 O   0  0  0  0  0  0  0  0  0  0  0  0
  140.0690   72.2810  222.3090 C   0  0  0  0  0  0  0  0  0  0  0  0
  139.2670   73.4510  222.2520 N   0  0  0  0  0  0  0  0  0  0  0  0
  139.2960   74.2870  221.0750 C   0  0  0  0  0  0  0  0  0  0  0  0
  140.5470   75.1000  221.0350 C   0  0  0  0  0  0  0  0  0  0  0  0
  141.6640   74.5420  220.7910 O   0  0  0  0  0  0  0  0  0  0  0  0
  140.4790   76.5000  221.2710 N   0  0  0  0  0  0  0  0  0  0  0  0
  139.7940   77.4800  220.4240 C   0  0  0  0  0  0  0  0  0  0  0  0
  140.2160   78.8310  220.9380 C   0  0  0  0  0  0  0  0  0  0  0  0
  141.4770   78.5090  221.7090 C   0  0  1  0  0  0  0  0  0  0  0  0
  141.8600   79.5670  222.6770 C   0  0  0  0  0  0  0  0  0  0  0  0
  141.0540   80.2950  223.5330 C   0  0  0  0  0  0  0  0  0  0  0  0
  141.8390   81.1310  224.2120 N   0  0  0  0  0  0  0  0  0  0  0  0
  143.0920   80.9180  223.7800 C   0  0  0  0  0  0  0  0  0  0  0  0
  143.1330   79.9700  222.8450 N   0  0  0  0  0  0  0  0  0  0  0  0
  141.0740   77.2100  222.3870 C   0  0  0  0  0  0  0  0  0  0  0  0
  140.0370   71.4420  223.4930 C   0  0  0  0  0  0  0  0  0  0  0  0
  139.4320   70.2000  223.3730 C   0  0  0  0  0  0  0  0  0  0  0  0
  139.3700   69.3530  224.4700 C   0  0  0  0  0  0  0  0  0  0  0  0
  139.9070   69.7520  225.6650 C   0  0  0  0  0  0  0  0  0  0  0  0
  139.8840   68.9640  226.8060 C   0  0  0  0  0  0  0  0  0  0  0  0
  140.4280   69.3760  228.0050 C   0  0  0  0  0  0  0  0  0  0  0  0
  140.3900   68.5870  229.0920 F   0  0  0  0  0  0  0  0  0  0  0  0
  141.0080   70.6260  228.0280 C   0  0  0  0  0  0  0  0  0  0  0  0
  141.0650   71.4600  226.9350 C   0  0  0  0  0  0  0  0  0  0  0  0
  140.5050   71.0030  225.7480 C   0  0  0  0  0  0  0  0  0  0  0  0
  140.5680   71.8320  224.6820 N   0  0  0  0  0  0  0  0  0  0  0  0
  138.6520   73.6950  223.0820 H   0  0  0  0  0  0  0  0  0  0  0  0
  139.2504   73.6505  220.1790 H   0  0  0  0  0  0  0  0  0  0  0  0
  138.4328   74.9682  221.1042 H   0  0  0  0  0  0  0  0  0  0  0  0
  140.0976   77.3576  219.3738 H   0  0  0  0  0  0  0  0  0  0  0  0
  138.7018   77.3551  220.4617 H   0  0  0  0  0  0  0  0  0  0  0  0
  140.4228   79.5246  220.1096 H   0  0  0  0  0  0  0  0  0  0  0  0
  139.4459   79.3291  221.5454 H   0  0  0  0  0  0  0  0  0  0  0  0
  142.3760   78.4332  221.0796 H   0  0  0  0  0  0  0  0  0  0  0  0
  139.9628   80.2011  223.6350 H   0  0  0  0  0  0  0  0  0  0  0  0
  143.9748   81.4588  224.1517 H   0  0  0  0  0  0  0  0  0  0  0  0
  144.0070   79.6480  222.3740 H   0  0  0  0  0  0  0  0  0  0  0  0
  141.9466   76.6747  222.7895 H   0  0  0  0  0  0  0  0  0  0  0  0
  140.4110   77.3341  223.2560 H   0  0  0  0  0  0  0  0  0  0  0  0
  139.0022   69.8870  222.4100 H   0  0  0  0  0  0  0  0  0  0  0  0
  138.8921   68.3663  224.3805 H   0  0  0  0  0  0  0  0  0  0  0  0
  139.4134   67.9712  226.7529 H   0  0  0  0  0  0  0  0  0  0  0  0
  141.4498   70.9764  228.9725 H   0  0  0  0  0  0  0  0  0  0  0  0
  141.5364   72.4518  226.9984 H   0  0  0  0  0  0  0  0  0  0  0  0
  1  2  2  0
  2  3  1  0
  3  4  1  0
  4  5  1  0
  5  6  2  0
  5  7  1  0
  7  8  1  0
  8  9  1  0
  9 10  1  0
 10 11  1  0
 11 12  2  0
 12 13  1  0
 13 14  2  0
 14 15  1  0
 10 16  1  0
  2 17  1  0
 17 18  2  0
 18 19  1  0
 19 20  2  0
 20 21  1  0
 21 22  2  0
 22 23  1  0
 22 24  1  0
 24 25  2  0
 25 26  1  0
 26 27  2  0
 16  7  1  0
 27 17  1  0
 15 11  1  0
 26 20  1  0
  3 28  1  0
  4 29  1  0
  4 30  1  0
  8 31  1  0
  8 32  1  0
  9 33  1  0
  9 34  1  0
 10 35  1  6
 12 36  1  0
 14 37  1  0
 15 38  1  0
 16 39  1  0
 16 40  1  0
 18 41  1  0
 19 42  1  0
 21 43  1  0
 24 44  1  0
 25 45  1  0
M  END
>  <meeko>  (10) 
{"free_energy": -8.44, "intermolecular_energy": -9.94, "internal_energy": -0.83, "cluster_size": 17, "cluster_id": 1, "rank_in_cluster": 8}

$$$$

     RDKit          3D

 45 48  0  0  0  0  0  0  0  0999 V2000
  141.0920   72.9690  222.1340 O   0  0  0  0  0  0  0  0  0  0  0  0
  140.0460   72.6030  222.7500 C   0  0  0  0  0  0  0  0  0  0  0  0
  138.8180   73.1980  222.3560 N   0  0  0  0  0  0  0  0  0  0  0  0
  138.7990   74.1740  221.2930 C   0  0  0  0  0  0  0  0  0  0  0  0
  138.5500   75.5420  221.8350 C   0  0  0  0  0  0  0  0  0  0  0  0
  137.4720   75.7940  222.4620 O   0  0  0  0  0  0  0  0  0  0  0  0
  139.5250   76.5590  221.6440 N   0  0  0  0  0  0  0  0  0  0  0  0
  140.5350   76.5890  220.5850 C   0  0  0  0  0  0  0  0  0  0  0  0
  141.4770   77.7070  220.9490 C   0  0  0  0  0  0  0  0  0  0  0  0
  141.2080   77.8940  222.4260 C   0  0  1  0  0  0  0  0  0  0  0  0
  141.6680   79.2050  222.9450 C   0  0  0  0  0  0  0  0  0  0  0  0
  140.9620   80.1520  223.6640 C   0  0  0  0  0  0  0  0  0  0  0  0
  141.7870   81.1690  223.9110 N   0  0  0  0  0  0  0  0  0  0  0  0
  142.9670   80.8500  223.3570 C   0  0  0  0  0  0  0  0  0  0  0  0
  142.9220   79.6590  222.7620 N   0  0  0  0  0  0  0  0  0  0  0  0
  139.6960   77.7450  222.4620 C   0  0  0  0  0  0  0  0  0  0  0  0
  140.0610   71.6220  223.8180 C   0  0  0  0  0  0  0  0  0  0  0  0
  139.5430   70.3660  223.5320 C   0  0  0  0  0  0  0  0  0  0  0  0
  139.5300   69.3850  224.5130 C   0  0  0  0  0  0  0  0  0  0  0  0
  140.0270   69.6650  225.7580 C   0  0  0  0  0  0  0  0  0  0  0  0
  140.0490   68.7400  226.7900 C   0  0  0  0  0  0  0  0  0  0  0  0
  140.5530   69.0310  228.0420 C   0  0  0  0  0  0  0  0  0  0  0  0
  140.5590   68.1100  229.0200 F   0  0  0  0  0  0  0  0  0  0  0  0
  141.0450   70.3050  228.2310 C   0  0  0  0  0  0  0  0  0  0  0  0
  141.0540   71.2720  227.2530 C   0  0  0  0  0  0  0  0  0  0  0  0
  140.5380   70.9330  226.0080 C   0  0  0  0  0  0  0  0  0  0  0  0
  140.5530   71.8920  225.0560 N   0  0  0  0  0  0  0  0  0  0  0  0
  137.9240   72.9110  222.8530 H   0  0  0  0  0  0  0  0  0  0  0  0
  139.7694   74.1623  220.7751 H   0  0  0  0  0  0  0  0  0  0  0  0
  137.9891   73.9186  220.5938 H   0  0  0  0  0  0  0  0  0  0  0  0
  141.0748   75.6315  220.5430 H   0  0  0  0  0  0  0  0  0  0  0  0
  140.0805   76.7479  219.5960 H   0  0  0  0  0  0  0  0  0  0  0  0
  142.5234   77.4197  220.7688 H   0  0  0  0  0  0  0  0  0  0  0  0
  141.3231   78.6207  220.3561 H   0  0  0  0  0  0  0  0  0  0  0  0
  141.7499   77.1860  223.0702 H   0  0  0  0  0  0  0  0  0  0  0  0
  139.9096   80.0790  223.9757 H   0  0  0  0  0  0  0  0  0  0  0  0
  143.8598   81.4918  223.3901 H   0  0  0  0  0  0  0  0  0  0  0  0
  143.7300   79.2180  222.2680 H   0  0  0  0  0  0  0  0  0  0  0  0
  139.3282   77.5875  223.4867 H   0  0  0  0  0  0  0  0  0  0  0  0
  139.1410   78.6272  222.1102 H   0  0  0  0  0  0  0  0  0  0  0  0
  139.1439   70.1492  222.5301 H   0  0  0  0  0  0  0  0  0  0  0  0
  139.1226   68.3874  224.2919 H   0  0  0  0  0  0  0  0  0  0  0  0
  139.6484   67.7326  226.6038 H   0  0  0  0  0  0  0  0  0  0  0  0
  141.4532   70.5625  229.2194 H   0  0  0  0  0  0  0  0  0  0  0  0
  141.4551   72.2773  227.4492 H   0  0  0  0  0  0  0  0  0  0  0  0
  1  2  2  0
  2  3  1  0
  3  4  1  0
  4  5  1  0
  5  6  2  0
  5  7  1  0
  7  8  1  0
  8  9  1  0
  9 10  1  0
 10 11  1  0
 11 12  2  0
 12 13  1  0
 13 14  2  0
 14 15  1  0
 10 16  1  0
  2 17  1  0
 17 18  2  0
 18 19  1  0
 19 20  2  0
 20 21  1  0
 21 22  2  0
 22 23  1  0
 22 24  1  0
 24 25  2  0
 25 26  1  0
 26 27  2  0
 16  7  1  0
 27 17  1  0
 15 11  1  0
 26 20  1  0
  3 28  1  0
  4 29  1  0
  4 30  1  0
  8 31  1  0
  8 32  1  0
  9 33  1  0
  9 34  1  0
 10 35  1  1
 12 36  1  0
 14 37  1  0
 15 38  1  0
 16 39  1  0
 16 40  1  0
 18 41  1  0
 19 42  1  0
 21 43  1  0
 24 44  1  0
 25 45  1  0
M  END
>  <meeko>  (11) 
{"free_energy": -8.66, "intermolecular_energy": -10.15, "internal_energy": -0.96, "cluster_size": 17, "cluster_id": 1, "rank_in_cluster": 1}

$$$$

     RDKit          3D

 45 48  0  0  0  0  0  0  0  0999 V2000
  140.7420   71.9660  221.2460 O   0  0  0  0  0  0  0  0  0  0  0  0
  140.0650   72.2520  222.2790 C   0  0  0  0  0  0  0  0  0  0  0  0
  139.2930   73.4430  222.2430 N   0  0  0  0  0  0  0  0  0  0  0  0
  139.3030   74.2700  221.0590 C   0  0  0  0  0  0  0  0  0  0  0  0
  140.5530   75.0820  220.9910 C   0  0  0  0  0  0  0  0  0  0  0  0
  141.6640   74.5220  220.7240 O   0  0  0  0  0  0  0  0  0  0  0  0
  140.4920   76.4820  221.2280 N   0  0  0  0  0  0  0  0  0  0  0  0
  139.8220   77.4660  220.3760 C   0  0  0  0  0  0  0  0  0  0  0  0
  140.2470   78.8150  220.8950 C   0  0  0  0  0  0  0  0  0  0  0  0
  141.4990   78.4840  221.6780 C   0  0  1  0  0  0  0  0  0  0  0  0
  141.8800   79.5380  222.6500 C   0  0  0  0  0  0  0  0  0  0  0  0
  141.0720   80.2660  223.5040 C   0  0  0  0  0  0  0  0  0  0  0  0
  141.8550   81.0980  224.1890 N   0  0  0  0  0  0  0  0  0  0  0  0
  143.1100   80.8840  223.7630 C   0  0  0  0  0  0  0  0  0  0  0  0
  143.1530   79.9380  222.8260 N   0  0  0  0  0  0  0  0  0  0  0  0
  141.0820   77.1870  222.3500 C   0  0  0  0  0  0  0  0  0  0  0  0
  140.0540   71.4220  223.4700 C   0  0  0  0  0  0  0  0  0  0  0  0
  139.4940   70.1570  223.3540 C   0  0  0  0  0  0  0  0  0  0  0  0
  139.4520   69.3180  224.4580 C   0  0  0  0  0  0  0  0  0  0  0  0
  139.9650   69.7450  225.6540 C   0  0  0  0  0  0  0  0  0  0  0  0
  139.9610   68.9650  226.8010 C   0  0  0  0  0  0  0  0  0  0  0  0
  140.4800   69.4050  228.0020 C   0  0  0  0  0  0  0  0  0  0  0  0
  140.4600   68.6240  229.0940 F   0  0  0  0  0  0  0  0  0  0  0  0
  141.0150   70.6750  228.0180 C   0  0  0  0  0  0  0  0  0  0  0  0
  141.0510   71.5020  226.9200 C   0  0  0  0  0  0  0  0  0  0  0  0
  140.5180   71.0170  225.7320 C   0  0  0  0  0  0  0  0  0  0  0  0
  140.5610   71.8390  224.6600 N   0  0  0  0  0  0  0  0  0  0  0  0
  138.7150   73.7080  223.0920 H   0  0  0  0  0  0  0  0  0  0  0  0
  139.2420   73.6265  220.1690 H   0  0  0  0  0  0  0  0  0  0  0  0
  138.4409   74.9521  221.0978 H   0  0  0  0  0  0  0  0  0  0  0  0
  140.1351   77.3424  219.3288 H   0  0  0  0  0  0  0  0  0  0  0  0
  138.7287   77.3477  220.4033 H   0  0  0  0  0  0  0  0  0  0  0  0
  140.4659   79.5079  220.0692 H   0  0  0  0  0  0  0  0  0  0  0  0
  139.4742   79.3178  221.4950 H   0  0  0  0  0  0  0  0  0  0  0  0
  142.4034   78.4033  221.0570 H   0  0  0  0  0  0  0  0  0  0  0  0
  139.9800   80.1746  223.6003 H   0  0  0  0  0  0  0  0  0  0  0  0
  143.9921   81.4222  224.1403 H   0  0  0  0  0  0  0  0  0  0  0  0
  144.0290   79.6150  222.3580 H   0  0  0  0  0  0  0  0  0  0  0  0
  141.9478   76.6457  222.7592 H   0  0  0  0  0  0  0  0  0  0  0  0
  140.4122   77.3142  223.2132 H   0  0  0  0  0  0  0  0  0  0  0  0
  139.0849   69.8210  222.3898 H   0  0  0  0  0  0  0  0  0  0  0  0
  139.0089   68.3148  224.3733 H   0  0  0  0  0  0  0  0  0  0  0  0
  139.5269   67.9555  226.7515 H   0  0  0  0  0  0  0  0  0  0  0  0
  141.4372   71.0483  228.9627 H   0  0  0  0  0  0  0  0  0  0  0  0
  141.4858   72.5106  226.9799 H   0  0  0  0  0  0  0  0  0  0  0  0
  1  2  2  0
  2  3  1  0
  3  4  1  0
  4  5  1  0
  5  6  2  0
  5  7  1  0
  7  8  1  0
  8  9  1  0
  9 10  1  0
 10 11  1  0
 11 12  2  0
 12 13  1  0
 13 14  2  0
 14 15  1  0
 10 16  1  0
  2 17  1  0
 17 18  2  0
 18 19  1  0
 19 20  2  0
 20 21  1  0
 21 22  2  0
 22 23  1  0
 22 24  1  0
 24 25  2  0
 25 26  1  0
 26 27  2  0
 16  7  1  0
 27 17  1  0
 15 11  1  0
 26 20  1  0
  3 28  1  0
  4 29  1  0
  4 30  1  0
  8 31  1  0
  8 32  1  0
  9 33  1  0
  9 34  1  0
 10 35  1  6
 12 36  1  0
 14 37  1  0
 15 38  1  0
 16 39  1  0
 16 40  1  0
 18 41  1  0
 19 42  1  0
 21 43  1  0
 24 44  1  0
 25 45  1  0
M  END
>  <meeko>  (12) 
{"free_energy": -8.43, "intermolecular_energy": -9.92, "internal_energy": -0.85, "cluster_size": 17, "cluster_id": 1, "rank_in_cluster": 9}

$$$$

     RDKit          3D

 45 48  0  0  0  0  0  0  0  0999 V2000
  137.9260   71.7450  222.4890 O   0  0  0  0  0  0  0  0  0  0  0  0
  139.0480   71.7280  223.0770 C   0  0  0  0  0  0  0  0  0  0  0  0
  140.0320   72.6490  222.6300 N   0  0  0  0  0  0  0  0  0  0  0  0
  139.7290   73.5540  221.5460 C   0  0  0  0  0  0  0  0  0  0  0  0
  140.8790   74.4690  221.2840 C   0  0  0  0  0  0  0  0  0  0  0  0
  142.0300   73.9910  221.0290 O   0  0  0  0  0  0  0  0  0  0  0  0
  140.6770   75.8760  221.3230 N   0  0  0  0  0  0  0  0  0  0  0  0
  140.0510   76.6800  220.2720 C   0  0  0  0  0  0  0  0  0  0  0  0
  140.2960   78.1160  220.6550 C   0  0  0  0  0  0  0  0  0  0  0  0
  141.4540   78.0050  221.6210 C   0  0  1  0  0  0  0  0  0  0  0  0
  141.6170   79.2010  222.4830 C   0  0  0  0  0  0  0  0  0  0  0  0
  140.6630   79.8810  223.2170 C   0  0  0  0  0  0  0  0  0  0  0  0
  141.2730   80.8920  223.8350 N   0  0  0  0  0  0  0  0  0  0  0  0
  142.5670   80.8290  223.4870 C   0  0  0  0  0  0  0  0  0  0  0  0
  142.8050   79.8090  222.6640 N   0  0  0  0  0  0  0  0  0  0  0  0
  141.0540   76.7650  222.4050 C   0  0  0  0  0  0  0  0  0  0  0  0
  139.3550   70.8200  224.1670 C   0  0  0  0  0  0  0  0  0  0  0  0
  138.9160   69.5090  224.0410 C   0  0  0  0  0  0  0  0  0  0  0  0
  139.1770   68.5940  225.0500 C   0  0  0  0  0  0  0  0  0  0  0  0
  139.8670   68.9920  226.1640 C   0  0  0  0  0  0  0  0  0  0  0  0
  140.1680   68.1390  227.2140 C   0  0  0  0  0  0  0  0  0  0  0  0
  140.8640   68.5500  228.3330 C   0  0  0  0  0  0  0  0  0  0  0  0
  141.1390   67.6960  229.3330 F   0  0  0  0  0  0  0  0  0  0  0  0
  141.2580   69.8700  228.3670 C   0  0  0  0  0  0  0  0  0  0  0  0
  140.9940   70.7710  227.3630 C   0  0  0  0  0  0  0  0  0  0  0  0
  140.2910   70.3120  226.2550 C   0  0  0  0  0  0  0  0  0  0  0  0
  140.0390   71.2080  225.2750 N   0  0  0  0  0  0  0  0  0  0  0  0
  140.9810   72.6590  223.1030 H   0  0  0  0  0  0  0  0  0  0  0  0
  139.5175   72.9710  220.6375 H   0  0  0  0  0  0  0  0  0  0  0  0
  138.8532   74.1584  221.8248 H   0  0  0  0  0  0  0  0  0  0  0  0
  140.5095   76.4599  219.2966 H   0  0  0  0  0  0  0  0  0  0  0  0
  138.9766   76.4624  220.1807 H   0  0  0  0  0  0  0  0  0  0  0  0
  140.5674   78.7206  219.7771 H   0  0  0  0  0  0  0  0  0  0  0  0
  139.4130   78.6117  221.0846 H   0  0  0  0  0  0  0  0  0  0  0  0
  142.4366   77.9363  221.1314 H   0  0  0  0  0  0  0  0  0  0  0  0
  139.5933   79.6324  223.2796 H   0  0  0  0  0  0  0  0  0  0  0  0
  143.3363   81.5326  223.8378 H   0  0  0  0  0  0  0  0  0  0  0  0
  143.7440   79.5770  222.2720 H   0  0  0  0  0  0  0  0  0  0  0  0
  141.8971   76.3626  222.9857 H   0  0  0  0  0  0  0  0  0  0  0  0
  140.2671   76.9320  223.1553 H   0  0  0  0  0  0  0  0  0  0  0  0
  138.3625   69.1967  223.1431 H   0  0  0  0  0  0  0  0  0  0  0  0
  138.8316   67.5539  224.9560 H   0  0  0  0  0  0  0  0  0  0  0  0
  139.8387   67.0912  227.1532 H   0  0  0  0  0  0  0  0  0  0  0  0
  141.8153   70.2227  229.2474 H   0  0  0  0  0  0  0  0  0  0  0  0
  141.3269   71.8170  227.4337 H   0  0  0  0  0  0  0  0  0  0  0  0
  1  2  2  0
  2  3  1  0
  3  4  1  0
  4  5  1  0
  5  6  2  0
  5  7  1  0
  7  8  1  0
  8  9  1  0
  9 10  1  0
 10 11  1  0
 11 12  2  0
 12 13  1  0
 13 14  2  0
 14 15  1  0
 10 16  1  0
  2 17  1  0
 17 18  2  0
 18 19  1  0
 19 20  2  0
 20 21  1  0
 21 22  2  0
 22 23  1  0
 22 24  1  0
 24 25  2  0
 25 26  1  0
 26 27  2  0
 16  7  1  0
 27 17  1  0
 15 11  1  0
 26 20  1  0
  3 28  1  0
  4 29  1  0
  4 30  1  0
  8 31  1  0
  8 32  1  0
  9 33  1  0
  9 34  1  0
 10 35  1  6
 12 36  1  0
 14 37  1  0
 15 38  1  0
 16 39  1  0
 16 40  1  0
 18 41  1  0
 19 42  1  0
 21 43  1  0
 24 44  1  0
 25 45  1  0
M  END
>  <meeko>  (13) 
{"free_energy": -7.77, "intermolecular_energy": -9.27, "internal_energy": -1.03, "cluster_size": 17, "cluster_id": 1, "rank_in_cluster": 17}

$$$$

     RDKit          3D

 45 48  0  0  0  0  0  0  0  0999 V2000
  140.9550   71.9120  221.2370 O   0  0  0  0  0  0  0  0  0  0  0  0
  140.4130   72.3370  222.3010 C   0  0  0  0  0  0  0  0  0  0  0  0
  139.9630   73.6840  222.3090 N   0  0  0  0  0  0  0  0  0  0  0  0
  140.1320   74.5050  221.1340 C   0  0  0  0  0  0  0  0  0  0  0  0
  139.1550   75.6330  221.1310 C   0  0  0  0  0  0  0  0  0  0  0  0
  138.1060   75.5660  220.4130 O   0  0  0  0  0  0  0  0  0  0  0  0
  139.4050   76.7790  221.9330 N   0  0  0  0  0  0  0  0  0  0  0  0
  138.3920   77.5810  222.6220 C   0  0  0  0  0  0  0  0  0  0  0  0
  139.1090   78.8100  223.1160 C   0  0  0  0  0  0  0  0  0  0  0  0
  140.3480   78.8370  222.2490 C   0  0  1  0  0  0  0  0  0  0  0  0
  141.4360   79.6770  222.8070 C   0  0  0  0  0  0  0  0  0  0  0  0
  141.3500   80.7430  223.6830 C   0  0  0  0  0  0  0  0  0  0  0  0
  142.5870   81.1870  223.9020 N   0  0  0  0  0  0  0  0  0  0  0  0
  143.4080   80.4100  223.1770 C   0  0  0  0  0  0  0  0  0  0  0  0
  142.7330   79.4820  222.5010 N   0  0  0  0  0  0  0  0  0  0  0  0
  140.7040   77.3600  222.2140 C   0  0  0  0  0  0  0  0  0  0  0  0
  140.2410   71.5130  223.4830 C   0  0  0  0  0  0  0  0  0  0  0  0
  139.5860   70.3010  223.3190 C   0  0  0  0  0  0  0  0  0  0  0  0
  139.3900   69.4690  224.4130 C   0  0  0  0  0  0  0  0  0  0  0  0
  139.8450   69.8530  225.6460 C   0  0  0  0  0  0  0  0  0  0  0  0
  139.6890   69.0790  226.7860 C   0  0  0  0  0  0  0  0  0  0  0  0
  140.1510   69.4750  228.0240 C   0  0  0  0  0  0  0  0  0  0  0  0
  139.9830   68.7000  229.1090 F   0  0  0  0  0  0  0  0  0  0  0  0
  140.7890   70.6950  228.0870 C   0  0  0  0  0  0  0  0  0  0  0  0
  140.9790   71.5130  226.9980 C   0  0  0  0  0  0  0  0  0  0  0  0
  140.4970   71.0740  225.7710 C   0  0  0  0  0  0  0  0  0  0  0  0
  140.6900   71.8880  224.7100 N   0  0  0  0  0  0  0  0  0  0  0  0
  139.5040   74.0680  223.1850 H   0  0  0  0  0  0  0  0  0  0  0  0
  141.1536   74.9127  221.1227 H   0  0  0  0  0  0  0  0  0  0  0  0
  139.9575   73.8849  220.2424 H   0  0  0  0  0  0  0  0  0  0  0  0
  137.5867   77.8606  221.9268 H   0  0  0  0  0  0  0  0  0  0  0  0
  137.9270   77.0235  223.4484 H   0  0  0  0  0  0  0  0  0  0  0  0
  138.4992   79.7131  222.9661 H   0  0  0  0  0  0  0  0  0  0  0  0
  139.3284   78.7862  224.1936 H   0  0  0  0  0  0  0  0  0  0  0  0
  140.1894   79.2896  221.2590 H   0  0  0  0  0  0  0  0  0  0  0  0
  140.4268   81.1510  224.1203 H   0  0  0  0  0  0  0  0  0  0  0  0
  144.5015   80.5256  223.1454 H   0  0  0  0  0  0  0  0  0  0  0  0
  143.1760   78.7730  221.8740 H   0  0  0  0  0  0  0  0  0  0  0  0
  141.4293   77.1363  221.4178 H   0  0  0  0  0  0  0  0  0  0  0  0
  141.1851   76.9837  223.1288 H   0  0  0  0  0  0  0  0  0  0  0  0
  139.2231   70.0002  222.3251 H   0  0  0  0  0  0  0  0  0  0  0  0
  138.8720   68.5065  224.2899 H   0  0  0  0  0  0  0  0  0  0  0  0
  139.1760   68.1098  226.6996 H   0  0  0  0  0  0  0  0  0  0  0  0
  141.1674   71.0333  229.0629 H   0  0  0  0  0  0  0  0  0  0  0  0
  141.4941   72.4801  227.0948 H   0  0  0  0  0  0  0  0  0  0  0  0
  1  2  2  0
  2  3  1  0
  3  4  1  0
  4  5  1  0
  5  6  2  0
  5  7  1  0
  7  8  1  0
  8  9  1  0
  9 10  1  0
 10 11  1  0
 11 12  2  0
 12 13  1  0
 13 14  2  0
 14 15  1  0
 10 16  1  0
  2 17  1  0
 17 18  2  0
 18 19  1  0
 19 20  2  0
 20 21  1  0
 21 22  2  0
 22 23  1  0
 22 24  1  0
 24 25  2  0
 25 26  1  0
 26 27  2  0
 16  7  1  0
 27 17  1  0
 15 11  1  0
 26 20  1  0
  3 28  1  0
  4 29  1  0
  4 30  1  0
  8 31  1  0
  8 32  1  0
  9 33  1  0
  9 34  1  0
 10 35  1  6
 12 36  1  0
 14 37  1  0
 15 38  1  0
 16 39  1  0
 16 40  1  0
 18 41  1  0
 19 42  1  0
 21 43  1  0
 24 44  1  0
 25 45  1  0
M  END
>  <meeko>  (14) 
{"free_energy": -8.49, "intermolecular_energy": -9.98, "internal_energy": -0.86, "cluster_size": 17, "cluster_id": 1, "rank_in_cluster": 6}

$$$$

     RDKit          3D

 45 48  0  0  0  0  0  0  0  0999 V2000
  142.8720   75.7910  220.1090 O   0  0  0  0  0  0  0  0  0  0  0  0
  141.9090   76.3790  219.5320 C   0  0  0  0  0  0  0  0  0  0  0  0
  140.6500   75.7220  219.5360 N   0  0  0  0  0  0  0  0  0  0  0  0
  140.5110   74.4370  220.1800 C   0  0  0  0  0  0  0  0  0  0  0  0
  140.1560   74.6030  221.6200 C   0  0  0  0  0  0  0  0  0  0  0  0
  139.9890   73.5800  222.3580 O   0  0  0  0  0  0  0  0  0  0  0  0
  140.0050   75.9100  222.1570 N   0  0  0  0  0  0  0  0  0  0  0  0
  138.7330   76.5940  222.4030 C   0  0  0  0  0  0  0  0  0  0  0  0
  139.0920   78.0210  222.7270 C   0  0  0  0  0  0  0  0  0  0  0  0
  140.4890   78.1440  222.1610 C   0  0  1  0  0  0  0  0  0  0  0  0
  141.2490   79.2910  222.7170 C   0  0  0  0  0  0  0  0  0  0  0  0
  140.9400   80.0970  223.7970 C   0  0  0  0  0  0  0  0  0  0  0  0
  141.9150   80.9960  223.9220 N   0  0  0  0  0  0  0  0  0  0  0  0
  142.7980   80.7440  222.9430 C   0  0  0  0  0  0  0  0  0  0  0  0
  142.4160   79.7100  222.1940 N   0  0  0  0  0  0  0  0  0  0  0  0
  141.0780   76.8000  222.5580 C   0  0  0  0  0  0  0  0  0  0  0  0
  142.0460   77.6700  218.8840 C   0  0  0  0  0  0  0  0  0  0  0  0
  142.4180   77.6720  217.5480 C   0  0  0  0  0  0  0  0  0  0  0  0
  142.5660   78.8750  216.8740 C   0  0  0  0  0  0  0  0  0  0  0  0
  142.3430   80.0540  217.5340 C   0  0  0  0  0  0  0  0  0  0  0  0
  142.4700   81.2960  216.9310 C   0  0  0  0  0  0  0  0  0  0  0  0
  142.2440   82.4780  217.6060 C   0  0  0  0  0  0  0  0  0  0  0  0
  142.3750   83.6650  216.9910 F   0  0  0  0  0  0  0  0  0  0  0  0
  141.8780   82.3760  218.9310 C   0  0  0  0  0  0  0  0  0  0  0  0
  141.7340   81.1780  219.5920 C   0  0  0  0  0  0  0  0  0  0  0  0
  141.9720   80.0140  218.8720 C   0  0  0  0  0  0  0  0  0  0  0  0
  141.8260   78.8440  219.5340 N   0  0  0  0  0  0  0  0  0  0  0  0
  139.8240   76.1900  219.0610 H   0  0  0  0  0  0  0  0  0  0  0  0
  139.7179   73.8649  219.6764 H   0  0  0  0  0  0  0  0  0  0  0  0
  141.4699   73.9023  220.1120 H   0  0  0  0  0  0  0  0  0  0  0  0
  138.0961   76.5529  221.5071 H   0  0  0  0  0  0  0  0  0  0  0  0
  138.1702   76.1216  223.2216 H   0  0  0  0  0  0  0  0  0  0  0  0
  138.4020   78.7251  222.2390 H   0  0  0  0  0  0  0  0  0  0  0  0
  139.0315   78.2555  223.8000 H   0  0  0  0  0  0  0  0  0  0  0  0
  140.5148   78.3499  221.0808 H   0  0  0  0  0  0  0  0  0  0  0  0
  140.0498   80.0114  224.4374 H   0  0  0  0  0  0  0  0  0  0  0  0
  143.7214   81.3190  222.7794 H   0  0  0  0  0  0  0  0  0  0  0  0
  142.9560   79.3450  221.3780 H   0  0  0  0  0  0  0  0  0  0  0  0
  142.0079   76.5869  222.0105 H   0  0  0  0  0  0  0  0  0  0  0  0
  141.3661   76.7214  223.6167 H   0  0  0  0  0  0  0  0  0  0  0  0
  142.5953   76.7213  217.0239 H   0  0  0  0  0  0  0  0  0  0  0  0
  142.8611   78.8821  215.8143 H   0  0  0  0  0  0  0  0  0  0  0  0
  142.7628   81.3409  215.8716 H   0  0  0  0  0  0  0  0  0  0  0  0
  141.6907   83.3040  219.4910 H   0  0  0  0  0  0  0  0  0  0  0  0
  141.4411   81.1431  220.6517 H   0  0  0  0  0  0  0  0  0  0  0  0
  1  2  2  0
  2  3  1  0
  3  4  1  0
  4  5  1  0
  5  6  2  0
  5  7  1  0
  7  8  1  0
  8  9  1  0
  9 10  1  0
 10 11  1  0
 11 12  2  0
 12 13  1  0
 13 14  2  0
 14 15  1  0
 10 16  1  0
  2 17  1  0
 17 18  2  0
 18 19  1  0
 19 20  2  0
 20 21  1  0
 21 22  2  0
 22 23  1  0
 22 24  1  0
 24 25  2  0
 25 26  1  0
 26 27  2  0
 16  7  1  0
 27 17  1  0
 15 11  1  0
 26 20  1  0
  3 28  1  0
  4 29  1  0
  4 30  1  0
  8 31  1  0
  8 32  1  0
  9 33  1  0
  9 34  1  0
 10 35  1  6
 12 36  1  0
 14 37  1  0
 15 38  1  0
 16 39  1  0
 16 40  1  0
 18 41  1  0
 19 42  1  0
 21 43  1  0
 24 44  1  0
 25 45  1  0
M  END
>  <meeko>  (15) 
{"free_energy": -6.06, "intermolecular_energy": -7.56, "internal_energy": -2.39, "cluster_size": 2, "cluster_id": 3, "rank_in_cluster": 2}

$$$$

     RDKit          3D

 45 48  0  0  0  0  0  0  0  0999 V2000
  138.6820   71.2320  221.2980 O   0  0  0  0  0  0  0  0  0  0  0  0
  139.0820   71.7560  222.3800 C   0  0  0  0  0  0  0  0  0  0  0  0
  139.2400   73.1670  222.4010 N   0  0  0  0  0  0  0  0  0  0  0  0
  138.9480   73.9410  221.2180 C   0  0  0  0  0  0  0  0  0  0  0  0
  139.9880   74.9880  221.0000 C   0  0  0  0  0  0  0  0  0  0  0  0
  140.9160   74.8000  220.1500 O   0  0  0  0  0  0  0  0  0  0  0  0
  139.9340   76.1950  221.7490 N   0  0  0  0  0  0  0  0  0  0  0  0
  138.7160   76.8580  222.2190 C   0  0  0  0  0  0  0  0  0  0  0  0
  139.1540   78.2060  222.7290 C   0  0  0  0  0  0  0  0  0  0  0  0
  140.4980   78.3890  222.0590 C   0  0  1  0  0  0  0  0  0  0  0  0
  141.3460   79.4140  222.7150 C   0  0  0  0  0  0  0  0  0  0  0  0
  140.9700   80.4470  223.5540 C   0  0  0  0  0  0  0  0  0  0  0  0
  142.0740   81.1100  223.8980 N   0  0  0  0  0  0  0  0  0  0  0  0
  143.0980   80.4960  223.2840 C   0  0  0  0  0  0  0  0  0  0  0  0
  142.6820   79.4600  222.5570 N   0  0  0  0  0  0  0  0  0  0  0  0
  141.0710   76.9860  222.1810 C   0  0  0  0  0  0  0  0  0  0  0  0
  139.3760   70.9810  223.5710 C   0  0  0  0  0  0  0  0  0  0  0  0
  139.0360   69.6360  223.5510 C   0  0  0  0  0  0  0  0  0  0  0  0
  139.2910   68.8430  224.6600 C   0  0  0  0  0  0  0  0  0  0  0  0
  139.8770   69.3950  225.7680 C   0  0  0  0  0  0  0  0  0  0  0  0
  140.1640   68.6690  226.9140 C   0  0  0  0  0  0  0  0  0  0  0  0
  140.7560   69.2360  228.0250 C   0  0  0  0  0  0  0  0  0  0  0  0
  141.0200   68.5030  229.1200 F   0  0  0  0  0  0  0  0  0  0  0  0
  141.0570   70.5780  227.9510 C   0  0  0  0  0  0  0  0  0  0  0  0
  140.8000   71.3580  226.8480 C   0  0  0  0  0  0  0  0  0  0  0  0
  140.2040   70.7450  225.7520 C   0  0  0  0  0  0  0  0  0  0  0  0
  139.9580   71.5230  224.6740 N   0  0  0  0  0  0  0  0  0  0  0  0
  139.5730   73.6350  223.2930 H   0  0  0  0  0  0  0  0  0  0  0  0
  138.9223   73.2711  220.3459 H   0  0  0  0  0  0  0  0  0  0  0  0
  137.9737   74.4340  221.3508 H   0  0  0  0  0  0  0  0  0  0  0  0
  138.0001   76.9753  221.3921 H   0  0  0  0  0  0  0  0  0  0  0  0
  138.2125   76.2725  223.0024 H   0  0  0  0  0  0  0  0  0  0  0  0
  138.4485   78.9939  222.4265 H   0  0  0  0  0  0  0  0  0  0  0  0
  139.1995   78.2659  223.8264 H   0  0  0  0  0  0  0  0  0  0  0  0
  140.4337   78.7658  221.0276 H   0  0  0  0  0  0  0  0  0  0  0  0
  139.9451   80.6795  223.8788 H   0  0  0  0  0  0  0  0  0  0  0  0
  144.1489   80.8092  223.3704 H   0  0  0  0  0  0  0  0  0  0  0  0
  143.3140   78.8440  221.9980 H   0  0  0  0  0  0  0  0  0  0  0  0
  141.9389   76.8434  221.5204 H   0  0  0  0  0  0  0  0  0  0  0  0
  141.4509   76.7324  223.1817 H   0  0  0  0  0  0  0  0  0  0  0  0
  138.5653   69.1996  222.6577 H   0  0  0  0  0  0  0  0  0  0  0  0
  139.0239   67.7760  224.6497 H   0  0  0  0  0  0  0  0  0  0  0  0
  139.9100   67.5990  226.9390 H   0  0  0  0  0  0  0  0  0  0  0  0
  141.5297   71.0527  228.8235 H   0  0  0  0  0  0  0  0  0  0  0  0
  141.0566   72.4276  226.8336 H   0  0  0  0  0  0  0  0  0  0  0  0
  1  2  2  0
  2  3  1  0
  3  4  1  0
  4  5  1  0
  5  6  2  0
  5  7  1  0
  7  8  1  0
  8  9  1  0
  9 10  1  0
 10 11  1  0
 11 12  2  0
 12 13  1  0
 13 14  2  0
 14 15  1  0
 10 16  1  0
  2 17  1  0
 17 18  2  0
 18 19  1  0
 19 20  2  0
 20 21  1  0
 21 22  2  0
 22 23  1  0
 22 24  1  0
 24 25  2  0
 25 26  1  0
 26 27  2  0
 16  7  1  0
 27 17  1  0
 15 11  1  0
 26 20  1  0
  3 28  1  0
  4 29  1  0
  4 30  1  0
  8 31  1  0
  8 32  1  0
  9 33  1  0
  9 34  1  0
 10 35  1  6
 12 36  1  0
 14 37  1  0
 15 38  1  0
 16 39  1  0
 16 40  1  0
 18 41  1  0
 19 42  1  0
 21 43  1  0
 24 44  1  0
 25 45  1  0
M  END
>  <meeko>  (16) 
{"free_energy": -8.24, "intermolecular_energy": -9.74, "internal_energy": -1.05, "cluster_size": 17, "cluster_id": 1, "rank_in_cluster": 15}

$$$$

     RDKit          3D

 45 48  0  0  0  0  0  0  0  0999 V2000
  139.2560   71.3720  221.1890 O   0  0  0  0  0  0  0  0  0  0  0  0
  139.4340   71.8810  222.3360 C   0  0  0  0  0  0  0  0  0  0  0  0
  139.4350   73.2980  222.4260 N   0  0  0  0  0  0  0  0  0  0  0  0
  139.2370   74.0940  221.2380 C   0  0  0  0  0  0  0  0  0  0  0  0
  138.8000   75.4750  221.5940 C   0  0  0  0  0  0  0  0  0  0  0  0
  137.6140   75.6840  222.0050 O   0  0  0  0  0  0  0  0  0  0  0  0
  139.7170   76.5540  221.4690 N   0  0  0  0  0  0  0  0  0  0  0  0
  140.7210   76.7070  220.4140 C   0  0  0  0  0  0  0  0  0  0  0  0
  141.6030   77.8480  220.8500 C   0  0  0  0  0  0  0  0  0  0  0  0
  141.3280   77.9260  222.3350 C   0  0  1  0  0  0  0  0  0  0  0  0
  141.7180   79.2240  222.9380 C   0  0  0  0  0  0  0  0  0  0  0  0
  140.9520   80.1020  223.6820 C   0  0  0  0  0  0  0  0  0  0  0  0
  141.7270   81.1360  224.0090 N   0  0  0  0  0  0  0  0  0  0  0  0
  142.9350   80.8940  223.4770 C   0  0  0  0  0  0  0  0  0  0  0  0
  142.9570   79.7360  222.8190 N   0  0  0  0  0  0  0  0  0  0  0  0
  139.8260   77.6930  222.3610 C   0  0  0  0  0  0  0  0  0  0  0  0
  139.6330   71.0830  223.5320 C   0  0  0  0  0  0  0  0  0  0  0  0
  139.2380   69.7540  223.4790 C   0  0  0  0  0  0  0  0  0  0  0  0
  139.4010   68.9400  224.5910 C   0  0  0  0  0  0  0  0  0  0  0  0
  139.9520   69.4570  225.7340 C   0  0  0  0  0  0  0  0  0  0  0  0
  140.1480   68.7090  226.8850 C   0  0  0  0  0  0  0  0  0  0  0  0
  140.7040   69.2400  228.0320 C   0  0  0  0  0  0  0  0  0  0  0  0
  140.8800   68.4870  229.1300 F   0  0  0  0  0  0  0  0  0  0  0  0
  141.0650   70.5690  227.9880 C   0  0  0  0  0  0  0  0  0  0  0  0
  140.8980   71.3690  226.8820 C   0  0  0  0  0  0  0  0  0  0  0  0
  140.3360   70.7920  225.7500 C   0  0  0  0  0  0  0  0  0  0  0  0
  140.1790   71.5890  224.6700 N   0  0  0  0  0  0  0  0  0  0  0  0
  139.5820   73.7540  223.3740 H   0  0  0  0  0  0  0  0  0  0  0  0
  140.1822   74.1477  220.6779 H   0  0  0  0  0  0  0  0  0  0  0  0
  138.4550   73.6235  220.6239 H   0  0  0  0  0  0  0  0  0  0  0  0
  141.3112   75.7846  220.3100 H   0  0  0  0  0  0  0  0  0  0  0  0
  140.2554   76.9052  219.4373 H   0  0  0  0  0  0  0  0  0  0  0  0
  142.6628   77.6288  220.6530 H   0  0  0  0  0  0  0  0  0  0  0  0
  141.3992   78.7881  220.3165 H   0  0  0  0  0  0  0  0  0  0  0  0
  141.9095   77.2087  222.9327 H   0  0  0  0  0  0  0  0  0  0  0  0
  139.8944   79.9710  223.9548 H   0  0  0  0  0  0  0  0  0  0  0  0
  143.7992   81.5678  223.5724 H   0  0  0  0  0  0  0  0  0  0  0  0
  143.7980   79.3550  222.3300 H   0  0  0  0  0  0  0  0  0  0  0  0
  139.4705   77.4508  223.3734 H   0  0  0  0  0  0  0  0  0  0  0  0
  139.2229   78.5643  222.0660 H   0  0  0  0  0  0  0  0  0  0  0  0
  138.7966   69.3465  222.5575 H   0  0  0  0  0  0  0  0  0  0  0  0
  139.0896   67.8856  224.5550 H   0  0  0  0  0  0  0  0  0  0  0  0
  139.8487   67.6505  226.8843 H   0  0  0  0  0  0  0  0  0  0  0  0
  141.5121   71.0153  228.8885 H   0  0  0  0  0  0  0  0  0  0  0  0
  141.1984   72.4271  226.8932 H   0  0  0  0  0  0  0  0  0  0  0  0
  1  2  2  0
  2  3  1  0
  3  4  1  0
  4  5  1  0
  5  6  2  0
  5  7  1  0
  7  8  1  0
  8  9  1  0
  9 10  1  0
 10 11  1  0
 11 12  2  0
 12 13  1  0
 13 14  2  0
 14 15  1  0
 10 16  1  0
  2 17  1  0
 17 18  2  0
 18 19  1  0
 19 20  2  0
 20 21  1  0
 21 22  2  0
 22 23  1  0
 22 24  1  0
 24 25  2  0
 25 26  1  0
 26 27  2  0
 16  7  1  0
 27 17  1  0
 15 11  1  0
 26 20  1  0
  3 28  1  0
  4 29  1  0
  4 30  1  0
  8 31  1  0
  8 32  1  0
  9 33  1  0
  9 34  1  0
 10 35  1  1
 12 36  1  0
 14 37  1  0
 15 38  1  0
 16 39  1  0
 16 40  1  0
 18 41  1  0
 19 42  1  0
 21 43  1  0
 24 44  1  0
 25 45  1  0
M  END
>  <meeko>  (17) 
{"free_energy": -8.27, "intermolecular_energy": -9.76, "internal_energy": -1.04, "cluster_size": 17, "cluster_id": 1, "rank_in_cluster": 12}

$$$$

     RDKit          3D

 45 48  0  0  0  0  0  0  0  0999 V2000
  140.0650   71.0660  221.4180 O   0  0  0  0  0  0  0  0  0  0  0  0
  139.9080   71.5550  222.5770 C   0  0  0  0  0  0  0  0  0  0  0  0
  139.7060   72.9570  222.6700 N   0  0  0  0  0  0  0  0  0  0  0  0
  139.6870   73.7620  221.4710 C   0  0  0  0  0  0  0  0  0  0  0  0
  139.0380   75.0810  221.7300 C   0  0  0  0  0  0  0  0  0  0  0  0
  137.8320   75.1310  222.1330 O   0  0  0  0  0  0  0  0  0  0  0  0
  139.7770   76.2770  221.5220 N   0  0  0  0  0  0  0  0  0  0  0  0
  140.5660   76.6000  220.3320 C   0  0  0  0  0  0  0  0  0  0  0  0
  141.3530   77.8350  220.6850 C   0  0  0  0  0  0  0  0  0  0  0  0
  141.3180   77.8240  222.1970 C   0  0  1  0  0  0  0  0  0  0  0  0
  141.6320   79.1420  222.8010 C   0  0  0  0  0  0  0  0  0  0  0  0
  140.7970   80.0050  223.4880 C   0  0  0  0  0  0  0  0  0  0  0  0
  141.5180   81.0670  223.8430 N   0  0  0  0  0  0  0  0  0  0  0  0
  142.7620   80.8580  223.3840 C   0  0  0  0  0  0  0  0  0  0  0  0
  142.8590   79.6930  222.7460 N   0  0  0  0  0  0  0  0  0  0  0  0
  139.8830   77.3890  222.4470 C   0  0  0  0  0  0  0  0  0  0  0  0
  139.9270   70.7480  223.7830 C   0  0  0  0  0  0  0  0  0  0  0  0
  139.3870   69.4720  223.7000 C   0  0  0  0  0  0  0  0  0  0  0  0
  139.3750   68.6530  224.8200 C   0  0  0  0  0  0  0  0  0  0  0  0
  139.8960   69.1120  226.0000 C   0  0  0  0  0  0  0  0  0  0  0  0
  139.9220   68.3550  227.1610 C   0  0  0  0  0  0  0  0  0  0  0  0
  140.4500   68.8270  228.3460 C   0  0  0  0  0  0  0  0  0  0  0  0
  140.4590   68.0670  229.4540 F   0  0  0  0  0  0  0  0  0  0  0  0
  140.9630   70.1060  228.3310 C   0  0  0  0  0  0  0  0  0  0  0  0
  140.9700   70.9120  227.2160 C   0  0  0  0  0  0  0  0  0  0  0  0
  140.4290   70.3950  226.0450 C   0  0  0  0  0  0  0  0  0  0  0  0
  140.4430   71.1970  224.9580 N   0  0  0  0  0  0  0  0  0  0  0  0
  139.5710   73.3960  223.6270 H   0  0  0  0  0  0  0  0  0  0  0  0
  140.7200   73.9285  221.1317 H   0  0  0  0  0  0  0  0  0  0  0  0
  139.1118   73.2310  220.6982 H   0  0  0  0  0  0  0  0  0  0  0  0
  141.2450   75.7704  220.0856 H   0  0  0  0  0  0  0  0  0  0  0  0
  139.9250   76.7654  219.4535 H   0  0  0  0  0  0  0  0  0  0  0  0
  142.3853   77.7691  220.3107 H   0  0  0  0  0  0  0  0  0  0  0  0
  140.9450   78.7562  220.2435 H   0  0  0  0  0  0  0  0  0  0  0  0
  142.0764   77.1720  222.6549 H   0  0  0  0  0  0  0  0  0  0  0  0
  139.7303   79.8432  223.7023 H   0  0  0  0  0  0  0  0  0  0  0  0
  143.5971   81.5613  223.5181 H   0  0  0  0  0  0  0  0  0  0  0  0
  143.7370   79.3320  222.3110 H   0  0  0  0  0  0  0  0  0  0  0  0
  139.7321   77.0668  223.4879 H   0  0  0  0  0  0  0  0  0  0  0  0
  139.1328   78.1799  222.2998 H   0  0  0  0  0  0  0  0  0  0  0  0
  138.9695   69.1109  222.7485 H   0  0  0  0  0  0  0  0  0  0  0  0
  138.9492   67.6405  224.7602 H   0  0  0  0  0  0  0  0  0  0  0  0
  139.5052   67.3373  227.1371 H   0  0  0  0  0  0  0  0  0  0  0  0
  141.3908   70.5048  229.2626 H   0  0  0  0  0  0  0  0  0  0  0  0
  141.3886   71.9287  227.2502 H   0  0  0  0  0  0  0  0  0  0  0  0
  1  2  2  0
  2  3  1  0
  3  4  1  0
  4  5  1  0
  5  6  2  0
  5  7  1  0
  7  8  1  0
  8  9  1  0
  9 10  1  0
 10 11  1  0
 11 12  2  0
 12 13  1  0
 13 14  2  0
 14 15  1  0
 10 16  1  0
  2 17  1  0
 17 18  2  0
 18 19  1  0
 19 20  2  0
 20 21  1  0
 21 22  2  0
 22 23  1  0
 22 24  1  0
 24 25  2  0
 25 26  1  0
 26 27  2  0
 16  7  1  0
 27 17  1  0
 15 11  1  0
 26 20  1  0
  3 28  1  0
  4 29  1  0
  4 30  1  0
  8 31  1  0
  8 32  1  0
  9 33  1  0
  9 34  1  0
 10 35  1  1
 12 36  1  0
 14 37  1  0
 15 38  1  0
 16 39  1  0
 16 40  1  0
 18 41  1  0
 19 42  1  0
 21 43  1  0
 24 44  1  0
 25 45  1  0
M  END
>  <meeko>  (18) 
{"free_energy": -8.26, "intermolecular_energy": -9.75, "internal_energy": -0.99, "cluster_size": 17, "cluster_id": 1, "rank_in_cluster": 13}

$$$$

     RDKit          3D

 45 48  0  0  0  0  0  0  0  0999 V2000
  139.0010   71.1960  221.2050 O   0  0  0  0  0  0  0  0  0  0  0  0
  139.2240   71.7370  222.3290 C   0  0  0  0  0  0  0  0  0  0  0  0
  139.2220   73.1560  222.3800 N   0  0  0  0  0  0  0  0  0  0  0  0
  138.9710   73.9180  221.1800 C   0  0  0  0  0  0  0  0  0  0  0  0
  140.0180   74.9640  220.9890 C   0  0  0  0  0  0  0  0  0  0  0  0
  140.9670   74.7750  220.1620 O   0  0  0  0  0  0  0  0  0  0  0  0
  139.9480   76.1700  221.7390 N   0  0  0  0  0  0  0  0  0  0  0  0
  138.7210   76.8140  222.2120 C   0  0  0  0  0  0  0  0  0  0  0  0
  139.1390   78.1680  222.7210 C   0  0  0  0  0  0  0  0  0  0  0  0
  140.4780   78.3720  222.0470 C   0  0  1  0  0  0  0  0  0  0  0  0
  141.3120   79.4110  222.7000 C   0  0  0  0  0  0  0  0  0  0  0  0
  140.9190   80.4540  223.5190 C   0  0  0  0  0  0  0  0  0  0  0  0
  142.0140   81.1270  223.8680 N   0  0  0  0  0  0  0  0  0  0  0  0
  143.0500   80.5100  223.2780 C   0  0  0  0  0  0  0  0  0  0  0  0
  142.6500   79.4610  222.5600 N   0  0  0  0  0  0  0  0  0  0  0  0
  141.0730   76.9790  222.1670 C   0  0  0  0  0  0  0  0  0  0  0  0
  139.4760   70.9730  223.5370 C   0  0  0  0  0  0  0  0  0  0  0  0
  139.1160   69.6330  223.5250 C   0  0  0  0  0  0  0  0  0  0  0  0
  139.3310   68.8500  224.6510 C   0  0  0  0  0  0  0  0  0  0  0  0
  139.8960   69.4080  225.7660 C   0  0  0  0  0  0  0  0  0  0  0  0
  140.1420   68.6940  226.9290 C   0  0  0  0  0  0  0  0  0  0  0  0
  140.7120   69.2660  228.0480 C   0  0  0  0  0  0  0  0  0  0  0  0
  140.9380   68.5440  229.1580 F   0  0  0  0  0  0  0  0  0  0  0  0
  141.0350   70.6030  227.9650 C   0  0  0  0  0  0  0  0  0  0  0  0
  140.8180   71.3720  226.8450 C   0  0  0  0  0  0  0  0  0  0  0  0
  140.2430   70.7540  225.7420 C   0  0  0  0  0  0  0  0  0  0  0  0
  140.0360   71.5210  224.6480 N   0  0  0  0  0  0  0  0  0  0  0  0
  139.4050   73.6380  223.3080 H   0  0  0  0  0  0  0  0  0  0  0  0
  138.9765   73.2397  220.3141 H   0  0  0  0  0  0  0  0  0  0  0  0
  137.9922   74.4112  221.2732 H   0  0  0  0  0  0  0  0  0  0  0  0
  138.0014   76.9203  221.3868 H   0  0  0  0  0  0  0  0  0  0  0  0
  138.2286   76.2206  222.9965 H   0  0  0  0  0  0  0  0  0  0  0  0
  138.4204   78.9448  222.4208 H   0  0  0  0  0  0  0  0  0  0  0  0
  139.1866   78.2285  223.8183 H   0  0  0  0  0  0  0  0  0  0  0  0
  140.4047   78.7476  221.0157 H   0  0  0  0  0  0  0  0  0  0  0  0
  139.8886   80.6857  223.8264 H   0  0  0  0  0  0  0  0  0  0  0  0
  144.0979   80.8302  223.3750 H   0  0  0  0  0  0  0  0  0  0  0  0
  143.2920   78.8400  222.0190 H   0  0  0  0  0  0  0  0  0  0  0  0
  141.9409   76.8501  221.5036 H   0  0  0  0  0  0  0  0  0  0  0  0
  141.4599   76.7317  223.1666 H   0  0  0  0  0  0  0  0  0  0  0  0
  138.6614   69.1922  222.6255 H   0  0  0  0  0  0  0  0  0  0  0  0
  139.0488   67.7868  224.6472 H   0  0  0  0  0  0  0  0  0  0  0  0
  139.8718   67.6282  226.9609 H   0  0  0  0  0  0  0  0  0  0  0  0
  141.4919   71.0823  228.8434 H   0  0  0  0  0  0  0  0  0  0  0  0
  141.0900   72.4376  226.8238 H   0  0  0  0  0  0  0  0  0  0  0  0
  1  2  2  0
  2  3  1  0
  3  4  1  0
  4  5  1  0
  5  6  2  0
  5  7  1  0
  7  8  1  0
  8  9  1  0
  9 10  1  0
 10 11  1  0
 11 12  2  0
 12 13  1  0
 13 14  2  0
 14 15  1  0
 10 16  1  0
  2 17  1  0
 17 18  2  0
 18 19  1  0
 19 20  2  0
 20 21  1  0
 21 22  2  0
 22 23  1  0
 22 24  1  0
 24 25  2  0
 25 26  1  0
 26 27  2  0
 16  7  1  0
 27 17  1  0
 15 11  1  0
 26 20  1  0
  3 28  1  0
  4 29  1  0
  4 30  1  0
  8 31  1  0
  8 32  1  0
  9 33  1  0
  9 34  1  0
 10 35  1  6
 12 36  1  0
 14 37  1  0
 15 38  1  0
 16 39  1  0
 16 40  1  0
 18 41  1  0
 19 42  1  0
 21 43  1  0
 24 44  1  0
 25 45  1  0
M  END
>  <meeko>  (19) 
{"free_energy": -8.25, "intermolecular_energy": -9.74, "internal_energy": -1.03, "cluster_size": 17, "cluster_id": 1, "rank_in_cluster": 14}

$$$$

     RDKit          3D

 45 48  0  0  0  0  0  0  0  0999 V2000
  141.2510   72.4740  221.7360 O   0  0  0  0  0  0  0  0  0  0  0  0
  140.2810   72.4540  222.5510 C   0  0  0  0  0  0  0  0  0  0  0  0
  139.2210   73.3710  222.3230 N   0  0  0  0  0  0  0  0  0  0  0  0
  139.2810   74.2750  221.1990 C   0  0  0  0  0  0  0  0  0  0  0  0
  138.8320   75.6420  221.5940 C   0  0  0  0  0  0  0  0  0  0  0  0
  137.6560   75.8230  222.0450 O   0  0  0  0  0  0  0  0  0  0  0  0
  139.7270   76.7380  221.4630 N   0  0  0  0  0  0  0  0  0  0  0  0
  140.6070   76.9940  220.3200 C   0  0  0  0  0  0  0  0  0  0  0  0
  141.5280   78.1040  220.7530 C   0  0  0  0  0  0  0  0  0  0  0  0
  141.4220   78.0490  222.2610 C   0  0  1  0  0  0  0  0  0  0  0  0
  141.8730   79.2950  222.9270 C   0  0  0  0  0  0  0  0  0  0  0  0
  141.1580   80.1570  223.7380 C   0  0  0  0  0  0  0  0  0  0  0  0
  141.9780   81.1410  224.1050 N   0  0  0  0  0  0  0  0  0  0  0  0
  143.1650   80.8850  223.5330 C   0  0  0  0  0  0  0  0  0  0  0  0
  143.1290   79.7670  222.8100 N   0  0  0  0  0  0  0  0  0  0  0  0
  139.9320   77.7970  222.4330 C   0  0  0  0  0  0  0  0  0  0  0  0
  140.2170   71.5460  223.6810 C   0  0  0  0  0  0  0  0  0  0  0  0
  139.6450   70.3010  223.4620 C   0  0  0  0  0  0  0  0  0  0  0  0
  139.5550   69.3900  224.5040 C   0  0  0  0  0  0  0  0  0  0  0  0
  140.0320   69.7270  225.7430 C   0  0  0  0  0  0  0  0  0  0  0  0
  139.9790   68.8730  226.8330 C   0  0  0  0  0  0  0  0  0  0  0  0
  140.4630   69.2230  228.0780 C   0  0  0  0  0  0  0  0  0  0  0  0
  140.3960   68.3710  229.1140 F   0  0  0  0  0  0  0  0  0  0  0  0
  141.0140   70.4810  228.1980 C   0  0  0  0  0  0  0  0  0  0  0  0
  141.0980   71.3790  227.1600 C   0  0  0  0  0  0  0  0  0  0  0  0
  140.5990   70.9830  225.9250 C   0  0  0  0  0  0  0  0  0  0  0  0
  140.6890   71.8750  224.9130 N   0  0  0  0  0  0  0  0  0  0  0  0
  138.3940   73.3780  222.9880 H   0  0  0  0  0  0  0  0  0  0  0  0
  140.3171   74.3274  220.8332 H   0  0  0  0  0  0  0  0  0  0  0  0
  138.6144   73.8996  220.4086 H   0  0  0  0  0  0  0  0  0  0  0  0
  141.1848   76.0916  220.0716 H   0  0  0  0  0  0  0  0  0  0  0  0
  140.0349   77.2693  219.4218 H   0  0  0  0  0  0  0  0  0  0  0  0
  142.5596   77.9170  220.4201 H   0  0  0  0  0  0  0  0  0  0  0  0
  141.2619   79.0841  220.3305 H   0  0  0  0  0  0  0  0  0  0  0  0
  142.0687   77.2899  222.7253 H   0  0  0  0  0  0  0  0  0  0  0  0
  140.1024   80.0497  224.0280 H   0  0  0  0  0  0  0  0  0  0  0  0
  144.0563   81.5194  223.6471 H   0  0  0  0  0  0  0  0  0  0  0  0
  143.9430   79.3840  222.2800 H   0  0  0  0  0  0  0  0  0  0  0  0
  139.6920   77.4644  223.4536 H   0  0  0  0  0  0  0  0  0  0  0  0
  139.2979   78.6833  222.2836 H   0  0  0  0  0  0  0  0  0  0  0  0
  139.2639   70.0371  222.4645 H   0  0  0  0  0  0  0  0  0  0  0  0
  139.1026   68.4015  224.3362 H   0  0  0  0  0  0  0  0  0  0  0  0
  139.5334   67.8760  226.7011 H   0  0  0  0  0  0  0  0  0  0  0  0
  141.4086   70.7834  229.1792 H   0  0  0  0  0  0  0  0  0  0  0  0
  141.5439   72.3745  227.3021 H   0  0  0  0  0  0  0  0  0  0  0  0
  1  2  2  0
  2  3  1  0
  3  4  1  0
  4  5  1  0
  5  6  2  0
  5  7  1  0
  7  8  1  0
  8  9  1  0
  9 10  1  0
 10 11  1  0
 11 12  2  0
 12 13  1  0
 13 14  2  0
 14 15  1  0
 10 16  1  0
  2 17  1  0
 17 18  2  0
 18 19  1  0
 19 20  2  0
 20 21  1  0
 21 22  2  0
 22 23  1  0
 22 24  1  0
 24 25  2  0
 25 26  1  0
 26 27  2  0
 16  7  1  0
 27 17  1  0
 15 11  1  0
 26 20  1  0
  3 28  1  0
  4 29  1  0
  4 30  1  0
  8 31  1  0
  8 32  1  0
  9 33  1  0
  9 34  1  0
 10 35  1  1
 12 36  1  0
 14 37  1  0
 15 38  1  0
 16 39  1  0
 16 40  1  0
 18 41  1  0
 19 42  1  0
 21 43  1  0
 24 44  1  0
 25 45  1  0
M  END
>  <meeko>  (20) 
{"free_energy": -8.61, "intermolecular_energy": -10.1, "internal_energy": -0.96, "cluster_size": 17, "cluster_id": 1, "rank_in_cluster": 3}

$$$$
