untitled_line_9
     RDKit          3D

 68 73  0  0  0  0  0  0  0  0999 V2000
   -1.3311   -7.2954   -2.8775 C   0  0  0  0  0  0  0  0  0  0  0  0
   -2.0805   -5.9855   -3.1064 C   0  0  0  0  0  0  0  0  0  0  0  0
   -1.4801   -4.8879   -2.3339 N   0  0  0  0  0  0  0  0  0  0  0  0
   -0.2643   -4.3250   -2.9600 C   0  0  2  0  0  0  0  0  0  0  0  0
    0.3027   -3.1719   -2.1159 C   0  0  0  0  0  0  0  0  0  0  0  0
   -0.4793   -1.9490   -2.3244 N   0  0  0  0  0  0  0  0  0  0  0  0
   -0.5816   -0.9599   -1.2777 C   0  0  0  0  0  0  0  0  0  0  0  0
   -0.1546   -1.2426   -0.0193 N   0  0  0  0  0  0  0  0  0  0  0  0
   -0.2524   -0.3200    0.9736 C   0  0  0  0  0  0  0  0  0  0  0  0
    0.2157   -0.6314    2.3021 N   0  0  0  0  0  0  0  0  0  0  0  0
   -0.0579    0.3047    3.4064 C   0  0  0  0  0  0  0  0  0  0  0  0
   -0.1101   -0.4221    4.7506 C   0  0  0  0  0  0  0  0  0  0  0  0
    1.1375   -1.2280    4.9478 C   0  0  0  0  0  0  0  0  0  0  0  0
    1.7125   -1.3598    6.2230 C   0  0  0  0  0  0  0  0  0  0  0  0
    2.8595   -2.1397    6.3987 C   0  0  0  0  0  0  0  0  0  0  0  0
    3.4272   -2.8038    5.3092 C   0  0  0  0  0  0  0  0  0  0  0  0
    2.8491   -2.6922    4.0409 C   0  0  0  0  0  0  0  0  0  0  0  0
    1.7063   -1.8982    3.8501 C   0  0  0  0  0  0  0  0  0  0  0  0
    1.0611   -1.8277    2.4870 C   0  0  0  0  0  0  0  0  0  0  0  0
   -0.7833    0.9001    0.6965 N   0  0  0  0  0  0  0  0  0  0  0  0
   -1.2144    1.2007   -0.5574 C   0  0  0  0  0  0  0  0  0  0  0  0
   -1.7725    2.4996   -0.8463 N   0  0  0  0  0  0  0  0  0  0  0  0
   -2.3428    2.7543   -2.1822 C   0  0  0  0  0  0  0  0  0  0  0  0
   -3.3645    3.8920   -2.1583 C   0  0  0  0  0  0  0  0  0  0  0  0
   -2.7779    5.1008   -1.4969 C   0  0  0  0  0  0  0  0  0  0  0  0
   -3.0774    6.3913   -1.9613 C   0  0  0  0  0  0  0  0  0  0  0  0
   -2.5636    7.5105   -1.3021 C   0  0  0  0  0  0  0  0  0  0  0  0
   -1.7629    7.3483   -0.1686 C   0  0  0  0  0  0  0  0  0  0  0  0
   -1.4706    6.0658    0.3057 C   0  0  0  0  0  0  0  0  0  0  0  0
   -1.9683    4.9345   -0.3604 C   0  0  0  0  0  0  0  0  0  0  0  0
   -1.6932    3.5540    0.1849 C   0  0  0  0  0  0  0  0  0  0  0  0
   -1.1093    0.2647   -1.5373 N   0  0  0  0  0  0  0  0  0  0  0  0
   -0.8138   -1.6017   -3.7080 C   0  0  0  0  0  0  0  0  0  0  0  0
   -1.3336   -2.8358   -4.4481 C   0  0  0  0  0  0  0  0  0  0  0  0
   -0.4586   -3.9420   -4.3179 O   0  0  0  0  0  0  0  0  0  0  0  0
   -1.8761   -8.1274   -3.3736 H   0  0  0  0  0  0  0  0  0  0  0  0
   -0.3091   -7.2464   -3.3085 H   0  0  0  0  0  0  0  0  0  0  0  0
   -1.2629   -7.5116   -1.7908 H   0  0  0  0  0  0  0  0  0  0  0  0
   -3.1270   -6.1336   -2.7628 H   0  0  0  0  0  0  0  0  0  0  0  0
   -2.1244   -5.7535   -4.1920 H   0  0  0  0  0  0  0  0  0  0  0  0
   -2.1960   -4.1403   -2.1851 H   0  0  0  0  0  0  0  0  0  0  0  0
    0.5178   -5.1134   -2.9517 H   0  0  0  0  0  0  0  0  0  0  0  0
    0.3003   -3.4782   -1.0475 H   0  0  0  0  0  0  0  0  0  0  0  0
    1.3551   -2.9791   -2.4154 H   0  0  0  0  0  0  0  0  0  0  0  0
   -1.0397    0.8055    3.2571 H   0  0  0  0  0  0  0  0  0  0  0  0
    0.7330    1.0861    3.4271 H   0  0  0  0  0  0  0  0  0  0  0  0
   -0.2291    0.3283    5.5627 H   0  0  0  0  0  0  0  0  0  0  0  0
   -0.9864   -1.1054    4.7728 H   0  0  0  0  0  0  0  0  0  0  0  0
    1.2759   -0.8589    7.0784 H   0  0  0  0  0  0  0  0  0  0  0  0
    3.3058   -2.2340    7.3810 H   0  0  0  0  0  0  0  0  0  0  0  0
    4.3112   -3.4124    5.4488 H   0  0  0  0  0  0  0  0  0  0  0  0
    3.2903   -3.2267    3.2087 H   0  0  0  0  0  0  0  0  0  0  0  0
    1.8631   -1.8261    1.7147 H   0  0  0  0  0  0  0  0  0  0  0  0
    0.4407   -2.7382    2.3415 H   0  0  0  0  0  0  0  0  0  0  0  0
   -2.8649    1.8452   -2.5565 H   0  0  0  0  0  0  0  0  0  0  0  0
   -1.5197    2.9976   -2.8900 H   0  0  0  0  0  0  0  0  0  0  0  0
   -3.6734    4.1204   -3.2015 H   0  0  0  0  0  0  0  0  0  0  0  0
   -4.2641    3.5721   -1.5894 H   0  0  0  0  0  0  0  0  0  0  0  0
   -3.7088    6.5308   -2.8300 H   0  0  0  0  0  0  0  0  0  0  0  0
   -2.7927    8.5046   -1.6649 H   0  0  0  0  0  0  0  0  0  0  0  0
   -1.3734    8.2174    0.3454 H   0  0  0  0  0  0  0  0  0  0  0  0
   -0.8594    5.9541    1.1934 H   0  0  0  0  0  0  0  0  0  0  0  0
   -2.4247    3.3315    0.9909 H   0  0  0  0  0  0  0  0  0  0  0  0
   -0.6730    3.5505    0.6294 H   0  0  0  0  0  0  0  0  0  0  0  0
    0.0944   -1.2114   -4.2176 H   0  0  0  0  0  0  0  0  0  0  0  0
   -1.6038   -0.8207   -3.7464 H   0  0  0  0  0  0  0  0  0  0  0  0
   -1.4113   -2.5847   -5.5271 H   0  0  0  0  0  0  0  0  0  0  0  0
   -2.3633   -3.0891   -4.1193 H   0  0  0  0  0  0  0  0  0  0  0  0
  1  2  1  0
  2  3  1  0
  3  4  1  0
  4  5  1  0
  5  6  1  0
  6  7  1  0
  7  8  2  0
  8  9  1  0
  9 10  1  0
 10 11  1  0
 11 12  1  0
 12 13  1  0
 13 14  2  0
 14 15  1  0
 15 16  2  0
 16 17  1  0
 17 18  2  0
 18 19  1  0
  9 20  2  0
 20 21  1  0
 21 22  1  0
 22 23  1  0
 23 24  1  0
 24 25  1  0
 25 26  2  0
 26 27  1  0
 27 28  2  0
 28 29  1  0
 29 30  2  0
 30 31  1  0
 21 32  2  0
  6 33  1  0
 33 34  1  0
 34 35  1  0
 35  4  1  0
 32  7  1  0
 19 10  1  0
 31 22  1  0
 18 13  1  0
 30 25  1  0
  1 36  1  0
  1 37  1  0
  1 38  1  0
  2 39  1  0
  2 40  1  0
  3 41  1  0
  4 42  1  6
  5 43  1  0
  5 44  1  0
 11 45  1  0
 11 46  1  0
 12 47  1  0
 12 48  1  0
 14 49  1  0
 15 50  1  0
 16 51  1  0
 17 52  1  0
 19 53  1  0
 19 54  1  0
 23 55  1  0
 23 56  1  0
 24 57  1  0
 24 58  1  0
 26 59  1  0
 27 60  1  0
 28 61  1  0
 29 62  1  0
 31 63  1  0
 31 64  1  0
 33 65  1  0
 33 66  1  0
 34 67  1  0
 34 68  1  0
M  END
>  <UniqueID>  (1) 
27

>  <SMILES>  (1) 
CCN[C@@H]1CN(c2nc(N3CCc4ccccc4C3)nc(N3CCc4ccccc4C3)n2)CCO1

>  <Energy>  (1) 
82.8873341230382

>  <Genealogy>  (1) 
CCN[C@@H]1CN(c2nc(N3CCc4ccccc4C3)nc(N3CCc4ccccc4C3)n2)CCO1 (chirality)
CCN[C@@H]1CN(c2nc(N3CCc4ccccc4C3)nc(N3CCc4ccccc4C3)n2)CCO1 (3D coordinates assigned)
CCN[C@@H]1CN(c2nc(N3CCc4ccccc4C3)nc(N3CCc4ccccc4C3)n2)CCO1 (nonaromatic ring conformer: 82.8873341230382 kcal/mol)

$$$$
untitled_line_9
     RDKit          3D

 68 73  0  0  0  0  0  0  0  0999 V2000
   -0.5417   -0.4995   -5.4979 C   0  0  0  0  0  0  0  0  0  0  0  0
   -0.5733   -1.8048   -4.7139 C   0  0  0  0  0  0  0  0  0  0  0  0
   -1.8367   -2.5118   -4.9740 N   0  0  0  0  0  0  0  0  0  0  0  0
   -2.1101   -3.5688   -3.9847 C   0  0  2  0  0  0  0  0  0  0  0  0
   -2.6012   -2.9395   -2.6503 C   0  0  0  0  0  0  0  0  0  0  0  0
   -1.5528   -3.0183   -1.6241 N   0  0  0  0  0  0  0  0  0  0  0  0
   -1.2512   -1.8968   -0.7732 C   0  0  0  0  0  0  0  0  0  0  0  0
   -0.5589   -2.0799    0.3806 N   0  0  0  0  0  0  0  0  0  0  0  0
   -0.2390   -1.0241    1.1747 C   0  0  0  0  0  0  0  0  0  0  0  0
    0.4937   -1.2252    2.4033 N   0  0  0  0  0  0  0  0  0  0  0  0
    0.9552   -2.5713    2.7785 C   0  0  0  0  0  0  0  0  0  0  0  0
    0.8480   -2.7662    4.2868 C   0  0  0  0  0  0  0  0  0  0  0  0
    1.5904   -1.6776    5.0033 C   0  0  0  0  0  0  0  0  0  0  0  0
    2.1931   -1.9371    6.2449 C   0  0  0  0  0  0  0  0  0  0  0  0
    2.8603   -0.9190    6.9301 C   0  0  0  0  0  0  0  0  0  0  0  0
    2.9176    0.3667    6.3890 C   0  0  0  0  0  0  0  0  0  0  0  0
    2.3049    0.6389    5.1627 C   0  0  0  0  0  0  0  0  0  0  0  0
    1.6383   -0.3777    4.4597 C   0  0  0  0  0  0  0  0  0  0  0  0
    0.9489   -0.0417    3.1562 C   0  0  0  0  0  0  0  0  0  0  0  0
   -0.6073    0.2280    0.7924 N   0  0  0  0  0  0  0  0  0  0  0  0
   -1.2939    0.4284   -0.3641 C   0  0  0  0  0  0  0  0  0  0  0  0
   -1.6551    1.7628   -0.7775 N   0  0  0  0  0  0  0  0  0  0  0  0
   -2.4410    1.9558   -2.0075 C   0  0  0  0  0  0  0  0  0  0  0  0
   -3.3361    3.1854   -1.8924 C   0  0  0  0  0  0  0  0  0  0  0  0
   -2.5178    4.3874   -1.5295 C   0  0  0  0  0  0  0  0  0  0  0  0
   -2.8702    5.6574   -2.0136 C   0  0  0  0  0  0  0  0  0  0  0  0
   -2.1250    6.7809   -1.6476 C   0  0  0  0  0  0  0  0  0  0  0  0
   -1.0341    6.6466   -0.7865 C   0  0  0  0  0  0  0  0  0  0  0  0
   -0.6887    5.3887   -0.2849 C   0  0  0  0  0  0  0  0  0  0  0  0
   -1.4222    4.2502   -0.6558 C   0  0  0  0  0  0  0  0  0  0  0  0
   -1.0559    2.9081   -0.0650 C   0  0  0  0  0  0  0  0  0  0  0  0
   -1.6126   -0.6408   -1.1384 N   0  0  0  0  0  0  0  0  0  0  0  0
   -0.8290   -4.2816   -1.4527 C   0  0  0  0  0  0  0  0  0  0  0  0
   -1.0526   -5.1869   -2.6660 C   0  0  0  0  0  0  0  0  0  0  0  0
   -0.9712   -4.4152   -3.8462 O   0  0  0  0  0  0  0  0  0  0  0  0
   -1.3943    0.1469   -5.2009 H   0  0  0  0  0  0  0  0  0  0  0  0
    0.4070    0.0392   -5.2911 H   0  0  0  0  0  0  0  0  0  0  0  0
   -0.6055   -0.7055   -6.5881 H   0  0  0  0  0  0  0  0  0  0  0  0
   -0.4629   -1.5599   -3.6356 H   0  0  0  0  0  0  0  0  0  0  0  0
    0.2926   -2.4347   -5.0186 H   0  0  0  0  0  0  0  0  0  0  0  0
   -1.7658   -2.9615   -5.9175 H   0  0  0  0  0  0  0  0  0  0  0  0
   -2.9474   -4.1855   -4.3849 H   0  0  0  0  0  0  0  0  0  0  0  0
   -3.4847   -3.5064   -2.2845 H   0  0  0  0  0  0  0  0  0  0  0  0
   -2.9457   -1.8966   -2.8158 H   0  0  0  0  0  0  0  0  0  0  0  0
    2.0113   -2.7001    2.4534 H   0  0  0  0  0  0  0  0  0  0  0  0
    0.3446   -3.3621    2.2919 H   0  0  0  0  0  0  0  0  0  0  0  0
    1.2644   -3.7632    4.5493 H   0  0  0  0  0  0  0  0  0  0  0  0
   -0.2203   -2.7383    4.5927 H   0  0  0  0  0  0  0  0  0  0  0  0
    2.1471   -2.9276    6.6808 H   0  0  0  0  0  0  0  0  0  0  0  0
    3.3282   -1.1262    7.8839 H   0  0  0  0  0  0  0  0  0  0  0  0
    3.4310    1.1557    6.9234 H   0  0  0  0  0  0  0  0  0  0  0  0
    2.3449    1.6446    4.7618 H   0  0  0  0  0  0  0  0  0  0  0  0
    1.6438    0.5455    2.5178 H   0  0  0  0  0  0  0  0  0  0  0  0
    0.0710    0.5963    3.3945 H   0  0  0  0  0  0  0  0  0  0  0  0
   -1.7499    2.0677   -2.8715 H   0  0  0  0  0  0  0  0  0  0  0  0
   -3.0975    1.0799   -2.2007 H   0  0  0  0  0  0  0  0  0  0  0  0
   -4.1021    3.0180   -1.1046 H   0  0  0  0  0  0  0  0  0  0  0  0
   -3.8565    3.3413   -2.8630 H   0  0  0  0  0  0  0  0  0  0  0  0
   -3.7197    5.7770   -2.6746 H   0  0  0  0  0  0  0  0  0  0  0  0
   -2.3953    7.7570   -2.0298 H   0  0  0  0  0  0  0  0  0  0  0  0
   -0.4602    7.5184   -0.5005 H   0  0  0  0  0  0  0  0  0  0  0  0
    0.1506    5.3015    0.3941 H   0  0  0  0  0  0  0  0  0  0  0  0
   -1.3931    2.8930    0.9936 H   0  0  0  0  0  0  0  0  0  0  0  0
    0.0506    2.8008   -0.0794 H   0  0  0  0  0  0  0  0  0  0  0  0
   -1.1686   -4.7916   -0.5263 H   0  0  0  0  0  0  0  0  0  0  0  0
    0.2600   -4.0714   -1.3703 H   0  0  0  0  0  0  0  0  0  0  0  0
   -0.2632   -5.9670   -2.6908 H   0  0  0  0  0  0  0  0  0  0  0  0
   -2.0327   -5.7120   -2.5920 H   0  0  0  0  0  0  0  0  0  0  0  0
  1  2  1  0
  2  3  1  0
  3  4  1  0
  4  5  1  0
  5  6  1  0
  6  7  1  0
  7  8  2  0
  8  9  1  0
  9 10  1  0
 10 11  1  0
 11 12  1  0
 12 13  1  0
 13 14  2  0
 14 15  1  0
 15 16  2  0
 16 17  1  0
 17 18  2  0
 18 19  1  0
  9 20  2  0
 20 21  1  0
 21 22  1  0
 22 23  1  0
 23 24  1  0
 24 25  1  0
 25 26  2  0
 26 27  1  0
 27 28  2  0
 28 29  1  0
 29 30  2  0
 30 31  1  0
 21 32  2  0
  6 33  1  0
 33 34  1  0
 34 35  1  0
 35  4  1  0
 32  7  1  0
 19 10  1  0
 31 22  1  0
 18 13  1  0
 30 25  1  0
  1 36  1  0
  1 37  1  0
  1 38  1  0
  2 39  1  0
  2 40  1  0
  3 41  1  0
  4 42  1  6
  5 43  1  0
  5 44  1  0
 11 45  1  0
 11 46  1  0
 12 47  1  0
 12 48  1  0
 14 49  1  0
 15 50  1  0
 16 51  1  0
 17 52  1  0
 19 53  1  0
 19 54  1  0
 23 55  1  0
 23 56  1  0
 24 57  1  0
 24 58  1  0
 26 59  1  0
 27 60  1  0
 28 61  1  0
 29 62  1  0
 31 63  1  0
 31 64  1  0
 33 65  1  0
 33 66  1  0
 34 67  1  0
 34 68  1  0
M  END
>  <UniqueID>  (2) 
28

>  <SMILES>  (2) 
CCN[C@@H]1CN(c2nc(N3CCc4ccccc4C3)nc(N3CCc4ccccc4C3)n2)CCO1

>  <Energy>  (2) 
82.92881162704525

>  <Genealogy>  (2) 
CCN[C@@H]1CN(c2nc(N3CCc4ccccc4C3)nc(N3CCc4ccccc4C3)n2)CCO1 (chirality)
CCN[C@@H]1CN(c2nc(N3CCc4ccccc4C3)nc(N3CCc4ccccc4C3)n2)CCO1 (3D coordinates assigned)
CCN[C@@H]1CN(c2nc(N3CCc4ccccc4C3)nc(N3CCc4ccccc4C3)n2)CCO1 (nonaromatic ring conformer: 82.92881162704525 kcal/mol)

$$$$
untitled_line_9
     RDKit          3D

 68 73  0  0  0  0  0  0  0  0999 V2000
    1.3740   -2.2881   -5.2835 C   0  0  0  0  0  0  0  0  0  0  0  0
    0.4390   -3.0229   -4.3316 C   0  0  0  0  0  0  0  0  0  0  0  0
   -0.8883   -3.1696   -4.9489 N   0  0  0  0  0  0  0  0  0  0  0  0
   -1.9016   -3.6591   -3.9969 C   0  0  2  0  0  0  0  0  0  0  0  0
   -2.3265   -2.5174   -3.0234 C   0  0  0  0  0  0  0  0  0  0  0  0
   -1.8217   -2.7522   -1.6627 N   0  0  0  0  0  0  0  0  0  0  0  0
   -1.4680   -1.6483   -0.8063 C   0  0  0  0  0  0  0  0  0  0  0  0
   -0.8979   -1.8798    0.4049 N   0  0  0  0  0  0  0  0  0  0  0  0
   -0.5528   -0.8491    1.2196 C   0  0  0  0  0  0  0  0  0  0  0  0
    0.0798   -1.1009    2.4906 N   0  0  0  0  0  0  0  0  0  0  0  0
   -0.0273   -2.4141    3.1383 C   0  0  0  0  0  0  0  0  0  0  0  0
    1.3503   -2.8611    3.6141 C   0  0  0  0  0  0  0  0  0  0  0  0
    1.9945   -1.7975    4.4618 C   0  0  0  0  0  0  0  0  0  0  0  0
    2.9703   -2.1618    5.4045 C   0  0  0  0  0  0  0  0  0  0  0  0
    3.6042   -1.1865    6.1769 C   0  0  0  0  0  0  0  0  0  0  0  0
    3.2766    0.1602    6.0093 C   0  0  0  0  0  0  0  0  0  0  0  0
    2.3218    0.5373    5.0612 C   0  0  0  0  0  0  0  0  0  0  0  0
    1.6811   -0.4318    4.2727 C   0  0  0  0  0  0  0  0  0  0  0  0
    0.6704    0.0189    3.2410 C   0  0  0  0  0  0  0  0  0  0  0  0
   -0.7857    0.4260    0.8109 N   0  0  0  0  0  0  0  0  0  0  0  0
   -1.3568    0.6758   -0.3972 C   0  0  0  0  0  0  0  0  0  0  0  0
   -1.6093    2.0337   -0.8144 N   0  0  0  0  0  0  0  0  0  0  0  0
   -2.0754    2.3016   -2.1845 C   0  0  0  0  0  0  0  0  0  0  0  0
   -1.5777    3.6601   -2.6710 C   0  0  0  0  0  0  0  0  0  0  0  0
   -1.9710    4.7320   -1.6994 C   0  0  0  0  0  0  0  0  0  0  0  0
   -2.2920    6.0216   -2.1559 C   0  0  0  0  0  0  0  0  0  0  0  0
   -2.6243    7.0276   -1.2453 C   0  0  0  0  0  0  0  0  0  0  0  0
   -2.6231    6.7583    0.1251 C   0  0  0  0  0  0  0  0  0  0  0  0
   -2.2914    5.4820    0.5885 C   0  0  0  0  0  0  0  0  0  0  0  0
   -1.9701    4.4585   -0.3182 C   0  0  0  0  0  0  0  0  0  0  0  0
   -1.5855    3.0963    0.2092 C   0  0  0  0  0  0  0  0  0  0  0  0
   -1.6943   -0.3675   -1.2001 N   0  0  0  0  0  0  0  0  0  0  0  0
   -1.8307   -4.1136   -1.1143 C   0  0  0  0  0  0  0  0  0  0  0  0
   -2.1864   -5.1252   -2.2012 C   0  0  0  0  0  0  0  0  0  0  0  0
   -1.4313   -4.8419   -3.3573 O   0  0  0  0  0  0  0  0  0  0  0  0
    0.9639   -1.2835   -5.5202 H   0  0  0  0  0  0  0  0  0  0  0  0
    1.4947   -2.8651   -6.2246 H   0  0  0  0  0  0  0  0  0  0  0  0
    2.3709   -2.1672   -4.8091 H   0  0  0  0  0  0  0  0  0  0  0  0
    0.3738   -2.4371   -3.3895 H   0  0  0  0  0  0  0  0  0  0  0  0
    0.8739   -4.0205   -4.0997 H   0  0  0  0  0  0  0  0  0  0  0  0
   -0.8072   -3.8727   -5.7214 H   0  0  0  0  0  0  0  0  0  0  0  0
   -2.8044   -3.9320   -4.5913 H   0  0  0  0  0  0  0  0  0  0  0  0
   -1.9774   -1.5377   -3.4167 H   0  0  0  0  0  0  0  0  0  0  0  0
   -3.4361   -2.4668   -2.9783 H   0  0  0  0  0  0  0  0  0  0  0  0
   -0.7187   -2.3382    4.0067 H   0  0  0  0  0  0  0  0  0  0  0  0
   -0.4329   -3.1870    2.4508 H   0  0  0  0  0  0  0  0  0  0  0  0
    1.9988   -3.0634    2.7337 H   0  0  0  0  0  0  0  0  0  0  0  0
    1.2400   -3.8041    4.1935 H   0  0  0  0  0  0  0  0  0  0  0  0
    3.2390   -3.2023    5.5410 H   0  0  0  0  0  0  0  0  0  0  0  0
    4.3508   -1.4754    6.9057 H   0  0  0  0  0  0  0  0  0  0  0  0
    3.7664    0.9135    6.6121 H   0  0  0  0  0  0  0  0  0  0  0  0
    2.0843    1.5870    4.9367 H   0  0  0  0  0  0  0  0  0  0  0  0
   -0.1418    0.5881    3.7419 H   0  0  0  0  0  0  0  0  0  0  0  0
    1.1927    0.7009    2.5367 H   0  0  0  0  0  0  0  0  0  0  0  0
   -1.6952    1.5301   -2.8893 H   0  0  0  0  0  0  0  0  0  0  0  0
   -3.1867    2.2740   -2.2044 H   0  0  0  0  0  0  0  0  0  0  0  0
   -0.4700    3.6433   -2.7615 H   0  0  0  0  0  0  0  0  0  0  0  0
   -2.0093    3.8620   -3.6762 H   0  0  0  0  0  0  0  0  0  0  0  0
   -2.2816    6.2475   -3.2147 H   0  0  0  0  0  0  0  0  0  0  0  0
   -2.8746    8.0183   -1.6015 H   0  0  0  0  0  0  0  0  0  0  0  0
   -2.8736    7.5408    0.8293 H   0  0  0  0  0  0  0  0  0  0  0  0
   -2.2828    5.2905    1.6552 H   0  0  0  0  0  0  0  0  0  0  0  0
   -2.2885    2.8209    1.0258 H   0  0  0  0  0  0  0  0  0  0  0  0
   -0.5639    3.1664    0.6376 H   0  0  0  0  0  0  0  0  0  0  0  0
   -0.8188   -4.3572   -0.7204 H   0  0  0  0  0  0  0  0  0  0  0  0
   -2.5663   -4.1827   -0.2831 H   0  0  0  0  0  0  0  0  0  0  0  0
   -3.2813   -5.1122   -2.4150 H   0  0  0  0  0  0  0  0  0  0  0  0
   -1.9303   -6.1462   -1.8450 H   0  0  0  0  0  0  0  0  0  0  0  0
  1  2  1  0
  2  3  1  0
  3  4  1  0
  4  5  1  0
  5  6  1  0
  6  7  1  0
  7  8  2  0
  8  9  1  0
  9 10  1  0
 10 11  1  0
 11 12  1  0
 12 13  1  0
 13 14  2  0
 14 15  1  0
 15 16  2  0
 16 17  1  0
 17 18  2  0
 18 19  1  0
  9 20  2  0
 20 21  1  0
 21 22  1  0
 22 23  1  0
 23 24  1  0
 24 25  1  0
 25 26  2  0
 26 27  1  0
 27 28  2  0
 28 29  1  0
 29 30  2  0
 30 31  1  0
 21 32  2  0
  6 33  1  0
 33 34  1  0
 34 35  1  0
 35  4  1  0
 32  7  1  0
 19 10  1  0
 31 22  1  0
 18 13  1  0
 30 25  1  0
  1 36  1  0
  1 37  1  0
  1 38  1  0
  2 39  1  0
  2 40  1  0
  3 41  1  0
  4 42  1  6
  5 43  1  0
  5 44  1  0
 11 45  1  0
 11 46  1  0
 12 47  1  0
 12 48  1  0
 14 49  1  0
 15 50  1  0
 16 51  1  0
 17 52  1  0
 19 53  1  0
 19 54  1  0
 23 55  1  0
 23 56  1  0
 24 57  1  0
 24 58  1  0
 26 59  1  0
 27 60  1  0
 28 61  1  0
 29 62  1  0
 31 63  1  0
 31 64  1  0
 33 65  1  0
 33 66  1  0
 34 67  1  0
 34 68  1  0
M  END
>  <UniqueID>  (3) 
29

>  <SMILES>  (3) 
CCN[C@@H]1CN(c2nc(N3CCc4ccccc4C3)nc(N3CCc4ccccc4C3)n2)CCO1

>  <Energy>  (3) 
82.96105155701242

>  <Genealogy>  (3) 
CCN[C@@H]1CN(c2nc(N3CCc4ccccc4C3)nc(N3CCc4ccccc4C3)n2)CCO1 (chirality)
CCN[C@@H]1CN(c2nc(N3CCc4ccccc4C3)nc(N3CCc4ccccc4C3)n2)CCO1 (3D coordinates assigned)
CCN[C@@H]1CN(c2nc(N3CCc4ccccc4C3)nc(N3CCc4ccccc4C3)n2)CCO1 (nonaromatic ring conformer: 82.96105155701242 kcal/mol)

$$$$
untitled_line_9
     RDKit          3D

 68 73  0  0  0  0  0  0  0  0999 V2000
    6.3705   -1.4925    1.8848 C   0  0  0  0  0  0  0  0  0  0  0  0
    6.8564   -1.3766    0.4418 C   0  0  0  0  0  0  0  0  0  0  0  0
    5.7446   -1.4476   -0.5239 N   0  0  0  0  0  0  0  0  0  0  0  0
    4.8468   -0.2710   -0.5627 C   0  0  1  0  0  0  0  0  0  0  0  0
    3.5320   -0.6064    0.1576 C   0  0  0  0  0  0  0  0  0  0  0  0
    2.6724    0.5830    0.2308 N   0  0  0  0  0  0  0  0  0  0  0  0
    1.2412    0.4317    0.3491 C   0  0  0  0  0  0  0  0  0  0  0  0
    0.4547    1.5061    0.6209 N   0  0  0  0  0  0  0  0  0  0  0  0
   -0.8946    1.3772    0.7170 C   0  0  0  0  0  0  0  0  0  0  0  0
   -1.7242    2.5296    0.9779 N   0  0  0  0  0  0  0  0  0  0  0  0
   -1.1280    3.8322    1.3021 C   0  0  0  0  0  0  0  0  0  0  0  0
   -1.7986    4.9202    0.4715 C   0  0  0  0  0  0  0  0  0  0  0  0
   -3.2951    4.8594    0.6091 C   0  0  0  0  0  0  0  0  0  0  0  0
   -4.0581    6.0127    0.3628 C   0  0  0  0  0  0  0  0  0  0  0  0
   -5.4512    5.9682    0.4460 C   0  0  0  0  0  0  0  0  0  0  0  0
   -6.0955    4.7715    0.7619 C   0  0  0  0  0  0  0  0  0  0  0  0
   -5.3483    3.6134    0.9917 C   0  0  0  0  0  0  0  0  0  0  0  0
   -3.9475    3.6407    0.9040 C   0  0  0  0  0  0  0  0  0  0  0  0
   -3.1769    2.3614    1.1489 C   0  0  0  0  0  0  0  0  0  0  0  0
   -1.4567    0.1530    0.5331 N   0  0  0  0  0  0  0  0  0  0  0  0
   -0.6854   -0.9308    0.2569 C   0  0  0  0  0  0  0  0  0  0  0  0
   -1.2902   -2.2187    0.0333 N   0  0  0  0  0  0  0  0  0  0  0  0
   -2.6794   -2.4447    0.4753 C   0  0  0  0  0  0  0  0  0  0  0  0
   -3.0030   -3.9351    0.6115 C   0  0  0  0  0  0  0  0  0  0  0  0
   -2.5981   -4.6671   -0.6324 C   0  0  0  0  0  0  0  0  0  0  0  0
   -3.3865   -5.7061   -1.1519 C   0  0  0  0  0  0  0  0  0  0  0  0
   -2.9763   -6.3917   -2.2995 C   0  0  0  0  0  0  0  0  0  0  0  0
   -1.7723   -6.0555   -2.9227 C   0  0  0  0  0  0  0  0  0  0  0  0
   -0.9715   -5.0363   -2.3966 C   0  0  0  0  0  0  0  0  0  0  0  0
   -1.3859   -4.3307   -1.2551 C   0  0  0  0  0  0  0  0  0  0  0  0
   -0.5071   -3.2630   -0.6540 C   0  0  0  0  0  0  0  0  0  0  0  0
    0.6615   -0.7827    0.1655 N   0  0  0  0  0  0  0  0  0  0  0  0
    3.3035    1.8723    0.5450 C   0  0  0  0  0  0  0  0  0  0  0  0
    4.6331    2.0117   -0.2007 C   0  0  0  0  0  0  0  0  0  0  0  0
    5.4530    0.8796    0.0075 O   0  0  0  0  0  0  0  0  0  0  0  0
    5.8355   -0.5709    2.1925 H   0  0  0  0  0  0  0  0  0  0  0  0
    5.6983   -2.3695    1.9949 H   0  0  0  0  0  0  0  0  0  0  0  0
    7.2433   -1.6259    2.5587 H   0  0  0  0  0  0  0  0  0  0  0  0
    7.5394   -2.2340    0.2505 H   0  0  0  0  0  0  0  0  0  0  0  0
    7.4604   -0.4532    0.3019 H   0  0  0  0  0  0  0  0  0  0  0  0
    6.1766   -1.5585   -1.4725 H   0  0  0  0  0  0  0  0  0  0  0  0
    4.5935   -0.0717   -1.6331 H   0  0  0  0  0  0  0  0  0  0  0  0
    3.7275   -0.9682    1.1869 H   0  0  0  0  0  0  0  0  0  0  0  0
    3.0292   -1.4223   -0.4050 H   0  0  0  0  0  0  0  0  0  0  0  0
   -1.2702    4.0411    2.3849 H   0  0  0  0  0  0  0  0  0  0  0  0
   -0.0383    3.8569    1.0918 H   0  0  0  0  0  0  0  0  0  0  0  0
   -1.5325    4.7850   -0.5992 H   0  0  0  0  0  0  0  0  0  0  0  0
   -1.4192    5.9110    0.8043 H   0  0  0  0  0  0  0  0  0  0  0  0
   -3.5730    6.9469    0.1066 H   0  0  0  0  0  0  0  0  0  0  0  0
   -6.0347    6.8622    0.2602 H   0  0  0  0  0  0  0  0  0  0  0  0
   -7.1759    4.7411    0.8258 H   0  0  0  0  0  0  0  0  0  0  0  0
   -5.8638    2.6919    1.2313 H   0  0  0  0  0  0  0  0  0  0  0  0
   -3.3791    2.0055    2.1829 H   0  0  0  0  0  0  0  0  0  0  0  0
   -3.5566    1.5983    0.4342 H   0  0  0  0  0  0  0  0  0  0  0  0
   -2.8428   -1.9692    1.4671 H   0  0  0  0  0  0  0  0  0  0  0  0
   -3.3754   -1.9750   -0.2537 H   0  0  0  0  0  0  0  0  0  0  0  0
   -4.0905   -4.0529    0.8077 H   0  0  0  0  0  0  0  0  0  0  0  0
   -2.4452   -4.3588    1.4734 H   0  0  0  0  0  0  0  0  0  0  0  0
   -4.3161   -5.9838   -0.6713 H   0  0  0  0  0  0  0  0  0  0  0  0
   -3.5910   -7.1860   -2.7047 H   0  0  0  0  0  0  0  0  0  0  0  0
   -1.4541   -6.5906   -3.8085 H   0  0  0  0  0  0  0  0  0  0  0  0
   -0.0328   -4.7959   -2.8804 H   0  0  0  0  0  0  0  0  0  0  0  0
    0.1924   -3.7317    0.0700 H   0  0  0  0  0  0  0  0  0  0  0  0
    0.0939   -2.7974   -1.4665 H   0  0  0  0  0  0  0  0  0  0  0  0
    2.6483    2.7189    0.2427 H   0  0  0  0  0  0  0  0  0  0  0  0
    3.4819    1.9336    1.6412 H   0  0  0  0  0  0  0  0  0  0  0  0
    5.1645    2.9054    0.1879 H   0  0  0  0  0  0  0  0  0  0  0  0
    4.4551    2.1870   -1.2863 H   0  0  0  0  0  0  0  0  0  0  0  0
  1  2  1  0
  2  3  1  0
  3  4  1  0
  4  5  1  0
  5  6  1  0
  6  7  1  0
  7  8  2  0
  8  9  1  0
  9 10  1  0
 10 11  1  0
 11 12  1  0
 12 13  1  0
 13 14  2  0
 14 15  1  0
 15 16  2  0
 16 17  1  0
 17 18  2  0
 18 19  1  0
  9 20  2  0
 20 21  1  0
 21 22  1  0
 22 23  1  0
 23 24  1  0
 24 25  1  0
 25 26  2  0
 26 27  1  0
 27 28  2  0
 28 29  1  0
 29 30  2  0
 30 31  1  0
 21 32  2  0
  6 33  1  0
 33 34  1  0
 34 35  1  0
 35  4  1  0
 32  7  1  0
 19 10  1  0
 31 22  1  0
 18 13  1  0
 30 25  1  0
  1 36  1  0
  1 37  1  0
  1 38  1  0
  2 39  1  0
  2 40  1  0
  3 41  1  0
  4 42  1  6
  5 43  1  0
  5 44  1  0
 11 45  1  0
 11 46  1  0
 12 47  1  0
 12 48  1  0
 14 49  1  0
 15 50  1  0
 16 51  1  0
 17 52  1  0
 19 53  1  0
 19 54  1  0
 23 55  1  0
 23 56  1  0
 24 57  1  0
 24 58  1  0
 26 59  1  0
 27 60  1  0
 28 61  1  0
 29 62  1  0
 31 63  1  0
 31 64  1  0
 33 65  1  0
 33 66  1  0
 34 67  1  0
 34 68  1  0
M  END
>  <UniqueID>  (4) 
30

>  <SMILES>  (4) 
CCN[C@H]1CN(c2nc(N3CCc4ccccc4C3)nc(N3CCc4ccccc4C3)n2)CCO1

>  <Energy>  (4) 
83.76172112502525

>  <Genealogy>  (4) 
CCN[C@H]1CN(c2nc(N3CCc4ccccc4C3)nc(N3CCc4ccccc4C3)n2)CCO1 (chirality)
CCN[C@H]1CN(c2nc(N3CCc4ccccc4C3)nc(N3CCc4ccccc4C3)n2)CCO1 (3D coordinates assigned)
CCN[C@H]1CN(c2nc(N3CCc4ccccc4C3)nc(N3CCc4ccccc4C3)n2)CCO1 (nonaromatic ring conformer: 83.76172112502525 kcal/mol)

$$$$
