untitled_line_2
     RDKit          3D

 48 52  0  0  0  0  0  0  0  0999 V2000
   -3.4489   -0.9704    2.1948 O   0  0  0  0  0  0  0  0  0  0  0  0
   -2.7675   -0.3501    1.0079 S   0  0  0  0  0  0  0  0  0  0  0  0
   -3.0881    1.1189    0.9979 O   0  0  0  0  0  0  0  0  0  0  0  0
   -3.4564   -1.1058   -0.4720 C   0  0  0  0  0  0  0  0  0  0  0  0
   -2.7592   -0.6572   -1.7266 C   0  0  0  0  0  0  0  0  0  0  0  0
   -1.8861   -1.5247   -2.4047 C   0  0  0  0  0  0  0  0  0  0  0  0
   -1.2089   -1.0911   -3.5481 C   0  0  0  0  0  0  0  0  0  0  0  0
   -1.4040    0.2066   -4.0278 C   0  0  0  0  0  0  0  0  0  0  0  0
   -2.2860    1.0692   -3.3714 C   0  0  0  0  0  0  0  0  0  0  0  0
   -2.9677    0.6386   -2.2291 C   0  0  0  0  0  0  0  0  0  0  0  0
   -1.0380   -0.5571    1.2024 N   0  0  0  0  0  0  0  0  0  0  0  0
   -0.6098   -1.9611    1.0113 C   0  0  0  0  0  0  0  0  0  0  0  0
    0.4318   -1.9183   -0.0358 C   0  0  0  0  0  0  0  0  0  0  0  0
    1.1217   -2.9899   -0.6061 C   0  0  0  0  0  0  0  0  0  0  0  0
    2.0418   -2.7237   -1.6329 C   0  0  0  0  0  0  0  0  0  0  0  0
    2.2493   -1.4022   -2.0716 C   0  0  0  0  0  0  0  0  0  0  0  0
    1.5389   -0.3444   -1.4826 C   0  0  0  0  0  0  0  0  0  0  0  0
    0.6380   -0.6369   -0.4546 C   0  0  0  0  0  0  0  0  0  0  0  0
   -0.2556    0.2931    0.2731 C   0  0  2  0  0  0  0  0  0  0  0  0
    0.5510    1.2969    1.0476 C   0  0  0  0  0  0  0  0  0  0  0  0
    1.2066    1.0897    2.2599 C   0  0  0  0  0  0  0  0  0  0  0  0
    1.9043    2.1925    2.6146 N   0  0  0  0  0  0  0  0  0  0  0  0
    1.7090    3.0882    1.6316 C   0  0  0  0  0  0  0  0  0  0  0  0
    2.2481    4.3706    1.5389 C   0  0  0  0  0  0  0  0  0  0  0  0
    1.9320    5.1364    0.4019 C   0  0  0  0  0  0  0  0  0  0  0  0
    1.0978    4.6076   -0.6078 C   0  0  0  0  0  0  0  0  0  0  0  0
    0.5698    3.3093   -0.4891 C   0  0  0  0  0  0  0  0  0  0  0  0
    0.8948    2.5762    0.6536 C   0  0  0  0  0  0  0  0  0  0  0  0
   -4.5301   -0.8288   -0.5370 H   0  0  0  0  0  0  0  0  0  0  0  0
   -3.4227   -2.2109   -0.3742 H   0  0  0  0  0  0  0  0  0  0  0  0
   -1.7172   -2.5303   -2.0407 H   0  0  0  0  0  0  0  0  0  0  0  0
   -0.5260   -1.7589   -4.0571 H   0  0  0  0  0  0  0  0  0  0  0  0
   -0.8740    0.5427   -4.9095 H   0  0  0  0  0  0  0  0  0  0  0  0
   -2.4392    2.0730   -3.7460 H   0  0  0  0  0  0  0  0  0  0  0  0
   -3.6442    1.3188   -1.7271 H   0  0  0  0  0  0  0  0  0  0  0  0
   -0.1696   -2.3409    1.9570 H   0  0  0  0  0  0  0  0  0  0  0  0
   -1.4338   -2.6351    0.7009 H   0  0  0  0  0  0  0  0  0  0  0  0
    0.9442   -4.0039   -0.2723 H   0  0  0  0  0  0  0  0  0  0  0  0
    2.5869   -3.5373   -2.0933 H   0  0  0  0  0  0  0  0  0  0  0  0
    2.9522   -1.2018   -2.8696 H   0  0  0  0  0  0  0  0  0  0  0  0
    1.6797    0.6727   -1.8242 H   0  0  0  0  0  0  0  0  0  0  0  0
   -0.8985    0.8225   -0.4563 H   0  0  0  0  0  0  0  0  0  0  0  0
    1.1856    0.1770    2.8411 H   0  0  0  0  0  0  0  0  0  0  0  0
    2.4902    2.3126    3.4705 H   0  0  0  0  0  0  0  0  0  0  0  0
    2.8927    4.7643    2.3141 H   0  0  0  0  0  0  0  0  0  0  0  0
    2.3341    6.1358    0.2986 H   0  0  0  0  0  0  0  0  0  0  0  0
    0.8651    5.2042   -1.4802 H   0  0  0  0  0  0  0  0  0  0  0  0
   -0.0643    2.8990   -1.2641 H   0  0  0  0  0  0  0  0  0  0  0  0
  1  2  2  0
  2  3  2  0
  2  4  1  0
  4  5  1  0
  5  6  2  0
  6  7  1  0
  7  8  2  0
  8  9  1  0
  9 10  2  0
  2 11  1  0
 11 12  1  0
 12 13  1  0
 13 14  2  0
 14 15  1  0
 15 16  2  0
 16 17  1  0
 17 18  2  0
 18 19  1  0
 19 20  1  0
 20 21  2  0
 21 22  1  0
 22 23  1  0
 23 24  2  0
 24 25  1  0
 25 26  2  0
 26 27  1  0
 27 28  2  0
 10  5  1  0
 19 11  1  0
 28 20  1  0
 18 13  1  0
 28 23  1  0
  4 29  1  0
  4 30  1  0
  6 31  1  0
  7 32  1  0
  8 33  1  0
  9 34  1  0
 10 35  1  0
 12 36  1  0
 12 37  1  0
 14 38  1  0
 15 39  1  0
 16 40  1  0
 17 41  1  0
 19 42  1  6
 21 43  1  0
 22 44  1  0
 24 45  1  0
 25 46  1  0
 26 47  1  0
 27 48  1  0
M  END
>  <UniqueID>  (1) 
5

>  <SMILES>  (1) 
O=S(=O)(Cc1ccccc1)N1Cc2ccccc2[C@@H]1c1c[nH]c2ccccc12

>  <Energy>  (1) 
89.09305187937288

>  <Genealogy>  (1) 
O=S(=O)(Cc1ccccc1)N1Cc2ccccc2[C@@H]1c1c[nH]c2ccccc12 (chirality)
O=S(=O)(Cc1ccccc1)N1Cc2ccccc2[C@@H]1c1c[nH]c2ccccc12 (3D coordinates assigned)
O=S(=O)(Cc1ccccc1)N1Cc2ccccc2[C@@H]1c1c[nH]c2ccccc12 (nonaromatic ring conformer: 89.09305187937288 kcal/mol)

$$$$
untitled_line_2
     RDKit          3D

 48 52  0  0  0  0  0  0  0  0999 V2000
    3.6990   -1.1400   -0.7959 O   0  0  0  0  0  0  0  0  0  0  0  0
    2.9334    0.1071   -0.4549 S   0  0  0  0  0  0  0  0  0  0  0  0
    3.3093    1.1743   -1.4452 O   0  0  0  0  0  0  0  0  0  0  0  0
    3.4528    0.6327    1.1855 C   0  0  0  0  0  0  0  0  0  0  0  0
    2.6209    1.7669    1.7175 C   0  0  0  0  0  0  0  0  0  0  0  0
    2.8028    3.0700    1.2242 C   0  0  0  0  0  0  0  0  0  0  0  0
    2.0046    4.1183    1.6925 C   0  0  0  0  0  0  0  0  0  0  0  0
    1.0272    3.8758    2.6615 C   0  0  0  0  0  0  0  0  0  0  0  0
    0.8528    2.5867    3.1710 C   0  0  0  0  0  0  0  0  0  0  0  0
    1.6498    1.5362    2.7068 C   0  0  0  0  0  0  0  0  0  0  0  0
    1.2233   -0.2443   -0.6123 N   0  0  0  0  0  0  0  0  0  0  0  0
    0.3945    0.9820   -0.6532 C   0  0  0  0  0  0  0  0  0  0  0  0
   -0.6455    0.7909    0.3787 C   0  0  0  0  0  0  0  0  0  0  0  0
   -1.6682    1.6693    0.7406 C   0  0  0  0  0  0  0  0  0  0  0  0
   -2.5319    1.2976    1.7833 C   0  0  0  0  0  0  0  0  0  0  0  0
   -2.3550    0.0667    2.4434 C   0  0  0  0  0  0  0  0  0  0  0  0
   -1.3148   -0.7954    2.0612 C   0  0  0  0  0  0  0  0  0  0  0  0
   -0.4788   -0.4067    1.0111 C   0  0  0  0  0  0  0  0  0  0  0  0
    0.7159   -1.1057    0.4808 C   0  0  1  0  0  0  0  0  0  0  0  0
    0.3749   -2.4705   -0.0524 C   0  0  0  0  0  0  0  0  0  0  0  0
    0.9890   -3.6624    0.3221 C   0  0  0  0  0  0  0  0  0  0  0  0
    0.4684   -4.7025   -0.3665 N   0  0  0  0  0  0  0  0  0  0  0  0
   -0.4666   -4.1805   -1.1780 C   0  0  0  0  0  0  0  0  0  0  0  0
   -1.2713   -4.8679   -2.0857 C   0  0  0  0  0  0  0  0  0  0  0  0
   -2.1892   -4.1227   -2.8469 C   0  0  0  0  0  0  0  0  0  0  0  0
   -2.2808   -2.7231   -2.6865 C   0  0  0  0  0  0  0  0  0  0  0  0
   -1.4557   -2.0554   -1.7637 C   0  0  0  0  0  0  0  0  0  0  0  0
   -0.5539   -2.8197   -1.0201 C   0  0  0  0  0  0  0  0  0  0  0  0
    3.4295   -0.2342    1.8786 H   0  0  0  0  0  0  0  0  0  0  0  0
    4.5136    0.9572    1.1276 H   0  0  0  0  0  0  0  0  0  0  0  0
    3.5517    3.2699    0.4680 H   0  0  0  0  0  0  0  0  0  0  0  0
    2.1414    5.1181    1.3014 H   0  0  0  0  0  0  0  0  0  0  0  0
    0.4069    4.6873    3.0194 H   0  0  0  0  0  0  0  0  0  0  0  0
    0.0962    2.3996    3.9220 H   0  0  0  0  0  0  0  0  0  0  0  0
    1.4998    0.5431    3.1106 H   0  0  0  0  0  0  0  0  0  0  0  0
   -0.0807    1.0711   -1.6522 H   0  0  0  0  0  0  0  0  0  0  0  0
    0.9669    1.9078   -0.4469 H   0  0  0  0  0  0  0  0  0  0  0  0
   -1.7872    2.6193    0.2362 H   0  0  0  0  0  0  0  0  0  0  0  0
   -3.3307    1.9623    2.0850 H   0  0  0  0  0  0  0  0  0  0  0  0
   -3.0173   -0.2125    3.2523 H   0  0  0  0  0  0  0  0  0  0  0  0
   -1.1604   -1.7364    2.5730 H   0  0  0  0  0  0  0  0  0  0  0  0
    1.4453   -1.2141    1.3087 H   0  0  0  0  0  0  0  0  0  0  0  0
    1.7781   -3.7609    1.0563 H   0  0  0  0  0  0  0  0  0  0  0  0
    0.7440   -5.7064   -0.2848 H   0  0  0  0  0  0  0  0  0  0  0  0
   -1.1928   -5.9410   -2.2024 H   0  0  0  0  0  0  0  0  0  0  0  0
   -2.8290   -4.6255   -3.5604 H   0  0  0  0  0  0  0  0  0  0  0  0
   -2.9910   -2.1597   -3.2775 H   0  0  0  0  0  0  0  0  0  0  0  0
   -1.5292   -0.9853   -1.6417 H   0  0  0  0  0  0  0  0  0  0  0  0
  1  2  2  0
  2  3  2  0
  2  4  1  0
  4  5  1  0
  5  6  2  0
  6  7  1  0
  7  8  2  0
  8  9  1  0
  9 10  2  0
  2 11  1  0
 11 12  1  0
 12 13  1  0
 13 14  2  0
 14 15  1  0
 15 16  2  0
 16 17  1  0
 17 18  2  0
 18 19  1  0
 19 20  1  0
 20 21  2  0
 21 22  1  0
 22 23  1  0
 23 24  2  0
 24 25  1  0
 25 26  2  0
 26 27  1  0
 27 28  2  0
 10  5  1  0
 19 11  1  0
 28 20  1  0
 18 13  1  0
 28 23  1  0
  4 29  1  0
  4 30  1  0
  6 31  1  0
  7 32  1  0
  8 33  1  0
  9 34  1  0
 10 35  1  0
 12 36  1  0
 12 37  1  0
 14 38  1  0
 15 39  1  0
 16 40  1  0
 17 41  1  0
 19 42  1  1
 21 43  1  0
 22 44  1  0
 24 45  1  0
 25 46  1  0
 26 47  1  0
 27 48  1  0
M  END
>  <UniqueID>  (2) 
6

>  <SMILES>  (2) 
O=S(=O)(Cc1ccccc1)N1Cc2ccccc2[C@H]1c1c[nH]c2ccccc12

>  <Energy>  (2) 
89.87433613576562

>  <Genealogy>  (2) 
O=S(=O)(Cc1ccccc1)N1Cc2ccccc2[C@H]1c1c[nH]c2ccccc12 (chirality)
O=S(=O)(Cc1ccccc1)N1Cc2ccccc2[C@H]1c1c[nH]c2ccccc12 (3D coordinates assigned)
O=S(=O)(Cc1ccccc1)N1Cc2ccccc2[C@H]1c1c[nH]c2ccccc12 (nonaromatic ring conformer: 89.87433613576562 kcal/mol)

$$$$
untitled_line_2
     RDKit          3D

 48 52  0  0  0  0  0  0  0  0999 V2000
   -2.5014    1.5291    1.1382 O   0  0  0  0  0  0  0  0  0  0  0  0
   -2.4409    0.5310    0.0152 S   0  0  0  0  0  0  0  0  0  0  0  0
   -3.0254    1.1591   -1.2203 O   0  0  0  0  0  0  0  0  0  0  0  0
   -3.4152   -0.8885    0.5031 C   0  0  0  0  0  0  0  0  0  0  0  0
   -3.4609   -1.9312   -0.5788 C   0  0  0  0  0  0  0  0  0  0  0  0
   -4.2937   -1.7553   -1.6967 C   0  0  0  0  0  0  0  0  0  0  0  0
   -4.3147   -2.7111   -2.7169 C   0  0  0  0  0  0  0  0  0  0  0  0
   -3.5073   -3.8483   -2.6281 C   0  0  0  0  0  0  0  0  0  0  0  0
   -2.6791   -4.0327   -1.5178 C   0  0  0  0  0  0  0  0  0  0  0  0
   -2.6555   -3.0797   -0.4949 C   0  0  0  0  0  0  0  0  0  0  0  0
   -0.7725    0.0800   -0.2626 N   0  0  0  0  0  0  0  0  0  0  0  0
   -0.5947   -0.6555   -1.5369 C   0  0  0  0  0  0  0  0  0  0  0  0
    0.5134    0.0224   -2.2378 C   0  0  0  0  0  0  0  0  0  0  0  0
    1.1025   -0.3267   -3.4547 C   0  0  0  0  0  0  0  0  0  0  0  0
    2.1336    0.4839   -3.9564 C   0  0  0  0  0  0  0  0  0  0  0  0
    2.5472    1.6243   -3.2418 C   0  0  0  0  0  0  0  0  0  0  0  0
    1.9320    1.9539   -2.0234 C   0  0  0  0  0  0  0  0  0  0  0  0
    0.9188    1.1199   -1.5402 C   0  0  0  0  0  0  0  0  0  0  0  0
    0.1055    1.2753   -0.3117 C   0  0  2  0  0  0  0  0  0  0  0  0
    0.9859    1.3138    0.9064 C   0  0  0  0  0  0  0  0  0  0  0  0
    1.5984    0.2272    1.5281 C   0  0  0  0  0  0  0  0  0  0  0  0
    2.3814    0.6452    2.5482 N   0  0  0  0  0  0  0  0  0  0  0  0
    2.2816    1.9854    2.5681 C   0  0  0  0  0  0  0  0  0  0  0  0
    2.9291    2.8668    3.4328 C   0  0  0  0  0  0  0  0  0  0  0  0
    2.6998    4.2440    3.2611 C   0  0  0  0  0  0  0  0  0  0  0  0
    1.8421    4.7045    2.2378 C   0  0  0  0  0  0  0  0  0  0  0  0
    1.2037    3.7922    1.3781 C   0  0  0  0  0  0  0  0  0  0  0  0
    1.4446    2.4318    1.5771 C   0  0  0  0  0  0  0  0  0  0  0  0
   -2.9855   -1.3102    1.4368 H   0  0  0  0  0  0  0  0  0  0  0  0
   -4.4473   -0.5508    0.7369 H   0  0  0  0  0  0  0  0  0  0  0  0
   -4.9215   -0.8768   -1.7793 H   0  0  0  0  0  0  0  0  0  0  0  0
   -4.9556   -2.5693   -3.5774 H   0  0  0  0  0  0  0  0  0  0  0  0
   -3.5232   -4.5863   -3.4197 H   0  0  0  0  0  0  0  0  0  0  0  0
   -2.0525   -4.9126   -1.4512 H   0  0  0  0  0  0  0  0  0  0  0  0
   -2.0009   -3.2309    0.3544 H   0  0  0  0  0  0  0  0  0  0  0  0
   -0.3081   -1.7055   -1.3208 H   0  0  0  0  0  0  0  0  0  0  0  0
   -1.4978   -0.6380   -2.1834 H   0  0  0  0  0  0  0  0  0  0  0  0
    0.7698   -1.1996   -4.0014 H   0  0  0  0  0  0  0  0  0  0  0  0
    2.6071    0.2346   -4.8970 H   0  0  0  0  0  0  0  0  0  0  0  0
    3.3374    2.2508   -3.6344 H   0  0  0  0  0  0  0  0  0  0  0  0
    2.2368    2.8340   -1.4721 H   0  0  0  0  0  0  0  0  0  0  0  0
   -0.4756    2.2196   -0.4006 H   0  0  0  0  0  0  0  0  0  0  0  0
    1.4868   -0.8101    1.2399 H   0  0  0  0  0  0  0  0  0  0  0  0
    2.9587    0.0458    3.1790 H   0  0  0  0  0  0  0  0  0  0  0  0
    3.5903    2.5048    4.2094 H   0  0  0  0  0  0  0  0  0  0  0  0
    3.1871    4.9554    3.9151 H   0  0  0  0  0  0  0  0  0  0  0  0
    1.6766    5.7666    2.1124 H   0  0  0  0  0  0  0  0  0  0  0  0
    0.5511    4.1419    0.5894 H   0  0  0  0  0  0  0  0  0  0  0  0
  1  2  2  0
  2  3  2  0
  2  4  1  0
  4  5  1  0
  5  6  2  0
  6  7  1  0
  7  8  2  0
  8  9  1  0
  9 10  2  0
  2 11  1  0
 11 12  1  0
 12 13  1  0
 13 14  2  0
 14 15  1  0
 15 16  2  0
 16 17  1  0
 17 18  2  0
 18 19  1  0
 19 20  1  0
 20 21  2  0
 21 22  1  0
 22 23  1  0
 23 24  2  0
 24 25  1  0
 25 26  2  0
 26 27  1  0
 27 28  2  0
 10  5  1  0
 19 11  1  0
 28 20  1  0
 18 13  1  0
 28 23  1  0
  4 29  1  0
  4 30  1  0
  6 31  1  0
  7 32  1  0
  8 33  1  0
  9 34  1  0
 10 35  1  0
 12 36  1  0
 12 37  1  0
 14 38  1  0
 15 39  1  0
 16 40  1  0
 17 41  1  0
 19 42  1  6
 21 43  1  0
 22 44  1  0
 24 45  1  0
 25 46  1  0
 26 47  1  0
 27 48  1  0
M  END
>  <UniqueID>  (3) 
7

>  <SMILES>  (3) 
O=S(=O)(Cc1ccccc1)N1Cc2ccccc2[C@@H]1c1c[nH]c2ccccc12

>  <Energy>  (3) 
91.12442301868877

>  <Genealogy>  (3) 
O=S(=O)(Cc1ccccc1)N1Cc2ccccc2[C@@H]1c1c[nH]c2ccccc12 (chirality)
O=S(=O)(Cc1ccccc1)N1Cc2ccccc2[C@@H]1c1c[nH]c2ccccc12 (3D coordinates assigned)
O=S(=O)(Cc1ccccc1)N1Cc2ccccc2[C@@H]1c1c[nH]c2ccccc12 (nonaromatic ring conformer: 91.12442301868877 kcal/mol)

$$$$
untitled_line_2
     RDKit          3D

 48 52  0  0  0  0  0  0  0  0999 V2000
    2.2286   -0.2519    0.0326 O   0  0  0  0  0  0  0  0  0  0  0  0
    1.3165    0.7054    0.7485 S   0  0  0  0  0  0  0  0  0  0  0  0
    1.5336    0.5803    2.2315 O   0  0  0  0  0  0  0  0  0  0  0  0
    1.6889    2.3694    0.2191 C   0  0  0  0  0  0  0  0  0  0  0  0
    3.0971    2.7373    0.5927 C   0  0  0  0  0  0  0  0  0  0  0  0
    3.3623    3.3741    1.8168 C   0  0  0  0  0  0  0  0  0  0  0  0
    4.6759    3.6925    2.1742 C   0  0  0  0  0  0  0  0  0  0  0  0
    5.7329    3.3691    1.3182 C   0  0  0  0  0  0  0  0  0  0  0  0
    5.4781    2.7229    0.1052 C   0  0  0  0  0  0  0  0  0  0  0  0
    4.1659    2.4048   -0.2571 C   0  0  0  0  0  0  0  0  0  0  0  0
   -0.3418    0.3314    0.3502 N   0  0  0  0  0  0  0  0  0  0  0  0
   -1.2898    1.1687    1.1206 C   0  0  0  0  0  0  0  0  0  0  0  0
   -2.2676    0.2267    1.7020 C   0  0  0  0  0  0  0  0  0  0  0  0
   -3.4019    0.5223    2.4610 C   0  0  0  0  0  0  0  0  0  0  0  0
   -4.1808   -0.5418    2.9433 C   0  0  0  0  0  0  0  0  0  0  0  0
   -3.8094   -1.8714    2.6674 C   0  0  0  0  0  0  0  0  0  0  0  0
   -2.6598   -2.1389    1.9067 C   0  0  0  0  0  0  0  0  0  0  0  0
   -1.9113   -1.0598    1.4278 C   0  0  0  0  0  0  0  0  0  0  0  0
   -0.6588   -1.0879    0.6360 C   0  0  1  0  0  0  0  0  0  0  0  0
   -0.8557   -1.8240   -0.6599 C   0  0  0  0  0  0  0  0  0  0  0  0
   -1.8035   -1.5368   -1.6410 C   0  0  0  0  0  0  0  0  0  0  0  0
   -1.6513   -2.3613   -2.7014 N   0  0  0  0  0  0  0  0  0  0  0  0
   -0.6132   -3.1613   -2.4042 C   0  0  0  0  0  0  0  0  0  0  0  0
   -0.0628   -4.1609   -3.2058 C   0  0  0  0  0  0  0  0  0  0  0  0
    1.0484   -4.8657   -2.7096 C   0  0  0  0  0  0  0  0  0  0  0  0
    1.5796   -4.5596   -1.4374 C   0  0  0  0  0  0  0  0  0  0  0  0
    1.0042   -3.5437   -0.6503 C   0  0  0  0  0  0  0  0  0  0  0  0
   -0.0974   -2.8620   -1.1681 C   0  0  0  0  0  0  0  0  0  0  0  0
    0.9692    3.0739    0.6865 H   0  0  0  0  0  0  0  0  0  0  0  0
    1.5538    2.4356   -0.8814 H   0  0  0  0  0  0  0  0  0  0  0  0
    2.5531    3.6226    2.4930 H   0  0  0  0  0  0  0  0  0  0  0  0
    4.8749    4.1875    3.1163 H   0  0  0  0  0  0  0  0  0  0  0  0
    6.7496    3.6154    1.5965 H   0  0  0  0  0  0  0  0  0  0  0  0
    6.2978    2.4661   -0.5531 H   0  0  0  0  0  0  0  0  0  0  0  0
    3.9821    1.8982   -1.1968 H   0  0  0  0  0  0  0  0  0  0  0  0
   -0.8015    1.7390    1.9407 H   0  0  0  0  0  0  0  0  0  0  0  0
   -1.8038    1.8724    0.4335 H   0  0  0  0  0  0  0  0  0  0  0  0
   -3.6732    1.5476    2.6763 H   0  0  0  0  0  0  0  0  0  0  0  0
   -5.0654   -0.3394    3.5331 H   0  0  0  0  0  0  0  0  0  0  0  0
   -4.4085   -2.6891    3.0458 H   0  0  0  0  0  0  0  0  0  0  0  0
   -2.3616   -3.1575    1.6955 H   0  0  0  0  0  0  0  0  0  0  0  0
    0.1227   -1.5805    1.2546 H   0  0  0  0  0  0  0  0  0  0  0  0
   -2.5514   -0.7571   -1.5853 H   0  0  0  0  0  0  0  0  0  0  0  0
   -2.2148   -2.3585   -3.5806 H   0  0  0  0  0  0  0  0  0  0  0  0
   -0.4727   -4.3848   -4.1816 H   0  0  0  0  0  0  0  0  0  0  0  0
    1.5010   -5.6452   -3.3083 H   0  0  0  0  0  0  0  0  0  0  0  0
    2.4376   -5.1051   -1.0680 H   0  0  0  0  0  0  0  0  0  0  0  0
    1.4144   -3.3047    0.3214 H   0  0  0  0  0  0  0  0  0  0  0  0
  1  2  2  0
  2  3  2  0
  2  4  1  0
  4  5  1  0
  5  6  2  0
  6  7  1  0
  7  8  2  0
  8  9  1  0
  9 10  2  0
  2 11  1  0
 11 12  1  0
 12 13  1  0
 13 14  2  0
 14 15  1  0
 15 16  2  0
 16 17  1  0
 17 18  2  0
 18 19  1  0
 19 20  1  0
 20 21  2  0
 21 22  1  0
 22 23  1  0
 23 24  2  0
 24 25  1  0
 25 26  2  0
 26 27  1  0
 27 28  2  0
 10  5  1  0
 19 11  1  0
 28 20  1  0
 18 13  1  0
 28 23  1  0
  4 29  1  0
  4 30  1  0
  6 31  1  0
  7 32  1  0
  8 33  1  0
  9 34  1  0
 10 35  1  0
 12 36  1  0
 12 37  1  0
 14 38  1  0
 15 39  1  0
 16 40  1  0
 17 41  1  0
 19 42  1  1
 21 43  1  0
 22 44  1  0
 24 45  1  0
 25 46  1  0
 26 47  1  0
 27 48  1  0
M  END
>  <UniqueID>  (4) 
8

>  <SMILES>  (4) 
O=S(=O)(Cc1ccccc1)N1Cc2ccccc2[C@H]1c1c[nH]c2ccccc12

>  <Energy>  (4) 
91.36373575336341

>  <Genealogy>  (4) 
O=S(=O)(Cc1ccccc1)N1Cc2ccccc2[C@H]1c1c[nH]c2ccccc12 (chirality)
O=S(=O)(Cc1ccccc1)N1Cc2ccccc2[C@H]1c1c[nH]c2ccccc12 (3D coordinates assigned)
O=S(=O)(Cc1ccccc1)N1Cc2ccccc2[C@H]1c1c[nH]c2ccccc12 (nonaromatic ring conformer: 91.36373575336341 kcal/mol)

$$$$
