untitled_line_5
     RDKit          3D

 41 42  0  0  0  0  0  0  0  0999 V2000
   -1.4884    2.6840    1.8836 H   0  0  0  0  0  0  0  0  0  0  0  0
   -0.9218    2.3503    1.0232 C   0  0  0  0  0  0  0  0  0  0  0  0
    0.3712    2.2759    1.1328 N   0  0  0  0  0  0  0  0  0  0  0  0
    1.1914    1.7587    0.1202 N   0  0  0  0  0  0  0  0  0  0  0  0
    2.5912    1.5799    0.3211 C   0  0  0  0  0  0  0  0  0  0  0  0
    3.1062    1.8184    1.4463 O   0  0  0  0  0  0  0  0  0  0  0  0
    3.4441    1.0742   -0.8003 C   0  0  0  0  0  0  0  0  0  0  0  0
    4.4219    1.6012   -0.7643 H   0  0  0  0  0  0  0  0  0  0  0  0
    2.9752    1.3236   -1.7766 H   0  0  0  0  0  0  0  0  0  0  0  0
    3.6938   -0.4377   -0.6990 C   0  0  0  0  0  0  0  0  0  0  0  0
    4.5123   -0.6935   -1.4067 H   0  0  0  0  0  0  0  0  0  0  0  0
    4.0575   -0.6929    0.3194 H   0  0  0  0  0  0  0  0  0  0  0  0
    2.4656   -1.2841   -1.0820 C   0  0  0  0  0  0  0  0  0  0  0  0
    2.0282   -0.8777   -2.0182 H   0  0  0  0  0  0  0  0  0  0  0  0
    2.7524   -2.3240   -1.3263 H   0  0  0  0  0  0  0  0  0  0  0  0
    1.4515   -1.2673   -0.0754 O   0  0  0  0  0  0  0  0  0  0  0  0
    1.5612   -1.6477    1.2769 C   0  0  0  0  0  0  0  0  0  0  0  0
    0.6300   -1.0748    2.1552 C   0  0  0  0  0  0  0  0  0  0  0  0
   -0.1293   -0.4056    1.7713 H   0  0  0  0  0  0  0  0  0  0  0  0
    0.6714   -1.3411    3.5242 C   0  0  0  0  0  0  0  0  0  0  0  0
   -0.0497   -0.8751    4.1837 H   0  0  0  0  0  0  0  0  0  0  0  0
    1.6383   -2.2045    4.0379 C   0  0  0  0  0  0  0  0  0  0  0  0
    1.6907   -2.5400    5.7593 Cl  0  0  0  0  0  0  0  0  0  0  0  0
    2.5493   -2.8195    3.1768 C   0  0  0  0  0  0  0  0  0  0  0  0
    3.2752   -3.5152    3.5795 H   0  0  0  0  0  0  0  0  0  0  0  0
    2.5176   -2.5633    1.7982 C   0  0  0  0  0  0  0  0  0  0  0  0
    3.6312   -3.4997    0.8106 Cl  0  0  0  0  0  0  0  0  0  0  0  0
   -1.6676    1.8771   -0.1648 C   0  0  0  0  0  0  0  0  0  0  0  0
   -1.2384    2.1683   -1.4706 C   0  0  0  0  0  0  0  0  0  0  0  0
   -0.3518    2.7634   -1.6447 H   0  0  0  0  0  0  0  0  0  0  0  0
   -1.9795    1.7285   -2.5697 C   0  0  0  0  0  0  0  0  0  0  0  0
   -1.6477    1.9645   -3.5721 H   0  0  0  0  0  0  0  0  0  0  0  0
   -3.1570    1.0019   -2.3798 C   0  0  0  0  0  0  0  0  0  0  0  0
   -3.7227    0.6871   -3.2479 H   0  0  0  0  0  0  0  0  0  0  0  0
   -3.6029    0.7000   -1.0814 C   0  0  0  0  0  0  0  0  0  0  0  0
   -4.9028   -0.0342   -0.8668 C   0  0  0  0  0  0  0  0  0  0  0  0
   -4.8271   -0.8320    0.2626 F   0  0  0  0  0  0  0  0  0  0  0  0
   -5.9226    0.8850   -0.7020 F   0  0  0  0  0  0  0  0  0  0  0  0
   -5.1969   -0.8449   -1.9500 F   0  0  0  0  0  0  0  0  0  0  0  0
   -2.8661    1.1704    0.0207 C   0  0  0  0  0  0  0  0  0  0  0  0
   -3.2180    0.9756    1.0267 H   0  0  0  0  0  0  0  0  0  0  0  0
  1  2  1  0
  2  3  2  0
  3  4  1  0
  4  5  1  0
  5  6  2  0
  5  7  1  0
  7  8  1  0
  7  9  1  0
  7 10  1  0
 10 11  1  0
 10 12  1  0
 10 13  1  0
 13 14  1  0
 13 15  1  0
 13 16  1  0
 16 17  1  0
 17 18  2  0
 18 19  1  0
 18 20  1  0
 20 21  1  0
 20 22  2  0
 22 23  1  0
 22 24  1  0
 24 25  1  0
 24 26  2  0
 26 27  1  0
  2 28  1  0
 28 29  2  0
 29 30  1  0
 29 31  1  0
 31 32  1  0
 31 33  2  0
 33 34  1  0
 33 35  1  0
 35 36  1  0
 36 37  1  0
 36 38  1  0
 36 39  1  0
 35 40  2  0
 40 41  1  0
 26 17  1  0
 40 28  1  0
M  CHG  1   4  -1
M  END
>  <UniqueID>  (1) 
17

>  <SMILES>  (1) 
O=C(CCCOc1ccc(Cl)cc1Cl)[N-]/N=C\c1cccc(C(F)(F)F)c1

>  <Energy>  (1) 
46.28136611163701

>  <Genealogy>  (1) 
O=C(CCCOc1ccc(Cl)cc1Cl)[N-]N=Cc1cccc(C(F)(F)F)c1 (protonated)
O=C(CCCOc1ccc(Cl)cc1Cl)[N-]/N=C\c1cccc(C(F)(F)F)c1 (cis-trans isomerization)
O=C(CCCOc1ccc(Cl)cc1Cl)[N-]/N=C\c1cccc(C(F)(F)F)c1 (3D coordinates assigned)
O=C(CCCOc1ccc(Cl)cc1Cl)[N-]/N=C\c1cccc(C(F)(F)F)c1 (optimized conformer: 46.28136611163701 kcal/mol)

$$$$
untitled_line_5
     RDKit          3D

 41 42  0  0  0  0  0  0  0  0999 V2000
   -2.1414   -0.2995   -3.8715 H   0  0  0  0  0  0  0  0  0  0  0  0
   -1.3185   -0.0046   -3.3600 O   0  0  0  0  0  0  0  0  0  0  0  0
   -1.3730    0.2131   -1.9856 C   0  0  0  0  0  0  0  0  0  0  0  0
   -2.6193    0.0177   -1.3058 N   0  0  0  0  0  0  0  0  0  0  0  0
   -2.7556    0.1884    0.0787 N   0  0  0  0  0  0  0  0  0  0  0  0
   -3.8959   -0.0004    0.6615 C   0  0  0  0  0  0  0  0  0  0  0  0
   -4.7569   -0.2945    0.0712 H   0  0  0  0  0  0  0  0  0  0  0  0
   -4.0440    0.1741    2.1206 C   0  0  0  0  0  0  0  0  0  0  0  0
   -5.2957   -0.0433    2.7152 C   0  0  0  0  0  0  0  0  0  0  0  0
   -6.1465   -0.3390    2.1133 H   0  0  0  0  0  0  0  0  0  0  0  0
   -5.4633    0.1292    4.0905 C   0  0  0  0  0  0  0  0  0  0  0  0
   -6.4357   -0.0285    4.5393 H   0  0  0  0  0  0  0  0  0  0  0  0
   -4.3826    0.5117    4.8880 C   0  0  0  0  0  0  0  0  0  0  0  0
   -4.5405    0.6558    5.9494 H   0  0  0  0  0  0  0  0  0  0  0  0
   -3.1130    0.7079    4.3182 C   0  0  0  0  0  0  0  0  0  0  0  0
   -1.9551    1.1679    5.1685 C   0  0  0  0  0  0  0  0  0  0  0  0
   -1.9087    2.5493    5.1647 F   0  0  0  0  0  0  0  0  0  0  0  0
   -2.0957    0.7253    6.4725 F   0  0  0  0  0  0  0  0  0  0  0  0
   -0.7609    0.6749    4.6718 F   0  0  0  0  0  0  0  0  0  0  0  0
   -2.9569    0.5590    2.9282 C   0  0  0  0  0  0  0  0  0  0  0  0
   -1.9895    0.7457    2.4778 H   0  0  0  0  0  0  0  0  0  0  0  0
   -0.2728    0.6021   -1.3238 C   0  0  0  0  0  0  0  0  0  0  0  0
   -0.3217    0.8006   -0.2604 H   0  0  0  0  0  0  0  0  0  0  0  0
    1.0535    0.8055   -2.0040 C   0  0  0  0  0  0  0  0  0  0  0  0
    1.7210    1.3790   -1.3249 H   0  0  0  0  0  0  0  0  0  0  0  0
    0.9198    1.4078   -2.9288 H   0  0  0  0  0  0  0  0  0  0  0  0
    1.7249   -0.5264   -2.3408 C   0  0  0  0  0  0  0  0  0  0  0  0
    1.0743   -1.1034   -3.0319 H   0  0  0  0  0  0  0  0  0  0  0  0
    2.6989   -0.3075   -2.8268 H   0  0  0  0  0  0  0  0  0  0  0  0
    1.9445   -1.2668   -1.1442 O   0  0  0  0  0  0  0  0  0  0  0  0
    2.4051   -2.5916   -1.0286 C   0  0  0  0  0  0  0  0  0  0  0  0
    2.3507   -3.1491    0.2572 C   0  0  0  0  0  0  0  0  0  0  0  0
    1.9729   -2.5588    1.0828 H   0  0  0  0  0  0  0  0  0  0  0  0
    2.7675   -4.4596    0.4939 C   0  0  0  0  0  0  0  0  0  0  0  0
    2.7115   -4.8686    1.4948 H   0  0  0  0  0  0  0  0  0  0  0  0
    3.2529   -5.2374   -0.5560 C   0  0  0  0  0  0  0  0  0  0  0  0
    3.7779   -6.8846   -0.2587 Cl  0  0  0  0  0  0  0  0  0  0  0  0
    3.3252   -4.7014   -1.8431 C   0  0  0  0  0  0  0  0  0  0  0  0
    3.7118   -5.3107   -2.6508 H   0  0  0  0  0  0  0  0  0  0  0  0
    2.9107   -3.3859   -2.0972 C   0  0  0  0  0  0  0  0  0  0  0  0
    3.0975   -2.8255   -3.7553 Cl  0  0  0  0  0  0  0  0  0  0  0  0
  1  2  1  0
  2  3  1  0
  3  4  1  0
  4  5  1  0
  5  6  2  0
  6  7  1  0
  6  8  1  0
  8  9  2  0
  9 10  1  0
  9 11  1  0
 11 12  1  0
 11 13  2  0
 13 14  1  0
 13 15  1  0
 15 16  1  0
 16 17  1  0
 16 18  1  0
 16 19  1  0
 15 20  2  0
 20 21  1  0
  3 22  2  0
 22 23  1  0
 22 24  1  0
 24 25  1  0
 24 26  1  0
 24 27  1  0
 27 28  1  0
 27 29  1  0
 27 30  1  0
 30 31  1  0
 31 32  2  0
 32 33  1  0
 32 34  1  0
 34 35  1  0
 34 36  2  0
 36 37  1  0
 36 38  1  0
 38 39  1  0
 38 40  2  0
 40 41  1  0
 20  8  1  0
 40 31  1  0
M  CHG  1   4  -1
M  END
>  <UniqueID>  (2) 
18

>  <SMILES>  (2) 
O/C(=C\CCOc1ccc(Cl)cc1Cl)[N-]/N=C/c1cccc(C(F)(F)F)c1

>  <Energy>  (2) 
40.80557231806637

>  <Genealogy>  (2) 
O=C(CCCOc1ccc(Cl)cc1Cl)[N-]N=Cc1cccc(C(F)(F)F)c1 (protonated)
OC(=CCCOc1ccc(Cl)cc1Cl)[N-]N=Cc1cccc(C(F)(F)F)c1 (tautomer)
O/C(=C\CCOc1ccc(Cl)cc1Cl)[N-]/N=C/c1cccc(C(F)(F)F)c1 (cis-trans isomerization)
O/C(=C\CCOc1ccc(Cl)cc1Cl)[N-]/N=C/c1cccc(C(F)(F)F)c1 (3D coordinates assigned)
O/C(=C\CCOc1ccc(Cl)cc1Cl)[N-]/N=C/c1cccc(C(F)(F)F)c1 (optimized conformer: 40.80557231806637 kcal/mol)

$$$$
untitled_line_5
     RDKit          3D

 41 42  0  0  0  0  0  0  0  0999 V2000
    1.8706   -0.1591   -0.3519 H   0  0  0  0  0  0  0  0  0  0  0  0
    2.0440   -0.0331   -1.4124 C   0  0  0  0  0  0  0  0  0  0  0  0
    2.2929   -1.0631   -2.1647 N   0  0  0  0  0  0  0  0  0  0  0  0
    2.4068   -2.3787   -1.6749 N   0  0  0  0  0  0  0  0  0  0  0  0
    2.7540   -2.7189   -0.3266 C   0  0  0  0  0  0  0  0  0  0  0  0
    3.4283   -1.9226    0.3805 O   0  0  0  0  0  0  0  0  0  0  0  0
    2.3482   -4.0473    0.2382 C   0  0  0  0  0  0  0  0  0  0  0  0
    2.7590   -4.1592    1.2659 H   0  0  0  0  0  0  0  0  0  0  0  0
    2.7908   -4.8521   -0.3868 H   0  0  0  0  0  0  0  0  0  0  0  0
    0.8214   -4.2293    0.2849 C   0  0  0  0  0  0  0  0  0  0  0  0
    0.6090   -5.1865    0.8091 H   0  0  0  0  0  0  0  0  0  0  0  0
    0.4209   -4.3278   -0.7481 H   0  0  0  0  0  0  0  0  0  0  0  0
    0.0966   -3.0930    1.0222 C   0  0  0  0  0  0  0  0  0  0  0  0
    0.7560   -2.6731    1.8124 H   0  0  0  0  0  0  0  0  0  0  0  0
   -0.8222   -3.4932    1.5028 H   0  0  0  0  0  0  0  0  0  0  0  0
   -0.2788   -2.0812    0.0884 O   0  0  0  0  0  0  0  0  0  0  0  0
   -0.8657   -0.8509    0.4241 C   0  0  0  0  0  0  0  0  0  0  0  0
   -0.9763   -0.4107    1.7577 C   0  0  0  0  0  0  0  0  0  0  0  0
   -0.6351   -1.0227    2.5805 H   0  0  0  0  0  0  0  0  0  0  0  0
   -1.5224    0.8440    2.0432 C   0  0  0  0  0  0  0  0  0  0  0  0
   -1.5931    1.1767    3.0710 H   0  0  0  0  0  0  0  0  0  0  0  0
   -1.9708    1.6673    1.0071 C   0  0  0  0  0  0  0  0  0  0  0  0
   -2.6458    3.2451    1.3692 Cl  0  0  0  0  0  0  0  0  0  0  0  0
   -1.8853    1.2299   -0.3173 C   0  0  0  0  0  0  0  0  0  0  0  0
   -2.2390    1.8658   -1.1192 H   0  0  0  0  0  0  0  0  0  0  0  0
   -1.3402   -0.0253   -0.6097 C   0  0  0  0  0  0  0  0  0  0  0  0
   -1.2664   -0.5571   -2.2831 Cl  0  0  0  0  0  0  0  0  0  0  0  0
    1.8594    1.3099   -1.9947 C   0  0  0  0  0  0  0  0  0  0  0  0
    2.1363    1.5666   -3.3481 C   0  0  0  0  0  0  0  0  0  0  0  0
    2.5206    0.7869   -3.9936 H   0  0  0  0  0  0  0  0  0  0  0  0
    1.9065    2.8353   -3.8839 C   0  0  0  0  0  0  0  0  0  0  0  0
    2.1108    3.0240   -4.9300 H   0  0  0  0  0  0  0  0  0  0  0  0
    1.4004    3.8579   -3.0784 C   0  0  0  0  0  0  0  0  0  0  0  0
    1.2082    4.8282   -3.5193 H   0  0  0  0  0  0  0  0  0  0  0  0
    1.1378    3.6276   -1.7178 C   0  0  0  0  0  0  0  0  0  0  0  0
    0.5281    4.7179   -0.8729 C   0  0  0  0  0  0  0  0  0  0  0  0
   -0.8371    4.7482   -1.0872 F   0  0  0  0  0  0  0  0  0  0  0  0
    1.0656    5.9469   -1.2136 F   0  0  0  0  0  0  0  0  0  0  0  0
    0.7677    4.4984    0.4728 F   0  0  0  0  0  0  0  0  0  0  0  0
    1.3583    2.3441   -1.1872 C   0  0  0  0  0  0  0  0  0  0  0  0
    1.1207    2.1407   -0.1496 H   0  0  0  0  0  0  0  0  0  0  0  0
  1  2  1  0
  2  3  2  0
  3  4  1  0
  4  5  1  0
  5  6  2  0
  5  7  1  0
  7  8  1  0
  7  9  1  0
  7 10  1  0
 10 11  1  0
 10 12  1  0
 10 13  1  0
 13 14  1  0
 13 15  1  0
 13 16  1  0
 16 17  1  0
 17 18  2  0
 18 19  1  0
 18 20  1  0
 20 21  1  0
 20 22  2  0
 22 23  1  0
 22 24  1  0
 24 25  1  0
 24 26  2  0
 26 27  1  0
  2 28  1  0
 28 29  2  0
 29 30  1  0
 29 31  1  0
 31 32  1  0
 31 33  2  0
 33 34  1  0
 33 35  1  0
 35 36  1  0
 36 37  1  0
 36 38  1  0
 36 39  1  0
 35 40  2  0
 40 41  1  0
 26 17  1  0
 40 28  1  0
M  CHG  1   4  -1
M  END
>  <UniqueID>  (3) 
19

>  <SMILES>  (3) 
O=C(CCCOc1ccc(Cl)cc1Cl)[N-]/N=C/c1cccc(C(F)(F)F)c1

>  <Energy>  (3) 
38.22036920150122

>  <Genealogy>  (3) 
O=C(CCCOc1ccc(Cl)cc1Cl)[N-]N=Cc1cccc(C(F)(F)F)c1 (protonated)
O=C(CCCOc1ccc(Cl)cc1Cl)[N-]/N=C/c1cccc(C(F)(F)F)c1 (cis-trans isomerization)
O=C(CCCOc1ccc(Cl)cc1Cl)[N-]/N=C/c1cccc(C(F)(F)F)c1 (3D coordinates assigned)
O=C(CCCOc1ccc(Cl)cc1Cl)[N-]/N=C/c1cccc(C(F)(F)F)c1 (optimized conformer: 38.22036920150122 kcal/mol)

$$$$
untitled_line_5
     RDKit          3D

 41 42  0  0  0  0  0  0  0  0999 V2000
   -2.6581   -2.7875   -0.9352 H   0  0  0  0  0  0  0  0  0  0  0  0
   -1.6529   -2.9169   -0.9447 O   0  0  0  0  0  0  0  0  0  0  0  0
   -0.7935   -1.8276   -0.8221 C   0  0  0  0  0  0  0  0  0  0  0  0
   -1.3556   -0.5200   -0.6532 N   0  0  0  0  0  0  0  0  0  0  0  0
   -0.5642    0.6195   -0.4425 N   0  0  0  0  0  0  0  0  0  0  0  0
   -1.0557    1.8061   -0.2438 C   0  0  0  0  0  0  0  0  0  0  0  0
   -0.3635    2.6361   -0.1760 H   0  0  0  0  0  0  0  0  0  0  0  0
   -2.5060    2.1050   -0.1809 C   0  0  0  0  0  0  0  0  0  0  0  0
   -2.9656    3.3213   -0.7073 C   0  0  0  0  0  0  0  0  0  0  0  0
   -2.2767    4.0049   -1.1911 H   0  0  0  0  0  0  0  0  0  0  0  0
   -4.3158    3.6647   -0.6202 C   0  0  0  0  0  0  0  0  0  0  0  0
   -4.6598    4.6073   -1.0269 H   0  0  0  0  0  0  0  0  0  0  0  0
   -5.2222    2.8017   -0.0008 C   0  0  0  0  0  0  0  0  0  0  0  0
   -6.2612    3.0975    0.0672 H   0  0  0  0  0  0  0  0  0  0  0  0
   -4.7857    1.5752    0.5305 C   0  0  0  0  0  0  0  0  0  0  0  0
   -5.7438    0.6602    1.2520 C   0  0  0  0  0  0  0  0  0  0  0  0
   -5.6474    0.8821    2.6133 F   0  0  0  0  0  0  0  0  0  0  0  0
   -7.0492    0.8875    0.8509 F   0  0  0  0  0  0  0  0  0  0  0  0
   -5.4336   -0.6629    0.9858 F   0  0  0  0  0  0  0  0  0  0  0  0
   -3.4187    1.2503    0.4674 C   0  0  0  0  0  0  0  0  0  0  0  0
   -3.0691    0.3489    0.9542 H   0  0  0  0  0  0  0  0  0  0  0  0
    0.5340   -2.0150   -0.8592 C   0  0  0  0  0  0  0  0  0  0  0  0
    1.1876   -1.1598   -0.7870 H   0  0  0  0  0  0  0  0  0  0  0  0
    1.1328   -3.3873   -0.9994 C   0  0  0  0  0  0  0  0  0  0  0  0
    0.9013   -3.9804   -0.0882 H   0  0  0  0  0  0  0  0  0  0  0  0
    0.6718   -3.8991   -1.8719 H   0  0  0  0  0  0  0  0  0  0  0  0
    2.6508   -3.3607   -1.2107 C   0  0  0  0  0  0  0  0  0  0  0  0
    2.9799   -4.4088   -1.3724 H   0  0  0  0  0  0  0  0  0  0  0  0
    2.9242   -2.8164   -2.1360 H   0  0  0  0  0  0  0  0  0  0  0  0
    3.3291   -2.8715   -0.0495 O   0  0  0  0  0  0  0  0  0  0  0  0
    3.8213   -1.5684    0.1570 C   0  0  0  0  0  0  0  0  0  0  0  0
    3.8105   -0.5718   -0.8444 C   0  0  0  0  0  0  0  0  0  0  0  0
    3.4094   -0.7556   -1.8297 H   0  0  0  0  0  0  0  0  0  0  0  0
    4.3136    0.7048   -0.5779 C   0  0  0  0  0  0  0  0  0  0  0  0
    4.2948    1.4609   -1.3526 H   0  0  0  0  0  0  0  0  0  0  0  0
    4.8390    1.0056    0.6809 C   0  0  0  0  0  0  0  0  0  0  0  0
    5.4694    2.6100    1.0099 Cl  0  0  0  0  0  0  0  0  0  0  0  0
    4.8609    0.0265    1.6774 C   0  0  0  0  0  0  0  0  0  0  0  0
    5.2683    0.2595    2.6534 H   0  0  0  0  0  0  0  0  0  0  0  0
    4.3577   -1.2530    1.4185 C   0  0  0  0  0  0  0  0  0  0  0  0
    4.3985   -2.4622    2.6945 Cl  0  0  0  0  0  0  0  0  0  0  0  0
  1  2  1  0
  2  3  1  0
  3  4  1  0
  4  5  1  0
  5  6  2  0
  6  7  1  0
  6  8  1  0
  8  9  2  0
  9 10  1  0
  9 11  1  0
 11 12  1  0
 11 13  2  0
 13 14  1  0
 13 15  1  0
 15 16  1  0
 16 17  1  0
 16 18  1  0
 16 19  1  0
 15 20  2  0
 20 21  1  0
  3 22  2  0
 22 23  1  0
 22 24  1  0
 24 25  1  0
 24 26  1  0
 24 27  1  0
 27 28  1  0
 27 29  1  0
 27 30  1  0
 30 31  1  0
 31 32  2  0
 32 33  1  0
 32 34  1  0
 34 35  1  0
 34 36  2  0
 36 37  1  0
 36 38  1  0
 38 39  1  0
 38 40  2  0
 40 41  1  0
 20  8  1  0
 40 31  1  0
M  CHG  1   4  -1
M  END
>  <UniqueID>  (4) 
20

>  <SMILES>  (4) 
O/C(=C\CCOc1ccc(Cl)cc1Cl)[N-]/N=C\c1cccc(C(F)(F)F)c1

>  <Energy>  (4) 
44.9124208992887

>  <Genealogy>  (4) 
O=C(CCCOc1ccc(Cl)cc1Cl)[N-]N=Cc1cccc(C(F)(F)F)c1 (protonated)
OC(=CCCOc1ccc(Cl)cc1Cl)[N-]N=Cc1cccc(C(F)(F)F)c1 (tautomer)
O/C(=C\CCOc1ccc(Cl)cc1Cl)[N-]/N=C\c1cccc(C(F)(F)F)c1 (cis-trans isomerization)
O/C(=C\CCOc1ccc(Cl)cc1Cl)[N-]/N=C\c1cccc(C(F)(F)F)c1 (3D coordinates assigned)
O/C(=C\CCOc1ccc(Cl)cc1Cl)[N-]/N=C\c1cccc(C(F)(F)F)c1 (optimized conformer: 44.9124208992887 kcal/mol)

$$$$
