untitled_line_13
     RDKit          3D

 63 66  0  0  0  0  0  0  0  0999 V2000
    1.6030    3.4789    4.0860 H   0  0  0  0  0  0  0  0  0  0  0  0
    1.8259    3.4240    3.1004 O   0  0  0  0  0  0  0  0  0  0  0  0
    1.4112    2.3885    2.2473 C   0  0  0  0  0  0  0  0  0  0  0  0
    0.6767    1.3845    2.6997 N   0  0  0  0  0  0  0  0  0  0  0  0
    0.3855    1.3108    4.1097 C   0  0  0  0  0  0  0  0  0  0  0  0
    1.2215    0.5824    4.9708 C   0  0  0  0  0  0  0  0  0  0  0  0
    2.0945    0.0739    4.5825 H   0  0  0  0  0  0  0  0  0  0  0  0
    0.9356    0.5176    6.3381 C   0  0  0  0  0  0  0  0  0  0  0  0
    1.5808   -0.0463    7.0000 H   0  0  0  0  0  0  0  0  0  0  0  0
   -0.1790    1.1868    6.8530 C   0  0  0  0  0  0  0  0  0  0  0  0
   -0.3977    1.1373    7.9120 H   0  0  0  0  0  0  0  0  0  0  0  0
   -1.0091    1.9226    6.0015 C   0  0  0  0  0  0  0  0  0  0  0  0
   -1.8694    2.4436    6.4012 H   0  0  0  0  0  0  0  0  0  0  0  0
   -0.7279    1.9873    4.6333 C   0  0  0  0  0  0  0  0  0  0  0  0
   -1.3735    2.5586    3.9773 H   0  0  0  0  0  0  0  0  0  0  0  0
    0.2409    0.2596    1.8252 C   0  0  0  0  0  0  0  0  0  0  0  0
    0.1638    0.6068    0.7720 H   0  0  0  0  0  0  0  0  0  0  0  0
   -1.1773   -0.2696    2.1576 C   0  0  0  0  0  0  0  0  0  0  0  0
   -1.9263    0.4363    1.7356 H   0  0  0  0  0  0  0  0  0  0  0  0
   -1.3544   -0.3085    3.2509 H   0  0  0  0  0  0  0  0  0  0  0  0
   -1.4423   -1.6939    1.6159 C   0  0  0  0  0  0  0  0  0  0  0  0
   -2.4908   -1.7350    1.2488 H   0  0  0  0  0  0  0  0  0  0  0  0
   -1.3546   -2.4266    2.4472 H   0  0  0  0  0  0  0  0  0  0  0  0
   -0.5004   -2.0890    0.5527 N   0  0  0  0  0  0  0  0  0  0  0  0
   -0.9749   -2.9207   -0.5291 C   0  0  0  0  0  0  0  0  0  0  0  0
   -2.0229   -3.6051   -0.3698 O   0  0  0  0  0  0  0  0  0  0  0  0
   -0.2787   -2.9319   -1.8800 C   0  0  2  0  0  0  0  0  0  0  0  0
    0.8108   -3.0603   -1.6975 H   0  0  0  0  0  0  0  0  0  0  0  0
   -0.4852   -1.5628   -2.6008 C   0  0  0  0  0  0  0  0  0  0  0  0
   -0.1546   -0.7545   -1.9097 H   0  0  0  0  0  0  0  0  0  0  0  0
   -1.9596   -1.2840   -2.9998 C   0  0  0  0  0  0  0  0  0  0  0  0
   -2.2503   -0.2533   -2.7009 H   0  0  0  0  0  0  0  0  0  0  0  0
   -2.6852   -2.0013   -2.5640 H   0  0  0  0  0  0  0  0  0  0  0  0
   -1.9450   -1.3715   -4.4779 C   0  0  0  0  0  0  0  0  0  0  0  0
   -3.0524   -1.3364   -5.3283 C   0  0  0  0  0  0  0  0  0  0  0  0
   -4.0547   -1.2565   -4.9276 H   0  0  0  0  0  0  0  0  0  0  0  0
   -2.8410   -1.4053   -6.7137 C   0  0  0  0  0  0  0  0  0  0  0  0
   -3.6857   -1.3814   -7.3901 H   0  0  0  0  0  0  0  0  0  0  0  0
   -1.5339   -1.5004   -7.2251 C   0  0  0  0  0  0  0  0  0  0  0  0
   -1.3751   -1.5487   -8.2942 H   0  0  0  0  0  0  0  0  0  0  0  0
   -0.4349   -1.5255   -6.3525 C   0  0  0  0  0  0  0  0  0  0  0  0
    0.5739   -1.5903   -6.7398 H   0  0  0  0  0  0  0  0  0  0  0  0
   -0.6689   -1.4629   -4.9767 C   0  0  0  0  0  0  0  0  0  0  0  0
    0.3512   -1.4447   -3.9016 C   0  0  0  0  0  0  0  0  0  0  0  0
    0.8864   -0.4700   -3.9273 H   0  0  0  0  0  0  0  0  0  0  0  0
    1.0904   -2.2644   -4.0312 H   0  0  0  0  0  0  0  0  0  0  0  0
   -0.7172   -4.0788   -2.6981 N   0  0  0  0  0  0  0  0  0  0  0  0
   -0.5318   -4.9677   -2.1781 H   0  0  0  0  0  0  0  0  0  0  0  0
   -0.1784   -4.1225   -3.5915 H   0  0  0  0  0  0  0  0  0  0  0  0
   -1.7362   -4.0304   -2.9222 H   0  0  0  0  0  0  0  0  0  0  0  0
    0.9489   -1.8660    0.7232 C   0  0  0  0  0  0  0  0  0  0  0  0
    1.3706   -1.4202   -0.2025 H   0  0  0  0  0  0  0  0  0  0  0  0
    1.4598   -2.8358    0.9080 H   0  0  0  0  0  0  0  0  0  0  0  0
    1.2485   -0.8962    1.8714 C   0  0  0  0  0  0  0  0  0  0  0  0
    2.2876   -0.5156    1.7714 H   0  0  0  0  0  0  0  0  0  0  0  0
    1.1728   -1.4335    2.8420 H   0  0  0  0  0  0  0  0  0  0  0  0
    1.8312    2.4898    0.7914 C   0  0  0  0  0  0  0  0  0  0  0  0
    0.9363    2.7022    0.1676 H   0  0  0  0  0  0  0  0  0  0  0  0
    2.2840    1.5311    0.4598 H   0  0  0  0  0  0  0  0  0  0  0  0
    2.8601    3.5931    0.5453 C   0  0  0  0  0  0  0  0  0  0  0  0
    2.4290    4.5875    0.7887 H   0  0  0  0  0  0  0  0  0  0  0  0
    3.1574    3.5921   -0.5244 H   0  0  0  0  0  0  0  0  0  0  0  0
    3.7667    3.4191    1.1637 H   0  0  0  0  0  0  0  0  0  0  0  0
  1  2  1  0
  2  3  1  0
  3  4  2  0
  4  5  1  0
  5  6  2  0
  6  7  1  0
  6  8  1  0
  8  9  1  0
  8 10  2  0
 10 11  1  0
 10 12  1  0
 12 13  1  0
 12 14  2  0
 14 15  1  0
  4 16  1  0
 16 17  1  0
 16 18  1  0
 18 19  1  0
 18 20  1  0
 18 21  1  0
 21 22  1  0
 21 23  1  0
 21 24  1  0
 24 25  1  0
 25 26  2  0
 25 27  1  0
 27 28  1  1
 27 29  1  0
 29 30  1  0
 29 31  1  0
 31 32  1  0
 31 33  1  0
 31 34  1  0
 34 35  2  0
 35 36  1  0
 35 37  1  0
 37 38  1  0
 37 39  2  0
 39 40  1  0
 39 41  1  0
 41 42  1  0
 41 43  2  0
 43 44  1  0
 44 45  1  0
 44 46  1  0
 27 47  1  0
 47 48  1  0
 47 49  1  0
 47 50  1  0
 24 51  1  0
 51 52  1  0
 51 53  1  0
 51 54  1  0
 54 55  1  0
 54 56  1  0
  3 57  1  0
 57 58  1  0
 57 59  1  0
 57 60  1  0
 60 61  1  0
 60 62  1  0
 60 63  1  0
 14  5  1  0
 54 16  1  0
 44 29  1  0
 43 34  1  0
M  CHG  2   4   1  47   1
M  END
>  <UniqueID>  (1) 
43

>  <SMILES>  (1) 
CC/C(O)=[N+](/c1ccccc1)C1CCN(C(=O)[C@@H]([NH3+])C2Cc3ccccc3C2)CC1

>  <Energy>  (1) 
91.7446825524838

>  <Genealogy>  (1) 
CCC(=O)[NH+](c1ccccc1)C1CCN(C(=O)[C@@H]([NH3+])C2Cc3ccccc3C2)CC1 (protonated)
CCC(O)=[N+](c1ccccc1)C1CCN(C(=O)[C@@H]([NH3+])C2Cc3ccccc3C2)CC1 (tautomer)
CC/C(O)=[N+](/c1ccccc1)C1CCN(C(=O)[C@@H]([NH3+])C2Cc3ccccc3C2)CC1 (cis-trans isomerization)
CC/C(O)=[N+](/c1ccccc1)C1CCN(C(=O)[C@@H]([NH3+])C2Cc3ccccc3C2)CC1 (3D coordinates assigned)
CC/C(O)=[N+](/c1ccccc1)C1CCN(C(=O)[C@@H]([NH3+])C2Cc3ccccc3C2)CC1 (nonaromatic ring conformer: 91.7446825524838 kcal/mol)

$$$$
untitled_line_13
     RDKit          3D

 63 66  0  0  0  0  0  0  0  0999 V2000
   -4.0478    0.9934   -3.5796 H   0  0  0  0  0  0  0  0  0  0  0  0
   -4.7388    0.3816   -3.1696 O   0  0  0  0  0  0  0  0  0  0  0  0
   -4.5190   -0.4516   -2.0617 C   0  0  0  0  0  0  0  0  0  0  0  0
   -3.3030   -0.6795   -1.5930 N   0  0  0  0  0  0  0  0  0  0  0  0
   -3.1429   -1.4187   -0.3633 C   0  0  0  0  0  0  0  0  0  0  0  0
   -3.0711   -2.8202   -0.3875 C   0  0  0  0  0  0  0  0  0  0  0  0
   -3.1308   -3.3527   -1.3283 H   0  0  0  0  0  0  0  0  0  0  0  0
   -2.9291   -3.5362    0.8046 C   0  0  0  0  0  0  0  0  0  0  0  0
   -2.8837   -4.6178    0.7828 H   0  0  0  0  0  0  0  0  0  0  0  0
   -2.8586   -2.8586    2.0242 C   0  0  0  0  0  0  0  0  0  0  0  0
   -2.7501   -3.4143    2.9475 H   0  0  0  0  0  0  0  0  0  0  0  0
   -2.9154   -1.4608    2.0528 C   0  0  0  0  0  0  0  0  0  0  0  0
   -2.8503   -0.9354    2.9979 H   0  0  0  0  0  0  0  0  0  0  0  0
   -3.0622   -0.7425    0.8631 C   0  0  0  0  0  0  0  0  0  0  0  0
   -3.1132    0.3383    0.8967 H   0  0  0  0  0  0  0  0  0  0  0  0
   -2.0940   -0.1035   -2.2381 C   0  0  0  0  0  0  0  0  0  0  0  0
   -2.2297   -0.1296   -3.3432 H   0  0  0  0  0  0  0  0  0  0  0  0
   -0.8236   -0.9623   -2.0162 C   0  0  0  0  0  0  0  0  0  0  0  0
   -0.6456   -1.1451   -0.9357 H   0  0  0  0  0  0  0  0  0  0  0  0
   -0.9401   -1.9455   -2.5202 H   0  0  0  0  0  0  0  0  0  0  0  0
    0.4062   -0.2399   -2.5743 C   0  0  0  0  0  0  0  0  0  0  0  0
    1.3071   -0.8535   -2.3612 H   0  0  0  0  0  0  0  0  0  0  0  0
    0.3127   -0.1334   -3.6773 H   0  0  0  0  0  0  0  0  0  0  0  0
    0.5547    1.0908   -1.9669 N   0  0  0  0  0  0  0  0  0  0  0  0
    1.7574    1.8342   -2.2358 C   0  0  0  0  0  0  0  0  0  0  0  0
    2.1417    1.9597   -3.4298 O   0  0  0  0  0  0  0  0  0  0  0  0
    2.6026    2.4497   -1.1326 C   0  0  2  0  0  0  0  0  0  0  0  0
    3.6077    2.6519   -1.5719 H   0  0  0  0  0  0  0  0  0  0  0  0
    2.8127    1.4762    0.0610 C   0  0  0  0  0  0  0  0  0  0  0  0
    1.8307    1.2686    0.5419 H   0  0  0  0  0  0  0  0  0  0  0  0
    3.4299    0.1183   -0.3651 C   0  0  0  0  0  0  0  0  0  0  0  0
    3.9189    0.1754   -1.3627 H   0  0  0  0  0  0  0  0  0  0  0  0
    2.6646   -0.6865   -0.3570 H   0  0  0  0  0  0  0  0  0  0  0  0
    4.4610   -0.1458    0.6642 C   0  0  0  0  0  0  0  0  0  0  0  0
    5.2159   -1.3106    0.8124 C   0  0  0  0  0  0  0  0  0  0  0  0
    5.0757   -2.1496    0.1437 H   0  0  0  0  0  0  0  0  0  0  0  0
    6.1744   -1.3674    1.8371 C   0  0  0  0  0  0  0  0  0  0  0  0
    6.7760   -2.2584    1.9637 H   0  0  0  0  0  0  0  0  0  0  0  0
    6.3576   -0.2667    2.6939 C   0  0  0  0  0  0  0  0  0  0  0  0
    7.1011   -0.3099    3.4796 H   0  0  0  0  0  0  0  0  0  0  0  0
    5.5821    0.8914    2.5299 C   0  0  0  0  0  0  0  0  0  0  0  0
    5.7252    1.7453    3.1796 H   0  0  0  0  0  0  0  0  0  0  0  0
    4.6322    0.9238    1.5058 C   0  0  0  0  0  0  0  0  0  0  0  0
    3.7558    2.0606    1.1453 C   0  0  0  0  0  0  0  0  0  0  0  0
    4.3921    2.8808    0.7490 H   0  0  0  0  0  0  0  0  0  0  0  0
    3.1829    2.4161    2.0287 H   0  0  0  0  0  0  0  0  0  0  0  0
    2.0395    3.7346   -0.6861 N   0  0  0  0  0  0  0  0  0  0  0  0
    2.7974    4.3321   -0.2826 H   0  0  0  0  0  0  0  0  0  0  0  0
    1.3132    3.5953    0.0522 H   0  0  0  0  0  0  0  0  0  0  0  0
    1.6239    4.2575   -1.4911 H   0  0  0  0  0  0  0  0  0  0  0  0
   -0.5316    1.6602   -1.1571 C   0  0  0  0  0  0  0  0  0  0  0  0
   -0.4271    2.7597   -1.0726 H   0  0  0  0  0  0  0  0  0  0  0  0
   -0.5061    1.2198   -0.1372 H   0  0  0  0  0  0  0  0  0  0  0  0
   -1.8939    1.3780   -1.8085 C   0  0  0  0  0  0  0  0  0  0  0  0
   -1.9840    2.0255   -2.7085 H   0  0  0  0  0  0  0  0  0  0  0  0
   -2.6948    1.6991   -1.1091 H   0  0  0  0  0  0  0  0  0  0  0  0
   -5.7427   -1.0742   -1.4090 C   0  0  0  0  0  0  0  0  0  0  0  0
   -5.6465   -2.1807   -1.4302 H   0  0  0  0  0  0  0  0  0  0  0  0
   -5.8021   -0.7424   -0.3503 H   0  0  0  0  0  0  0  0  0  0  0  0
   -7.0500   -0.6952   -2.1016 C   0  0  0  0  0  0  0  0  0  0  0  0
   -7.8995   -1.1841   -1.5801 H   0  0  0  0  0  0  0  0  0  0  0  0
   -7.0416   -1.0335   -3.1593 H   0  0  0  0  0  0  0  0  0  0  0  0
   -7.1992    0.4053   -2.0655 H   0  0  0  0  0  0  0  0  0  0  0  0
  1  2  1  0
  2  3  1  0
  3  4  2  0
  4  5  1  0
  5  6  2  0
  6  7  1  0
  6  8  1  0
  8  9  1  0
  8 10  2  0
 10 11  1  0
 10 12  1  0
 12 13  1  0
 12 14  2  0
 14 15  1  0
  4 16  1  0
 16 17  1  0
 16 18  1  0
 18 19  1  0
 18 20  1  0
 18 21  1  0
 21 22  1  0
 21 23  1  0
 21 24  1  0
 24 25  1  0
 25 26  2  0
 25 27  1  0
 27 28  1  6
 27 29  1  0
 29 30  1  0
 29 31  1  0
 31 32  1  0
 31 33  1  0
 31 34  1  0
 34 35  2  0
 35 36  1  0
 35 37  1  0
 37 38  1  0
 37 39  2  0
 39 40  1  0
 39 41  1  0
 41 42  1  0
 41 43  2  0
 43 44  1  0
 44 45  1  0
 44 46  1  0
 27 47  1  0
 47 48  1  0
 47 49  1  0
 47 50  1  0
 24 51  1  0
 51 52  1  0
 51 53  1  0
 51 54  1  0
 54 55  1  0
 54 56  1  0
  3 57  1  0
 57 58  1  0
 57 59  1  0
 57 60  1  0
 60 61  1  0
 60 62  1  0
 60 63  1  0
 14  5  1  0
 54 16  1  0
 44 29  1  0
 43 34  1  0
M  CHG  2   4   1  47   1
M  END
>  <UniqueID>  (2) 
44

>  <SMILES>  (2) 
CC/C(O)=[N+](\c1ccccc1)C1CCN(C(=O)[C@@H]([NH3+])C2Cc3ccccc3C2)CC1

>  <Energy>  (2) 
91.74696297143606

>  <Genealogy>  (2) 
CCC(=O)[NH+](c1ccccc1)C1CCN(C(=O)[C@@H]([NH3+])C2Cc3ccccc3C2)CC1 (protonated)
CCC(O)=[N+](c1ccccc1)C1CCN(C(=O)[C@@H]([NH3+])C2Cc3ccccc3C2)CC1 (tautomer)
CC/C(O)=[N+](\c1ccccc1)C1CCN(C(=O)[C@@H]([NH3+])C2Cc3ccccc3C2)CC1 (cis-trans isomerization)
CC/C(O)=[N+](\c1ccccc1)C1CCN(C(=O)[C@@H]([NH3+])C2Cc3ccccc3C2)CC1 (3D coordinates assigned)
CC/C(O)=[N+](\c1ccccc1)C1CCN(C(=O)[C@@H]([NH3+])C2Cc3ccccc3C2)CC1 (nonaromatic ring conformer: 91.74696297143606 kcal/mol)

$$$$
untitled_line_13
     RDKit          3D

 63 66  0  0  0  0  0  0  0  0999 V2000
   -1.2747   -0.9108    1.7827 H   0  0  0  0  0  0  0  0  0  0  0  0
   -2.2001   -1.2993    1.8940 O   0  0  0  0  0  0  0  0  0  0  0  0
   -3.1888   -1.3419    0.9003 C   0  0  0  0  0  0  0  0  0  0  0  0
   -3.0278   -0.7528   -0.2732 N   0  0  0  0  0  0  0  0  0  0  0  0
   -4.0089   -0.9687   -1.3120 C   0  0  0  0  0  0  0  0  0  0  0  0
   -3.9073   -2.0809   -2.1617 C   0  0  0  0  0  0  0  0  0  0  0  0
   -3.0897   -2.7806   -2.0516 H   0  0  0  0  0  0  0  0  0  0  0  0
   -4.8809   -2.3078   -3.1402 C   0  0  0  0  0  0  0  0  0  0  0  0
   -4.8075   -3.1742   -3.7826 H   0  0  0  0  0  0  0  0  0  0  0  0
   -5.9514   -1.4219   -3.2830 C   0  0  0  0  0  0  0  0  0  0  0  0
   -6.6979   -1.5974   -4.0468 H   0  0  0  0  0  0  0  0  0  0  0  0
   -6.0547   -0.3092   -2.4444 C   0  0  0  0  0  0  0  0  0  0  0  0
   -6.8873    0.3743   -2.5529 H   0  0  0  0  0  0  0  0  0  0  0  0
   -5.0931   -0.0877   -1.4526 C   0  0  0  0  0  0  0  0  0  0  0  0
   -5.1897    0.7637   -0.7896 H   0  0  0  0  0  0  0  0  0  0  0  0
   -1.8134    0.0414   -0.5990 C   0  0  0  0  0  0  0  0  0  0  0  0
   -1.4966    0.6109    0.3030 H   0  0  0  0  0  0  0  0  0  0  0  0
   -0.6458   -0.8876   -1.0327 C   0  0  0  0  0  0  0  0  0  0  0  0
   -1.0318   -1.8742   -1.3603 H   0  0  0  0  0  0  0  0  0  0  0  0
    0.0095   -1.0760   -0.1553 H   0  0  0  0  0  0  0  0  0  0  0  0
    0.2159   -0.3101   -2.1688 C   0  0  0  0  0  0  0  0  0  0  0  0
   -0.2862   -0.4973   -3.1428 H   0  0  0  0  0  0  0  0  0  0  0  0
    1.1680   -0.8677   -2.1988 H   0  0  0  0  0  0  0  0  0  0  0  0
    0.3923    1.1436   -1.9999 N   0  0  0  0  0  0  0  0  0  0  0  0
    1.6835    1.8048   -2.0112 C   0  0  0  0  0  0  0  0  0  0  0  0
    1.7209    3.0674   -1.9479 O   0  0  0  0  0  0  0  0  0  0  0  0
    3.0040    1.0475   -2.0044 C   0  0  2  0  0  0  0  0  0  0  0  0
    2.9320    0.2122   -2.7321 H   0  0  0  0  0  0  0  0  0  0  0  0
    3.2613    0.4405   -0.5887 C   0  0  0  0  0  0  0  0  0  0  0  0
    2.3981   -0.2177   -0.3494 H   0  0  0  0  0  0  0  0  0  0  0  0
    4.5175   -0.4648   -0.4911 C   0  0  0  0  0  0  0  0  0  0  0  0
    4.2300   -1.5399   -0.4491 H   0  0  0  0  0  0  0  0  0  0  0  0
    5.2415   -0.3201   -1.3177 H   0  0  0  0  0  0  0  0  0  0  0  0
    5.1454   -0.0549    0.7873 C   0  0  0  0  0  0  0  0  0  0  0  0
    6.2670   -0.6328    1.3868 C   0  0  0  0  0  0  0  0  0  0  0  0
    6.7729   -1.4680    0.9189 H   0  0  0  0  0  0  0  0  0  0  0  0
    6.7241   -0.1121    2.6083 C   0  0  0  0  0  0  0  0  0  0  0  0
    7.5901   -0.5450    3.0932 H   0  0  0  0  0  0  0  0  0  0  0  0
    6.0584    0.9719    3.2076 C   0  0  0  0  0  0  0  0  0  0  0  0
    6.4132    1.3690    4.1497 H   0  0  0  0  0  0  0  0  0  0  0  0
    4.9368    1.5407    2.5857 C   0  0  0  0  0  0  0  0  0  0  0  0
    4.4200    2.3760    3.0406 H   0  0  0  0  0  0  0  0  0  0  0  0
    4.5002    1.0091    1.3690 C   0  0  0  0  0  0  0  0  0  0  0  0
    3.3465    1.4746    0.5665 C   0  0  0  0  0  0  0  0  0  0  0  0
    3.5291    2.5124    0.2263 H   0  0  0  0  0  0  0  0  0  0  0  0
    2.4199    1.4556    1.1816 H   0  0  0  0  0  0  0  0  0  0  0  0
    4.1043    1.9115   -2.4754 N   0  0  0  0  0  0  0  0  0  0  0  0
    4.3208    2.6784   -1.8010 H   0  0  0  0  0  0  0  0  0  0  0  0
    4.9715    1.3565   -2.6476 H   0  0  0  0  0  0  0  0  0  0  0  0
    3.8412    2.3424   -3.3924 H   0  0  0  0  0  0  0  0  0  0  0  0
   -0.8129    1.9817   -1.8641 C   0  0  0  0  0  0  0  0  0  0  0  0
   -0.6951    2.6488   -0.9825 H   0  0  0  0  0  0  0  0  0  0  0  0
   -0.9326    2.6147   -2.7692 H   0  0  0  0  0  0  0  0  0  0  0  0
   -2.0803    1.1412   -1.6530 C   0  0  0  0  0  0  0  0  0  0  0  0
   -2.8994    1.8084   -1.3070 H   0  0  0  0  0  0  0  0  0  0  0  0
   -2.3830    0.6911   -2.6235 H   0  0  0  0  0  0  0  0  0  0  0  0
   -4.4536   -2.1220    1.2221 C   0  0  0  0  0  0  0  0  0  0  0  0
   -5.3419   -1.4831    1.0323 H   0  0  0  0  0  0  0  0  0  0  0  0
   -4.5110   -3.0114    0.5581 H   0  0  0  0  0  0  0  0  0  0  0  0
   -4.5117   -2.5963    2.6735 C   0  0  0  0  0  0  0  0  0  0  0  0
   -5.4659   -3.1374    2.8512 H   0  0  0  0  0  0  0  0  0  0  0  0
   -4.4589   -1.7267    3.3648 H   0  0  0  0  0  0  0  0  0  0  0  0
   -3.6655   -3.2890    2.8812 H   0  0  0  0  0  0  0  0  0  0  0  0
  1  2  1  0
  2  3  1  0
  3  4  2  0
  4  5  1  0
  5  6  2  0
  6  7  1  0
  6  8  1  0
  8  9  1  0
  8 10  2  0
 10 11  1  0
 10 12  1  0
 12 13  1  0
 12 14  2  0
 14 15  1  0
  4 16  1  0
 16 17  1  0
 16 18  1  0
 18 19  1  0
 18 20  1  0
 18 21  1  0
 21 22  1  0
 21 23  1  0
 21 24  1  0
 24 25  1  0
 25 26  2  0
 25 27  1  0
 27 28  1  6
 27 29  1  0
 29 30  1  0
 29 31  1  0
 31 32  1  0
 31 33  1  0
 31 34  1  0
 34 35  2  0
 35 36  1  0
 35 37  1  0
 37 38  1  0
 37 39  2  0
 39 40  1  0
 39 41  1  0
 41 42  1  0
 41 43  2  0
 43 44  1  0
 44 45  1  0
 44 46  1  0
 27 47  1  0
 47 48  1  0
 47 49  1  0
 47 50  1  0
 24 51  1  0
 51 52  1  0
 51 53  1  0
 51 54  1  0
 54 55  1  0
 54 56  1  0
  3 57  1  0
 57 58  1  0
 57 59  1  0
 57 60  1  0
 60 61  1  0
 60 62  1  0
 60 63  1  0
 14  5  1  0
 54 16  1  0
 44 29  1  0
 43 34  1  0
M  CHG  2   4   1  47   1
M  END
>  <UniqueID>  (3) 
45

>  <SMILES>  (3) 
CC/C(O)=[N+](\c1ccccc1)C1CCN(C(=O)[C@@H]([NH3+])C2Cc3ccccc3C2)CC1

>  <Energy>  (3) 
93.53508301091448

>  <Genealogy>  (3) 
CCC(=O)[NH+](c1ccccc1)C1CCN(C(=O)[C@@H]([NH3+])C2Cc3ccccc3C2)CC1 (protonated)
CCC(O)=[N+](c1ccccc1)C1CCN(C(=O)[C@@H]([NH3+])C2Cc3ccccc3C2)CC1 (tautomer)
CC/C(O)=[N+](\c1ccccc1)C1CCN(C(=O)[C@@H]([NH3+])C2Cc3ccccc3C2)CC1 (cis-trans isomerization)
CC/C(O)=[N+](\c1ccccc1)C1CCN(C(=O)[C@@H]([NH3+])C2Cc3ccccc3C2)CC1 (3D coordinates assigned)
CC/C(O)=[N+](\c1ccccc1)C1CCN(C(=O)[C@@H]([NH3+])C2Cc3ccccc3C2)CC1 (nonaromatic ring conformer: 93.53508301091448 kcal/mol)

$$$$
untitled_line_13
     RDKit          3D

 63 66  0  0  0  0  0  0  0  0999 V2000
   -4.9365    0.1301    0.5780 C   0  0  0  0  0  0  0  0  0  0  0  0
   -3.5299   -0.0039   -0.0037 C   0  0  0  0  0  0  0  0  0  0  0  0
   -3.5286   -0.2083   -1.5009 C   0  0  0  0  0  0  0  0  0  0  0  0
   -4.5918   -0.5757   -2.0778 O   0  0  0  0  0  0  0  0  0  0  0  0
   -2.3284   -0.0184   -2.2859 N   0  0  0  0  0  0  0  0  0  0  0  0
   -2.4960    0.2553   -3.6898 C   0  0  0  0  0  0  0  0  0  0  0  0
   -2.9570    1.5169   -4.0972 C   0  0  0  0  0  0  0  0  0  0  0  0
   -3.1234    1.8013   -5.4559 C   0  0  0  0  0  0  0  0  0  0  0  0
   -2.8358    0.8260   -6.4148 C   0  0  0  0  0  0  0  0  0  0  0  0
   -2.3903   -0.4375   -6.0155 C   0  0  0  0  0  0  0  0  0  0  0  0
   -2.2211   -0.7259   -4.6568 C   0  0  0  0  0  0  0  0  0  0  0  0
   -0.9866   -0.2142   -1.6850 C   0  0  0  0  0  0  0  0  0  0  0  0
   -0.5750   -1.6968   -1.7120 C   0  0  0  0  0  0  0  0  0  0  0  0
    0.6873   -1.8910   -0.8529 C   0  0  0  0  0  0  0  0  0  0  0  0
    1.6609   -0.7875   -1.0329 N   0  0  0  0  0  0  0  0  0  0  0  0
    2.6508   -0.5877   -0.1783 C   0  0  0  0  0  0  0  0  0  0  0  0
    3.4279    0.5771   -0.2186 O   0  0  0  0  0  0  0  0  0  0  0  0
    3.0421   -1.5974    0.9002 C   0  0  1  0  0  0  0  0  0  0  0  0
    4.3498   -2.1763    0.5586 N   0  0  0  0  0  0  0  0  0  0  0  0
    3.0918   -0.9069    2.2931 C   0  0  0  0  0  0  0  0  0  0  0  0
    3.4057   -1.8875    3.4513 C   0  0  0  0  0  0  0  0  0  0  0  0
    2.5379   -1.4116    4.5535 C   0  0  0  0  0  0  0  0  0  0  0  0
    2.5596   -1.8387    5.8839 C   0  0  0  0  0  0  0  0  0  0  0  0
    1.6280   -1.2931    6.7823 C   0  0  0  0  0  0  0  0  0  0  0  0
    0.6890   -0.3446    6.3377 C   0  0  0  0  0  0  0  0  0  0  0  0
    0.6814    0.0644    4.9954 C   0  0  0  0  0  0  0  0  0  0  0  0
    1.6249   -0.4822    4.1217 C   0  0  0  0  0  0  0  0  0  0  0  0
    1.7618   -0.2056    2.6735 C   0  0  0  0  0  0  0  0  0  0  0  0
    1.5057    0.0325   -2.2548 C   0  0  0  0  0  0  0  0  0  0  0  0
    0.1144    0.6882   -2.3100 C   0  0  0  0  0  0  0  0  0  0  0  0
   -4.8672    0.3253    1.6689 H   0  0  0  0  0  0  0  0  0  0  0  0
   -5.5128   -0.8087    0.4230 H   0  0  0  0  0  0  0  0  0  0  0  0
   -5.4719    0.9780    0.1005 H   0  0  0  0  0  0  0  0  0  0  0  0
   -2.9733    0.9288    0.2377 H   0  0  0  0  0  0  0  0  0  0  0  0
   -3.0186   -0.8637    0.4817 H   0  0  0  0  0  0  0  0  0  0  0  0
   -3.1816    2.2778   -3.3590 H   0  0  0  0  0  0  0  0  0  0  0  0
   -3.4867    2.7747   -5.7669 H   0  0  0  0  0  0  0  0  0  0  0  0
   -2.9665    1.0475   -7.4660 H   0  0  0  0  0  0  0  0  0  0  0  0
   -2.1767   -1.1946   -6.7595 H   0  0  0  0  0  0  0  0  0  0  0  0
   -1.8949   -1.7150   -4.3646 H   0  0  0  0  0  0  0  0  0  0  0  0
   -1.0253    0.0805   -0.6150 H   0  0  0  0  0  0  0  0  0  0  0  0
   -1.3963   -2.3326   -1.3157 H   0  0  0  0  0  0  0  0  0  0  0  0
   -0.3580   -2.0225   -2.7494 H   0  0  0  0  0  0  0  0  0  0  0  0
    1.1645   -2.8634   -1.1008 H   0  0  0  0  0  0  0  0  0  0  0  0
    0.3367   -1.9159    0.2011 H   0  0  0  0  0  0  0  0  0  0  0  0
    3.0977    1.4595   -0.5844 H   0  0  0  0  0  0  0  0  0  0  0  0
    2.3199   -2.4346    0.9753 H   0  0  0  0  0  0  0  0  0  0  0  0
    4.3050   -2.6069   -0.3937 H   0  0  0  0  0  0  0  0  0  0  0  0
    4.6051   -2.9291    1.2370 H   0  0  0  0  0  0  0  0  0  0  0  0
    5.0940   -1.4419    0.5671 H   0  0  0  0  0  0  0  0  0  0  0  0
    3.8915   -0.1310    2.2859 H   0  0  0  0  0  0  0  0  0  0  0  0
    4.4776   -1.8402    3.7410 H   0  0  0  0  0  0  0  0  0  0  0  0
    3.1218   -2.9323    3.1994 H   0  0  0  0  0  0  0  0  0  0  0  0
    3.2796   -2.5763    6.2154 H   0  0  0  0  0  0  0  0  0  0  0  0
    1.6288   -1.6053    7.8188 H   0  0  0  0  0  0  0  0  0  0  0  0
   -0.0331    0.0680    7.0314 H   0  0  0  0  0  0  0  0  0  0  0  0
   -0.0427    0.7888    4.6459 H   0  0  0  0  0  0  0  0  0  0  0  0
    0.8911   -0.6445    2.1417 H   0  0  0  0  0  0  0  0  0  0  0  0
    1.8142    0.8875    2.4792 H   0  0  0  0  0  0  0  0  0  0  0  0
    1.6143   -0.6385   -3.1356 H   0  0  0  0  0  0  0  0  0  0  0  0
    2.2903    0.7984   -2.3990 H   0  0  0  0  0  0  0  0  0  0  0  0
   -0.0921    0.9318   -3.3715 H   0  0  0  0  0  0  0  0  0  0  0  0
    0.1471    1.6533   -1.7587 H   0  0  0  0  0  0  0  0  0  0  0  0
  1  2  1  0
  2  3  1  0
  3  4  2  0
  3  5  1  0
  5  6  1  0
  6  7  2  0
  7  8  1  0
  8  9  2  0
  9 10  1  0
 10 11  2  0
  5 12  1  0
 12 13  1  0
 13 14  1  0
 14 15  1  0
 15 16  2  3
 16 17  1  0
 16 18  1  0
 18 19  1  0
 18 20  1  0
 20 21  1  0
 21 22  1  0
 22 23  2  0
 23 24  1  0
 24 25  2  0
 25 26  1  0
 26 27  2  0
 27 28  1  0
 15 29  1  0
 29 30  1  0
 11  6  1  0
 30 12  1  0
 28 20  1  0
 27 22  1  0
  1 31  1  0
  1 32  1  0
  1 33  1  0
  2 34  1  0
  2 35  1  0
  7 36  1  0
  8 37  1  0
  9 38  1  0
 10 39  1  0
 11 40  1  0
 12 41  1  0
 13 42  1  0
 13 43  1  0
 14 44  1  0
 14 45  1  0
 17 46  1  0
 18 47  1  1
 19 48  1  0
 19 49  1  0
 19 50  1  0
 20 51  1  0
 21 52  1  0
 21 53  1  0
 23 54  1  0
 24 55  1  0
 25 56  1  0
 26 57  1  0
 28 58  1  0
 28 59  1  0
 29 60  1  0
 29 61  1  0
 30 62  1  0
 30 63  1  0
M  CHG  2  15   1  19   1
M  END
>  <UniqueID>  (4) 
46

>  <SMILES>  (4) 
CCC(=O)N(c1ccccc1)C1CC[N+](=C(O)[C@@H]([NH3+])C2Cc3ccccc3C2)CC1

>  <Energy>  (4) 
95.0613254409582

>  <Genealogy>  (4) 
CCC(=O)N(c1ccccc1)C1CC[NH+](C(=O)[C@@H]([NH3+])C2Cc3ccccc3C2)CC1 (protonated)
CCC(=O)N(c1ccccc1)C1CC[N+](=C(O)[C@@H]([NH3+])C2Cc3ccccc3C2)CC1 (tautomer)
CCC(=O)N(c1ccccc1)C1CC[N+](=C(O)[C@@H]([NH3+])C2Cc3ccccc3C2)CC1 (3D coordinates assigned)
CCC(=O)N(c1ccccc1)C1CC[N+](=C(O)[C@@H]([NH3+])C2Cc3ccccc3C2)CC1 (nonaromatic ring conformer: 95.0613254409582 kcal/mol)

$$$$
