
     RDKit          3D

 65 68  0  0  1  0  0  0  0  0999 V2000
  140.3820   81.3210  222.7230 C   0  0  0  0  0  0  0  0  0  0  0  0
  140.5980   79.8770  223.0440 C   0  0  0  0  0  0  0  0  0  0  0  0
  141.7680   79.8030  224.0010 C   0  0  0  0  0  0  0  0  0  0  0  0
  139.3830   79.4170  223.8460 C   0  0  0  0  0  0  0  0  0  0  0  0
  138.2760   80.3960  223.8220 C   0  0  0  0  0  0  0  0  0  0  0  0
  137.9560   81.1590  224.9420 C   0  0  0  0  0  0  0  0  0  0  0  0
  136.9240   82.0780  224.9330 C   0  0  0  0  0  0  0  0  0  0  0  0
  136.1660   82.2750  223.8000 C   0  0  0  0  0  0  0  0  0  0  0  0
  135.1430   83.1600  223.7290 F   0  0  0  0  0  0  0  0  0  0  0  0
  136.4600   81.5330  222.6780 C   0  0  0  0  0  0  0  0  0  0  0  0
  137.4930   80.6200  222.7040 C   0  0  0  0  0  0  0  0  0  0  0  0
  140.7390   79.0100  221.9200 N   0  0  0  0  0  0  0  0  0  0  0  0
  141.8080   79.1770  220.9460 C   0  0  0  0  0  0  0  0  0  0  0  0
  142.5690   80.1410  221.1980 O   0  0  0  0  0  0  0  0  0  0  0  0
  141.8450   78.2440  219.8600 C   0  0  2  0  0  0  0  0  0  0  0  0
  140.8420   78.5070  218.7200 C   0  0  0  0  0  0  0  0  0  0  0  0
  140.5450   77.3130  218.1010 O   0  0  0  0  0  0  0  0  0  0  0  0
  141.5970   76.5130  217.7620 C   0  0  0  0  0  0  0  0  0  0  0  0
  142.3430   76.0440  218.9850 C   0  0  0  0  0  0  0  0  0  0  0  0
  141.7120   76.8160  220.0990 N   0  0  0  0  0  0  0  0  0  0  0  0
  141.0430   76.2120  221.1600 C   0  0  0  0  0  0  0  0  0  0  0  0
  141.4110   76.6090  222.3470 O   0  0  0  0  0  0  0  0  0  0  0  0
  139.9970   75.2030  221.2010 C   0  0  0  0  0  0  0  0  0  0  0  0
  138.8760   75.3220  222.0400 N   0  0  0  0  0  0  0  0  0  0  0  0
  138.0560   76.5200  221.9830 C   0  0  0  0  0  0  0  0  0  0  0  0
  138.3290   77.4620  221.2000 O   0  0  0  0  0  0  0  0  0  0  0  0
  136.9010   76.5970  222.8640 C   0  0  0  0  0  0  0  0  0  0  0  0
  136.1650   77.7650  222.9140 C   0  0  0  0  0  0  0  0  0  0  0  0
  135.0620   77.8950  223.7310 C   0  0  0  0  0  0  0  0  0  0  0  0
  134.6600   76.8460  224.5290 C   0  0  0  0  0  0  0  0  0  0  0  0
  133.5570   76.9930  225.3360 C   0  0  0  0  0  0  0  0  0  0  0  0
  133.1610   75.9380  226.1320 C   0  0  0  0  0  0  0  0  0  0  0  0
  132.0720   76.1000  226.9230 F   0  0  0  0  0  0  0  0  0  0  0  0
  133.8940   74.7710  226.0840 C   0  0  0  0  0  0  0  0  0  0  0  0
  135.0070   74.6350  225.2640 C   0  0  0  0  0  0  0  0  0  0  0  0
  135.4100   75.6890  224.4620 C   0  0  0  0  0  0  0  0  0  0  0  0
  136.4970   75.5780  223.6490 N   0  0  0  0  0  0  0  0  0  0  0  0
  140.2961   81.8954  223.6572 H   0  0  0  0  0  0  0  0  0  0  0  0
  141.2338   81.6979  222.1378 H   0  0  0  0  0  0  0  0  0  0  0  0
  139.4572   81.4322  222.1378 H   0  0  0  0  0  0  0  0  0  0  0  0
  141.3970   79.8265  225.0363 H   0  0  0  0  0  0  0  0  0  0  0  0
  142.3221   78.8680  223.8312 H   0  0  0  0  0  0  0  0  0  0  0  0
  142.4354   80.6607  223.8312 H   0  0  0  0  0  0  0  0  0  0  0  0
  139.0218   78.4679  223.4233 H   0  0  0  0  0  0  0  0  0  0  0  0
  139.7013   79.3030  224.8927 H   0  0  0  0  0  0  0  0  0  0  0  0
  138.5430   81.0260  225.8627 H   0  0  0  0  0  0  0  0  0  0  0  0
  136.7054   82.6589  225.8412 H   0  0  0  0  0  0  0  0  0  0  0  0
  135.8700   81.6688  221.7596 H   0  0  0  0  0  0  0  0  0  0  0  0
  137.7045   80.0422  221.7921 H   0  0  0  0  0  0  0  0  0  0  0  0
  140.0540   78.2070  221.7690 H   0  0  0  0  0  0  0  0  0  0  0  0
  142.8938   78.4625  219.6103 H   0  0  0  0  0  0  0  0  0  0  0  0
  139.9223   78.9478  219.1321 H   0  0  0  0  0  0  0  0  0  0  0  0
  141.2811   79.2046  217.9916 H   0  0  0  0  0  0  0  0  0  0  0  0
  141.2194   75.6369  217.2144 H   0  0  0  0  0  0  0  0  0  0  0  0
  142.2884   77.0948  217.1347 H   0  0  0  0  0  0  0  0  0  0  0  0
  142.2125   74.9620  219.1338 H   0  0  0  0  0  0  0  0  0  0  0  0
  143.4283   76.2077  218.9126 H   0  0  0  0  0  0  0  0  0  0  0  0
  139.6064   75.1236  220.1758 H   0  0  0  0  0  0  0  0  0  0  0  0
  140.5238   74.3442  221.6425 H   0  0  0  0  0  0  0  0  0  0  0  0
  138.5860   74.5690  222.7310 H   0  0  0  0  0  0  0  0  0  0  0  0
  136.4673   78.6149  222.2845 H   0  0  0  0  0  0  0  0  0  0  0  0
  134.5002   78.8406  223.7459 H   0  0  0  0  0  0  0  0  0  0  0  0
  132.9972   77.9398  225.3470 H   0  0  0  0  0  0  0  0  0  0  0  0
  133.5883   73.9225  226.7138 H   0  0  0  0  0  0  0  0  0  0  0  0
  135.5685   73.6892  225.2519 H   0  0  0  0  0  0  0  0  0  0  0  0
  1  2  1  0
  2  3  1  0
  2  4  1  0
  4  5  1  0
  5  6  2  0
  6  7  1  0
  7  8  2  0
  8  9  1  0
  8 10  1  0
 10 11  2  0
  2 12  1  0
 12 13  1  0
 13 14  2  0
 13 15  1  0
 15 16  1  0
 16 17  1  0
 17 18  1  0
 18 19  1  0
 19 20  1  0
 20 21  1  0
 21 22  2  0
 21 23  1  0
 23 24  1  0
 24 25  1  0
 25 26  2  0
 25 27  1  0
 27 28  2  0
 28 29  1  0
 29 30  2  0
 30 31  1  0
 31 32  2  0
 32 33  1  0
 32 34  1  0
 34 35  2  0
 35 36  1  0
 36 37  2  0
 11  5  1  0
 20 15  1  0
 37 27  1  0
 36 30  1  0
  1 38  1  0
  1 39  1  0
  1 40  1  0
  3 41  1  0
  3 42  1  0
  3 43  1  0
  4 44  1  0
  4 45  1  0
  6 46  1  0
  7 47  1  0
 10 48  1  0
 11 49  1  0
 12 50  1  0
 15 51  1  6
 16 52  1  0
 16 53  1  0
 18 54  1  0
 18 55  1  0
 19 56  1  0
 19 57  1  0
 23 58  1  0
 23 59  1  0
 24 60  1  0
 28 61  1  0
 29 62  1  0
 31 63  1  0
 34 64  1  0
 35 65  1  0
M  END
>  <smiles>  (1) 
CC(C)(Cc1ccc(F)cc1)NC(=O)C1COCCN1C(=O)CNC(=O)c1ccc2cc(F)ccc2n1

>  <score_type>  (1) 
oracle

>  <origin>  (1) 
autodockgpu

>  <m_score__min__energy>  (1) 
-9.1099999999999994

>  <m_primary>  (1) 
energy

>  <meeko>  (1) 
{"free_energy": -5.74, "intermolecular_energy": -8.13, "internal_energy": -4.27, "cluster_size": 1, "cluster_id": 10, "rank_in_cluster": 1}

>  <energy>  (1) 
-9.11

>  <cluster_rmsd>  (1) 
0.0

>  <rmsd>  (1) 
270.16

>  <cluster>  (1) 
1

$$$$

     RDKit          3D

 65 68  0  0  1  0  0  0  0  0999 V2000
  140.1330   70.5110  224.4470 C   0  0  0  0  0  0  0  0  0  0  0  0
  138.7160   70.1800  224.1000 C   0  0  0  0  0  0  0  0  0  0  0  0
  138.7180   69.6420  222.6860 C   0  0  0  0  0  0  0  0  0  0  0  0
  138.3100   69.0050  224.9860 C   0  0  0  0  0  0  0  0  0  0  0  0
  139.2290   68.7990  226.1250 C   0  0  0  0  0  0  0  0  0  0  0  0
  139.1670   69.6020  227.2620 C   0  0  0  0  0  0  0  0  0  0  0  0
  140.0190   69.4200  228.3340 C   0  0  0  0  0  0  0  0  0  0  0  0
  140.9720   68.4250  228.3170 C   0  0  0  0  0  0  0  0  0  0  0  0
  141.8350   68.1980  229.3360 F   0  0  0  0  0  0  0  0  0  0  0  0
  141.0550   67.6170  227.2050 C   0  0  0  0  0  0  0  0  0  0  0  0
  140.1970   67.8120  226.1430 C   0  0  0  0  0  0  0  0  0  0  0  0
  137.7710   71.2300  224.2980 N   0  0  0  0  0  0  0  0  0  0  0  0
  136.3440   71.0330  224.0910 C   0  0  0  0  0  0  0  0  0  0  0  0
  136.0470   69.8700  223.7300 O   0  0  0  0  0  0  0  0  0  0  0  0
  135.4940   72.1630  224.3210 C   0  0  2  0  0  0  0  0  0  0  0  0
  133.9830   71.8990  224.1790 C   0  0  0  0  0  0  0  0  0  0  0  0
  133.3560   73.0710  223.8200 O   0  0  0  0  0  0  0  0  0  0  0  0
  133.6760   74.1890  224.5340 C   0  0  0  0  0  0  0  0  0  0  0  0
  135.1270   74.5540  224.3560 C   0  0  0  0  0  0  0  0  0  0  0  0
  135.6870   73.4020  223.5850 N   0  0  0  0  0  0  0  0  0  0  0  0
  136.2430   73.5350  222.3160 C   0  0  0  0  0  0  0  0  0  0  0  0
  135.4220   73.3250  221.3240 O   0  0  0  0  0  0  0  0  0  0  0  0
  137.5880   73.8650  221.8730 C   0  0  0  0  0  0  0  0  0  0  0  0
  138.2680   75.0070  222.3320 N   0  0  0  0  0  0  0  0  0  0  0  0
  137.8980   76.3180  221.8260 C   0  0  0  0  0  0  0  0  0  0  0  0
  136.9840   76.4580  220.9790 O   0  0  0  0  0  0  0  0  0  0  0  0
  138.6220   77.4730  222.3340 C   0  0  0  0  0  0  0  0  0  0  0  0
  137.9150   78.5770  222.7710 C   0  0  0  0  0  0  0  0  0  0  0  0
  138.5500   79.6980  223.2610 C   0  0  0  0  0  0  0  0  0  0  0  0
  139.9250   79.7460  223.3280 C   0  0  0  0  0  0  0  0  0  0  0  0
  140.5400   80.8730  223.8210 C   0  0  0  0  0  0  0  0  0  0  0  0
  141.9170   80.9140  223.8850 C   0  0  0  0  0  0  0  0  0  0  0  0
  142.5080   82.0330  224.3720 F   0  0  0  0  0  0  0  0  0  0  0  0
  142.6250   79.8130  223.4490 C   0  0  0  0  0  0  0  0  0  0  0  0
  141.9920   78.6800  222.9540 C   0  0  0  0  0  0  0  0  0  0  0  0
  140.6100   78.6320  222.8860 C   0  0  0  0  0  0  0  0  0  0  0  0
  139.9680   77.5320  222.4060 N   0  0  0  0  0  0  0  0  0  0  0  0
  140.2460   70.5374  225.5409 H   0  0  0  0  0  0  0  0  0  0  0  0
  140.8017   69.7449  224.0277 H   0  0  0  0  0  0  0  0  0  0  0  0
  140.3931   71.4941  224.0277 H   0  0  0  0  0  0  0  0  0  0  0  0
  138.7221   68.5423  222.7121 H   0  0  0  0  0  0  0  0  0  0  0  0
  137.8185   69.9929  222.1589 H   0  0  0  0  0  0  0  0  0  0  0  0
  139.6148   69.9996  222.1589 H   0  0  0  0  0  0  0  0  0  0  0  0
  137.3004   69.1945  225.3794 H   0  0  0  0  0  0  0  0  0  0  0  0
  138.3440   68.0970  224.3661 H   0  0  0  0  0  0  0  0  0  0  0  0
  138.4168   70.4052  227.3073 H   0  0  0  0  0  0  0  0  0  0  0  0
  139.9356   70.0775  229.2120 H   0  0  0  0  0  0  0  0  0  0  0  0
  141.8066   66.8149  227.1637 H   0  0  0  0  0  0  0  0  0  0  0  0
  140.2871   67.1507  225.2686 H   0  0  0  0  0  0  0  0  0  0  0  0
  138.0960   72.1970  224.6080 H   0  0  0  0  0  0  0  0  0  0  0  0
  135.8410   72.3101  225.3544 H   0  0  0  0  0  0  0  0  0  0  0  0
  133.8128   71.1371  223.4041 H   0  0  0  0  0  0  0  0  0  0  0  0
  133.5769   71.5376  225.1353 H   0  0  0  0  0  0  0  0  0  0  0  0
  133.0508   75.0258  224.1891 H   0  0  0  0  0  0  0  0  0  0  0  0
  133.4972   73.9840  225.5998 H   0  0  0  0  0  0  0  0  0  0  0  0
  135.2296   75.4920  223.7906 H   0  0  0  0  0  0  0  0  0  0  0  0
  135.6459   74.7217  225.3113 H   0  0  0  0  0  0  0  0  0  0  0  0
  138.2189   73.0041  222.1392 H   0  0  0  0  0  0  0  0  0  0  0  0
  137.4274   74.1050  220.8116 H   0  0  0  0  0  0  0  0  0  0  0  0
  139.0540   74.9660  223.0440 H   0  0  0  0  0  0  0  0  0  0  0  0
  136.8160   78.5608  222.7266 H   0  0  0  0  0  0  0  0  0  0  0  0
  137.9555   80.5590  223.6004 H   0  0  0  0  0  0  0  0  0  0  0  0
  139.9410   81.7311  224.1601 H   0  0  0  0  0  0  0  0  0  0  0  0
  143.7239   79.8330  223.4948 H   0  0  0  0  0  0  0  0  0  0  0  0
  142.5891   77.8203  222.6158 H   0  0  0  0  0  0  0  0  0  0  0  0
  1  2  1  0
  2  3  1  0
  2  4  1  0
  4  5  1  0
  5  6  2  0
  6  7  1  0
  7  8  2  0
  8  9  1  0
  8 10  1  0
 10 11  2  0
  2 12  1  0
 12 13  1  0
 13 14  2  0
 13 15  1  0
 15 16  1  0
 16 17  1  0
 17 18  1  0
 18 19  1  0
 19 20  1  0
 20 21  1  0
 21 22  2  0
 21 23  1  0
 23 24  1  0
 24 25  1  0
 25 26  2  0
 25 27  1  0
 27 28  2  0
 28 29  1  0
 29 30  2  0
 30 31  1  0
 31 32  2  0
 32 33  1  0
 32 34  1  0
 34 35  2  0
 35 36  1  0
 36 37  2  0
 11  5  1  0
 20 15  1  0
 37 27  1  0
 36 30  1  0
  1 38  1  0
  1 39  1  0
  1 40  1  0
  3 41  1  0
  3 42  1  0
  3 43  1  0
  4 44  1  0
  4 45  1  0
  6 46  1  0
  7 47  1  0
 10 48  1  0
 11 49  1  0
 12 50  1  0
 15 51  1  1
 16 52  1  0
 16 53  1  0
 18 54  1  0
 18 55  1  0
 19 56  1  0
 19 57  1  0
 23 58  1  0
 23 59  1  0
 24 60  1  0
 28 61  1  0
 29 62  1  0
 31 63  1  0
 34 64  1  0
 35 65  1  0
M  END
>  <smiles>  (2) 
CC(C)(Cc1ccc(F)cc1)NC(=O)C1COCCN1C(=O)CNC(=O)c1ccc2cc(F)ccc2n1

>  <score_type>  (2) 
oracle

>  <origin>  (2) 
autodockgpu

>  <m_score__min__energy>  (2) 
-9.1099999999999994

>  <m_primary>  (2) 
energy

>  <meeko>  (2) 
{"free_energy": -8.5, "intermolecular_energy": -10.89, "internal_energy": -1.79, "cluster_size": 2, "cluster_id": 3, "rank_in_cluster": 2}

>  <energy>  (2) 
-9.04

>  <cluster_rmsd>  (2) 
1.51

>  <rmsd>  (2) 
270.36

>  <cluster>  (2) 
1

$$$$

     RDKit          3D

 65 68  0  0  1  0  0  0  0  0999 V2000
  141.0110   79.1790  217.3240 C   0  0  0  0  0  0  0  0  0  0  0  0
  141.7650   79.2530  218.6130 C   0  0  0  0  0  0  0  0  0  0  0  0
  142.5560   80.5420  218.5940 C   0  0  0  0  0  0  0  0  0  0  0  0
  140.7270   79.4260  219.7200 C   0  0  0  0  0  0  0  0  0  0  0  0
  141.3160   79.8910  220.9930 C   0  0  0  0  0  0  0  0  0  0  0  0
  142.0090   79.0220  221.8330 C   0  0  0  0  0  0  0  0  0  0  0  0
  142.5650   79.4440  223.0250 C   0  0  0  0  0  0  0  0  0  0  0  0
  142.4550   80.7560  223.4300 C   0  0  0  0  0  0  0  0  0  0  0  0
  142.9790   81.2300  224.5850 F   0  0  0  0  0  0  0  0  0  0  0  0
  141.7760   81.6370  222.6170 C   0  0  0  0  0  0  0  0  0  0  0  0
  141.2260   81.2000  221.4310 C   0  0  0  0  0  0  0  0  0  0  0  0
  142.5610   78.1130  218.9290 N   0  0  0  0  0  0  0  0  0  0  0  0
  141.9810   76.7890  219.0980 C   0  0  0  0  0  0  0  0  0  0  0  0
  140.7370   76.7640  218.9400 O   0  0  0  0  0  0  0  0  0  0  0  0
  142.8820   75.7220  219.4140 C   0  0  2  0  0  0  0  0  0  0  0  0
  143.6800   75.1490  218.2270 C   0  0  0  0  0  0  0  0  0  0  0  0
  144.0010   73.8370  218.4950 O   0  0  0  0  0  0  0  0  0  0  0  0
  144.5330   73.5680  219.7230 C   0  0  0  0  0  0  0  0  0  0  0  0
  143.5480   73.8700  220.8230 C   0  0  0  0  0  0  0  0  0  0  0  0
  142.4150   74.5320  220.1070 N   0  0  0  0  0  0  0  0  0  0  0  0
  141.1250   74.0100  220.0790 C   0  0  0  0  0  0  0  0  0  0  0  0
  140.8530   73.2540  219.0500 O   0  0  0  0  0  0  0  0  0  0  0  0
  139.9990   74.1480  220.9890 C   0  0  0  0  0  0  0  0  0  0  0  0
  139.8950   73.3920  222.1700 N   0  0  0  0  0  0  0  0  0  0  0  0
  140.2140   71.9750  222.1500 C   0  0  0  0  0  0  0  0  0  0  0  0
  140.5790   71.4010  221.0960 O   0  0  0  0  0  0  0  0  0  0  0  0
  140.1010   71.2340  223.3970 C   0  0  0  0  0  0  0  0  0  0  0  0
  139.5220   69.9800  223.3880 C   0  0  0  0  0  0  0  0  0  0  0  0
  139.3880   69.2340  224.5400 C   0  0  0  0  0  0  0  0  0  0  0  0
  139.8340   69.7290  225.7460 C   0  0  0  0  0  0  0  0  0  0  0  0
  139.6920   68.9700  226.8830 C   0  0  0  0  0  0  0  0  0  0  0  0
  140.1410   69.4730  228.0870 C   0  0  0  0  0  0  0  0  0  0  0  0
  139.9930   68.7120  229.2000 F   0  0  0  0  0  0  0  0  0  0  0  0
  140.7190   70.7250  228.0980 C   0  0  0  0  0  0  0  0  0  0  0  0
  140.8570   71.4820  226.9410 C   0  0  0  0  0  0  0  0  0  0  0  0
  140.4090   70.9840  225.7300 C   0  0  0  0  0  0  0  0  0  0  0  0
  140.5340   71.7070  224.5830 N   0  0  0  0  0  0  0  0  0  0  0  0
  139.9363   79.0735  217.5334 H   0  0  0  0  0  0  0  0  0  0  0  0
  141.1833   80.0984  216.7451 H   0  0  0  0  0  0  0  0  0  0  0  0
  141.3587   78.3107  216.7451 H   0  0  0  0  0  0  0  0  0  0  0  0
  142.7546   80.8656  219.6264 H   0  0  0  0  0  0  0  0  0  0  0  0
  143.5099   80.3792  218.0709 H   0  0  0  0  0  0  0  0  0  0  0  0
  141.9788   81.3187  218.0709 H   0  0  0  0  0  0  0  0  0  0  0  0
  139.9803   80.1628  219.3889 H   0  0  0  0  0  0  0  0  0  0  0  0
  140.2752   78.4404  219.9059 H   0  0  0  0  0  0  0  0  0  0  0  0
  142.1167   77.9678  221.5380 H   0  0  0  0  0  0  0  0  0  0  0  0
  143.1024   78.7232  223.6588 H   0  0  0  0  0  0  0  0  0  0  0  0
  141.6726   82.6909  222.9148 H   0  0  0  0  0  0  0  0  0  0  0  0
  140.6900   81.9268  220.8030 H   0  0  0  0  0  0  0  0  0  0  0  0
  143.6160   78.2080  219.0470 H   0  0  0  0  0  0  0  0  0  0  0  0
  143.4722   76.3293  220.1160 H   0  0  0  0  0  0  0  0  0  0  0  0
  143.0698   75.2003  217.3132 H   0  0  0  0  0  0  0  0  0  0  0  0
  144.5996   75.7343  218.0799 H   0  0  0  0  0  0  0  0  0  0  0  0
  144.8074   72.5038  219.7696 H   0  0  0  0  0  0  0  0  0  0  0  0
  145.4190   74.2042  219.8652 H   0  0  0  0  0  0  0  0  0  0  0  0
  143.2143   72.9452  221.3164 H   0  0  0  0  0  0  0  0  0  0  0  0
  143.9752   74.4968  221.6196 H   0  0  0  0  0  0  0  0  0  0  0  0
  139.9807   75.2037  221.2974 H   0  0  0  0  0  0  0  0  0  0  0  0
  139.1680   73.7503  220.3879 H   0  0  0  0  0  0  0  0  0  0  0  0
  139.5890   73.8080  223.0970 H   0  0  0  0  0  0  0  0  0  0  0  0
  139.1580   69.5653  222.4364 H   0  0  0  0  0  0  0  0  0  0  0  0
  138.9225   68.2383  224.4959 H   0  0  0  0  0  0  0  0  0  0  0  0
  139.2265   67.9746  226.8339 H   0  0  0  0  0  0  0  0  0  0  0  0
  141.0817   71.1368  229.0514 H   0  0  0  0  0  0  0  0  0  0  0  0
  141.3225   72.4775  226.9876 H   0  0  0  0  0  0  0  0  0  0  0  0
  1  2  1  0
  2  3  1  0
  2  4  1  0
  4  5  1  0
  5  6  2  0
  6  7  1  0
  7  8  2  0
  8  9  1  0
  8 10  1  0
 10 11  2  0
  2 12  1  0
 12 13  1  0
 13 14  2  0
 13 15  1  0
 15 16  1  0
 16 17  1  0
 17 18  1  0
 18 19  1  0
 19 20  1  0
 20 21  1  0
 21 22  2  0
 21 23  1  0
 23 24  1  0
 24 25  1  0
 25 26  2  0
 25 27  1  0
 27 28  2  0
 28 29  1  0
 29 30  2  0
 30 31  1  0
 31 32  2  0
 32 33  1  0
 32 34  1  0
 34 35  2  0
 35 36  1  0
 36 37  2  0
 11  5  1  0
 20 15  1  0
 37 27  1  0
 36 30  1  0
  1 38  1  0
  1 39  1  0
  1 40  1  0
  3 41  1  0
  3 42  1  0
  3 43  1  0
  4 44  1  0
  4 45  1  0
  6 46  1  0
  7 47  1  0
 10 48  1  0
 11 49  1  0
 12 50  1  0
 15 51  1  1
 16 52  1  0
 16 53  1  0
 18 54  1  0
 18 55  1  0
 19 56  1  0
 19 57  1  0
 23 58  1  0
 23 59  1  0
 24 60  1  0
 28 61  1  0
 29 62  1  0
 31 63  1  0
 34 64  1  0
 35 65  1  0
M  END
>  <smiles>  (3) 
CC(C)(Cc1ccc(F)cc1)NC(=O)C1COCCN1C(=O)CNC(=O)c1ccc2cc(F)ccc2n1

>  <score_type>  (3) 
oracle

>  <origin>  (3) 
autodockgpu

>  <m_score__min__energy>  (3) 
-9.1099999999999994

>  <m_primary>  (3) 
energy

>  <meeko>  (3) 
{"free_energy": -9.11, "intermolecular_energy": -11.5, "internal_energy": -1.87, "cluster_size": 3, "cluster_id": 1, "rank_in_cluster": 1}

>  <energy>  (3) 
-8.66

>  <cluster_rmsd>  (3) 
0.74

>  <rmsd>  (3) 
269.92

>  <cluster>  (3) 
1

$$$$

     RDKit          3D

 65 68  0  0  1  0  0  0  0  0999 V2000
  145.6060   73.3400  221.5330 C   0  0  0  0  0  0  0  0  0  0  0  0
  144.7470   73.3760  220.3090 C   0  0  0  0  0  0  0  0  0  0  0  0
  145.6750   73.3920  219.1140 C   0  0  0  0  0  0  0  0  0  0  0  0
  144.0190   72.0350  220.2430 C   0  0  0  0  0  0  0  0  0  0  0  0
  144.5370   71.1520  219.1780 C   0  0  0  0  0  0  0  0  0  0  0  0
  143.9060   71.0600  217.9390 C   0  0  0  0  0  0  0  0  0  0  0  0
  144.3800   70.2390  216.9340 C   0  0  0  0  0  0  0  0  0  0  0  0
  145.5100   69.4730  217.1230 C   0  0  0  0  0  0  0  0  0  0  0  0
  146.0230   68.6510  216.1770 F   0  0  0  0  0  0  0  0  0  0  0  0
  146.1540   69.5450  218.3380 C   0  0  0  0  0  0  0  0  0  0  0  0
  145.6670   70.3690  219.3310 C   0  0  0  0  0  0  0  0  0  0  0  0
  143.7690   74.4120  220.2710 N   0  0  0  0  0  0  0  0  0  0  0  0
  143.0470   74.7490  219.0540 C   0  0  0  0  0  0  0  0  0  0  0  0
  143.3720   74.0450  218.0680 O   0  0  0  0  0  0  0  0  0  0  0  0
  142.0880   75.8100  219.1400 C   0  0  2  0  0  0  0  0  0  0  0  0
  142.6310   77.1580  219.6520 C   0  0  0  0  0  0  0  0  0  0  0  0
  141.6050   77.8550  220.2510 O   0  0  0  0  0  0  0  0  0  0  0  0
  140.4280   77.9360  219.5640 C   0  0  0  0  0  0  0  0  0  0  0  0
  139.8060   76.5760  219.3820 C   0  0  0  0  0  0  0  0  0  0  0  0
  140.8550   75.6400  219.8910 N   0  0  0  0  0  0  0  0  0  0  0  0
  140.6550   74.7910  220.9770 C   0  0  0  0  0  0  0  0  0  0  0  0
  141.4940   74.9450  221.9640 O   0  0  0  0  0  0  0  0  0  0  0  0
  139.6760   73.7460  221.2270 C   0  0  0  0  0  0  0  0  0  0  0  0
  139.6820   72.9820  222.4070 N   0  0  0  0  0  0  0  0  0  0  0  0
  139.9920   71.5640  222.3480 C   0  0  0  0  0  0  0  0  0  0  0  0
  140.2530   70.9970  221.2590 O   0  0  0  0  0  0  0  0  0  0  0  0
  139.9950   70.8150  223.5940 C   0  0  0  0  0  0  0  0  0  0  0  0
  139.4240   69.5570  223.6290 C   0  0  0  0  0  0  0  0  0  0  0  0
  139.3980   68.8030  224.7830 C   0  0  0  0  0  0  0  0  0  0  0  0
  139.9470   69.2930  225.9470 C   0  0  0  0  0  0  0  0  0  0  0  0
  139.9120   68.5270  227.0880 C   0  0  0  0  0  0  0  0  0  0  0  0
  140.4650   69.0240  228.2500 C   0  0  0  0  0  0  0  0  0  0  0  0
  140.4210   68.2560  229.3660 F   0  0  0  0  0  0  0  0  0  0  0  0
  141.0350   70.2800  228.2180 C   0  0  0  0  0  0  0  0  0  0  0  0
  141.0640   71.0450  227.0580 C   0  0  0  0  0  0  0  0  0  0  0  0
  140.5120   70.5520  225.8890 C   0  0  0  0  0  0  0  0  0  0  0  0
  140.5300   71.2830  224.7400 N   0  0  0  0  0  0  0  0  0  0  0  0
  144.9687   73.3667  222.4292 H   0  0  0  0  0  0  0  0  0  0  0  0
  146.2029   72.4160  221.5350 H   0  0  0  0  0  0  0  0  0  0  0  0
  146.2781   74.2108  221.5350 H   0  0  0  0  0  0  0  0  0  0  0  0
  146.7188   73.4100  219.4606 H   0  0  0  0  0  0  0  0  0  0  0  0
  145.5059   72.4908  218.5063 H   0  0  0  0  0  0  0  0  0  0  0  0
  145.4749   74.2868  218.5063 H   0  0  0  0  0  0  0  0  0  0  0  0
  144.1357   71.5242  221.2102 H   0  0  0  0  0  0  0  0  0  0  0  0
  142.9632   72.2432  220.0150 H   0  0  0  0  0  0  0  0  0  0  0  0
  143.0023   71.6597  217.7554 H   0  0  0  0  0  0  0  0  0  0  0  0
  143.8492   70.1962  215.9715 H   0  0  0  0  0  0  0  0  0  0  0  0
  147.0581   68.9445  218.5168 H   0  0  0  0  0  0  0  0  0  0  0  0
  146.2030   70.4053  220.2909 H   0  0  0  0  0  0  0  0  0  0  0  0
  143.5410   74.9700  221.1510 H   0  0  0  0  0  0  0  0  0  0  0  0
  141.8517   75.7863  218.0659 H   0  0  0  0  0  0  0  0  0  0  0  0
  143.4322   76.9790  220.3841 H   0  0  0  0  0  0  0  0  0  0  0  0
  143.0350   77.7402  218.8107 H   0  0  0  0  0  0  0  0  0  0  0  0
  139.7304   78.5773  220.1226 H   0  0  0  0  0  0  0  0  0  0  0  0
  140.6345   78.3593  218.5699 H   0  0  0  0  0  0  0  0  0  0  0  0
  138.8803   76.4855  219.9692 H   0  0  0  0  0  0  0  0  0  0  0  0
  139.5201   76.3722  218.3395 H   0  0  0  0  0  0  0  0  0  0  0  0
  138.6900   74.2314  221.1804 H   0  0  0  0  0  0  0  0  0  0  0  0
  139.9418   72.9963  220.4672 H   0  0  0  0  0  0  0  0  0  0  0  0
  139.4670   73.3920  223.3630 H   0  0  0  0  0  0  0  0  0  0  0  0
  138.9781   69.1461  222.7112 H   0  0  0  0  0  0  0  0  0  0  0  0
  138.9362   67.8047  224.7739 H   0  0  0  0  0  0  0  0  0  0  0  0
  139.4485   67.5295  227.0746 H   0  0  0  0  0  0  0  0  0  0  0  0
  141.4796   70.6880  229.1377 H   0  0  0  0  0  0  0  0  0  0  0  0
  141.5261   72.0431  227.0693 H   0  0  0  0  0  0  0  0  0  0  0  0
  1  2  1  0
  2  3  1  0
  2  4  1  0
  4  5  1  0
  5  6  2  0
  6  7  1  0
  7  8  2  0
  8  9  1  0
  8 10  1  0
 10 11  2  0
  2 12  1  0
 12 13  1  0
 13 14  2  0
 13 15  1  0
 15 16  1  0
 16 17  1  0
 17 18  1  0
 18 19  1  0
 19 20  1  0
 20 21  1  0
 21 22  2  0
 21 23  1  0
 23 24  1  0
 24 25  1  0
 25 26  2  0
 25 27  1  0
 27 28  2  0
 28 29  1  0
 29 30  2  0
 30 31  1  0
 31 32  2  0
 32 33  1  0
 32 34  1  0
 34 35  2  0
 35 36  1  0
 36 37  2  0
 11  5  1  0
 20 15  1  0
 37 27  1  0
 36 30  1  0
  1 38  1  0
  1 39  1  0
  1 40  1  0
  3 41  1  0
  3 42  1  0
  3 43  1  0
  4 44  1  0
  4 45  1  0
  6 46  1  0
  7 47  1  0
 10 48  1  0
 11 49  1  0
 12 50  1  0
 15 51  1  6
 16 52  1  0
 16 53  1  0
 18 54  1  0
 18 55  1  0
 19 56  1  0
 19 57  1  0
 23 58  1  0
 23 59  1  0
 24 60  1  0
 28 61  1  0
 29 62  1  0
 31 63  1  0
 34 64  1  0
 35 65  1  0
M  END
>  <smiles>  (4) 
CC(C)(Cc1ccc(F)cc1)NC(=O)C1COCCN1C(=O)CNC(=O)c1ccc2cc(F)ccc2n1

>  <score_type>  (4) 
oracle

>  <origin>  (4) 
autodockgpu

>  <m_score__min__energy>  (4) 
-9.1099999999999994

>  <m_primary>  (4) 
energy

>  <meeko>  (4) 
{"free_energy": -7.83, "intermolecular_energy": -10.22, "internal_energy": -2.55, "cluster_size": 1, "cluster_id": 5, "rank_in_cluster": 1}

>  <energy>  (4) 
-8.63

>  <cluster_rmsd>  (4) 
0.0

>  <rmsd>  (4) 
270.16

>  <cluster>  (4) 
2

$$$$

     RDKit          3D

 65 68  0  0  1  0  0  0  0  0999 V2000
  137.0200   68.5860  222.8970 C   0  0  0  0  0  0  0  0  0  0  0  0
  137.7000   69.5870  223.7770 C   0  0  0  0  0  0  0  0  0  0  0  0
  136.7320   69.9360  224.8860 C   0  0  0  0  0  0  0  0  0  0  0  0
  138.8570   68.8590  224.4580 C   0  0  0  0  0  0  0  0  0  0  0  0
  139.4890   69.6590  225.5270 C   0  0  0  0  0  0  0  0  0  0  0  0
  140.2770   70.7700  225.2350 C   0  0  0  0  0  0  0  0  0  0  0  0
  140.8720   71.5270  226.2250 C   0  0  0  0  0  0  0  0  0  0  0  0
  140.7060   71.2070  227.5540 C   0  0  0  0  0  0  0  0  0  0  0  0
  141.2630   71.9100  228.5690 F   0  0  0  0  0  0  0  0  0  0  0  0
  139.9320   70.1130  227.8720 C   0  0  0  0  0  0  0  0  0  0  0  0
  139.3450   69.3670  226.8720 C   0  0  0  0  0  0  0  0  0  0  0  0
  138.2290   70.7330  223.1140 N   0  0  0  0  0  0  0  0  0  0  0  0
  139.2690   70.6290  222.1020 C   0  0  0  0  0  0  0  0  0  0  0  0
  139.6390   69.4500  221.8850 O   0  0  0  0  0  0  0  0  0  0  0  0
  139.7200   71.8510  221.5070 C   0  0  2  0  0  0  0  0  0  0  0  0
  140.7570   72.6470  222.3230 C   0  0  0  0  0  0  0  0  0  0  0  0
  140.6500   73.9820  222.0020 O   0  0  0  0  0  0  0  0  0  0  0  0
  140.6030   74.2980  220.6750 C   0  0  0  0  0  0  0  0  0  0  0  0
  139.3700   73.7290  220.0220 C   0  0  0  0  0  0  0  0  0  0  0  0
  138.7710   72.8700  221.0890 N   0  0  0  0  0  0  0  0  0  0  0  0
  137.5060   73.0950  221.6250 C   0  0  0  0  0  0  0  0  0  0  0  0
  136.6560   72.1160  221.4750 O   0  0  0  0  0  0  0  0  0  0  0  0
  136.9360   74.2320  222.3300 C   0  0  0  0  0  0  0  0  0  0  0  0
  137.7120   75.3420  222.7100 N   0  0  0  0  0  0  0  0  0  0  0  0
  137.5520   76.6060  222.0130 C   0  0  0  0  0  0  0  0  0  0  0  0
  136.7360   76.7340  221.0680 O   0  0  0  0  0  0  0  0  0  0  0  0
  138.3690   77.7300  222.4440 C   0  0  0  0  0  0  0  0  0  0  0  0
  137.7630   78.9390  222.7260 C   0  0  0  0  0  0  0  0  0  0  0  0
  138.4880   80.0370  223.1380 C   0  0  0  0  0  0  0  0  0  0  0  0
  139.8560   79.9540  223.2790 C   0  0  0  0  0  0  0  0  0  0  0  0
  140.5620   81.0590  223.6910 C   0  0  0  0  0  0  0  0  0  0  0  0
  141.9320   80.9680  223.8310 C   0  0  0  0  0  0  0  0  0  0  0  0
  142.6140   82.0670  224.2370 F   0  0  0  0  0  0  0  0  0  0  0  0
  142.5400   79.7620  223.5490 C   0  0  0  0  0  0  0  0  0  0  0  0
  141.8140   78.6520  223.1340 C   0  0  0  0  0  0  0  0  0  0  0  0
  140.4400   78.7360  222.9920 C   0  0  0  0  0  0  0  0  0  0  0  0
  139.7080   77.6620  222.5870 N   0  0  0  0  0  0  0  0  0  0  0  0
  136.5106   67.8362  223.5201 H   0  0  0  0  0  0  0  0  0  0  0  0
  136.2818   69.0977  222.2620 H   0  0  0  0  0  0  0  0  0  0  0  0
  137.7677   68.0883  222.2620 H   0  0  0  0  0  0  0  0  0  0  0  0
  137.2126   69.7627  225.8602 H   0  0  0  0  0  0  0  0  0  0  0  0
  136.4444   70.9944  224.8021 H   0  0  0  0  0  0  0  0  0  0  0  0
  135.8352   69.3046  224.8021 H   0  0  0  0  0  0  0  0  0  0  0  0
  138.4747   67.9257  224.8972 H   0  0  0  0  0  0  0  0  0  0  0  0
  139.6230   68.6669  223.6923 H   0  0  0  0  0  0  0  0  0  0  0  0
  140.4301   71.0531  224.1831 H   0  0  0  0  0  0  0  0  0  0  0  0
  141.4863   72.3966  225.9484 H   0  0  0  0  0  0  0  0  0  0  0  0
  139.7819   69.8340  228.9254 H   0  0  0  0  0  0  0  0  0  0  0  0
  138.7331   68.4984  227.1569 H   0  0  0  0  0  0  0  0  0  0  0  0
  137.8640   71.7070  223.3490 H   0  0  0  0  0  0  0  0  0  0  0  0
  140.1216   71.3549  220.6111 H   0  0  0  0  0  0  0  0  0  0  0  0
  140.5655   72.5094  223.3974 H   0  0  0  0  0  0  0  0  0  0  0  0
  141.7700   72.2880  222.0884 H   0  0  0  0  0  0  0  0  0  0  0  0
  140.5933   75.3926  220.5671 H   0  0  0  0  0  0  0  0  0  0  0  0
  141.4876   73.8672  220.1831 H   0  0  0  0  0  0  0  0  0  0  0  0
  138.6763   74.5303  219.7275 H   0  0  0  0  0  0  0  0  0  0  0  0
  139.5933   73.1718  219.1002 H   0  0  0  0  0  0  0  0  0  0  0  0
  136.1351   74.6232  221.6854 H   0  0  0  0  0  0  0  0  0  0  0  0
  136.6741   73.7910  223.3031 H   0  0  0  0  0  0  0  0  0  0  0  0
  138.4250   75.3080  223.4960 H   0  0  0  0  0  0  0  0  0  0  0  0
  136.6719   79.0281  222.6189 H   0  0  0  0  0  0  0  0  0  0  0  0
  137.9718   80.9838  223.3552 H   0  0  0  0  0  0  0  0  0  0  0  0
  140.0417   82.0039  223.9064 H   0  0  0  0  0  0  0  0  0  0  0  0
  143.6315   79.6766  223.6558 H   0  0  0  0  0  0  0  0  0  0  0  0
  142.3319   77.7059  222.9182 H   0  0  0  0  0  0  0  0  0  0  0  0
  1  2  1  0
  2  3  1  0
  2  4  1  0
  4  5  1  0
  5  6  2  0
  6  7  1  0
  7  8  2  0
  8  9  1  0
  8 10  1  0
 10 11  2  0
  2 12  1  0
 12 13  1  0
 13 14  2  0
 13 15  1  0
 15 16  1  0
 16 17  1  0
 17 18  1  0
 18 19  1  0
 19 20  1  0
 20 21  1  0
 21 22  2  0
 21 23  1  0
 23 24  1  0
 24 25  1  0
 25 26  2  0
 25 27  1  0
 27 28  2  0
 28 29  1  0
 29 30  2  0
 30 31  1  0
 31 32  2  0
 32 33  1  0
 32 34  1  0
 34 35  2  0
 35 36  1  0
 36 37  2  0
 11  5  1  0
 20 15  1  0
 37 27  1  0
 36 30  1  0
  1 38  1  0
  1 39  1  0
  1 40  1  0
  3 41  1  0
  3 42  1  0
  3 43  1  0
  4 44  1  0
  4 45  1  0
  6 46  1  0
  7 47  1  0
 10 48  1  0
 11 49  1  0
 12 50  1  0
 15 51  1  6
 16 52  1  0
 16 53  1  0
 18 54  1  0
 18 55  1  0
 19 56  1  0
 19 57  1  0
 23 58  1  0
 23 59  1  0
 24 60  1  0
 28 61  1  0
 29 62  1  0
 31 63  1  0
 34 64  1  0
 35 65  1  0
M  END
>  <smiles>  (5) 
CC(C)(Cc1ccc(F)cc1)NC(=O)C1COCCN1C(=O)CNC(=O)c1ccc2cc(F)ccc2n1

>  <score_type>  (5) 
oracle

>  <origin>  (5) 
autodockgpu

>  <m_score__min__energy>  (5) 
-9.1099999999999994

>  <m_primary>  (5) 
energy

>  <meeko>  (5) 
{"free_energy": -8.55, "intermolecular_energy": -10.93, "internal_energy": -2.83, "cluster_size": 2, "cluster_id": 3, "rank_in_cluster": 1}

>  <energy>  (5) 
-8.56

>  <cluster_rmsd>  (5) 
0.2

>  <rmsd>  (5) 
270.13

>  <cluster>  (5) 
2

$$$$

     RDKit          3D

 65 68  0  0  1  0  0  0  0  0999 V2000
  138.7580   77.8390  222.5650 C   0  0  0  0  0  0  0  0  0  0  0  0
  139.3210   77.1530  221.3610 C   0  0  0  0  0  0  0  0  0  0  0  0
  139.0660   78.0570  220.1750 C   0  0  0  0  0  0  0  0  0  0  0  0
  140.8370   77.1280  221.5390 C   0  0  0  0  0  0  0  0  0  0  0  0
  141.3560   78.3340  222.2170 C   0  0  0  0  0  0  0  0  0  0  0  0
  141.6360   78.3370  223.5820 C   0  0  0  0  0  0  0  0  0  0  0  0
  142.1220   79.4570  224.2280 C   0  0  0  0  0  0  0  0  0  0  0  0
  142.3520   80.6260  223.5370 C   0  0  0  0  0  0  0  0  0  0  0  0
  142.8270   81.7550  224.1140 F   0  0  0  0  0  0  0  0  0  0  0  0
  142.0840   80.6510  222.1860 C   0  0  0  0  0  0  0  0  0  0  0  0
  141.5990   79.5250  221.5560 C   0  0  0  0  0  0  0  0  0  0  0  0
  138.8780   75.8140  221.1490 N   0  0  0  0  0  0  0  0  0  0  0  0
  137.4780   75.4910  220.9210 C   0  0  0  0  0  0  0  0  0  0  0  0
  136.7250   76.4940  220.9300 O   0  0  0  0  0  0  0  0  0  0  0  0
  137.1550   74.1100  220.7220 C   0  0  2  0  0  0  0  0  0  0  0  0
  136.9290   73.2870  222.0050 C   0  0  0  0  0  0  0  0  0  0  0  0
  137.2330   71.9680  221.7490 O   0  0  0  0  0  0  0  0  0  0  0  0
  136.7040   71.4190  220.6170 C   0  0  0  0  0  0  0  0  0  0  0  0
  137.2340   72.0970  219.3810 C   0  0  0  0  0  0  0  0  0  0  0  0
  138.0150   73.2520  219.9220 N   0  0  0  0  0  0  0  0  0  0  0  0
  139.3840   73.4060  219.7200 C   0  0  0  0  0  0  0  0  0  0  0  0
  139.7290   74.4630  219.0360 O   0  0  0  0  0  0  0  0  0  0  0  0
  140.5240   72.6020  220.1280 C   0  0  0  0  0  0  0  0  0  0  0  0
  140.4920   71.7850  221.2710 N   0  0  0  0  0  0  0  0  0  0  0  0
  140.1850   72.3670  222.5660 C   0  0  0  0  0  0  0  0  0  0  0  0
  139.9510   73.5940  222.6930 O   0  0  0  0  0  0  0  0  0  0  0  0
  140.1550   71.4840  223.7210 C   0  0  0  0  0  0  0  0  0  0  0  0
  139.6150   70.2190  223.5920 C   0  0  0  0  0  0  0  0  0  0  0  0
  139.5600   69.3400  224.6530 C   0  0  0  0  0  0  0  0  0  0  0  0
  140.0490   69.7080  225.8870 C   0  0  0  0  0  0  0  0  0  0  0  0
  139.9860   68.8190  226.9340 C   0  0  0  0  0  0  0  0  0  0  0  0
  140.4770   69.1950  228.1670 C   0  0  0  0  0  0  0  0  0  0  0  0
  140.4070   68.3060  229.1880 F   0  0  0  0  0  0  0  0  0  0  0  0
  141.0160   70.4580  228.2980 C   0  0  0  0  0  0  0  0  0  0  0  0
  141.0740   71.3480  227.2330 C   0  0  0  0  0  0  0  0  0  0  0  0
  140.5830   70.9770  225.9930 C   0  0  0  0  0  0  0  0  0  0  0  0
  140.6300   71.8320  224.9340 N   0  0  0  0  0  0  0  0  0  0  0  0
  139.1496   77.3618  223.4755 H   0  0  0  0  0  0  0  0  0  0  0  0
  139.0494   78.8996  222.5525 H   0  0  0  0  0  0  0  0  0  0  0  0
  137.6609   77.7600  222.5525 H   0  0  0  0  0  0  0  0  0  0  0  0
  138.7835   79.0586  220.5314 H   0  0  0  0  0  0  0  0  0  0  0  0
  139.9790   78.1287  219.5656 H   0  0  0  0  0  0  0  0  0  0  0  0
  138.2501   77.6410  219.5656 H   0  0  0  0  0  0  0  0  0  0  0  0
  141.1056   76.2455  222.1381 H   0  0  0  0  0  0  0  0  0  0  0  0
  141.2868   77.0938  220.5357 H   0  0  0  0  0  0  0  0  0  0  0  0
  141.4647   77.4189  224.1632 H   0  0  0  0  0  0  0  0  0  0  0  0
  142.3279   79.4148  225.3077 H   0  0  0  0  0  0  0  0  0  0  0  0
  142.2574   81.5713  221.6089 H   0  0  0  0  0  0  0  0  0  0  0  0
  141.3954   79.5757  220.4762 H   0  0  0  0  0  0  0  0  0  0  0  0
  139.5770   75.0090  221.1530 H   0  0  0  0  0  0  0  0  0  0  0  0
  136.2423   74.3275  220.1478 H   0  0  0  0  0  0  0  0  0  0  0  0
  137.5795   73.6669  222.8066 H   0  0  0  0  0  0  0  0  0  0  0  0
  135.8792   73.3725  222.3222 H   0  0  0  0  0  0  0  0  0  0  0  0
  136.9660   70.3513  220.5803 H   0  0  0  0  0  0  0  0  0  0  0  0
  135.6123   71.5510  220.6445 H   0  0  0  0  0  0  0  0  0  0  0  0
  137.8826   71.4181  218.8080 H   0  0  0  0  0  0  0  0  0  0  0  0
  136.4377   72.4062  218.6879 H   0  0  0  0  0  0  0  0  0  0  0  0
  140.7497   71.9370  219.2813 H   0  0  0  0  0  0  0  0  0  0  0  0
  141.2557   73.3711  220.4162 H   0  0  0  0  0  0  0  0  0  0  0  0
  140.6830   70.7410  221.2430 H   0  0  0  0  0  0  0  0  0  0  0  0
  139.2179   69.9042  222.6157 H   0  0  0  0  0  0  0  0  0  0  0  0
  139.1235   68.3400  224.5133 H   0  0  0  0  0  0  0  0  0  0  0  0
  139.5492   67.8198  226.7901 H   0  0  0  0  0  0  0  0  0  0  0  0
  141.4120   70.7699  229.2757 H   0  0  0  0  0  0  0  0  0  0  0  0
  141.5102   72.3478  227.3750 H   0  0  0  0  0  0  0  0  0  0  0  0
  1  2  1  0
  2  3  1  0
  2  4  1  0
  4  5  1  0
  5  6  2  0
  6  7  1  0
  7  8  2  0
  8  9  1  0
  8 10  1  0
 10 11  2  0
  2 12  1  0
 12 13  1  0
 13 14  2  0
 13 15  1  0
 15 16  1  0
 16 17  1  0
 17 18  1  0
 18 19  1  0
 19 20  1  0
 20 21  1  0
 21 22  2  0
 21 23  1  0
 23 24  1  0
 24 25  1  0
 25 26  2  0
 25 27  1  0
 27 28  2  0
 28 29  1  0
 29 30  2  0
 30 31  1  0
 31 32  2  0
 32 33  1  0
 32 34  1  0
 34 35  2  0
 35 36  1  0
 36 37  2  0
 11  5  1  0
 20 15  1  0
 37 27  1  0
 36 30  1  0
  1 38  1  0
  1 39  1  0
  1 40  1  0
  3 41  1  0
  3 42  1  0
  3 43  1  0
  4 44  1  0
  4 45  1  0
  6 46  1  0
  7 47  1  0
 10 48  1  0
 11 49  1  0
 12 50  1  0
 15 51  1  6
 16 52  1  0
 16 53  1  0
 18 54  1  0
 18 55  1  0
 19 56  1  0
 19 57  1  0
 23 58  1  0
 23 59  1  0
 24 60  1  0
 28 61  1  0
 29 62  1  0
 31 63  1  0
 34 64  1  0
 35 65  1  0
M  END
>  <smiles>  (6) 
CC(C)(Cc1ccc(F)cc1)NC(=O)C1COCCN1C(=O)CNC(=O)c1ccc2cc(F)ccc2n1

>  <score_type>  (6) 
oracle

>  <origin>  (6) 
autodockgpu

>  <m_score__min__energy>  (6) 
-9.1099999999999994

>  <m_primary>  (6) 
energy

>  <meeko>  (6) 
{"free_energy": -7.72, "intermolecular_energy": -10.11, "internal_energy": -3.5, "cluster_size": 3, "cluster_id": 6, "rank_in_cluster": 2}

>  <energy>  (6) 
-8.56

>  <cluster_rmsd>  (6) 
0.19

>  <rmsd>  (6) 
270.14

>  <cluster>  (6) 
2

$$$$

     RDKit          3D

 65 68  0  0  1  0  0  0  0  0999 V2000
  142.0710   80.9830  222.0410 C   0  0  0  0  0  0  0  0  0  0  0  0
  141.3210   79.7180  222.3110 C   0  0  0  0  0  0  0  0  0  0  0  0
  141.2080   79.5790  223.8130 C   0  0  0  0  0  0  0  0  0  0  0  0
  139.8940   79.9370  221.8120 C   0  0  0  0  0  0  0  0  0  0  0  0
  139.0810   78.7040  221.8380 C   0  0  0  0  0  0  0  0  0  0  0  0
  138.6580   78.1370  223.0380 C   0  0  0  0  0  0  0  0  0  0  0  0
  137.8970   76.9850  223.0770 C   0  0  0  0  0  0  0  0  0  0  0  0
  137.5220   76.3480  221.9150 C   0  0  0  0  0  0  0  0  0  0  0  0
  136.7760   75.2180  221.8870 F   0  0  0  0  0  0  0  0  0  0  0  0
  137.9250   76.8880  220.7130 C   0  0  0  0  0  0  0  0  0  0  0  0
  138.6860   78.0380  220.6920 C   0  0  0  0  0  0  0  0  0  0  0  0
  141.8350   78.5480  221.6780 N   0  0  0  0  0  0  0  0  0  0  0  0
  141.8200   78.3830  220.2330 C   0  0  0  0  0  0  0  0  0  0  0  0
  141.3180   79.3560  219.6230 O   0  0  0  0  0  0  0  0  0  0  0  0
  142.3640   77.1640  219.7140 C   0  0  2  0  0  0  0  0  0  0  0  0
  142.0000   76.8390  218.2520 C   0  0  0  0  0  0  0  0  0  0  0  0
  142.0340   75.4740  218.0750 O   0  0  0  0  0  0  0  0  0  0  0  0
  143.1300   74.8150  218.5500 C   0  0  0  0  0  0  0  0  0  0  0  0
  143.2290   74.9290  220.0500 C   0  0  0  0  0  0  0  0  0  0  0  0
  142.1480   75.9000  220.4000 N   0  0  0  0  0  0  0  0  0  0  0  0
  141.0690   75.5740  221.2170 C   0  0  0  0  0  0  0  0  0  0  0  0
  140.8290   76.4170  222.1840 O   0  0  0  0  0  0  0  0  0  0  0  0
  140.1420   74.4540  221.2040 C   0  0  0  0  0  0  0  0  0  0  0  0
  139.9550   73.6240  222.3230 N   0  0  0  0  0  0  0  0  0  0  0  0
  140.5460   72.2970  222.3440 C   0  0  0  0  0  0  0  0  0  0  0  0
  141.2200   71.8660  221.3780 O   0  0  0  0  0  0  0  0  0  0  0  0
  140.3340   71.4760  223.5260 C   0  0  0  0  0  0  0  0  0  0  0  0
  139.6930   70.2590  223.3990 C   0  0  0  0  0  0  0  0  0  0  0  0
  139.4640   69.4400  224.4850 C   0  0  0  0  0  0  0  0  0  0  0  0
  139.8770   69.8230  225.7420 C   0  0  0  0  0  0  0  0  0  0  0  0
  139.6410   68.9930  226.8130 C   0  0  0  0  0  0  0  0  0  0  0  0
  140.0570   69.3830  228.0700 C   0  0  0  0  0  0  0  0  0  0  0  0
  139.8160   68.5530  229.1150 F   0  0  0  0  0  0  0  0  0  0  0  0
  140.6970   70.5980  228.2000 C   0  0  0  0  0  0  0  0  0  0  0  0
  140.9290   71.4270  227.1090 C   0  0  0  0  0  0  0  0  0  0  0  0
  140.5150   71.0420  225.8460 C   0  0  0  0  0  0  0  0  0  0  0  0
  140.7330   71.8380  224.7620 N   0  0  0  0  0  0  0  0  0  0  0  0
  142.3504   81.4543  222.9948 H   0  0  0  0  0  0  0  0  0  0  0  0
  142.9797   80.7546  221.4648 H   0  0  0  0  0  0  0  0  0  0  0  0
  141.4346   81.6707  221.4648 H   0  0  0  0  0  0  0  0  0  0  0  0
  141.8302   80.3444  224.2999 H   0  0  0  0  0  0  0  0  0  0  0  0
  140.1589   79.7124  224.1157 H   0  0  0  0  0  0  0  0  0  0  0  0
  141.5527   78.5792  224.1157 H   0  0  0  0  0  0  0  0  0  0  0  0
  139.4102   80.6901  222.4513 H   0  0  0  0  0  0  0  0  0  0  0  0
  139.9574   80.2689  220.7652 H   0  0  0  0  0  0  0  0  0  0  0  0
  138.9389   78.6220  223.9845 H   0  0  0  0  0  0  0  0  0  0  0  0
  137.5867   76.5714  224.0479 H   0  0  0  0  0  0  0  0  0  0  0  0
  137.6393   76.4011  219.7689 H   0  0  0  0  0  0  0  0  0  0  0  0
  138.9935   78.4449  219.7174 H   0  0  0  0  0  0  0  0  0  0  0  0
  142.2500   77.7580  222.2610 H   0  0  0  0  0  0  0  0  0  0  0  0
  143.4071   77.4763  219.8702 H   0  0  0  0  0  0  0  0  0  0  0  0
  140.9900   77.2146  218.0310 H   0  0  0  0  0  0  0  0  0  0  0  0
  142.7201   77.3200  217.5737 H   0  0  0  0  0  0  0  0  0  0  0  0
  143.0564   73.7524  218.2753 H   0  0  0  0  0  0  0  0  0  0  0  0
  144.0282   75.2697  218.1068 H   0  0  0  0  0  0  0  0  0  0  0  0
  143.0531   73.9552  220.5305 H   0  0  0  0  0  0  0  0  0  0  0  0
  144.2232   75.2551  220.3895 H   0  0  0  0  0  0  0  0  0  0  0  0
  139.1543   74.8757  220.9660 H   0  0  0  0  0  0  0  0  0  0  0  0
  140.6203   73.7692  220.4883 H   0  0  0  0  0  0  0  0  0  0  0  0
  139.3940   73.9190  223.1750 H   0  0  0  0  0  0  0  0  0  0  0  0
  139.3557   69.9339  222.4038 H   0  0  0  0  0  0  0  0  0  0  0  0
  138.9497   68.4775  224.3467 H   0  0  0  0  0  0  0  0  0  0  0  0
  139.1274   68.0309  226.6697 H   0  0  0  0  0  0  0  0  0  0  0  0
  141.0336   70.9202  229.1964 H   0  0  0  0  0  0  0  0  0  0  0  0
  141.4421   72.3898  227.2495 H   0  0  0  0  0  0  0  0  0  0  0  0
  1  2  1  0
  2  3  1  0
  2  4  1  0
  4  5  1  0
  5  6  2  0
  6  7  1  0
  7  8  2  0
  8  9  1  0
  8 10  1  0
 10 11  2  0
  2 12  1  0
 12 13  1  0
 13 14  2  0
 13 15  1  0
 15 16  1  0
 16 17  1  0
 17 18  1  0
 18 19  1  0
 19 20  1  0
 20 21  1  0
 21 22  2  0
 21 23  1  0
 23 24  1  0
 24 25  1  0
 25 26  2  0
 25 27  1  0
 27 28  2  0
 28 29  1  0
 29 30  2  0
 30 31  1  0
 31 32  2  0
 32 33  1  0
 32 34  1  0
 34 35  2  0
 35 36  1  0
 36 37  2  0
 11  5  1  0
 20 15  1  0
 37 27  1  0
 36 30  1  0
  1 38  1  0
  1 39  1  0
  1 40  1  0
  3 41  1  0
  3 42  1  0
  3 43  1  0
  4 44  1  0
  4 45  1  0
  6 46  1  0
  7 47  1  0
 10 48  1  0
 11 49  1  0
 12 50  1  0
 15 51  1  6
 16 52  1  0
 16 53  1  0
 18 54  1  0
 18 55  1  0
 19 56  1  0
 19 57  1  0
 23 58  1  0
 23 59  1  0
 24 60  1  0
 28 61  1  0
 29 62  1  0
 31 63  1  0
 34 64  1  0
 35 65  1  0
M  END
>  <smiles>  (7) 
CC(C)(Cc1ccc(F)cc1)NC(=O)C1COCCN1C(=O)CNC(=O)c1ccc2cc(F)ccc2n1

>  <score_type>  (7) 
oracle

>  <origin>  (7) 
autodockgpu

>  <m_score__min__energy>  (7) 
-9.1099999999999994

>  <m_primary>  (7) 
energy

>  <meeko>  (7) 
{"free_energy": -8.63, "intermolecular_energy": -11.01, "internal_energy": -2.85, "cluster_size": 4, "cluster_id": 2, "rank_in_cluster": 1}

>  <energy>  (7) 
-8.56

>  <cluster_rmsd>  (7) 
0.29

>  <rmsd>  (7) 
270.06

>  <cluster>  (7) 
2

$$$$

     RDKit          3D

 65 68  0  0  1  0  0  0  0  0999 V2000
  142.1050   80.8740  222.0800 C   0  0  0  0  0  0  0  0  0  0  0  0
  141.3520   79.6110  222.3500 C   0  0  0  0  0  0  0  0  0  0  0  0
  141.3440   79.4080  223.8490 C   0  0  0  0  0  0  0  0  0  0  0  0
  139.8980   79.8750  221.9650 C   0  0  0  0  0  0  0  0  0  0  0  0
  139.0780   78.6460  221.9400 C   0  0  0  0  0  0  0  0  0  0  0  0
  138.5790   78.1290  220.7470 C   0  0  0  0  0  0  0  0  0  0  0  0
  137.8120   76.9810  220.7100 C   0  0  0  0  0  0  0  0  0  0  0  0
  137.5090   76.2970  221.8670 C   0  0  0  0  0  0  0  0  0  0  0  0
  136.7630   75.1670  221.8950 F   0  0  0  0  0  0  0  0  0  0  0  0
  137.9900   76.7860  223.0610 C   0  0  0  0  0  0  0  0  0  0  0  0
  138.7540   77.9340  223.0810 C   0  0  0  0  0  0  0  0  0  0  0  0
  141.7970   78.4620  221.6320 N   0  0  0  0  0  0  0  0  0  0  0  0
  141.7170   78.3790  220.1810 C   0  0  0  0  0  0  0  0  0  0  0  0
  141.2270   79.4020  219.6480 O   0  0  0  0  0  0  0  0  0  0  0  0
  142.1950   77.1730  219.5740 C   0  0  2  0  0  0  0  0  0  0  0  0
  141.6320   76.8640  218.1730 C   0  0  0  0  0  0  0  0  0  0  0  0
  141.6540   75.5010  217.9730 O   0  0  0  0  0  0  0  0  0  0  0  0
  142.8120   74.8490  218.2800 C   0  0  0  0  0  0  0  0  0  0  0  0
  143.1200   74.9440  219.7520 C   0  0  0  0  0  0  0  0  0  0  0  0
  142.0890   75.8980  220.2650 N   0  0  0  0  0  0  0  0  0  0  0  0
  141.1390   75.5490  221.2210 C   0  0  0  0  0  0  0  0  0  0  0  0
  141.1840   76.2390  222.3270 O   0  0  0  0  0  0  0  0  0  0  0  0
  140.0890   74.5430  221.2260 C   0  0  0  0  0  0  0  0  0  0  0  0
  139.8700   73.6970  222.3270 N   0  0  0  0  0  0  0  0  0  0  0  0
  140.5790   72.4320  222.4170 C   0  0  0  0  0  0  0  0  0  0  0  0
  141.3850   72.0700  221.5260 O   0  0  0  0  0  0  0  0  0  0  0  0
  140.3270   71.5910  223.5760 C   0  0  0  0  0  0  0  0  0  0  0  0
  139.6350   70.4070  223.4170 C   0  0  0  0  0  0  0  0  0  0  0  0
  139.3680   69.5720  224.4810 C   0  0  0  0  0  0  0  0  0  0  0  0
  139.7920   69.9040  225.7490 C   0  0  0  0  0  0  0  0  0  0  0  0
  139.5170   69.0580  226.7980 C   0  0  0  0  0  0  0  0  0  0  0  0
  139.9450   69.3980  228.0650 C   0  0  0  0  0  0  0  0  0  0  0  0
  139.6660   68.5530  229.0880 F   0  0  0  0  0  0  0  0  0  0  0  0
  140.6370   70.5800  228.2270 C   0  0  0  0  0  0  0  0  0  0  0  0
  140.9090   71.4260  227.1590 C   0  0  0  0  0  0  0  0  0  0  0  0
  140.4820   71.0920  225.8850 C   0  0  0  0  0  0  0  0  0  0  0  0
  140.7370   71.9040  224.8230 N   0  0  0  0  0  0  0  0  0  0  0  0
  142.3856   81.3446  223.0338 H   0  0  0  0  0  0  0  0  0  0  0  0
  143.0132   80.6434  221.5038 H   0  0  0  0  0  0  0  0  0  0  0  0
  141.4703   81.5633  221.5038 H   0  0  0  0  0  0  0  0  0  0  0  0
  141.3826   80.3857  224.3516 H   0  0  0  0  0  0  0  0  0  0  0  0
  140.4243   78.8808  224.1427 H   0  0  0  0  0  0  0  0  0  0  0  0
  142.2192   78.8099  224.1427 H   0  0  0  0  0  0  0  0  0  0  0  0
  139.4626   80.5728  222.6954 H   0  0  0  0  0  0  0  0  0  0  0  0
  139.8965   80.2938  220.9479 H   0  0  0  0  0  0  0  0  0  0  0  0
  138.8027   78.6511  219.8050 H   0  0  0  0  0  0  0  0  0  0  0  0
  137.4384   76.6082  219.7449 H   0  0  0  0  0  0  0  0  0  0  0  0
  137.7645   76.2601  224.0005 H   0  0  0  0  0  0  0  0  0  0  0  0
  139.1232   78.3009  224.0501 H   0  0  0  0  0  0  0  0  0  0  0  0
  142.2060   77.6260  222.1530 H   0  0  0  0  0  0  0  0  0  0  0  0
  143.2471   77.4937  219.5877 H   0  0  0  0  0  0  0  0  0  0  0  0
  140.5974   77.2308  218.1018 H   0  0  0  0  0  0  0  0  0  0  0  0
  142.2445   77.3626  217.4073 H   0  0  0  0  0  0  0  0  0  0  0  0
  142.7109   73.7893  218.0027 H   0  0  0  0  0  0  0  0  0  0  0  0
  143.6344   75.3205  217.7220 H   0  0  0  0  0  0  0  0  0  0  0  0
  143.0230   73.9619  220.2379 H   0  0  0  0  0  0  0  0  0  0  0  0
  144.1489   75.2770  219.9532 H   0  0  0  0  0  0  0  0  0  0  0  0
  139.1451   75.0831  221.0608 H   0  0  0  0  0  0  0  0  0  0  0  0
  140.4437   73.8369  220.4607 H   0  0  0  0  0  0  0  0  0  0  0  0
  139.2000   73.9340  223.1150 H   0  0  0  0  0  0  0  0  0  0  0  0
  139.2869   70.1219  222.4132 H   0  0  0  0  0  0  0  0  0  0  0  0
  138.8137   68.6362  224.3167 H   0  0  0  0  0  0  0  0  0  0  0  0
  138.9632   68.1227  226.6292 H   0  0  0  0  0  0  0  0  0  0  0  0
  140.9840   70.8614  229.2322 H   0  0  0  0  0  0  0  0  0  0  0  0
  141.4636   72.3612  227.3256 H   0  0  0  0  0  0  0  0  0  0  0  0
  1  2  1  0
  2  3  1  0
  2  4  1  0
  4  5  1  0
  5  6  2  0
  6  7  1  0
  7  8  2  0
  8  9  1  0
  8 10  1  0
 10 11  2  0
  2 12  1  0
 12 13  1  0
 13 14  2  0
 13 15  1  0
 15 16  1  0
 16 17  1  0
 17 18  1  0
 18 19  1  0
 19 20  1  0
 20 21  1  0
 21 22  2  0
 21 23  1  0
 23 24  1  0
 24 25  1  0
 25 26  2  0
 25 27  1  0
 27 28  2  0
 28 29  1  0
 29 30  2  0
 30 31  1  0
 31 32  2  0
 32 33  1  0
 32 34  1  0
 34 35  2  0
 35 36  1  0
 36 37  2  0
 11  5  1  0
 20 15  1  0
 37 27  1  0
 36 30  1  0
  1 38  1  0
  1 39  1  0
  1 40  1  0
  3 41  1  0
  3 42  1  0
  3 43  1  0
  4 44  1  0
  4 45  1  0
  6 46  1  0
  7 47  1  0
 10 48  1  0
 11 49  1  0
 12 50  1  0
 15 51  1  6
 16 52  1  0
 16 53  1  0
 18 54  1  0
 18 55  1  0
 19 56  1  0
 19 57  1  0
 23 58  1  0
 23 59  1  0
 24 60  1  0
 28 61  1  0
 29 62  1  0
 31 63  1  0
 34 64  1  0
 35 65  1  0
M  END
>  <smiles>  (8) 
CC(C)(Cc1ccc(F)cc1)NC(=O)C1COCCN1C(=O)CNC(=O)c1ccc2cc(F)ccc2n1

>  <score_type>  (8) 
oracle

>  <origin>  (8) 
autodockgpu

>  <m_score__min__energy>  (8) 
-9.1099999999999994

>  <m_primary>  (8) 
energy

>  <meeko>  (8) 
{"free_energy": -8.56, "intermolecular_energy": -10.95, "internal_energy": -3.04, "cluster_size": 4, "cluster_id": 2, "rank_in_cluster": 2}

>  <energy>  (8) 
-8.55

>  <cluster_rmsd>  (8) 
0.0

>  <rmsd>  (8) 
269.99

>  <cluster>  (8) 
3

$$$$

     RDKit          3D

 65 68  0  0  1  0  0  0  0  0999 V2000
  140.2130   77.7380  222.7130 C   0  0  0  0  0  0  0  0  0  0  0  0
  140.7020   77.3750  221.3480 C   0  0  0  0  0  0  0  0  0  0  0  0
  139.4940   77.3340  220.4380 C   0  0  0  0  0  0  0  0  0  0  0  0
  141.5450   78.5500  220.8560 C   0  0  0  0  0  0  0  0  0  0  0  0
  141.8180   79.5430  221.9160 C   0  0  0  0  0  0  0  0  0  0  0  0
  142.9050   79.4070  222.7770 C   0  0  0  0  0  0  0  0  0  0  0  0
  143.1730   80.3290  223.7700 C   0  0  0  0  0  0  0  0  0  0  0  0
  142.3650   81.4300  223.9470 C   0  0  0  0  0  0  0  0  0  0  0  0
  142.5750   82.3670  224.9020 F   0  0  0  0  0  0  0  0  0  0  0  0
  141.2830   81.5900  223.1100 C   0  0  0  0  0  0  0  0  0  0  0  0
  141.0290   80.6610  222.1230 C   0  0  0  0  0  0  0  0  0  0  0  0
  141.5010   76.1960  221.2710 N   0  0  0  0  0  0  0  0  0  0  0  0
  142.2020   75.8160  220.0540 C   0  0  0  0  0  0  0  0  0  0  0  0
  142.0310   76.6200  219.1060 O   0  0  0  0  0  0  0  0  0  0  0  0
  142.9720   74.6100  220.1000 C   0  0  2  0  0  0  0  0  0  0  0  0
  144.1260   74.5170  219.0830 C   0  0  0  0  0  0  0  0  0  0  0  0
  144.3690   73.1910  218.8020 O   0  0  0  0  0  0  0  0  0  0  0  0
  144.4750   72.3420  219.8650 C   0  0  0  0  0  0  0  0  0  0  0  0
  143.1790   72.2580  220.6290 C   0  0  0  0  0  0  0  0  0  0  0  0
  142.3290   73.3110  219.9930 N   0  0  0  0  0  0  0  0  0  0  0  0
  141.1300   73.0300  219.3430 C   0  0  0  0  0  0  0  0  0  0  0  0
  141.1180   73.2840  218.0640 O   0  0  0  0  0  0  0  0  0  0  0  0
  139.8630   72.5010  219.8240 C   0  0  0  0  0  0  0  0  0  0  0  0
  139.7640   71.7720  221.0220 N   0  0  0  0  0  0  0  0  0  0  0  0
  140.1380   72.3960  222.2800 C   0  0  0  0  0  0  0  0  0  0  0  0
  140.5570   73.5780  222.3240 O   0  0  0  0  0  0  0  0  0  0  0  0
  140.0110   71.6080  223.4950 C   0  0  0  0  0  0  0  0  0  0  0  0
  139.2100   70.4820  223.4920 C   0  0  0  0  0  0  0  0  0  0  0  0
  139.0540   69.6990  224.6160 C   0  0  0  0  0  0  0  0  0  0  0  0
  139.7010   70.0250  225.7870 C   0  0  0  0  0  0  0  0  0  0  0  0
  139.5330   69.2310  226.8970 C   0  0  0  0  0  0  0  0  0  0  0  0
  140.1850   69.5640  228.0670 C   0  0  0  0  0  0  0  0  0  0  0  0
  140.0080   68.7710  229.1530 F   0  0  0  0  0  0  0  0  0  0  0  0
  140.9850   70.6880  228.0730 C   0  0  0  0  0  0  0  0  0  0  0  0
  141.1470   71.4820  226.9440 C   0  0  0  0  0  0  0  0  0  0  0  0
  140.4960   71.1540  225.7670 C   0  0  0  0  0  0  0  0  0  0  0  0
  140.6400   71.9160  224.6480 N   0  0  0  0  0  0  0  0  0  0  0  0
  140.8535   77.2625  223.4704 H   0  0  0  0  0  0  0  0  0  0  0  0
  140.2481   78.8305  222.8366 H   0  0  0  0  0  0  0  0  0  0  0  0
  139.1775   77.3881  222.8366 H   0  0  0  0  0  0  0  0  0  0  0  0
  138.5778   77.3029  221.0460 H   0  0  0  0  0  0  0  0  0  0  0  0
  139.4825   78.2323  219.8032 H   0  0  0  0  0  0  0  0  0  0  0  0
  139.5434   76.4370  219.8032 H   0  0  0  0  0  0  0  0  0  0  0  0
  142.5042   78.1622  220.4824 H   0  0  0  0  0  0  0  0  0  0  0  0
  140.9743   79.0586  220.0650 H   0  0  0  0  0  0  0  0  0  0  0  0
  143.5703   78.5385  222.6624 H   0  0  0  0  0  0  0  0  0  0  0  0
  144.0425   80.1820  224.4275 H   0  0  0  0  0  0  0  0  0  0  0  0
  140.6205   82.4600  223.2290 H   0  0  0  0  0  0  0  0  0  0  0  0
  140.1580   80.8159  221.4693 H   0  0  0  0  0  0  0  0  0  0  0  0
  141.6030   75.5590  222.1200 H   0  0  0  0  0  0  0  0  0  0  0  0
  143.2872   74.7621  221.1428 H   0  0  0  0  0  0  0  0  0  0  0  0
  143.8470   75.0448  218.1591 H   0  0  0  0  0  0  0  0  0  0  0  0
  145.0308   74.9800  219.5036 H   0  0  0  0  0  0  0  0  0  0  0  0
  144.7404   71.3396  219.4980 H   0  0  0  0  0  0  0  0  0  0  0  0
  145.2526   72.7270  220.5411 H   0  0  0  0  0  0  0  0  0  0  0  0
  142.7214   71.2638  220.5186 H   0  0  0  0  0  0  0  0  0  0  0  0
  143.3093   72.4087  221.7108 H   0  0  0  0  0  0  0  0  0  0  0  0
  139.1910   73.3649  219.9335 H   0  0  0  0  0  0  0  0  0  0  0  0
  139.6326   71.7347  219.0692 H   0  0  0  0  0  0  0  0  0  0  0  0
  139.4220   70.7680  221.0620 H   0  0  0  0  0  0  0  0  0  0  0  0
  138.6826   70.2029  222.5679 H   0  0  0  0  0  0  0  0  0  0  0  0
  138.4090   68.8088  224.5771 H   0  0  0  0  0  0  0  0  0  0  0  0
  138.8871   68.3417  226.8530 H   0  0  0  0  0  0  0  0  0  0  0  0
  141.5104   70.9640  228.9992 H   0  0  0  0  0  0  0  0  0  0  0  0
  141.7928   72.3715  226.9856 H   0  0  0  0  0  0  0  0  0  0  0  0
  1  2  1  0
  2  3  1  0
  2  4  1  0
  4  5  1  0
  5  6  2  0
  6  7  1  0
  7  8  2  0
  8  9  1  0
  8 10  1  0
 10 11  2  0
  2 12  1  0
 12 13  1  0
 13 14  2  0
 13 15  1  0
 15 16  1  0
 16 17  1  0
 17 18  1  0
 18 19  1  0
 19 20  1  0
 20 21  1  0
 21 22  2  0
 21 23  1  0
 23 24  1  0
 24 25  1  0
 25 26  2  0
 25 27  1  0
 27 28  2  0
 28 29  1  0
 29 30  2  0
 30 31  1  0
 31 32  2  0
 32 33  1  0
 32 34  1  0
 34 35  2  0
 35 36  1  0
 36 37  2  0
 11  5  1  0
 20 15  1  0
 37 27  1  0
 36 30  1  0
  1 38  1  0
  1 39  1  0
  1 40  1  0
  3 41  1  0
  3 42  1  0
  3 43  1  0
  4 44  1  0
  4 45  1  0
  6 46  1  0
  7 47  1  0
 10 48  1  0
 11 49  1  0
 12 50  1  0
 15 51  1  1
 16 52  1  0
 16 53  1  0
 18 54  1  0
 18 55  1  0
 19 56  1  0
 19 57  1  0
 23 58  1  0
 23 59  1  0
 24 60  1  0
 28 61  1  0
 29 62  1  0
 31 63  1  0
 34 64  1  0
 35 65  1  0
M  END
>  <smiles>  (9) 
CC(C)(Cc1ccc(F)cc1)NC(=O)C1COCCN1C(=O)CNC(=O)c1ccc2cc(F)ccc2n1

>  <score_type>  (9) 
oracle

>  <origin>  (9) 
autodockgpu

>  <m_score__min__energy>  (9) 
-9.1099999999999994

>  <m_primary>  (9) 
energy

>  <meeko>  (9) 
{"free_energy": -9.04, "intermolecular_energy": -11.43, "internal_energy": -2.43, "cluster_size": 3, "cluster_id": 1, "rank_in_cluster": 2}

>  <energy>  (9) 
-8.5

>  <cluster_rmsd>  (9) 
1.82

>  <rmsd>  (9) 
270.08

>  <cluster>  (9) 
3

$$$$

     RDKit          3D

 65 68  0  0  1  0  0  0  0  0999 V2000
  138.8320   76.7590  220.3800 C   0  0  0  0  0  0  0  0  0  0  0  0
  138.8840   76.4530  221.8430 C   0  0  0  0  0  0  0  0  0  0  0  0
  140.2770   75.9460  222.1430 C   0  0  0  0  0  0  0  0  0  0  0  0
  138.7670   77.7880  222.5750 C   0  0  0  0  0  0  0  0  0  0  0  0
  140.0450   78.5290  222.6250 C   0  0  0  0  0  0  0  0  0  0  0  0
  140.6240   79.0590  221.4740 C   0  0  0  0  0  0  0  0  0  0  0  0
  141.8170   79.7540  221.5070 C   0  0  0  0  0  0  0  0  0  0  0  0
  142.4850   79.9520  222.6950 C   0  0  0  0  0  0  0  0  0  0  0  0
  143.6560   80.6250  222.7920 F   0  0  0  0  0  0  0  0  0  0  0  0
  141.9350   79.4400  223.8490 C   0  0  0  0  0  0  0  0  0  0  0  0
  140.7430   78.7480  223.7990 C   0  0  0  0  0  0  0  0  0  0  0  0
  137.8580   75.5910  222.3300 N   0  0  0  0  0  0  0  0  0  0  0  0
  136.4490   75.9510  222.2600 C   0  0  0  0  0  0  0  0  0  0  0  0
  136.2450   77.0720  221.7370 O   0  0  0  0  0  0  0  0  0  0  0  0
  135.5110   75.0030  222.7820 C   0  0  2  0  0  0  0  0  0  0  0  0
  135.8270   74.4590  224.1890 C   0  0  0  0  0  0  0  0  0  0  0  0
  135.2750   73.2030  224.3170 O   0  0  0  0  0  0  0  0  0  0  0  0
  133.9760   73.0550  223.9250 C   0  0  0  0  0  0  0  0  0  0  0  0
  133.8190   73.3060  222.4480 C   0  0  0  0  0  0  0  0  0  0  0  0
  135.1650   73.8070  222.0320 N   0  0  0  0  0  0  0  0  0  0  0  0
  135.9660   73.1490  221.1020 C   0  0  0  0  0  0  0  0  0  0  0  0
  136.2550   73.8370  220.0320 O   0  0  0  0  0  0  0  0  0  0  0  0
  136.5530   71.8190  221.0930 C   0  0  0  0  0  0  0  0  0  0  0  0
  137.2140   71.2840  222.2120 N   0  0  0  0  0  0  0  0  0  0  0  0
  138.4760   71.8580  222.6460 C   0  0  0  0  0  0  0  0  0  0  0  0
  138.9990   72.8240  222.0380 O   0  0  0  0  0  0  0  0  0  0  0  0
  139.1220   71.2790  223.8130 C   0  0  0  0  0  0  0  0  0  0  0  0
  140.2060   71.9240  224.3780 C   0  0  0  0  0  0  0  0  0  0  0  0
  140.8560   71.4210  225.4840 C   0  0  0  0  0  0  0  0  0  0  0  0
  140.4350   70.2430  226.0620 C   0  0  0  0  0  0  0  0  0  0  0  0
  141.0960   69.7570  227.1650 C   0  0  0  0  0  0  0  0  0  0  0  0
  140.6690   68.5770  227.7390 C   0  0  0  0  0  0  0  0  0  0  0  0
  141.3320   68.1110  228.8260 F   0  0  0  0  0  0  0  0  0  0  0  0
  139.5870   67.9310  227.1780 C   0  0  0  0  0  0  0  0  0  0  0  0
  138.9280   68.4330  226.0630 C   0  0  0  0  0  0  0  0  0  0  0  0
  139.3510   69.6160  225.4820 C   0  0  0  0  0  0  0  0  0  0  0  0
  138.7200   70.1280  224.3890 N   0  0  0  0  0  0  0  0  0  0  0  0
  138.6493   77.8342  220.2366 H   0  0  0  0  0  0  0  0  0  0  0  0
  139.7897   76.4844  219.9137 H   0  0  0  0  0  0  0  0  0  0  0  0
  138.0188   76.1835  219.9137 H   0  0  0  0  0  0  0  0  0  0  0  0
  140.4214   75.8934  223.2322 H   0  0  0  0  0  0  0  0  0  0  0  0
  140.4042   74.9439  221.7075 H   0  0  0  0  0  0  0  0  0  0  0  0
  141.0185   76.6319  221.7075 H   0  0  0  0  0  0  0  0  0  0  0  0
  138.0212   78.4086  222.0567 H   0  0  0  0  0  0  0  0  0  0  0  0
  138.4693   77.5718  223.6116 H   0  0  0  0  0  0  0  0  0  0  0  0
  140.1151   78.9196  220.5088 H   0  0  0  0  0  0  0  0  0  0  0  0
  142.2387   80.1542  220.5732 H   0  0  0  0  0  0  0  0  0  0  0  0
  142.4470   79.5831  224.8120 H   0  0  0  0  0  0  0  0  0  0  0  0
  140.3277   78.3514  224.7372 H   0  0  0  0  0  0  0  0  0  0  0  0
  138.1060   74.6480  222.7610 H   0  0  0  0  0  0  0  0  0  0  0  0
  134.6637   75.7031  222.7378 H   0  0  0  0  0  0  0  0  0  0  0  0
  136.9169   74.3988  224.3253 H   0  0  0  0  0  0  0  0  0  0  0  0
  135.4052   75.1306  224.9513 H   0  0  0  0  0  0  0  0  0  0  0  0
  133.6478   72.0298  224.1513 H   0  0  0  0  0  0  0  0  0  0  0  0
  133.3629   73.7884  224.4693 H   0  0  0  0  0  0  0  0  0  0  0  0
  133.5641   72.3772  221.9166 H   0  0  0  0  0  0  0  0  0  0  0  0
  133.0093   74.0143  222.2183 H   0  0  0  0  0  0  0  0  0  0  0  0
  135.7335   71.1235  220.8592 H   0  0  0  0  0  0  0  0  0  0  0  0
  137.3782   71.9383  220.3756 H   0  0  0  0  0  0  0  0  0  0  0  0
  136.8360   70.4660  222.7720 H   0  0  0  0  0  0  0  0  0  0  0  0
  140.5598   72.8654  223.9322 H   0  0  0  0  0  0  0  0  0  0  0  0
  141.7149   71.9623  225.9075 H   0  0  0  0  0  0  0  0  0  0  0  0
  141.9544   70.3019  227.5847 H   0  0  0  0  0  0  0  0  0  0  0  0
  139.2356   66.9903  227.6270 H   0  0  0  0  0  0  0  0  0  0  0  0
  138.0693   67.8900  225.6414 H   0  0  0  0  0  0  0  0  0  0  0  0
  1  2  1  0
  2  3  1  0
  2  4  1  0
  4  5  1  0
  5  6  2  0
  6  7  1  0
  7  8  2  0
  8  9  1  0
  8 10  1  0
 10 11  2  0
  2 12  1  0
 12 13  1  0
 13 14  2  0
 13 15  1  0
 15 16  1  0
 16 17  1  0
 17 18  1  0
 18 19  1  0
 19 20  1  0
 20 21  1  0
 21 22  2  0
 21 23  1  0
 23 24  1  0
 24 25  1  0
 25 26  2  0
 25 27  1  0
 27 28  2  0
 28 29  1  0
 29 30  2  0
 30 31  1  0
 31 32  2  0
 32 33  1  0
 32 34  1  0
 34 35  2  0
 35 36  1  0
 36 37  2  0
 11  5  1  0
 20 15  1  0
 37 27  1  0
 36 30  1  0
  1 38  1  0
  1 39  1  0
  1 40  1  0
  3 41  1  0
  3 42  1  0
  3 43  1  0
  4 44  1  0
  4 45  1  0
  6 46  1  0
  7 47  1  0
 10 48  1  0
 11 49  1  0
 12 50  1  0
 15 51  1  1
 16 52  1  0
 16 53  1  0
 18 54  1  0
 18 55  1  0
 19 56  1  0
 19 57  1  0
 23 58  1  0
 23 59  1  0
 24 60  1  0
 28 61  1  0
 29 62  1  0
 31 63  1  0
 34 64  1  0
 35 65  1  0
M  END
>  <smiles>  (10) 
CC(C)(Cc1ccc(F)cc1)NC(=O)C1COCCN1C(=O)CNC(=O)c1ccc2cc(F)ccc2n1

>  <score_type>  (10) 
oracle

>  <origin>  (10) 
autodockgpu

>  <m_score__min__energy>  (10) 
-9.1099999999999994

>  <m_primary>  (10) 
energy

>  <meeko>  (10) 
{"free_energy": -7.29, "intermolecular_energy": -9.68, "internal_energy": -3.26, "cluster_size": 3, "cluster_id": 6, "rank_in_cluster": 3}

>  <energy>  (10) 
-8.41

>  <cluster_rmsd>  (10) 
0.0

>  <rmsd>  (10) 
270.33

>  <cluster>  (10) 
4

$$$$

     RDKit          3D

 65 68  0  0  1  0  0  0  0  0999 V2000
  141.4440   79.1790  216.8500 C   0  0  0  0  0  0  0  0  0  0  0  0
  142.0240   79.2720  218.2250 C   0  0  0  0  0  0  0  0  0  0  0  0
  142.9030   80.5030  218.2560 C   0  0  0  0  0  0  0  0  0  0  0  0
  140.8650   79.5720  219.1720 C   0  0  0  0  0  0  0  0  0  0  0  0
  141.1880   79.2850  220.5850 C   0  0  0  0  0  0  0  0  0  0  0  0
  140.7080   78.1430  221.2230 C   0  0  0  0  0  0  0  0  0  0  0  0
  141.0030   77.8610  222.5430 C   0  0  0  0  0  0  0  0  0  0  0  0
  141.7940   78.7110  223.2850 C   0  0  0  0  0  0  0  0  0  0  0  0
  142.1180   78.4900  224.5810 F   0  0  0  0  0  0  0  0  0  0  0  0
  142.2820   79.8470  222.6790 C   0  0  0  0  0  0  0  0  0  0  0  0
  141.9780   80.1140  221.3610 C   0  0  0  0  0  0  0  0  0  0  0  0
  142.6870   78.1000  218.6960 N   0  0  0  0  0  0  0  0  0  0  0  0
  142.0570   76.7890  218.6570 C   0  0  0  0  0  0  0  0  0  0  0  0
  140.8990   76.8040  218.1770 O   0  0  0  0  0  0  0  0  0  0  0  0
  142.8230   75.6870  219.1590 C   0  0  2  0  0  0  0  0  0  0  0  0
  143.5870   74.8690  218.1000 C   0  0  0  0  0  0  0  0  0  0  0  0
  143.7500   73.5820  218.5620 O   0  0  0  0  0  0  0  0  0  0  0  0
  144.2100   73.4350  219.8380 C   0  0  0  0  0  0  0  0  0  0  0  0
  143.2320   73.9940  220.8390 C   0  0  0  0  0  0  0  0  0  0  0  0
  142.2030   74.6650  219.9870 N   0  0  0  0  0  0  0  0  0  0  0  0
  140.8630   74.2850  219.9720 C   0  0  0  0  0  0  0  0  0  0  0  0
  140.4570   73.7250  218.8650 O   0  0  0  0  0  0  0  0  0  0  0  0
  139.8100   74.3970  220.9670 C   0  0  0  0  0  0  0  0  0  0  0  0
  139.8020   73.6200  222.1380 N   0  0  0  0  0  0  0  0  0  0  0  0
  140.0830   72.1970  222.0620 C   0  0  0  0  0  0  0  0  0  0  0  0
  140.3310   71.6370  220.9660 O   0  0  0  0  0  0  0  0  0  0  0  0
  140.0720   71.4320  223.2990 C   0  0  0  0  0  0  0  0  0  0  0  0
  139.5510   70.1530  223.3010 C   0  0  0  0  0  0  0  0  0  0  0  0
  139.5150   69.3840  224.4450 C   0  0  0  0  0  0  0  0  0  0  0  0
  140.0050   69.8810  225.6320 C   0  0  0  0  0  0  0  0  0  0  0  0
  139.9610   69.1000  226.7630 C   0  0  0  0  0  0  0  0  0  0  0  0
  140.4530   69.6040  227.9490 C   0  0  0  0  0  0  0  0  0  0  0  0
  140.4010   68.8210  229.0540 F   0  0  0  0  0  0  0  0  0  0  0  0
  140.9730   70.8820  227.9500 C   0  0  0  0  0  0  0  0  0  0  0  0
  141.0120   71.6620  226.8010 C   0  0  0  0  0  0  0  0  0  0  0  0
  140.5200   71.1620  225.6080 C   0  0  0  0  0  0  0  0  0  0  0  0
  140.5490   71.9070  224.4690 N   0  0  0  0  0  0  0  0  0  0  0  0
  140.3601   79.0052  216.9203 H   0  0  0  0  0  0  0  0  0  0  0  0
  141.6304   80.1185  216.3091 H   0  0  0  0  0  0  0  0  0  0  0  0
  141.9148   78.3449  216.3091 H   0  0  0  0  0  0  0  0  0  0  0  0
  143.1037   80.7840  219.3004 H   0  0  0  0  0  0  0  0  0  0  0  0
  143.8531   80.2881  217.7451 H   0  0  0  0  0  0  0  0  0  0  0  0
  142.3913   81.3319  217.7451 H   0  0  0  0  0  0  0  0  0  0  0  0
  140.6039   80.6367  219.0809 H   0  0  0  0  0  0  0  0  0  0  0  0
  140.0273   78.9191  218.8857 H   0  0  0  0  0  0  0  0  0  0  0  0
  140.0741   77.4439  220.6579 H   0  0  0  0  0  0  0  0  0  0  0  0
  140.6020   76.9477  223.0068 H   0  0  0  0  0  0  0  0  0  0  0  0
  142.9159   80.5432  223.2478 H   0  0  0  0  0  0  0  0  0  0  0  0
  142.3828   81.0295  220.9049 H   0  0  0  0  0  0  0  0  0  0  0  0
  143.6760   78.1620  219.0910 H   0  0  0  0  0  0  0  0  0  0  0  0
  143.4569   76.3202  219.7971 H   0  0  0  0  0  0  0  0  0  0  0  0
  143.0143   74.8544  217.1610 H   0  0  0  0  0  0  0  0  0  0  0  0
  144.5705   75.3256  217.9149 H   0  0  0  0  0  0  0  0  0  0  0  0
  144.3613   72.3650  220.0436 H   0  0  0  0  0  0  0  0  0  0  0  0
  145.1572   73.9864  219.9319 H   0  0  0  0  0  0  0  0  0  0  0  0
  142.7814   73.1899  221.4393 H   0  0  0  0  0  0  0  0  0  0  0  0
  143.7024   74.6784  221.5604 H   0  0  0  0  0  0  0  0  0  0  0  0
  139.8077   75.4470  221.2950 H   0  0  0  0  0  0  0  0  0  0  0  0
  138.9385   74.0025  220.4240 H   0  0  0  0  0  0  0  0  0  0  0  0
  139.5970   74.0220  223.0990 H   0  0  0  0  0  0  0  0  0  0  0  0
  139.1536   69.7361  222.3638 H   0  0  0  0  0  0  0  0  0  0  0  0
  139.0929   68.3688  224.4092 H   0  0  0  0  0  0  0  0  0  0  0  0
  139.5384   68.0852  226.7224 H   0  0  0  0  0  0  0  0  0  0  0  0
  141.3688   71.2959  228.8892 H   0  0  0  0  0  0  0  0  0  0  0  0
  141.4340   72.6771  226.8395 H   0  0  0  0  0  0  0  0  0  0  0  0
  1  2  1  0
  2  3  1  0
  2  4  1  0
  4  5  1  0
  5  6  2  0
  6  7  1  0
  7  8  2  0
  8  9  1  0
  8 10  1  0
 10 11  2  0
  2 12  1  0
 12 13  1  0
 13 14  2  0
 13 15  1  0
 15 16  1  0
 16 17  1  0
 17 18  1  0
 18 19  1  0
 19 20  1  0
 20 21  1  0
 21 22  2  0
 21 23  1  0
 23 24  1  0
 24 25  1  0
 25 26  2  0
 25 27  1  0
 27 28  2  0
 28 29  1  0
 29 30  2  0
 30 31  1  0
 31 32  2  0
 32 33  1  0
 32 34  1  0
 34 35  2  0
 35 36  1  0
 36 37  2  0
 11  5  1  0
 20 15  1  0
 37 27  1  0
 36 30  1  0
  1 38  1  0
  1 39  1  0
  1 40  1  0
  3 41  1  0
  3 42  1  0
  3 43  1  0
  4 44  1  0
  4 45  1  0
  6 46  1  0
  7 47  1  0
 10 48  1  0
 11 49  1  0
 12 50  1  0
 15 51  1  1
 16 52  1  0
 16 53  1  0
 18 54  1  0
 18 55  1  0
 19 56  1  0
 19 57  1  0
 23 58  1  0
 23 59  1  0
 24 60  1  0
 28 61  1  0
 29 62  1  0
 31 63  1  0
 34 64  1  0
 35 65  1  0
M  END
>  <smiles>  (11) 
CC(C)(Cc1ccc(F)cc1)NC(=O)C1COCCN1C(=O)CNC(=O)c1ccc2cc(F)ccc2n1

>  <score_type>  (11) 
oracle

>  <origin>  (11) 
autodockgpu

>  <m_score__min__energy>  (11) 
-9.1099999999999994

>  <m_primary>  (11) 
energy

>  <meeko>  (11) 
{"free_energy": -8.66, "intermolecular_energy": -11.04, "internal_energy": -2.28, "cluster_size": 3, "cluster_id": 1, "rank_in_cluster": 3}

>  <energy>  (11) 
-7.99

>  <cluster_rmsd>  (11) 
0.77

>  <rmsd>  (11) 
270.21

>  <cluster>  (11) 
4

$$$$

     RDKit          3D

 65 68  0  0  1  0  0  0  0  0999 V2000
  136.8910   78.2590  221.9350 C   0  0  0  0  0  0  0  0  0  0  0  0
  138.2900   78.7860  221.8870 C   0  0  0  0  0  0  0  0  0  0  0  0
  138.2170   80.1970  221.3460 C   0  0  0  0  0  0  0  0  0  0  0  0
  138.7570   78.9270  223.3350 C   0  0  0  0  0  0  0  0  0  0  0  0
  140.1310   79.4580  223.4460 C   0  0  0  0  0  0  0  0  0  0  0  0
  140.3710   80.8110  223.6780 C   0  0  0  0  0  0  0  0  0  0  0  0
  141.6500   81.3210  223.7850 C   0  0  0  0  0  0  0  0  0  0  0  0
  142.7490   80.4990  223.6660 C   0  0  0  0  0  0  0  0  0  0  0  0
  144.0260   80.9390  223.7620 F   0  0  0  0  0  0  0  0  0  0  0  0
  142.5410   79.1570  223.4370 C   0  0  0  0  0  0  0  0  0  0  0  0
  141.2580   78.6640  223.3320 C   0  0  0  0  0  0  0  0  0  0  0  0
  139.2340   77.9700  221.1960 N   0  0  0  0  0  0  0  0  0  0  0  0
  138.9850   77.4730  219.8520 C   0  0  0  0  0  0  0  0  0  0  0  0
  137.8800   77.8320  219.3810 O   0  0  0  0  0  0  0  0  0  0  0  0
  140.0080   76.6620  219.2610 C   0  0  2  0  0  0  0  0  0  0  0  0
  139.5900   75.8710  218.0060 C   0  0  0  0  0  0  0  0  0  0  0  0
  140.3730   74.7430  217.9070 O   0  0  0  0  0  0  0  0  0  0  0  0
  141.7190   74.9080  218.0560 C   0  0  0  0  0  0  0  0  0  0  0  0
  142.0610   75.3930  219.4410 C   0  0  0  0  0  0  0  0  0  0  0  0
  140.7260   75.6760  220.0530 N   0  0  0  0  0  0  0  0  0  0  0  0
  140.2510   75.0140  221.1820 C   0  0  0  0  0  0  0  0  0  0  0  0
  140.4570   75.6290  222.3140 O   0  0  0  0  0  0  0  0  0  0  0  0
  139.5610   73.7440  221.3470 C   0  0  0  0  0  0  0  0  0  0  0  0
  139.6680   72.9820  222.5240 N   0  0  0  0  0  0  0  0  0  0  0  0
  139.5540   71.5360  222.4590 C   0  0  0  0  0  0  0  0  0  0  0  0
  139.3540   70.9430  221.3710 O   0  0  0  0  0  0  0  0  0  0  0  0
  139.6780   70.7860  223.7000 C   0  0  0  0  0  0  0  0  0  0  0  0
  139.2150   69.4860  223.7550 C   0  0  0  0  0  0  0  0  0  0  0  0
  139.3070   68.7300  224.9050 C   0  0  0  0  0  0  0  0  0  0  0  0
  139.8720   69.2620  226.0430 C   0  0  0  0  0  0  0  0  0  0  0  0
  139.9560   68.4930  227.1800 C   0  0  0  0  0  0  0  0  0  0  0  0
  140.5220   69.0310  228.3160 C   0  0  0  0  0  0  0  0  0  0  0  0
  140.5970   68.2600  229.4290 F   0  0  0  0  0  0  0  0  0  0  0  0
  140.9860   70.3300  228.2630 C   0  0  0  0  0  0  0  0  0  0  0  0
  140.8950   71.0970  227.1080 C   0  0  0  0  0  0  0  0  0  0  0  0
  140.3280   70.5620  225.9650 C   0  0  0  0  0  0  0  0  0  0  0  0
  140.2300   71.2950  224.8210 N   0  0  0  0  0  0  0  0  0  0  0  0
  136.5792   78.1415  222.9833 H   0  0  0  0  0  0  0  0  0  0  0  0
  136.2159   78.9644  221.4285 H   0  0  0  0  0  0  0  0  0  0  0  0
  136.8491   77.2835  221.4285 H   0  0  0  0  0  0  0  0  0  0  0  0
  138.1801   80.9093  222.1834 H   0  0  0  0  0  0  0  0  0  0  0  0
  139.1058   80.4002  220.7306 H   0  0  0  0  0  0  0  0  0  0  0  0
  137.3119   80.3074  220.7306 H   0  0  0  0  0  0  0  0  0  0  0  0
  138.0730   79.6104  223.8596 H   0  0  0  0  0  0  0  0  0  0  0  0
  138.7540   77.9221  223.7825 H   0  0  0  0  0  0  0  0  0  0  0  0
  139.5149   81.4942  223.7791 H   0  0  0  0  0  0  0  0  0  0  0  0
  141.7928   82.3963  223.9674 H   0  0  0  0  0  0  0  0  0  0  0  0
  143.4002   78.4773  223.3377 H   0  0  0  0  0  0  0  0  0  0  0  0
  141.1239   77.5877  223.1488 H   0  0  0  0  0  0  0  0  0  0  0  0
  140.1570   77.7040  221.6590 H   0  0  0  0  0  0  0  0  0  0  0  0
  140.6770   77.5133  219.0667 H   0  0  0  0  0  0  0  0  0  0  0  0
  138.5324   75.5800  218.0885 H   0  0  0  0  0  0  0  0  0  0  0  0
  139.7231   76.4961  217.1107 H   0  0  0  0  0  0  0  0  0  0  0  0
  142.2198   73.9446  217.8799 H   0  0  0  0  0  0  0  0  0  0  0  0
  142.0589   75.6616  217.3304 H   0  0  0  0  0  0  0  0  0  0  0  0
  142.5966   74.6173  220.0079 H   0  0  0  0  0  0  0  0  0  0  0  0
  142.7238   76.2708  219.4354 H   0  0  0  0  0  0  0  0  0  0  0  0
  138.4899   73.9569  221.2151 H   0  0  0  0  0  0  0  0  0  0  0  0
  140.0756   73.1063  220.6132 H   0  0  0  0  0  0  0  0  0  0  0  0
  139.8320   73.4140  223.4800 H   0  0  0  0  0  0  0  0  0  0  0  0
  138.7605   69.0414  222.8573 H   0  0  0  0  0  0  0  0  0  0  0  0
  138.9275   67.6976  224.9134 H   0  0  0  0  0  0  0  0  0  0  0  0
  139.5760   67.4607  227.1829 H   0  0  0  0  0  0  0  0  0  0  0  0
  141.4413   70.7711  229.1620 H   0  0  0  0  0  0  0  0  0  0  0  0
  141.2738   72.1297  227.1024 H   0  0  0  0  0  0  0  0  0  0  0  0
  1  2  1  0
  2  3  1  0
  2  4  1  0
  4  5  1  0
  5  6  2  0
  6  7  1  0
  7  8  2  0
  8  9  1  0
  8 10  1  0
 10 11  2  0
  2 12  1  0
 12 13  1  0
 13 14  2  0
 13 15  1  0
 15 16  1  0
 16 17  1  0
 17 18  1  0
 18 19  1  0
 19 20  1  0
 20 21  1  0
 21 22  2  0
 21 23  1  0
 23 24  1  0
 24 25  1  0
 25 26  2  0
 25 27  1  0
 27 28  2  0
 28 29  1  0
 29 30  2  0
 30 31  1  0
 31 32  2  0
 32 33  1  0
 32 34  1  0
 34 35  2  0
 35 36  1  0
 36 37  2  0
 11  5  1  0
 20 15  1  0
 37 27  1  0
 36 30  1  0
  1 38  1  0
  1 39  1  0
  1 40  1  0
  3 41  1  0
  3 42  1  0
  3 43  1  0
  4 44  1  0
  4 45  1  0
  6 46  1  0
  7 47  1  0
 10 48  1  0
 11 49  1  0
 12 50  1  0
 15 51  1  6
 16 52  1  0
 16 53  1  0
 18 54  1  0
 18 55  1  0
 19 56  1  0
 19 57  1  0
 23 58  1  0
 23 59  1  0
 24 60  1  0
 28 61  1  0
 29 62  1  0
 31 63  1  0
 34 64  1  0
 35 65  1  0
M  END
>  <smiles>  (12) 
CC(C)(Cc1ccc(F)cc1)NC(=O)C1COCCN1C(=O)CNC(=O)c1ccc2cc(F)ccc2n1

>  <score_type>  (12) 
oracle

>  <origin>  (12) 
autodockgpu

>  <m_score__min__energy>  (12) 
-9.1099999999999994

>  <m_primary>  (12) 
energy

>  <meeko>  (12) 
{"free_energy": -7.99, "intermolecular_energy": -10.37, "internal_energy": -2.93, "cluster_size": 2, "cluster_id": 4, "rank_in_cluster": 2}

>  <energy>  (12) 
-7.83

>  <cluster_rmsd>  (12) 
0.0

>  <rmsd>  (12) 
269.47

>  <cluster>  (12) 
5

$$$$

     RDKit          3D

 65 68  0  0  1  0  0  0  0  0999 V2000
  139.9430   78.1790  220.6020 C   0  0  0  0  0  0  0  0  0  0  0  0
  140.3640   76.8700  221.1910 C   0  0  0  0  0  0  0  0  0  0  0  0
  141.7430   76.5620  220.6500 C   0  0  0  0  0  0  0  0  0  0  0  0
  140.5520   77.1010  222.6880 C   0  0  0  0  0  0  0  0  0  0  0  0
  140.9960   78.4750  223.0050 C   0  0  0  0  0  0  0  0  0  0  0  0
  140.1190   79.4170  223.5380 C   0  0  0  0  0  0  0  0  0  0  0  0
  140.5210   80.7040  223.8400 C   0  0  0  0  0  0  0  0  0  0  0  0
  141.8200   81.1060  223.6240 C   0  0  0  0  0  0  0  0  0  0  0  0
  142.2740   82.3520  223.9000 F   0  0  0  0  0  0  0  0  0  0  0  0
  142.7090   80.1940  223.0980 C   0  0  0  0  0  0  0  0  0  0  0  0
  142.2920   78.9140  222.8020 C   0  0  0  0  0  0  0  0  0  0  0  0
  139.4440   75.7930  221.0220 N   0  0  0  0  0  0  0  0  0  0  0  0
  138.0260   75.9360  221.3170 C   0  0  0  0  0  0  0  0  0  0  0  0
  137.7130   77.0800  221.7240 O   0  0  0  0  0  0  0  0  0  0  0  0
  137.2020   74.7840  221.1090 C   0  0  2  0  0  0  0  0  0  0  0  0
  136.9770   73.8930  222.3460 C   0  0  0  0  0  0  0  0  0  0  0  0
  136.7330   72.6030  221.9300 O   0  0  0  0  0  0  0  0  0  0  0  0
  135.8160   72.4370  220.9330 C   0  0  0  0  0  0  0  0  0  0  0  0
  136.2760   73.0870  219.6530 C   0  0  0  0  0  0  0  0  0  0  0  0
  137.5110   73.8260  220.0600 N   0  0  0  0  0  0  0  0  0  0  0  0
  138.7690   73.5540  219.5300 C   0  0  0  0  0  0  0  0  0  0  0  0
  139.1870   74.4000  218.6280 O   0  0  0  0  0  0  0  0  0  0  0  0
  139.7240   72.4890  219.7890 C   0  0  0  0  0  0  0  0  0  0  0  0
  139.6930   71.7280  220.9700 N   0  0  0  0  0  0  0  0  0  0  0  0
  140.0200   72.3530  222.2400 C   0  0  0  0  0  0  0  0  0  0  0  0
  140.3360   73.5660  222.3100 O   0  0  0  0  0  0  0  0  0  0  0  0
  139.9670   71.5300  223.4380 C   0  0  0  0  0  0  0  0  0  0  0  0
  139.2950   70.3240  223.4020 C   0  0  0  0  0  0  0  0  0  0  0  0
  139.2130   69.5040  224.5080 C   0  0  0  0  0  0  0  0  0  0  0  0
  139.8090   69.8750  225.6940 C   0  0  0  0  0  0  0  0  0  0  0  0
  139.7170   69.0440  226.7860 C   0  0  0  0  0  0  0  0  0  0  0  0
  140.3160   69.4220  227.9700 C   0  0  0  0  0  0  0  0  0  0  0  0
  140.2150   68.5920  229.0380 F   0  0  0  0  0  0  0  0  0  0  0  0
  140.9870   70.6260  228.0090 C   0  0  0  0  0  0  0  0  0  0  0  0
  141.0730   71.4570  226.8980 C   0  0  0  0  0  0  0  0  0  0  0  0
  140.4750   71.0840  225.7070 C   0  0  0  0  0  0  0  0  0  0  0  0
  140.5460   71.8810  224.6050 N   0  0  0  0  0  0  0  0  0  0  0  0
  139.7148   78.8886  221.4109 H   0  0  0  0  0  0  0  0  0  0  0  0
  140.7573   78.5805  219.9810 H   0  0  0  0  0  0  0  0  0  0  0  0
  139.0473   78.0305  219.9810 H   0  0  0  0  0  0  0  0  0  0  0  0
  142.4391   76.4065  221.4874 H   0  0  0  0  0  0  0  0  0  0  0  0
  141.7005   75.6512  220.0346 H   0  0  0  0  0  0  0  0  0  0  0  0
  142.0920   77.4043  220.0346 H   0  0  0  0  0  0  0  0  0  0  0  0
  139.5936   76.9157  223.1952 H   0  0  0  0  0  0  0  0  0  0  0  0
  141.3367   76.4118  223.0332 H   0  0  0  0  0  0  0  0  0  0  0  0
  139.0743   79.1273  223.7242 H   0  0  0  0  0  0  0  0  0  0  0  0
  139.7943   81.4161  224.2581 H   0  0  0  0  0  0  0  0  0  0  0  0
  143.7529   80.4879  222.9141 H   0  0  0  0  0  0  0  0  0  0  0  0
  143.0248   78.2079  222.3844 H   0  0  0  0  0  0  0  0  0  0  0  0
  139.7820   74.8460  220.6690 H   0  0  0  0  0  0  0  0  0  0  0  0
  136.3263   75.3737  220.8001 H   0  0  0  0  0  0  0  0  0  0  0  0
  137.8740   73.9120  222.9824 H   0  0  0  0  0  0  0  0  0  0  0  0
  136.1179   74.2668  222.9224 H   0  0  0  0  0  0  0  0  0  0  0  0
  135.6695   71.3612  220.7562 H   0  0  0  0  0  0  0  0  0  0  0  0
  134.8739   72.9116  221.2448 H   0  0  0  0  0  0  0  0  0  0  0  0
  136.5049   72.3303  218.8881 H   0  0  0  0  0  0  0  0  0  0  0  0
  135.5128   73.7416  219.2069 H   0  0  0  0  0  0  0  0  0  0  0  0
  139.6190   71.7738  218.9598 H   0  0  0  0  0  0  0  0  0  0  0  0
  140.6654   73.0470  219.9003 H   0  0  0  0  0  0  0  0  0  0  0  0
  139.4390   70.6970  220.9880 H   0  0  0  0  0  0  0  0  0  0  0  0
  138.8118   70.0087  222.4654 H   0  0  0  0  0  0  0  0  0  0  0  0
  138.6696   68.5498  224.4432 H   0  0  0  0  0  0  0  0  0  0  0  0
  139.1730   68.0905  226.7163 H   0  0  0  0  0  0  0  0  0  0  0  0
  141.4686   70.9382  228.9474 H   0  0  0  0  0  0  0  0  0  0  0  0
  141.6164   72.4111  226.9655 H   0  0  0  0  0  0  0  0  0  0  0  0
  1  2  1  0
  2  3  1  0
  2  4  1  0
  4  5  1  0
  5  6  2  0
  6  7  1  0
  7  8  2  0
  8  9  1  0
  8 10  1  0
 10 11  2  0
  2 12  1  0
 12 13  1  0
 13 14  2  0
 13 15  1  0
 15 16  1  0
 16 17  1  0
 17 18  1  0
 18 19  1  0
 19 20  1  0
 20 21  1  0
 21 22  2  0
 21 23  1  0
 23 24  1  0
 24 25  1  0
 25 26  2  0
 25 27  1  0
 27 28  2  0
 28 29  1  0
 29 30  2  0
 30 31  1  0
 31 32  2  0
 32 33  1  0
 32 34  1  0
 34 35  2  0
 35 36  1  0
 36 37  2  0
 11  5  1  0
 20 15  1  0
 37 27  1  0
 36 30  1  0
  1 38  1  0
  1 39  1  0
  1 40  1  0
  3 41  1  0
  3 42  1  0
  3 43  1  0
  4 44  1  0
  4 45  1  0
  6 46  1  0
  7 47  1  0
 10 48  1  0
 11 49  1  0
 12 50  1  0
 15 51  1  6
 16 52  1  0
 16 53  1  0
 18 54  1  0
 18 55  1  0
 19 56  1  0
 19 57  1  0
 23 58  1  0
 23 59  1  0
 24 60  1  0
 28 61  1  0
 29 62  1  0
 31 63  1  0
 34 64  1  0
 35 65  1  0
M  END
>  <smiles>  (13) 
CC(C)(Cc1ccc(F)cc1)NC(=O)C1COCCN1C(=O)CNC(=O)c1ccc2cc(F)ccc2n1

>  <score_type>  (13) 
oracle

>  <origin>  (13) 
autodockgpu

>  <m_score__min__energy>  (13) 
-9.1099999999999994

>  <m_primary>  (13) 
energy

>  <meeko>  (13) 
{"free_energy": -7.79, "intermolecular_energy": -10.18, "internal_energy": -3.4, "cluster_size": 3, "cluster_id": 6, "rank_in_cluster": 1}

>  <energy>  (13) 
-7.79

>  <cluster_rmsd>  (13) 
0.0

>  <rmsd>  (13) 
269.74

>  <cluster>  (13) 
6

$$$$

     RDKit          3D

 65 68  0  0  1  0  0  0  0  0999 V2000
  136.8590   78.3530  221.9570 C   0  0  0  0  0  0  0  0  0  0  0  0
  138.1030   79.1730  221.8190 C   0  0  0  0  0  0  0  0  0  0  0  0
  137.7190   80.4470  221.0990 C   0  0  0  0  0  0  0  0  0  0  0  0
  138.5040   79.6030  223.2280 C   0  0  0  0  0  0  0  0  0  0  0  0
  139.9420   79.9250  223.3430 C   0  0  0  0  0  0  0  0  0  0  0  0
  140.8640   78.9830  223.7960 C   0  0  0  0  0  0  0  0  0  0  0  0
  142.2100   79.2700  223.9060 C   0  0  0  0  0  0  0  0  0  0  0  0
  142.6970   80.5130  223.5680 C   0  0  0  0  0  0  0  0  0  0  0  0
  144.0050   80.8540  223.6540 F   0  0  0  0  0  0  0  0  0  0  0  0
  141.8080   81.4630  223.1160 C   0  0  0  0  0  0  0  0  0  0  0  0
  140.4670   81.1610  223.0120 C   0  0  0  0  0  0  0  0  0  0  0  0
  139.2170   78.5090  221.2260 N   0  0  0  0  0  0  0  0  0  0  0  0
  139.2410   78.1520  219.8150 C   0  0  0  0  0  0  0  0  0  0  0  0
  138.2010   78.4840  219.1970 O   0  0  0  0  0  0  0  0  0  0  0  0
  140.4140   77.4870  219.3350 C   0  0  2  0  0  0  0  0  0  0  0  0
  140.2580   76.7440  217.9940 C   0  0  0  0  0  0  0  0  0  0  0  0
  141.1640   75.7080  217.9480 O   0  0  0  0  0  0  0  0  0  0  0  0
  142.4520   75.9950  218.2950 C   0  0  0  0  0  0  0  0  0  0  0  0
  142.5480   76.4190  219.7380 C   0  0  0  0  0  0  0  0  0  0  0  0
  141.1200   76.5260  220.1670 N   0  0  0  0  0  0  0  0  0  0  0  0
  140.5710   75.7470  221.1820 C   0  0  0  0  0  0  0  0  0  0  0  0
  140.6470   76.2590  222.3800 O   0  0  0  0  0  0  0  0  0  0  0  0
  139.9190   74.4470  221.1660 C   0  0  0  0  0  0  0  0  0  0  0  0
  139.8480   73.6320  222.3080 N   0  0  0  0  0  0  0  0  0  0  0  0
  140.2290   72.2320  222.2210 C   0  0  0  0  0  0  0  0  0  0  0  0
  140.6190   71.7270  221.1400 O   0  0  0  0  0  0  0  0  0  0  0  0
  140.1480   71.4270  223.4300 C   0  0  0  0  0  0  0  0  0  0  0  0
  139.5870   70.1660  223.3670 C   0  0  0  0  0  0  0  0  0  0  0  0
  139.4840   69.3610  224.4810 C   0  0  0  0  0  0  0  0  0  0  0  0
  139.9440   69.8010  225.7030 C   0  0  0  0  0  0  0  0  0  0  0  0
  139.8340   68.9830  226.8030 C   0  0  0  0  0  0  0  0  0  0  0  0
  140.2970   69.4310  228.0230 C   0  0  0  0  0  0  0  0  0  0  0  0
  140.1790   68.6120  229.0970 F   0  0  0  0  0  0  0  0  0  0  0  0
  140.8570   70.6900  228.0880 C   0  0  0  0  0  0  0  0  0  0  0  0
  140.9630   71.5070  226.9690 C   0  0  0  0  0  0  0  0  0  0  0  0
  140.5000   71.0640  225.7420 C   0  0  0  0  0  0  0  0  0  0  0  0
  140.5950   71.8460  224.6310 N   0  0  0  0  0  0  0  0  0  0  0  0
  136.6340   78.2047  223.0235 H   0  0  0  0  0  0  0  0  0  0  0  0
  136.0199   78.8756  221.4745 H   0  0  0  0  0  0  0  0  0  0  0  0
  137.0085   77.3759  221.4745 H   0  0  0  0  0  0  0  0  0  0  0  0
  137.4835   81.2283  221.8366 H   0  0  0  0  0  0  0  0  0  0  0  0
  138.5571   80.7787  220.4684 H   0  0  0  0  0  0  0  0  0  0  0  0
  136.8372   80.2603  220.4684 H   0  0  0  0  0  0  0  0  0  0  0  0
  137.9214   80.4949  223.5020 H   0  0  0  0  0  0  0  0  0  0  0  0
  138.2997   78.7580  223.9020 H   0  0  0  0  0  0  0  0  0  0  0  0
  140.5083   77.9800  224.0745 H   0  0  0  0  0  0  0  0  0  0  0  0
  142.9023   78.4958  224.2683 H   0  0  0  0  0  0  0  0  0  0  0  0
  142.1686   82.4642  222.8376 H   0  0  0  0  0  0  0  0  0  0  0  0
  139.7815   81.9406  222.6482 H   0  0  0  0  0  0  0  0  0  0  0  0
  140.0700   78.2570  221.8130 H   0  0  0  0  0  0  0  0  0  0  0  0
  141.0073   78.4119  219.2841 H   0  0  0  0  0  0  0  0  0  0  0  0
  139.2365   76.3447  217.9102 H   0  0  0  0  0  0  0  0  0  0  0  0
  140.4437   77.4377  217.1607 H   0  0  0  0  0  0  0  0  0  0  0  0
  143.0724   75.0995  218.1425 H   0  0  0  0  0  0  0  0  0  0  0  0
  142.8051   76.8246  217.6648 H   0  0  0  0  0  0  0  0  0  0  0  0
  143.0821   75.6648  220.3345 H   0  0  0  0  0  0  0  0  0  0  0  0
  143.1067   77.3570  219.8723 H   0  0  0  0  0  0  0  0  0  0  0  0
  138.8802   74.6282  220.8530 H   0  0  0  0  0  0  0  0  0  0  0  0
  140.5836   73.8653  220.5103 H   0  0  0  0  0  0  0  0  0  0  0  0
  139.5240   73.9880  223.2550 H   0  0  0  0  0  0  0  0  0  0  0  0
  139.2125   69.7945  222.4018 H   0  0  0  0  0  0  0  0  0  0  0  0
  139.0321   68.3619  224.3940 H   0  0  0  0  0  0  0  0  0  0  0  0
  139.3826   67.9841  226.7113 H   0  0  0  0  0  0  0  0  0  0  0  0
  141.2309   71.0583  229.0547 H   0  0  0  0  0  0  0  0  0  0  0  0
  141.4149   72.5059  227.0582 H   0  0  0  0  0  0  0  0  0  0  0  0
  1  2  1  0
  2  3  1  0
  2  4  1  0
  4  5  1  0
  5  6  2  0
  6  7  1  0
  7  8  2  0
  8  9  1  0
  8 10  1  0
 10 11  2  0
  2 12  1  0
 12 13  1  0
 13 14  2  0
 13 15  1  0
 15 16  1  0
 16 17  1  0
 17 18  1  0
 18 19  1  0
 19 20  1  0
 20 21  1  0
 21 22  2  0
 21 23  1  0
 23 24  1  0
 24 25  1  0
 25 26  2  0
 25 27  1  0
 27 28  2  0
 28 29  1  0
 29 30  2  0
 30 31  1  0
 31 32  2  0
 32 33  1  0
 32 34  1  0
 34 35  2  0
 35 36  1  0
 36 37  2  0
 11  5  1  0
 20 15  1  0
 37 27  1  0
 36 30  1  0
  1 38  1  0
  1 39  1  0
  1 40  1  0
  3 41  1  0
  3 42  1  0
  3 43  1  0
  4 44  1  0
  4 45  1  0
  6 46  1  0
  7 47  1  0
 10 48  1  0
 11 49  1  0
 12 50  1  0
 15 51  1  6
 16 52  1  0
 16 53  1  0
 18 54  1  0
 18 55  1  0
 19 56  1  0
 19 57  1  0
 23 58  1  0
 23 59  1  0
 24 60  1  0
 28 61  1  0
 29 62  1  0
 31 63  1  0
 34 64  1  0
 35 65  1  0
M  END
>  <smiles>  (14) 
CC(C)(Cc1ccc(F)cc1)NC(=O)C1COCCN1C(=O)CNC(=O)c1ccc2cc(F)ccc2n1

>  <score_type>  (14) 
oracle

>  <origin>  (14) 
autodockgpu

>  <m_score__min__energy>  (14) 
-9.1099999999999994

>  <m_primary>  (14) 
energy

>  <meeko>  (14) 
{"free_energy": -8.41, "intermolecular_energy": -10.8, "internal_energy": -2.96, "cluster_size": 2, "cluster_id": 4, "rank_in_cluster": 1}

>  <energy>  (14) 
-7.72

>  <cluster_rmsd>  (14) 
0.88

>  <rmsd>  (14) 
269.76

>  <cluster>  (14) 
6

$$$$

     RDKit          3D

 65 68  0  0  1  0  0  0  0  0999 V2000
  142.1080   80.8550  222.0630 C   0  0  0  0  0  0  0  0  0  0  0  0
  141.3570   79.5910  222.3320 C   0  0  0  0  0  0  0  0  0  0  0  0
  141.3380   79.3940  223.8320 C   0  0  0  0  0  0  0  0  0  0  0  0
  139.9050   79.8490  221.9350 C   0  0  0  0  0  0  0  0  0  0  0  0
  139.0850   78.6190  221.9270 C   0  0  0  0  0  0  0  0  0  0  0  0
  138.5990   78.0770  220.7400 C   0  0  0  0  0  0  0  0  0  0  0  0
  137.8320   76.9280  220.7180 C   0  0  0  0  0  0  0  0  0  0  0  0
  137.5170   76.2690  221.8860 C   0  0  0  0  0  0  0  0  0  0  0  0
  136.7700   75.1400  221.9290 F   0  0  0  0  0  0  0  0  0  0  0  0
  137.9840   76.7830  223.0750 C   0  0  0  0  0  0  0  0  0  0  0  0
  138.7480   77.9310  223.0790 C   0  0  0  0  0  0  0  0  0  0  0  0
  141.8110   78.4400  221.6220 N   0  0  0  0  0  0  0  0  0  0  0  0
  141.7500   78.3540  220.1710 C   0  0  0  0  0  0  0  0  0  0  0  0
  141.2660   79.3760  219.6290 O   0  0  0  0  0  0  0  0  0  0  0  0
  142.2350   77.1470  219.5720 C   0  0  2  0  0  0  0  0  0  0  0  0
  141.6810   76.8280  218.1700 C   0  0  0  0  0  0  0  0  0  0  0  0
  141.7090   75.4650  217.9780 O   0  0  0  0  0  0  0  0  0  0  0  0
  142.8690   74.8190  218.2930 C   0  0  0  0  0  0  0  0  0  0  0  0
  143.1690   74.9230  219.7660 C   0  0  0  0  0  0  0  0  0  0  0  0
  142.1320   75.8760  220.2690 N   0  0  0  0  0  0  0  0  0  0  0  0
  141.1790   75.5270  221.2220 C   0  0  0  0  0  0  0  0  0  0  0  0
  141.2230   76.2160  222.3300 O   0  0  0  0  0  0  0  0  0  0  0  0
  140.1260   74.5250  221.2240 C   0  0  0  0  0  0  0  0  0  0  0  0
  139.9000   73.6790  222.3240 N   0  0  0  0  0  0  0  0  0  0  0  0
  140.6240   72.4240  222.4290 C   0  0  0  0  0  0  0  0  0  0  0  0
  141.4500   72.0690  221.5530 O   0  0  0  0  0  0  0  0  0  0  0  0
  140.3650   71.5830  223.5870 C   0  0  0  0  0  0  0  0  0  0  0  0
  139.6530   70.4100  223.4280 C   0  0  0  0  0  0  0  0  0  0  0  0
  139.3790   69.5760  224.4910 C   0  0  0  0  0  0  0  0  0  0  0  0
  139.8140   69.8980  225.7570 C   0  0  0  0  0  0  0  0  0  0  0  0
  139.5310   69.0530  226.8050 C   0  0  0  0  0  0  0  0  0  0  0  0
  139.9700   69.3820  228.0710 C   0  0  0  0  0  0  0  0  0  0  0  0
  139.6820   68.5390  229.0930 F   0  0  0  0  0  0  0  0  0  0  0  0
  140.6810   70.5530  228.2330 C   0  0  0  0  0  0  0  0  0  0  0  0
  140.9610   71.3970  227.1660 C   0  0  0  0  0  0  0  0  0  0  0  0
  140.5230   71.0740  225.8940 C   0  0  0  0  0  0  0  0  0  0  0  0
  140.7860   71.8860  224.8330 N   0  0  0  0  0  0  0  0  0  0  0  0
  142.3876   81.3255  223.0172 H   0  0  0  0  0  0  0  0  0  0  0  0
  143.0167   80.6261  221.4869 H   0  0  0  0  0  0  0  0  0  0  0  0
  141.4724   81.5436  221.4869 H   0  0  0  0  0  0  0  0  0  0  0  0
  141.4321   80.3697  224.3312 H   0  0  0  0  0  0  0  0  0  0  0  0
  140.3901   78.9207  224.1277 H   0  0  0  0  0  0  0  0  0  0  0  0
  142.1780   78.7483  224.1277 H   0  0  0  0  0  0  0  0  0  0  0  0
  139.4659   80.5592  222.6511 H   0  0  0  0  0  0  0  0  0  0  0  0
  139.9085   80.2508  220.9110 H   0  0  0  0  0  0  0  0  0  0  0  0
  138.8331   78.5795  219.7899 H   0  0  0  0  0  0  0  0  0  0  0  0
  137.4688   76.5350  219.7570 H   0  0  0  0  0  0  0  0  0  0  0  0
  137.7474   76.2773  224.0228 H   0  0  0  0  0  0  0  0  0  0  0  0
  139.1066   78.3182  224.0441 H   0  0  0  0  0  0  0  0  0  0  0  0
  142.2140   77.6060  222.1500 H   0  0  0  0  0  0  0  0  0  0  0  0
  143.2854   77.4732  219.5884 H   0  0  0  0  0  0  0  0  0  0  0  0
  140.6455   77.1907  218.0910 H   0  0  0  0  0  0  0  0  0  0  0  0
  142.2959   77.3245  217.4049 H   0  0  0  0  0  0  0  0  0  0  0  0
  142.7738   73.7576  218.0205 H   0  0  0  0  0  0  0  0  0  0  0  0
  143.6921   75.2906  217.7361 H   0  0  0  0  0  0  0  0  0  0  0  0
  143.0730   73.9431  220.2566 H   0  0  0  0  0  0  0  0  0  0  0  0
  144.1956   75.2610  219.9706 H   0  0  0  0  0  0  0  0  0  0  0  0
  139.1845   75.0685  221.0560 H   0  0  0  0  0  0  0  0  0  0  0  0
  140.4813   73.8177  220.4601 H   0  0  0  0  0  0  0  0  0  0  0  0
  139.2140   73.9090  223.1000 H   0  0  0  0  0  0  0  0  0  0  0  0
  139.2947   70.1337  222.4254 H   0  0  0  0  0  0  0  0  0  0  0  0
  138.8102   68.6489  224.3269 H   0  0  0  0  0  0  0  0  0  0  0  0
  138.9620   68.1269  226.6358 H   0  0  0  0  0  0  0  0  0  0  0  0
  141.0369   70.8265  229.2373 H   0  0  0  0  0  0  0  0  0  0  0  0
  141.5313   72.3228  227.3324 H   0  0  0  0  0  0  0  0  0  0  0  0
  1  2  1  0
  2  3  1  0
  2  4  1  0
  4  5  1  0
  5  6  2  0
  6  7  1  0
  7  8  2  0
  8  9  1  0
  8 10  1  0
 10 11  2  0
  2 12  1  0
 12 13  1  0
 13 14  2  0
 13 15  1  0
 15 16  1  0
 16 17  1  0
 17 18  1  0
 18 19  1  0
 19 20  1  0
 20 21  1  0
 21 22  2  0
 21 23  1  0
 23 24  1  0
 24 25  1  0
 25 26  2  0
 25 27  1  0
 27 28  2  0
 28 29  1  0
 29 30  2  0
 30 31  1  0
 31 32  2  0
 32 33  1  0
 32 34  1  0
 34 35  2  0
 35 36  1  0
 36 37  2  0
 11  5  1  0
 20 15  1  0
 37 27  1  0
 36 30  1  0
  1 38  1  0
  1 39  1  0
  1 40  1  0
  3 41  1  0
  3 42  1  0
  3 43  1  0
  4 44  1  0
  4 45  1  0
  6 46  1  0
  7 47  1  0
 10 48  1  0
 11 49  1  0
 12 50  1  0
 15 51  1  6
 16 52  1  0
 16 53  1  0
 18 54  1  0
 18 55  1  0
 19 56  1  0
 19 57  1  0
 23 58  1  0
 23 59  1  0
 24 60  1  0
 28 61  1  0
 29 62  1  0
 31 63  1  0
 34 64  1  0
 35 65  1  0
M  END
>  <smiles>  (15) 
CC(C)(Cc1ccc(F)cc1)NC(=O)C1COCCN1C(=O)CNC(=O)c1ccc2cc(F)ccc2n1

>  <score_type>  (15) 
oracle

>  <origin>  (15) 
autodockgpu

>  <m_score__min__energy>  (15) 
-9.1099999999999994

>  <m_primary>  (15) 
energy

>  <meeko>  (15) 
{"free_energy": -8.56, "intermolecular_energy": -10.95, "internal_energy": -3.05, "cluster_size": 4, "cluster_id": 2, "rank_in_cluster": 3}

>  <energy>  (15) 
-7.29

>  <cluster_rmsd>  (15) 
1.85

>  <rmsd>  (15) 
269.59

>  <cluster>  (15) 
6

$$$$

     RDKit          3D

 65 68  0  0  1  0  0  0  0  0999 V2000
  142.8080   80.2390  223.9010 C   0  0  0  0  0  0  0  0  0  0  0  0
  141.7870   80.2900  222.8090 C   0  0  0  0  0  0  0  0  0  0  0  0
  140.4260   80.2440  223.4700 C   0  0  0  0  0  0  0  0  0  0  0  0
  141.8880   81.6750  222.1750 C   0  0  0  0  0  0  0  0  0  0  0  0
  140.7190   82.0090  221.3350 C   0  0  0  0  0  0  0  0  0  0  0  0
  139.9360   83.1320  221.5930 C   0  0  0  0  0  0  0  0  0  0  0  0
  138.8410   83.4570  220.8160 C   0  0  0  0  0  0  0  0  0  0  0  0
  138.4810   82.6720  219.7420 C   0  0  0  0  0  0  0  0  0  0  0  0
  137.4210   82.9380  218.9430 F   0  0  0  0  0  0  0  0  0  0  0  0
  139.2390   81.5560  219.4640 C   0  0  0  0  0  0  0  0  0  0  0  0
  140.3280   81.2460  220.2500 C   0  0  0  0  0  0  0  0  0  0  0  0
  141.9390   79.3190  221.7760 N   0  0  0  0  0  0  0  0  0  0  0  0
  141.4320   77.9620  221.9110 C   0  0  0  0  0  0  0  0  0  0  0  0
  140.8610   77.7470  223.0070 O   0  0  0  0  0  0  0  0  0  0  0  0
  141.6470   77.0760  220.8060 C   0  0  2  0  0  0  0  0  0  0  0  0
  141.1220   77.5700  219.4440 C   0  0  0  0  0  0  0  0  0  0  0  0
  140.8300   76.4800  218.6550 O   0  0  0  0  0  0  0  0  0  0  0  0
  141.7750   75.4990  218.5800 C   0  0  0  0  0  0  0  0  0  0  0  0
  141.9970   74.8510  219.9230 C   0  0  0  0  0  0  0  0  0  0  0  0
  141.1930   75.6960  220.8570 N   0  0  0  0  0  0  0  0  0  0  0  0
  140.1240   75.2020  221.6010 C   0  0  0  0  0  0  0  0  0  0  0  0
  140.3830   74.1320  222.3020 O   0  0  0  0  0  0  0  0  0  0  0  0
  138.7500   75.6540  221.7480 C   0  0  0  0  0  0  0  0  0  0  0  0
  138.4290   76.8990  222.3150 N   0  0  0  0  0  0  0  0  0  0  0  0
  137.5930   77.8330  221.5800 C   0  0  0  0  0  0  0  0  0  0  0  0
  137.1500   77.5550  220.4390 O   0  0  0  0  0  0  0  0  0  0  0  0
  137.2790   79.1060  222.2070 C   0  0  0  0  0  0  0  0  0  0  0  0
  136.6510   80.0890  221.4680 C   0  0  0  0  0  0  0  0  0  0  0  0
  136.3300   81.3150  222.0110 C   0  0  0  0  0  0  0  0  0  0  0  0
  136.6340   81.5940  223.3260 C   0  0  0  0  0  0  0  0  0  0  0  0
  136.3070   82.8220  223.8510 C   0  0  0  0  0  0  0  0  0  0  0  0
  136.6140   83.0940  225.1680 C   0  0  0  0  0  0  0  0  0  0  0  0
  136.2850   84.3100  225.6700 F   0  0  0  0  0  0  0  0  0  0  0  0
  137.2420   82.1140  225.9090 C   0  0  0  0  0  0  0  0  0  0  0  0
  137.5680   80.8770  225.3660 C   0  0  0  0  0  0  0  0  0  0  0  0
  137.2620   80.5970  224.0460 C   0  0  0  0  0  0  0  0  0  0  0  0
  137.5710   79.3920  223.4930 N   0  0  0  0  0  0  0  0  0  0  0  0
  142.3021   80.2643  224.8774 H   0  0  0  0  0  0  0  0  0  0  0  0
  143.3915   79.3106  223.8143 H   0  0  0  0  0  0  0  0  0  0  0  0
  143.4812   81.1046  223.8143 H   0  0  0  0  0  0  0  0  0  0  0  0
  140.5489   80.2482  224.5631 H   0  0  0  0  0  0  0  0  0  0  0  0
  139.8397   81.1228  223.1636 H   0  0  0  0  0  0  0  0  0  0  0  0
  139.9004   79.3276  223.1636 H   0  0  0  0  0  0  0  0  0  0  0  0
  141.9692   82.4233  222.9772 H   0  0  0  0  0  0  0  0  0  0  0  0
  142.7742   81.6761  221.5233 H   0  0  0  0  0  0  0  0  0  0  0  0
  140.1979   83.7803  222.4422 H   0  0  0  0  0  0  0  0  0  0  0  0
  138.2497   84.3526  221.0573 H   0  0  0  0  0  0  0  0  0  0  0  0
  138.9747   80.9109  218.6131 H   0  0  0  0  0  0  0  0  0  0  0  0
  140.9141   80.3487  220.0023 H   0  0  0  0  0  0  0  0  0  0  0  0
  142.4360   79.5720  220.8670 H   0  0  0  0  0  0  0  0  0  0  0  0
  142.7418   77.0900  220.9115 H   0  0  0  0  0  0  0  0  0  0  0  0
  140.2128   78.1705  219.5948 H   0  0  0  0  0  0  0  0  0  0  0  0
  141.8865   78.1903  218.9534 H   0  0  0  0  0  0  0  0  0  0  0  0
  141.4417   74.7340  217.8633 H   0  0  0  0  0  0  0  0  0  0  0  0
  142.7219   75.9523  218.2516 H   0  0  0  0  0  0  0  0  0  0  0  0
  141.6351   73.8122  219.9227 H   0  0  0  0  0  0  0  0  0  0  0  0
  143.0597   74.7976  220.2018 H   0  0  0  0  0  0  0  0  0  0  0  0
  138.3176   75.6564  220.7366 H   0  0  0  0  0  0  0  0  0  0  0  0
  138.3567   74.9522  222.4982 H   0  0  0  0  0  0  0  0  0  0  0  0
  138.7700   77.2050  223.2730 H   0  0  0  0  0  0  0  0  0  0  0  0
  136.3997   79.8882  220.4161 H   0  0  0  0  0  0  0  0  0  0  0  0
  135.8291   82.0738  221.3919 H   0  0  0  0  0  0  0  0  0  0  0  0
  135.8067   83.5783  223.2283 H   0  0  0  0  0  0  0  0  0  0  0  0
  137.4920   82.3179  226.9606 H   0  0  0  0  0  0  0  0  0  0  0  0
  138.0698   80.1197  225.9862 H   0  0  0  0  0  0  0  0  0  0  0  0
  1  2  1  0
  2  3  1  0
  2  4  1  0
  4  5  1  0
  5  6  2  0
  6  7  1  0
  7  8  2  0
  8  9  1  0
  8 10  1  0
 10 11  2  0
  2 12  1  0
 12 13  1  0
 13 14  2  0
 13 15  1  0
 15 16  1  0
 16 17  1  0
 17 18  1  0
 18 19  1  0
 19 20  1  0
 20 21  1  0
 21 22  2  0
 21 23  1  0
 23 24  1  0
 24 25  1  0
 25 26  2  0
 25 27  1  0
 27 28  2  0
 28 29  1  0
 29 30  2  0
 30 31  1  0
 31 32  2  0
 32 33  1  0
 32 34  1  0
 34 35  2  0
 35 36  1  0
 36 37  2  0
 11  5  1  0
 20 15  1  0
 37 27  1  0
 36 30  1  0
  1 38  1  0
  1 39  1  0
  1 40  1  0
  3 41  1  0
  3 42  1  0
  3 43  1  0
  4 44  1  0
  4 45  1  0
  6 46  1  0
  7 47  1  0
 10 48  1  0
 11 49  1  0
 12 50  1  0
 15 51  1  6
 16 52  1  0
 16 53  1  0
 18 54  1  0
 18 55  1  0
 19 56  1  0
 19 57  1  0
 23 58  1  0
 23 59  1  0
 24 60  1  0
 28 61  1  0
 29 62  1  0
 31 63  1  0
 34 64  1  0
 35 65  1  0
M  END
>  <smiles>  (16) 
CC(C)(Cc1ccc(F)cc1)NC(=O)C1COCCN1C(=O)CNC(=O)c1ccc2cc(F)ccc2n1

>  <score_type>  (16) 
oracle

>  <origin>  (16) 
autodockgpu

>  <m_score__min__energy>  (16) 
-9.1099999999999994

>  <m_primary>  (16) 
energy

>  <meeko>  (16) 
{"free_energy": -5.7, "intermolecular_energy": -8.09, "internal_energy": -4.41, "cluster_size": 1, "cluster_id": 11, "rank_in_cluster": 1}

>  <energy>  (16) 
-6.94

>  <cluster_rmsd>  (16) 
0.0

>  <rmsd>  (16) 
269.82

>  <cluster>  (16) 
7

$$$$

     RDKit          3D

 65 68  0  0  1  0  0  0  0  0999 V2000
  141.2680   77.9930  222.8380 C   0  0  0  0  0  0  0  0  0  0  0  0
  140.2660   78.3440  221.7840 C   0  0  0  0  0  0  0  0  0  0  0  0
  139.2990   79.3310  222.4000 C   0  0  0  0  0  0  0  0  0  0  0  0
  141.0160   79.1220  220.7060 C   0  0  0  0  0  0  0  0  0  0  0  0
  141.7680   78.2460  219.7840 C   0  0  0  0  0  0  0  0  0  0  0  0
  142.5750   77.2140  220.2570 C   0  0  0  0  0  0  0  0  0  0  0  0
  143.2820   76.3870  219.4060 C   0  0  0  0  0  0  0  0  0  0  0  0
  143.2140   76.5550  218.0410 C   0  0  0  0  0  0  0  0  0  0  0  0
  143.8820   75.7780  217.1560 F   0  0  0  0  0  0  0  0  0  0  0  0
  142.4230   77.5680  217.5450 C   0  0  0  0  0  0  0  0  0  0  0  0
  141.7240   78.3850  218.4080 C   0  0  0  0  0  0  0  0  0  0  0  0
  139.6150   77.2390  221.1590 N   0  0  0  0  0  0  0  0  0  0  0  0
  138.6550   76.4070  221.8690 C   0  0  0  0  0  0  0  0  0  0  0  0
  138.4690   76.7600  223.0580 O   0  0  0  0  0  0  0  0  0  0  0  0
  138.0680   75.3260  221.1350 C   0  0  2  0  0  0  0  0  0  0  0  0
  137.6340   74.1090  221.9750 C   0  0  0  0  0  0  0  0  0  0  0  0
  137.6730   72.9830  221.1830 O   0  0  0  0  0  0  0  0  0  0  0  0
  137.0860   73.0680  219.9550 C   0  0  0  0  0  0  0  0  0  0  0  0
  137.7870   74.0770  219.0820 C   0  0  0  0  0  0  0  0  0  0  0  0
  138.7640   74.7240  220.0100 N   0  0  0  0  0  0  0  0  0  0  0  0
  140.1420   74.6730  219.8190 C   0  0  0  0  0  0  0  0  0  0  0  0
  140.5970   75.4150  218.8470 O   0  0  0  0  0  0  0  0  0  0  0  0
  141.1920   73.9360  220.5040 C   0  0  0  0  0  0  0  0  0  0  0  0
  140.9780   73.3050  221.7410 N   0  0  0  0  0  0  0  0  0  0  0  0
  140.4140   71.9670  221.7810 C   0  0  0  0  0  0  0  0  0  0  0  0
  140.1050   71.3560  220.7290 O   0  0  0  0  0  0  0  0  0  0  0  0
  140.2170   71.3490  223.0830 C   0  0  0  0  0  0  0  0  0  0  0  0
  139.4960   70.1740  223.1730 C   0  0  0  0  0  0  0  0  0  0  0  0
  139.2780   69.5450  224.3810 C   0  0  0  0  0  0  0  0  0  0  0  0
  139.7810   70.0830  225.5450 C   0  0  0  0  0  0  0  0  0  0  0  0
  139.5550   69.4420  226.7400 C   0  0  0  0  0  0  0  0  0  0  0  0
  140.0610   69.9860  227.9020 C   0  0  0  0  0  0  0  0  0  0  0  0
  139.8280   69.3410  229.0720 F   0  0  0  0  0  0  0  0  0  0  0  0
  140.7810   71.1590  227.8150 C   0  0  0  0  0  0  0  0  0  0  0  0
  141.0040   71.7980  226.6010 C   0  0  0  0  0  0  0  0  0  0  0  0
  140.4980   71.2570  225.4310 C   0  0  0  0  0  0  0  0  0  0  0  0
  140.7040   71.8640  224.2300 N   0  0  0  0  0  0  0  0  0  0  0  0
  140.8240   78.1485  223.8323 H   0  0  0  0  0  0  0  0  0  0  0  0
  141.5614   76.9385  222.7283 H   0  0  0  0  0  0  0  0  0  0  0  0
  142.1553   78.6338  222.7283 H   0  0  0  0  0  0  0  0  0  0  0  0
  139.3602   79.2686  223.4965 H   0  0  0  0  0  0  0  0  0  0  0  0
  139.5584   80.3496  222.0757 H   0  0  0  0  0  0  0  0  0  0  0  0
  138.2753   79.0925  222.0757 H   0  0  0  0  0  0  0  0  0  0  0  0
  140.2877   79.7037  220.1219 H   0  0  0  0  0  0  0  0  0  0  0  0
  141.7449   79.7709  221.2135 H   0  0  0  0  0  0  0  0  0  0  0  0
  142.6517   77.0525  221.3424 H   0  0  0  0  0  0  0  0  0  0  0  0
  143.9071   75.5842  219.8240 H   0  0  0  0  0  0  0  0  0  0  0  0
  142.3490   77.7252  216.4588 H   0  0  0  0  0  0  0  0  0  0  0  0
  141.1015   79.1857  217.9822 H   0  0  0  0  0  0  0  0  0  0  0  0
  139.8210   76.9980  220.1420 H   0  0  0  0  0  0  0  0  0  0  0  0
  137.2402   75.9386  220.7485 H   0  0  0  0  0  0  0  0  0  0  0  0
  138.3190   73.9851  222.8268 H   0  0  0  0  0  0  0  0  0  0  0  0
  136.6128   74.2629  222.3537 H   0  0  0  0  0  0  0  0  0  0  0  0
  137.1284   72.0823  219.4685 H   0  0  0  0  0  0  0  0  0  0  0  0
  136.0431   73.3906  220.0901 H   0  0  0  0  0  0  0  0  0  0  0  0
  138.3058   73.5819  218.2479 H   0  0  0  0  0  0  0  0  0  0  0  0
  137.0954   74.7964  218.6192 H   0  0  0  0  0  0  0  0  0  0  0  0
  141.5172   73.1476  219.8093 H   0  0  0  0  0  0  0  0  0  0  0  0
  141.8956   74.7373  220.7741 H   0  0  0  0  0  0  0  0  0  0  0  0
  141.2110   73.7610  222.6710 H   0  0  0  0  0  0  0  0  0  0  0  0
  139.0843   69.7277  222.2558 H   0  0  0  0  0  0  0  0  0  0  0  0
  138.7000   68.6097  224.4150 H   0  0  0  0  0  0  0  0  0  0  0  0
  138.9774   68.5063  226.7691 H   0  0  0  0  0  0  0  0  0  0  0  0
  141.1913   71.6024  228.7343 H   0  0  0  0  0  0  0  0  0  0  0  0
  141.5823   72.7332  226.5696 H   0  0  0  0  0  0  0  0  0  0  0  0
  1  2  1  0
  2  3  1  0
  2  4  1  0
  4  5  1  0
  5  6  2  0
  6  7  1  0
  7  8  2  0
  8  9  1  0
  8 10  1  0
 10 11  2  0
  2 12  1  0
 12 13  1  0
 13 14  2  0
 13 15  1  0
 15 16  1  0
 16 17  1  0
 17 18  1  0
 18 19  1  0
 19 20  1  0
 20 21  1  0
 21 22  2  0
 21 23  1  0
 23 24  1  0
 24 25  1  0
 25 26  2  0
 25 27  1  0
 27 28  2  0
 28 29  1  0
 29 30  2  0
 30 31  1  0
 31 32  2  0
 32 33  1  0
 32 34  1  0
 34 35  2  0
 35 36  1  0
 36 37  2  0
 11  5  1  0
 20 15  1  0
 37 27  1  0
 36 30  1  0
  1 38  1  0
  1 39  1  0
  1 40  1  0
  3 41  1  0
  3 42  1  0
  3 43  1  0
  4 44  1  0
  4 45  1  0
  6 46  1  0
  7 47  1  0
 10 48  1  0
 11 49  1  0
 12 50  1  0
 15 51  1  6
 16 52  1  0
 16 53  1  0
 18 54  1  0
 18 55  1  0
 19 56  1  0
 19 57  1  0
 23 58  1  0
 23 59  1  0
 24 60  1  0
 28 61  1  0
 29 62  1  0
 31 63  1  0
 34 64  1  0
 35 65  1  0
M  END
>  <smiles>  (17) 
CC(C)(Cc1ccc(F)cc1)NC(=O)C1COCCN1C(=O)CNC(=O)c1ccc2cc(F)ccc2n1

>  <score_type>  (17) 
oracle

>  <origin>  (17) 
autodockgpu

>  <m_score__min__energy>  (17) 
-9.1099999999999994

>  <m_primary>  (17) 
energy

>  <meeko>  (17) 
{"free_energy": -6.26, "intermolecular_energy": -8.65, "internal_energy": -3.61, "cluster_size": 1, "cluster_id": 9, "rank_in_cluster": 1}

>  <energy>  (17) 
-6.71

>  <cluster_rmsd>  (17) 
0.0

>  <rmsd>  (17) 
268.97

>  <cluster>  (17) 
8

$$$$

     RDKit          3D

 65 68  0  0  1  0  0  0  0  0999 V2000
  142.1780   80.7460  222.2430 C   0  0  0  0  0  0  0  0  0  0  0  0
  141.3980   79.4870  222.4490 C   0  0  0  0  0  0  0  0  0  0  0  0
  141.4070   79.1950  223.9330 C   0  0  0  0  0  0  0  0  0  0  0  0
  139.9460   79.8070  222.1040 C   0  0  0  0  0  0  0  0  0  0  0  0
  139.1130   78.5970  221.9410 C   0  0  0  0  0  0  0  0  0  0  0  0
  138.7800   77.7930  223.0290 C   0  0  0  0  0  0  0  0  0  0  0  0
  138.0020   76.6600  222.8920 C   0  0  0  0  0  0  0  0  0  0  0  0
  137.5200   76.2800  221.6590 C   0  0  0  0  0  0  0  0  0  0  0  0
  136.7530   75.1820  221.4600 F   0  0  0  0  0  0  0  0  0  0  0  0
  137.8340   77.0580  220.5660 C   0  0  0  0  0  0  0  0  0  0  0  0
  138.6120   78.1850  220.7200 C   0  0  0  0  0  0  0  0  0  0  0  0
  141.8050   78.3720  221.6570 N   0  0  0  0  0  0  0  0  0  0  0  0
  141.6990   78.3770  220.2060 C   0  0  0  0  0  0  0  0  0  0  0  0
  141.2240   79.4410  219.7420 O   0  0  0  0  0  0  0  0  0  0  0  0
  142.1390   77.2000  219.5200 C   0  0  2  0  0  0  0  0  0  0  0  0
  141.5220   76.9700  218.1270 C   0  0  0  0  0  0  0  0  0  0  0  0
  141.5190   75.6200  217.8560 O   0  0  0  0  0  0  0  0  0  0  0  0
  142.6790   74.9390  218.0860 C   0  0  0  0  0  0  0  0  0  0  0  0
  143.0400   74.9540  219.5490 C   0  0  0  0  0  0  0  0  0  0  0  0
  142.0410   75.8920  220.1470 N   0  0  0  0  0  0  0  0  0  0  0  0
  141.1210   75.5040  221.1180 C   0  0  0  0  0  0  0  0  0  0  0  0
  141.1840   76.1680  222.2400 O   0  0  0  0  0  0  0  0  0  0  0  0
  140.0870   74.4830  221.1250 C   0  0  0  0  0  0  0  0  0  0  0  0
  139.8660   73.6500  222.2360 N   0  0  0  0  0  0  0  0  0  0  0  0
  140.5620   72.3780  222.3340 C   0  0  0  0  0  0  0  0  0  0  0  0
  141.3590   71.9980  221.4420 O   0  0  0  0  0  0  0  0  0  0  0  0
  140.3090   71.5520  223.5040 C   0  0  0  0  0  0  0  0  0  0  0  0
  139.5810   70.3860  223.3650 C   0  0  0  0  0  0  0  0  0  0  0  0
  139.3110   69.5660  224.4400 C   0  0  0  0  0  0  0  0  0  0  0  0
  139.7670   69.8940  225.6970 C   0  0  0  0  0  0  0  0  0  0  0  0
  139.4890   69.0630  226.7570 C   0  0  0  0  0  0  0  0  0  0  0  0
  139.9500   69.3980  228.0130 C   0  0  0  0  0  0  0  0  0  0  0  0
  139.6660   68.5680  229.0470 F   0  0  0  0  0  0  0  0  0  0  0  0
  140.6770   70.5610  228.1550 C   0  0  0  0  0  0  0  0  0  0  0  0
  140.9520   71.3930  227.0760 C   0  0  0  0  0  0  0  0  0  0  0  0
  140.4930   71.0630  225.8120 C   0  0  0  0  0  0  0  0  0  0  0  0
  140.7510   71.8610  224.7400 N   0  0  0  0  0  0  0  0  0  0  0  0
  142.4445   81.1762  223.2197 H   0  0  0  0  0  0  0  0  0  0  0  0
  143.0951   80.5210  221.6789 H   0  0  0  0  0  0  0  0  0  0  0  0
  141.5681   81.4670  221.6789 H   0  0  0  0  0  0  0  0  0  0  0  0
  141.3778   80.1413  224.4931 H   0  0  0  0  0  0  0  0  0  0  0  0
  140.5271   78.5880  224.1926 H   0  0  0  0  0  0  0  0  0  0  0  0
  142.3226   78.6433  224.1926 H   0  0  0  0  0  0  0  0  0  0  0  0
  139.5202   80.4199  222.9121 H   0  0  0  0  0  0  0  0  0  0  0  0
  139.9453   80.3401  221.1418 H   0  0  0  0  0  0  0  0  0  0  0  0
  139.1481   78.0691  224.0281 H   0  0  0  0  0  0  0  0  0  0  0  0
  137.7644   76.0537  223.7785 H   0  0  0  0  0  0  0  0  0  0  0  0
  137.4630   76.7790  219.5687 H   0  0  0  0  0  0  0  0  0  0  0  0
  138.8456   78.7857  219.8286 H   0  0  0  0  0  0  0  0  0  0  0  0
  142.2030   77.4990  222.1200 H   0  0  0  0  0  0  0  0  0  0  0  0
  143.1947   77.5089  219.5113 H   0  0  0  0  0  0  0  0  0  0  0  0
  140.4903   77.3514  218.1129 H   0  0  0  0  0  0  0  0  0  0  0  0
  142.1132   77.5007  217.3662 H   0  0  0  0  0  0  0  0  0  0  0  0
  142.5538   73.8965  217.7582 H   0  0  0  0  0  0  0  0  0  0  0  0
  143.4873   75.4287  217.5232 H   0  0  0  0  0  0  0  0  0  0  0  0
  142.9469   73.9493  219.9870 H   0  0  0  0  0  0  0  0  0  0  0  0
  144.0798   75.2641  219.7299 H   0  0  0  0  0  0  0  0  0  0  0  0
  139.1373   75.0062  220.9395 H   0  0  0  0  0  0  0  0  0  0  0  0
  140.4626   73.7709  220.3754 H   0  0  0  0  0  0  0  0  0  0  0  0
  139.2030   73.9020  223.0260 H   0  0  0  0  0  0  0  0  0  0  0  0
  139.2067   70.1043  222.3698 H   0  0  0  0  0  0  0  0  0  0  0  0
  138.7282   68.6448  224.2926 H   0  0  0  0  0  0  0  0  0  0  0  0
  138.9062   68.1426  226.6050 H   0  0  0  0  0  0  0  0  0  0  0  0
  141.0504   70.8386  229.1517 H   0  0  0  0  0  0  0  0  0  0  0  0
  141.5345   72.3139  227.2263 H   0  0  0  0  0  0  0  0  0  0  0  0
  1  2  1  0
  2  3  1  0
  2  4  1  0
  4  5  1  0
  5  6  2  0
  6  7  1  0
  7  8  2  0
  8  9  1  0
  8 10  1  0
 10 11  2  0
  2 12  1  0
 12 13  1  0
 13 14  2  0
 13 15  1  0
 15 16  1  0
 16 17  1  0
 17 18  1  0
 18 19  1  0
 19 20  1  0
 20 21  1  0
 21 22  2  0
 21 23  1  0
 23 24  1  0
 24 25  1  0
 25 26  2  0
 25 27  1  0
 27 28  2  0
 28 29  1  0
 29 30  2  0
 30 31  1  0
 31 32  2  0
 32 33  1  0
 32 34  1  0
 34 35  2  0
 35 36  1  0
 36 37  2  0
 11  5  1  0
 20 15  1  0
 37 27  1  0
 36 30  1  0
  1 38  1  0
  1 39  1  0
  1 40  1  0
  3 41  1  0
  3 42  1  0
  3 43  1  0
  4 44  1  0
  4 45  1  0
  6 46  1  0
  7 47  1  0
 10 48  1  0
 11 49  1  0
 12 50  1  0
 15 51  1  6
 16 52  1  0
 16 53  1  0
 18 54  1  0
 18 55  1  0
 19 56  1  0
 19 57  1  0
 23 58  1  0
 23 59  1  0
 24 60  1  0
 28 61  1  0
 29 62  1  0
 31 63  1  0
 34 64  1  0
 35 65  1  0
M  END
>  <smiles>  (18) 
CC(C)(Cc1ccc(F)cc1)NC(=O)C1COCCN1C(=O)CNC(=O)c1ccc2cc(F)ccc2n1

>  <score_type>  (18) 
oracle

>  <origin>  (18) 
autodockgpu

>  <m_score__min__energy>  (18) 
-9.1099999999999994

>  <m_primary>  (18) 
energy

>  <meeko>  (18) 
{"free_energy": -8.56, "intermolecular_energy": -10.94, "internal_energy": -2.92, "cluster_size": 4, "cluster_id": 2, "rank_in_cluster": 4}

>  <energy>  (18) 
-6.26

>  <cluster_rmsd>  (18) 
0.0

>  <rmsd>  (18) 
269.35

>  <cluster>  (18) 
9

$$$$

     RDKit          3D

 65 68  0  0  1  0  0  0  0  0999 V2000
  141.4470   72.2150  216.6070 C   0  0  0  0  0  0  0  0  0  0  0  0
  142.1970   72.2540  217.9010 C   0  0  0  0  0  0  0  0  0  0  0  0
  142.5920   70.8310  218.2310 C   0  0  0  0  0  0  0  0  0  0  0  0
  143.5060   72.9900  217.6280 C   0  0  0  0  0  0  0  0  0  0  0  0
  144.3530   73.1220  218.8320 C   0  0  0  0  0  0  0  0  0  0  0  0
  144.2140   74.2000  219.7030 C   0  0  0  0  0  0  0  0  0  0  0  0
  144.9970   74.3350  220.8330 C   0  0  0  0  0  0  0  0  0  0  0  0
  145.9570   73.3960  221.1420 C   0  0  0  0  0  0  0  0  0  0  0  0
  146.7550   73.4730  222.2340 F   0  0  0  0  0  0  0  0  0  0  0  0
  146.1150   72.3200  220.2980 C   0  0  0  0  0  0  0  0  0  0  0  0
  145.3250   72.2000  219.1740 C   0  0  0  0  0  0  0  0  0  0  0  0
  141.5350   72.9150  218.9780 N   0  0  0  0  0  0  0  0  0  0  0  0
  141.0370   74.2770  218.8580 C   0  0  0  0  0  0  0  0  0  0  0  0
  141.2480   74.7900  217.7340 O   0  0  0  0  0  0  0  0  0  0  0  0
  140.3900   74.8340  220.0080 C   0  0  2  0  0  0  0  0  0  0  0  0
  141.0350   74.4930  221.3660 C   0  0  0  0  0  0  0  0  0  0  0  0
  140.0660   74.5340  222.3440 O   0  0  0  0  0  0  0  0  0  0  0  0
  139.2470   75.6260  222.3580 C   0  0  0  0  0  0  0  0  0  0  0  0
  138.4150   75.7020  221.1040 C   0  0  0  0  0  0  0  0  0  0  0  0
  138.9730   74.6120  220.2470 N   0  0  0  0  0  0  0  0  0  0  0  0
  138.2210   73.5220  219.8180 C   0  0  0  0  0  0  0  0  0  0  0  0
  137.3490   73.7820  218.8820 O   0  0  0  0  0  0  0  0  0  0  0  0
  138.2160   72.1240  220.2200 C   0  0  0  0  0  0  0  0  0  0  0  0
  138.4520   71.7270  221.5470 N   0  0  0  0  0  0  0  0  0  0  0  0
  139.7900   71.3350  221.9570 C   0  0  0  0  0  0  0  0  0  0  0  0
  140.7480   71.3360  221.1460 O   0  0  0  0  0  0  0  0  0  0  0  0
  139.9900   70.9390  223.3420 C   0  0  0  0  0  0  0  0  0  0  0  0
  140.5310   71.8440  224.2340 C   0  0  0  0  0  0  0  0  0  0  0  0
  140.7430   71.5230  225.5570 C   0  0  0  0  0  0  0  0  0  0  0  0
  140.4160   70.2710  226.0300 C   0  0  0  0  0  0  0  0  0  0  0  0
  140.6340   69.9680  227.3530 C   0  0  0  0  0  0  0  0  0  0  0  0
  140.3040   68.7120  227.8190 C   0  0  0  0  0  0  0  0  0  0  0  0
  140.5260   68.4300  229.1270 F   0  0  0  0  0  0  0  0  0  0  0  0
  139.7630   67.8060  226.9310 C   0  0  0  0  0  0  0  0  0  0  0  0
  139.5480   68.1240  225.5950 C   0  0  0  0  0  0  0  0  0  0  0  0
  139.8770   69.3820  225.1210 C   0  0  0  0  0  0  0  0  0  0  0  0
  139.6730   69.7170  223.8170 N   0  0  0  0  0  0  0  0  0  0  0  0
  140.3674   72.1589  216.8105 H   0  0  0  0  0  0  0  0  0  0  0  0
  141.6644   73.1257  216.0296 H   0  0  0  0  0  0  0  0  0  0  0  0
  141.7577   71.3318  216.0296 H   0  0  0  0  0  0  0  0  0  0  0  0
  142.6272   70.7041  219.3231 H   0  0  0  0  0  0  0  0  0  0  0  0
  141.8525   70.1370  217.8049 H   0  0  0  0  0  0  0  0  0  0  0  0
  143.5834   70.6175  217.8049 H   0  0  0  0  0  0  0  0  0  0  0  0
  144.0680   72.4347  216.8626 H   0  0  0  0  0  0  0  0  0  0  0  0
  143.2500   74.0054  217.2913 H   0  0  0  0  0  0  0  0  0  0  0  0
  143.4572   74.9677  219.4842 H   0  0  0  0  0  0  0  0  0  0  0  0
  144.8524   75.2023  221.4939 H   0  0  0  0  0  0  0  0  0  0  0  0
  146.8729   71.5544  220.5206 H   0  0  0  0  0  0  0  0  0  0  0  0
  145.4753   71.3295  218.5185 H   0  0  0  0  0  0  0  0  0  0  0  0
  141.3880   72.4150  219.9080 H   0  0  0  0  0  0  0  0  0  0  0  0
  140.5322   75.8736  219.6777 H   0  0  0  0  0  0  0  0  0  0  0  0
  141.4740   73.4853  221.3234 H   0  0  0  0  0  0  0  0  0  0  0  0
  141.8266   75.2214  221.5955 H   0  0  0  0  0  0  0  0  0  0  0  0
  138.5779   75.5610  223.2287 H   0  0  0  0  0  0  0  0  0  0  0  0
  139.8728   76.5288  222.4149 H   0  0  0  0  0  0  0  0  0  0  0  0
  137.3526   75.5226  221.3258 H   0  0  0  0  0  0  0  0  0  0  0  0
  138.4572   76.6897  220.6216 H   0  0  0  0  0  0  0  0  0  0  0  0
  137.2236   71.7313  219.9537 H   0  0  0  0  0  0  0  0  0  0  0  0
  139.1043   71.7332  219.7022 H   0  0  0  0  0  0  0  0  0  0  0  0
  137.6910   71.6970  222.2860 H   0  0  0  0  0  0  0  0  0  0  0  0
  140.8002   72.8494  223.8782 H   0  0  0  0  0  0  0  0  0  0  0  0
  141.1754   72.2700  226.2389 H   0  0  0  0  0  0  0  0  0  0  0  0
  141.0663   70.7178  228.0319 H   0  0  0  0  0  0  0  0  0  0  0  0
  139.4936   66.8020  227.2906 H   0  0  0  0  0  0  0  0  0  0  0  0
  139.1162   67.3755  224.9143 H   0  0  0  0  0  0  0  0  0  0  0  0
  1  2  1  0
  2  3  1  0
  2  4  1  0
  4  5  1  0
  5  6  2  0
  6  7  1  0
  7  8  2  0
  8  9  1  0
  8 10  1  0
 10 11  2  0
  2 12  1  0
 12 13  1  0
 13 14  2  0
 13 15  1  0
 15 16  1  0
 16 17  1  0
 17 18  1  0
 18 19  1  0
 19 20  1  0
 20 21  1  0
 21 22  2  0
 21 23  1  0
 23 24  1  0
 24 25  1  0
 25 26  2  0
 25 27  1  0
 27 28  2  0
 28 29  1  0
 29 30  2  0
 30 31  1  0
 31 32  2  0
 32 33  1  0
 32 34  1  0
 34 35  2  0
 35 36  1  0
 36 37  2  0
 11  5  1  0
 20 15  1  0
 37 27  1  0
 36 30  1  0
  1 38  1  0
  1 39  1  0
  1 40  1  0
  3 41  1  0
  3 42  1  0
  3 43  1  0
  4 44  1  0
  4 45  1  0
  6 46  1  0
  7 47  1  0
 10 48  1  0
 11 49  1  0
 12 50  1  0
 15 51  1  6
 16 52  1  0
 16 53  1  0
 18 54  1  0
 18 55  1  0
 19 56  1  0
 19 57  1  0
 23 58  1  0
 23 59  1  0
 24 60  1  0
 28 61  1  0
 29 62  1  0
 31 63  1  0
 34 64  1  0
 35 65  1  0
M  END
>  <smiles>  (19) 
CC(C)(Cc1ccc(F)cc1)NC(=O)C1COCCN1C(=O)CNC(=O)c1ccc2cc(F)ccc2n1

>  <score_type>  (19) 
oracle

>  <origin>  (19) 
autodockgpu

>  <m_score__min__energy>  (19) 
-9.1099999999999994

>  <m_primary>  (19) 
energy

>  <meeko>  (19) 
{"free_energy": -6.71, "intermolecular_energy": -9.09, "internal_energy": -3.49, "cluster_size": 1, "cluster_id": 8, "rank_in_cluster": 1}

>  <energy>  (19) 
-5.74

>  <cluster_rmsd>  (19) 
0.0

>  <rmsd>  (19) 
269.99

>  <cluster>  (19) 
10

$$$$

     RDKit          3D

 65 68  0  0  1  0  0  0  0  0999 V2000
  141.3480   78.2570  217.1750 C   0  0  0  0  0  0  0  0  0  0  0  0
  142.0490   78.4920  218.4760 C   0  0  0  0  0  0  0  0  0  0  0  0
  142.6780   79.8660  218.4000 C   0  0  0  0  0  0  0  0  0  0  0  0
  140.9660   78.5950  219.5470 C   0  0  0  0  0  0  0  0  0  0  0  0
  141.4170   79.3220  220.7520 C   0  0  0  0  0  0  0  0  0  0  0  0
  142.1550   78.6880  221.7490 C   0  0  0  0  0  0  0  0  0  0  0  0
  142.5840   79.3560  222.8790 C   0  0  0  0  0  0  0  0  0  0  0  0
  142.2950   80.6900  223.0630 C   0  0  0  0  0  0  0  0  0  0  0  0
  142.6870   81.3990  224.1480 F   0  0  0  0  0  0  0  0  0  0  0  0
  141.5670   81.3420  222.0920 C   0  0  0  0  0  0  0  0  0  0  0  0
  141.1460   80.6610  220.9700 C   0  0  0  0  0  0  0  0  0  0  0  0
  142.9680   77.4770  218.8730 N   0  0  0  0  0  0  0  0  0  0  0  0
  142.6970   76.0630  218.6590 C   0  0  0  0  0  0  0  0  0  0  0  0
  141.5950   75.8430  218.1020 O   0  0  0  0  0  0  0  0  0  0  0  0
  143.6960   75.1370  219.1020 C   0  0  2  0  0  0  0  0  0  0  0  0
  144.3390   74.2730  218.0010 C   0  0  0  0  0  0  0  0  0  0  0  0
  144.7730   73.0900  218.5570 O   0  0  0  0  0  0  0  0  0  0  0  0
  145.4970   73.1760  219.7100 C   0  0  0  0  0  0  0  0  0  0  0  0
  144.6720   73.7540  220.8310 C   0  0  0  0  0  0  0  0  0  0  0  0
  143.4080   74.1770  220.1540 N   0  0  0  0  0  0  0  0  0  0  0  0
  142.1600   73.6470  220.4750 C   0  0  0  0  0  0  0  0  0  0  0  0
  142.1780   72.6610  221.3290 O   0  0  0  0  0  0  0  0  0  0  0  0
  140.8180   73.9840  220.0300 C   0  0  0  0  0  0  0  0  0  0  0  0
  140.2200   75.2210  220.3250 N   0  0  0  0  0  0  0  0  0  0  0  0
  139.6020   75.4330  221.6230 C   0  0  0  0  0  0  0  0  0  0  0  0
  139.5820   74.5290  222.4930 O   0  0  0  0  0  0  0  0  0  0  0  0
  139.0030   76.7310  221.8890 C   0  0  0  0  0  0  0  0  0  0  0  0
  137.9120   77.1390  221.1450 C   0  0  0  0  0  0  0  0  0  0  0  0
  137.3060   78.3590  221.3540 C   0  0  0  0  0  0  0  0  0  0  0  0
  137.7800   79.2150  222.3230 C   0  0  0  0  0  0  0  0  0  0  0  0
  137.1620   80.4280  222.5180 C   0  0  0  0  0  0  0  0  0  0  0  0
  137.6420   81.2800  223.4910 C   0  0  0  0  0  0  0  0  0  0  0  0
  137.0220   82.4720  223.6690 F   0  0  0  0  0  0  0  0  0  0  0  0
  138.7320   80.8750  224.2340 C   0  0  0  0  0  0  0  0  0  0  0  0
  139.3480   79.6470  224.0280 C   0  0  0  0  0  0  0  0  0  0  0  0
  138.8710   78.7870  223.0540 C   0  0  0  0  0  0  0  0  0  0  0  0
  139.4570   77.5780  222.8350 N   0  0  0  0  0  0  0  0  0  0  0  0
  140.3213   77.9128  217.3686 H   0  0  0  0  0  0  0  0  0  0  0  0
  141.3182   79.1943  216.6000 H   0  0  0  0  0  0  0  0  0  0  0  0
  141.8892   77.4911  216.6000 H   0  0  0  0  0  0  0  0  0  0  0  0
  142.8521   80.2463  219.4174 H   0  0  0  0  0  0  0  0  0  0  0  0
  143.6362   79.8014  217.8637 H   0  0  0  0  0  0  0  0  0  0  0  0
  142.0029   80.5491  217.8637 H   0  0  0  0  0  0  0  0  0  0  0  0
  140.1004   79.1238  219.1213 H   0  0  0  0  0  0  0  0  0  0  0  0
  140.7084   77.5712  219.8559 H   0  0  0  0  0  0  0  0  0  0  0  0
  142.4036   77.6228  221.6326 H   0  0  0  0  0  0  0  0  0  0  0  0
  143.1639   78.8158  223.6418 H   0  0  0  0  0  0  0  0  0  0  0  0
  141.3214   82.4075  222.2123 H   0  0  0  0  0  0  0  0  0  0  0  0
  140.5669   81.2083  220.2117 H   0  0  0  0  0  0  0  0  0  0  0  0
  143.8900   77.7380  219.3410 H   0  0  0  0  0  0  0  0  0  0  0  0
  144.3486   75.9221  219.5116 H   0  0  0  0  0  0  0  0  0  0  0  0
  143.5968   74.0619  217.2170 H   0  0  0  0  0  0  0  0  0  0  0  0
  145.1902   74.8096  217.5565 H   0  0  0  0  0  0  0  0  0  0  0  0
  145.8361   72.1695  219.9964 H   0  0  0  0  0  0  0  0  0  0  0  0
  146.3562   73.8395  219.5326 H   0  0  0  0  0  0  0  0  0  0  0  0
  144.4701   72.9955  221.6017 H   0  0  0  0  0  0  0  0  0  0  0  0
  145.1766   74.5818  221.3507 H   0  0  0  0  0  0  0  0  0  0  0  0
  140.8287   73.9020  218.9331 H   0  0  0  0  0  0  0  0  0  0  0  0
  140.2009   73.2862  220.6150 H   0  0  0  0  0  0  0  0  0  0  0  0
  140.1940   76.0300  219.6390 H   0  0  0  0  0  0  0  0  0  0  0  0
  137.5167   76.4718  220.3649 H   0  0  0  0  0  0  0  0  0  0  0  0
  136.4388   78.6506  220.7434 H   0  0  0  0  0  0  0  0  0  0  0  0
  136.2949   80.7155  221.9052 H   0  0  0  0  0  0  0  0  0  0  0  0
  139.1250   81.5448  225.0130 H   0  0  0  0  0  0  0  0  0  0  0  0
  140.2155   79.3579  224.6394 H   0  0  0  0  0  0  0  0  0  0  0  0
  1  2  1  0
  2  3  1  0
  2  4  1  0
  4  5  1  0
  5  6  2  0
  6  7  1  0
  7  8  2  0
  8  9  1  0
  8 10  1  0
 10 11  2  0
  2 12  1  0
 12 13  1  0
 13 14  2  0
 13 15  1  0
 15 16  1  0
 16 17  1  0
 17 18  1  0
 18 19  1  0
 19 20  1  0
 20 21  1  0
 21 22  2  0
 21 23  1  0
 23 24  1  0
 24 25  1  0
 25 26  2  0
 25 27  1  0
 27 28  2  0
 28 29  1  0
 29 30  2  0
 30 31  1  0
 31 32  2  0
 32 33  1  0
 32 34  1  0
 34 35  2  0
 35 36  1  0
 36 37  2  0
 11  5  1  0
 20 15  1  0
 37 27  1  0
 36 30  1  0
  1 38  1  0
  1 39  1  0
  1 40  1  0
  3 41  1  0
  3 42  1  0
  3 43  1  0
  4 44  1  0
  4 45  1  0
  6 46  1  0
  7 47  1  0
 10 48  1  0
 11 49  1  0
 12 50  1  0
 15 51  1  1
 16 52  1  0
 16 53  1  0
 18 54  1  0
 18 55  1  0
 19 56  1  0
 19 57  1  0
 23 58  1  0
 23 59  1  0
 24 60  1  0
 28 61  1  0
 29 62  1  0
 31 63  1  0
 34 64  1  0
 35 65  1  0
M  END
>  <smiles>  (20) 
CC(C)(Cc1ccc(F)cc1)NC(=O)C1COCCN1C(=O)CNC(=O)c1ccc2cc(F)ccc2n1

>  <score_type>  (20) 
oracle

>  <origin>  (20) 
autodockgpu

>  <m_score__min__energy>  (20) 
-9.1099999999999994

>  <m_primary>  (20) 
energy

>  <meeko>  (20) 
{"free_energy": -6.94, "intermolecular_energy": -9.33, "internal_energy": -3.88, "cluster_size": 1, "cluster_id": 7, "rank_in_cluster": 1}

>  <energy>  (20) 
-5.7

>  <cluster_rmsd>  (20) 
0.0

>  <rmsd>  (20) 
270.33

>  <cluster>  (20) 
11

$$$$

     RDKit          3D

 65 68  0  0  1  0  0  0  0  0999 V2000
  136.3630   79.4740  223.4710 C   0  0  0  0  0  0  0  0  0  0  0  0
  137.6790   79.8980  222.7510 C   0  0  0  0  0  0  0  0  0  0  0  0
  137.3220   81.1720  222.0340 C   0  0  0  0  0  0  0  0  0  0  0  0
  138.6100   80.2140  223.8810 C   0  0  0  0  0  0  0  0  0  0  0  0
  140.0360   80.1440  223.6510 C   0  0  0  0  0  0  0  0  0  0  0  0
  140.8270   79.0190  223.8390 C   0  0  0  0  0  0  0  0  0  0  0  0
  142.1820   79.0110  223.5580 C   0  0  0  0  0  0  0  0  0  0  0  0
  142.7960   80.1460  223.0740 C   0  0  0  0  0  0  0  0  0  0  0  0
  144.1320   80.1410  222.7970 F   0  0  0  0  0  0  0  0  0  0  0  0
  142.0280   81.2970  222.8740 C   0  0  0  0  0  0  0  0  0  0  0  0
  140.6780   81.2920  223.1580 C   0  0  0  0  0  0  0  0  0  0  0  0
  138.0210   78.8040  221.9190 N   0  0  0  0  0  0  0  0  0  0  0  0
  139.0410   78.8290  220.9050 C   0  0  0  0  0  0  0  0  0  0  0  0
  139.7100   79.8390  220.6640 O   0  0  0  0  0  0  0  0  0  0  0  0
  139.3400   77.6070  220.0820 C   0  0  1  0  0  0  0  0  0  0  0  0
  139.7100   77.9980  218.6800 C   0  0  0  0  0  0  0  0  0  0  0  0
  140.8990   77.4410  218.2280 O   0  0  0  0  0  0  0  0  0  0  0  0
  141.9580   77.6940  219.0980 C   0  0  0  0  0  0  0  0  0  0  0  0
  141.7820   76.9220  220.3710 C   0  0  0  0  0  0  0  0  0  0  0  0
  140.3640   76.7810  220.6470 N   0  0  0  0  0  0  0  0  0  0  0  0
  139.9800   75.7520  221.5410 C   0  0  0  0  0  0  0  0  0  0  0  0
  139.5440   75.9990  222.7160 O   0  0  0  0  0  0  0  0  0  0  0  0
  140.0530   74.3060  221.1830 C   0  0  0  0  0  0  0  0  0  0  0  0
  139.9330   73.4630  222.3450 N   0  0  0  0  0  0  0  0  0  0  0  0
  140.3370   72.1000  222.3430 C   0  0  0  0  0  0  0  0  0  0  0  0
  140.8240   71.6200  221.2630 O   0  0  0  0  0  0  0  0  0  0  0  0
  140.2010   71.2690  223.5390 C   0  0  0  0  0  0  0  0  0  0  0  0
  139.5930   70.0360  223.4160 C   0  0  0  0  0  0  0  0  0  0  0  0
  139.4300   69.1950  224.5100 C   0  0  0  0  0  0  0  0  0  0  0  0
  139.9110   69.6670  225.7150 C   0  0  0  0  0  0  0  0  0  0  0  0
  139.7800   68.8760  226.8380 C   0  0  0  0  0  0  0  0  0  0  0  0
  140.2360   69.2790  228.0770 C   0  0  0  0  0  0  0  0  0  0  0  0
  140.0880   68.4720  229.1630 F   0  0  0  0  0  0  0  0  0  0  0  0
  140.8480   70.5310  228.1750 C   0  0  0  0  0  0  0  0  0  0  0  0
  140.9940   71.3450  227.0630 C   0  0  0  0  0  0  0  0  0  0  0  0
  140.5240   70.9040  225.8440 C   0  0  0  0  0  0  0  0  0  0  0  0
  140.6540   71.6840  224.7350 N   0  0  0  0  0  0  0  0  0  0  0  0
  136.5094   79.5212  224.5602 H   0  0  0  0  0  0  0  0  0  0  0  0
  135.5501   80.1557  223.1804 H   0  0  0  0  0  0  0  0  0  0  0  0
  136.1009   78.4459  223.1804 H   0  0  0  0  0  0  0  0  0  0  0  0
  137.1017   81.9582  222.7711 H   0  0  0  0  0  0  0  0  0  0  0  0
  138.1665   81.4869  221.4034 H   0  0  0  0  0  0  0  0  0  0  0  0
  136.4369   81.0022  221.4034 H   0  0  0  0  0  0  0  0  0  0  0  0
  138.3854   81.2403  224.2072 H   0  0  0  0  0  0  0  0  0  0  0  0
  138.4198   79.4151  224.6128 H   0  0  0  0  0  0  0  0  0  0  0  0
  140.3601   78.1009  224.2252 H   0  0  0  0  0  0  0  0  0  0  0  0
  142.7706   78.0962  223.7214 H   0  0  0  0  0  0  0  0  0  0  0  0
  142.5026   82.2113  222.4882 H   0  0  0  0  0  0  0  0  0  0  0  0
  140.0910   82.2078  222.9947 H   0  0  0  0  0  0  0  0  0  0  0  0
  137.5300   77.8560  221.9880 H   0  0  0  0  0  0  0  0  0  0  0  0
  138.4181   77.0070  220.0717 H   0  0  0  0  0  0  0  0  0  0  0  0
  138.9011   77.6766  218.0075 H   0  0  0  0  0  0  0  0  0  0  0  0
  139.8536   79.0886  218.6838 H   0  0  0  0  0  0  0  0  0  0  0  0
  142.9012   77.3930  218.6186 H   0  0  0  0  0  0  0  0  0  0  0  0
  141.9799   78.7687  219.3316 H   0  0  0  0  0  0  0  0  0  0  0  0
  142.2376   75.9265  220.2644 H   0  0  0  0  0  0  0  0  0  0  0  0
  142.2702   77.4560  221.1996 H   0  0  0  0  0  0  0  0  0  0  0  0
  139.2361   74.0698  220.4852 H   0  0  0  0  0  0  0  0  0  0  0  0
  141.0331   74.1160  220.7211 H   0  0  0  0  0  0  0  0  0  0  0  0
  139.5370   73.8210  223.2510 H   0  0  0  0  0  0  0  0  0  0  0  0
  139.2293   69.7119  222.4298 H   0  0  0  0  0  0  0  0  0  0  0  0
  138.9462   68.2111  224.4212 H   0  0  0  0  0  0  0  0  0  0  0  0
  139.2966   67.8925  226.7428 H   0  0  0  0  0  0  0  0  0  0  0  0
  141.2201   70.8763  229.1508 H   0  0  0  0  0  0  0  0  0  0  0  0
  141.4779   72.3289  227.1515 H   0  0  0  0  0  0  0  0  0  0  0  0
  1  2  1  0
  2  3  1  0
  2  4  1  0
  4  5  1  0
  5  6  2  0
  6  7  1  0
  7  8  2  0
  8  9  1  0
  8 10  1  0
 10 11  2  0
  2 12  1  0
 12 13  1  0
 13 14  2  0
 13 15  1  0
 15 16  1  0
 16 17  1  0
 17 18  1  0
 18 19  1  0
 19 20  1  0
 20 21  1  0
 21 22  2  0
 21 23  1  0
 23 24  1  0
 24 25  1  0
 25 26  2  0
 25 27  1  0
 27 28  2  0
 28 29  1  0
 29 30  2  0
 30 31  1  0
 31 32  2  0
 32 33  1  0
 32 34  1  0
 34 35  2  0
 35 36  1  0
 36 37  2  0
 11  5  1  0
 20 15  1  0
 37 27  1  0
 36 30  1  0
  1 38  1  0
  1 39  1  0
  1 40  1  0
  3 41  1  0
  3 42  1  0
  3 43  1  0
  4 44  1  0
  4 45  1  0
  6 46  1  0
  7 47  1  0
 10 48  1  0
 11 49  1  0
 12 50  1  0
 15 51  1  6
 16 52  1  0
 16 53  1  0
 18 54  1  0
 18 55  1  0
 19 56  1  0
 19 57  1  0
 23 58  1  0
 23 59  1  0
 24 60  1  0
 28 61  1  0
 29 62  1  0
 31 63  1  0
 34 64  1  0
 35 65  1  0
M  END
>  <smiles>  (21) 
CC(C)(Cc1ccc(F)cc1)NC(=O)C1COCCN1C(=O)CNC(=O)c1ccc2cc(F)ccc2n1

>  <score_type>  (21) 
oracle

>  <origin>  (21) 
autodockgpu

>  <m_score__min__energy>  (21) 
-9.2899999999999991

>  <m_primary>  (21) 
energy

>  <meeko>  (21) 
{"free_energy": -8.75, "intermolecular_energy": -11.14, "internal_energy": -3.16, "cluster_size": 4, "cluster_id": 2, "rank_in_cluster": 1}

>  <energy>  (21) 
-9.29

>  <cluster_rmsd>  (21) 
0.0

>  <rmsd>  (21) 
271.29

>  <cluster>  (21) 
1

$$$$

     RDKit          3D

 65 68  0  0  1  0  0  0  0  0999 V2000
  141.8110   78.1630  223.7730 C   0  0  0  0  0  0  0  0  0  0  0  0
  140.7300   78.8520  222.8870 C   0  0  0  0  0  0  0  0  0  0  0  0
  139.9600   79.7240  223.8430 C   0  0  0  0  0  0  0  0  0  0  0  0
  141.5330   79.7200  221.9670 C   0  0  0  0  0  0  0  0  0  0  0  0
  141.8340   79.2370  220.6380 C   0  0  0  0  0  0  0  0  0  0  0  0
  141.8610   80.0130  219.4870 C   0  0  0  0  0  0  0  0  0  0  0  0
  142.1990   79.4930  218.2500 C   0  0  0  0  0  0  0  0  0  0  0  0
  142.5230   78.1590  218.1250 C   0  0  0  0  0  0  0  0  0  0  0  0
  142.8550   77.6430  216.9070 F   0  0  0  0  0  0  0  0  0  0  0  0
  142.5040   77.3490  219.2650 C   0  0  0  0  0  0  0  0  0  0  0  0
  142.1660   77.8800  220.4920 C   0  0  0  0  0  0  0  0  0  0  0  0
  139.9950   77.7940  222.2990 N   0  0  0  0  0  0  0  0  0  0  0  0
  138.6910   77.9250  221.7090 C   0  0  0  0  0  0  0  0  0  0  0  0
  138.0840   79.0020  221.6780 O   0  0  0  0  0  0  0  0  0  0  0  0
  137.9980   76.7410  221.0950 C   0  0  1  0  0  0  0  0  0  0  0  0
  137.0870   77.1840  219.9870 C   0  0  0  0  0  0  0  0  0  0  0  0
  137.2730   76.5060  218.7900 O   0  0  0  0  0  0  0  0  0  0  0  0
  138.6010   76.5450  218.3700 C   0  0  0  0  0  0  0  0  0  0  0  0
  139.4580   75.7090  219.2730 C   0  0  0  0  0  0  0  0  0  0  0  0
  138.9050   75.7420  220.6130 N   0  0  0  0  0  0  0  0  0  0  0  0
  139.2990   74.7100  221.5000 C   0  0  0  0  0  0  0  0  0  0  0  0
  140.2470   74.8610  222.3420 O   0  0  0  0  0  0  0  0  0  0  0  0
  138.6390   73.3720  221.5200 C   0  0  0  0  0  0  0  0  0  0  0  0
  139.0460   72.5950  222.6630 N   0  0  0  0  0  0  0  0  0  0  0  0
  138.6920   71.2270  222.8210 C   0  0  0  0  0  0  0  0  0  0  0  0
  137.9880   70.6810  221.9050 O   0  0  0  0  0  0  0  0  0  0  0  0
  139.1190   70.4660  223.9940 C   0  0  0  0  0  0  0  0  0  0  0  0
  138.9040   69.1020  224.0060 C   0  0  0  0  0  0  0  0  0  0  0  0
  139.2840   68.3170  225.0880 C   0  0  0  0  0  0  0  0  0  0  0  0
  139.8850   68.9820  226.1390 C   0  0  0  0  0  0  0  0  0  0  0  0
  140.2860   68.2560  227.2410 C   0  0  0  0  0  0  0  0  0  0  0  0
  140.8930   68.8490  228.3300 C   0  0  0  0  0  0  0  0  0  0  0  0
  141.2750   68.1000  229.4000 F   0  0  0  0  0  0  0  0  0  0  0  0
  141.1000   70.2300  228.2920 C   0  0  0  0  0  0  0  0  0  0  0  0
  140.7080   70.9830  227.1980 C   0  0  0  0  0  0  0  0  0  0  0  0
  140.1040   70.3510  226.1310 C   0  0  0  0  0  0  0  0  0  0  0  0
  139.7090   71.0670  225.0430 N   0  0  0  0  0  0  0  0  0  0  0  0
  141.5681   78.3178  224.8346 H   0  0  0  0  0  0  0  0  0  0  0  0
  141.8313   77.0850  223.5549 H   0  0  0  0  0  0  0  0  0  0  0  0
  142.7967   78.5998  223.5549 H   0  0  0  0  0  0  0  0  0  0  0  0
  140.2083   79.4428  224.8770 H   0  0  0  0  0  0  0  0  0  0  0  0
  140.2278   80.7776  223.6752 H   0  0  0  0  0  0  0  0  0  0  0  0
  138.8813   79.5887  223.6752 H   0  0  0  0  0  0  0  0  0  0  0  0
  140.9811   80.6644  221.8502 H   0  0  0  0  0  0  0  0  0  0  0  0
  142.5167   79.7852  222.4549 H   0  0  0  0  0  0  0  0  0  0  0  0
  141.6043   81.0801  219.5611 H   0  0  0  0  0  0  0  0  0  0  0  0
  142.2092   80.1456  217.3645 H   0  0  0  0  0  0  0  0  0  0  0  0
  142.7601   76.2824  219.1824 H   0  0  0  0  0  0  0  0  0  0  0  0
  142.1562   77.2260  221.3764 H   0  0  0  0  0  0  0  0  0  0  0  0
  140.3710   76.7920  222.2520 H   0  0  0  0  0  0  0  0  0  0  0  0
  137.4095   76.2753  221.8993 H   0  0  0  0  0  0  0  0  0  0  0  0
  136.0478   77.0295  220.3127 H   0  0  0  0  0  0  0  0  0  0  0  0
  137.3203   78.2408  219.7904 H   0  0  0  0  0  0  0  0  0  0  0  0
  138.6683   76.1558  217.3434 H   0  0  0  0  0  0  0  0  0  0  0  0
  138.9559   77.5856  218.4029 H   0  0  0  0  0  0  0  0  0  0  0  0
  139.4767   74.6717  218.9073 H   0  0  0  0  0  0  0  0  0  0  0  0
  140.4836   76.1065  219.2845 H   0  0  0  0  0  0  0  0  0  0  0  0
  137.5486   73.5127  221.5544 H   0  0  0  0  0  0  0  0  0  0  0  0
  138.9375   72.8284  220.6115 H   0  0  0  0  0  0  0  0  0  0  0  0
  139.6250   73.0090  223.4370 H   0  0  0  0  0  0  0  0  0  0  0  0
  138.4212   68.6261  223.1397 H   0  0  0  0  0  0  0  0  0  0  0  0
  139.1161   67.2301  225.1064 H   0  0  0  0  0  0  0  0  0  0  0  0
  140.1167   67.1692  227.2526 H   0  0  0  0  0  0  0  0  0  0  0  0
  141.5827   70.7279  229.1459 H   0  0  0  0  0  0  0  0  0  0  0  0
  140.8759   72.0700  227.1801 H   0  0  0  0  0  0  0  0  0  0  0  0
  1  2  1  0
  2  3  1  0
  2  4  1  0
  4  5  1  0
  5  6  2  0
  6  7  1  0
  7  8  2  0
  8  9  1  0
  8 10  1  0
 10 11  2  0
  2 12  1  0
 12 13  1  0
 13 14  2  0
 13 15  1  0
 15 16  1  0
 16 17  1  0
 17 18  1  0
 18 19  1  0
 19 20  1  0
 20 21  1  0
 21 22  2  0
 21 23  1  0
 23 24  1  0
 24 25  1  0
 25 26  2  0
 25 27  1  0
 27 28  2  0
 28 29  1  0
 29 30  2  0
 30 31  1  0
 31 32  2  0
 32 33  1  0
 32 34  1  0
 34 35  2  0
 35 36  1  0
 36 37  2  0
 11  5  1  0
 20 15  1  0
 37 27  1  0
 36 30  1  0
  1 38  1  0
  1 39  1  0
  1 40  1  0
  3 41  1  0
  3 42  1  0
  3 43  1  0
  4 44  1  0
  4 45  1  0
  6 46  1  0
  7 47  1  0
 10 48  1  0
 11 49  1  0
 12 50  1  0
 15 51  1  1
 16 52  1  0
 16 53  1  0
 18 54  1  0
 18 55  1  0
 19 56  1  0
 19 57  1  0
 23 58  1  0
 23 59  1  0
 24 60  1  0
 28 61  1  0
 29 62  1  0
 31 63  1  0
 34 64  1  0
 35 65  1  0
M  END
>  <smiles>  (22) 
CC(C)(Cc1ccc(F)cc1)NC(=O)C1COCCN1C(=O)CNC(=O)c1ccc2cc(F)ccc2n1

>  <score_type>  (22) 
oracle

>  <origin>  (22) 
autodockgpu

>  <m_score__min__energy>  (22) 
-9.2899999999999991

>  <m_primary>  (22) 
energy

>  <meeko>  (22) 
{"free_energy": -7.95, "intermolecular_energy": -10.33, "internal_energy": -3.78, "cluster_size": 7, "cluster_id": 4, "rank_in_cluster": 5}

>  <energy>  (22) 
-8.79

>  <cluster_rmsd>  (22) 
1.06

>  <rmsd>  (22) 
271.25

>  <cluster>  (22) 
1

$$$$

     RDKit          3D

 65 68  0  0  1  0  0  0  0  0999 V2000
  141.8110   78.6500  223.9930 C   0  0  0  0  0  0  0  0  0  0  0  0
  140.7900   79.3040  223.0140 C   0  0  0  0  0  0  0  0  0  0  0  0
  140.1110   80.3680  223.8330 C   0  0  0  0  0  0  0  0  0  0  0  0
  141.6610   79.9560  221.9850 C   0  0  0  0  0  0  0  0  0  0  0  0
  141.8270   79.3120  220.7010 C   0  0  0  0  0  0  0  0  0  0  0  0
  141.7900   79.9520  219.4700 C   0  0  0  0  0  0  0  0  0  0  0  0
  141.9980   79.2790  218.2790 C   0  0  0  0  0  0  0  0  0  0  0  0
  142.2530   77.9240  218.2830 C   0  0  0  0  0  0  0  0  0  0  0  0
  142.4570   77.2590  217.1100 F   0  0  0  0  0  0  0  0  0  0  0  0
  142.2960   77.2500  219.5070 C   0  0  0  0  0  0  0  0  0  0  0  0
  142.0870   77.9320  220.6880 C   0  0  0  0  0  0  0  0  0  0  0  0
  139.9560   78.2450  222.5770 N   0  0  0  0  0  0  0  0  0  0  0  0
  138.6850   78.4130  221.9270 C   0  0  0  0  0  0  0  0  0  0  0  0
  138.1980   79.5270  221.7030 O   0  0  0  0  0  0  0  0  0  0  0  0
  137.8800   77.2220  221.4870 C   0  0  1  0  0  0  0  0  0  0  0  0
  136.6810   77.6630  220.6980 C   0  0  0  0  0  0  0  0  0  0  0  0
  136.5410   77.0290  219.4710 O   0  0  0  0  0  0  0  0  0  0  0  0
  137.6940   77.1310  218.6960 C   0  0  0  0  0  0  0  0  0  0  0  0
  138.7940   76.3020  219.2880 C   0  0  0  0  0  0  0  0  0  0  0  0
  138.6410   76.2740  220.7310 N   0  0  0  0  0  0  0  0  0  0  0  0
  139.2980   75.2310  221.4290 C   0  0  0  0  0  0  0  0  0  0  0  0
  140.1820   75.4610  222.3230 O   0  0  0  0  0  0  0  0  0  0  0  0
  139.0100   73.7890  221.1780 C   0  0  0  0  0  0  0  0  0  0  0  0
  139.2800   72.9820  222.3400 N   0  0  0  0  0  0  0  0  0  0  0  0
  139.0830   71.5740  222.3540 C   0  0  0  0  0  0  0  0  0  0  0  0
  138.6510   71.0190  221.2870 O   0  0  0  0  0  0  0  0  0  0  0  0
  139.3650   70.7830  223.5510 C   0  0  0  0  0  0  0  0  0  0  0  0
  139.0130   69.4470  223.5540 C   0  0  0  0  0  0  0  0  0  0  0  0
  139.2510   68.6360  224.6570 C   0  0  0  0  0  0  0  0  0  0  0  0
  139.8570   69.2450  225.7380 C   0  0  0  0  0  0  0  0  0  0  0  0
  140.1200   68.4910  226.8630 C   0  0  0  0  0  0  0  0  0  0  0  0
  140.7230   69.0270  227.9820 C   0  0  0  0  0  0  0  0  0  0  0  0
  140.9670   68.2520  229.0740 F   0  0  0  0  0  0  0  0  0  0  0  0
  141.0700   70.3800  227.9540 C   0  0  0  0  0  0  0  0  0  0  0  0
  140.8180   71.1610  226.8380 C   0  0  0  0  0  0  0  0  0  0  0  0
  140.2140   70.5840  225.7400 C   0  0  0  0  0  0  0  0  0  0  0  0
  139.9540   71.3280  224.6300 N   0  0  0  0  0  0  0  0  0  0  0  0
  141.5026   78.8475  225.0302 H   0  0  0  0  0  0  0  0  0  0  0  0
  141.8411   77.5641  223.8199 H   0  0  0  0  0  0  0  0  0  0  0  0
  142.8100   79.0767  223.8199 H   0  0  0  0  0  0  0  0  0  0  0  0
  140.2492   80.1514  224.9026 H   0  0  0  0  0  0  0  0  0  0  0  0
  140.5508   81.3484  223.5976 H   0  0  0  0  0  0  0  0  0  0  0  0
  139.0366   80.3821  223.5976 H   0  0  0  0  0  0  0  0  0  0  0  0
  141.2421   80.9549  221.7935 H   0  0  0  0  0  0  0  0  0  0  0  0
  142.6665   79.9235  222.4298 H   0  0  0  0  0  0  0  0  0  0  0  0
  141.5881   81.0329  219.4401 H   0  0  0  0  0  0  0  0  0  0  0  0
  141.9598   79.8268  217.3259 H   0  0  0  0  0  0  0  0  0  0  0  0
  142.4978   76.1689  219.5287 H   0  0  0  0  0  0  0  0  0  0  0  0
  142.1249   77.3827  221.6403 H   0  0  0  0  0  0  0  0  0  0  0  0
  140.2230   77.2170  222.7050 H   0  0  0  0  0  0  0  0  0  0  0  0
  137.5559   76.7106  222.4054 H   0  0  0  0  0  0  0  0  0  0  0  0
  135.7807   77.4589  221.2961 H   0  0  0  0  0  0  0  0  0  0  0  0
  136.8192   78.7335  220.4860 H   0  0  0  0  0  0  0  0  0  0  0  0
  137.4793   76.7751  217.6776 H   0  0  0  0  0  0  0  0  0  0  0  0
  138.0143   78.1830  218.6679 H   0  0  0  0  0  0  0  0  0  0  0  0
  138.7379   75.2775  218.8913 H   0  0  0  0  0  0  0  0  0  0  0  0
  139.7695   76.7378  219.0263 H   0  0  0  0  0  0  0  0  0  0  0  0
  137.9498   73.6792  220.9062 H   0  0  0  0  0  0  0  0  0  0  0  0
  139.6634   73.4456  220.3625 H   0  0  0  0  0  0  0  0  0  0  0  0
  139.6360   73.4020  223.2360 H   0  0  0  0  0  0  0  0  0  0  0  0
  138.5334   69.0155  222.6630 H   0  0  0  0  0  0  0  0  0  0  0  0
  138.9731   67.5717  224.6683 H   0  0  0  0  0  0  0  0  0  0  0  0
  139.8396   67.4273  226.8679 H   0  0  0  0  0  0  0  0  0  0  0  0
  141.5516   70.8329  228.8332 H   0  0  0  0  0  0  0  0  0  0  0  0
  141.0953   72.2254  226.8274 H   0  0  0  0  0  0  0  0  0  0  0  0
  1  2  1  0
  2  3  1  0
  2  4  1  0
  4  5  1  0
  5  6  2  0
  6  7  1  0
  7  8  2  0
  8  9  1  0
  8 10  1  0
 10 11  2  0
  2 12  1  0
 12 13  1  0
 13 14  2  0
 13 15  1  0
 15 16  1  0
 16 17  1  0
 17 18  1  0
 18 19  1  0
 19 20  1  0
 20 21  1  0
 21 22  2  0
 21 23  1  0
 23 24  1  0
 24 25  1  0
 25 26  2  0
 25 27  1  0
 27 28  2  0
 28 29  1  0
 29 30  2  0
 30 31  1  0
 31 32  2  0
 32 33  1  0
 32 34  1  0
 34 35  2  0
 35 36  1  0
 36 37  2  0
 11  5  1  0
 20 15  1  0
 37 27  1  0
 36 30  1  0
  1 38  1  0
  1 39  1  0
  1 40  1  0
  3 41  1  0
  3 42  1  0
  3 43  1  0
  4 44  1  0
  4 45  1  0
  6 46  1  0
  7 47  1  0
 10 48  1  0
 11 49  1  0
 12 50  1  0
 15 51  1  1
 16 52  1  0
 16 53  1  0
 18 54  1  0
 18 55  1  0
 19 56  1  0
 19 57  1  0
 23 58  1  0
 23 59  1  0
 24 60  1  0
 28 61  1  0
 29 62  1  0
 31 63  1  0
 34 64  1  0
 35 65  1  0
M  END
>  <smiles>  (23) 
CC(C)(Cc1ccc(F)cc1)NC(=O)C1COCCN1C(=O)CNC(=O)c1ccc2cc(F)ccc2n1

>  <score_type>  (23) 
oracle

>  <origin>  (23) 
autodockgpu

>  <m_score__min__energy>  (23) 
-9.2899999999999991

>  <m_primary>  (23) 
energy

>  <meeko>  (23) 
{"free_energy": -7.95, "intermolecular_energy": -10.34, "internal_energy": -3.77, "cluster_size": 7, "cluster_id": 4, "rank_in_cluster": 4}

>  <energy>  (23) 
-8.77

>  <cluster_rmsd>  (23) 
0.91

>  <rmsd>  (23) 
271.24

>  <cluster>  (23) 
1

$$$$

     RDKit          3D

 65 68  0  0  1  0  0  0  0  0999 V2000
  141.5370   78.6690  223.8310 C   0  0  0  0  0  0  0  0  0  0  0  0
  140.6270   79.3550  222.7690 C   0  0  0  0  0  0  0  0  0  0  0  0
  139.8780   80.4090  223.5400 C   0  0  0  0  0  0  0  0  0  0  0  0
  141.6030   80.0200  221.8480 C   0  0  0  0  0  0  0  0  0  0  0  0
  141.8510   79.4300  220.5510 C   0  0  0  0  0  0  0  0  0  0  0  0
  141.8480   80.1150  219.3430 C   0  0  0  0  0  0  0  0  0  0  0  0
  142.1350   79.4950  218.1400 C   0  0  0  0  0  0  0  0  0  0  0  0
  142.4370   78.1500  218.1070 C   0  0  0  0  0  0  0  0  0  0  0  0
  142.7200   77.5370  216.9220 F   0  0  0  0  0  0  0  0  0  0  0  0
  142.4480   77.4320  219.3070 C   0  0  0  0  0  0  0  0  0  0  0  0
  142.1600   78.0620  220.5000 C   0  0  0  0  0  0  0  0  0  0  0  0
  139.8320   78.3160  222.2270 N   0  0  0  0  0  0  0  0  0  0  0  0
  138.8170   78.4920  221.2240 C   0  0  0  0  0  0  0  0  0  0  0  0
  138.5400   79.6000  220.7510 O   0  0  0  0  0  0  0  0  0  0  0  0
  138.0360   77.3200  220.7000 C   0  0  1  0  0  0  0  0  0  0  0  0
  137.1840   77.7360  219.5360 C   0  0  0  0  0  0  0  0  0  0  0  0
  137.3320   76.9390  218.4090 O   0  0  0  0  0  0  0  0  0  0  0  0
  138.6650   76.8300  218.0180 C   0  0  0  0  0  0  0  0  0  0  0  0
  139.4320   76.0100  219.0120 C   0  0  0  0  0  0  0  0  0  0  0  0
  138.8620   76.2100  220.3310 N   0  0  0  0  0  0  0  0  0  0  0  0
  139.1520   75.2320  221.3140 C   0  0  0  0  0  0  0  0  0  0  0  0
  139.6870   75.5310  222.4350 O   0  0  0  0  0  0  0  0  0  0  0  0
  138.8560   73.7830  221.1200 C   0  0  0  0  0  0  0  0  0  0  0  0
  139.1740   73.0120  222.2940 N   0  0  0  0  0  0  0  0  0  0  0  0
  139.0320   71.5980  222.3410 C   0  0  0  0  0  0  0  0  0  0  0  0
  138.6060   71.0040  221.2930 O   0  0  0  0  0  0  0  0  0  0  0  0
  139.3620   70.8440  223.5490 C   0  0  0  0  0  0  0  0  0  0  0  0
  139.0920   69.4900  223.5730 C   0  0  0  0  0  0  0  0  0  0  0  0
  139.3800   68.7120  224.6880 C   0  0  0  0  0  0  0  0  0  0  0  0
  139.9490   69.3730  225.7590 C   0  0  0  0  0  0  0  0  0  0  0  0
  140.2590   68.6540  226.8950 C   0  0  0  0  0  0  0  0  0  0  0  0
  140.8290   69.2440  228.0050 C   0  0  0  0  0  0  0  0  0  0  0  0
  141.1200   68.5020  229.1080 F   0  0  0  0  0  0  0  0  0  0  0  0
  141.0920   70.6150  227.9550 C   0  0  0  0  0  0  0  0  0  0  0  0
  140.7930   71.3610  226.8270 C   0  0  0  0  0  0  0  0  0  0  0  0
  140.2230   70.7320  225.7400 C   0  0  0  0  0  0  0  0  0  0  0  0
  139.9180   71.4420  224.6180 N   0  0  0  0  0  0  0  0  0  0  0  0
  141.1866   78.9331  224.8397 H   0  0  0  0  0  0  0  0  0  0  0  0
  141.4928   77.5775  223.7016 H   0  0  0  0  0  0  0  0  0  0  0  0
  142.5742   79.0119  223.7016 H   0  0  0  0  0  0  0  0  0  0  0  0
  140.0032   80.2328  224.6185 H   0  0  0  0  0  0  0  0  0  0  0  0
  140.2739   81.4024  223.2824 H   0  0  0  0  0  0  0  0  0  0  0  0
  138.8096   80.3619  223.2824 H   0  0  0  0  0  0  0  0  0  0  0  0
  141.2373   81.0426  221.6733 H   0  0  0  0  0  0  0  0  0  0  0  0
  142.5666   79.9279  222.3705 H   0  0  0  0  0  0  0  0  0  0  0  0
  141.6090   81.1887  219.3426 H   0  0  0  0  0  0  0  0  0  0  0  0
  142.1222   80.0770  217.2067 H   0  0  0  0  0  0  0  0  0  0  0  0
  142.6877   76.3585  219.2996 H   0  0  0  0  0  0  0  0  0  0  0  0
  142.1729   77.4788  221.4326 H   0  0  0  0  0  0  0  0  0  0  0  0
  139.9350   77.2960  222.5350 H   0  0  0  0  0  0  0  0  0  0  0  0
  137.3963   76.9792  221.5274 H   0  0  0  0  0  0  0  0  0  0  0  0
  136.1302   77.6986  219.8490 H   0  0  0  0  0  0  0  0  0  0  0  0
  137.5086   78.7480  219.2524 H   0  0  0  0  0  0  0  0  0  0  0  0
  138.7157   76.3458  217.0316 H   0  0  0  0  0  0  0  0  0  0  0  0
  139.1068   77.8361  217.9663 H   0  0  0  0  0  0  0  0  0  0  0  0
  139.3676   74.9461  218.7401 H   0  0  0  0  0  0  0  0  0  0  0  0
  140.4875   76.3197  219.0129 H   0  0  0  0  0  0  0  0  0  0  0  0
  137.7857   73.6649  220.8952 H   0  0  0  0  0  0  0  0  0  0  0  0
  139.4765   73.4147  220.2897 H   0  0  0  0  0  0  0  0  0  0  0  0
  139.5270   73.4650  223.1750 H   0  0  0  0  0  0  0  0  0  0  0  0
  138.6387   69.0165  222.6896 H   0  0  0  0  0  0  0  0  0  0  0  0
  139.1673   67.6331  224.7159 H   0  0  0  0  0  0  0  0  0  0  0  0
  140.0449   67.5753  226.9168 H   0  0  0  0  0  0  0  0  0  0  0  0
  141.5444   71.1107  228.8266 H   0  0  0  0  0  0  0  0  0  0  0  0
  141.0071   72.4396  226.7985 H   0  0  0  0  0  0  0  0  0  0  0  0
  1  2  1  0
  2  3  1  0
  2  4  1  0
  4  5  1  0
  5  6  2  0
  6  7  1  0
  7  8  2  0
  8  9  1  0
  8 10  1  0
 10 11  2  0
  2 12  1  0
 12 13  1  0
 13 14  2  0
 13 15  1  0
 15 16  1  0
 16 17  1  0
 17 18  1  0
 18 19  1  0
 19 20  1  0
 20 21  1  0
 21 22  2  0
 21 23  1  0
 23 24  1  0
 24 25  1  0
 25 26  2  0
 25 27  1  0
 27 28  2  0
 28 29  1  0
 29 30  2  0
 30 31  1  0
 31 32  2  0
 32 33  1  0
 32 34  1  0
 34 35  2  0
 35 36  1  0
 36 37  2  0
 11  5  1  0
 20 15  1  0
 37 27  1  0
 36 30  1  0
  1 38  1  0
  1 39  1  0
  1 40  1  0
  3 41  1  0
  3 42  1  0
  3 43  1  0
  4 44  1  0
  4 45  1  0
  6 46  1  0
  7 47  1  0
 10 48  1  0
 11 49  1  0
 12 50  1  0
 15 51  1  1
 16 52  1  0
 16 53  1  0
 18 54  1  0
 18 55  1  0
 19 56  1  0
 19 57  1  0
 23 58  1  0
 23 59  1  0
 24 60  1  0
 28 61  1  0
 29 62  1  0
 31 63  1  0
 34 64  1  0
 35 65  1  0
M  END
>  <smiles>  (24) 
CC(C)(Cc1ccc(F)cc1)NC(=O)C1COCCN1C(=O)CNC(=O)c1ccc2cc(F)ccc2n1

>  <score_type>  (24) 
oracle

>  <origin>  (24) 
autodockgpu

>  <m_score__min__energy>  (24) 
-9.2899999999999991

>  <m_primary>  (24) 
energy

>  <meeko>  (24) 
{"free_energy": -7.64, "intermolecular_energy": -10.03, "internal_energy": -3.99, "cluster_size": 7, "cluster_id": 4, "rank_in_cluster": 7}

>  <energy>  (24) 
-8.72

>  <cluster_rmsd>  (24) 
0.92

>  <rmsd>  (24) 
271.32

>  <cluster>  (24) 
1

$$$$

     RDKit          3D

 65 68  0  0  1  0  0  0  0  0999 V2000
  141.3290   81.3390  222.1330 C   0  0  0  0  0  0  0  0  0  0  0  0
  141.7530   79.9220  222.6260 C   0  0  0  0  0  0  0  0  0  0  0  0
  143.1790   80.0920  223.0790 C   0  0  0  0  0  0  0  0  0  0  0  0
  140.8810   79.6920  223.8220 C   0  0  0  0  0  0  0  0  0  0  0  0
  139.4460   79.7890  223.6680 C   0  0  0  0  0  0  0  0  0  0  0  0
  138.6430   78.8620  223.0180 C   0  0  0  0  0  0  0  0  0  0  0  0
  137.2680   78.9970  222.9440 C   0  0  0  0  0  0  0  0  0  0  0  0
  136.6450   80.0800  223.5260 C   0  0  0  0  0  0  0  0  0  0  0  0
  135.2900   80.2160  223.4530 F   0  0  0  0  0  0  0  0  0  0  0  0
  137.4260   81.0330  224.1870 C   0  0  0  0  0  0  0  0  0  0  0  0
  138.7960   80.8870  224.2550 C   0  0  0  0  0  0  0  0  0  0  0  0
  141.5640   79.0660  221.5140 N   0  0  0  0  0  0  0  0  0  0  0  0
  141.2260   77.6710  221.5970 C   0  0  0  0  0  0  0  0  0  0  0  0
  141.0820   77.0880  222.6780 O   0  0  0  0  0  0  0  0  0  0  0  0
  141.0310   76.8480  220.3550 C   0  0  1  0  0  0  0  0  0  0  0  0
  140.7790   77.7380  219.1710 C   0  0  0  0  0  0  0  0  0  0  0  0
  141.5980   77.4800  218.0800 O   0  0  0  0  0  0  0  0  0  0  0  0
  142.9480   77.5000  218.4240 C   0  0  0  0  0  0  0  0  0  0  0  0
  143.2850   76.3170  219.2810 C   0  0  0  0  0  0  0  0  0  0  0  0
  142.1270   75.9670  220.0810 N   0  0  0  0  0  0  0  0  0  0  0  0
  142.0890   74.6600  220.6260 C   0  0  0  0  0  0  0  0  0  0  0  0
  143.1470   74.0470  220.9970 O   0  0  0  0  0  0  0  0  0  0  0  0
  140.8180   73.9010  220.8090 C   0  0  0  0  0  0  0  0  0  0  0  0
  140.8820   73.0230  221.9490 N   0  0  0  0  0  0  0  0  0  0  0  0
  139.7370   72.3530  222.4610 C   0  0  0  0  0  0  0  0  0  0  0  0
  138.6180   72.5470  221.8760 O   0  0  0  0  0  0  0  0  0  0  0  0
  139.8350   71.4690  223.6210 C   0  0  0  0  0  0  0  0  0  0  0  0
  139.3400   70.1840  223.5120 C   0  0  0  0  0  0  0  0  0  0  0  0
  139.4000   69.2900  224.5740 C   0  0  0  0  0  0  0  0  0  0  0  0
  139.9800   69.7640  225.7340 C   0  0  0  0  0  0  0  0  0  0  0  0
  140.0690   68.9230  226.8240 C   0  0  0  0  0  0  0  0  0  0  0  0
  140.6350   69.3240  228.0170 C   0  0  0  0  0  0  0  0  0  0  0  0
  140.7050   68.4660  229.0710 F   0  0  0  0  0  0  0  0  0  0  0  0
  141.1280   70.6290  228.1020 C   0  0  0  0  0  0  0  0  0  0  0  0
  141.0530   71.4940  227.0230 C   0  0  0  0  0  0  0  0  0  0  0  0
  140.4790   71.0530  225.8490 C   0  0  0  0  0  0  0  0  0  0  0  0
  140.3920   71.8830  224.7730 N   0  0  0  0  0  0  0  0  0  0  0  0
  141.1353   81.9864  223.0009 H   0  0  0  0  0  0  0  0  0  0  0  0
  142.1367   81.7726  221.5251 H   0  0  0  0  0  0  0  0  0  0  0  0
  140.4158   81.2577  221.5251 H   0  0  0  0  0  0  0  0  0  0  0  0
  143.2164   80.0965  224.1783 H   0  0  0  0  0  0  0  0  0  0  0  0
  143.7874   79.2600  222.6948 H   0  0  0  0  0  0  0  0  0  0  0  0
  143.5748   81.0437  222.6948 H   0  0  0  0  0  0  0  0  0  0  0  0
  141.0987   78.6787  224.1906 H   0  0  0  0  0  0  0  0  0  0  0  0
  141.1324   80.5228  224.4978 H   0  0  0  0  0  0  0  0  0  0  0  0
  139.1166   77.9891  222.5450 H   0  0  0  0  0  0  0  0  0  0  0  0
  136.6701   78.2375  222.4190 H   0  0  0  0  0  0  0  0  0  0  0  0
  136.9451   81.9043  224.6555 H   0  0  0  0  0  0  0  0  0  0  0  0
  139.3925   81.6472  224.7805 H   0  0  0  0  0  0  0  0  0  0  0  0
  141.6630   79.4070  220.5040 H   0  0  0  0  0  0  0  0  0  0  0  0
  140.1519   76.2131  220.5397 H   0  0  0  0  0  0  0  0  0  0  0  0
  139.7334   77.6054  218.8563 H   0  0  0  0  0  0  0  0  0  0  0  0
  140.9997   78.7656  219.4956 H   0  0  0  0  0  0  0  0  0  0  0  0
  143.5562   77.4693  217.5080 H   0  0  0  0  0  0  0  0  0  0  0  0
  143.1598   78.4211  218.9868 H   0  0  0  0  0  0  0  0  0  0  0  0
  143.5623   75.4658  218.6418 H   0  0  0  0  0  0  0  0  0  0  0  0
  144.1302   76.5647  219.9399 H   0  0  0  0  0  0  0  0  0  0  0  0
  139.9940   74.6151  220.9547 H   0  0  0  0  0  0  0  0  0  0  0  0
  140.6528   73.2867  219.9116 H   0  0  0  0  0  0  0  0  0  0  0  0
  141.7840   72.8390  222.4560 H   0  0  0  0  0  0  0  0  0  0  0  0
  138.8879   69.8610  222.5626 H   0  0  0  0  0  0  0  0  0  0  0  0
  139.0085   68.2650  224.4953 H   0  0  0  0  0  0  0  0  0  0  0  0
  139.6759   67.8991  226.7394 H   0  0  0  0  0  0  0  0  0  0  0  0
  141.5833   70.9749  229.0417 H   0  0  0  0  0  0  0  0  0  0  0  0
  141.4457   72.5185  227.1012 H   0  0  0  0  0  0  0  0  0  0  0  0
  1  2  1  0
  2  3  1  0
  2  4  1  0
  4  5  1  0
  5  6  2  0
  6  7  1  0
  7  8  2  0
  8  9  1  0
  8 10  1  0
 10 11  2  0
  2 12  1  0
 12 13  1  0
 13 14  2  0
 13 15  1  0
 15 16  1  0
 16 17  1  0
 17 18  1  0
 18 19  1  0
 19 20  1  0
 20 21  1  0
 21 22  2  0
 21 23  1  0
 23 24  1  0
 24 25  1  0
 25 26  2  0
 25 27  1  0
 27 28  2  0
 28 29  1  0
 29 30  2  0
 30 31  1  0
 31 32  2  0
 32 33  1  0
 32 34  1  0
 34 35  2  0
 35 36  1  0
 36 37  2  0
 11  5  1  0
 20 15  1  0
 37 27  1  0
 36 30  1  0
  1 38  1  0
  1 39  1  0
  1 40  1  0
  3 41  1  0
  3 42  1  0
  3 43  1  0
  4 44  1  0
  4 45  1  0
  6 46  1  0
  7 47  1  0
 10 48  1  0
 11 49  1  0
 12 50  1  0
 15 51  1  1
 16 52  1  0
 16 53  1  0
 18 54  1  0
 18 55  1  0
 19 56  1  0
 19 57  1  0
 23 58  1  0
 23 59  1  0
 24 60  1  0
 28 61  1  0
 29 62  1  0
 31 63  1  0
 34 64  1  0
 35 65  1  0
M  END
>  <smiles>  (25) 
CC(C)(Cc1ccc(F)cc1)NC(=O)C1COCCN1C(=O)CNC(=O)c1ccc2cc(F)ccc2n1

>  <score_type>  (25) 
oracle

>  <origin>  (25) 
autodockgpu

>  <m_score__min__energy>  (25) 
-9.2899999999999991

>  <m_primary>  (25) 
energy

>  <meeko>  (25) 
{"free_energy": -8.72, "intermolecular_energy": -11.11, "internal_energy": -2.39, "cluster_size": 5, "cluster_id": 1, "rank_in_cluster": 4}

>  <energy>  (25) 
-8.16

>  <cluster_rmsd>  (25) 
1.05

>  <rmsd>  (25) 
271.2

>  <cluster>  (25) 
1

$$$$

     RDKit          3D

 65 68  0  0  1  0  0  0  0  0999 V2000
  142.2290   79.4520  223.8960 C   0  0  0  0  0  0  0  0  0  0  0  0
  141.0470   79.6370  222.8980 C   0  0  0  0  0  0  0  0  0  0  0  0
  140.2900   80.8250  223.4260 C   0  0  0  0  0  0  0  0  0  0  0  0
  141.7270   80.0150  221.6180 C   0  0  0  0  0  0  0  0  0  0  0  0
  141.6490   79.1100  220.4930 C   0  0  0  0  0  0  0  0  0  0  0  0
  142.1830   77.8290  220.4540 C   0  0  0  0  0  0  0  0  0  0  0  0
  142.0350   76.9980  219.3570 C   0  0  0  0  0  0  0  0  0  0  0  0
  141.3400   77.4310  218.2480 C   0  0  0  0  0  0  0  0  0  0  0  0
  141.1940   76.6150  217.1650 F   0  0  0  0  0  0  0  0  0  0  0  0
  140.7910   78.7180  218.2550 C   0  0  0  0  0  0  0  0  0  0  0  0
  140.9450   79.5350  219.3550 C   0  0  0  0  0  0  0  0  0  0  0  0
  140.3440   78.4080  222.9170 N   0  0  0  0  0  0  0  0  0  0  0  0
  138.9450   78.2550  222.6210 C   0  0  0  0  0  0  0  0  0  0  0  0
  138.2210   79.2140  222.3310 O   0  0  0  0  0  0  0  0  0  0  0  0
  138.2920   76.9010  222.6530 C   0  0  1  0  0  0  0  0  0  0  0  0
  136.7980   77.0410  222.7190 C   0  0  0  0  0  0  0  0  0  0  0  0
  136.1140   76.3080  221.7590 O   0  0  0  0  0  0  0  0  0  0  0  0
  136.5700   76.5800  220.4710 C   0  0  0  0  0  0  0  0  0  0  0  0
  137.9510   76.0270  220.2790 C   0  0  0  0  0  0  0  0  0  0  0  0
  138.6580   76.0700  221.5460 N   0  0  0  0  0  0  0  0  0  0  0  0
  139.7890   75.2290  221.6830 C   0  0  0  0  0  0  0  0  0  0  0  0
  140.9160   75.6650  222.0950 O   0  0  0  0  0  0  0  0  0  0  0  0
  139.7520   73.7730  221.3580 C   0  0  0  0  0  0  0  0  0  0  0  0
  139.7420   72.9620  222.5490 N   0  0  0  0  0  0  0  0  0  0  0  0
  139.9560   71.5570  222.5170 C   0  0  0  0  0  0  0  0  0  0  0  0
  140.1650   71.0080  221.3820 O   0  0  0  0  0  0  0  0  0  0  0  0
  139.9390   70.7620  223.7440 C   0  0  0  0  0  0  0  0  0  0  0  0
  139.3510   69.5120  223.7080 C   0  0  0  0  0  0  0  0  0  0  0  0
  139.2990   68.7020  224.8360 C   0  0  0  0  0  0  0  0  0  0  0  0
  139.8670   69.2220  225.9830 C   0  0  0  0  0  0  0  0  0  0  0  0
  139.8460   68.4640  227.1350 C   0  0  0  0  0  0  0  0  0  0  0  0
  140.3930   68.9140  228.3200 C   0  0  0  0  0  0  0  0  0  0  0  0
  140.3540   68.1380  229.4370 F   0  0  0  0  0  0  0  0  0  0  0  0
  140.9820   70.1810  228.3300 C   0  0  0  0  0  0  0  0  0  0  0  0
  141.0170   70.9630  227.1870 C   0  0  0  0  0  0  0  0  0  0  0  0
  140.4580   70.4740  226.0240 C   0  0  0  0  0  0  0  0  0  0  0  0
  140.4790   71.2220  224.8860 N   0  0  0  0  0  0  0  0  0  0  0  0
  141.8508   79.5112  224.9273 H   0  0  0  0  0  0  0  0  0  0  0  0
  142.6965   78.4698  223.7327 H   0  0  0  0  0  0  0  0  0  0  0  0
  142.9742   80.2444  223.7327 H   0  0  0  0  0  0  0  0  0  0  0  0
  140.3011   80.8076  224.5258 H   0  0  0  0  0  0  0  0  0  0  0  0
  140.7651   81.7507  223.0691 H   0  0  0  0  0  0  0  0  0  0  0  0
  139.2502   80.7854  223.0691 H   0  0  0  0  0  0  0  0  0  0  0  0
  141.2943   80.9726  221.2929 H   0  0  0  0  0  0  0  0  0  0  0  0
  142.7958   80.0241  221.8778 H   0  0  0  0  0  0  0  0  0  0  0  0
  142.7437   77.4614  221.3260 H   0  0  0  0  0  0  0  0  0  0  0  0
  142.4732   75.9892  219.3701 H   0  0  0  0  0  0  0  0  0  0  0  0
  140.2337   79.0799  217.3784 H   0  0  0  0  0  0  0  0  0  0  0  0
  140.5060   80.5435  219.3406 H   0  0  0  0  0  0  0  0  0  0  0  0
  140.8180   77.4790  223.1600 H   0  0  0  0  0  0  0  0  0  0  0  0
  138.6606   76.4010  223.5608 H   0  0  0  0  0  0  0  0  0  0  0  0
  136.4638   76.7055  223.7118 H   0  0  0  0  0  0  0  0  0  0  0  0
  136.5715   78.1003  222.5280 H   0  0  0  0  0  0  0  0  0  0  0  0
  135.8896   76.1183  219.7403 H   0  0  0  0  0  0  0  0  0  0  0  0
  136.5979   77.6698  220.3244 H   0  0  0  0  0  0  0  0  0  0  0  0
  137.8861   74.9865  219.9281 H   0  0  0  0  0  0  0  0  0  0  0  0
  138.4909   76.6271  219.5318 H   0  0  0  0  0  0  0  0  0  0  0  0
  138.8440   73.5608  220.7744 H   0  0  0  0  0  0  0  0  0  0  0  0
  140.6565   73.5266  220.7825 H   0  0  0  0  0  0  0  0  0  0  0  0
  139.5740   73.3770  223.5000 H   0  0  0  0  0  0  0  0  0  0  0  0
  138.9144   69.1501  222.7655 H   0  0  0  0  0  0  0  0  0  0  0  0
  138.8331   67.7057  224.8168 H   0  0  0  0  0  0  0  0  0  0  0  0
  139.3783   67.4687  227.1088 H   0  0  0  0  0  0  0  0  0  0  0  0
  141.4253   70.5640  229.2610 H   0  0  0  0  0  0  0  0  0  0  0  0
  141.4835   71.9590  227.2062 H   0  0  0  0  0  0  0  0  0  0  0  0
  1  2  1  0
  2  3  1  0
  2  4  1  0
  4  5  1  0
  5  6  2  0
  6  7  1  0
  7  8  2  0
  8  9  1  0
  8 10  1  0
 10 11  2  0
  2 12  1  0
 12 13  1  0
 13 14  2  0
 13 15  1  0
 15 16  1  0
 16 17  1  0
 17 18  1  0
 18 19  1  0
 19 20  1  0
 20 21  1  0
 21 22  2  0
 21 23  1  0
 23 24  1  0
 24 25  1  0
 25 26  2  0
 25 27  1  0
 27 28  2  0
 28 29  1  0
 29 30  2  0
 30 31  1  0
 31 32  2  0
 32 33  1  0
 32 34  1  0
 34 35  2  0
 35 36  1  0
 36 37  2  0
 11  5  1  0
 20 15  1  0
 37 27  1  0
 36 30  1  0
  1 38  1  0
  1 39  1  0
  1 40  1  0
  3 41  1  0
  3 42  1  0
  3 43  1  0
  4 44  1  0
  4 45  1  0
  6 46  1  0
  7 47  1  0
 10 48  1  0
 11 49  1  0
 12 50  1  0
 15 51  1  1
 16 52  1  0
 16 53  1  0
 18 54  1  0
 18 55  1  0
 19 56  1  0
 19 57  1  0
 23 58  1  0
 23 59  1  0
 24 60  1  0
 28 61  1  0
 29 62  1  0
 31 63  1  0
 34 64  1  0
 35 65  1  0
M  END
>  <smiles>  (26) 
CC(C)(Cc1ccc(F)cc1)NC(=O)C1COCCN1C(=O)CNC(=O)c1ccc2cc(F)ccc2n1

>  <score_type>  (26) 
oracle

>  <origin>  (26) 
autodockgpu

>  <m_score__min__energy>  (26) 
-9.2899999999999991

>  <m_primary>  (26) 
energy

>  <meeko>  (26) 
{"free_energy": -8.05, "intermolecular_energy": -10.44, "internal_energy": -3.28, "cluster_size": 7, "cluster_id": 4, "rank_in_cluster": 2}

>  <energy>  (26) 
-8.75

>  <cluster_rmsd>  (26) 
0.0

>  <rmsd>  (26) 
271.22

>  <cluster>  (26) 
2

$$$$

     RDKit          3D

 65 68  0  0  1  0  0  0  0  0999 V2000
  141.7570   78.6330  223.8740 C   0  0  0  0  0  0  0  0  0  0  0  0
  140.7180   79.3200  222.9360 C   0  0  0  0  0  0  0  0  0  0  0  0
  140.0380   80.3400  223.8100 C   0  0  0  0  0  0  0  0  0  0  0  0
  141.5710   80.0260  221.9270 C   0  0  0  0  0  0  0  0  0  0  0  0
  141.8220   79.3850  220.6550 C   0  0  0  0  0  0  0  0  0  0  0  0
  142.0400   78.0270  220.4690 C   0  0  0  0  0  0  0  0  0  0  0  0
  142.2330   77.4730  219.2160 C   0  0  0  0  0  0  0  0  0  0  0  0
  142.2150   78.2740  218.0930 C   0  0  0  0  0  0  0  0  0  0  0  0
  142.4060   77.7300  216.8570 F   0  0  0  0  0  0  0  0  0  0  0  0
  141.9990   79.6470  218.2470 C   0  0  0  0  0  0  0  0  0  0  0  0
  141.8070   80.1860  219.5020 C   0  0  0  0  0  0  0  0  0  0  0  0
  139.8900   78.2730  222.4630 N   0  0  0  0  0  0  0  0  0  0  0  0
  138.7340   78.4510  221.6260 C   0  0  0  0  0  0  0  0  0  0  0  0
  138.3530   79.5670  221.2530 O   0  0  0  0  0  0  0  0  0  0  0  0
  137.9270   77.2710  221.1620 C   0  0  1  0  0  0  0  0  0  0  0  0
  136.8810   77.7070  220.1760 C   0  0  0  0  0  0  0  0  0  0  0  0
  136.8770   76.9820  218.9920 O   0  0  0  0  0  0  0  0  0  0  0  0
  138.1330   76.9600  218.3890 C   0  0  0  0  0  0  0  0  0  0  0  0
  139.0830   76.1270  219.1950 C   0  0  0  0  0  0  0  0  0  0  0  0
  138.7270   76.2260  220.5970 N   0  0  0  0  0  0  0  0  0  0  0  0
  139.2110   75.2120  221.4600 C   0  0  0  0  0  0  0  0  0  0  0  0
  139.8560   75.4790  222.5300 O   0  0  0  0  0  0  0  0  0  0  0  0
  139.0080   73.7590  221.1870 C   0  0  0  0  0  0  0  0  0  0  0  0
  139.2720   72.9570  222.3540 N   0  0  0  0  0  0  0  0  0  0  0  0
  139.1270   71.5420  222.3560 C   0  0  0  0  0  0  0  0  0  0  0  0
  138.7500   70.9770  221.2740 O   0  0  0  0  0  0  0  0  0  0  0  0
  139.4020   70.7560  223.5570 C   0  0  0  0  0  0  0  0  0  0  0  0
  139.0520   69.4200  223.5620 C   0  0  0  0  0  0  0  0  0  0  0  0
  139.2830   68.6130  224.6700 C   0  0  0  0  0  0  0  0  0  0  0  0
  139.8810   69.2260  225.7530 C   0  0  0  0  0  0  0  0  0  0  0  0
  140.1380   68.4770  226.8820 C   0  0  0  0  0  0  0  0  0  0  0  0
  140.7320   69.0180  228.0040 C   0  0  0  0  0  0  0  0  0  0  0  0
  140.9700   68.2470  229.1000 F   0  0  0  0  0  0  0  0  0  0  0  0
  141.0780   70.3720  227.9730 C   0  0  0  0  0  0  0  0  0  0  0  0
  140.8330   71.1470  226.8520 C   0  0  0  0  0  0  0  0  0  0  0  0
  140.2360   70.5660  225.7530 C   0  0  0  0  0  0  0  0  0  0  0  0
  139.9840   71.3060  224.6380 N   0  0  0  0  0  0  0  0  0  0  0  0
  141.4809   78.8155  224.9230 H   0  0  0  0  0  0  0  0  0  0  0  0
  141.7662   77.5502  223.6803 H   0  0  0  0  0  0  0  0  0  0  0  0
  142.7569   79.0486  223.6803 H   0  0  0  0  0  0  0  0  0  0  0  0
  140.2063   80.0875  224.8673 H   0  0  0  0  0  0  0  0  0  0  0  0
  140.4527   81.3371  223.6006 H   0  0  0  0  0  0  0  0  0  0  0  0
  138.9581   80.3407  223.6006 H   0  0  0  0  0  0  0  0  0  0  0  0
  141.0871   80.9904  221.7129 H   0  0  0  0  0  0  0  0  0  0  0  0
  142.5622   80.0708  222.4020 H   0  0  0  0  0  0  0  0  0  0  0  0
  142.0600   77.3676  221.3492 H   0  0  0  0  0  0  0  0  0  0  0  0
  142.4013   76.3907  219.1150 H   0  0  0  0  0  0  0  0  0  0  0  0
  141.9821   80.3007  217.3625 H   0  0  0  0  0  0  0  0  0  0  0  0
  141.6383   81.2684  219.6018 H   0  0  0  0  0  0  0  0  0  0  0  0
  140.0720   77.2460  222.7010 H   0  0  0  0  0  0  0  0  0  0  0  0
  137.4450   76.8535  222.0583 H   0  0  0  0  0  0  0  0  0  0  0  0
  135.8941   77.5991  220.6498 H   0  0  0  0  0  0  0  0  0  0  0  0
  137.1139   78.7481  219.9081 H   0  0  0  0  0  0  0  0  0  0  0  0
  138.0432   76.5332  217.3792 H   0  0  0  0  0  0  0  0  0  0  0  0
  138.5198   77.9881  218.3308 H   0  0  0  0  0  0  0  0  0  0  0  0
  139.0186   75.0776  218.8716 H   0  0  0  0  0  0  0  0  0  0  0  0
  140.1112   76.4887  219.0468 H   0  0  0  0  0  0  0  0  0  0  0  0
  137.9668   73.5974  220.8712 H   0  0  0  0  0  0  0  0  0  0  0  0
  139.7104   73.4566  220.3963 H   0  0  0  0  0  0  0  0  0  0  0  0
  139.5840   73.3850  223.2620 H   0  0  0  0  0  0  0  0  0  0  0  0
  138.5798   68.9847  222.6690 H   0  0  0  0  0  0  0  0  0  0  0  0
  139.0057   67.5486  224.6832 H   0  0  0  0  0  0  0  0  0  0  0  0
  139.8602   67.4127  226.8884 H   0  0  0  0  0  0  0  0  0  0  0  0
  141.5527   70.8293  228.8536 H   0  0  0  0  0  0  0  0  0  0  0  0
  141.1107   72.2113  226.8383 H   0  0  0  0  0  0  0  0  0  0  0  0
  1  2  1  0
  2  3  1  0
  2  4  1  0
  4  5  1  0
  5  6  2  0
  6  7  1  0
  7  8  2  0
  8  9  1  0
  8 10  1  0
 10 11  2  0
  2 12  1  0
 12 13  1  0
 13 14  2  0
 13 15  1  0
 15 16  1  0
 16 17  1  0
 17 18  1  0
 18 19  1  0
 19 20  1  0
 20 21  1  0
 21 22  2  0
 21 23  1  0
 23 24  1  0
 24 25  1  0
 25 26  2  0
 25 27  1  0
 27 28  2  0
 28 29  1  0
 29 30  2  0
 30 31  1  0
 31 32  2  0
 32 33  1  0
 32 34  1  0
 34 35  2  0
 35 36  1  0
 36 37  2  0
 11  5  1  0
 20 15  1  0
 37 27  1  0
 36 30  1  0
  1 38  1  0
  1 39  1  0
  1 40  1  0
  3 41  1  0
  3 42  1  0
  3 43  1  0
  4 44  1  0
  4 45  1  0
  6 46  1  0
  7 47  1  0
 10 48  1  0
 11 49  1  0
 12 50  1  0
 15 51  1  1
 16 52  1  0
 16 53  1  0
 18 54  1  0
 18 55  1  0
 19 56  1  0
 19 57  1  0
 23 58  1  0
 23 59  1  0
 24 60  1  0
 28 61  1  0
 29 62  1  0
 31 63  1  0
 34 64  1  0
 35 65  1  0
M  END
>  <smiles>  (27) 
CC(C)(Cc1ccc(F)cc1)NC(=O)C1COCCN1C(=O)CNC(=O)c1ccc2cc(F)ccc2n1

>  <score_type>  (27) 
oracle

>  <origin>  (27) 
autodockgpu

>  <m_score__min__energy>  (27) 
-9.2899999999999991

>  <m_primary>  (27) 
energy

>  <meeko>  (27) 
{"free_energy": -7.81, "intermolecular_energy": -10.2, "internal_energy": -3.93, "cluster_size": 7, "cluster_id": 4, "rank_in_cluster": 6}

>  <energy>  (27) 
-8.56

>  <cluster_rmsd>  (27) 
0.28

>  <rmsd>  (27) 
271.19

>  <cluster>  (27) 
2

$$$$

     RDKit          3D

 65 68  0  0  1  0  0  0  0  0999 V2000
  145.5510   73.8160  220.5850 C   0  0  0  0  0  0  0  0  0  0  0  0
  144.1990   73.2280  220.0800 C   0  0  0  0  0  0  0  0  0  0  0  0
  144.4210   72.9800  218.6120 C   0  0  0  0  0  0  0  0  0  0  0  0
  144.1010   71.9140  220.7920 C   0  0  0  0  0  0  0  0  0  0  0  0
  143.5530   70.7770  220.0860 C   0  0  0  0  0  0  0  0  0  0  0  0
  142.2150   70.6040  219.7580 C   0  0  0  0  0  0  0  0  0  0  0  0
  141.7650   69.5080  219.0420 C   0  0  0  0  0  0  0  0  0  0  0  0
  142.6520   68.5380  218.6280 C   0  0  0  0  0  0  0  0  0  0  0  0
  142.2100   67.4570  217.9240 F   0  0  0  0  0  0  0  0  0  0  0  0
  144.0070   68.6820  218.9440 C   0  0  0  0  0  0  0  0  0  0  0  0
  144.4430   69.7800  219.6570 C   0  0  0  0  0  0  0  0  0  0  0  0
  143.2230   74.2070  220.3930 N   0  0  0  0  0  0  0  0  0  0  0  0
  143.0770   75.4680  219.7180 C   0  0  0  0  0  0  0  0  0  0  0  0
  143.8210   75.8150  218.7940 O   0  0  0  0  0  0  0  0  0  0  0  0
  141.9970   76.4350  220.1160 C   0  0  1  0  0  0  0  0  0  0  0  0
  142.0850   77.6870  219.2900 C   0  0  0  0  0  0  0  0  0  0  0  0
  140.8910   78.0570  218.6870 O   0  0  0  0  0  0  0  0  0  0  0  0
  140.3410   77.0190  217.9370 C   0  0  0  0  0  0  0  0  0  0  0  0
  139.8440   75.9300  218.8400 C   0  0  0  0  0  0  0  0  0  0  0  0
  140.6800   75.8810  220.0250 N   0  0  0  0  0  0  0  0  0  0  0  0
  140.1440   75.2330  221.1660 C   0  0  0  0  0  0  0  0  0  0  0  0
  140.5820   75.4590  222.3440 O   0  0  0  0  0  0  0  0  0  0  0  0
  139.0320   74.2440  221.0810 C   0  0  0  0  0  0  0  0  0  0  0  0
  139.0410   73.3350  222.1990 N   0  0  0  0  0  0  0  0  0  0  0  0
  140.1290   72.4590  222.4610 C   0  0  0  0  0  0  0  0  0  0  0  0
  141.1300   72.4930  221.6680 O   0  0  0  0  0  0  0  0  0  0  0  0
  140.1070   71.5470  223.6040 C   0  0  0  0  0  0  0  0  0  0  0  0
  139.5670   70.2880  223.4290 C   0  0  0  0  0  0  0  0  0  0  0  0
  139.5130   69.3710  224.4710 C   0  0  0  0  0  0  0  0  0  0  0  0
  140.0300   69.7940  225.6800 C   0  0  0  0  0  0  0  0  0  0  0  0
  140.0060   68.9270  226.7530 C   0  0  0  0  0  0  0  0  0  0  0  0
  140.5040   69.2760  227.9910 C   0  0  0  0  0  0  0  0  0  0  0  0
  140.4620   68.3940  229.0270 F   0  0  0  0  0  0  0  0  0  0  0  0
  141.0450   70.5560  228.1420 C   0  0  0  0  0  0  0  0  0  0  0  0
  141.0830   71.4460  227.0820 C   0  0  0  0  0  0  0  0  0  0  0  0
  140.5740   71.0560  225.8610 C   0  0  0  0  0  0  0  0  0  0  0  0
  140.5990   71.9120  224.8020 N   0  0  0  0  0  0  0  0  0  0  0  0
  145.5609   73.8203  221.6850 H   0  0  0  0  0  0  0  0  0  0  0  0
  146.3814   73.1977  220.2133 H   0  0  0  0  0  0  0  0  0  0  0  0
  145.6650   74.8450  220.2133 H   0  0  0  0  0  0  0  0  0  0  0  0
  145.1497   72.1660  218.4837 H   0  0  0  0  0  0  0  0  0  0  0  0
  143.4686   72.6973  218.1397 H   0  0  0  0  0  0  0  0  0  0  0  0
  144.8070   73.8954  218.1397 H   0  0  0  0  0  0  0  0  0  0  0  0
  145.1191   71.6396  221.1054 H   0  0  0  0  0  0  0  0  0  0  0  0
  143.3751   72.1017  221.5969 H   0  0  0  0  0  0  0  0  0  0  0  0
  141.4873   71.3642  220.0782 H   0  0  0  0  0  0  0  0  0  0  0  0
  140.6957   69.4111  218.8027 H   0  0  0  0  0  0  0  0  0  0  0  0
  144.7284   67.9163  218.6226 H   0  0  0  0  0  0  0  0  0  0  0  0
  145.5127   69.8762  219.8947 H   0  0  0  0  0  0  0  0  0  0  0  0
  142.5060   74.0710  221.1760 H   0  0  0  0  0  0  0  0  0  0  0  0
  142.1695   76.6728  221.1760 H   0  0  0  0  0  0  0  0  0  0  0  0
  142.4103   78.5094  219.9441 H   0  0  0  0  0  0  0  0  0  0  0  0
  142.7977   77.4800  218.4781 H   0  0  0  0  0  0  0  0  0  0  0  0
  139.5019   77.4072  217.3410 H   0  0  0  0  0  0  0  0  0  0  0  0
  141.1162   76.6075  217.2738 H   0  0  0  0  0  0  0  0  0  0  0  0
  138.8037   76.1380  219.1308 H   0  0  0  0  0  0  0  0  0  0  0  0
  139.8857   74.9641  218.3154 H   0  0  0  0  0  0  0  0  0  0  0  0
  138.0741   74.7847  221.0688 H   0  0  0  0  0  0  0  0  0  0  0  0
  139.1648   73.6568  220.1604 H   0  0  0  0  0  0  0  0  0  0  0  0
  138.2360   73.2790  222.8730 H   0  0  0  0  0  0  0  0  0  0  0  0
  139.1709   70.0051  222.4426 H   0  0  0  0  0  0  0  0  0  0  0  0
  139.0836   68.3667  224.3409 H   0  0  0  0  0  0  0  0  0  0  0  0
  139.5754   67.9240  226.6166 H   0  0  0  0  0  0  0  0  0  0  0  0
  141.4473   70.8613  229.1192 H   0  0  0  0  0  0  0  0  0  0  0  0
  141.5131   72.4500  227.2119 H   0  0  0  0  0  0  0  0  0  0  0  0
  1  2  1  0
  2  3  1  0
  2  4  1  0
  4  5  1  0
  5  6  2  0
  6  7  1  0
  7  8  2  0
  8  9  1  0
  8 10  1  0
 10 11  2  0
  2 12  1  0
 12 13  1  0
 13 14  2  0
 13 15  1  0
 15 16  1  0
 16 17  1  0
 17 18  1  0
 18 19  1  0
 19 20  1  0
 20 21  1  0
 21 22  2  0
 21 23  1  0
 23 24  1  0
 24 25  1  0
 25 26  2  0
 25 27  1  0
 27 28  2  0
 28 29  1  0
 29 30  2  0
 30 31  1  0
 31 32  2  0
 32 33  1  0
 32 34  1  0
 34 35  2  0
 35 36  1  0
 36 37  2  0
 11  5  1  0
 20 15  1  0
 37 27  1  0
 36 30  1  0
  1 38  1  0
  1 39  1  0
  1 40  1  0
  3 41  1  0
  3 42  1  0
  3 43  1  0
  4 44  1  0
  4 45  1  0
  6 46  1  0
  7 47  1  0
 10 48  1  0
 11 49  1  0
 12 50  1  0
 15 51  1  1
 16 52  1  0
 16 53  1  0
 18 54  1  0
 18 55  1  0
 19 56  1  0
 19 57  1  0
 23 58  1  0
 23 59  1  0
 24 60  1  0
 28 61  1  0
 29 62  1  0
 31 63  1  0
 34 64  1  0
 35 65  1  0
M  END
>  <smiles>  (28) 
CC(C)(Cc1ccc(F)cc1)NC(=O)C1COCCN1C(=O)CNC(=O)c1ccc2cc(F)ccc2n1

>  <score_type>  (28) 
oracle

>  <origin>  (28) 
autodockgpu

>  <m_score__min__energy>  (28) 
-9.2899999999999991

>  <m_primary>  (28) 
energy

>  <meeko>  (28) 
{"free_energy": -7.82, "intermolecular_energy": -10.21, "internal_energy": -3.33, "cluster_size": 1, "cluster_id": 5, "rank_in_cluster": 1}

>  <energy>  (28) 
-8.54

>  <cluster_rmsd>  (28) 
0.27

>  <rmsd>  (28) 
271.19

>  <cluster>  (28) 
2

$$$$

     RDKit          3D

 65 68  0  0  1  0  0  0  0  0999 V2000
  136.4430   79.3010  223.4430 C   0  0  0  0  0  0  0  0  0  0  0  0
  137.6280   79.8950  222.6240 C   0  0  0  0  0  0  0  0  0  0  0  0
  137.0240   81.0490  221.8700 C   0  0  0  0  0  0  0  0  0  0  0  0
  138.5510   80.4240  223.6790 C   0  0  0  0  0  0  0  0  0  0  0  0
  139.9780   80.2940  223.4860 C   0  0  0  0  0  0  0  0  0  0  0  0
  140.7310   79.1690  223.7950 C   0  0  0  0  0  0  0  0  0  0  0  0
  142.0910   79.0970  223.5450 C   0  0  0  0  0  0  0  0  0  0  0  0
  142.7480   80.1640  222.9700 C   0  0  0  0  0  0  0  0  0  0  0  0
  144.0880   80.0960  222.7240 F   0  0  0  0  0  0  0  0  0  0  0  0
  142.0180   81.3130  222.6480 C   0  0  0  0  0  0  0  0  0  0  0  0
  140.6630   81.3720  222.9020 C   0  0  0  0  0  0  0  0  0  0  0  0
  138.1050   78.8270  221.8250 N   0  0  0  0  0  0  0  0  0  0  0  0
  138.9500   78.9760  220.6710 C   0  0  0  0  0  0  0  0  0  0  0  0
  139.3270   80.0810  220.2650 O   0  0  0  0  0  0  0  0  0  0  0  0
  139.4170   77.7750  219.8960 C   0  0  1  0  0  0  0  0  0  0  0  0
  139.9980   78.1970  218.5780 C   0  0  0  0  0  0  0  0  0  0  0  0
  141.2610   77.6800  218.3210 O   0  0  0  0  0  0  0  0  0  0  0  0
  142.1560   77.9510  219.3540 C   0  0  0  0  0  0  0  0  0  0  0  0
  141.7990   77.1560  220.5740 C   0  0  0  0  0  0  0  0  0  0  0  0
  140.3600   76.9710  220.6130 N   0  0  0  0  0  0  0  0  0  0  0  0
  139.8670   75.9190  221.4230 C   0  0  0  0  0  0  0  0  0  0  0  0
  139.1910   76.1360  222.4850 O   0  0  0  0  0  0  0  0  0  0  0  0
  140.0960   74.4810  221.1010 C   0  0  0  0  0  0  0  0  0  0  0  0
  139.9460   73.6440  222.2630 N   0  0  0  0  0  0  0  0  0  0  0  0
  140.3750   72.2890  222.2890 C   0  0  0  0  0  0  0  0  0  0  0  0
  140.9140   71.8110  221.2330 O   0  0  0  0  0  0  0  0  0  0  0  0
  140.2070   71.4650  223.4850 C   0  0  0  0  0  0  0  0  0  0  0  0
  139.5620   70.2500  223.3600 C   0  0  0  0  0  0  0  0  0  0  0  0
  139.3670   69.4160  224.4540 C   0  0  0  0  0  0  0  0  0  0  0  0
  139.8550   69.8740  225.6620 C   0  0  0  0  0  0  0  0  0  0  0  0
  139.6930   69.0900  226.7850 C   0  0  0  0  0  0  0  0  0  0  0  0
  140.1540   69.4800  228.0260 C   0  0  0  0  0  0  0  0  0  0  0  0
  139.9750   68.6800  229.1120 F   0  0  0  0  0  0  0  0  0  0  0  0
  140.8030   70.7130  228.1250 C   0  0  0  0  0  0  0  0  0  0  0  0
  140.9810   71.5210  227.0140 C   0  0  0  0  0  0  0  0  0  0  0  0
  140.5040   71.0920  225.7920 C   0  0  0  0  0  0  0  0  0  0  0  0
  140.6650   71.8660  224.6840 N   0  0  0  0  0  0  0  0  0  0  0  0
  136.6515   79.4055  224.5180 H   0  0  0  0  0  0  0  0  0  0  0  0
  135.5180   79.8420  223.1946 H   0  0  0  0  0  0  0  0  0  0  0  0
  136.3229   78.2362  223.1946 H   0  0  0  0  0  0  0  0  0  0  0  0
  136.6359   81.7905  222.5839 H   0  0  0  0  0  0  0  0  0  0  0  0
  137.7931   81.5165  221.2375 H   0  0  0  0  0  0  0  0  0  0  0  0
  136.2016   80.6835  221.2375 H   0  0  0  0  0  0  0  0  0  0  0  0
  138.3361   81.4973  223.7877 H   0  0  0  0  0  0  0  0  0  0  0  0
  138.3428   79.7923  224.5551 H   0  0  0  0  0  0  0  0  0  0  0  0
  140.2295   78.3046  224.2546 H   0  0  0  0  0  0  0  0  0  0  0  0
  142.6490   78.1856  223.8060 H   0  0  0  0  0  0  0  0  0  0  0  0
  142.5268   82.1740  222.1899 H   0  0  0  0  0  0  0  0  0  0  0  0
  140.1066   82.2843  222.6411 H   0  0  0  0  0  0  0  0  0  0  0  0
  137.8630   77.8050  222.0310 H   0  0  0  0  0  0  0  0  0  0  0  0
  138.5284   77.1485  219.7291 H   0  0  0  0  0  0  0  0  0  0  0  0
  139.3195   77.8631  217.7792 H   0  0  0  0  0  0  0  0  0  0  0  0
  140.1060   79.2910  218.6159 H   0  0  0  0  0  0  0  0  0  0  0  0
  143.1734   77.6842  219.0320 H   0  0  0  0  0  0  0  0  0  0  0  0
  142.1067   79.0224  219.5981 H   0  0  0  0  0  0  0  0  0  0  0  0
  142.2959   76.1755  220.5337 H   0  0  0  0  0  0  0  0  0  0  0  0
  142.1295   77.6914  221.4763 H   0  0  0  0  0  0  0  0  0  0  0  0
  139.3681   74.1662  220.3387 H   0  0  0  0  0  0  0  0  0  0  0  0
  141.1263   74.3725  220.7313 H   0  0  0  0  0  0  0  0  0  0  0  0
  139.5070   74.0010  223.1500 H   0  0  0  0  0  0  0  0  0  0  0  0
  139.1944   69.9356  222.3720 H   0  0  0  0  0  0  0  0  0  0  0  0
  138.8538   68.4473  224.3632 H   0  0  0  0  0  0  0  0  0  0  0  0
  139.1795   68.1220  226.6884 H   0  0  0  0  0  0  0  0  0  0  0  0
  141.1794   71.0483  229.1027 H   0  0  0  0  0  0  0  0  0  0  0  0
  141.4946   72.4896  227.1043 H   0  0  0  0  0  0  0  0  0  0  0  0
  1  2  1  0
  2  3  1  0
  2  4  1  0
  4  5  1  0
  5  6  2  0
  6  7  1  0
  7  8  2  0
  8  9  1  0
  8 10  1  0
 10 11  2  0
  2 12  1  0
 12 13  1  0
 13 14  2  0
 13 15  1  0
 15 16  1  0
 16 17  1  0
 17 18  1  0
 18 19  1  0
 19 20  1  0
 20 21  1  0
 21 22  2  0
 21 23  1  0
 23 24  1  0
 24 25  1  0
 25 26  2  0
 25 27  1  0
 27 28  2  0
 28 29  1  0
 29 30  2  0
 30 31  1  0
 31 32  2  0
 32 33  1  0
 32 34  1  0
 34 35  2  0
 35 36  1  0
 36 37  2  0
 11  5  1  0
 20 15  1  0
 37 27  1  0
 36 30  1  0
  1 38  1  0
  1 39  1  0
  1 40  1  0
  3 41  1  0
  3 42  1  0
  3 43  1  0
  4 44  1  0
  4 45  1  0
  6 46  1  0
  7 47  1  0
 10 48  1  0
 11 49  1  0
 12 50  1  0
 15 51  1  6
 16 52  1  0
 16 53  1  0
 18 54  1  0
 18 55  1  0
 19 56  1  0
 19 57  1  0
 23 58  1  0
 23 59  1  0
 24 60  1  0
 28 61  1  0
 29 62  1  0
 31 63  1  0
 34 64  1  0
 35 65  1  0
M  END
>  <smiles>  (29) 
CC(C)(Cc1ccc(F)cc1)NC(=O)C1COCCN1C(=O)CNC(=O)c1ccc2cc(F)ccc2n1

>  <score_type>  (29) 
oracle

>  <origin>  (29) 
autodockgpu

>  <m_score__min__energy>  (29) 
-9.2899999999999991

>  <m_primary>  (29) 
energy

>  <meeko>  (29) 
{"free_energy": -8.54, "intermolecular_energy": -10.93, "internal_energy": -3.78, "cluster_size": 4, "cluster_id": 2, "rank_in_cluster": 3}

>  <energy>  (29) 
-7.26

>  <cluster_rmsd>  (29) 
1.4

>  <rmsd>  (29) 
270.78

>  <cluster>  (29) 
2

$$$$

     RDKit          3D

 65 68  0  0  1  0  0  0  0  0999 V2000
  143.1330   79.6790  222.6990 C   0  0  0  0  0  0  0  0  0  0  0  0
  141.7140   79.1670  223.0900 C   0  0  0  0  0  0  0  0  0  0  0  0
  141.8290   78.8170  224.5490 C   0  0  0  0  0  0  0  0  0  0  0  0
  140.8500   80.3820  222.9420 C   0  0  0  0  0  0  0  0  0  0  0  0
  139.4170   80.2380  223.0650 C   0  0  0  0  0  0  0  0  0  0  0  0
  138.5810   79.6680  222.1140 C   0  0  0  0  0  0  0  0  0  0  0  0
  137.2200   79.5240  222.3150 C   0  0  0  0  0  0  0  0  0  0  0  0
  136.6440   79.9540  223.4920 C   0  0  0  0  0  0  0  0  0  0  0  0
  135.3020   79.8140  223.6920 F   0  0  0  0  0  0  0  0  0  0  0  0
  137.4580   80.5330  224.4700 C   0  0  0  0  0  0  0  0  0  0  0  0
  138.8140   80.6710  224.2570 C   0  0  0  0  0  0  0  0  0  0  0  0
  141.4540   78.0800  222.2200 N   0  0  0  0  0  0  0  0  0  0  0  0
  141.5010   78.1440  220.7840 C   0  0  0  0  0  0  0  0  0  0  0  0
  141.7680   79.1880  220.1770 O   0  0  0  0  0  0  0  0  0  0  0  0
  141.2240   76.9270  219.9470 C   0  0  1  0  0  0  0  0  0  0  0  0
  142.3790   76.6490  219.0280 C   0  0  0  0  0  0  0  0  0  0  0  0
  142.8510   75.3450  219.0850 O   0  0  0  0  0  0  0  0  0  0  0  0
  143.1640   74.9600  220.3870 C   0  0  0  0  0  0  0  0  0  0  0  0
  141.9140   74.8140  221.2020 C   0  0  0  0  0  0  0  0  0  0  0  0
  140.9250   75.7620  220.7250 N   0  0  0  0  0  0  0  0  0  0  0  0
  139.5720   75.5070  221.0590 C   0  0  0  0  0  0  0  0  0  0  0  0
  138.7780   76.4350  221.4340 O   0  0  0  0  0  0  0  0  0  0  0  0
  138.9720   74.1430  220.9990 C   0  0  0  0  0  0  0  0  0  0  0  0
  139.2600   73.3820  222.1870 N   0  0  0  0  0  0  0  0  0  0  0  0
  139.2470   71.9600  222.2050 C   0  0  0  0  0  0  0  0  0  0  0  0
  138.9690   71.3500  221.1170 O   0  0  0  0  0  0  0  0  0  0  0  0
  139.5420   71.2170  223.4290 C   0  0  0  0  0  0  0  0  0  0  0  0
  139.3010   69.8570  223.4450 C   0  0  0  0  0  0  0  0  0  0  0  0
  139.5580   69.0880  224.5740 C   0  0  0  0  0  0  0  0  0  0  0  0
  140.0660   69.7640  225.6660 C   0  0  0  0  0  0  0  0  0  0  0  0
  140.3430   69.0540  226.8160 C   0  0  0  0  0  0  0  0  0  0  0  0
  140.8520   69.6580  227.9470 C   0  0  0  0  0  0  0  0  0  0  0  0
  141.1120   68.9260  229.0640 F   0  0  0  0  0  0  0  0  0  0  0  0
  141.0870   71.0350  227.9050 C   0  0  0  0  0  0  0  0  0  0  0  0
  140.8200   71.7720  226.7630 C   0  0  0  0  0  0  0  0  0  0  0  0
  140.3110   71.1280  225.6540 C   0  0  0  0  0  0  0  0  0  0  0  0
  140.0390   71.8290  224.5180 N   0  0  0  0  0  0  0  0  0  0  0  0
  143.7116   79.8878  223.6109 H   0  0  0  0  0  0  0  0  0  0  0  0
  143.6493   78.9105  222.1051 H   0  0  0  0  0  0  0  0  0  0  0  0
  143.0397   80.6001  222.1051 H   0  0  0  0  0  0  0  0  0  0  0  0
  141.5432   79.6870  225.1584 H   0  0  0  0  0  0  0  0  0  0  0  0
  141.1607   77.9737  224.7776 H   0  0  0  0  0  0  0  0  0  0  0  0
  142.8672   78.5344  224.7776 H   0  0  0  0  0  0  0  0  0  0  0  0
  141.1696   81.1012  223.7105 H   0  0  0  0  0  0  0  0  0  0  0  0
  140.9973   80.6865  221.8953 H   0  0  0  0  0  0  0  0  0  0  0  0
  139.0168   79.3183  221.1665 H   0  0  0  0  0  0  0  0  0  0  0  0
  136.5956   79.0654  221.5341 H   0  0  0  0  0  0  0  0  0  0  0  0
  137.0147   80.8806  225.4148 H   0  0  0  0  0  0  0  0  0  0  0  0
  139.4369   81.1306  225.0385 H   0  0  0  0  0  0  0  0  0  0  0  0
  141.1960   77.1060  222.5820 H   0  0  0  0  0  0  0  0  0  0  0  0
  140.3241   77.1549  219.3569 H   0  0  0  0  0  0  0  0  0  0  0  0
  142.0562   76.8541  217.9966 H   0  0  0  0  0  0  0  0  0  0  0  0
  143.2050   77.2984  219.3535 H   0  0  0  0  0  0  0  0  0  0  0  0
  143.6957   73.9973  220.3627 H   0  0  0  0  0  0  0  0  0  0  0  0
  143.8010   75.7313  220.8445 H   0  0  0  0  0  0  0  0  0  0  0  0
  141.5238   73.7907  221.0985 H   0  0  0  0  0  0  0  0  0  0  0  0
  142.1362   75.0106  222.2612 H   0  0  0  0  0  0  0  0  0  0  0  0
  137.8813   74.2377  220.8919 H   0  0  0  0  0  0  0  0  0  0  0  0
  139.4080   73.6140  220.1387 H   0  0  0  0  0  0  0  0  0  0  0  0
  139.4920   73.8480  223.1010 H   0  0  0  0  0  0  0  0  0  0  0  0
  138.8967   69.3718  222.5444 H   0  0  0  0  0  0  0  0  0  0  0  0
  139.3680   68.0048  224.5964 H   0  0  0  0  0  0  0  0  0  0  0  0
  140.1517   67.9709  226.8316 H   0  0  0  0  0  0  0  0  0  0  0  0
  141.4908   71.5421  228.7937 H   0  0  0  0  0  0  0  0  0  0  0  0
  141.0110   72.8551  226.7406 H   0  0  0  0  0  0  0  0  0  0  0  0
  1  2  1  0
  2  3  1  0
  2  4  1  0
  4  5  1  0
  5  6  2  0
  6  7  1  0
  7  8  2  0
  8  9  1  0
  8 10  1  0
 10 11  2  0
  2 12  1  0
 12 13  1  0
 13 14  2  0
 13 15  1  0
 15 16  1  0
 16 17  1  0
 17 18  1  0
 18 19  1  0
 19 20  1  0
 20 21  1  0
 21 22  2  0
 21 23  1  0
 23 24  1  0
 24 25  1  0
 25 26  2  0
 25 27  1  0
 27 28  2  0
 28 29  1  0
 29 30  2  0
 30 31  1  0
 31 32  2  0
 32 33  1  0
 32 34  1  0
 34 35  2  0
 35 36  1  0
 36 37  2  0
 11  5  1  0
 20 15  1  0
 37 27  1  0
 36 30  1  0
  1 38  1  0
  1 39  1  0
  1 40  1  0
  3 41  1  0
  3 42  1  0
  3 43  1  0
  4 44  1  0
  4 45  1  0
  6 46  1  0
  7 47  1  0
 10 48  1  0
 11 49  1  0
 12 50  1  0
 15 51  1  6
 16 52  1  0
 16 53  1  0
 18 54  1  0
 18 55  1  0
 19 56  1  0
 19 57  1  0
 23 58  1  0
 23 59  1  0
 24 60  1  0
 28 61  1  0
 29 62  1  0
 31 63  1  0
 34 64  1  0
 35 65  1  0
M  END
>  <smiles>  (30) 
CC(C)(Cc1ccc(F)cc1)NC(=O)C1COCCN1C(=O)CNC(=O)c1ccc2cc(F)ccc2n1

>  <score_type>  (30) 
oracle

>  <origin>  (30) 
autodockgpu

>  <m_score__min__energy>  (30) 
-9.2899999999999991

>  <m_primary>  (30) 
energy

>  <meeko>  (30) 
{"free_energy": -8.16, "intermolecular_energy": -10.55, "internal_energy": -2.6, "cluster_size": 5, "cluster_id": 1, "rank_in_cluster": 5}

>  <energy>  (30) 
-8.69

>  <cluster_rmsd>  (30) 
0.0

>  <rmsd>  (30) 
270.82

>  <cluster>  (30) 
3

$$$$

     RDKit          3D

 65 68  0  0  1  0  0  0  0  0999 V2000
  136.5100   79.2820  223.4310 C   0  0  0  0  0  0  0  0  0  0  0  0
  137.6850   79.8710  222.5930 C   0  0  0  0  0  0  0  0  0  0  0  0
  137.0580   80.9840  221.7960 C   0  0  0  0  0  0  0  0  0  0  0  0
  138.5940   80.4580  223.6290 C   0  0  0  0  0  0  0  0  0  0  0  0
  140.0240   80.3320  223.4540 C   0  0  0  0  0  0  0  0  0  0  0  0
  140.7840   79.2300  223.8210 C   0  0  0  0  0  0  0  0  0  0  0  0
  142.1460   79.1590  223.5860 C   0  0  0  0  0  0  0  0  0  0  0  0
  142.7990   80.2050  222.9690 C   0  0  0  0  0  0  0  0  0  0  0  0
  144.1410   80.1380  222.7370 F   0  0  0  0  0  0  0  0  0  0  0  0
  142.0610   81.3300  222.5870 C   0  0  0  0  0  0  0  0  0  0  0  0
  140.7040   81.3880  222.8270 C   0  0  0  0  0  0  0  0  0  0  0  0
  138.1860   78.7850  221.8340 N   0  0  0  0  0  0  0  0  0  0  0  0
  138.9070   78.9090  220.5960 C   0  0  0  0  0  0  0  0  0  0  0  0
  139.1410   80.0050  220.0730 O   0  0  0  0  0  0  0  0  0  0  0  0
  139.4130   77.6930  219.8720 C   0  0  1  0  0  0  0  0  0  0  0  0
  139.9650   78.0750  218.5280 C   0  0  0  0  0  0  0  0  0  0  0  0
  141.2440   77.5970  218.2810 O   0  0  0  0  0  0  0  0  0  0  0  0
  142.1380   77.9500  219.2900 C   0  0  0  0  0  0  0  0  0  0  0  0
  141.8240   77.2000  220.5500 C   0  0  0  0  0  0  0  0  0  0  0  0
  140.3950   76.9610  220.6140 N   0  0  0  0  0  0  0  0  0  0  0  0
  139.9510   75.9290  221.4770 C   0  0  0  0  0  0  0  0  0  0  0  0
  139.4400   76.1720  222.6230 O   0  0  0  0  0  0  0  0  0  0  0  0
  140.0450   74.4840  221.1180 C   0  0  0  0  0  0  0  0  0  0  0  0
  139.9360   73.6390  222.2800 N   0  0  0  0  0  0  0  0  0  0  0  0
  140.3370   72.2750  222.2710 C   0  0  0  0  0  0  0  0  0  0  0  0
  140.8120   71.7970  221.1850 O   0  0  0  0  0  0  0  0  0  0  0  0
  140.2120   71.4420  223.4660 C   0  0  0  0  0  0  0  0  0  0  0  0
  139.5840   70.2180  223.3510 C   0  0  0  0  0  0  0  0  0  0  0  0
  139.4300   69.3750  224.4460 C   0  0  0  0  0  0  0  0  0  0  0  0
  139.9410   69.8360  225.6430 C   0  0  0  0  0  0  0  0  0  0  0  0
  139.8200   69.0440  226.7660 C   0  0  0  0  0  0  0  0  0  0  0  0
  140.3050   69.4350  227.9970 C   0  0  0  0  0  0  0  0  0  0  0  0
  140.1670   68.6260  229.0830 F   0  0  0  0  0  0  0  0  0  0  0  0
  140.9370   70.6780  228.0860 C   0  0  0  0  0  0  0  0  0  0  0  0
  141.0740   71.4930  226.9750 C   0  0  0  0  0  0  0  0  0  0  0  0
  140.5740   71.0640  225.7640 C   0  0  0  0  0  0  0  0  0  0  0  0
  140.6940   71.8450  224.6550 N   0  0  0  0  0  0  0  0  0  0  0  0
  136.7320   79.3933  224.5026 H   0  0  0  0  0  0  0  0  0  0  0  0
  135.5819   79.8214  223.1909 H   0  0  0  0  0  0  0  0  0  0  0  0
  136.3869   78.2156  223.1909 H   0  0  0  0  0  0  0  0  0  0  0  0
  136.6359   81.7333  222.4818 H   0  0  0  0  0  0  0  0  0  0  0  0
  137.8225   81.4567  221.1620 H   0  0  0  0  0  0  0  0  0  0  0  0
  136.2575   80.5751  221.1620 H   0  0  0  0  0  0  0  0  0  0  0  0
  138.3687   81.5332  223.6847 H   0  0  0  0  0  0  0  0  0  0  0  0
  138.3838   79.8668  224.5325 H   0  0  0  0  0  0  0  0  0  0  0  0
  140.2861   78.3832  224.3161 H   0  0  0  0  0  0  0  0  0  0  0  0
  142.7094   78.2653  223.8924 H   0  0  0  0  0  0  0  0  0  0  0  0
  142.5656   82.1731  222.0925 H   0  0  0  0  0  0  0  0  0  0  0  0
  140.1417   82.2822  222.5200 H   0  0  0  0  0  0  0  0  0  0  0  0
  138.0600   77.7670  222.1380 H   0  0  0  0  0  0  0  0  0  0  0  0
  138.5475   77.0260  219.7449 H   0  0  0  0  0  0  0  0  0  0  0  0
  139.2927   77.6774  217.7534 H   0  0  0  0  0  0  0  0  0  0  0  0
  140.0300   79.1730  218.5138 H   0  0  0  0  0  0  0  0  0  0  0  0
  143.1617   77.7073  218.9689 H   0  0  0  0  0  0  0  0  0  0  0  0
  142.0497   79.0290  219.4847 H   0  0  0  0  0  0  0  0  0  0  0  0
  142.3590   76.2388  220.5500 H   0  0  0  0  0  0  0  0  0  0  0  0
  142.1414   77.7900  221.4224 H   0  0  0  0  0  0  0  0  0  0  0  0
  139.2321   74.2364  220.4194 H   0  0  0  0  0  0  0  0  0  0  0  0
  141.0279   74.3081  220.6565 H   0  0  0  0  0  0  0  0  0  0  0  0
  139.5500   73.9960  223.1900 H   0  0  0  0  0  0  0  0  0  0  0  0
  139.1967   69.9025  222.3710 H   0  0  0  0  0  0  0  0  0  0  0  0
  138.9305   68.3984  224.3635 H   0  0  0  0  0  0  0  0  0  0  0  0
  139.3202   68.0682  226.6770 H   0  0  0  0  0  0  0  0  0  0  0  0
  141.3326   71.0150  229.0555 H   0  0  0  0  0  0  0  0  0  0  0  0
  141.5747   72.4689  227.0575 H   0  0  0  0  0  0  0  0  0  0  0  0
  1  2  1  0
  2  3  1  0
  2  4  1  0
  4  5  1  0
  5  6  2  0
  6  7  1  0
  7  8  2  0
  8  9  1  0
  8 10  1  0
 10 11  2  0
  2 12  1  0
 12 13  1  0
 13 14  2  0
 13 15  1  0
 15 16  1  0
 16 17  1  0
 17 18  1  0
 18 19  1  0
 19 20  1  0
 20 21  1  0
 21 22  2  0
 21 23  1  0
 23 24  1  0
 24 25  1  0
 25 26  2  0
 25 27  1  0
 27 28  2  0
 28 29  1  0
 29 30  2  0
 30 31  1  0
 31 32  2  0
 32 33  1  0
 32 34  1  0
 34 35  2  0
 35 36  1  0
 36 37  2  0
 11  5  1  0
 20 15  1  0
 37 27  1  0
 36 30  1  0
  1 38  1  0
  1 39  1  0
  1 40  1  0
  3 41  1  0
  3 42  1  0
  3 43  1  0
  4 44  1  0
  4 45  1  0
  6 46  1  0
  7 47  1  0
 10 48  1  0
 11 49  1  0
 12 50  1  0
 15 51  1  6
 16 52  1  0
 16 53  1  0
 18 54  1  0
 18 55  1  0
 19 56  1  0
 19 57  1  0
 23 58  1  0
 23 59  1  0
 24 60  1  0
 28 61  1  0
 29 62  1  0
 31 63  1  0
 34 64  1  0
 35 65  1  0
M  END
>  <smiles>  (31) 
CC(C)(Cc1ccc(F)cc1)NC(=O)C1COCCN1C(=O)CNC(=O)c1ccc2cc(F)ccc2n1

>  <score_type>  (31) 
oracle

>  <origin>  (31) 
autodockgpu

>  <m_score__min__energy>  (31) 
-9.2899999999999991

>  <m_primary>  (31) 
energy

>  <meeko>  (31) 
{"free_energy": -8.56, "intermolecular_energy": -10.95, "internal_energy": -3.78, "cluster_size": 4, "cluster_id": 2, "rank_in_cluster": 2}

>  <energy>  (31) 
-8.43

>  <cluster_rmsd>  (31) 
0.47

>  <rmsd>  (31) 
270.77

>  <cluster>  (31) 
3

$$$$

     RDKit          3D

 65 68  0  0  1  0  0  0  0  0999 V2000
  138.8060   75.6460  222.1800 C   0  0  0  0  0  0  0  0  0  0  0  0
  140.0110   76.4090  221.5510 C   0  0  0  0  0  0  0  0  0  0  0  0
  139.3790   77.5070  220.7390 C   0  0  0  0  0  0  0  0  0  0  0  0
  140.7020   77.0090  222.7370 C   0  0  0  0  0  0  0  0  0  0  0  0
  141.0500   78.4120  222.7050 C   0  0  0  0  0  0  0  0  0  0  0  0
  142.0800   78.9680  221.9590 C   0  0  0  0  0  0  0  0  0  0  0  0
  142.3320   80.3290  221.9430 C   0  0  0  0  0  0  0  0  0  0  0  0
  141.5490   81.1880  222.6850 C   0  0  0  0  0  0  0  0  0  0  0  0
  141.7950   82.5290  222.6710 F   0  0  0  0  0  0  0  0  0  0  0  0
  140.5030   80.6590  223.4480 C   0  0  0  0  0  0  0  0  0  0  0  0
  140.2620   79.3010  223.4550 C   0  0  0  0  0  0  0  0  0  0  0  0
  140.7270   75.4360  220.8100 N   0  0  0  0  0  0  0  0  0  0  0  0
  141.5680   75.7180  219.6790 C   0  0  0  0  0  0  0  0  0  0  0  0
  141.7290   76.8630  219.2420 O   0  0  0  0  0  0  0  0  0  0  0  0
  142.3000   74.6150  218.9670 C   0  0  1  0  0  0  0  0  0  0  0  0
  143.7440   74.9820  218.7770 C   0  0  0  0  0  0  0  0  0  0  0  0
  144.6390   74.0160  219.2150 O   0  0  0  0  0  0  0  0  0  0  0  0
  144.4040   73.6480  220.5380 C   0  0  0  0  0  0  0  0  0  0  0  0
  143.1240   72.8740  220.6430 C   0  0  0  0  0  0  0  0  0  0  0  0
  142.2000   73.3500  219.6310 N   0  0  0  0  0  0  0  0  0  0  0  0
  141.1260   72.4930  219.2840 C   0  0  0  0  0  0  0  0  0  0  0  0
  141.2350   71.5960  218.3820 O   0  0  0  0  0  0  0  0  0  0  0  0
  139.7890   72.5720  219.9420 C   0  0  0  0  0  0  0  0  0  0  0  0
  139.7290   71.7510  221.1240 N   0  0  0  0  0  0  0  0  0  0  0  0
  140.2050   72.1970  222.3880 C   0  0  0  0  0  0  0  0  0  0  0  0
  140.7010   73.3720  222.4610 O   0  0  0  0  0  0  0  0  0  0  0  0
  140.1310   71.3380  223.5690 C   0  0  0  0  0  0  0  0  0  0  0  0
  139.5180   70.1060  223.4480 C   0  0  0  0  0  0  0  0  0  0  0  0
  139.4120   69.2400  224.5290 C   0  0  0  0  0  0  0  0  0  0  0  0
  139.9540   69.6840  225.7190 C   0  0  0  0  0  0  0  0  0  0  0  0
  139.8810   68.8670  226.8280 C   0  0  0  0  0  0  0  0  0  0  0  0
  140.3990   69.2410  228.0520 C   0  0  0  0  0  0  0  0  0  0  0  0
  140.3080   68.4090  229.1240 F   0  0  0  0  0  0  0  0  0  0  0  0
  141.0140   70.4920  228.1470 C   0  0  0  0  0  0  0  0  0  0  0  0
  141.1030   71.3320  227.0490 C   0  0  0  0  0  0  0  0  0  0  0  0
  140.5710   70.9190  225.8450 C   0  0  0  0  0  0  0  0  0  0  0  0
  140.6450   71.7250  224.7500 N   0  0  0  0  0  0  0  0  0  0  0  0
  138.8761   75.6904  223.2769 H   0  0  0  0  0  0  0  0  0  0  0  0
  137.8653   76.1134  221.8535 H   0  0  0  0  0  0  0  0  0  0  0  0
  138.8262   74.5958  221.8535 H   0  0  0  0  0  0  0  0  0  0  0  0
  138.9458   78.2596  221.4143 H   0  0  0  0  0  0  0  0  0  0  0  0
  140.1430   77.9801  220.1046 H   0  0  0  0  0  0  0  0  0  0  0  0
  138.5862   77.0840  220.1046 H   0  0  0  0  0  0  0  0  0  0  0  0
  140.0430   76.8592  223.6049 H   0  0  0  0  0  0  0  0  0  0  0  0
  141.6740   76.4948  222.7664 H   0  0  0  0  0  0  0  0  0  0  0  0
  142.7189   78.3033  221.3590 H   0  0  0  0  0  0  0  0  0  0  0  0
  143.1592   80.7265  221.3366 H   0  0  0  0  0  0  0  0  0  0  0  0
  139.8688   81.3299  224.0460 H   0  0  0  0  0  0  0  0  0  0  0  0
  139.4341   78.9051  224.0615 H   0  0  0  0  0  0  0  0  0  0  0  0
  140.6890   74.3940  221.0480 H   0  0  0  0  0  0  0  0  0  0  0  0
  141.8115   74.5004  217.9881 H   0  0  0  0  0  0  0  0  0  0  0  0
  143.9183   75.1527  217.7044 H   0  0  0  0  0  0  0  0  0  0  0  0
  143.9247   75.8798  219.3864 H   0  0  0  0  0  0  0  0  0  0  0  0
  145.2363   73.0231  220.8942 H   0  0  0  0  0  0  0  0  0  0  0  0
  144.3247   74.5562  221.1535 H   0  0  0  0  0  0  0  0  0  0  0  0
  143.3257   71.8043  220.4844 H   0  0  0  0  0  0  0  0  0  0  0  0
  142.6856   73.0144  221.6421 H   0  0  0  0  0  0  0  0  0  0  0  0
  139.5909   73.6169  220.2230 H   0  0  0  0  0  0  0  0  0  0  0  0
  139.0340   72.2058  219.2308 H   0  0  0  0  0  0  0  0  0  0  0  0
  139.3290   70.7790  221.1040 H   0  0  0  0  0  0  0  0  0  0  0  0
  139.1048   69.8041  222.4743 H   0  0  0  0  0  0  0  0  0  0  0  0
  138.9247   68.2577  224.4421 H   0  0  0  0  0  0  0  0  0  0  0  0
  139.3940   67.8851  226.7341 H   0  0  0  0  0  0  0  0  0  0  0  0
  141.4349   70.8155  229.1104 H   0  0  0  0  0  0  0  0  0  0  0  0
  141.5908   72.3141  227.1359 H   0  0  0  0  0  0  0  0  0  0  0  0
  1  2  1  0
  2  3  1  0
  2  4  1  0
  4  5  1  0
  5  6  2  0
  6  7  1  0
  7  8  2  0
  8  9  1  0
  8 10  1  0
 10 11  2  0
  2 12  1  0
 12 13  1  0
 13 14  2  0
 13 15  1  0
 15 16  1  0
 16 17  1  0
 17 18  1  0
 18 19  1  0
 19 20  1  0
 20 21  1  0
 21 22  2  0
 21 23  1  0
 23 24  1  0
 24 25  1  0
 25 26  2  0
 25 27  1  0
 27 28  2  0
 28 29  1  0
 29 30  2  0
 30 31  1  0
 31 32  2  0
 32 33  1  0
 32 34  1  0
 34 35  2  0
 35 36  1  0
 36 37  2  0
 11  5  1  0
 20 15  1  0
 37 27  1  0
 36 30  1  0
  1 38  1  0
  1 39  1  0
  1 40  1  0
  3 41  1  0
  3 42  1  0
  3 43  1  0
  4 44  1  0
  4 45  1  0
  6 46  1  0
  7 47  1  0
 10 48  1  0
 11 49  1  0
 12 50  1  0
 15 51  1  6
 16 52  1  0
 16 53  1  0
 18 54  1  0
 18 55  1  0
 19 56  1  0
 19 57  1  0
 23 58  1  0
 23 59  1  0
 24 60  1  0
 28 61  1  0
 29 62  1  0
 31 63  1  0
 34 64  1  0
 35 65  1  0
M  END
>  <smiles>  (32) 
CC(C)(Cc1ccc(F)cc1)NC(=O)C1COCCN1C(=O)CNC(=O)c1ccc2cc(F)ccc2n1

>  <score_type>  (32) 
oracle

>  <origin>  (32) 
autodockgpu

>  <m_score__min__energy>  (32) 
-9.2899999999999991

>  <m_primary>  (32) 
energy

>  <meeko>  (32) 
{"free_energy": -8.43, "intermolecular_energy": -10.82, "internal_energy": -3.05, "cluster_size": 2, "cluster_id": 3, "rank_in_cluster": 2}

>  <energy>  (32) 
-8.54

>  <cluster_rmsd>  (32) 
0.0

>  <rmsd>  (32) 
270.81

>  <cluster>  (32) 
4

$$$$

     RDKit          3D

 65 68  0  0  1  0  0  0  0  0999 V2000
  142.5360   79.3340  223.1420 C   0  0  0  0  0  0  0  0  0  0  0  0
  141.1040   79.7040  222.6510 C   0  0  0  0  0  0  0  0  0  0  0  0
  140.6920   80.8570  223.5270 C   0  0  0  0  0  0  0  0  0  0  0  0
  141.3300   80.2010  221.2560 C   0  0  0  0  0  0  0  0  0  0  0  0
  141.7970   79.2720  220.2520 C   0  0  0  0  0  0  0  0  0  0  0  0
  141.8550   77.8930  220.3980 C   0  0  0  0  0  0  0  0  0  0  0  0
  142.2740   77.0570  219.3770 C   0  0  0  0  0  0  0  0  0  0  0  0
  142.6540   77.5840  218.1610 C   0  0  0  0  0  0  0  0  0  0  0  0
  143.0680   76.7630  217.1550 F   0  0  0  0  0  0  0  0  0  0  0  0
  142.6080   78.9710  217.9820 C   0  0  0  0  0  0  0  0  0  0  0  0
  142.1870   79.7930  219.0070 C   0  0  0  0  0  0  0  0  0  0  0  0
  140.3380   78.5220  222.7990 N   0  0  0  0  0  0  0  0  0  0  0  0
  138.9370   78.4050  222.4970 C   0  0  0  0  0  0  0  0  0  0  0  0
  138.2670   79.3580  222.0840 O   0  0  0  0  0  0  0  0  0  0  0  0
  138.2160   77.0980  222.6730 C   0  0  1  0  0  0  0  0  0  0  0  0
  136.7330   77.3240  222.7480 C   0  0  0  0  0  0  0  0  0  0  0  0
  135.9920   76.5370  221.8760 O   0  0  0  0  0  0  0  0  0  0  0  0
  136.4350   76.6570  220.5610 C   0  0  0  0  0  0  0  0  0  0  0  0
  137.7810   76.0140  220.4040 C   0  0  0  0  0  0  0  0  0  0  0  0
  138.5150   76.1440  221.6480 N   0  0  0  0  0  0  0  0  0  0  0  0
  139.6030   75.2600  221.8510 C   0  0  0  0  0  0  0  0  0  0  0  0
  140.7140   75.6500  222.3470 O   0  0  0  0  0  0  0  0  0  0  0  0
  139.5380   73.8110  221.5030 C   0  0  0  0  0  0  0  0  0  0  0  0
  139.6800   72.9770  222.6690 N   0  0  0  0  0  0  0  0  0  0  0  0
  139.4890   71.5680  222.6270 C   0  0  0  0  0  0  0  0  0  0  0  0
  139.1820   71.0380  221.5050 O   0  0  0  0  0  0  0  0  0  0  0  0
  139.6380   70.7490  223.8280 C   0  0  0  0  0  0  0  0  0  0  0  0
  139.1830   69.4460  223.7960 C   0  0  0  0  0  0  0  0  0  0  0  0
  139.2930   68.6100  224.9010 C   0  0  0  0  0  0  0  0  0  0  0  0
  139.8810   69.1620  226.0220 C   0  0  0  0  0  0  0  0  0  0  0  0
  140.0190   68.3810  227.1510 C   0  0  0  0  0  0  0  0  0  0  0  0
  140.5960   68.8610  228.3090 C   0  0  0  0  0  0  0  0  0  0  0  0
  140.7150   68.0610  229.4040 F   0  0  0  0  0  0  0  0  0  0  0  0
  141.0490   70.1830  228.3160 C   0  0  0  0  0  0  0  0  0  0  0  0
  140.9240   70.9880  227.1970 C   0  0  0  0  0  0  0  0  0  0  0  0
  140.3410   70.4690  226.0600 C   0  0  0  0  0  0  0  0  0  0  0  0
  140.2050   71.2390  224.9450 N   0  0  0  0  0  0  0  0  0  0  0  0
  142.5566   79.3287  224.2418 H   0  0  0  0  0  0  0  0  0  0  0  0
  142.8064   78.3365  222.7654 H   0  0  0  0  0  0  0  0  0  0  0  0
  143.2558   80.0757  222.7654 H   0  0  0  0  0  0  0  0  0  0  0  0
  140.7947   80.5696  224.5838 H   0  0  0  0  0  0  0  0  0  0  0  0
  141.3359   81.7242  223.3186 H   0  0  0  0  0  0  0  0  0  0  0  0
  139.6444   81.1197  223.3186 H   0  0  0  0  0  0  0  0  0  0  0  0
  140.3725   80.6082  220.8990 H   0  0  0  0  0  0  0  0  0  0  0  0
  142.1580   80.9176  221.3603 H   0  0  0  0  0  0  0  0  0  0  0  0
  141.5575   77.4484  221.3591 H   0  0  0  0  0  0  0  0  0  0  0  0
  142.3038   75.9690  219.5365 H   0  0  0  0  0  0  0  0  0  0  0  0
  142.9092   79.4084  217.0187 H   0  0  0  0  0  0  0  0  0  0  0  0
  142.1560   80.8807  218.8458 H   0  0  0  0  0  0  0  0  0  0  0  0
  140.7610   77.6060  223.1570 H   0  0  0  0  0  0  0  0  0  0  0  0
  138.5773   76.6702  223.6198 H   0  0  0  0  0  0  0  0  0  0  0  0
  136.4025   77.1066  223.7744 H   0  0  0  0  0  0  0  0  0  0  0  0
  136.5577   78.3700  222.4561 H   0  0  0  0  0  0  0  0  0  0  0  0
  135.7167   76.1636  219.8897 H   0  0  0  0  0  0  0  0  0  0  0  0
  136.5166   77.7242  220.3071 H   0  0  0  0  0  0  0  0  0  0  0  0
  137.6546   74.9489  220.1601 H   0  0  0  0  0  0  0  0  0  0  0  0
  138.3358   76.5072  219.5922 H   0  0  0  0  0  0  0  0  0  0  0  0
  138.5672   73.6009  221.0303 H   0  0  0  0  0  0  0  0  0  0  0  0
  140.3673   73.5853  220.8164 H   0  0  0  0  0  0  0  0  0  0  0  0
  139.9310   73.3760  223.6080 H   0  0  0  0  0  0  0  0  0  0  0  0
  138.7226   69.0603  222.8744 H   0  0  0  0  0  0  0  0  0  0  0  0
  138.9331   67.5707  224.8836 H   0  0  0  0  0  0  0  0  0  0  0  0
  139.6575   67.3424  227.1273 H   0  0  0  0  0  0  0  0  0  0  0  0
  141.5128   70.5908  229.2263 H   0  0  0  0  0  0  0  0  0  0  0  0
  141.2846   72.0271  227.2143 H   0  0  0  0  0  0  0  0  0  0  0  0
  1  2  1  0
  2  3  1  0
  2  4  1  0
  4  5  1  0
  5  6  2  0
  6  7  1  0
  7  8  2  0
  8  9  1  0
  8 10  1  0
 10 11  2  0
  2 12  1  0
 12 13  1  0
 13 14  2  0
 13 15  1  0
 15 16  1  0
 16 17  1  0
 17 18  1  0
 18 19  1  0
 19 20  1  0
 20 21  1  0
 21 22  2  0
 21 23  1  0
 23 24  1  0
 24 25  1  0
 25 26  2  0
 25 27  1  0
 27 28  2  0
 28 29  1  0
 29 30  2  0
 30 31  1  0
 31 32  2  0
 32 33  1  0
 32 34  1  0
 34 35  2  0
 35 36  1  0
 36 37  2  0
 11  5  1  0
 20 15  1  0
 37 27  1  0
 36 30  1  0
  1 38  1  0
  1 39  1  0
  1 40  1  0
  3 41  1  0
  3 42  1  0
  3 43  1  0
  4 44  1  0
  4 45  1  0
  6 46  1  0
  7 47  1  0
 10 48  1  0
 11 49  1  0
 12 50  1  0
 15 51  1  1
 16 52  1  0
 16 53  1  0
 18 54  1  0
 18 55  1  0
 19 56  1  0
 19 57  1  0
 23 58  1  0
 23 59  1  0
 24 60  1  0
 28 61  1  0
 29 62  1  0
 31 63  1  0
 34 64  1  0
 35 65  1  0
M  END
>  <smiles>  (33) 
CC(C)(Cc1ccc(F)cc1)NC(=O)C1COCCN1C(=O)CNC(=O)c1ccc2cc(F)ccc2n1

>  <score_type>  (33) 
oracle

>  <origin>  (33) 
autodockgpu

>  <m_score__min__energy>  (33) 
-9.2899999999999991

>  <m_primary>  (33) 
energy

>  <meeko>  (33) 
{"free_energy": -8.54, "intermolecular_energy": -10.93, "internal_energy": -3.1, "cluster_size": 7, "cluster_id": 4, "rank_in_cluster": 1}

>  <energy>  (33) 
-8.05

>  <cluster_rmsd>  (33) 
0.61

>  <rmsd>  (33) 
270.76

>  <cluster>  (33) 
4

$$$$

     RDKit          3D

 65 68  0  0  1  0  0  0  0  0999 V2000
  136.1600   79.6640  223.6100 C   0  0  0  0  0  0  0  0  0  0  0  0
  137.4420   79.9290  222.7640 C   0  0  0  0  0  0  0  0  0  0  0  0
  137.0440   81.0240  221.8100 C   0  0  0  0  0  0  0  0  0  0  0  0
  138.4140   80.4770  223.7630 C   0  0  0  0  0  0  0  0  0  0  0  0
  139.8280   80.4200  223.4650 C   0  0  0  0  0  0  0  0  0  0  0  0
  140.5540   81.4130  222.8210 C   0  0  0  0  0  0  0  0  0  0  0  0
  141.9170   81.3110  222.6050 C   0  0  0  0  0  0  0  0  0  0  0  0
  142.6050   80.1950  223.0320 C   0  0  0  0  0  0  0  0  0  0  0  0
  143.9480   80.0920  222.8190 F   0  0  0  0  0  0  0  0  0  0  0  0
  141.9020   79.1760  223.6830 C   0  0  0  0  0  0  0  0  0  0  0  0
  140.5440   79.2910  223.8930 C   0  0  0  0  0  0  0  0  0  0  0  0
  137.7620   78.6860  222.1660 N   0  0  0  0  0  0  0  0  0  0  0  0
  138.6180   78.5170  221.0230 C   0  0  0  0  0  0  0  0  0  0  0  0
  139.1480   79.4740  220.4460 O   0  0  0  0  0  0  0  0  0  0  0  0
  138.9100   77.1500  220.4720 C   0  0  1  0  0  0  0  0  0  0  0  0
  140.3100   77.0900  219.9310 C   0  0  0  0  0  0  0  0  0  0  0  0
  141.0610   76.0270  220.4120 O   0  0  0  0  0  0  0  0  0  0  0  0
  141.0770   75.9860  221.8050 C   0  0  0  0  0  0  0  0  0  0  0  0
  139.7260   75.6020  222.3300 C   0  0  0  0  0  0  0  0  0  0  0  0
  138.7070   76.1010  221.4250 N   0  0  0  0  0  0  0  0  0  0  0  0
  137.4260   75.5000  221.5000 C   0  0  0  0  0  0  0  0  0  0  0  0
  136.3750   76.1730  221.7720 O   0  0  0  0  0  0  0  0  0  0  0  0
  137.2060   74.0430  221.2690 C   0  0  0  0  0  0  0  0  0  0  0  0
  137.7550   73.2460  222.3360 N   0  0  0  0  0  0  0  0  0  0  0  0
  138.8860   72.4030  222.1540 C   0  0  0  0  0  0  0  0  0  0  0  0
  139.4240   72.3640  220.9950 O   0  0  0  0  0  0  0  0  0  0  0  0
  139.4180   71.6040  223.2560 C   0  0  0  0  0  0  0  0  0  0  0  0
  140.5320   72.0710  223.9270 C   0  0  0  0  0  0  0  0  0  0  0  0
  141.0920   71.3640  224.9840 C   0  0  0  0  0  0  0  0  0  0  0  0
  140.4690   70.1780  225.3190 C   0  0  0  0  0  0  0  0  0  0  0  0
  140.9770   69.4310  226.3610 C   0  0  0  0  0  0  0  0  0  0  0  0
  140.4100   68.2360  226.7540 C   0  0  0  0  0  0  0  0  0  0  0  0
  140.9400   67.5270  227.7880 F   0  0  0  0  0  0  0  0  0  0  0  0
  139.2830   67.7870  226.0600 C   0  0  0  0  0  0  0  0  0  0  0  0
  138.7510   68.5170  225.0110 C   0  0  0  0  0  0  0  0  0  0  0  0
  139.3500   69.7060  224.6500 C   0  0  0  0  0  0  0  0  0  0  0  0
  138.8470   70.4430  223.6210 N   0  0  0  0  0  0  0  0  0  0  0  0
  136.4097   79.7156  224.6800 H   0  0  0  0  0  0  0  0  0  0  0  0
  135.4010   80.4242  223.3735 H   0  0  0  0  0  0  0  0  0  0  0  0
  135.7646   78.6651  223.3735 H   0  0  0  0  0  0  0  0  0  0  0  0
  136.7227   81.9081  222.3801 H   0  0  0  0  0  0  0  0  0  0  0  0
  137.9034   81.2887  221.1765 H   0  0  0  0  0  0  0  0  0  0  0  0
  136.2152   80.6751  221.1765 H   0  0  0  0  0  0  0  0  0  0  0  0
  138.1584   81.5360  223.9150 H   0  0  0  0  0  0  0  0  0  0  0  0
  138.2997   79.8158  224.6346 H   0  0  0  0  0  0  0  0  0  0  0  0
  140.0271   82.3126  222.4701 H   0  0  0  0  0  0  0  0  0  0  0  0
  142.4531   82.1225  222.0912 H   0  0  0  0  0  0  0  0  0  0  0  0
  142.4351   78.2783  224.0292 H   0  0  0  0  0  0  0  0  0  0  0  0
  140.0094   78.4792  224.4079 H   0  0  0  0  0  0  0  0  0  0  0  0
  137.3780   77.7570  222.5350 H   0  0  0  0  0  0  0  0  0  0  0  0
  138.1887   76.9840  219.6583 H   0  0  0  0  0  0  0  0  0  0  0  0
  140.2531   77.0044  218.8358 H   0  0  0  0  0  0  0  0  0  0  0  0
  140.8159   78.0092  220.2612 H   0  0  0  0  0  0  0  0  0  0  0  0
  141.8194   75.2457  222.1377 H   0  0  0  0  0  0  0  0  0  0  0  0
  141.3401   76.9826  222.1892 H   0  0  0  0  0  0  0  0  0  0  0  0
  139.6545   74.5064  222.3975 H   0  0  0  0  0  0  0  0  0  0  0  0
  139.5792   76.0361  223.3300 H   0  0  0  0  0  0  0  0  0  0  0  0
  136.1248   73.8520  221.2012 H   0  0  0  0  0  0  0  0  0  0  0  0
  137.7148   73.7630  220.3348 H   0  0  0  0  0  0  0  0  0  0  0  0
  137.3400   73.2510  223.3020 H   0  0  0  0  0  0  0  0  0  0  0  0
  140.9858   73.0240  223.6174 H   0  0  0  0  0  0  0  0  0  0  0  0
  141.9796   71.7277  225.5224 H   0  0  0  0  0  0  0  0  0  0  0  0
  141.8639   69.8002  226.8968 H   0  0  0  0  0  0  0  0  0  0  0  0
  138.8108   66.8375  226.3523 H   0  0  0  0  0  0  0  0  0  0  0  0
  137.8630   68.1540  224.4728 H   0  0  0  0  0  0  0  0  0  0  0  0
  1  2  1  0
  2  3  1  0
  2  4  1  0
  4  5  1  0
  5  6  2  0
  6  7  1  0
  7  8  2  0
  8  9  1  0
  8 10  1  0
 10 11  2  0
  2 12  1  0
 12 13  1  0
 13 14  2  0
 13 15  1  0
 15 16  1  0
 16 17  1  0
 17 18  1  0
 18 19  1  0
 19 20  1  0
 20 21  1  0
 21 22  2  0
 21 23  1  0
 23 24  1  0
 24 25  1  0
 25 26  2  0
 25 27  1  0
 27 28  2  0
 28 29  1  0
 29 30  2  0
 30 31  1  0
 31 32  2  0
 32 33  1  0
 32 34  1  0
 34 35  2  0
 35 36  1  0
 36 37  2  0
 11  5  1  0
 20 15  1  0
 37 27  1  0
 36 30  1  0
  1 38  1  0
  1 39  1  0
  1 40  1  0
  3 41  1  0
  3 42  1  0
  3 43  1  0
  4 44  1  0
  4 45  1  0
  6 46  1  0
  7 47  1  0
 10 48  1  0
 11 49  1  0
 12 50  1  0
 15 51  1  6
 16 52  1  0
 16 53  1  0
 18 54  1  0
 18 55  1  0
 19 56  1  0
 19 57  1  0
 23 58  1  0
 23 59  1  0
 24 60  1  0
 28 61  1  0
 29 62  1  0
 31 63  1  0
 34 64  1  0
 35 65  1  0
M  END
>  <smiles>  (34) 
CC(C)(Cc1ccc(F)cc1)NC(=O)C1COCCN1C(=O)CNC(=O)c1ccc2cc(F)ccc2n1

>  <score_type>  (34) 
oracle

>  <origin>  (34) 
autodockgpu

>  <m_score__min__energy>  (34) 
-9.2899999999999991

>  <m_primary>  (34) 
energy

>  <meeko>  (34) 
{"free_energy": -7.26, "intermolecular_energy": -9.65, "internal_energy": -3.31, "cluster_size": 4, "cluster_id": 2, "rank_in_cluster": 4}

>  <energy>  (34) 
-8.04

>  <cluster_rmsd>  (34) 
1.87

>  <rmsd>  (34) 
270.81

>  <cluster>  (34) 
4

$$$$

     RDKit          3D

 65 68  0  0  1  0  0  0  0  0999 V2000
  143.3680   80.1370  222.8300 C   0  0  0  0  0  0  0  0  0  0  0  0
  141.9160   79.5710  222.8610 C   0  0  0  0  0  0  0  0  0  0  0  0
  141.8000   78.9050  224.2060 C   0  0  0  0  0  0  0  0  0  0  0  0
  141.0610   80.8010  222.8460 C   0  0  0  0  0  0  0  0  0  0  0  0
  139.6250   80.6540  222.9360 C   0  0  0  0  0  0  0  0  0  0  0  0
  138.7710   80.4310  221.8650 C   0  0  0  0  0  0  0  0  0  0  0  0
  137.4080   80.2570  222.0280 C   0  0  0  0  0  0  0  0  0  0  0  0
  136.8490   80.3030  223.2880 C   0  0  0  0  0  0  0  0  0  0  0  0
  135.5060   80.1330  223.4510 F   0  0  0  0  0  0  0  0  0  0  0  0
  137.6830   80.5270  224.3880 C   0  0  0  0  0  0  0  0  0  0  0  0
  139.0400   80.6980  224.2120 C   0  0  0  0  0  0  0  0  0  0  0  0
  141.8250   78.7080  221.7420 N   0  0  0  0  0  0  0  0  0  0  0  0
  140.7850   77.7360  221.5340 C   0  0  0  0  0  0  0  0  0  0  0  0
  139.8680   77.5650  222.3450 O   0  0  0  0  0  0  0  0  0  0  0  0
  140.7690   76.8750  220.3020 C   0  0  1  0  0  0  0  0  0  0  0  0
  140.9290   77.7190  219.0710 C   0  0  0  0  0  0  0  0  0  0  0  0
  141.9330   77.2910  218.2130 O   0  0  0  0  0  0  0  0  0  0  0  0
  143.1550   77.1530  218.8680 C   0  0  0  0  0  0  0  0  0  0  0  0
  143.1120   75.9880  219.8120 C   0  0  0  0  0  0  0  0  0  0  0  0
  141.7610   75.8430  220.3210 N   0  0  0  0  0  0  0  0  0  0  0  0
  141.4120   74.5860  220.8750 C   0  0  0  0  0  0  0  0  0  0  0  0
  142.2900   73.7110  221.1840 O   0  0  0  0  0  0  0  0  0  0  0  0
  140.0000   74.1880  221.1400 C   0  0  0  0  0  0  0  0  0  0  0  0
  139.8880   73.3730  222.3220 N   0  0  0  0  0  0  0  0  0  0  0  0
  140.2140   71.9890  222.3280 C   0  0  0  0  0  0  0  0  0  0  0  0
  140.6200   71.4640  221.2360 O   0  0  0  0  0  0  0  0  0  0  0  0
  140.0890   71.1880  223.5450 C   0  0  0  0  0  0  0  0  0  0  0  0
  139.4820   69.9510  223.4570 C   0  0  0  0  0  0  0  0  0  0  0  0
  139.3290   69.1370  224.5730 C   0  0  0  0  0  0  0  0  0  0  0  0
  139.8190   69.6390  225.7630 C   0  0  0  0  0  0  0  0  0  0  0  0
  139.6980   68.8770  226.9060 C   0  0  0  0  0  0  0  0  0  0  0  0
  140.1630   69.3100  228.1310 C   0  0  0  0  0  0  0  0  0  0  0  0
  140.0250   68.5300  229.2370 F   0  0  0  0  0  0  0  0  0  0  0  0
  140.7730   70.5660  228.1920 C   0  0  0  0  0  0  0  0  0  0  0  0
  140.9090   71.3520  227.0600 C   0  0  0  0  0  0  0  0  0  0  0  0
  140.4300   70.8800  225.8560 C   0  0  0  0  0  0  0  0  0  0  0  0
  140.5510   71.6330  224.7270 N   0  0  0  0  0  0  0  0  0  0  0  0
  143.7288   80.2776  223.8596 H   0  0  0  0  0  0  0  0  0  0  0  0
  144.0262   79.4296  222.3043 H   0  0  0  0  0  0  0  0  0  0  0  0
  143.3738   81.1032  222.3043 H   0  0  0  0  0  0  0  0  0  0  0  0
  141.9307   79.6557  224.9993 H   0  0  0  0  0  0  0  0  0  0  0  0
  140.8074   78.4404  224.3007 H   0  0  0  0  0  0  0  0  0  0  0  0
  142.5771   78.1322  224.3007 H   0  0  0  0  0  0  0  0  0  0  0  0
  141.3759   81.4237  223.6964 H   0  0  0  0  0  0  0  0  0  0  0  0
  141.2221   81.2240  221.8434 H   0  0  0  0  0  0  0  0  0  0  0  0
  139.1929   80.3911  220.8499 H   0  0  0  0  0  0  0  0  0  0  0  0
  136.7686   80.0815  221.1503 H   0  0  0  0  0  0  0  0  0  0  0  0
  137.2538   80.5670  225.4000 H   0  0  0  0  0  0  0  0  0  0  0  0
  139.6784   80.8727  225.0906 H   0  0  0  0  0  0  0  0  0  0  0  0
  142.5460   78.7180  220.9510 H   0  0  0  0  0  0  0  0  0  0  0  0
  139.7897   76.3743  220.2865 H   0  0  0  0  0  0  0  0  0  0  0  0
  139.9770   77.7089  218.5199 H   0  0  0  0  0  0  0  0  0  0  0  0
  141.2136   78.7251  219.4129 H   0  0  0  0  0  0  0  0  0  0  0  0
  143.9486   76.9881  218.1243 H   0  0  0  0  0  0  0  0  0  0  0  0
  143.3592   78.0697  219.4406 H   0  0  0  0  0  0  0  0  0  0  0  0
  143.4063   75.0712  219.2802 H   0  0  0  0  0  0  0  0  0  0  0  0
  143.8075   76.1598  220.6467 H   0  0  0  0  0  0  0  0  0  0  0  0
  139.3932   75.0956  221.2743 H   0  0  0  0  0  0  0  0  0  0  0  0
  139.6438   73.5983  220.2825 H   0  0  0  0  0  0  0  0  0  0  0  0
  139.5580   73.7690  223.2380 H   0  0  0  0  0  0  0  0  0  0  0  0
  139.1113   69.6020  222.4819 H   0  0  0  0  0  0  0  0  0  0  0  0
  138.8459   68.1506  224.5123 H   0  0  0  0  0  0  0  0  0  0  0  0
  139.2147   67.8911  226.8390 H   0  0  0  0  0  0  0  0  0  0  0  0
  141.1517   70.9366  229.1560 H   0  0  0  0  0  0  0  0  0  0  0  0
  141.3920   72.3384  227.1203 H   0  0  0  0  0  0  0  0  0  0  0  0
  1  2  1  0
  2  3  1  0
  2  4  1  0
  4  5  1  0
  5  6  2  0
  6  7  1  0
  7  8  2  0
  8  9  1  0
  8 10  1  0
 10 11  2  0
  2 12  1  0
 12 13  1  0
 13 14  2  0
 13 15  1  0
 15 16  1  0
 16 17  1  0
 17 18  1  0
 18 19  1  0
 19 20  1  0
 20 21  1  0
 21 22  2  0
 21 23  1  0
 23 24  1  0
 24 25  1  0
 25 26  2  0
 25 27  1  0
 27 28  2  0
 28 29  1  0
 29 30  2  0
 30 31  1  0
 31 32  2  0
 32 33  1  0
 32 34  1  0
 34 35  2  0
 35 36  1  0
 36 37  2  0
 11  5  1  0
 20 15  1  0
 37 27  1  0
 36 30  1  0
  1 38  1  0
  1 39  1  0
  1 40  1  0
  3 41  1  0
  3 42  1  0
  3 43  1  0
  4 44  1  0
  4 45  1  0
  6 46  1  0
  7 47  1  0
 10 48  1  0
 11 49  1  0
 12 50  1  0
 15 51  1  6
 16 52  1  0
 16 53  1  0
 18 54  1  0
 18 55  1  0
 19 56  1  0
 19 57  1  0
 23 58  1  0
 23 59  1  0
 24 60  1  0
 28 61  1  0
 29 62  1  0
 31 63  1  0
 34 64  1  0
 35 65  1  0
M  END
>  <smiles>  (35) 
CC(C)(Cc1ccc(F)cc1)NC(=O)C1COCCN1C(=O)CNC(=O)c1ccc2cc(F)ccc2n1

>  <score_type>  (35) 
oracle

>  <origin>  (35) 
autodockgpu

>  <m_score__min__energy>  (35) 
-9.2899999999999991

>  <m_primary>  (35) 
energy

>  <meeko>  (35) 
{"free_energy": -9.29, "intermolecular_energy": -11.68, "internal_energy": -2.18, "cluster_size": 5, "cluster_id": 1, "rank_in_cluster": 1}

>  <energy>  (35) 
-7.95

>  <cluster_rmsd>  (35) 
0.83

>  <rmsd>  (35) 
270.49

>  <cluster>  (35) 
4

$$$$

     RDKit          3D

 65 68  0  0  1  0  0  0  0  0999 V2000
  142.5970   80.1970  222.0970 C   0  0  0  0  0  0  0  0  0  0  0  0
  141.3500   79.5700  222.7910 C   0  0  0  0  0  0  0  0  0  0  0  0
  141.7820   79.3540  224.2170 C   0  0  0  0  0  0  0  0  0  0  0  0
  140.3340   80.6710  222.7460 C   0  0  0  0  0  0  0  0  0  0  0  0
  138.9750   80.3830  223.1470 C   0  0  0  0  0  0  0  0  0  0  0  0
  138.1440   79.4430  222.5530 C   0  0  0  0  0  0  0  0  0  0  0  0
  136.8650   79.1880  223.0160 C   0  0  0  0  0  0  0  0  0  0  0  0
  136.3710   79.8780  224.1030 C   0  0  0  0  0  0  0  0  0  0  0  0
  135.1100   79.6290  224.5600 F   0  0  0  0  0  0  0  0  0  0  0  0
  137.1830   80.8320  224.7230 C   0  0  0  0  0  0  0  0  0  0  0  0
  138.4570   81.0760  224.2520 C   0  0  0  0  0  0  0  0  0  0  0  0
  141.0620   78.3950  222.0560 N   0  0  0  0  0  0  0  0  0  0  0  0
  140.8560   78.3420  220.6340 C   0  0  0  0  0  0  0  0  0  0  0  0
  140.9040   79.3510  219.9210 O   0  0  0  0  0  0  0  0  0  0  0  0
  140.5700   77.0390  219.9430 C   0  0  1  0  0  0  0  0  0  0  0  0
  141.2880   76.9760  218.6250 C   0  0  0  0  0  0  0  0  0  0  0  0
  142.0440   75.8270  218.4420 O   0  0  0  0  0  0  0  0  0  0  0  0
  142.9380   75.6180  219.4900 C   0  0  0  0  0  0  0  0  0  0  0  0
  142.1980   75.2400  220.7380 C   0  0  0  0  0  0  0  0  0  0  0  0
  140.9020   75.8930  220.7350 N   0  0  0  0  0  0  0  0  0  0  0  0
  139.9040   75.3510  221.5830 C   0  0  0  0  0  0  0  0  0  0  0  0
  139.6000   75.8840  222.7030 O   0  0  0  0  0  0  0  0  0  0  0  0
  139.1340   74.1230  221.2350 C   0  0  0  0  0  0  0  0  0  0  0  0
  139.0980   73.1880  222.3300 N   0  0  0  0  0  0  0  0  0  0  0  0
  140.2180   72.3880  222.6870 C   0  0  0  0  0  0  0  0  0  0  0  0
  141.2890   72.5160  222.0020 O   0  0  0  0  0  0  0  0  0  0  0  0
  140.1490   71.4470  223.8040 C   0  0  0  0  0  0  0  0  0  0  0  0
  139.5660   70.2140  223.5890 C   0  0  0  0  0  0  0  0  0  0  0  0
  139.4670   69.2710  224.6040 C   0  0  0  0  0  0  0  0  0  0  0  0
  139.9840   69.6420  225.8300 C   0  0  0  0  0  0  0  0  0  0  0  0
  139.9160   68.7480  226.8780 C   0  0  0  0  0  0  0  0  0  0  0  0
  140.4110   69.0450  228.1310 C   0  0  0  0  0  0  0  0  0  0  0  0
  140.3260   68.1380  229.1410 F   0  0  0  0  0  0  0  0  0  0  0  0
  140.9960   70.3000  228.3230 C   0  0  0  0  0  0  0  0  0  0  0  0
  141.0790   71.2170  227.2880 C   0  0  0  0  0  0  0  0  0  0  0  0
  140.5710   70.8780  226.0510 C   0  0  0  0  0  0  0  0  0  0  0  0
  140.6390   71.7610  225.0170 N   0  0  0  0  0  0  0  0  0  0  0  0
  143.3029   80.5519  222.8624 H   0  0  0  0  0  0  0  0  0  0  0  0
  143.0875   79.4384  221.4694 H   0  0  0  0  0  0  0  0  0  0  0  0
  142.2806   81.0432  221.4694 H   0  0  0  0  0  0  0  0  0  0  0  0
  141.0086   79.7407  224.8970 H   0  0  0  0  0  0  0  0  0  0  0  0
  141.9248   78.2784  224.3979 H   0  0  0  0  0  0  0  0  0  0  0  0
  142.7282   79.8851  224.3979 H   0  0  0  0  0  0  0  0  0  0  0  0
  140.7003   81.4756  223.4005 H   0  0  0  0  0  0  0  0  0  0  0  0
  140.2498   80.9109  221.6758 H   0  0  0  0  0  0  0  0  0  0  0  0
  138.5153   78.8809  221.6834 H   0  0  0  0  0  0  0  0  0  0  0  0
  136.2408   78.4330  222.5157 H   0  0  0  0  0  0  0  0  0  0  0  0
  136.8044   81.3914  225.5912 H   0  0  0  0  0  0  0  0  0  0  0  0
  139.0805   81.8306  224.7539 H   0  0  0  0  0  0  0  0  0  0  0  0
  140.9740   77.4350  222.5220 H   0  0  0  0  0  0  0  0  0  0  0  0
  139.4827   77.0087  219.7792 H   0  0  0  0  0  0  0  0  0  0  0  0
  140.5385   77.0271  217.8214 H   0  0  0  0  0  0  0  0  0  0  0  0
  141.9908   77.8221  218.6079 H   0  0  0  0  0  0  0  0  0  0  0  0
  143.6310   74.8077  219.2196 H   0  0  0  0  0  0  0  0  0  0  0  0
  143.4976   76.5471  219.6735 H   0  0  0  0  0  0  0  0  0  0  0  0
  142.0612   74.1490  220.7695 H   0  0  0  0  0  0  0  0  0  0  0  0
  142.7720   75.5575  221.6210 H   0  0  0  0  0  0  0  0  0  0  0  0
  138.1038   74.4095  220.9770 H   0  0  0  0  0  0  0  0  0  0  0  0
  139.6326   73.6354  220.3843 H   0  0  0  0  0  0  0  0  0  0  0  0
  138.2360   73.0550  222.9160 H   0  0  0  0  0  0  0  0  0  0  0  0
  139.1709   69.9730  222.5911 H   0  0  0  0  0  0  0  0  0  0  0  0
  139.0041   68.2866  224.4411 H   0  0  0  0  0  0  0  0  0  0  0  0
  139.4515   67.7653  226.7091 H   0  0  0  0  0  0  0  0  0  0  0  0
  141.3972   70.5639  229.3126 H   0  0  0  0  0  0  0  0  0  0  0  0
  141.5431   72.2010  227.4501 H   0  0  0  0  0  0  0  0  0  0  0  0
  1  2  1  0
  2  3  1  0
  2  4  1  0
  4  5  1  0
  5  6  2  0
  6  7  1  0
  7  8  2  0
  8  9  1  0
  8 10  1  0
 10 11  2  0
  2 12  1  0
 12 13  1  0
 13 14  2  0
 13 15  1  0
 15 16  1  0
 16 17  1  0
 17 18  1  0
 18 19  1  0
 19 20  1  0
 20 21  1  0
 21 22  2  0
 21 23  1  0
 23 24  1  0
 24 25  1  0
 25 26  2  0
 25 27  1  0
 27 28  2  0
 28 29  1  0
 29 30  2  0
 30 31  1  0
 31 32  2  0
 32 33  1  0
 32 34  1  0
 34 35  2  0
 35 36  1  0
 36 37  2  0
 11  5  1  0
 20 15  1  0
 37 27  1  0
 36 30  1  0
  1 38  1  0
  1 39  1  0
  1 40  1  0
  3 41  1  0
  3 42  1  0
  3 43  1  0
  4 44  1  0
  4 45  1  0
  6 46  1  0
  7 47  1  0
 10 48  1  0
 11 49  1  0
 12 50  1  0
 15 51  1  6
 16 52  1  0
 16 53  1  0
 18 54  1  0
 18 55  1  0
 19 56  1  0
 19 57  1  0
 23 58  1  0
 23 59  1  0
 24 60  1  0
 28 61  1  0
 29 62  1  0
 31 63  1  0
 34 64  1  0
 35 65  1  0
M  END
>  <smiles>  (36) 
CC(C)(Cc1ccc(F)cc1)NC(=O)C1COCCN1C(=O)CNC(=O)c1ccc2cc(F)ccc2n1

>  <score_type>  (36) 
oracle

>  <origin>  (36) 
autodockgpu

>  <m_score__min__energy>  (36) 
-9.2899999999999991

>  <m_primary>  (36) 
energy

>  <meeko>  (36) 
{"free_energy": -8.79, "intermolecular_energy": -11.17, "internal_energy": -2.88, "cluster_size": 5, "cluster_id": 1, "rank_in_cluster": 2}

>  <energy>  (36) 
-7.95

>  <cluster_rmsd>  (36) 
1.05

>  <rmsd>  (36) 
270.48

>  <cluster>  (36) 
4

$$$$

     RDKit          3D

 65 68  0  0  1  0  0  0  0  0999 V2000
  141.8110   78.9630  224.1980 C   0  0  0  0  0  0  0  0  0  0  0  0
  141.0050   79.6460  223.0520 C   0  0  0  0  0  0  0  0  0  0  0  0
  139.9380   80.4360  223.7620 C   0  0  0  0  0  0  0  0  0  0  0  0
  141.9950   80.5920  222.4440 C   0  0  0  0  0  0  0  0  0  0  0  0
  141.8470   80.9580  221.0530 C   0  0  0  0  0  0  0  0  0  0  0  0
  142.1700   80.1500  219.9710 C   0  0  0  0  0  0  0  0  0  0  0  0
  141.9630   80.5490  218.6620 C   0  0  0  0  0  0  0  0  0  0  0  0
  141.4190   81.7860  218.3920 C   0  0  0  0  0  0  0  0  0  0  0  0
  141.2150   82.1820  217.1030 F   0  0  0  0  0  0  0  0  0  0  0  0
  141.0840   82.6240  219.4600 C   0  0  0  0  0  0  0  0  0  0  0  0
  141.2950   82.2150  220.7600 C   0  0  0  0  0  0  0  0  0  0  0  0
  140.5400   78.5860  222.2370 N   0  0  0  0  0  0  0  0  0  0  0  0
  139.5200   78.7080  221.2300 C   0  0  0  0  0  0  0  0  0  0  0  0
  138.9420   79.7770  221.0000 O   0  0  0  0  0  0  0  0  0  0  0  0
  139.1050   77.5240  220.4030 C   0  0  1  0  0  0  0  0  0  0  0  0
  138.8950   77.9310  218.9730 C   0  0  0  0  0  0  0  0  0  0  0  0
  139.5760   77.1470  218.0520 O   0  0  0  0  0  0  0  0  0  0  0  0
  140.9370   77.0680  218.3380 C   0  0  0  0  0  0  0  0  0  0  0  0
  141.1620   76.2560  219.5790 C   0  0  0  0  0  0  0  0  0  0  0  0
  140.0320   76.4340  220.4710 N   0  0  0  0  0  0  0  0  0  0  0  0
  139.8440   75.4550  221.4780 C   0  0  0  0  0  0  0  0  0  0  0  0
  139.9040   75.7380  222.7220 O   0  0  0  0  0  0  0  0  0  0  0  0
  139.5620   74.0240  221.1650 C   0  0  0  0  0  0  0  0  0  0  0  0
  139.6060   73.2020  222.3470 N   0  0  0  0  0  0  0  0  0  0  0  0
  139.6970   71.7840  222.2880 C   0  0  0  0  0  0  0  0  0  0  0  0
  139.7430   71.2340  221.1360 O   0  0  0  0  0  0  0  0  0  0  0  0
  139.7380   70.9780  223.5070 C   0  0  0  0  0  0  0  0  0  0  0  0
  139.2280   69.6950  223.4640 C   0  0  0  0  0  0  0  0  0  0  0  0
  139.2350   68.8730  224.5840 C   0  0  0  0  0  0  0  0  0  0  0  0
  139.7790   69.4150  225.7310 C   0  0  0  0  0  0  0  0  0  0  0  0
  139.8150   68.6470  226.8770 C   0  0  0  0  0  0  0  0  0  0  0  0
  140.3430   69.1190  228.0610 C   0  0  0  0  0  0  0  0  0  0  0  0
  140.3610   68.3320  229.1710 F   0  0  0  0  0  0  0  0  0  0  0  0
  140.8530   70.4200  228.0790 C   0  0  0  0  0  0  0  0  0  0  0  0
  140.8310   71.2120  226.9440 C   0  0  0  0  0  0  0  0  0  0  0  0
  140.2940   70.7020  225.7800 C   0  0  0  0  0  0  0  0  0  0  0  0
  140.2590   71.4600  224.6500 N   0  0  0  0  0  0  0  0  0  0  0  0
  141.4189   79.2953  225.1705 H   0  0  0  0  0  0  0  0  0  0  0  0
  141.7108   77.8706  224.1161 H   0  0  0  0  0  0  0  0  0  0  0  0
  142.8721   79.2411  224.1161 H   0  0  0  0  0  0  0  0  0  0  0  0
  140.0712   80.3374  224.8494 H   0  0  0  0  0  0  0  0  0  0  0  0
  140.0160   81.4957  223.4776 H   0  0  0  0  0  0  0  0  0  0  0  0
  138.9472   80.0521  223.4776 H   0  0  0  0  0  0  0  0  0  0  0  0
  141.9539   81.5226  223.0290 H   0  0  0  0  0  0  0  0  0  0  0  0
  142.9444   80.0373  222.4729 H   0  0  0  0  0  0  0  0  0  0  0  0
  142.6057   79.1580  220.1608 H   0  0  0  0  0  0  0  0  0  0  0  0
  142.2336   79.8766  217.8346 H   0  0  0  0  0  0  0  0  0  0  0  0
  140.6497   83.6151  219.2622 H   0  0  0  0  0  0  0  0  0  0  0  0
  141.0246   82.8891  221.5861 H   0  0  0  0  0  0  0  0  0  0  0  0
  140.9260   77.5910  222.3140 H   0  0  0  0  0  0  0  0  0  0  0  0
  138.1581   77.1637  220.8315 H   0  0  0  0  0  0  0  0  0  0  0  0
  137.8195   77.8682  218.7509 H   0  0  0  0  0  0  0  0  0  0  0  0
  139.2921   78.9520  218.8736 H   0  0  0  0  0  0  0  0  0  0  0  0
  141.4582   76.5927  217.4939 H   0  0  0  0  0  0  0  0  0  0  0  0
  141.3283   78.0834  218.4990 H   0  0  0  0  0  0  0  0  0  0  0  0
  141.2573   75.1931  219.3121 H   0  0  0  0  0  0  0  0  0  0  0  0
  142.0849   76.5871  220.0776 H   0  0  0  0  0  0  0  0  0  0  0  0
  138.5612   73.9480  220.7148 H   0  0  0  0  0  0  0  0  0  0  0  0
  140.3351   73.6661  220.4692 H   0  0  0  0  0  0  0  0  0  0  0  0
  139.5710   73.6170  223.3130 H   0  0  0  0  0  0  0  0  0  0  0  0
  138.8067   69.3155  222.5214 H   0  0  0  0  0  0  0  0  0  0  0  0
  138.8308   67.8503  224.5582 H   0  0  0  0  0  0  0  0  0  0  0  0
  139.4094   67.6250  226.8454 H   0  0  0  0  0  0  0  0  0  0  0  0
  141.2789   70.8212  229.0104 H   0  0  0  0  0  0  0  0  0  0  0  0
  141.2362   72.2343  226.9698 H   0  0  0  0  0  0  0  0  0  0  0  0
  1  2  1  0
  2  3  1  0
  2  4  1  0
  4  5  1  0
  5  6  2  0
  6  7  1  0
  7  8  2  0
  8  9  1  0
  8 10  1  0
 10 11  2  0
  2 12  1  0
 12 13  1  0
 13 14  2  0
 13 15  1  0
 15 16  1  0
 16 17  1  0
 17 18  1  0
 18 19  1  0
 19 20  1  0
 20 21  1  0
 21 22  2  0
 21 23  1  0
 23 24  1  0
 24 25  1  0
 25 26  2  0
 25 27  1  0
 27 28  2  0
 28 29  1  0
 29 30  2  0
 30 31  1  0
 31 32  2  0
 32 33  1  0
 32 34  1  0
 34 35  2  0
 35 36  1  0
 36 37  2  0
 11  5  1  0
 20 15  1  0
 37 27  1  0
 36 30  1  0
  1 38  1  0
  1 39  1  0
  1 40  1  0
  3 41  1  0
  3 42  1  0
  3 43  1  0
  4 44  1  0
  4 45  1  0
  6 46  1  0
  7 47  1  0
 10 48  1  0
 11 49  1  0
 12 50  1  0
 15 51  1  1
 16 52  1  0
 16 53  1  0
 18 54  1  0
 18 55  1  0
 19 56  1  0
 19 57  1  0
 23 58  1  0
 23 59  1  0
 24 60  1  0
 28 61  1  0
 29 62  1  0
 31 63  1  0
 34 64  1  0
 35 65  1  0
M  END
>  <smiles>  (37) 
CC(C)(Cc1ccc(F)cc1)NC(=O)C1COCCN1C(=O)CNC(=O)c1ccc2cc(F)ccc2n1

>  <score_type>  (37) 
oracle

>  <origin>  (37) 
autodockgpu

>  <m_score__min__energy>  (37) 
-9.2899999999999991

>  <m_primary>  (37) 
energy

>  <meeko>  (37) 
{"free_energy": -8.04, "intermolecular_energy": -10.43, "internal_energy": -3.77, "cluster_size": 7, "cluster_id": 4, "rank_in_cluster": 3}

>  <energy>  (37) 
-7.81

>  <cluster_rmsd>  (37) 
0.96

>  <rmsd>  (37) 
270.44

>  <cluster>  (37) 
4

$$$$

     RDKit          3D

 65 68  0  0  1  0  0  0  0  0999 V2000
  142.7810   80.4110  222.1830 C   0  0  0  0  0  0  0  0  0  0  0  0
  141.5390   79.7020  222.8020 C   0  0  0  0  0  0  0  0  0  0  0  0
  141.9490   79.3920  224.2170 C   0  0  0  0  0  0  0  0  0  0  0  0
  140.4940   80.7750  222.8160 C   0  0  0  0  0  0  0  0  0  0  0  0
  139.1480   80.4330  223.2200 C   0  0  0  0  0  0  0  0  0  0  0  0
  138.4810   80.9580  224.3190 C   0  0  0  0  0  0  0  0  0  0  0  0
  137.1750   80.6170  224.6250 C   0  0  0  0  0  0  0  0  0  0  0  0
  136.4870   79.7270  223.8280 C   0  0  0  0  0  0  0  0  0  0  0  0
  135.2000   79.3880  224.1280 F   0  0  0  0  0  0  0  0  0  0  0  0
  137.1310   79.1800  222.7140 C   0  0  0  0  0  0  0  0  0  0  0  0
  138.4330   79.5280  222.4200 C   0  0  0  0  0  0  0  0  0  0  0  0
  141.2980   78.5770  221.9770 N   0  0  0  0  0  0  0  0  0  0  0  0
  141.0400   78.6330  220.5630 C   0  0  0  0  0  0  0  0  0  0  0  0
  140.9940   79.7000  219.9410 O   0  0  0  0  0  0  0  0  0  0  0  0
  140.8110   77.3770  219.7690 C   0  0  1  0  0  0  0  0  0  0  0  0
  141.3100   77.5480  218.3630 C   0  0  0  0  0  0  0  0  0  0  0  0
  142.1650   76.5410  217.9360 O   0  0  0  0  0  0  0  0  0  0  0  0
  143.2340   76.3570  218.8100 C   0  0  0  0  0  0  0  0  0  0  0  0
  142.7560   75.7560  220.0980 C   0  0  0  0  0  0  0  0  0  0  0  0
  141.4060   76.2170  220.3620 N   0  0  0  0  0  0  0  0  0  0  0  0
  140.6320   75.4580  221.2750 C   0  0  0  0  0  0  0  0  0  0  0  0
  140.2630   75.9240  222.4060 O   0  0  0  0  0  0  0  0  0  0  0  0
  140.1890   74.0630  220.9880 C   0  0  0  0  0  0  0  0  0  0  0  0
  140.0370   73.2940  222.1960 N   0  0  0  0  0  0  0  0  0  0  0  0
  140.3960   71.9200  222.2760 C   0  0  0  0  0  0  0  0  0  0  0  0
  140.8720   71.3630  221.2290 O   0  0  0  0  0  0  0  0  0  0  0  0
  140.2280   71.1660  223.5180 C   0  0  0  0  0  0  0  0  0  0  0  0
  139.5850   69.9450  223.4620 C   0  0  0  0  0  0  0  0  0  0  0  0
  139.3910   69.1750  224.6030 C   0  0  0  0  0  0  0  0  0  0  0  0
  139.8780   69.7030  225.7820 C   0  0  0  0  0  0  0  0  0  0  0  0
  139.7160   68.9850  226.9480 C   0  0  0  0  0  0  0  0  0  0  0  0
  140.1750   69.4460  228.1650 C   0  0  0  0  0  0  0  0  0  0  0  0
  139.9970   68.7090  229.2950 F   0  0  0  0  0  0  0  0  0  0  0  0
  140.8230   70.6840  228.1940 C   0  0  0  0  0  0  0  0  0  0  0  0
  141.0000   71.4260  227.0380 C   0  0  0  0  0  0  0  0  0  0  0  0
  140.5250   70.9280  225.8430 C   0  0  0  0  0  0  0  0  0  0  0  0
  140.6860   71.6370  224.6920 N   0  0  0  0  0  0  0  0  0  0  0  0
  143.4310   80.7821  222.9891 H   0  0  0  0  0  0  0  0  0  0  0  0
  143.3396   79.6957  221.5615 H   0  0  0  0  0  0  0  0  0  0  0  0
  142.4491   81.2557  221.5615 H   0  0  0  0  0  0  0  0  0  0  0  0
  141.2713   79.9044  224.9157 H   0  0  0  0  0  0  0  0  0  0  0  0
  141.8959   78.3061  224.3846 H   0  0  0  0  0  0  0  0  0  0  0  0
  142.9793   79.7390  224.3846 H   0  0  0  0  0  0  0  0  0  0  0  0
  140.8469   81.5607  223.5002 H   0  0  0  0  0  0  0  0  0  0  0  0
  140.3898   81.0579  221.7581 H   0  0  0  0  0  0  0  0  0  0  0  0
  139.0095   81.6703  224.9696 H   0  0  0  0  0  0  0  0  0  0  0  0
  136.6849   81.0570  225.5060 H   0  0  0  0  0  0  0  0  0  0  0  0
  136.5962   78.4680  222.0682 H   0  0  0  0  0  0  0  0  0  0  0  0
  138.9218   79.0865  221.5390 H   0  0  0  0  0  0  0  0  0  0  0  0
  141.2910   77.5770  222.3580 H   0  0  0  0  0  0  0  0  0  0  0  0
  139.7240   77.2087  219.7619 H   0  0  0  0  0  0  0  0  0  0  0  0
  140.4410   77.5715  217.6890 H   0  0  0  0  0  0  0  0  0  0  0  0
  141.8890   78.4831  218.3447 H   0  0  0  0  0  0  0  0  0  0  0  0
  143.9699   75.6835  218.3464 H   0  0  0  0  0  0  0  0  0  0  0  0
  143.6961   77.3328  219.0204 H   0  0  0  0  0  0  0  0  0  0  0  0
  142.7620   74.6589  220.0177 H   0  0  0  0  0  0  0  0  0  0  0  0
  143.4204   76.0614  220.9198 H   0  0  0  0  0  0  0  0  0  0  0  0
  139.2231   74.0965  220.4627 H   0  0  0  0  0  0  0  0  0  0  0  0
  140.9581   73.5794  220.3678 H   0  0  0  0  0  0  0  0  0  0  0  0
  139.6490   73.7170  223.0770 H   0  0  0  0  0  0  0  0  0  0  0  0
  139.2185   69.5738  222.4936 H   0  0  0  0  0  0  0  0  0  0  0  0
  138.8794   68.2019  224.5685 H   0  0  0  0  0  0  0  0  0  0  0  0
  139.2038   68.0124  226.9067 H   0  0  0  0  0  0  0  0  0  0  0  0
  141.1987   71.0756  229.1509 H   0  0  0  0  0  0  0  0  0  0  0  0
  141.5123   72.3988  227.0726 H   0  0  0  0  0  0  0  0  0  0  0  0
  1  2  1  0
  2  3  1  0
  2  4  1  0
  4  5  1  0
  5  6  2  0
  6  7  1  0
  7  8  2  0
  8  9  1  0
  8 10  1  0
 10 11  2  0
  2 12  1  0
 12 13  1  0
 13 14  2  0
 13 15  1  0
 15 16  1  0
 16 17  1  0
 17 18  1  0
 18 19  1  0
 19 20  1  0
 20 21  1  0
 21 22  2  0
 21 23  1  0
 23 24  1  0
 24 25  1  0
 25 26  2  0
 25 27  1  0
 27 28  2  0
 28 29  1  0
 29 30  2  0
 30 31  1  0
 31 32  2  0
 32 33  1  0
 32 34  1  0
 34 35  2  0
 35 36  1  0
 36 37  2  0
 11  5  1  0
 20 15  1  0
 37 27  1  0
 36 30  1  0
  1 38  1  0
  1 39  1  0
  1 40  1  0
  3 41  1  0
  3 42  1  0
  3 43  1  0
  4 44  1  0
  4 45  1  0
  6 46  1  0
  7 47  1  0
 10 48  1  0
 11 49  1  0
 12 50  1  0
 15 51  1  6
 16 52  1  0
 16 53  1  0
 18 54  1  0
 18 55  1  0
 19 56  1  0
 19 57  1  0
 23 58  1  0
 23 59  1  0
 24 60  1  0
 28 61  1  0
 29 62  1  0
 31 63  1  0
 34 64  1  0
 35 65  1  0
M  END
>  <smiles>  (38) 
CC(C)(Cc1ccc(F)cc1)NC(=O)C1COCCN1C(=O)CNC(=O)c1ccc2cc(F)ccc2n1

>  <score_type>  (38) 
oracle

>  <origin>  (38) 
autodockgpu

>  <m_score__min__energy>  (38) 
-9.2899999999999991

>  <m_primary>  (38) 
energy

>  <meeko>  (38) 
{"free_energy": -8.77, "intermolecular_energy": -11.15, "internal_energy": -3.12, "cluster_size": 5, "cluster_id": 1, "rank_in_cluster": 3}

>  <energy>  (38) 
-7.64

>  <cluster_rmsd>  (38) 
1.13

>  <rmsd>  (38) 
270.37

>  <cluster>  (38) 
4

$$$$

     RDKit          3D

 65 68  0  0  1  0  0  0  0  0999 V2000
  138.7290   76.0750  221.6860 C   0  0  0  0  0  0  0  0  0  0  0  0
  140.1320   76.6260  221.2910 C   0  0  0  0  0  0  0  0  0  0  0  0
  139.8380   77.8690  220.4950 C   0  0  0  0  0  0  0  0  0  0  0  0
  140.7380   77.0140  222.6040 C   0  0  0  0  0  0  0  0  0  0  0  0
  141.0460   78.4060  222.8470 C   0  0  0  0  0  0  0  0  0  0  0  0
  140.2130   79.3140  223.4860 C   0  0  0  0  0  0  0  0  0  0  0  0
  140.5890   80.6240  223.7220 C   0  0  0  0  0  0  0  0  0  0  0  0
  141.8280   81.0740  223.3190 C   0  0  0  0  0  0  0  0  0  0  0  0
  142.2010   82.3650  223.5500 F   0  0  0  0  0  0  0  0  0  0  0  0
  142.6910   80.1840  222.6720 C   0  0  0  0  0  0  0  0  0  0  0  0
  142.3050   78.8800  222.4430 C   0  0  0  0  0  0  0  0  0  0  0  0
  140.7590   75.5770  220.5740 N   0  0  0  0  0  0  0  0  0  0  0  0
  141.9860   75.7030  219.8360 C   0  0  0  0  0  0  0  0  0  0  0  0
  142.6020   76.7720  219.7540 O   0  0  0  0  0  0  0  0  0  0  0  0
  142.5810   74.5240  219.1190 C   0  0  1  0  0  0  0  0  0  0  0  0
  144.0800   74.5990  219.1410 C   0  0  0  0  0  0  0  0  0  0  0  0
  144.7020   73.4440  219.5940 O   0  0  0  0  0  0  0  0  0  0  0  0
  144.2190   73.0440  220.8390 C   0  0  0  0  0  0  0  0  0  0  0  0
  142.8110   72.5440  220.7140 C   0  0  0  0  0  0  0  0  0  0  0  0
  142.1460   73.2640  219.6450 N   0  0  0  0  0  0  0  0  0  0  0  0
  140.9850   72.6710  219.0920 C   0  0  0  0  0  0  0  0  0  0  0  0
  140.9920   72.0940  217.9520 O   0  0  0  0  0  0  0  0  0  0  0  0
  139.6680   72.6730  219.7930 C   0  0  0  0  0  0  0  0  0  0  0  0
  139.6920   71.8480  220.9730 N   0  0  0  0  0  0  0  0  0  0  0  0
  139.9620   72.3720  222.2660 C   0  0  0  0  0  0  0  0  0  0  0  0
  140.1890   73.6260  222.3690 O   0  0  0  0  0  0  0  0  0  0  0  0
  139.9810   71.5070  223.4440 C   0  0  0  0  0  0  0  0  0  0  0  0
  139.4430   70.2400  223.3370 C   0  0  0  0  0  0  0  0  0  0  0  0
  139.4270   69.3640  224.4160 C   0  0  0  0  0  0  0  0  0  0  0  0
  139.9780   69.8380  225.5900 C   0  0  0  0  0  0  0  0  0  0  0  0
  139.9920   69.0140  226.6970 C   0  0  0  0  0  0  0  0  0  0  0  0
  140.5260   69.4160  227.9050 C   0  0  0  0  0  0  0  0  0  0  0  0
  140.5210   68.5760  228.9750 F   0  0  0  0  0  0  0  0  0  0  0  0
  141.0640   70.7030  227.9870 C   0  0  0  0  0  0  0  0  0  0  0  0
  141.0640   71.5500  226.8910 C   0  0  0  0  0  0  0  0  0  0  0  0
  140.5200   71.1090  225.7030 C   0  0  0  0  0  0  0  0  0  0  0  0
  140.5070   71.9210  224.6110 N   0  0  0  0  0  0  0  0  0  0  0  0
  138.6436   76.0414  222.7822 H   0  0  0  0  0  0  0  0  0  0  0  0
  137.9482   76.7333  221.2773 H   0  0  0  0  0  0  0  0  0  0  0  0
  138.6048   75.0613  221.2773 H   0  0  0  0  0  0  0  0  0  0  0  0
  139.6401   78.7056  221.1812 H   0  0  0  0  0  0  0  0  0  0  0  0
  140.7035   78.1117  219.8610 H   0  0  0  0  0  0  0  0  0  0  0  0
  138.9555   77.6982  219.8610 H   0  0  0  0  0  0  0  0  0  0  0  0
  140.0367   76.6965  223.3897 H   0  0  0  0  0  0  0  0  0  0  0  0
  141.7218   76.5220  222.5976 H   0  0  0  0  0  0  0  0  0  0  0  0
  139.2184   78.9799  223.8165 H   0  0  0  0  0  0  0  0  0  0  0  0
  139.8968   81.3092  224.2332 H   0  0  0  0  0  0  0  0  0  0  0  0
  143.6836   80.5260  222.3438 H   0  0  0  0  0  0  0  0  0  0  0  0
  142.9986   78.1957  221.9325 H   0  0  0  0  0  0  0  0  0  0  0  0
  140.3510   74.5890  220.5320 H   0  0  0  0  0  0  0  0  0  0  0  0
  142.2196   74.5780  218.0815 H   0  0  0  0  0  0  0  0  0  0  0  0
  144.4301   74.8005  218.1179 H   0  0  0  0  0  0  0  0  0  0  0  0
  144.3456   75.3985  219.8483 H   0  0  0  0  0  0  0  0  0  0  0  0
  144.8563   72.2392  221.2341 H   0  0  0  0  0  0  0  0  0  0  0  0
  144.2336   73.9057  221.5225 H   0  0  0  0  0  0  0  0  0  0  0  0
  142.8209   71.4685  220.4834 H   0  0  0  0  0  0  0  0  0  0  0  0
  142.2743   72.7060  221.6604 H   0  0  0  0  0  0  0  0  0  0  0  0
  139.4206   73.7045  220.0841 H   0  0  0  0  0  0  0  0  0  0  0  0
  138.9125   72.2658  219.1050 H   0  0  0  0  0  0  0  0  0  0  0  0
  139.5100   70.8130  220.9280 H   0  0  0  0  0  0  0  0  0  0  0  0
  139.0172   69.9164  222.3758 H   0  0  0  0  0  0  0  0  0  0  0  0
  139.0006   68.3529  224.3392 H   0  0  0  0  0  0  0  0  0  0  0  0
  139.5638   68.0042  226.6142 H   0  0  0  0  0  0  0  0  0  0  0  0
  141.4948   71.0494  228.9380 H   0  0  0  0  0  0  0  0  0  0  0  0
  141.4920   72.5605  226.9672 H   0  0  0  0  0  0  0  0  0  0  0  0
  1  2  1  0
  2  3  1  0
  2  4  1  0
  4  5  1  0
  5  6  2  0
  6  7  1  0
  7  8  2  0
  8  9  1  0
  8 10  1  0
 10 11  2  0
  2 12  1  0
 12 13  1  0
 13 14  2  0
 13 15  1  0
 15 16  1  0
 16 17  1  0
 17 18  1  0
 18 19  1  0
 19 20  1  0
 20 21  1  0
 21 22  2  0
 21 23  1  0
 23 24  1  0
 24 25  1  0
 25 26  2  0
 25 27  1  0
 27 28  2  0
 28 29  1  0
 29 30  2  0
 30 31  1  0
 31 32  2  0
 32 33  1  0
 32 34  1  0
 34 35  2  0
 35 36  1  0
 36 37  2  0
 11  5  1  0
 20 15  1  0
 37 27  1  0
 36 30  1  0
  1 38  1  0
  1 39  1  0
  1 40  1  0
  3 41  1  0
  3 42  1  0
  3 43  1  0
  4 44  1  0
  4 45  1  0
  6 46  1  0
  7 47  1  0
 10 48  1  0
 11 49  1  0
 12 50  1  0
 15 51  1  6
 16 52  1  0
 16 53  1  0
 18 54  1  0
 18 55  1  0
 19 56  1  0
 19 57  1  0
 23 58  1  0
 23 59  1  0
 24 60  1  0
 28 61  1  0
 29 62  1  0
 31 63  1  0
 34 64  1  0
 35 65  1  0
M  END
>  <smiles>  (39) 
CC(C)(Cc1ccc(F)cc1)NC(=O)C1COCCN1C(=O)CNC(=O)c1ccc2cc(F)ccc2n1

>  <score_type>  (39) 
oracle

>  <origin>  (39) 
autodockgpu

>  <m_score__min__energy>  (39) 
-9.2899999999999991

>  <m_primary>  (39) 
energy

>  <meeko>  (39) 
{"free_energy": -8.69, "intermolecular_energy": -11.08, "internal_energy": -2.98, "cluster_size": 2, "cluster_id": 3, "rank_in_cluster": 1}

>  <energy>  (39) 
-7.82

>  <cluster_rmsd>  (39) 
0.0

>  <rmsd>  (39) 
270.01

>  <cluster>  (39) 
5

$$$$

     RDKit          3D

 65 68  0  0  1  0  0  0  0  0999 V2000
  143.3270   77.1390  218.9520 C   0  0  0  0  0  0  0  0  0  0  0  0
  142.3790   75.9360  219.2420 C   0  0  0  0  0  0  0  0  0  0  0  0
  141.3590   75.9850  218.1360 C   0  0  0  0  0  0  0  0  0  0  0  0
  143.2600   74.7410  219.0470 C   0  0  0  0  0  0  0  0  0  0  0  0
  142.7360   73.4300  219.3600 C   0  0  0  0  0  0  0  0  0  0  0  0
  141.7500   72.7660  218.6430 C   0  0  0  0  0  0  0  0  0  0  0  0
  141.3240   71.4920  218.9750 C   0  0  0  0  0  0  0  0  0  0  0  0
  141.8800   70.8330  220.0510 C   0  0  0  0  0  0  0  0  0  0  0  0
  141.4610   69.5780  220.3800 F   0  0  0  0  0  0  0  0  0  0  0  0
  142.8760   71.4750  220.7940 C   0  0  0  0  0  0  0  0  0  0  0  0
  143.2920   72.7450  220.4530 C   0  0  0  0  0  0  0  0  0  0  0  0
  141.8750   76.1620  220.5470 N   0  0  0  0  0  0  0  0  0  0  0  0
  141.1530   77.3350  220.9590 C   0  0  0  0  0  0  0  0  0  0  0  0
  140.9190   78.2730  220.1890 O   0  0  0  0  0  0  0  0  0  0  0  0
  140.6450   77.4740  222.3670 C   0  0  1  0  0  0  0  0  0  0  0  0
  141.3800   78.5700  223.0840 C   0  0  0  0  0  0  0  0  0  0  0  0
  140.5550   79.5040  223.6940 O   0  0  0  0  0  0  0  0  0  0  0  0
  139.6290   80.0430  222.8040 C   0  0  0  0  0  0  0  0  0  0  0  0
  138.6090   79.0120  222.4250 C   0  0  0  0  0  0  0  0  0  0  0  0
  139.2330   77.7020  222.4390 N   0  0  0  0  0  0  0  0  0  0  0  0
  138.3750   76.5790  222.5280 C   0  0  0  0  0  0  0  0  0  0  0  0
  137.4800   76.4760  223.4330 O   0  0  0  0  0  0  0  0  0  0  0  0
  138.4480   75.4330  221.5750 C   0  0  0  0  0  0  0  0  0  0  0  0
  138.4650   74.1680  222.2640 N   0  0  0  0  0  0  0  0  0  0  0  0
  139.6330   73.3620  222.3510 C   0  0  0  0  0  0  0  0  0  0  0  0
  140.7000   73.7910  221.7930 O   0  0  0  0  0  0  0  0  0  0  0  0
  139.6160   72.0810  223.0560 C   0  0  0  0  0  0  0  0  0  0  0  0
  138.8860   71.0420  222.5130 C   0  0  0  0  0  0  0  0  0  0  0  0
  138.8270   69.7980  223.1300 C   0  0  0  0  0  0  0  0  0  0  0  0
  139.5370   69.6690  224.3070 C   0  0  0  0  0  0  0  0  0  0  0  0
  139.5170   68.4570  224.9650 C   0  0  0  0  0  0  0  0  0  0  0  0
  140.2020   68.2500  226.1450 C   0  0  0  0  0  0  0  0  0  0  0  0
  140.1580   67.0400  226.7670 F   0  0  0  0  0  0  0  0  0  0  0  0
  140.9330   69.3180  226.6730 C   0  0  0  0  0  0  0  0  0  0  0  0
  140.9710   70.5450  226.0330 C   0  0  0  0  0  0  0  0  0  0  0  0
  140.2720   70.7080  224.8550 C   0  0  0  0  0  0  0  0  0  0  0  0
  140.2930   71.9050  224.2050 N   0  0  0  0  0  0  0  0  0  0  0  0
  143.6694   77.5735  219.9028 H   0  0  0  0  0  0  0  0  0  0  0  0
  144.1957   76.7903  218.3743 H   0  0  0  0  0  0  0  0  0  0  0  0
  142.7848   77.9021  218.3743 H   0  0  0  0  0  0  0  0  0  0  0  0
  140.3495   76.0335  218.5701 H   0  0  0  0  0  0  0  0  0  0  0  0
  141.5342   76.8758  217.5148 H   0  0  0  0  0  0  0  0  0  0  0  0
  141.4480   75.0815  217.5148 H   0  0  0  0  0  0  0  0  0  0  0  0
  143.5551   74.7265  217.9874 H   0  0  0  0  0  0  0  0  0  0  0  0
  144.0691   74.8852  219.7781 H   0  0  0  0  0  0  0  0  0  0  0  0
  141.2909   73.2707  217.7801 H   0  0  0  0  0  0  0  0  0  0  0  0
  140.5393   71.0034  218.3787 H   0  0  0  0  0  0  0  0  0  0  0  0
  143.3303   70.9639  221.6556 H   0  0  0  0  0  0  0  0  0  0  0  0
  144.0767   73.2323  221.0503 H   0  0  0  0  0  0  0  0  0  0  0  0
  142.0010   75.4540  221.3390 H   0  0  0  0  0  0  0  0  0  0  0  0
  140.8369   76.5104  222.8617 H   0  0  0  0  0  0  0  0  0  0  0  0
  142.0133   78.1117  223.8578 H   0  0  0  0  0  0  0  0  0  0  0  0
  141.9612   79.1112  222.3228 H   0  0  0  0  0  0  0  0  0  0  0  0
  139.1230   80.8961  223.2795 H   0  0  0  0  0  0  0  0  0  0  0  0
  140.1560   80.3745  221.8972 H   0  0  0  0  0  0  0  0  0  0  0  0
  137.7785   79.0325  223.1460 H   0  0  0  0  0  0  0  0  0  0  0  0
  138.2194   79.2271  221.4190 H   0  0  0  0  0  0  0  0  0  0  0  0
  137.5719   75.4654  220.9106 H   0  0  0  0  0  0  0  0  0  0  0  0
  139.3817   75.5234  221.0005 H   0  0  0  0  0  0  0  0  0  0  0  0
  137.6070   73.7820  222.7340 H   0  0  0  0  0  0  0  0  0  0  0  0
  138.3395   71.2024  221.5719 H   0  0  0  0  0  0  0  0  0  0  0  0
  138.2482   68.9646  222.7052 H   0  0  0  0  0  0  0  0  0  0  0  0
  138.9358   67.6280  224.5350 H   0  0  0  0  0  0  0  0  0  0  0  0
  141.4875   69.1812  227.6131 H   0  0  0  0  0  0  0  0  0  0  0  0
  141.5503   71.3780  226.4578 H   0  0  0  0  0  0  0  0  0  0  0  0
  1  2  1  0
  2  3  1  0
  2  4  1  0
  4  5  1  0
  5  6  2  0
  6  7  1  0
  7  8  2  0
  8  9  1  0
  8 10  1  0
 10 11  2  0
  2 12  1  0
 12 13  1  0
 13 14  2  0
 13 15  1  0
 15 16  1  0
 16 17  1  0
 17 18  1  0
 18 19  1  0
 19 20  1  0
 20 21  1  0
 21 22  2  0
 21 23  1  0
 23 24  1  0
 24 25  1  0
 25 26  2  0
 25 27  1  0
 27 28  2  0
 28 29  1  0
 29 30  2  0
 30 31  1  0
 31 32  2  0
 32 33  1  0
 32 34  1  0
 34 35  2  0
 35 36  1  0
 36 37  2  0
 11  5  1  0
 20 15  1  0
 37 27  1  0
 36 30  1  0
  1 38  1  0
  1 39  1  0
  1 40  1  0
  3 41  1  0
  3 42  1  0
  3 43  1  0
  4 44  1  0
  4 45  1  0
  6 46  1  0
  7 47  1  0
 10 48  1  0
 11 49  1  0
 12 50  1  0
 15 51  1  1
 16 52  1  0
 16 53  1  0
 18 54  1  0
 18 55  1  0
 19 56  1  0
 19 57  1  0
 23 58  1  0
 23 59  1  0
 24 60  1  0
 28 61  1  0
 29 62  1  0
 31 63  1  0
 34 64  1  0
 35 65  1  0
M  END
>  <smiles>  (40) 
CC(C)(Cc1ccc(F)cc1)NC(=O)C1COCCN1C(=O)CNC(=O)c1ccc2cc(F)ccc2n1

>  <score_type>  (40) 
oracle

>  <origin>  (40) 
autodockgpu

>  <m_score__min__energy>  (40) 
-9.2899999999999991

>  <m_primary>  (40) 
energy

>  <meeko>  (40) 
{"free_energy": -7.14, "intermolecular_energy": -9.52, "internal_energy": -3.67, "cluster_size": 1, "cluster_id": 6, "rank_in_cluster": 1}

>  <energy>  (40) 
-7.14

>  <cluster_rmsd>  (40) 
0.0

>  <rmsd>  (40) 
270.16

>  <cluster>  (40) 
6

$$$$
