
     RDKit          3D

 59 62  0  0  0  0  0  0  0  0999 V2000
  139.9430   70.9680  221.0460 O   0  0  0  0  0  0  0  0  0  0  0  0
  139.8160   71.5170  222.1810 C   0  0  0  0  0  0  0  0  0  0  0  0
  139.6960   72.9260  222.3460 N   0  0  0  0  0  0  0  0  0  0  0  0
  139.7160   73.7690  221.1890 C   0  0  0  0  0  0  0  0  0  0  0  0
  140.3580   75.0900  221.4510 C   0  0  0  0  0  0  0  0  0  0  0  0
  140.0470   75.7980  222.4570 O   0  0  0  0  0  0  0  0  0  0  0  0
  141.3400   75.5230  220.5130 N   0  0  0  0  0  0  0  0  0  0  0  0
  142.7380   75.1430  220.4090 C   0  0  0  0  0  0  0  0  0  0  0  0
  142.7910   74.7580  218.9410 C   0  0  2  0  0  0  0  0  0  0  0  0
  144.0700   74.7670  218.4170 O   0  0  0  0  0  0  0  0  0  0  0  0
  141.8970   75.7950  218.3070 C   0  0  0  0  0  0  0  0  0  0  0  0
  141.1310   76.4750  219.4270 C   0  0  2  0  0  0  0  0  0  0  0  0
  141.6920   77.8070  219.7560 C   0  0  0  0  0  0  0  0  0  0  0  0
  142.1650   78.5750  218.8850 O   0  0  0  0  0  0  0  0  0  0  0  0
  141.6890   78.2140  221.1040 N   0  0  0  0  0  0  0  0  0  0  0  0
  142.1960   79.4690  221.5690 C   0  0  0  0  0  0  0  0  0  0  0  0
  142.8770   79.3910  222.9110 C   0  0  0  0  0  0  0  0  0  0  0  0
  142.8140   80.7030  223.6190 C   0  0  0  0  0  0  0  0  0  0  0  0
  141.4530   81.2580  223.8500 C   0  0  0  0  0  0  0  0  0  0  0  0
  140.4500   80.4860  223.0450 C   0  0  0  0  0  0  0  0  0  0  0  0
  140.9770   80.3990  221.6280 C   0  0  0  0  0  0  0  0  0  0  0  0
  139.7900   70.6910  223.3980 C   0  0  0  0  0  0  0  0  0  0  0  0
  139.2290   69.4280  223.3900 C   0  0  0  0  0  0  0  0  0  0  0  0
  139.2160   68.6630  224.5570 C   0  0  0  0  0  0  0  0  0  0  0  0
  139.7590   69.1530  225.7270 C   0  0  0  0  0  0  0  0  0  0  0  0
  139.7690   68.4330  226.9110 C   0  0  0  0  0  0  0  0  0  0  0  0
  140.3310   68.9750  228.0680 C   0  0  0  0  0  0  0  0  0  0  0  0
  140.3570   68.2980  229.2360 F   0  0  0  0  0  0  0  0  0  0  0  0
  140.8870   70.2580  228.0300 C   0  0  0  0  0  0  0  0  0  0  0  0
  140.8750   70.9770  226.8470 C   0  0  0  0  0  0  0  0  0  0  0  0
  140.3180   70.4340  225.7040 C   0  0  0  0  0  0  0  0  0  0  0  0
  140.3040   71.1210  224.5660 N   0  0  0  0  0  0  0  0  0  0  0  0
  139.5930   73.3490  223.2950 H   0  0  0  0  0  0  0  0  0  0  0  0
  140.2746   73.2582  220.3909 H   0  0  0  0  0  0  0  0  0  0  0  0
  138.6724   73.9584  220.8974 H   0  0  0  0  0  0  0  0  0  0  0  0
  143.4089   75.9846  220.6359 H   0  0  0  0  0  0  0  0  0  0  0  0
  143.0606   74.3577  221.1085 H   0  0  0  0  0  0  0  0  0  0  0  0
  142.4656   73.7233  218.7581 H   0  0  0  0  0  0  0  0  0  0  0  0
  144.4120   75.6860  218.5340 H   0  0  0  0  0  0  0  0  0  0  0  0
  142.5041   76.5338  217.7633 H   0  0  0  0  0  0  0  0  0  0  0  0
  141.2060   75.3279  217.5899 H   0  0  0  0  0  0  0  0  0  0  0  0
  140.0765   76.6823  219.1925 H   0  0  0  0  0  0  0  0  0  0  0  0
  141.2890   77.5620  221.8430 H   0  0  0  0  0  0  0  0  0  0  0  0
  142.9805   79.8322  220.8888 H   0  0  0  0  0  0  0  0  0  0  0  0
  142.3771   78.6268  223.5243 H   0  0  0  0  0  0  0  0  0  0  0  0
  143.9334   79.1279  222.7535 H   0  0  0  0  0  0  0  0  0  0  0  0
  143.2972   80.5793  224.5994 H   0  0  0  0  0  0  0  0  0  0  0  0
  143.3169   81.4213  222.9549 H   0  0  0  0  0  0  0  0  0  0  0  0
  141.2026   81.1801  224.9183 H   0  0  0  0  0  0  0  0  0  0  0  0
  141.4327   82.3139  223.5424 H   0  0  0  0  0  0  0  0  0  0  0  0
  140.3289   79.4761  223.4638 H   0  0  0  0  0  0  0  0  0  0  0  0
  139.4696   80.9844  223.0648 H   0  0  0  0  0  0  0  0  0  0  0  0
  140.1878   80.0048  220.9709 H   0  0  0  0  0  0  0  0  0  0  0  0
  141.2772   81.4037  221.2958 H   0  0  0  0  0  0  0  0  0  0  0  0
  138.7928   69.0258  222.4638 H   0  0  0  0  0  0  0  0  0  0  0  0
  138.7680   67.6584  224.5440 H   0  0  0  0  0  0  0  0  0  0  0  0
  139.3299   67.4248  226.9393 H   0  0  0  0  0  0  0  0  0  0  0  0
  141.3320   70.6940  228.9366 H   0  0  0  0  0  0  0  0  0  0  0  0
  141.3112   71.9863  226.8162 H   0  0  0  0  0  0  0  0  0  0  0  0
  1  2  2  0
  2  3  1  0
  3  4  1  0
  4  5  1  0
  5  6  2  0
  5  7  1  0
  7  8  1  0
  8  9  1  0
  9 10  1  0
  9 11  1  0
 11 12  1  0
 12 13  1  0
 13 14  2  0
 13 15  1  0
 15 16  1  0
 16 17  1  0
 17 18  1  0
 18 19  1  0
 19 20  1  0
 20 21  1  0
  2 22  1  0
 22 23  2  0
 23 24  1  0
 24 25  2  0
 25 26  1  0
 26 27  2  0
 27 28  1  0
 27 29  1  0
 29 30  2  0
 30 31  1  0
 31 32  2  0
 12  7  1  0
 21 16  1  0
 32 22  1  0
 31 25  1  0
  3 33  1  0
  4 34  1  0
  4 35  1  0
  8 36  1  0
  8 37  1  0
  9 38  1  1
 10 39  1  0
 11 40  1  0
 11 41  1  0
 12 42  1  6
 15 43  1  0
 16 44  1  0
 17 45  1  0
 17 46  1  0
 18 47  1  0
 18 48  1  0
 19 49  1  0
 19 50  1  0
 20 51  1  0
 20 52  1  0
 21 53  1  0
 21 54  1  0
 23 55  1  0
 24 56  1  0
 26 57  1  0
 29 58  1  0
 30 59  1  0
M  END
>  <smiles>  (1) 
O=C(NCC(=O)N1C[C@H](O)C[C@@H]1C(=O)NC1CCCCC1)c1ccc2cc(F)ccc2n1

>  <score_type>  (1) 
oracle

>  <origin>  (1) 
autodockgpu

>  <m_score__min__energy>  (1) 
-9.3599999999999994

>  <m_primary>  (1) 
energy

>  <meeko>  (1) 
{"free_energy": -8.59, "intermolecular_energy": -10.68, "internal_energy": -2.46, "cluster_size": 15, "cluster_id": 1, "rank_in_cluster": 9}

>  <energy>  (1) 
-9.36

>  <cluster_rmsd>  (1) 
0.0

>  <rmsd>  (1) 
271.76

>  <cluster>  (1) 
1

$$$$

     RDKit          3D

 59 62  0  0  0  0  0  0  0  0999 V2000
  140.5300   71.3350  221.6750 O   0  0  0  0  0  0  0  0  0  0  0  0
  139.7100   71.4970  222.6270 C   0  0  0  0  0  0  0  0  0  0  0  0
  138.7260   72.5250  222.6290 N   0  0  0  0  0  0  0  0  0  0  0  0
  138.6490   73.4200  221.5140 C   0  0  0  0  0  0  0  0  0  0  0  0
  139.5390   74.6070  221.6660 C   0  0  0  0  0  0  0  0  0  0  0  0
  140.7660   74.4900  221.9660 O   0  0  0  0  0  0  0  0  0  0  0  0
  138.9440   75.8860  221.4590 N   0  0  0  0  0  0  0  0  0  0  0  0
  138.6620   76.5740  220.2110 C   0  0  0  0  0  0  0  0  0  0  0  0
  137.1980   76.9150  220.4310 C   0  0  2  0  0  0  0  0  0  0  0  0
  136.7490   77.9460  219.6270 O   0  0  0  0  0  0  0  0  0  0  0  0
  137.1700   77.2700  221.8980 C   0  0  0  0  0  0  0  0  0  0  0  0
  138.4810   76.7980  222.5000 C   0  0  2  0  0  0  0  0  0  0  0  0
  139.4330   77.9150  222.7060 C   0  0  0  0  0  0  0  0  0  0  0  0
  139.0640   79.0610  223.0570 O   0  0  0  0  0  0  0  0  0  0  0  0
  140.8030   77.6680  222.4960 N   0  0  0  0  0  0  0  0  0  0  0  0
  141.8340   78.6470  222.6560 C   0  0  0  0  0  0  0  0  0  0  0  0
  141.7230   79.4460  223.9290 C   0  0  0  0  0  0  0  0  0  0  0  0
  142.3600   80.7870  223.7740 C   0  0  0  0  0  0  0  0  0  0  0  0
  141.8330   81.6380  222.6740 C   0  0  0  0  0  0  0  0  0  0  0  0
  140.9570   80.8170  221.7750 C   0  0  0  0  0  0  0  0  0  0  0  0
  141.7210   79.5570  221.4260 C   0  0  0  0  0  0  0  0  0  0  0  0
  139.7530   70.6020  223.7930 C   0  0  0  0  0  0  0  0  0  0  0  0
  139.1960   69.3380  223.7430 C   0  0  0  0  0  0  0  0  0  0  0  0
  139.2490   68.5070  224.8620 C   0  0  0  0  0  0  0  0  0  0  0  0
  139.8540   68.9320  226.0280 C   0  0  0  0  0  0  0  0  0  0  0  0
  139.9310   68.1440  227.1650 C   0  0  0  0  0  0  0  0  0  0  0  0
  140.5550   68.6220  228.3200 C   0  0  0  0  0  0  0  0  0  0  0  0
  140.6460   67.8790  229.4430 F   0  0  0  0  0  0  0  0  0  0  0  0
  141.1040   69.9080  228.3250 C   0  0  0  0  0  0  0  0  0  0  0  0
  141.0260   70.6950  227.1890 C   0  0  0  0  0  0  0  0  0  0  0  0
  140.4080   70.2150  226.0480 C   0  0  0  0  0  0  0  0  0  0  0  0
  140.3300   70.9670  224.9540 N   0  0  0  0  0  0  0  0  0  0  0  0
  138.0640   72.6340  223.4290 H   0  0  0  0  0  0  0  0  0  0  0  0
  138.9416   72.8750  220.6044 H   0  0  0  0  0  0  0  0  0  0  0  0
  137.6137   73.7867  221.4533 H   0  0  0  0  0  0  0  0  0  0  0  0
  139.2793   77.4767  220.0926 H   0  0  0  0  0  0  0  0  0  0  0  0
  138.8736   75.9936  219.3008 H   0  0  0  0  0  0  0  0  0  0  0  0
  136.5215   76.0899  220.1634 H   0  0  0  0  0  0  0  0  0  0  0  0
  136.8610   78.7760  220.1500 H   0  0  0  0  0  0  0  0  0  0  0  0
  137.0696   78.3586  222.0203 H   0  0  0  0  0  0  0  0  0  0  0  0
  136.3158   76.7911  222.3990 H   0  0  0  0  0  0  0  0  0  0  0  0
  138.3824   76.3460  223.4980 H   0  0  0  0  0  0  0  0  0  0  0  0
  141.1160   76.6960  222.1970 H   0  0  0  0  0  0  0  0  0  0  0  0
  142.8131   78.1517  222.7337 H   0  0  0  0  0  0  0  0  0  0  0  0
  140.6601   79.5790  224.1791 H   0  0  0  0  0  0  0  0  0  0  0  0
  142.2416   78.9015  224.7318 H   0  0  0  0  0  0  0  0  0  0  0  0
  142.2236   81.3351  224.7179 H   0  0  0  0  0  0  0  0  0  0  0  0
  143.4105   80.5873  223.5160 H   0  0  0  0  0  0  0  0  0  0  0  0
  141.2463   82.4650  223.1005 H   0  0  0  0  0  0  0  0  0  0  0  0
  142.6739   82.0433  222.0922 H   0  0  0  0  0  0  0  0  0  0  0  0
  140.0225   80.5584  222.2944 H   0  0  0  0  0  0  0  0  0  0  0  0
  140.6985   81.3791  220.8654 H   0  0  0  0  0  0  0  0  0  0  0  0
  141.1908   79.0209  220.6251 H   0  0  0  0  0  0  0  0  0  0  0  0
  142.7315   79.8320  221.0894 H   0  0  0  0  0  0  0  0  0  0  0  0
  138.7107   68.9872  222.8203 H   0  0  0  0  0  0  0  0  0  0  0  0
  138.8039   67.5022  224.8150 H   0  0  0  0  0  0  0  0  0  0  0  0
  139.4971   67.1332  227.1582 H   0  0  0  0  0  0  0  0  0  0  0  0
  141.5968   70.2934  229.2298 H   0  0  0  0  0  0  0  0  0  0  0  0
  141.4574   71.7069  227.1934 H   0  0  0  0  0  0  0  0  0  0  0  0
  1  2  2  0
  2  3  1  0
  3  4  1  0
  4  5  1  0
  5  6  2  0
  5  7  1  0
  7  8  1  0
  8  9  1  0
  9 10  1  0
  9 11  1  0
 11 12  1  0
 12 13  1  0
 13 14  2  0
 13 15  1  0
 15 16  1  0
 16 17  1  0
 17 18  1  0
 18 19  1  0
 19 20  1  0
 20 21  1  0
  2 22  1  0
 22 23  2  0
 23 24  1  0
 24 25  2  0
 25 26  1  0
 26 27  2  0
 27 28  1  0
 27 29  1  0
 29 30  2  0
 30 31  1  0
 31 32  2  0
 12  7  1  0
 21 16  1  0
 32 22  1  0
 31 25  1  0
  3 33  1  0
  4 34  1  0
  4 35  1  0
  8 36  1  0
  8 37  1  0
  9 38  1  1
 10 39  1  0
 11 40  1  0
 11 41  1  0
 12 42  1  1
 15 43  1  0
 16 44  1  0
 17 45  1  0
 17 46  1  0
 18 47  1  0
 18 48  1  0
 19 49  1  0
 19 50  1  0
 20 51  1  0
 20 52  1  0
 21 53  1  0
 21 54  1  0
 23 55  1  0
 24 56  1  0
 26 57  1  0
 29 58  1  0
 30 59  1  0
M  END
>  <smiles>  (2) 
O=C(NCC(=O)N1C[C@H](O)C[C@@H]1C(=O)NC1CCCCC1)c1ccc2cc(F)ccc2n1

>  <score_type>  (2) 
oracle

>  <origin>  (2) 
autodockgpu

>  <m_score__min__energy>  (2) 
-9.3599999999999994

>  <m_primary>  (2) 
energy

>  <meeko>  (2) 
{"free_energy": -8.69, "intermolecular_energy": -10.78, "internal_energy": -2.13, "cluster_size": 3, "cluster_id": 2, "rank_in_cluster": 1}

>  <energy>  (2) 
-8.95

>  <cluster_rmsd>  (2) 
1.4

>  <rmsd>  (2) 
271.65

>  <cluster>  (2) 
1

$$$$

     RDKit          3D

 59 62  0  0  0  0  0  0  0  0999 V2000
  138.4590   70.8150  221.5780 O   0  0  0  0  0  0  0  0  0  0  0  0
  139.0110   71.3100  222.6050 C   0  0  0  0  0  0  0  0  0  0  0  0
  139.3930   72.6780  222.6900 N   0  0  0  0  0  0  0  0  0  0  0  0
  139.1470   73.5420  221.5750 C   0  0  0  0  0  0  0  0  0  0  0  0
  139.5900   74.9450  221.8270 C   0  0  0  0  0  0  0  0  0  0  0  0
  140.7200   75.2090  222.3390 O   0  0  0  0  0  0  0  0  0  0  0  0
  138.6780   75.9790  221.4650 N   0  0  0  0  0  0  0  0  0  0  0  0
  138.5000   76.6370  220.1810 C   0  0  0  0  0  0  0  0  0  0  0  0
  136.9990   76.4750  220.0160 C   0  0  2  0  0  0  0  0  0  0  0  0
  136.4480   77.3680  219.1160 O   0  0  0  0  0  0  0  0  0  0  0  0
  136.4990   76.6890  221.4240 C   0  0  0  0  0  0  0  0  0  0  0  0
  137.7020   76.6130  222.3450 C   0  0  2  0  0  0  0  0  0  0  0  0
  138.1540   77.9560  222.7810 C   0  0  0  0  0  0  0  0  0  0  0  0
  137.3630   78.9130  222.9490 O   0  0  0  0  0  0  0  0  0  0  0  0
  139.5300   78.1520  223.0090 N   0  0  0  0  0  0  0  0  0  0  0  0
  140.1100   79.3900  223.4310 C   0  0  0  0  0  0  0  0  0  0  0  0
  140.1090   80.4570  222.3670 C   0  0  0  0  0  0  0  0  0  0  0  0
  141.2160   81.4330  222.5890 C   0  0  0  0  0  0  0  0  0  0  0  0
  142.5900   80.8640  222.6380 C   0  0  0  0  0  0  0  0  0  0  0  0
  142.5140   79.3700  222.7400 C   0  0  0  0  0  0  0  0  0  0  0  0
  141.5430   79.0400  223.8540 C   0  0  0  0  0  0  0  0  0  0  0  0
  139.2830   70.4600  223.7740 C   0  0  0  0  0  0  0  0  0  0  0  0
  138.9290   69.1240  223.7830 C   0  0  0  0  0  0  0  0  0  0  0  0
  139.1980   68.3370  224.9040 C   0  0  0  0  0  0  0  0  0  0  0  0
  139.8160   68.8790  226.0130 C   0  0  0  0  0  0  0  0  0  0  0  0
  140.1030   68.1390  227.1490 C   0  0  0  0  0  0  0  0  0  0  0  0
  140.7300   68.7350  228.2450 C   0  0  0  0  0  0  0  0  0  0  0  0
  141.0230   68.0420  229.3660 F   0  0  0  0  0  0  0  0  0  0  0  0
  141.0690   70.0910  228.1930 C   0  0  0  0  0  0  0  0  0  0  0  0
  140.7820   70.8290  227.0580 C   0  0  0  0  0  0  0  0  0  0  0  0
  140.1610   70.2330  225.9750 C   0  0  0  0  0  0  0  0  0  0  0  0
  139.8830   70.9370  224.8820 N   0  0  0  0  0  0  0  0  0  0  0  0
  139.8470   73.0570  223.5510 H   0  0  0  0  0  0  0  0  0  0  0  0
  139.6900   73.1527  220.7012 H   0  0  0  0  0  0  0  0  0  0  0  0
  138.0608   73.5616  221.4021 H   0  0  0  0  0  0  0  0  0  0  0  0
  138.7958   77.6958  220.2190 H   0  0  0  0  0  0  0  0  0  0  0  0
  139.1061   76.2276  219.3594 H   0  0  0  0  0  0  0  0  0  0  0  0
  136.7173   75.5005  219.5906 H   0  0  0  0  0  0  0  0  0  0  0  0
  137.1520   78.0300  218.9140 H   0  0  0  0  0  0  0  0  0  0  0  0
  136.0219   77.6766  221.5082 H   0  0  0  0  0  0  0  0  0  0  0  0
  135.7531   75.9266  221.6930 H   0  0  0  0  0  0  0  0  0  0  0  0
  137.5161   76.0767  223.2873 H   0  0  0  0  0  0  0  0  0  0  0  0
  140.2010   77.3400  222.8650 H   0  0  0  0  0  0  0  0  0  0  0  0
  139.5154   79.8240  224.2483 H   0  0  0  0  0  0  0  0  0  0  0  0
  140.2384   79.9837  221.3825 H   0  0  0  0  0  0  0  0  0  0  0  0
  139.1513   80.9963  222.4117 H   0  0  0  0  0  0  0  0  0  0  0  0
  141.1854   82.1677  221.7709 H   0  0  0  0  0  0  0  0  0  0  0  0
  141.0374   81.8606  223.5866 H   0  0  0  0  0  0  0  0  0  0  0  0
  143.1335   81.1410  221.7226 H   0  0  0  0  0  0  0  0  0  0  0  0
  143.1188   81.2630  223.5161 H   0  0  0  0  0  0  0  0  0  0  0  0
  142.1548   78.9463  221.7906 H   0  0  0  0  0  0  0  0  0  0  0  0
  143.5061   78.9446  222.9514 H   0  0  0  0  0  0  0  0  0  0  0  0
  141.6024   77.9653  224.0809 H   0  0  0  0  0  0  0  0  0  0  0  0
  141.8071   79.6279  224.7454 H   0  0  0  0  0  0  0  0  0  0  0  0
  138.4348   68.6805  222.9060 H   0  0  0  0  0  0  0  0  0  0  0  0
  138.9147   67.2741  224.9037 H   0  0  0  0  0  0  0  0  0  0  0  0
  139.8345   67.0730  227.1876 H   0  0  0  0  0  0  0  0  0  0  0  0
  141.5624   70.5695  229.0519 H   0  0  0  0  0  0  0  0  0  0  0  0
  141.0491   71.8953  227.0168 H   0  0  0  0  0  0  0  0  0  0  0  0
  1  2  2  0
  2  3  1  0
  3  4  1  0
  4  5  1  0
  5  6  2  0
  5  7  1  0
  7  8  1  0
  8  9  1  0
  9 10  1  0
  9 11  1  0
 11 12  1  0
 12 13  1  0
 13 14  2  0
 13 15  1  0
 15 16  1  0
 16 17  1  0
 17 18  1  0
 18 19  1  0
 19 20  1  0
 20 21  1  0
  2 22  1  0
 22 23  2  0
 23 24  1  0
 24 25  2  0
 25 26  1  0
 26 27  2  0
 27 28  1  0
 27 29  1  0
 29 30  2  0
 30 31  1  0
 31 32  2  0
 12  7  1  0
 21 16  1  0
 32 22  1  0
 31 25  1  0
  3 33  1  0
  4 34  1  0
  4 35  1  0
  8 36  1  0
  8 37  1  0
  9 38  1  6
 10 39  1  0
 11 40  1  0
 11 41  1  0
 12 42  1  1
 15 43  1  0
 16 44  1  0
 17 45  1  0
 17 46  1  0
 18 47  1  0
 18 48  1  0
 19 49  1  0
 19 50  1  0
 20 51  1  0
 20 52  1  0
 21 53  1  0
 21 54  1  0
 23 55  1  0
 24 56  1  0
 26 57  1  0
 29 58  1  0
 30 59  1  0
M  END
>  <smiles>  (3) 
O=C(NCC(=O)N1C[C@H](O)C[C@@H]1C(=O)NC1CCCCC1)c1ccc2cc(F)ccc2n1

>  <score_type>  (3) 
oracle

>  <origin>  (3) 
autodockgpu

>  <m_score__min__energy>  (3) 
-9.3599999999999994

>  <m_primary>  (3) 
energy

>  <meeko>  (3) 
{"free_energy": -7.9, "intermolecular_energy": -9.99, "internal_energy": -2.58, "cluster_size": 3, "cluster_id": 2, "rank_in_cluster": 2}

>  <energy>  (3) 
-8.89

>  <cluster_rmsd>  (3) 
1.56

>  <rmsd>  (3) 
271.59

>  <cluster>  (3) 
1

$$$$

     RDKit          3D

 59 62  0  0  0  0  0  0  0  0999 V2000
  139.9770   70.4770  221.4930 O   0  0  0  0  0  0  0  0  0  0  0  0
  139.8550   71.3560  222.3970 C   0  0  0  0  0  0  0  0  0  0  0  0
  139.4910   72.7030  222.1160 N   0  0  0  0  0  0  0  0  0  0  0  0
  139.2490   73.0940  220.7600 C   0  0  0  0  0  0  0  0  0  0  0  0
  140.5070   73.2370  219.9700 C   0  0  0  0  0  0  0  0  0  0  0  0
  140.8460   72.3870  219.0910 O   0  0  0  0  0  0  0  0  0  0  0  0
  141.3140   74.3780  220.2520 N   0  0  0  0  0  0  0  0  0  0  0  0
  142.6890   74.4350  220.7160 C   0  0  0  0  0  0  0  0  0  0  0  0
  143.2690   75.3860  219.6830 C   0  0  2  0  0  0  0  0  0  0  0  0
  144.4440   75.9890  220.0930 O   0  0  0  0  0  0  0  0  0  0  0  0
  142.1450   76.3740  219.4920 C   0  0  0  0  0  0  0  0  0  0  0  0
  140.9050   75.7730  220.1270 C   0  0  2  0  0  0  0  0  0  0  0  0
  140.6090   76.3730  221.4490 C   0  0  0  0  0  0  0  0  0  0  0  0
  139.9910   75.7550  222.3490 O   0  0  0  0  0  0  0  0  0  0  0  0
  141.0440   77.6900  221.6930 N   0  0  0  0  0  0  0  0  0  0  0  0
  140.8300   78.3970  222.9190 C   0  0  0  0  0  0  0  0  0  0  0  0
  139.7730   79.4670  222.8290 C   0  0  0  0  0  0  0  0  0  0  0  0
  140.0120   80.5400  223.8370 C   0  0  0  0  0  0  0  0  0  0  0  0
  141.3320   81.2220  223.7660 C   0  0  0  0  0  0  0  0  0  0  0  0
  142.2470   80.4580  222.8560 C   0  0  0  0  0  0  0  0  0  0  0  0
  142.1930   79.0040  223.2760 C   0  0  0  0  0  0  0  0  0  0  0  0
  140.0940   71.0010  223.8030 C   0  0  0  0  0  0  0  0  0  0  0  0
  140.6940   71.8920  224.6720 C   0  0  0  0  0  0  0  0  0  0  0  0
  140.9110   71.5310  226.0030 C   0  0  0  0  0  0  0  0  0  0  0  0
  140.5320   70.2880  226.4670 C   0  0  0  0  0  0  0  0  0  0  0  0
  140.7260   69.8840  227.7780 C   0  0  0  0  0  0  0  0  0  0  0  0
  140.3230   68.6140  228.1980 C   0  0  0  0  0  0  0  0  0  0  0  0
  140.4980   68.1910  229.4670 F   0  0  0  0  0  0  0  0  0  0  0  0
  139.7210   67.7440  227.2830 C   0  0  0  0  0  0  0  0  0  0  0  0
  139.5280   68.1490  225.9730 C   0  0  0  0  0  0  0  0  0  0  0  0
  139.9280   69.4080  225.5640 C   0  0  0  0  0  0  0  0  0  0  0  0
  139.7450   69.8010  224.3080 N   0  0  0  0  0  0  0  0  0  0  0  0
  139.3990   73.4060  222.8830 H   0  0  0  0  0  0  0  0  0  0  0  0
  138.6171   72.3315  220.2810 H   0  0  0  0  0  0  0  0  0  0  0  0
  138.7550   74.0766  220.7800 H   0  0  0  0  0  0  0  0  0  0  0  0
  142.7607   74.8438  221.7347 H   0  0  0  0  0  0  0  0  0  0  0  0
  143.1965   73.4619  220.7905 H   0  0  0  0  0  0  0  0  0  0  0  0
  143.5716   74.8784  218.7552 H   0  0  0  0  0  0  0  0  0  0  0  0
  144.1880   76.8600  220.4820 H   0  0  0  0  0  0  0  0  0  0  0  0
  142.3943   77.3273  219.9810 H   0  0  0  0  0  0  0  0  0  0  0  0
  141.9783   76.5732  218.4231 H   0  0  0  0  0  0  0  0  0  0  0  0
  139.9813   75.9325  219.5514 H   0  0  0  0  0  0  0  0  0  0  0  0
  141.5660   78.2140  220.9290 H   0  0  0  0  0  0  0  0  0  0  0  0
  140.4513   77.7082  223.6885 H   0  0  0  0  0  0  0  0  0  0  0  0
  139.7930   79.9087  221.8218 H   0  0  0  0  0  0  0  0  0  0  0  0
  138.7930   79.0095  223.0296 H   0  0  0  0  0  0  0  0  0  0  0  0
  139.2315   81.3040  223.7062 H   0  0  0  0  0  0  0  0  0  0  0  0
  139.9916   80.0367  224.8149 H   0  0  0  0  0  0  0  0  0  0  0  0
  141.1963   82.2416  223.3762 H   0  0  0  0  0  0  0  0  0  0  0  0
  141.7735   81.2672  224.7725 H   0  0  0  0  0  0  0  0  0  0  0  0
  141.9121   80.5608  221.8133 H   0  0  0  0  0  0  0  0  0  0  0  0
  143.2746   80.8443  222.9250 H   0  0  0  0  0  0  0  0  0  0  0  0
  142.9859   78.4464  222.7561 H   0  0  0  0  0  0  0  0  0  0  0  0
  142.3391   78.9403  224.3644 H   0  0  0  0  0  0  0  0  0  0  0  0
  141.0008   72.8862  224.3150 H   0  0  0  0  0  0  0  0  0  0  0  0
  141.3893   72.2452  226.6893 H   0  0  0  0  0  0  0  0  0  0  0  0
  141.2017   70.5695  228.4948 H   0  0  0  0  0  0  0  0  0  0  0  0
  139.4019   66.7412  227.6031 H   0  0  0  0  0  0  0  0  0  0  0  0
  139.0538   67.4653  225.2535 H   0  0  0  0  0  0  0  0  0  0  0  0
  1  2  2  0
  2  3  1  0
  3  4  1  0
  4  5  1  0
  5  6  2  0
  5  7  1  0
  7  8  1  0
  8  9  1  0
  9 10  1  0
  9 11  1  0
 11 12  1  0
 12 13  1  0
 13 14  2  0
 13 15  1  0
 15 16  1  0
 16 17  1  0
 17 18  1  0
 18 19  1  0
 19 20  1  0
 20 21  1  0
  2 22  1  0
 22 23  2  0
 23 24  1  0
 24 25  2  0
 25 26  1  0
 26 27  2  0
 27 28  1  0
 27 29  1  0
 29 30  2  0
 30 31  1  0
 31 32  2  0
 12  7  1  0
 21 16  1  0
 32 22  1  0
 31 25  1  0
  3 33  1  0
  4 34  1  0
  4 35  1  0
  8 36  1  0
  8 37  1  0
  9 38  1  6
 10 39  1  0
 11 40  1  0
 11 41  1  0
 12 42  1  6
 15 43  1  0
 16 44  1  0
 17 45  1  0
 17 46  1  0
 18 47  1  0
 18 48  1  0
 19 49  1  0
 19 50  1  0
 20 51  1  0
 20 52  1  0
 21 53  1  0
 21 54  1  0
 23 55  1  0
 24 56  1  0
 26 57  1  0
 29 58  1  0
 30 59  1  0
M  END
>  <smiles>  (4) 
O=C(NCC(=O)N1C[C@H](O)C[C@@H]1C(=O)NC1CCCCC1)c1ccc2cc(F)ccc2n1

>  <score_type>  (4) 
oracle

>  <origin>  (4) 
autodockgpu

>  <m_score__min__energy>  (4) 
-9.3599999999999994

>  <m_primary>  (4) 
energy

>  <meeko>  (4) 
{"free_energy": -8.95, "intermolecular_energy": -11.04, "internal_energy": -1.92, "cluster_size": 15, "cluster_id": 1, "rank_in_cluster": 2}

>  <energy>  (4) 
-8.87

>  <cluster_rmsd>  (4) 
1.52

>  <rmsd>  (4) 
271.58

>  <cluster>  (4) 
1

$$$$

     RDKit          3D

 59 62  0  0  0  0  0  0  0  0999 V2000
  138.6690   71.4030  221.8840 O   0  0  0  0  0  0  0  0  0  0  0  0
  139.7250   71.3150  222.5790 C   0  0  0  0  0  0  0  0  0  0  0  0
  140.9150   72.0310  222.2650 N   0  0  0  0  0  0  0  0  0  0  0  0
  140.9320   72.8890  221.1190 C   0  0  0  0  0  0  0  0  0  0  0  0
  140.5330   74.2890  221.4450 C   0  0  0  0  0  0  0  0  0  0  0  0
  139.6370   74.5480  222.3050 O   0  0  0  0  0  0  0  0  0  0  0  0
  141.2070   75.3290  220.7390 N   0  0  0  0  0  0  0  0  0  0  0  0
  142.6250   75.4770  220.4600 C   0  0  0  0  0  0  0  0  0  0  0  0
  142.5700   75.7080  218.9610 C   0  0  2  0  0  0  0  0  0  0  0  0
  143.7050   76.3160  218.4580 O   0  0  0  0  0  0  0  0  0  0  0  0
  141.3390   76.5690  218.8160 C   0  0  0  0  0  0  0  0  0  0  0  0
  140.5840   76.5000  220.1310 C   0  0  2  0  0  0  0  0  0  0  0  0
  140.7900   77.7140  220.9550 C   0  0  0  0  0  0  0  0  0  0  0  0
  141.3770   78.7340  220.5210 O   0  0  0  0  0  0  0  0  0  0  0  0
  140.3050   77.7100  222.2770 N   0  0  0  0  0  0  0  0  0  0  0  0
  140.4300   78.8070  223.1870 C   0  0  0  0  0  0  0  0  0  0  0  0
  140.2140   80.1560  222.5500 C   0  0  0  0  0  0  0  0  0  0  0  0
  140.9390   81.2230  223.2990 C   0  0  0  0  0  0  0  0  0  0  0  0
  142.4080   81.0370  223.4450 C   0  0  0  0  0  0  0  0  0  0  0  0
  142.7840   79.6430  223.0400 C   0  0  0  0  0  0  0  0  0  0  0  0
  141.8490   78.6940  223.7610 C   0  0  0  0  0  0  0  0  0  0  0  0
  139.7530   70.4460  223.7650 C   0  0  0  0  0  0  0  0  0  0  0  0
  139.1610   69.1980  223.7480 C   0  0  0  0  0  0  0  0  0  0  0  0
  139.2010   68.3900  224.8860 C   0  0  0  0  0  0  0  0  0  0  0  0
  139.8270   68.8250  226.0360 C   0  0  0  0  0  0  0  0  0  0  0  0
  139.8920   68.0610  227.1910 C   0  0  0  0  0  0  0  0  0  0  0  0
  140.5390   68.5470  228.3290 C   0  0  0  0  0  0  0  0  0  0  0  0
  140.6200   67.8270  229.4680 F   0  0  0  0  0  0  0  0  0  0  0  0
  141.1230   69.8170  228.3010 C   0  0  0  0  0  0  0  0  0  0  0  0
  141.0570   70.5800  227.1480 C   0  0  0  0  0  0  0  0  0  0  0  0
  140.4160   70.0920  226.0230 C   0  0  0  0  0  0  0  0  0  0  0  0
  140.3500   70.8210  224.9130 N   0  0  0  0  0  0  0  0  0  0  0  0
  141.7700   71.9380  222.8580 H   0  0  0  0  0  0  0  0  0  0  0  0
  141.9501   72.9006  220.7026 H   0  0  0  0  0  0  0  0  0  0  0  0
  140.2028   72.4943  220.3962 H   0  0  0  0  0  0  0  0  0  0  0  0
  143.0589   76.3372  220.9909 H   0  0  0  0  0  0  0  0  0  0  0  0
  143.2527   74.6315  220.7780 H   0  0  0  0  0  0  0  0  0  0  0  0
  142.5246   74.7718  218.3853 H   0  0  0  0  0  0  0  0  0  0  0  0
  144.4050   75.6190  218.4310 H   0  0  0  0  0  0  0  0  0  0  0  0
  141.6293   77.6083  218.6024 H   0  0  0  0  0  0  0  0  0  0  0  0
  140.7102   76.2138  217.9862 H   0  0  0  0  0  0  0  0  0  0  0  0
  139.4913   76.4360  220.0216 H   0  0  0  0  0  0  0  0  0  0  0  0
  139.8080   76.8450  222.6450 H   0  0  0  0  0  0  0  0  0  0  0  0
  139.6482   78.7455  223.9584 H   0  0  0  0  0  0  0  0  0  0  0  0
  140.5843   80.1283  221.5146 H   0  0  0  0  0  0  0  0  0  0  0  0
  139.1381   80.3841  222.5685 H   0  0  0  0  0  0  0  0  0  0  0  0
  140.7712   82.1752  222.7744 H   0  0  0  0  0  0  0  0  0  0  0  0
  140.5342   81.1936  224.3214 H   0  0  0  0  0  0  0  0  0  0  0  0
  142.9335   81.7587  222.8024 H   0  0  0  0  0  0  0  0  0  0  0  0
  142.6932   81.2007  224.4947 H   0  0  0  0  0  0  0  0  0  0  0  0
  142.6738   79.5250  221.9519 H   0  0  0  0  0  0  0  0  0  0  0  0
  143.8309   79.4312  223.3029 H   0  0  0  0  0  0  0  0  0  0  0  0
  142.2105   77.6627  223.6351 H   0  0  0  0  0  0  0  0  0  0  0  0
  141.8254   78.9569  224.8289 H   0  0  0  0  0  0  0  0  0  0  0  0
  138.6578   68.8406  222.8375 H   0  0  0  0  0  0  0  0  0  0  0  0
  138.7287   67.3967  224.8655 H   0  0  0  0  0  0  0  0  0  0  0  0
  139.4298   67.0630  227.2111 H   0  0  0  0  0  0  0  0  0  0  0  0
  141.6336   70.2089  229.1930 H   0  0  0  0  0  0  0  0  0  0  0  0
  141.5164   71.5792  227.1259 H   0  0  0  0  0  0  0  0  0  0  0  0
  1  2  2  0
  2  3  1  0
  3  4  1  0
  4  5  1  0
  5  6  2  0
  5  7  1  0
  7  8  1  0
  8  9  1  0
  9 10  1  0
  9 11  1  0
 11 12  1  0
 12 13  1  0
 13 14  2  0
 13 15  1  0
 15 16  1  0
 16 17  1  0
 17 18  1  0
 18 19  1  0
 19 20  1  0
 20 21  1  0
  2 22  1  0
 22 23  2  0
 23 24  1  0
 24 25  2  0
 25 26  1  0
 26 27  2  0
 27 28  1  0
 27 29  1  0
 29 30  2  0
 30 31  1  0
 31 32  2  0
 12  7  1  0
 21 16  1  0
 32 22  1  0
 31 25  1  0
  3 33  1  0
  4 34  1  0
  4 35  1  0
  8 36  1  0
  8 37  1  0
  9 38  1  6
 10 39  1  0
 11 40  1  0
 11 41  1  0
 12 42  1  6
 15 43  1  0
 16 44  1  0
 17 45  1  0
 17 46  1  0
 18 47  1  0
 18 48  1  0
 19 49  1  0
 19 50  1  0
 20 51  1  0
 20 52  1  0
 21 53  1  0
 21 54  1  0
 23 55  1  0
 24 56  1  0
 26 57  1  0
 29 58  1  0
 30 59  1  0
M  END
>  <smiles>  (5) 
O=C(NCC(=O)N1C[C@H](O)C[C@@H]1C(=O)NC1CCCCC1)c1ccc2cc(F)ccc2n1

>  <score_type>  (5) 
oracle

>  <origin>  (5) 
autodockgpu

>  <m_score__min__energy>  (5) 
-9.3599999999999994

>  <m_primary>  (5) 
energy

>  <meeko>  (5) 
{"free_energy": -8.6, "intermolecular_energy": -10.69, "internal_energy": -2.1, "cluster_size": 15, "cluster_id": 1, "rank_in_cluster": 7}

>  <energy>  (5) 
-8.74

>  <cluster_rmsd>  (5) 
1.39

>  <rmsd>  (5) 
271.68

>  <cluster>  (5) 
1

$$$$

     RDKit          3D

 59 62  0  0  0  0  0  0  0  0999 V2000
  139.8220   70.6760  221.1670 O   0  0  0  0  0  0  0  0  0  0  0  0
  139.8080   71.2620  222.2900 C   0  0  0  0  0  0  0  0  0  0  0  0
  139.8130   72.6800  222.4190 N   0  0  0  0  0  0  0  0  0  0  0  0
  139.8330   73.4890  221.2380 C   0  0  0  0  0  0  0  0  0  0  0  0
  140.4150   74.8410  221.4770 C   0  0  0  0  0  0  0  0  0  0  0  0
  140.0390   75.5710  222.4440 O   0  0  0  0  0  0  0  0  0  0  0  0
  141.4180   75.2780  220.5630 N   0  0  0  0  0  0  0  0  0  0  0  0
  142.8190   74.9010  220.4900 C   0  0  0  0  0  0  0  0  0  0  0  0
  142.9060   74.5190  219.0230 C   0  0  2  0  0  0  0  0  0  0  0  0
  144.1970   74.5320  218.5290 O   0  0  0  0  0  0  0  0  0  0  0  0
  142.0250   75.5560  218.3700 C   0  0  0  0  0  0  0  0  0  0  0  0
  141.2320   76.2320  219.4740 C   0  0  2  0  0  0  0  0  0  0  0  0
  141.7820   77.5640  219.8180 C   0  0  0  0  0  0  0  0  0  0  0  0
  142.3090   78.3180  218.9660 O   0  0  0  0  0  0  0  0  0  0  0  0
  141.7050   77.9880  221.1590 N   0  0  0  0  0  0  0  0  0  0  0  0
  142.1930   79.2450  221.6380 C   0  0  0  0  0  0  0  0  0  0  0  0
  142.5690   79.2370  223.0970 C   0  0  0  0  0  0  0  0  0  0  0  0
  142.4550   80.6040  223.6850 C   0  0  0  0  0  0  0  0  0  0  0  0
  141.1200   81.2530  223.5800 C   0  0  0  0  0  0  0  0  0  0  0  0
  140.2560   80.4770  222.6310 C   0  0  0  0  0  0  0  0  0  0  0  0
  141.0610   80.2460  221.3700 C   0  0  0  0  0  0  0  0  0  0  0  0
  139.7880   70.4720  223.5300 C   0  0  0  0  0  0  0  0  0  0  0  0
  139.2070   69.2190  223.5670 C   0  0  0  0  0  0  0  0  0  0  0  0
  139.2000   68.4870  224.7560 C   0  0  0  0  0  0  0  0  0  0  0  0
  139.7680   69.0020  225.9030 C   0  0  0  0  0  0  0  0  0  0  0  0
  139.7860   68.3160  227.1070 C   0  0  0  0  0  0  0  0  0  0  0  0
  140.3740   68.8820  228.2400 C   0  0  0  0  0  0  0  0  0  0  0  0
  140.4070   68.2380  229.4260 F   0  0  0  0  0  0  0  0  0  0  0  0
  140.9490   70.1540  228.1560 C   0  0  0  0  0  0  0  0  0  0  0  0
  140.9310   70.8390  226.9530 C   0  0  0  0  0  0  0  0  0  0  0  0
  140.3470   70.2730  225.8350 C   0  0  0  0  0  0  0  0  0  0  0  0
  140.3270   70.9270  224.6770 N   0  0  0  0  0  0  0  0  0  0  0  0
  139.8020   73.1330  223.3590 H   0  0  0  0  0  0  0  0  0  0  0  0
  140.4336   72.9778  220.4712 H   0  0  0  0  0  0  0  0  0  0  0  0
  138.7915   73.6281  220.9126 H   0  0  0  0  0  0  0  0  0  0  0  0
  143.4829   75.7436  220.7337 H   0  0  0  0  0  0  0  0  0  0  0  0
  143.1273   74.1151  221.1952 H   0  0  0  0  0  0  0  0  0  0  0  0
  142.5863   73.4842  218.8307 H   0  0  0  0  0  0  0  0  0  0  0  0
  144.4420   75.4820  218.4160 H   0  0  0  0  0  0  0  0  0  0  0  0
  142.6432   76.2971  217.8422 H   0  0  0  0  0  0  0  0  0  0  0  0
  141.3519   75.0895  217.6356 H   0  0  0  0  0  0  0  0  0  0  0  0
  140.1826   76.4374  219.2160 H   0  0  0  0  0  0  0  0  0  0  0  0
  141.2600   77.3480  221.8810 H   0  0  0  0  0  0  0  0  0  0  0  0
  143.1279   79.5060  221.1205 H   0  0  0  0  0  0  0  0  0  0  0  0
  141.8966   78.5551  223.6383 H   0  0  0  0  0  0  0  0  0  0  0  0
  143.6125   78.9014  223.1887 H   0  0  0  0  0  0  0  0  0  0  0  0
  142.7111   80.5331  224.7524 H   0  0  0  0  0  0  0  0  0  0  0  0
  143.1375   81.2359  223.0978 H   0  0  0  0  0  0  0  0  0  0  0  0
  140.6452   81.2759  224.5720 H   0  0  0  0  0  0  0  0  0  0  0  0
  141.2419   82.2803  223.2060 H   0  0  0  0  0  0  0  0  0  0  0  0
  139.9763   79.5127  223.0803 H   0  0  0  0  0  0  0  0  0  0  0  0
  139.3326   81.0307  222.4058 H   0  0  0  0  0  0  0  0  0  0  0  0
  140.4010   79.8464  220.5860 H   0  0  0  0  0  0  0  0  0  0  0  0
  141.4974   81.2015  221.0435 H   0  0  0  0  0  0  0  0  0  0  0  0
  138.7498   68.7979  222.6594 H   0  0  0  0  0  0  0  0  0  0  0  0
  138.7369   67.4895  224.7784 H   0  0  0  0  0  0  0  0  0  0  0  0
  139.3326   67.3158  227.1707 H   0  0  0  0  0  0  0  0  0  0  0  0
  141.4142   70.6089  229.0430 H   0  0  0  0  0  0  0  0  0  0  0  0
  141.3839   71.8392  226.8864 H   0  0  0  0  0  0  0  0  0  0  0  0
  1  2  2  0
  2  3  1  0
  3  4  1  0
  4  5  1  0
  5  6  2  0
  5  7  1  0
  7  8  1  0
  8  9  1  0
  9 10  1  0
  9 11  1  0
 11 12  1  0
 12 13  1  0
 13 14  2  0
 13 15  1  0
 15 16  1  0
 16 17  1  0
 17 18  1  0
 18 19  1  0
 19 20  1  0
 20 21  1  0
  2 22  1  0
 22 23  2  0
 23 24  1  0
 24 25  2  0
 25 26  1  0
 26 27  2  0
 27 28  1  0
 27 29  1  0
 29 30  2  0
 30 31  1  0
 31 32  2  0
 12  7  1  0
 21 16  1  0
 32 22  1  0
 31 25  1  0
  3 33  1  0
  4 34  1  0
  4 35  1  0
  8 36  1  0
  8 37  1  0
  9 38  1  1
 10 39  1  0
 11 40  1  0
 11 41  1  0
 12 42  1  6
 15 43  1  0
 16 44  1  0
 17 45  1  0
 17 46  1  0
 18 47  1  0
 18 48  1  0
 19 49  1  0
 19 50  1  0
 20 51  1  0
 20 52  1  0
 21 53  1  0
 21 54  1  0
 23 55  1  0
 24 56  1  0
 26 57  1  0
 29 58  1  0
 30 59  1  0
M  END
>  <smiles>  (6) 
O=C(NCC(=O)N1C[C@H](O)C[C@@H]1C(=O)NC1CCCCC1)c1ccc2cc(F)ccc2n1

>  <score_type>  (6) 
oracle

>  <origin>  (6) 
autodockgpu

>  <m_score__min__energy>  (6) 
-9.3599999999999994

>  <m_primary>  (6) 
energy

>  <meeko>  (6) 
{"free_energy": -8.53, "intermolecular_energy": -10.62, "internal_energy": -2.49, "cluster_size": 15, "cluster_id": 1, "rank_in_cluster": 12}

>  <energy>  (6) 
-8.67

>  <cluster_rmsd>  (6) 
1.4

>  <rmsd>  (6) 
271.75

>  <cluster>  (6) 
1

$$$$

     RDKit          3D

 59 62  0  0  0  0  0  0  0  0999 V2000
  140.5600   70.9110  221.1430 O   0  0  0  0  0  0  0  0  0  0  0  0
  140.1700   71.5090  222.1890 C   0  0  0  0  0  0  0  0  0  0  0  0
  139.8940   72.9050  222.2200 N   0  0  0  0  0  0  0  0  0  0  0  0
  140.0580   73.6770  221.0250 C   0  0  0  0  0  0  0  0  0  0  0  0
  140.5810   75.0480  221.2950 C   0  0  0  0  0  0  0  0  0  0  0  0
  140.2670   75.6910  222.3420 O   0  0  0  0  0  0  0  0  0  0  0  0
  141.4530   75.6060  220.3140 N   0  0  0  0  0  0  0  0  0  0  0  0
  142.8500   75.3040  220.0520 C   0  0  0  0  0  0  0  0  0  0  0  0
  142.7800   75.0450  218.5570 C   0  0  2  0  0  0  0  0  0  0  0  0
  144.0040   75.1610  217.9240 O   0  0  0  0  0  0  0  0  0  0  0  0
  141.7900   76.0870  218.0980 C   0  0  0  0  0  0  0  0  0  0  0  0
  141.1040   76.6330  219.3370 C   0  0  2  0  0  0  0  0  0  0  0  0
  141.6370   77.9590  219.7300 C   0  0  0  0  0  0  0  0  0  0  0  0
  142.0520   78.7950  218.8920 O   0  0  0  0  0  0  0  0  0  0  0  0
  141.6760   78.2800  221.1000 N   0  0  0  0  0  0  0  0  0  0  0  0
  142.1630   79.5190  221.6260 C   0  0  0  0  0  0  0  0  0  0  0  0
  142.7470   79.4050  223.0110 C   0  0  0  0  0  0  0  0  0  0  0  0
  142.6500   80.7040  223.7390 C   0  0  0  0  0  0  0  0  0  0  0  0
  141.2830   81.2720  223.8850 C   0  0  0  0  0  0  0  0  0  0  0  0
  140.3300   80.5290  222.9950 C   0  0  0  0  0  0  0  0  0  0  0  0
  140.9540   80.4630  221.6180 C   0  0  0  0  0  0  0  0  0  0  0  0
  139.9870   70.7570  223.4400 C   0  0  0  0  0  0  0  0  0  0  0  0
  139.2890   69.5650  223.4590 C   0  0  0  0  0  0  0  0  0  0  0  0
  139.1290   68.8690  224.6580 C   0  0  0  0  0  0  0  0  0  0  0  0
  139.6600   69.3590  225.8340 C   0  0  0  0  0  0  0  0  0  0  0  0
  139.5270   68.7050  227.0480 C   0  0  0  0  0  0  0  0  0  0  0  0
  140.0850   69.2440  228.2100 C   0  0  0  0  0  0  0  0  0  0  0  0
  139.9730   68.6320  229.4080 F   0  0  0  0  0  0  0  0  0  0  0  0
  140.7820   70.4540  228.1440 C   0  0  0  0  0  0  0  0  0  0  0  0
  140.9140   71.1070  226.9300 C   0  0  0  0  0  0  0  0  0  0  0  0
  140.3600   70.5680  225.7830 C   0  0  0  0  0  0  0  0  0  0  0  0
  140.4840   71.1900  224.6140 N   0  0  0  0  0  0  0  0  0  0  0  0
  139.5730   73.3700  223.0990 H   0  0  0  0  0  0  0  0  0  0  0  0
  140.7638   73.1548  220.3623 H   0  0  0  0  0  0  0  0  0  0  0  0
  139.0674   73.7841  220.5589 H   0  0  0  0  0  0  0  0  0  0  0  0
  143.5046   76.1554  220.2899 H   0  0  0  0  0  0  0  0  0  0  0  0
  143.2687   74.4802  220.6487 H   0  0  0  0  0  0  0  0  0  0  0  0
  142.4801   74.0148  218.3146 H   0  0  0  0  0  0  0  0  0  0  0  0
  144.4150   75.9920  218.2630 H   0  0  0  0  0  0  0  0  0  0  0  0
  142.3138   76.8972  217.5696 H   0  0  0  0  0  0  0  0  0  0  0  0
  141.0552   75.6488  217.4066 H   0  0  0  0  0  0  0  0  0  0  0  0
  140.0245   76.8062  219.2156 H   0  0  0  0  0  0  0  0  0  0  0  0
  141.3260   77.5700  221.8100 H   0  0  0  0  0  0  0  0  0  0  0  0
  142.9977   79.8860  221.0108 H   0  0  0  0  0  0  0  0  0  0  0  0
  142.1958   78.6359  223.5720 H   0  0  0  0  0  0  0  0  0  0  0  0
  143.8085   79.1301  222.9230 H   0  0  0  0  0  0  0  0  0  0  0  0
  143.0616   80.5552  224.7482 H   0  0  0  0  0  0  0  0  0  0  0  0
  143.2069   81.4283  223.1264 H   0  0  0  0  0  0  0  0  0  0  0  0
  140.9568   81.1762  224.9311 H   0  0  0  0  0  0  0  0  0  0  0  0
  141.2968   82.3340  223.5987 H   0  0  0  0  0  0  0  0  0  0  0  0
  140.1678   79.5127  223.3833 H   0  0  0  0  0  0  0  0  0  0  0  0
  139.3567   81.0400  222.9560 H   0  0  0  0  0  0  0  0  0  0  0  0
  140.2086   80.0918  220.8992 H   0  0  0  0  0  0  0  0  0  0  0  0
  141.2883   81.4701  221.3280 H   0  0  0  0  0  0  0  0  0  0  0  0
  138.8593   69.1644  222.5290 H   0  0  0  0  0  0  0  0  0  0  0  0
  138.5736   67.9195  224.6659 H   0  0  0  0  0  0  0  0  0  0  0  0
  138.9775   67.7534  227.0975 H   0  0  0  0  0  0  0  0  0  0  0  0
  141.2243   70.8861  229.0537 H   0  0  0  0  0  0  0  0  0  0  0  0
  141.4622   72.0592  226.8776 H   0  0  0  0  0  0  0  0  0  0  0  0
  1  2  2  0
  2  3  1  0
  3  4  1  0
  4  5  1  0
  5  6  2  0
  5  7  1  0
  7  8  1  0
  8  9  1  0
  9 10  1  0
  9 11  1  0
 11 12  1  0
 12 13  1  0
 13 14  2  0
 13 15  1  0
 15 16  1  0
 16 17  1  0
 17 18  1  0
 18 19  1  0
 19 20  1  0
 20 21  1  0
  2 22  1  0
 22 23  2  0
 23 24  1  0
 24 25  2  0
 25 26  1  0
 26 27  2  0
 27 28  1  0
 27 29  1  0
 29 30  2  0
 30 31  1  0
 31 32  2  0
 12  7  1  0
 21 16  1  0
 32 22  1  0
 31 25  1  0
  3 33  1  0
  4 34  1  0
  4 35  1  0
  8 36  1  0
  8 37  1  0
  9 38  1  1
 10 39  1  0
 11 40  1  0
 11 41  1  0
 12 42  1  6
 15 43  1  0
 16 44  1  0
 17 45  1  0
 17 46  1  0
 18 47  1  0
 18 48  1  0
 19 49  1  0
 19 50  1  0
 20 51  1  0
 20 52  1  0
 21 53  1  0
 21 54  1  0
 23 55  1  0
 24 56  1  0
 26 57  1  0
 29 58  1  0
 30 59  1  0
M  END
>  <smiles>  (7) 
O=C(NCC(=O)N1C[C@H](O)C[C@@H]1C(=O)NC1CCCCC1)c1ccc2cc(F)ccc2n1

>  <score_type>  (7) 
oracle

>  <origin>  (7) 
autodockgpu

>  <m_score__min__energy>  (7) 
-9.3599999999999994

>  <m_primary>  (7) 
energy

>  <meeko>  (7) 
{"free_energy": -8.6, "intermolecular_energy": -10.68, "internal_energy": -2.44, "cluster_size": 15, "cluster_id": 1, "rank_in_cluster": 8}

>  <energy>  (7) 
-8.6

>  <cluster_rmsd>  (7) 
1.28

>  <rmsd>  (7) 
271.72

>  <cluster>  (7) 
1

$$$$

     RDKit          3D

 59 62  0  0  0  0  0  0  0  0999 V2000
  140.6950   73.9030  222.3380 O   0  0  0  0  0  0  0  0  0  0  0  0
  140.8000   74.5390  221.2470 C   0  0  0  0  0  0  0  0  0  0  0  0
  140.6700   73.9120  219.9760 N   0  0  0  0  0  0  0  0  0  0  0  0
  140.4070   72.5060  219.9130 C   0  0  0  0  0  0  0  0  0  0  0  0
  141.6410   71.7010  219.6790 C   0  0  0  0  0  0  0  0  0  0  0  0
  141.6720   70.4490  219.8780 O   0  0  0  0  0  0  0  0  0  0  0  0
  142.7910   72.4100  219.2210 N   0  0  0  0  0  0  0  0  0  0  0  0
  143.0270   73.0380  217.9330 C   0  0  0  0  0  0  0  0  0  0  0  0
  143.4590   74.4180  218.3960 C   0  0  2  0  0  0  0  0  0  0  0  0
  144.1700   75.1190  217.4400 O   0  0  0  0  0  0  0  0  0  0  0  0
  144.2860   74.1010  219.6170 C   0  0  0  0  0  0  0  0  0  0  0  0
  144.0110   72.6540  219.9830 C   0  0  2  0  0  0  0  0  0  0  0  0
  145.1080   71.7530  219.5570 C   0  0  0  0  0  0  0  0  0  0  0  0
  146.2820   72.1570  219.3770 O   0  0  0  0  0  0  0  0  0  0  0  0
  144.8080   70.3940  219.3460 N   0  0  0  0  0  0  0  0  0  0  0  0
  145.7620   69.4100  218.9340 C   0  0  0  0  0  0  0  0  0  0  0  0
  145.7460   69.1280  217.4540 C   0  0  0  0  0  0  0  0  0  0  0  0
  146.2380   67.7490  217.1680 C   0  0  0  0  0  0  0  0  0  0  0  0
  145.5020   66.6400  217.8340 C   0  0  0  0  0  0  0  0  0  0  0  0
  144.5930   67.1990  218.8880 C   0  0  0  0  0  0  0  0  0  0  0  0
  145.4130   68.1490  219.7350 C   0  0  0  0  0  0  0  0  0  0  0  0
  141.0690   75.9850  221.2630 C   0  0  0  0  0  0  0  0  0  0  0  0
  141.3370   76.6730  220.0950 C   0  0  0  0  0  0  0  0  0  0  0  0
  141.5890   78.0450  220.1350 C   0  0  0  0  0  0  0  0  0  0  0  0
  141.5760   78.7290  221.3340 C   0  0  0  0  0  0  0  0  0  0  0  0
  141.8210   80.0900  221.4260 C   0  0  0  0  0  0  0  0  0  0  0  0
  141.7960   80.7350  222.6640 C   0  0  0  0  0  0  0  0  0  0  0  0
  142.0300   82.0580  222.7860 F   0  0  0  0  0  0  0  0  0  0  0  0
  141.5220   79.9980  223.8200 C   0  0  0  0  0  0  0  0  0  0  0  0
  141.2780   78.6380  223.7280 C   0  0  0  0  0  0  0  0  0  0  0  0
  141.3030   78.0050  222.4980 C   0  0  0  0  0  0  0  0  0  0  0  0
  141.0690   76.7000  222.4050 N   0  0  0  0  0  0  0  0  0  0  0  0
  140.7620   74.4640  219.0930 H   0  0  0  0  0  0  0  0  0  0  0  0
  139.9550   72.1892  220.8645 H   0  0  0  0  0  0  0  0  0  0  0  0
  139.7297   72.3317  219.0639 H   0  0  0  0  0  0  0  0  0  0  0  0
  143.8216   72.5282  217.3684 H   0  0  0  0  0  0  0  0  0  0  0  0
  142.1696   73.0248  217.2440 H   0  0  0  0  0  0  0  0  0  0  0  0
  142.6094   75.0862  218.6002 H   0  0  0  0  0  0  0  0  0  0  0  0
  145.1190   75.0740  217.7110 H   0  0  0  0  0  0  0  0  0  0  0  0
  145.3546   74.2366  219.3939 H   0  0  0  0  0  0  0  0  0  0  0  0
  144.0247   74.7705  220.4498 H   0  0  0  0  0  0  0  0  0  0  0  0
  143.9234   72.4706  221.0641 H   0  0  0  0  0  0  0  0  0  0  0  0
  143.8120   70.0530  219.4970 H   0  0  0  0  0  0  0  0  0  0  0  0
  146.7822   69.7726  219.1283 H   0  0  0  0  0  0  0  0  0  0  0  0
  144.7164   69.2276  217.0798 H   0  0  0  0  0  0  0  0  0  0  0  0
  146.4092   69.8481  216.9525 H   0  0  0  0  0  0  0  0  0  0  0  0
  146.1761   67.5887  216.0815 H   0  0  0  0  0  0  0  0  0  0  0  0
  147.2602   67.7101  217.5726 H   0  0  0  0  0  0  0  0  0  0  0  0
  144.9050   66.0965  217.0868 H   0  0  0  0  0  0  0  0  0  0  0  0
  146.2228   65.9528  218.3011 H   0  0  0  0  0  0  0  0  0  0  0  0
  143.7588   67.7396  218.4170 H   0  0  0  0  0  0  0  0  0  0  0  0
  144.1721   66.3921  219.5059 H   0  0  0  0  0  0  0  0  0  0  0  0
  144.8335   68.4336  220.6256 H   0  0  0  0  0  0  0  0  0  0  0  0
  146.3443   67.6471  220.0361 H   0  0  0  0  0  0  0  0  0  0  0  0
  141.3517   76.1391  219.1334 H   0  0  0  0  0  0  0  0  0  0  0  0
  141.8002   78.5870  219.2014 H   0  0  0  0  0  0  0  0  0  0  0  0
  142.0372   80.6675  220.5151 H   0  0  0  0  0  0  0  0  0  0  0  0
  141.5003   80.4971  224.8000 H   0  0  0  0  0  0  0  0  0  0  0  0
  141.0632   78.0579  224.6376 H   0  0  0  0  0  0  0  0  0  0  0  0
  1  2  2  0
  2  3  1  0
  3  4  1  0
  4  5  1  0
  5  6  2  0
  5  7  1  0
  7  8  1  0
  8  9  1  0
  9 10  1  0
  9 11  1  0
 11 12  1  0
 12 13  1  0
 13 14  2  0
 13 15  1  0
 15 16  1  0
 16 17  1  0
 17 18  1  0
 18 19  1  0
 19 20  1  0
 20 21  1  0
  2 22  1  0
 22 23  2  0
 23 24  1  0
 24 25  2  0
 25 26  1  0
 26 27  2  0
 27 28  1  0
 27 29  1  0
 29 30  2  0
 30 31  1  0
 31 32  2  0
 12  7  1  0
 21 16  1  0
 32 22  1  0
 31 25  1  0
  3 33  1  0
  4 34  1  0
  4 35  1  0
  8 36  1  0
  8 37  1  0
  9 38  1  1
 10 39  1  0
 11 40  1  0
 11 41  1  0
 12 42  1  1
 15 43  1  0
 16 44  1  0
 17 45  1  0
 17 46  1  0
 18 47  1  0
 18 48  1  0
 19 49  1  0
 19 50  1  0
 20 51  1  0
 20 52  1  0
 21 53  1  0
 21 54  1  0
 23 55  1  0
 24 56  1  0
 26 57  1  0
 29 58  1  0
 30 59  1  0
M  END
>  <smiles>  (8) 
O=C(NCC(=O)N1C[C@H](O)C[C@@H]1C(=O)NC1CCCCC1)c1ccc2cc(F)ccc2n1

>  <score_type>  (8) 
oracle

>  <origin>  (8) 
autodockgpu

>  <m_score__min__energy>  (8) 
-9.3599999999999994

>  <m_primary>  (8) 
energy

>  <meeko>  (8) 
{"free_energy": -7.48, "intermolecular_energy": -9.57, "internal_energy": -2.67, "cluster_size": 2, "cluster_id": 3, "rank_in_cluster": 2}

>  <energy>  (8) 
-8.6

>  <cluster_rmsd>  (8) 
1.37

>  <rmsd>  (8) 
271.56

>  <cluster>  (8) 
1

$$$$

     RDKit          3D

 59 62  0  0  0  0  0  0  0  0999 V2000
  139.4560   70.5160  221.4340 O   0  0  0  0  0  0  0  0  0  0  0  0
  139.5610   71.4060  222.3300 C   0  0  0  0  0  0  0  0  0  0  0  0
  139.3070   72.7840  222.0800 N   0  0  0  0  0  0  0  0  0  0  0  0
  138.9140   73.1940  220.7650 C   0  0  0  0  0  0  0  0  0  0  0  0
  140.0720   73.3120  219.8310 C   0  0  0  0  0  0  0  0  0  0  0  0
  140.1030   72.6980  218.7220 O   0  0  0  0  0  0  0  0  0  0  0  0
  141.1470   74.1510  220.2460 N   0  0  0  0  0  0  0  0  0  0  0  0
  142.4190   73.7820  220.8450 C   0  0  0  0  0  0  0  0  0  0  0  0
  143.3640   74.5320  219.9220 C   0  0  2  0  0  0  0  0  0  0  0  0
  144.6140   74.7450  220.4730 O   0  0  0  0  0  0  0  0  0  0  0  0
  142.6140   75.8170  219.6720 C   0  0  0  0  0  0  0  0  0  0  0  0
  141.1890   75.6070  220.1520 C   0  0  2  0  0  0  0  0  0  0  0  0
  140.9460   76.2440  221.4670 C   0  0  0  0  0  0  0  0  0  0  0  0
  140.3380   75.6630  222.3980 O   0  0  0  0  0  0  0  0  0  0  0  0
  141.4180   77.5550  221.6680 N   0  0  0  0  0  0  0  0  0  0  0  0
  141.2570   78.2950  222.8820 C   0  0  0  0  0  0  0  0  0  0  0  0
  140.0560   79.2060  222.8850 C   0  0  0  0  0  0  0  0  0  0  0  0
  140.2620   80.3570  223.8120 C   0  0  0  0  0  0  0  0  0  0  0  0
  141.4550   81.2050  223.5480 C   0  0  0  0  0  0  0  0  0  0  0  0
  142.3520   80.5210  222.5600 C   0  0  0  0  0  0  0  0  0  0  0  0
  142.5540   79.0990  223.0390 C   0  0  0  0  0  0  0  0  0  0  0  0
  139.9610   71.0300  223.6950 C   0  0  0  0  0  0  0  0  0  0  0  0
  140.7010   71.8900  224.4830 C   0  0  0  0  0  0  0  0  0  0  0  0
  141.0690   71.5120  225.7750 C   0  0  0  0  0  0  0  0  0  0  0  0
  140.7020   70.2810  226.2800 C   0  0  0  0  0  0  0  0  0  0  0  0
  141.0430   69.8590  227.5550 C   0  0  0  0  0  0  0  0  0  0  0  0
  140.6470   68.6030  228.0180 C   0  0  0  0  0  0  0  0  0  0  0  0
  140.9630   68.1640  229.2550 F   0  0  0  0  0  0  0  0  0  0  0  0
  139.9000   67.7650  227.1850 C   0  0  0  0  0  0  0  0  0  0  0  0
  139.5590   68.1860  225.9110 C   0  0  0  0  0  0  0  0  0  0  0  0
  139.9540   69.4320  225.4580 C   0  0  0  0  0  0  0  0  0  0  0  0
  139.6300   69.8420  224.2360 N   0  0  0  0  0  0  0  0  0  0  0  0
  139.4020   73.4940  222.8390 H   0  0  0  0  0  0  0  0  0  0  0  0
  138.2092   72.4525  220.3606 H   0  0  0  0  0  0  0  0  0  0  0  0
  138.4517   74.1885  220.8501 H   0  0  0  0  0  0  0  0  0  0  0  0
  142.4988   74.1319  221.8848 H   0  0  0  0  0  0  0  0  0  0  0  0
  142.6022   72.7000  220.9206 H   0  0  0  0  0  0  0  0  0  0  0  0
  143.5989   73.9729  219.0043 H   0  0  0  0  0  0  0  0  0  0  0  0
  145.2550   74.7300  219.7230 H   0  0  0  0  0  0  0  0  0  0  0  0
  143.0820   76.6411  220.2304 H   0  0  0  0  0  0  0  0  0  0  0  0
  142.6313   76.0771  218.6033 H   0  0  0  0  0  0  0  0  0  0  0  0
  140.4223   76.0482  219.4981 H   0  0  0  0  0  0  0  0  0  0  0  0
  141.9320   78.0490  220.8780 H   0  0  0  0  0  0  0  0  0  0  0  0
  141.0753   77.6064  223.7203 H   0  0  0  0  0  0  0  0  0  0  0  0
  139.8919   79.5887  221.8668 H   0  0  0  0  0  0  0  0  0  0  0  0
  139.1813   78.6327  223.2261 H   0  0  0  0  0  0  0  0  0  0  0  0
  139.3721   81.0008  223.7512 H   0  0  0  0  0  0  0  0  0  0  0  0
  140.4302   79.9112  224.8034 H   0  0  0  0  0  0  0  0  0  0  0  0
  141.1319   82.1737  223.1391 H   0  0  0  0  0  0  0  0  0  0  0  0
  142.0034   81.3655  224.4880 H   0  0  0  0  0  0  0  0  0  0  0  0
  141.8830   80.5193  221.5650 H   0  0  0  0  0  0  0  0  0  0  0  0
  143.3160   81.0452  222.4835 H   0  0  0  0  0  0  0  0  0  0  0  0
  143.3489   78.6252  222.4443 H   0  0  0  0  0  0  0  0  0  0  0  0
  142.8379   79.1163  224.1016 H   0  0  0  0  0  0  0  0  0  0  0  0
  141.0004   72.8735  224.0918 H   0  0  0  0  0  0  0  0  0  0  0  0
  141.6576   72.2022  226.3973 H   0  0  0  0  0  0  0  0  0  0  0  0
  141.6313   70.5199  228.2085 H   0  0  0  0  0  0  0  0  0  0  0  0
  139.5838   66.7734  227.5410 H   0  0  0  0  0  0  0  0  0  0  0  0
  138.9711   67.5265  225.2557 H   0  0  0  0  0  0  0  0  0  0  0  0
  1  2  2  0
  2  3  1  0
  3  4  1  0
  4  5  1  0
  5  6  2  0
  5  7  1  0
  7  8  1  0
  8  9  1  0
  9 10  1  0
  9 11  1  0
 11 12  1  0
 12 13  1  0
 13 14  2  0
 13 15  1  0
 15 16  1  0
 16 17  1  0
 17 18  1  0
 18 19  1  0
 19 20  1  0
 20 21  1  0
  2 22  1  0
 22 23  2  0
 23 24  1  0
 24 25  2  0
 25 26  1  0
 26 27  2  0
 27 28  1  0
 27 29  1  0
 29 30  2  0
 30 31  1  0
 31 32  2  0
 12  7  1  0
 21 16  1  0
 32 22  1  0
 31 25  1  0
  3 33  1  0
  4 34  1  0
  4 35  1  0
  8 36  1  0
  8 37  1  0
  9 38  1  6
 10 39  1  0
 11 40  1  0
 11 41  1  0
 12 42  1  6
 15 43  1  0
 16 44  1  0
 17 45  1  0
 17 46  1  0
 18 47  1  0
 18 48  1  0
 19 49  1  0
 19 50  1  0
 20 51  1  0
 20 52  1  0
 21 53  1  0
 21 54  1  0
 23 55  1  0
 24 56  1  0
 26 57  1  0
 29 58  1  0
 30 59  1  0
M  END
>  <smiles>  (9) 
O=C(NCC(=O)N1C[C@H](O)C[C@@H]1C(=O)NC1CCCCC1)c1ccc2cc(F)ccc2n1

>  <score_type>  (9) 
oracle

>  <origin>  (9) 
autodockgpu

>  <m_score__min__energy>  (9) 
-9.3599999999999994

>  <m_primary>  (9) 
energy

>  <meeko>  (9) 
{"free_energy": -8.89, "intermolecular_energy": -10.98, "internal_energy": -2.08, "cluster_size": 15, "cluster_id": 1, "rank_in_cluster": 3}

>  <energy>  (9) 
-8.59

>  <cluster_rmsd>  (9) 
1.41

>  <rmsd>  (9) 
271.55

>  <cluster>  (9) 
1

$$$$

     RDKit          3D

 59 62  0  0  0  0  0  0  0  0999 V2000
  141.2450   71.8930  221.7050 O   0  0  0  0  0  0  0  0  0  0  0  0
  140.2870   72.0370  222.5210 C   0  0  0  0  0  0  0  0  0  0  0  0
  139.2890   73.0400  222.3670 N   0  0  0  0  0  0  0  0  0  0  0  0
  139.3590   73.9290  221.2460 C   0  0  0  0  0  0  0  0  0  0  0  0
  140.1190   75.1760  221.5490 C   0  0  0  0  0  0  0  0  0  0  0  0
  139.7840   75.9530  222.4940 O   0  0  0  0  0  0  0  0  0  0  0  0
  141.2450   75.4570  220.7200 N   0  0  0  0  0  0  0  0  0  0  0  0
  142.6100   74.9720  220.8320 C   0  0  0  0  0  0  0  0  0  0  0  0
  142.8170   74.4600  219.4180 C   0  0  2  0  0  0  0  0  0  0  0  0
  144.1490   74.3340  219.0700 O   0  0  0  0  0  0  0  0  0  0  0  0
  142.0990   75.5000  218.5930 C   0  0  0  0  0  0  0  0  0  0  0  0
  141.2540   76.3250  219.5460 C   0  0  2  0  0  0  0  0  0  0  0  0
  141.8740   77.6370  219.8450 C   0  0  0  0  0  0  0  0  0  0  0  0
  142.5940   78.2480  219.0200 O   0  0  0  0  0  0  0  0  0  0  0  0
  141.6390   78.2100  221.1100 N   0  0  0  0  0  0  0  0  0  0  0  0
  142.1700   79.4680  221.5380 C   0  0  0  0  0  0  0  0  0  0  0  0
  142.9240   79.3990  222.8420 C   0  0  0  0  0  0  0  0  0  0  0  0
  142.9000   80.7160  223.5420 C   0  0  0  0  0  0  0  0  0  0  0  0
  141.5530   81.2740  223.8430 C   0  0  0  0  0  0  0  0  0  0  0  0
  140.5080   80.4970  223.0990 C   0  0  0  0  0  0  0  0  0  0  0  0
  140.9560   80.3990  221.6560 C   0  0  0  0  0  0  0  0  0  0  0  0
  140.1750   71.1480  223.6870 C   0  0  0  0  0  0  0  0  0  0  0  0
  139.5870   69.9020  223.5790 C   0  0  0  0  0  0  0  0  0  0  0  0
  139.4920   69.0750  224.6990 C   0  0  0  0  0  0  0  0  0  0  0  0
  139.9800   69.4870  225.9230 C   0  0  0  0  0  0  0  0  0  0  0  0
  139.9080   68.7040  227.0630 C   0  0  0  0  0  0  0  0  0  0  0  0
  140.4170   69.1690  228.2780 C   0  0  0  0  0  0  0  0  0  0  0  0
  140.3630   68.4290  229.4060 F   0  0  0  0  0  0  0  0  0  0  0  0
  141.0020   70.4370  228.3410 C   0  0  0  0  0  0  0  0  0  0  0  0
  141.0730   71.2200  227.2010 C   0  0  0  0  0  0  0  0  0  0  0  0
  140.5670   70.7530  226.0010 C   0  0  0  0  0  0  0  0  0  0  0  0
  140.6330   71.5010  224.9030 N   0  0  0  0  0  0  0  0  0  0  0  0
  138.5110   73.1350  223.0570 H   0  0  0  0  0  0  0  0  0  0  0  0
  139.8546   73.4079  220.4136 H   0  0  0  0  0  0  0  0  0  0  0  0
  138.3303   74.2205  220.9875 H   0  0  0  0  0  0  0  0  0  0  0  0
  143.3126   75.7807  221.0815 H   0  0  0  0  0  0  0  0  0  0  0  0
  142.7769   74.2290  221.6258 H   0  0  0  0  0  0  0  0  0  0  0  0
  142.4335   73.4393  219.2727 H   0  0  0  0  0  0  0  0  0  0  0  0
  144.4380   75.2220  218.7500 H   0  0  0  0  0  0  0  0  0  0  0  0
  142.8288   76.1450  218.0818 H   0  0  0  0  0  0  0  0  0  0  0  0
  141.4701   75.0238  217.8264 H   0  0  0  0  0  0  0  0  0  0  0  0
  140.2581   76.5846  219.1577 H   0  0  0  0  0  0  0  0  0  0  0  0
  141.0290   77.6920  221.8100 H   0  0  0  0  0  0  0  0  0  0  0  0
  142.9163   79.8265  220.8138 H   0  0  0  0  0  0  0  0  0  0  0  0
  142.4582   78.6397  223.4874 H   0  0  0  0  0  0  0  0  0  0  0  0
  143.9700   79.1336  222.6291 H   0  0  0  0  0  0  0  0  0  0  0  0
  143.4361   80.5995  224.4954 H   0  0  0  0  0  0  0  0  0  0  0  0
  143.3660   81.4289  222.8458 H   0  0  0  0  0  0  0  0  0  0  0  0
  141.3609   81.2037  224.9238 H   0  0  0  0  0  0  0  0  0  0  0  0
  141.5162   82.3278  223.5299 H   0  0  0  0  0  0  0  0  0  0  0  0
  140.4098   79.4902  223.5311 H   0  0  0  0  0  0  0  0  0  0  0  0
  139.5306   80.9968  223.1684 H   0  0  0  0  0  0  0  0  0  0  0  0
  140.1319   79.9999  221.0464 H   0  0  0  0  0  0  0  0  0  0  0  0
  141.2371   81.4009  221.2995 H   0  0  0  0  0  0  0  0  0  0  0  0
  139.1937   69.5620  222.6096 H   0  0  0  0  0  0  0  0  0  0  0  0
  139.0233   68.0842  224.6056 H   0  0  0  0  0  0  0  0  0  0  0  0
  139.4459   67.7071  227.0113 H   0  0  0  0  0  0  0  0  0  0  0  0
  141.4048   70.8118  229.2935 H   0  0  0  0  0  0  0  0  0  0  0  0
  141.5337   72.2177  227.2498 H   0  0  0  0  0  0  0  0  0  0  0  0
  1  2  2  0
  2  3  1  0
  3  4  1  0
  4  5  1  0
  5  6  2  0
  5  7  1  0
  7  8  1  0
  8  9  1  0
  9 10  1  0
  9 11  1  0
 11 12  1  0
 12 13  1  0
 13 14  2  0
 13 15  1  0
 15 16  1  0
 16 17  1  0
 17 18  1  0
 18 19  1  0
 19 20  1  0
 20 21  1  0
  2 22  1  0
 22 23  2  0
 23 24  1  0
 24 25  2  0
 25 26  1  0
 26 27  2  0
 27 28  1  0
 27 29  1  0
 29 30  2  0
 30 31  1  0
 31 32  2  0
 12  7  1  0
 21 16  1  0
 32 22  1  0
 31 25  1  0
  3 33  1  0
  4 34  1  0
  4 35  1  0
  8 36  1  0
  8 37  1  0
  9 38  1  1
 10 39  1  0
 11 40  1  0
 11 41  1  0
 12 42  1  6
 15 43  1  0
 16 44  1  0
 17 45  1  0
 17 46  1  0
 18 47  1  0
 18 48  1  0
 19 49  1  0
 19 50  1  0
 20 51  1  0
 20 52  1  0
 21 53  1  0
 21 54  1  0
 23 55  1  0
 24 56  1  0
 26 57  1  0
 29 58  1  0
 30 59  1  0
M  END
>  <smiles>  (10) 
O=C(NCC(=O)N1C[C@H](O)C[C@@H]1C(=O)NC1CCCCC1)c1ccc2cc(F)ccc2n1

>  <score_type>  (10) 
oracle

>  <origin>  (10) 
autodockgpu

>  <m_score__min__energy>  (10) 
-9.3599999999999994

>  <m_primary>  (10) 
energy

>  <meeko>  (10) 
{"free_energy": -8.67, "intermolecular_energy": -10.76, "internal_energy": -2.31, "cluster_size": 15, "cluster_id": 1, "rank_in_cluster": 6}

>  <energy>  (10) 
-8.53

>  <cluster_rmsd>  (10) 
1.41

>  <rmsd>  (10) 
271.55

>  <cluster>  (10) 
1

$$$$

     RDKit          3D

 59 62  0  0  0  0  0  0  0  0999 V2000
  140.3940   74.3630  222.0980 O   0  0  0  0  0  0  0  0  0  0  0  0
  140.5910   73.1220  221.9350 C   0  0  0  0  0  0  0  0  0  0  0  0
  141.1610   72.5830  220.7470 N   0  0  0  0  0  0  0  0  0  0  0  0
  141.5330   73.4700  219.6860 C   0  0  0  0  0  0  0  0  0  0  0  0
  142.5420   74.4830  220.1120 C   0  0  0  0  0  0  0  0  0  0  0  0
  143.5270   74.1790  220.8510 O   0  0  0  0  0  0  0  0  0  0  0  0
  142.3460   75.8170  219.6480 N   0  0  0  0  0  0  0  0  0  0  0  0
  143.3350   76.8070  219.2580 C   0  0  0  0  0  0  0  0  0  0  0  0
  142.7840   77.1990  217.8980 C   0  0  2  0  0  0  0  0  0  0  0  0
  143.2420   78.4260  217.4550 O   0  0  0  0  0  0  0  0  0  0  0  0
  141.2950   77.1900  218.1430 C   0  0  0  0  0  0  0  0  0  0  0  0
  141.0610   76.4840  219.4660 C   0  0  2  0  0  0  0  0  0  0  0  0
  140.7830   77.4390  220.5640 C   0  0  0  0  0  0  0  0  0  0  0  0
  140.1750   78.5200  220.3820 O   0  0  0  0  0  0  0  0  0  0  0  0
  141.2270   77.1090  221.8590 N   0  0  0  0  0  0  0  0  0  0  0  0
  141.0320   77.9320  223.0140 C   0  0  0  0  0  0  0  0  0  0  0  0
  139.7000   78.6360  223.0430 C   0  0  0  0  0  0  0  0  0  0  0  0
  139.7770   79.8910  223.8450 C   0  0  0  0  0  0  0  0  0  0  0  0
  140.7900   80.8880  223.4050 C   0  0  0  0  0  0  0  0  0  0  0  0
  141.7150   80.2600  222.4060 C   0  0  0  0  0  0  0  0  0  0  0  0
  142.1850   78.9430  222.9880 C   0  0  0  0  0  0  0  0  0  0  0  0
  140.2240   72.1740  222.9980 C   0  0  0  0  0  0  0  0  0  0  0  0
  139.3350   71.1440  222.7580 C   0  0  0  0  0  0  0  0  0  0  0  0
  139.0020   70.2570  223.7830 C   0  0  0  0  0  0  0  0  0  0  0  0
  139.5520   70.3960  225.0410 C   0  0  0  0  0  0  0  0  0  0  0  0
  139.2520   69.5420  226.0910 C   0  0  0  0  0  0  0  0  0  0  0  0
  139.8360   69.7260  227.3460 C   0  0  0  0  0  0  0  0  0  0  0  0
  139.5650   68.9110  228.3870 F   0  0  0  0  0  0  0  0  0  0  0  0
  140.7300   70.7830  227.5430 C   0  0  0  0  0  0  0  0  0  0  0  0
  141.0280   71.6360  226.4940 C   0  0  0  0  0  0  0  0  0  0  0  0
  140.4470   71.4480  225.2530 C   0  0  0  0  0  0  0  0  0  0  0  0
  140.7300   72.2650  224.2430 N   0  0  0  0  0  0  0  0  0  0  0  0
  141.3110   71.5550  220.6410 H   0  0  0  0  0  0  0  0  0  0  0  0
  141.9561   72.8761  218.8624 H   0  0  0  0  0  0  0  0  0  0  0  0
  140.6286   74.0121  219.3726 H   0  0  0  0  0  0  0  0  0  0  0  0
  143.3562   77.6599  219.9523 H   0  0  0  0  0  0  0  0  0  0  0  0
  144.3753   76.4495  219.2537 H   0  0  0  0  0  0  0  0  0  0  0  0
  143.1031   76.5193  217.0941 H   0  0  0  0  0  0  0  0  0  0  0  0
  143.8580   78.2390  216.7050 H   0  0  0  0  0  0  0  0  0  0  0  0
  140.9154   78.2212  218.1940 H   0  0  0  0  0  0  0  0  0  0  0  0
  140.7685   76.6735  217.3269 H   0  0  0  0  0  0  0  0  0  0  0  0
  140.1896   75.8127  219.4720 H   0  0  0  0  0  0  0  0  0  0  0  0
  141.7450   76.1930  222.0130 H   0  0  0  0  0  0  0  0  0  0  0  0
  141.0274   77.3101  223.9213 H   0  0  0  0  0  0  0  0  0  0  0  0
  139.4018   78.8844  222.0137 H   0  0  0  0  0  0  0  0  0  0  0  0
  138.9600   77.9677  223.5076 H   0  0  0  0  0  0  0  0  0  0  0  0
  138.7901   80.3753  223.8068 H   0  0  0  0  0  0  0  0  0  0  0  0
  140.0881   79.5789  224.8529 H   0  0  0  0  0  0  0  0  0  0  0  0
  140.2813   81.7469  222.9430 H   0  0  0  0  0  0  0  0  0  0  0  0
  141.3699   81.2274  224.2759 H   0  0  0  0  0  0  0  0  0  0  0  0
  141.1826   80.0840  221.4596 H   0  0  0  0  0  0  0  0  0  0  0  0
  142.5702   80.9205  222.2003 H   0  0  0  0  0  0  0  0  0  0  0  0
  143.0034   78.5446  222.3703 H   0  0  0  0  0  0  0  0  0  0  0  0
  142.5372   79.1112  224.0164 H   0  0  0  0  0  0  0  0  0  0  0  0
  138.8898   71.0230  221.7594 H   0  0  0  0  0  0  0  0  0  0  0  0
  138.2938   69.4387  223.5860 H   0  0  0  0  0  0  0  0  0  0  0  0
  138.5475   68.7119  225.9341 H   0  0  0  0  0  0  0  0  0  0  0  0
  141.1949   70.9362  228.5281 H   0  0  0  0  0  0  0  0  0  0  0  0
  141.7308   72.4680  226.6484 H   0  0  0  0  0  0  0  0  0  0  0  0
  1  2  2  0
  2  3  1  0
  3  4  1  0
  4  5  1  0
  5  6  2  0
  5  7  1  0
  7  8  1  0
  8  9  1  0
  9 10  1  0
  9 11  1  0
 11 12  1  0
 12 13  1  0
 13 14  2  0
 13 15  1  0
 15 16  1  0
 16 17  1  0
 17 18  1  0
 18 19  1  0
 19 20  1  0
 20 21  1  0
  2 22  1  0
 22 23  2  0
 23 24  1  0
 24 25  2  0
 25 26  1  0
 26 27  2  0
 27 28  1  0
 27 29  1  0
 29 30  2  0
 30 31  1  0
 31 32  2  0
 12  7  1  0
 21 16  1  0
 32 22  1  0
 31 25  1  0
  3 33  1  0
  4 34  1  0
  4 35  1  0
  8 36  1  0
  8 37  1  0
  9 38  1  6
 10 39  1  0
 11 40  1  0
 11 41  1  0
 12 42  1  6
 15 43  1  0
 16 44  1  0
 17 45  1  0
 17 46  1  0
 18 47  1  0
 18 48  1  0
 19 49  1  0
 19 50  1  0
 20 51  1  0
 20 52  1  0
 21 53  1  0
 21 54  1  0
 23 55  1  0
 24 56  1  0
 26 57  1  0
 29 58  1  0
 30 59  1  0
M  END
>  <smiles>  (11) 
O=C(NCC(=O)N1C[C@H](O)C[C@@H]1C(=O)NC1CCCCC1)c1ccc2cc(F)ccc2n1

>  <score_type>  (11) 
oracle

>  <origin>  (11) 
autodockgpu

>  <m_score__min__energy>  (11) 
-9.3599999999999994

>  <m_primary>  (11) 
energy

>  <meeko>  (11) 
{"free_energy": -8.51, "intermolecular_energy": -10.59, "internal_energy": -2.45, "cluster_size": 15, "cluster_id": 1, "rank_in_cluster": 13}

>  <energy>  (11) 
-8.53

>  <cluster_rmsd>  (11) 
1.52

>  <rmsd>  (11) 
271.49

>  <cluster>  (11) 
1

$$$$

     RDKit          3D

 59 62  0  0  0  0  0  0  0  0999 V2000
  141.4530   72.1240  221.7700 O   0  0  0  0  0  0  0  0  0  0  0  0
  140.3930   72.1730  222.4620 C   0  0  0  0  0  0  0  0  0  0  0  0
  139.3360   73.0860  222.1860 N   0  0  0  0  0  0  0  0  0  0  0  0
  139.4630   73.9890  221.0820 C   0  0  0  0  0  0  0  0  0  0  0  0
  140.2480   75.2100  221.4260 C   0  0  0  0  0  0  0  0  0  0  0  0
  140.0110   75.8860  222.4730 O   0  0  0  0  0  0  0  0  0  0  0  0
  141.2820   75.5830  220.5180 N   0  0  0  0  0  0  0  0  0  0  0  0
  142.6650   75.1400  220.4720 C   0  0  0  0  0  0  0  0  0  0  0  0
  142.7530   74.7280  219.0130 C   0  0  2  0  0  0  0  0  0  0  0  0
  144.0500   74.6720  218.5370 O   0  0  0  0  0  0  0  0  0  0  0  0
  141.9310   75.7930  218.3300 C   0  0  0  0  0  0  0  0  0  0  0  0
  141.1550   76.5240  219.4110 C   0  0  2  0  0  0  0  0  0  0  0  0
  141.7620   77.8360  219.7400 C   0  0  0  0  0  0  0  0  0  0  0  0
  142.3570   78.5380  218.8870 O   0  0  0  0  0  0  0  0  0  0  0  0
  141.6620   78.3000  221.0650 N   0  0  0  0  0  0  0  0  0  0  0  0
  142.1980   79.5440  221.5280 C   0  0  0  0  0  0  0  0  0  0  0  0
  142.9430   79.4380  222.8340 C   0  0  0  0  0  0  0  0  0  0  0  0
  142.9220   80.7370  223.5670 C   0  0  0  0  0  0  0  0  0  0  0  0
  141.5770   81.2950  223.8730 C   0  0  0  0  0  0  0  0  0  0  0  0
  140.5320   80.5440  223.1030 C   0  0  0  0  0  0  0  0  0  0  0  0
  140.9900   80.4800  221.6610 C   0  0  0  0  0  0  0  0  0  0  0  0
  140.2190   71.2650  223.6050 C   0  0  0  0  0  0  0  0  0  0  0  0
  139.5600   70.0590  223.4640 C   0  0  0  0  0  0  0  0  0  0  0  0
  139.4070   69.2130  224.5630 C   0  0  0  0  0  0  0  0  0  0  0  0
  139.9070   69.5670  225.8000 C   0  0  0  0  0  0  0  0  0  0  0  0
  139.7800   68.7630  226.9210 C   0  0  0  0  0  0  0  0  0  0  0  0
  140.3050   69.1680  228.1500 C   0  0  0  0  0  0  0  0  0  0  0  0
  140.1980   68.4070  229.2590 F   0  0  0  0  0  0  0  0  0  0  0  0
  140.9640   70.3980  228.2470 C   0  0  0  0  0  0  0  0  0  0  0  0
  141.0900   71.2020  227.1270 C   0  0  0  0  0  0  0  0  0  0  0  0
  140.5680   70.7940  225.9120 C   0  0  0  0  0  0  0  0  0  0  0  0
  140.6870   71.5620  224.8330 N   0  0  0  0  0  0  0  0  0  0  0  0
  138.4740   73.1030  222.7750 H   0  0  0  0  0  0  0  0  0  0  0  0
  139.9681   73.4667  220.2561 H   0  0  0  0  0  0  0  0  0  0  0  0
  138.4506   74.3130  220.7989 H   0  0  0  0  0  0  0  0  0  0  0  0
  143.3642   75.9550  220.7103 H   0  0  0  0  0  0  0  0  0  0  0  0
  142.9271   74.3537  221.1952 H   0  0  0  0  0  0  0  0  0  0  0  0
  142.3873   73.7061  218.8343 H   0  0  0  0  0  0  0  0  0  0  0  0
  144.3930   75.5980  218.5540 H   0  0  0  0  0  0  0  0  0  0  0  0
  142.5905   76.4954  217.7992 H   0  0  0  0  0  0  0  0  0  0  0  0
  141.2473   75.3458  217.5934 H   0  0  0  0  0  0  0  0  0  0  0  0
  140.1197   76.7724  219.1346 H   0  0  0  0  0  0  0  0  0  0  0  0
  141.1590   77.7040  221.7880 H   0  0  0  0  0  0  0  0  0  0  0  0
  142.9512   79.9153  220.8176 H   0  0  0  0  0  0  0  0  0  0  0  0
  142.4689   78.6654  223.4571 H   0  0  0  0  0  0  0  0  0  0  0  0
  143.9889   79.1722  222.6209 H   0  0  0  0  0  0  0  0  0  0  0  0
  143.4510   80.5932  224.5207 H   0  0  0  0  0  0  0  0  0  0  0  0
  143.3968   81.4644  222.8922 H   0  0  0  0  0  0  0  0  0  0  0  0
  141.3774   81.1985  224.9504 H   0  0  0  0  0  0  0  0  0  0  0  0
  141.5487   82.3566  223.5861 H   0  0  0  0  0  0  0  0  0  0  0  0
  140.4243   79.5272  223.5087 H   0  0  0  0  0  0  0  0  0  0  0  0
  139.5571   81.0478  223.1787 H   0  0  0  0  0  0  0  0  0  0  0  0
  140.1677   80.1026  221.0353 H   0  0  0  0  0  0  0  0  0  0  0  0
  141.2806   81.4887  221.3324 H   0  0  0  0  0  0  0  0  0  0  0  0
  139.1554   69.7653  222.4842 H   0  0  0  0  0  0  0  0  0  0  0  0
  138.8823   68.2537  224.4424 H   0  0  0  0  0  0  0  0  0  0  0  0
  139.2607   67.7965  226.8423 H   0  0  0  0  0  0  0  0  0  0  0  0
  141.3811   70.7256  229.2107 H   0  0  0  0  0  0  0  0  0  0  0  0
  141.6075   72.1697  227.2032 H   0  0  0  0  0  0  0  0  0  0  0  0
  1  2  2  0
  2  3  1  0
  3  4  1  0
  4  5  1  0
  5  6  2  0
  5  7  1  0
  7  8  1  0
  8  9  1  0
  9 10  1  0
  9 11  1  0
 11 12  1  0
 12 13  1  0
 13 14  2  0
 13 15  1  0
 15 16  1  0
 16 17  1  0
 17 18  1  0
 18 19  1  0
 19 20  1  0
 20 21  1  0
  2 22  1  0
 22 23  2  0
 23 24  1  0
 24 25  2  0
 25 26  1  0
 26 27  2  0
 27 28  1  0
 27 29  1  0
 29 30  2  0
 30 31  1  0
 31 32  2  0
 12  7  1  0
 21 16  1  0
 32 22  1  0
 31 25  1  0
  3 33  1  0
  4 34  1  0
  4 35  1  0
  8 36  1  0
  8 37  1  0
  9 38  1  1
 10 39  1  0
 11 40  1  0
 11 41  1  0
 12 42  1  6
 15 43  1  0
 16 44  1  0
 17 45  1  0
 17 46  1  0
 18 47  1  0
 18 48  1  0
 19 49  1  0
 19 50  1  0
 20 51  1  0
 20 52  1  0
 21 53  1  0
 21 54  1  0
 23 55  1  0
 24 56  1  0
 26 57  1  0
 29 58  1  0
 30 59  1  0
M  END
>  <smiles>  (12) 
O=C(NCC(=O)N1C[C@H](O)C[C@@H]1C(=O)NC1CCCCC1)c1ccc2cc(F)ccc2n1

>  <score_type>  (12) 
oracle

>  <origin>  (12) 
autodockgpu

>  <m_score__min__energy>  (12) 
-9.3599999999999994

>  <m_primary>  (12) 
energy

>  <meeko>  (12) 
{"free_energy": -8.74, "intermolecular_energy": -10.83, "internal_energy": -2.27, "cluster_size": 15, "cluster_id": 1, "rank_in_cluster": 5}

>  <energy>  (12) 
-8.53

>  <cluster_rmsd>  (12) 
1.4

>  <rmsd>  (12) 
271.55

>  <cluster>  (12) 
1

$$$$

     RDKit          3D

 59 62  0  0  0  0  0  0  0  0999 V2000
  139.7590   70.9510  221.0690 O   0  0  0  0  0  0  0  0  0  0  0  0
  139.7380   71.5010  222.2100 C   0  0  0  0  0  0  0  0  0  0  0  0
  139.7190   72.9140  222.3840 N   0  0  0  0  0  0  0  0  0  0  0  0
  139.7220   73.7600  221.2290 C   0  0  0  0  0  0  0  0  0  0  0  0
  140.3820   75.0740  221.4810 C   0  0  0  0  0  0  0  0  0  0  0  0
  140.0880   75.7890  222.4870 O   0  0  0  0  0  0  0  0  0  0  0  0
  141.3620   75.4920  220.5330 N   0  0  0  0  0  0  0  0  0  0  0  0
  142.7540   75.0930  220.4180 C   0  0  0  0  0  0  0  0  0  0  0  0
  142.7880   74.7030  218.9500 C   0  0  2  0  0  0  0  0  0  0  0  0
  144.0630   74.6930  218.4160 O   0  0  0  0  0  0  0  0  0  0  0  0
  141.9030   75.7500  218.3210 C   0  0  0  0  0  0  0  0  0  0  0  0
  141.1560   76.4430  219.4460 C   0  0  2  0  0  0  0  0  0  0  0  0
  141.7370   77.7680  219.7660 C   0  0  0  0  0  0  0  0  0  0  0  0
  142.2970   78.4870  218.9040 O   0  0  0  0  0  0  0  0  0  0  0  0
  141.6520   78.2270  221.0950 N   0  0  0  0  0  0  0  0  0  0  0  0
  142.1660   79.4830  221.5500 C   0  0  0  0  0  0  0  0  0  0  0  0
  142.8760   79.4050  222.8770 C   0  0  0  0  0  0  0  0  0  0  0  0
  142.8260   80.7170  223.5860 C   0  0  0  0  0  0  0  0  0  0  0  0
  141.4700   81.2700  223.8460 C   0  0  0  0  0  0  0  0  0  0  0  0
  140.4510   80.4970  223.0620 C   0  0  0  0  0  0  0  0  0  0  0  0
  140.9480   80.4110  221.6340 C   0  0  0  0  0  0  0  0  0  0  0  0
  139.7340   70.6720  223.4250 C   0  0  0  0  0  0  0  0  0  0  0  0
  139.1950   69.4000  223.4180 C   0  0  0  0  0  0  0  0  0  0  0  0
  139.2030   68.6310  224.5830 C   0  0  0  0  0  0  0  0  0  0  0  0
  139.7450   69.1280  225.7510 C   0  0  0  0  0  0  0  0  0  0  0  0
  139.7750   68.4050  226.9320 C   0  0  0  0  0  0  0  0  0  0  0  0
  140.3360   68.9530  228.0870 C   0  0  0  0  0  0  0  0  0  0  0  0
  140.3820   68.2740  229.2530 F   0  0  0  0  0  0  0  0  0  0  0  0
  140.8700   70.2450  228.0480 C   0  0  0  0  0  0  0  0  0  0  0  0
  140.8390   70.9680  226.8680 C   0  0  0  0  0  0  0  0  0  0  0  0
  140.2820   70.4180  225.7270 C   0  0  0  0  0  0  0  0  0  0  0  0
  140.2500   71.1080  224.5910 N   0  0  0  0  0  0  0  0  0  0  0  0
  139.7030   73.3370  223.3380 H   0  0  0  0  0  0  0  0  0  0  0  0
  140.2585   73.2463  220.4176 H   0  0  0  0  0  0  0  0  0  0  0  0
  138.6743   73.9600  220.9602 H   0  0  0  0  0  0  0  0  0  0  0  0
  143.4382   75.9262  220.6363 H   0  0  0  0  0  0  0  0  0  0  0  0
  143.0727   74.3058  221.1171 H   0  0  0  0  0  0  0  0  0  0  0  0
  142.4460   73.6728  218.7721 H   0  0  0  0  0  0  0  0  0  0  0  0
  144.4280   75.6010  218.5510 H   0  0  0  0  0  0  0  0  0  0  0  0
  142.5153   76.4792  217.7702 H   0  0  0  0  0  0  0  0  0  0  0  0
  141.1997   75.2906  217.6109 H   0  0  0  0  0  0  0  0  0  0  0  0
  140.1022   76.6631  219.2201 H   0  0  0  0  0  0  0  0  0  0  0  0
  141.1780   77.6170  221.8260 H   0  0  0  0  0  0  0  0  0  0  0  0
  142.9352   79.8485  220.8538 H   0  0  0  0  0  0  0  0  0  0  0  0
  142.3905   78.6399  223.5007 H   0  0  0  0  0  0  0  0  0  0  0  0
  143.9291   79.1428  222.6971 H   0  0  0  0  0  0  0  0  0  0  0  0
  143.3303   80.5941  224.5558 H   0  0  0  0  0  0  0  0  0  0  0  0
  143.3134   81.4359  222.9110 H   0  0  0  0  0  0  0  0  0  0  0  0
  141.2425   81.1913  224.9193 H   0  0  0  0  0  0  0  0  0  0  0  0
  141.4418   82.3260  223.5394 H   0  0  0  0  0  0  0  0  0  0  0  0
  140.3400   79.4868  223.4829 H   0  0  0  0  0  0  0  0  0  0  0  0
  139.4707   80.9943  223.1027 H   0  0  0  0  0  0  0  0  0  0  0  0
  140.1457   80.0158  220.9936 H   0  0  0  0  0  0  0  0  0  0  0  0
  141.2396   81.4161  221.2952 H   0  0  0  0  0  0  0  0  0  0  0  0
  138.7592   68.9929  222.4937 H   0  0  0  0  0  0  0  0  0  0  0  0
  138.7730   67.6186  224.5700 H   0  0  0  0  0  0  0  0  0  0  0  0
  139.3529   67.3896  226.9602 H   0  0  0  0  0  0  0  0  0  0  0  0
  141.3136   70.6857  228.9530 H   0  0  0  0  0  0  0  0  0  0  0  0
  141.2590   71.9842  226.8372 H   0  0  0  0  0  0  0  0  0  0  0  0
  1  2  2  0
  2  3  1  0
  3  4  1  0
  4  5  1  0
  5  6  2  0
  5  7  1  0
  7  8  1  0
  8  9  1  0
  9 10  1  0
  9 11  1  0
 11 12  1  0
 12 13  1  0
 13 14  2  0
 13 15  1  0
 15 16  1  0
 16 17  1  0
 17 18  1  0
 18 19  1  0
 19 20  1  0
 20 21  1  0
  2 22  1  0
 22 23  2  0
 23 24  1  0
 24 25  2  0
 25 26  1  0
 26 27  2  0
 27 28  1  0
 27 29  1  0
 29 30  2  0
 30 31  1  0
 31 32  2  0
 12  7  1  0
 21 16  1  0
 32 22  1  0
 31 25  1  0
  3 33  1  0
  4 34  1  0
  4 35  1  0
  8 36  1  0
  8 37  1  0
  9 38  1  1
 10 39  1  0
 11 40  1  0
 11 41  1  0
 12 42  1  6
 15 43  1  0
 16 44  1  0
 17 45  1  0
 17 46  1  0
 18 47  1  0
 18 48  1  0
 19 49  1  0
 19 50  1  0
 20 51  1  0
 20 52  1  0
 21 53  1  0
 21 54  1  0
 23 55  1  0
 24 56  1  0
 26 57  1  0
 29 58  1  0
 30 59  1  0
M  END
>  <smiles>  (13) 
O=C(NCC(=O)N1C[C@H](O)C[C@@H]1C(=O)NC1CCCCC1)c1ccc2cc(F)ccc2n1

>  <score_type>  (13) 
oracle

>  <origin>  (13) 
autodockgpu

>  <m_score__min__energy>  (13) 
-9.3599999999999994

>  <m_primary>  (13) 
energy

>  <meeko>  (13) 
{"free_energy": -8.53, "intermolecular_energy": -10.62, "internal_energy": -2.49, "cluster_size": 15, "cluster_id": 1, "rank_in_cluster": 10}

>  <energy>  (13) 
-8.51

>  <cluster_rmsd>  (13) 
1.27

>  <rmsd>  (13) 
271.34

>  <cluster>  (13) 
1

$$$$

     RDKit          3D

 59 62  0  0  0  0  0  0  0  0999 V2000
  138.1110   71.6050  222.0510 O   0  0  0  0  0  0  0  0  0  0  0  0
  139.2140   71.5740  222.6730 C   0  0  0  0  0  0  0  0  0  0  0  0
  140.3330   72.3690  222.2950 N   0  0  0  0  0  0  0  0  0  0  0  0
  140.2190   73.2450  221.1680 C   0  0  0  0  0  0  0  0  0  0  0  0
  140.2440   74.6860  221.5560 C   0  0  0  0  0  0  0  0  0  0  0  0
  141.3040   75.2540  221.9580 O   0  0  0  0  0  0  0  0  0  0  0  0
  139.0120   75.3980  221.4550 N   0  0  0  0  0  0  0  0  0  0  0  0
  138.2590   75.7620  220.2670 C   0  0  0  0  0  0  0  0  0  0  0  0
  136.8920   75.2260  220.6550 C   0  0  2  0  0  0  0  0  0  0  0  0
  135.8570   75.7940  219.9360 O   0  0  0  0  0  0  0  0  0  0  0  0
  136.8260   75.5550  222.1260 C   0  0  0  0  0  0  0  0  0  0  0  0
  138.2300   75.9260  222.5680 C   0  0  2  0  0  0  0  0  0  0  0  0
  138.4010   77.3920  222.7050 C   0  0  0  0  0  0  0  0  0  0  0  0
  137.4500   78.1600  222.9850 O   0  0  0  0  0  0  0  0  0  0  0  0
  139.6860   77.9320  222.5090 N   0  0  0  0  0  0  0  0  0  0  0  0
  140.0010   79.3240  222.6080 C   0  0  0  0  0  0  0  0  0  0  0  0
  140.6510   79.8920  221.3720 C   0  0  0  0  0  0  0  0  0  0  0  0
  141.4990   81.0720  221.7090 C   0  0  0  0  0  0  0  0  0  0  0  0
  142.5800   80.8390  222.7040 C   0  0  0  0  0  0  0  0  0  0  0  0
  142.3780   79.5080  223.3660 C   0  0  0  0  0  0  0  0  0  0  0  0
  140.9350   79.4410  223.8190 C   0  0  0  0  0  0  0  0  0  0  0  0
  139.3770   70.6890  223.8360 C   0  0  0  0  0  0  0  0  0  0  0  0
  138.8580   69.4090  223.8360 C   0  0  0  0  0  0  0  0  0  0  0  0
  139.0250   68.5880  224.9520 C   0  0  0  0  0  0  0  0  0  0  0  0
  139.7060   69.0400  226.0640 C   0  0  0  0  0  0  0  0  0  0  0  0
  139.8970   68.2630  227.1960 C   0  0  0  0  0  0  0  0  0  0  0  0
  140.5940   68.7690  228.2950 C   0  0  0  0  0  0  0  0  0  0  0  0
  140.7970   68.0370  229.4110 F   0  0  0  0  0  0  0  0  0  0  0  0
  141.1010   70.0710  228.2510 C   0  0  0  0  0  0  0  0  0  0  0  0
  140.9090   70.8470  227.1210 C   0  0  0  0  0  0  0  0  0  0  0  0
  140.2190   70.3400  226.0350 C   0  0  0  0  0  0  0  0  0  0  0  0
  140.0320   71.0810  224.9470 N   0  0  0  0  0  0  0  0  0  0  0  0
  141.2300   72.3220  222.8280 H   0  0  0  0  0  0  0  0  0  0  0  0
  141.0579   73.0498  220.4838 H   0  0  0  0  0  0  0  0  0  0  0  0
  139.2493   73.0460  220.6882 H   0  0  0  0  0  0  0  0  0  0  0  0
  138.2425   76.8507  220.1105 H   0  0  0  0  0  0  0  0  0  0  0  0
  138.6620   75.3697  219.3216 H   0  0  0  0  0  0  0  0  0  0  0  0
  136.7745   74.1542  220.4374 H   0  0  0  0  0  0  0  0  0  0  0  0
  135.1710   75.0910  219.8340 H   0  0  0  0  0  0  0  0  0  0  0  0
  136.1429   76.4010  222.2924 H   0  0  0  0  0  0  0  0  0  0  0  0
  136.4505   74.6958  222.7012 H   0  0  0  0  0  0  0  0  0  0  0  0
  138.5112   75.5327  223.5560 H   0  0  0  0  0  0  0  0  0  0  0  0
  140.4930   77.2810  222.2690 H   0  0  0  0  0  0  0  0  0  0  0  0
  139.0769   79.9100  222.7202 H   0  0  0  0  0  0  0  0  0  0  0  0
  141.2797   79.1178  220.9079 H   0  0  0  0  0  0  0  0  0  0  0  0
  139.8615   80.2144  220.6772 H   0  0  0  0  0  0  0  0  0  0  0  0
  141.9687   81.4247  220.7790 H   0  0  0  0  0  0  0  0  0  0  0  0
  140.8195   81.8000  222.1763 H   0  0  0  0  0  0  0  0  0  0  0  0
  143.5548   80.8500  222.1945 H   0  0  0  0  0  0  0  0  0  0  0  0
  142.5526   81.6328  223.4650 H   0  0  0  0  0  0  0  0  0  0  0  0
  142.5857   78.6976  222.6517 H   0  0  0  0  0  0  0  0  0  0  0  0
  143.0592   79.3931  224.2220 H   0  0  0  0  0  0  0  0  0  0  0  0
  140.7990   78.5634  224.4681 H   0  0  0  0  0  0  0  0  0  0  0  0
  140.6907   80.3603  224.3714 H   0  0  0  0  0  0  0  0  0  0  0  0
  138.3129   69.0367  222.9561 H   0  0  0  0  0  0  0  0  0  0  0  0
  138.6093   67.5696  224.9453 H   0  0  0  0  0  0  0  0  0  0  0  0
  139.4961   67.2392  227.2287 H   0  0  0  0  0  0  0  0  0  0  0  0
  141.6512   70.4778  229.1123 H   0  0  0  0  0  0  0  0  0  0  0  0
  141.3071   71.8718  227.0866 H   0  0  0  0  0  0  0  0  0  0  0  0
  1  2  2  0
  2  3  1  0
  3  4  1  0
  4  5  1  0
  5  6  2  0
  5  7  1  0
  7  8  1  0
  8  9  1  0
  9 10  1  0
  9 11  1  0
 11 12  1  0
 12 13  1  0
 13 14  2  0
 13 15  1  0
 15 16  1  0
 16 17  1  0
 17 18  1  0
 18 19  1  0
 19 20  1  0
 20 21  1  0
  2 22  1  0
 22 23  2  0
 23 24  1  0
 24 25  2  0
 25 26  1  0
 26 27  2  0
 27 28  1  0
 27 29  1  0
 29 30  2  0
 30 31  1  0
 31 32  2  0
 12  7  1  0
 21 16  1  0
 32 22  1  0
 31 25  1  0
  3 33  1  0
  4 34  1  0
  4 35  1  0
  8 36  1  0
  8 37  1  0
  9 38  1  1
 10 39  1  0
 11 40  1  0
 11 41  1  0
 12 42  1  1
 15 43  1  0
 16 44  1  0
 17 45  1  0
 17 46  1  0
 18 47  1  0
 18 48  1  0
 19 49  1  0
 19 50  1  0
 20 51  1  0
 20 52  1  0
 21 53  1  0
 21 54  1  0
 23 55  1  0
 24 56  1  0
 26 57  1  0
 29 58  1  0
 30 59  1  0
M  END
>  <smiles>  (14) 
O=C(NCC(=O)N1C[C@H](O)C[C@@H]1C(=O)NC1CCCCC1)c1ccc2cc(F)ccc2n1

>  <score_type>  (14) 
oracle

>  <origin>  (14) 
autodockgpu

>  <m_score__min__energy>  (14) 
-9.3599999999999994

>  <m_primary>  (14) 
energy

>  <meeko>  (14) 
{"free_energy": -7.53, "intermolecular_energy": -9.62, "internal_energy": -2.48, "cluster_size": 3, "cluster_id": 2, "rank_in_cluster": 3}

>  <energy>  (14) 
-8.49

>  <cluster_rmsd>  (14) 
1.4

>  <rmsd>  (14) 
271.56

>  <cluster>  (14) 
1

$$$$

     RDKit          3D

 59 62  0  0  0  0  0  0  0  0999 V2000
  138.1500   70.6150  221.5530 O   0  0  0  0  0  0  0  0  0  0  0  0
  138.7000   71.1650  222.5530 C   0  0  0  0  0  0  0  0  0  0  0  0
  138.9690   72.5620  222.6130 N   0  0  0  0  0  0  0  0  0  0  0  0
  138.6070   73.3900  221.5030 C   0  0  0  0  0  0  0  0  0  0  0  0
  138.8440   74.8400  221.7660 C   0  0  0  0  0  0  0  0  0  0  0  0
  137.9880   75.5620  222.3610 O   0  0  0  0  0  0  0  0  0  0  0  0
  140.0850   75.3780  221.3140 N   0  0  0  0  0  0  0  0  0  0  0  0
  141.4360   74.9150  221.5810 C   0  0  0  0  0  0  0  0  0  0  0  0
  141.9670   74.8430  220.1600 C   0  0  2  0  0  0  0  0  0  0  0  0
  143.3480   74.8570  220.0890 O   0  0  0  0  0  0  0  0  0  0  0  0
  141.3420   76.0600  219.5230 C   0  0  0  0  0  0  0  0  0  0  0  0
  140.2540   76.5500  220.4620 C   0  0  2  0  0  0  0  0  0  0  0  0
  140.6850   77.7330  221.2430 C   0  0  0  0  0  0  0  0  0  0  0  0
  141.5380   78.5480  220.8190 O   0  0  0  0  0  0  0  0  0  0  0  0
  140.1080   77.9380  222.5100 N   0  0  0  0  0  0  0  0  0  0  0  0
  140.4260   79.0330  223.3750 C   0  0  0  0  0  0  0  0  0  0  0  0
  140.3910   80.3770  222.6940 C   0  0  0  0  0  0  0  0  0  0  0  0
  141.2920   81.3470  223.3830 C   0  0  0  0  0  0  0  0  0  0  0  0
  142.7210   80.9490  223.4940 C   0  0  0  0  0  0  0  0  0  0  0  0
  142.8710   79.5020  223.1310 C   0  0  0  0  0  0  0  0  0  0  0  0
  141.8300   78.7280  223.9120 C   0  0  0  0  0  0  0  0  0  0  0  0
  139.0900   70.3530  223.7160 C   0  0  0  0  0  0  0  0  0  0  0  0
  138.8490   68.9930  223.7490 C   0  0  0  0  0  0  0  0  0  0  0  0
  139.2280   68.2430  224.8640 C   0  0  0  0  0  0  0  0  0  0  0  0
  139.8430   68.8460  225.9420 C   0  0  0  0  0  0  0  0  0  0  0  0
  140.2370   68.1450  227.0710 C   0  0  0  0  0  0  0  0  0  0  0  0
  140.8570   68.8020  228.1350 C   0  0  0  0  0  0  0  0  0  0  0  0
  141.2520   68.1480  229.2480 F   0  0  0  0  0  0  0  0  0  0  0  0
  141.0800   70.1810  228.0590 C   0  0  0  0  0  0  0  0  0  0  0  0
  140.6860   70.8810  226.9310 C   0  0  0  0  0  0  0  0  0  0  0  0
  140.0730   70.2230  225.8800 C   0  0  0  0  0  0  0  0  0  0  0  0
  139.6930   70.8900  224.7950 N   0  0  0  0  0  0  0  0  0  0  0  0
  139.4240   72.9860  223.4510 H   0  0  0  0  0  0  0  0  0  0  0  0
  139.2036   73.0885  220.6294 H   0  0  0  0  0  0  0  0  0  0  0  0
  137.5298   73.2558  221.3251 H   0  0  0  0  0  0  0  0  0  0  0  0
  142.0013   75.6327  222.1936 H   0  0  0  0  0  0  0  0  0  0  0  0
  141.5033   73.9773  222.1521 H   0  0  0  0  0  0  0  0  0  0  0  0
  141.7106   73.8998  219.6554 H   0  0  0  0  0  0  0  0  0  0  0  0
  143.6590   75.4180  220.8400 H   0  0  0  0  0  0  0  0  0  0  0  0
  142.1008   76.8441  219.3838 H   0  0  0  0  0  0  0  0  0  0  0  0
  140.9236   75.8126  218.5362 H   0  0  0  0  0  0  0  0  0  0  0  0
  139.3375   76.8868  219.9555 H   0  0  0  0  0  0  0  0  0  0  0  0
  139.3860   77.2460  222.8710 H   0  0  0  0  0  0  0  0  0  0  0  0
  139.6710   79.1143  224.1708 H   0  0  0  0  0  0  0  0  0  0  0  0
  140.7181   80.2605  221.6503 H   0  0  0  0  0  0  0  0  0  0  0  0
  139.3621   80.7641  222.7333 H   0  0  0  0  0  0  0  0  0  0  0  0
  141.2498   82.2964  222.8291 H   0  0  0  0  0  0  0  0  0  0  0  0
  140.9221   81.4101  224.4170 H   0  0  0  0  0  0  0  0  0  0  0  0
  143.3258   81.5624  222.8100 H   0  0  0  0  0  0  0  0  0  0  0  0
  143.0633   81.1031  224.5280 H   0  0  0  0  0  0  0  0  0  0  0  0
  142.7085   79.3665  222.0515 H   0  0  0  0  0  0  0  0  0  0  0  0
  143.8827   79.1442  223.3727 H   0  0  0  0  0  0  0  0  0  0  0  0
  142.0298   77.6507  223.8142 H   0  0  0  0  0  0  0  0  0  0  0  0
  141.8812   79.0263  224.9695 H   0  0  0  0  0  0  0  0  0  0  0  0
  138.3583   68.5008  222.8964 H   0  0  0  0  0  0  0  0  0  0  0  0
  139.0343   67.1603  224.8833 H   0  0  0  0  0  0  0  0  0  0  0  0
  140.0594   67.0610  227.1290 H   0  0  0  0  0  0  0  0  0  0  0  0
  141.5669   70.7078  228.8929 H   0  0  0  0  0  0  0  0  0  0  0  0
  140.8613   71.9652  226.8705 H   0  0  0  0  0  0  0  0  0  0  0  0
  1  2  2  0
  2  3  1  0
  3  4  1  0
  4  5  1  0
  5  6  2  0
  5  7  1  0
  7  8  1  0
  8  9  1  0
  9 10  1  0
  9 11  1  0
 11 12  1  0
 12 13  1  0
 13 14  2  0
 13 15  1  0
 15 16  1  0
 16 17  1  0
 17 18  1  0
 18 19  1  0
 19 20  1  0
 20 21  1  0
  2 22  1  0
 22 23  2  0
 23 24  1  0
 24 25  2  0
 25 26  1  0
 26 27  2  0
 27 28  1  0
 27 29  1  0
 29 30  2  0
 30 31  1  0
 31 32  2  0
 12  7  1  0
 21 16  1  0
 32 22  1  0
 31 25  1  0
  3 33  1  0
  4 34  1  0
  4 35  1  0
  8 36  1  0
  8 37  1  0
  9 38  1  6
 10 39  1  0
 11 40  1  0
 11 41  1  0
 12 42  1  6
 15 43  1  0
 16 44  1  0
 17 45  1  0
 17 46  1  0
 18 47  1  0
 18 48  1  0
 19 49  1  0
 19 50  1  0
 20 51  1  0
 20 52  1  0
 21 53  1  0
 21 54  1  0
 23 55  1  0
 24 56  1  0
 26 57  1  0
 29 58  1  0
 30 59  1  0
M  END
>  <smiles>  (15) 
O=C(NCC(=O)N1C[C@H](O)C[C@@H]1C(=O)NC1CCCCC1)c1ccc2cc(F)ccc2n1

>  <score_type>  (15) 
oracle

>  <origin>  (15) 
autodockgpu

>  <m_score__min__energy>  (15) 
-9.3599999999999994

>  <m_primary>  (15) 
energy

>  <meeko>  (15) 
{"free_energy": -8.3, "intermolecular_energy": -10.39, "internal_energy": -2.41, "cluster_size": 15, "cluster_id": 1, "rank_in_cluster": 15}

>  <energy>  (15) 
-8.3

>  <cluster_rmsd>  (15) 
1.76

>  <rmsd>  (15) 
271.71

>  <cluster>  (15) 
1

$$$$

     RDKit          3D

 59 62  0  0  0  0  0  0  0  0999 V2000
  140.6200   73.9810  222.3410 O   0  0  0  0  0  0  0  0  0  0  0  0
  140.6720   74.6370  221.2580 C   0  0  0  0  0  0  0  0  0  0  0  0
  140.4570   74.0390  219.9840 N   0  0  0  0  0  0  0  0  0  0  0  0
  140.1670   72.6390  219.9100 C   0  0  0  0  0  0  0  0  0  0  0  0
  141.3610   71.8240  219.5390 C   0  0  0  0  0  0  0  0  0  0  0  0
  141.3390   70.5560  219.5580 O   0  0  0  0  0  0  0  0  0  0  0  0
  142.5340   72.5410  219.1610 N   0  0  0  0  0  0  0  0  0  0  0  0
  142.7650   73.3690  217.9890 C   0  0  0  0  0  0  0  0  0  0  0  0
  143.2890   74.6250  218.6620 C   0  0  2  0  0  0  0  0  0  0  0  0
  144.0090   75.4430  217.8110 O   0  0  0  0  0  0  0  0  0  0  0  0
  144.1350   74.0610  219.7770 C   0  0  0  0  0  0  0  0  0  0  0  0
  143.7890   72.5880  219.9030 C   0  0  2  0  0  0  0  0  0  0  0  0
  144.8190   71.7200  219.2850 C   0  0  0  0  0  0  0  0  0  0  0  0
  146.0080   72.0870  219.1310 O   0  0  0  0  0  0  0  0  0  0  0  0
  144.4340   70.4350  218.8570 N   0  0  0  0  0  0  0  0  0  0  0  0
  145.3170   69.4900  218.2440 C   0  0  0  0  0  0  0  0  0  0  0  0
  144.6180   68.2770  217.6840 C   0  0  0  0  0  0  0  0  0  0  0  0
  145.5360   67.1020  217.6480 C   0  0  0  0  0  0  0  0  0  0  0  0
  146.1370   66.7000  218.9480 C   0  0  0  0  0  0  0  0  0  0  0  0
  145.8970   67.7730  219.9690 C   0  0  0  0  0  0  0  0  0  0  0  0
  146.3070   69.0900  219.3460 C   0  0  0  0  0  0  0  0  0  0  0  0
  140.9670   76.0780  221.2860 C   0  0  0  0  0  0  0  0  0  0  0  0
  141.1280   76.7950  220.1170 C   0  0  0  0  0  0  0  0  0  0  0  0
  141.4070   78.1620  220.1690 C   0  0  0  0  0  0  0  0  0  0  0  0
  141.5260   78.8110  221.3810 C   0  0  0  0  0  0  0  0  0  0  0  0
  141.8030   80.1650  221.4850 C   0  0  0  0  0  0  0  0  0  0  0  0
  141.9140   80.7740  222.7370 C   0  0  0  0  0  0  0  0  0  0  0  0
  142.1820   82.0900  222.8710 F   0  0  0  0  0  0  0  0  0  0  0  0
  141.7440   80.0080  223.8940 C   0  0  0  0  0  0  0  0  0  0  0  0
  141.4680   78.6550  223.7900 C   0  0  0  0  0  0  0  0  0  0  0  0
  141.3590   78.0580  222.5470 C   0  0  0  0  0  0  0  0  0  0  0  0
  141.0940   76.7590  222.4410 N   0  0  0  0  0  0  0  0  0  0  0  0
  140.5070   74.6070  219.1090 H   0  0  0  0  0  0  0  0  0  0  0  0
  139.8021   72.3025  220.8916 H   0  0  0  0  0  0  0  0  0  0  0  0
  139.4098   72.4968  219.1249 H   0  0  0  0  0  0  0  0  0  0  0  0
  143.5112   72.9243  217.3142 H   0  0  0  0  0  0  0  0  0  0  0  0
  141.8871   73.5179  217.3431 H   0  0  0  0  0  0  0  0  0  0  0  0
  142.4854   75.2901  219.0111 H   0  0  0  0  0  0  0  0  0  0  0  0
  144.9350   75.1010  217.8140 H   0  0  0  0  0  0  0  0  0  0  0  0
  145.2020   74.1781  219.5366 H   0  0  0  0  0  0  0  0  0  0  0  0
  143.9390   74.5900  220.7213 H   0  0  0  0  0  0  0  0  0  0  0  0
  143.7247   72.2260  220.9397 H   0  0  0  0  0  0  0  0  0  0  0  0
  143.4250   70.1250  218.9860 H   0  0  0  0  0  0  0  0  0  0  0  0
  145.8072   69.9459  217.3712 H   0  0  0  0  0  0  0  0  0  0  0  0
  143.7508   68.0371  218.3168 H   0  0  0  0  0  0  0  0  0  0  0  0
  144.2943   68.5013  216.6569 H   0  0  0  0  0  0  0  0  0  0  0  0
  144.9677   66.2434  217.2609 H   0  0  0  0  0  0  0  0  0  0  0  0
  146.3814   67.4073  217.0139 H   0  0  0  0  0  0  0  0  0  0  0  0
  145.6764   65.7611  219.2890 H   0  0  0  0  0  0  0  0  0  0  0  0
  147.2198   66.5548  218.8195 H   0  0  0  0  0  0  0  0  0  0  0  0
  144.8316   67.8014  220.2414 H   0  0  0  0  0  0  0  0  0  0  0  0
  146.4784   67.5775  220.8821 H   0  0  0  0  0  0  0  0  0  0  0  0
  146.3205   69.8696  220.1219 H   0  0  0  0  0  0  0  0  0  0  0  0
  147.3083   68.9800  218.9042 H   0  0  0  0  0  0  0  0  0  0  0  0
  141.0364   76.2891  219.1446 H   0  0  0  0  0  0  0  0  0  0  0  0
  141.5333   78.7276  219.2341 H   0  0  0  0  0  0  0  0  0  0  0  0
  141.9366   80.7655  220.5731 H   0  0  0  0  0  0  0  0  0  0  0  0
  141.8293   80.4788  224.8845 H   0  0  0  0  0  0  0  0  0  0  0  0
  141.3348   78.0520  224.7003 H   0  0  0  0  0  0  0  0  0  0  0  0
  1  2  2  0
  2  3  1  0
  3  4  1  0
  4  5  1  0
  5  6  2  0
  5  7  1  0
  7  8  1  0
  8  9  1  0
  9 10  1  0
  9 11  1  0
 11 12  1  0
 12 13  1  0
 13 14  2  0
 13 15  1  0
 15 16  1  0
 16 17  1  0
 17 18  1  0
 18 19  1  0
 19 20  1  0
 20 21  1  0
  2 22  1  0
 22 23  2  0
 23 24  1  0
 24 25  2  0
 25 26  1  0
 26 27  2  0
 27 28  1  0
 27 29  1  0
 29 30  2  0
 30 31  1  0
 31 32  2  0
 12  7  1  0
 21 16  1  0
 32 22  1  0
 31 25  1  0
  3 33  1  0
  4 34  1  0
  4 35  1  0
  8 36  1  0
  8 37  1  0
  9 38  1  1
 10 39  1  0
 11 40  1  0
 11 41  1  0
 12 42  1  1
 15 43  1  0
 16 44  1  0
 17 45  1  0
 17 46  1  0
 18 47  1  0
 18 48  1  0
 19 49  1  0
 19 50  1  0
 20 51  1  0
 20 52  1  0
 21 53  1  0
 21 54  1  0
 23 55  1  0
 24 56  1  0
 26 57  1  0
 29 58  1  0
 30 59  1  0
M  END
>  <smiles>  (16) 
O=C(NCC(=O)N1C[C@H](O)C[C@@H]1C(=O)NC1CCCCC1)c1ccc2cc(F)ccc2n1

>  <score_type>  (16) 
oracle

>  <origin>  (16) 
autodockgpu

>  <m_score__min__energy>  (16) 
-9.3599999999999994

>  <m_primary>  (16) 
energy

>  <meeko>  (16) 
{"free_energy": -7.48, "intermolecular_energy": -9.57, "internal_energy": -2.65, "cluster_size": 2, "cluster_id": 3, "rank_in_cluster": 1}

>  <energy>  (16) 
-8.69

>  <cluster_rmsd>  (16) 
0.0

>  <rmsd>  (16) 
271.56

>  <cluster>  (16) 
2

$$$$

     RDKit          3D

 59 62  0  0  0  0  0  0  0  0999 V2000
  139.8090   73.2820  222.6890 O   0  0  0  0  0  0  0  0  0  0  0  0
  140.3250   72.1280  222.6070 C   0  0  0  0  0  0  0  0  0  0  0  0
  141.0490   71.6880  221.4630 N   0  0  0  0  0  0  0  0  0  0  0  0
  141.2090   72.5780  220.3520 C   0  0  0  0  0  0  0  0  0  0  0  0
  142.4160   73.4450  220.4800 C   0  0  0  0  0  0  0  0  0  0  0  0
  143.5610   72.9660  220.7420 O   0  0  0  0  0  0  0  0  0  0  0  0
  142.2210   74.8460  220.2940 N   0  0  0  0  0  0  0  0  0  0  0  0
  143.2100   75.8860  220.0670 C   0  0  0  0  0  0  0  0  0  0  0  0
  142.6130   76.5410  218.8330 C   0  0  2  0  0  0  0  0  0  0  0  0
  143.0720   77.8280  218.6210 O   0  0  0  0  0  0  0  0  0  0  0  0
  141.1350   76.4940  219.1300 C   0  0  0  0  0  0  0  0  0  0  0  0
  140.9400   75.5440  220.2980 C   0  0  2  0  0  0  0  0  0  0  0  0
  140.7180   76.2660  221.5720 C   0  0  0  0  0  0  0  0  0  0  0  0
  139.9410   75.8440  222.4620 O   0  0  0  0  0  0  0  0  0  0  0  0
  141.4110   77.4740  221.7800 N   0  0  0  0  0  0  0  0  0  0  0  0
  141.2970   78.2790  222.9590 C   0  0  0  0  0  0  0  0  0  0  0  0
  140.0690   79.1530  222.9820 C   0  0  0  0  0  0  0  0  0  0  0  0
  140.2910   80.3610  223.8290 C   0  0  0  0  0  0  0  0  0  0  0  0
  141.4390   81.2270  223.4470 C   0  0  0  0  0  0  0  0  0  0  0  0
  142.2990   80.5120  222.4470 C   0  0  0  0  0  0  0  0  0  0  0  0
  142.5740   79.1270  222.9930 C   0  0  0  0  0  0  0  0  0  0  0  0
  140.1870   71.1810  223.7230 C   0  0  0  0  0  0  0  0  0  0  0  0
  139.5570   69.9640  223.5510 C   0  0  0  0  0  0  0  0  0  0  0  0
  139.4370   69.0810  224.6260 C   0  0  0  0  0  0  0  0  0  0  0  0
  139.9430   69.4100  225.8670 C   0  0  0  0  0  0  0  0  0  0  0  0
  139.8480   68.5690  226.9640 C   0  0  0  0  0  0  0  0  0  0  0  0
  140.3770   68.9500  228.2000 C   0  0  0  0  0  0  0  0  0  0  0  0
  140.3010   68.1530  229.2860 F   0  0  0  0  0  0  0  0  0  0  0  0
  141.0060   70.1920  228.3280 C   0  0  0  0  0  0  0  0  0  0  0  0
  141.0990   71.0330  227.2310 C   0  0  0  0  0  0  0  0  0  0  0  0
  140.5740   70.6490  226.0100 C   0  0  0  0  0  0  0  0  0  0  0  0
  140.6610   71.4520  224.9550 N   0  0  0  0  0  0  0  0  0  0  0  0
  141.4630   70.7300  221.4250 H   0  0  0  0  0  0  0  0  0  0  0  0
  141.3002   71.9809  219.4327 H   0  0  0  0  0  0  0  0  0  0  0  0
  140.3280   73.2360  220.3231 H   0  0  0  0  0  0  0  0  0  0  0  0
  143.2703   76.5858  220.9136 H   0  0  0  0  0  0  0  0  0  0  0  0
  144.2441   75.5292  219.9517 H   0  0  0  0  0  0  0  0  0  0  0  0
  142.8912   76.0300  217.8995 H   0  0  0  0  0  0  0  0  0  0  0  0
  143.9060   77.9150  219.1420 H   0  0  0  0  0  0  0  0  0  0  0  0
  140.7723   77.4977  219.3964 H   0  0  0  0  0  0  0  0  0  0  0  0
  140.5713   76.1506  218.2500 H   0  0  0  0  0  0  0  0  0  0  0  0
  140.0592   74.8913  220.2074 H   0  0  0  0  0  0  0  0  0  0  0  0
  142.0690   77.8320  221.0260 H   0  0  0  0  0  0  0  0  0  0  0  0
  141.1868   77.6358  223.8445 H   0  0  0  0  0  0  0  0  0  0  0  0
  139.8341   79.4711  221.9555 H   0  0  0  0  0  0  0  0  0  0  0  0
  139.2343   78.5753  223.4057 H   0  0  0  0  0  0  0  0  0  0  0  0
  139.3787   80.9740  223.7856 H   0  0  0  0  0  0  0  0  0  0  0  0
  140.5309   79.9783  224.8320 H   0  0  0  0  0  0  0  0  0  0  0  0
  141.0617   82.1605  223.0041 H   0  0  0  0  0  0  0  0  0  0  0  0
  142.0353   81.4583  224.3420 H   0  0  0  0  0  0  0  0  0  0  0  0
  141.7733   80.4386  221.4836 H   0  0  0  0  0  0  0  0  0  0  0  0
  143.2396   81.0583  222.2833 H   0  0  0  0  0  0  0  0  0  0  0  0
  143.3481   78.6422  222.3799 H   0  0  0  0  0  0  0  0  0  0  0  0
  142.9182   79.2144  224.0341 H   0  0  0  0  0  0  0  0  0  0  0  0
  139.1496   69.6902  222.5666 H   0  0  0  0  0  0  0  0  0  0  0  0
  138.9340   68.1134  224.4822 H   0  0  0  0  0  0  0  0  0  0  0  0
  139.3518   67.5927  226.8611 H   0  0  0  0  0  0  0  0  0  0  0  0
  141.4258   70.5005  229.2968 H   0  0  0  0  0  0  0  0  0  0  0  0
  141.5927   72.0109  227.3313 H   0  0  0  0  0  0  0  0  0  0  0  0
  1  2  2  0
  2  3  1  0
  3  4  1  0
  4  5  1  0
  5  6  2  0
  5  7  1  0
  7  8  1  0
  8  9  1  0
  9 10  1  0
  9 11  1  0
 11 12  1  0
 12 13  1  0
 13 14  2  0
 13 15  1  0
 15 16  1  0
 16 17  1  0
 17 18  1  0
 18 19  1  0
 19 20  1  0
 20 21  1  0
  2 22  1  0
 22 23  2  0
 23 24  1  0
 24 25  2  0
 25 26  1  0
 26 27  2  0
 27 28  1  0
 27 29  1  0
 29 30  2  0
 30 31  1  0
 31 32  2  0
 12  7  1  0
 21 16  1  0
 32 22  1  0
 31 25  1  0
  3 33  1  0
  4 34  1  0
  4 35  1  0
  8 36  1  0
  8 37  1  0
  9 38  1  6
 10 39  1  0
 11 40  1  0
 11 41  1  0
 12 42  1  6
 15 43  1  0
 16 44  1  0
 17 45  1  0
 17 46  1  0
 18 47  1  0
 18 48  1  0
 19 49  1  0
 19 50  1  0
 20 51  1  0
 20 52  1  0
 21 53  1  0
 21 54  1  0
 23 55  1  0
 24 56  1  0
 26 57  1  0
 29 58  1  0
 30 59  1  0
M  END
>  <smiles>  (17) 
O=C(NCC(=O)N1C[C@H](O)C[C@@H]1C(=O)NC1CCCCC1)c1ccc2cc(F)ccc2n1

>  <score_type>  (17) 
oracle

>  <origin>  (17) 
autodockgpu

>  <m_score__min__energy>  (17) 
-9.3599999999999994

>  <m_primary>  (17) 
energy

>  <meeko>  (17) 
{"free_energy": -9.36, "intermolecular_energy": -11.45, "internal_energy": -1.86, "cluster_size": 15, "cluster_id": 1, "rank_in_cluster": 1}

>  <energy>  (17) 
-7.9

>  <cluster_rmsd>  (17) 
0.94

>  <rmsd>  (17) 
271.4

>  <cluster>  (17) 
2

$$$$

     RDKit          3D

 59 62  0  0  0  0  0  0  0  0999 V2000
  138.3950   70.9560  221.3040 O   0  0  0  0  0  0  0  0  0  0  0  0
  138.8920   71.5490  222.3070 C   0  0  0  0  0  0  0  0  0  0  0  0
  139.1050   72.9560  222.3420 N   0  0  0  0  0  0  0  0  0  0  0  0
  138.7470   73.7460  221.2020 C   0  0  0  0  0  0  0  0  0  0  0  0
  139.8470   73.8390  220.1990 C   0  0  0  0  0  0  0  0  0  0  0  0
  139.9840   72.9830  219.2730 O   0  0  0  0  0  0  0  0  0  0  0  0
  140.7430   74.9400  220.3320 N   0  0  0  0  0  0  0  0  0  0  0  0
  142.0980   74.9610  220.8550 C   0  0  0  0  0  0  0  0  0  0  0  0
  142.8040   75.6710  219.7130 C   0  0  2  0  0  0  0  0  0  0  0  0
  144.0110   76.2350  220.0810 O   0  0  0  0  0  0  0  0  0  0  0  0
  141.7840   76.7020  219.2990 C   0  0  0  0  0  0  0  0  0  0  0  0
  140.4680   76.3230  219.9550 C   0  0  2  0  0  0  0  0  0  0  0  0
  140.1760   77.1620  221.1410 C   0  0  0  0  0  0  0  0  0  0  0  0
  139.0080   77.3790  221.5430 O   0  0  0  0  0  0  0  0  0  0  0  0
  141.2600   77.7330  221.8330 N   0  0  0  0  0  0  0  0  0  0  0  0
  141.1310   78.5640  222.9920 C   0  0  0  0  0  0  0  0  0  0  0  0
  140.2140   79.7440  222.7970 C   0  0  0  0  0  0  0  0  0  0  0  0
  140.5800   80.8610  223.7150 C   0  0  0  0  0  0  0  0  0  0  0  0
  141.9750   81.3670  223.6060 C   0  0  0  0  0  0  0  0  0  0  0  0
  142.7920   80.4220  222.7770 C   0  0  0  0  0  0  0  0  0  0  0  0
  142.5570   79.0270  223.3170 C   0  0  0  0  0  0  0  0  0  0  0  0
  139.2750   70.7790  223.5000 C   0  0  0  0  0  0  0  0  0  0  0  0
  139.1120   69.4080  223.5460 C   0  0  0  0  0  0  0  0  0  0  0  0
  139.4830   68.6980  224.6890 C   0  0  0  0  0  0  0  0  0  0  0  0
  140.0130   69.3520  225.7830 C   0  0  0  0  0  0  0  0  0  0  0  0
  140.3950   68.6920  226.9400 C   0  0  0  0  0  0  0  0  0  0  0  0
  140.9270   69.4010  228.0200 C   0  0  0  0  0  0  0  0  0  0  0  0
  141.3080   68.7880  229.1600 F   0  0  0  0  0  0  0  0  0  0  0  0
  141.0720   70.7890  227.9290 C   0  0  0  0  0  0  0  0  0  0  0  0
  140.6890   71.4470  226.7730 C   0  0  0  0  0  0  0  0  0  0  0  0
  140.1640   70.7390  225.7070 C   0  0  0  0  0  0  0  0  0  0  0  0
  139.7960   71.3670  224.5940 N   0  0  0  0  0  0  0  0  0  0  0  0
  139.5170   73.4160  223.1840 H   0  0  0  0  0  0  0  0  0  0  0  0
  137.8688   73.2913  220.7203 H   0  0  0  0  0  0  0  0  0  0  0  0
  138.5335   74.7650  221.5571 H   0  0  0  0  0  0  0  0  0  0  0  0
  142.1653   75.5295  221.7943 H   0  0  0  0  0  0  0  0  0  0  0  0
  142.5112   73.9758  221.1171 H   0  0  0  0  0  0  0  0  0  0  0  0
  143.0966   74.9893  218.9008 H   0  0  0  0  0  0  0  0  0  0  0  0
  143.8370   77.1970  220.2210 H   0  0  0  0  0  0  0  0  0  0  0  0
  142.0993   77.7003  219.6366 H   0  0  0  0  0  0  0  0  0  0  0  0
  141.6800   76.7297  218.2043 H   0  0  0  0  0  0  0  0  0  0  0  0
  139.5865   76.4583  219.3111 H   0  0  0  0  0  0  0  0  0  0  0  0
  142.2500   77.5510  221.4910 H   0  0  0  0  0  0  0  0  0  0  0  0
  140.6674   77.9953  223.8116 H   0  0  0  0  0  0  0  0  0  0  0  0
  140.2923   80.0927  221.7567 H   0  0  0  0  0  0  0  0  0  0  0  0
  139.1841   79.4290  223.0206 H   0  0  0  0  0  0  0  0  0  0  0  0
  139.9006   81.7013  223.5095 H   0  0  0  0  0  0  0  0  0  0  0  0
  140.4935   80.4489  224.7312 H   0  0  0  0  0  0  0  0  0  0  0  0
  141.9681   82.3587  223.1300 H   0  0  0  0  0  0  0  0  0  0  0  0
  142.4146   81.4429  224.6115 H   0  0  0  0  0  0  0  0  0  0  0  0
  142.4765   80.4759  221.7246 H   0  0  0  0  0  0  0  0  0  0  0  0
  143.8592   80.6836  222.8280 H   0  0  0  0  0  0  0  0  0  0  0  0
  143.2772   78.3339  222.8577 H   0  0  0  0  0  0  0  0  0  0  0  0
  142.6895   79.0388  224.4089 H   0  0  0  0  0  0  0  0  0  0  0  0
  138.6895   68.8754  222.6812 H   0  0  0  0  0  0  0  0  0  0  0  0
  139.3517   67.6063  224.7183 H   0  0  0  0  0  0  0  0  0  0  0  0
  140.2784   67.6004  227.0088 H   0  0  0  0  0  0  0  0  0  0  0  0
  141.4894   71.3564  228.7739 H   0  0  0  0  0  0  0  0  0  0  0  0
  140.8027   72.5388  226.7017 H   0  0  0  0  0  0  0  0  0  0  0  0
  1  2  2  0
  2  3  1  0
  3  4  1  0
  4  5  1  0
  5  6  2  0
  5  7  1  0
  7  8  1  0
  8  9  1  0
  9 10  1  0
  9 11  1  0
 11 12  1  0
 12 13  1  0
 13 14  2  0
 13 15  1  0
 15 16  1  0
 16 17  1  0
 17 18  1  0
 18 19  1  0
 19 20  1  0
 20 21  1  0
  2 22  1  0
 22 23  2  0
 23 24  1  0
 24 25  2  0
 25 26  1  0
 26 27  2  0
 27 28  1  0
 27 29  1  0
 29 30  2  0
 30 31  1  0
 31 32  2  0
 12  7  1  0
 21 16  1  0
 32 22  1  0
 31 25  1  0
  3 33  1  0
  4 34  1  0
  4 35  1  0
  8 36  1  0
  8 37  1  0
  9 38  1  6
 10 39  1  0
 11 40  1  0
 11 41  1  0
 12 42  1  6
 15 43  1  0
 16 44  1  0
 17 45  1  0
 17 46  1  0
 18 47  1  0
 18 48  1  0
 19 49  1  0
 19 50  1  0
 20 51  1  0
 20 52  1  0
 21 53  1  0
 21 54  1  0
 23 55  1  0
 24 56  1  0
 26 57  1  0
 29 58  1  0
 30 59  1  0
M  END
>  <smiles>  (18) 
O=C(NCC(=O)N1C[C@H](O)C[C@@H]1C(=O)NC1CCCCC1)c1ccc2cc(F)ccc2n1

>  <score_type>  (18) 
oracle

>  <origin>  (18) 
autodockgpu

>  <m_score__min__energy>  (18) 
-9.3599999999999994

>  <m_primary>  (18) 
energy

>  <meeko>  (18) 
{"free_energy": -8.87, "intermolecular_energy": -10.96, "internal_energy": -2.0, "cluster_size": 15, "cluster_id": 1, "rank_in_cluster": 4}

>  <energy>  (18) 
-7.53

>  <cluster_rmsd>  (18) 
1.38

>  <rmsd>  (18) 
271.34

>  <cluster>  (18) 
2

$$$$

     RDKit          3D

 59 62  0  0  0  0  0  0  0  0999 V2000
  139.6660   70.6990  221.1720 O   0  0  0  0  0  0  0  0  0  0  0  0
  139.7380   71.2820  222.2940 C   0  0  0  0  0  0  0  0  0  0  0  0
  139.8260   72.6970  222.4220 N   0  0  0  0  0  0  0  0  0  0  0  0
  139.8330   73.5060  221.2410 C   0  0  0  0  0  0  0  0  0  0  0  0
  140.4140   74.8600  221.4750 C   0  0  0  0  0  0  0  0  0  0  0  0
  140.0250   75.6010  222.4290 O   0  0  0  0  0  0  0  0  0  0  0  0
  141.4330   75.2850  220.5730 N   0  0  0  0  0  0  0  0  0  0  0  0
  142.8320   74.8980  220.5220 C   0  0  0  0  0  0  0  0  0  0  0  0
  142.9370   74.5070  219.0580 C   0  0  2  0  0  0  0  0  0  0  0  0
  144.2350   74.5090  218.5820 O   0  0  0  0  0  0  0  0  0  0  0  0
  142.0720   75.5460  218.3870 C   0  0  0  0  0  0  0  0  0  0  0  0
  141.2690   76.2330  219.4760 C   0  0  2  0  0  0  0  0  0  0  0  0
  141.8220   77.5640  219.8200 C   0  0  0  0  0  0  0  0  0  0  0  0
  142.3930   78.2970  218.9780 O   0  0  0  0  0  0  0  0  0  0  0  0
  141.6990   78.0110  221.1500 N   0  0  0  0  0  0  0  0  0  0  0  0
  142.1840   79.2700  221.6270 C   0  0  0  0  0  0  0  0  0  0  0  0
  142.5930   79.2550  223.0780 C   0  0  0  0  0  0  0  0  0  0  0  0
  142.4780   80.6160  223.6790 C   0  0  0  0  0  0  0  0  0  0  0  0
  141.1350   81.2520  223.6080 C   0  0  0  0  0  0  0  0  0  0  0  0
  140.2570   80.4740  222.6720 C   0  0  0  0  0  0  0  0  0  0  0  0
  141.0360   80.2600  221.3920 C   0  0  0  0  0  0  0  0  0  0  0  0
  139.7340   70.4910  223.5340 C   0  0  0  0  0  0  0  0  0  0  0  0
  139.1970   69.2190  223.5660 C   0  0  0  0  0  0  0  0  0  0  0  0
  139.2040   68.4870  224.7550 C   0  0  0  0  0  0  0  0  0  0  0  0
  139.7440   69.0220  225.9080 C   0  0  0  0  0  0  0  0  0  0  0  0
  139.7740   68.3360  227.1120 C   0  0  0  0  0  0  0  0  0  0  0  0
  140.3320   68.9220  228.2500 C   0  0  0  0  0  0  0  0  0  0  0  0
  140.3770   68.2800  229.4360 F   0  0  0  0  0  0  0  0  0  0  0  0
  140.8630   70.2130  228.1710 C   0  0  0  0  0  0  0  0  0  0  0  0
  140.8320   70.8980  226.9680 C   0  0  0  0  0  0  0  0  0  0  0  0
  140.2790   70.3120  225.8440 C   0  0  0  0  0  0  0  0  0  0  0  0
  140.2460   70.9650  224.6860 N   0  0  0  0  0  0  0  0  0  0  0  0
  139.8840   73.1490  223.3620 H   0  0  0  0  0  0  0  0  0  0  0  0
  140.4278   72.9964  220.4687 H   0  0  0  0  0  0  0  0  0  0  0  0
  138.7882   73.6425  220.9251 H   0  0  0  0  0  0  0  0  0  0  0  0
  143.4982   75.7373  220.7704 H   0  0  0  0  0  0  0  0  0  0  0  0
  143.1249   74.1140  221.2358 H   0  0  0  0  0  0  0  0  0  0  0  0
  142.6133   73.4732  218.8671 H   0  0  0  0  0  0  0  0  0  0  0  0
  144.4490   75.4470  218.3600 H   0  0  0  0  0  0  0  0  0  0  0  0
  142.7022   76.2800  217.8636 H   0  0  0  0  0  0  0  0  0  0  0  0
  141.4060   75.0800  217.6459 H   0  0  0  0  0  0  0  0  0  0  0  0
  140.2246   76.4432  219.2019 H   0  0  0  0  0  0  0  0  0  0  0  0
  141.2170   77.3890  221.8640 H   0  0  0  0  0  0  0  0  0  0  0  0
  143.1039   79.5455  221.0905 H   0  0  0  0  0  0  0  0  0  0  0  0
  141.9401   78.5620  223.6288 H   0  0  0  0  0  0  0  0  0  0  0  0
  143.6418   78.9299  223.1436 H   0  0  0  0  0  0  0  0  0  0  0  0
  142.7578   80.5395  224.7401 H   0  0  0  0  0  0  0  0  0  0  0  0
  143.1412   81.2593  223.0821 H   0  0  0  0  0  0  0  0  0  0  0  0
  140.6820   81.2631  224.6103 H   0  0  0  0  0  0  0  0  0  0  0  0
  141.2387   82.2830  223.2387 H   0  0  0  0  0  0  0  0  0  0  0  0
  139.9966   79.5038  223.1201 H   0  0  0  0  0  0  0  0  0  0  0  0
  139.3235   81.0203  222.4714 H   0  0  0  0  0  0  0  0  0  0  0  0
  140.3628   79.8585  220.6202 H   0  0  0  0  0  0  0  0  0  0  0  0
  141.4550   81.2223  221.0628 H   0  0  0  0  0  0  0  0  0  0  0  0
  138.7635   68.7823  222.6542 H   0  0  0  0  0  0  0  0  0  0  0  0
  138.7752   67.4742  224.7735 H   0  0  0  0  0  0  0  0  0  0  0  0
  139.3545   67.3209  227.1716 H   0  0  0  0  0  0  0  0  0  0  0  0
  141.3042   70.6833  229.0622 H   0  0  0  0  0  0  0  0  0  0  0  0
  141.2495   71.9138  226.9060 H   0  0  0  0  0  0  0  0  0  0  0  0
  1  2  2  0
  2  3  1  0
  3  4  1  0
  4  5  1  0
  5  6  2  0
  5  7  1  0
  7  8  1  0
  8  9  1  0
  9 10  1  0
  9 11  1  0
 11 12  1  0
 12 13  1  0
 13 14  2  0
 13 15  1  0
 15 16  1  0
 16 17  1  0
 17 18  1  0
 18 19  1  0
 19 20  1  0
 20 21  1  0
  2 22  1  0
 22 23  2  0
 23 24  1  0
 24 25  2  0
 25 26  1  0
 26 27  2  0
 27 28  1  0
 27 29  1  0
 29 30  2  0
 30 31  1  0
 31 32  2  0
 12  7  1  0
 21 16  1  0
 32 22  1  0
 31 25  1  0
  3 33  1  0
  4 34  1  0
  4 35  1  0
  8 36  1  0
  8 37  1  0
  9 38  1  1
 10 39  1  0
 11 40  1  0
 11 41  1  0
 12 42  1  6
 15 43  1  0
 16 44  1  0
 17 45  1  0
 17 46  1  0
 18 47  1  0
 18 48  1  0
 19 49  1  0
 19 50  1  0
 20 51  1  0
 20 52  1  0
 21 53  1  0
 21 54  1  0
 23 55  1  0
 24 56  1  0
 26 57  1  0
 29 58  1  0
 30 59  1  0
M  END
>  <smiles>  (19) 
O=C(NCC(=O)N1C[C@H](O)C[C@@H]1C(=O)NC1CCCCC1)c1ccc2cc(F)ccc2n1

>  <score_type>  (19) 
oracle

>  <origin>  (19) 
autodockgpu

>  <m_score__min__energy>  (19) 
-9.3599999999999994

>  <m_primary>  (19) 
energy

>  <meeko>  (19) 
{"free_energy": -8.49, "intermolecular_energy": -10.58, "internal_energy": -2.51, "cluster_size": 15, "cluster_id": 1, "rank_in_cluster": 14}

>  <energy>  (19) 
-7.48

>  <cluster_rmsd>  (19) 
0.0

>  <rmsd>  (19) 
270.31

>  <cluster>  (19) 
3

$$$$

     RDKit          3D

 59 62  0  0  0  0  0  0  0  0999 V2000
  139.6750   70.2190  221.3420 O   0  0  0  0  0  0  0  0  0  0  0  0
  139.7020   71.1690  222.1790 C   0  0  0  0  0  0  0  0  0  0  0  0
  139.5000   72.5280  221.8070 N   0  0  0  0  0  0  0  0  0  0  0  0
  139.2530   72.8480  220.4330 C   0  0  0  0  0  0  0  0  0  0  0  0
  140.5100   73.0020  219.6440 C   0  0  0  0  0  0  0  0  0  0  0  0
  140.7180   72.3440  218.5790 O   0  0  0  0  0  0  0  0  0  0  0  0
  141.4730   73.9260  220.1460 N   0  0  0  0  0  0  0  0  0  0  0  0
  142.7290   73.6630  220.8260 C   0  0  0  0  0  0  0  0  0  0  0  0
  143.6610   74.5150  219.9830 C   0  0  2  0  0  0  0  0  0  0  0  0
  144.8450   74.8300  220.6240 O   0  0  0  0  0  0  0  0  0  0  0  0
  142.8130   75.7310  219.7010 C   0  0  0  0  0  0  0  0  0  0  0  0
  141.3850   75.3810  220.0770 C   0  0  2  0  0  0  0  0  0  0  0  0
  140.9940   75.9650  221.3820 C   0  0  0  0  0  0  0  0  0  0  0  0
  140.3310   75.3290  222.2350 O   0  0  0  0  0  0  0  0  0  0  0  0
  141.3880   77.2870  221.6630 N   0  0  0  0  0  0  0  0  0  0  0  0
  141.0840   77.9800  222.8780 C   0  0  0  0  0  0  0  0  0  0  0  0
  139.7250   78.6320  222.8830 C   0  0  0  0  0  0  0  0  0  0  0  0
  139.6980   79.8010  223.8100 C   0  0  0  0  0  0  0  0  0  0  0  0
  140.6970   80.8710  223.5440 C   0  0  0  0  0  0  0  0  0  0  0  0
  141.7110   80.3800  222.5540 C   0  0  0  0  0  0  0  0  0  0  0  0
  142.1940   79.0270  223.0330 C   0  0  0  0  0  0  0  0  0  0  0  0
  139.9520   70.8890  223.6000 C   0  0  0  0  0  0  0  0  0  0  0  0
  140.5020   71.8470  224.4300 C   0  0  0  0  0  0  0  0  0  0  0  0
  140.7300   71.5570  225.7770 C   0  0  0  0  0  0  0  0  0  0  0  0
  140.4130   70.3180  226.2940 C   0  0  0  0  0  0  0  0  0  0  0  0
  140.6210   69.9820  227.6220 C   0  0  0  0  0  0  0  0  0  0  0  0
  140.2820   68.7130  228.0960 C   0  0  0  0  0  0  0  0  0  0  0  0
  140.4720   68.3560  229.3840 F   0  0  0  0  0  0  0  0  0  0  0  0
  139.7290   67.7740  227.2200 C   0  0  0  0  0  0  0  0  0  0  0  0
  139.5220   68.1100  225.8930 C   0  0  0  0  0  0  0  0  0  0  0  0
  139.8590   69.3690  225.4300 C   0  0  0  0  0  0  0  0  0  0  0  0
  139.6620   69.6960  224.1560 N   0  0  0  0  0  0  0  0  0  0  0  0
  139.5290   73.2910  222.5200 H   0  0  0  0  0  0  0  0  0  0  0  0
  138.6532   72.0416  219.9859 H   0  0  0  0  0  0  0  0  0  0  0  0
  138.7228   73.8114  220.4058 H   0  0  0  0  0  0  0  0  0  0  0  0
  142.7049   73.9968  221.8739 H   0  0  0  0  0  0  0  0  0  0  0  0
  143.0062   72.6009  220.8980 H   0  0  0  0  0  0  0  0  0  0  0  0
  144.0094   73.9998  219.0757 H   0  0  0  0  0  0  0  0  0  0  0  0
  145.5370   74.8800  219.9210 H   0  0  0  0  0  0  0  0  0  0  0  0
  143.1632   76.5823  220.3033 H   0  0  0  0  0  0  0  0  0  0  0  0
  142.8786   76.0146  218.6402 H   0  0  0  0  0  0  0  0  0  0  0  0
  140.6268   75.7639  219.3780 H   0  0  0  0  0  0  0  0  0  0  0  0
  141.9490   77.8270  220.9390 H   0  0  0  0  0  0  0  0  0  0  0  0
  141.0451   77.2692  223.7166 H   0  0  0  0  0  0  0  0  0  0  0  0
  139.4860   78.9740  221.8652 H   0  0  0  0  0  0  0  0  0  0  0  0
  138.9833   77.8953  223.2252 H   0  0  0  0  0  0  0  0  0  0  0  0
  138.6971   80.2536  223.7510 H   0  0  0  0  0  0  0  0  0  0  0  0
  139.9538   79.3980  224.8010 H   0  0  0  0  0  0  0  0  0  0  0  0
  140.1859   81.7554  223.1360 H   0  0  0  0  0  0  0  0  0  0  0  0
  141.2039   81.1382  224.4830 H   0  0  0  0  0  0  0  0  0  0  0  0
  141.2500   80.2842  221.5599 H   0  0  0  0  0  0  0  0  0  0  0  0
  142.5505   81.0864  222.4754 H   0  0  0  0  0  0  0  0  0  0  0  0
  143.0667   78.7215  222.4372 H   0  0  0  0  0  0  0  0  0  0  0  0
  142.4701   79.1012  224.0952 H   0  0  0  0  0  0  0  0  0  0  0  0
  140.7604   72.8385  224.0297 H   0  0  0  0  0  0  0  0  0  0  0  0
  141.1670   72.3247  226.4326 H   0  0  0  0  0  0  0  0  0  0  0  0
  141.0573   70.7218  228.3093 H   0  0  0  0  0  0  0  0  0  0  0  0
  139.4593   66.7716  227.5840 H   0  0  0  0  0  0  0  0  0  0  0  0
  139.0872   67.3717  225.2032 H   0  0  0  0  0  0  0  0  0  0  0  0
  1  2  2  0
  2  3  1  0
  3  4  1  0
  4  5  1  0
  5  6  2  0
  5  7  1  0
  7  8  1  0
  8  9  1  0
  9 10  1  0
  9 11  1  0
 11 12  1  0
 12 13  1  0
 13 14  2  0
 13 15  1  0
 15 16  1  0
 16 17  1  0
 17 18  1  0
 18 19  1  0
 19 20  1  0
 20 21  1  0
  2 22  1  0
 22 23  2  0
 23 24  1  0
 24 25  2  0
 25 26  1  0
 26 27  2  0
 27 28  1  0
 27 29  1  0
 29 30  2  0
 30 31  1  0
 31 32  2  0
 12  7  1  0
 21 16  1  0
 32 22  1  0
 31 25  1  0
  3 33  1  0
  4 34  1  0
  4 35  1  0
  8 36  1  0
  8 37  1  0
  9 38  1  6
 10 39  1  0
 11 40  1  0
 11 41  1  0
 12 42  1  6
 15 43  1  0
 16 44  1  0
 17 45  1  0
 17 46  1  0
 18 47  1  0
 18 48  1  0
 19 49  1  0
 19 50  1  0
 20 51  1  0
 20 52  1  0
 21 53  1  0
 21 54  1  0
 23 55  1  0
 24 56  1  0
 26 57  1  0
 29 58  1  0
 30 59  1  0
M  END
>  <smiles>  (20) 
O=C(NCC(=O)N1C[C@H](O)C[C@@H]1C(=O)NC1CCCCC1)c1ccc2cc(F)ccc2n1

>  <score_type>  (20) 
oracle

>  <origin>  (20) 
autodockgpu

>  <m_score__min__energy>  (20) 
-9.3599999999999994

>  <m_primary>  (20) 
energy

>  <meeko>  (20) 
{"free_energy": -8.53, "intermolecular_energy": -10.62, "internal_energy": -2.3, "cluster_size": 15, "cluster_id": 1, "rank_in_cluster": 11}

>  <energy>  (20) 
-7.48

>  <cluster_rmsd>  (20) 
0.5

>  <rmsd>  (20) 
270.31

>  <cluster>  (20) 
3

$$$$
