
     RDKit          3D

 70 73  0  0  1  0  0  0  0  0999 V2000
  141.7760   81.3210  223.7450 C   0  0  0  0  0  0  0  0  0  0  0  0
  141.7260   80.3250  222.5950 C   0  0  0  0  0  0  0  0  0  0  0  0
  141.8290   81.0870  221.3080 C   0  0  0  0  0  0  0  0  0  0  0  0
  143.0470   79.5430  222.7180 C   0  0  0  0  0  0  0  0  0  0  0  0
  140.5670   79.4200  222.6530 C   0  0  2  0  0  0  0  0  0  0  0  0
  139.6830   79.5090  223.8730 C   0  0  0  0  0  0  0  0  0  0  0  0
  138.6740   80.5530  223.8980 C   0  0  0  0  0  0  0  0  0  0  0  0
  138.4490   81.2630  222.7090 C   0  0  0  0  0  0  0  0  0  0  0  0
  137.5060   82.2340  222.5930 C   0  0  0  0  0  0  0  0  0  0  0  0
  136.7270   82.5520  223.6820 C   0  0  0  0  0  0  0  0  0  0  0  0
  135.8000   83.5250  223.5270 F   0  0  0  0  0  0  0  0  0  0  0  0
  136.9150   81.8820  224.8710 C   0  0  0  0  0  0  0  0  0  0  0  0
  137.8770   80.8970  224.9730 C   0  0  0  0  0  0  0  0  0  0  0  0
  140.9030   77.9880  222.5700 N   0  0  0  0  0  0  0  0  0  0  0  0
  139.8690   77.1170  222.1940 C   0  0  0  0  0  0  0  0  0  0  0  0
  138.7280   77.6600  221.9660 O   0  0  0  0  0  0  0  0  0  0  0  0
  139.9460   75.6700  222.0370 C   0  0  2  0  0  0  0  0  0  0  0  0
  141.2990   75.2070  221.5200 C   0  0  0  0  0  0  0  0  0  0  0  0
  141.1770   75.2480  220.0290 C   0  0  1  0  0  0  0  0  0  0  0  0
  141.9080   74.1800  219.5350 F   0  0  0  0  0  0  0  0  0  0  0  0
  139.7090   75.0850  219.7250 C   0  0  0  0  0  0  0  0  0  0  0  0
  139.0880   75.0860  221.0270 N   0  0  0  0  0  0  0  0  0  0  0  0
  137.7970   74.5700  221.3490 C   0  0  0  0  0  0  0  0  0  0  0  0
  136.8410   75.3490  221.7070 O   0  0  0  0  0  0  0  0  0  0  0  0
  137.4490   73.1280  221.3050 C   0  0  0  0  0  0  0  0  0  0  0  0
  138.0650   72.4370  222.4510 N   0  0  0  0  0  0  0  0  0  0  0  0
  138.1030   71.0250  222.5500 C   0  0  0  0  0  0  0  0  0  0  0  0
  137.6070   70.3100  221.6280 O   0  0  0  0  0  0  0  0  0  0  0  0
  138.7170   70.3750  223.7240 C   0  0  0  0  0  0  0  0  0  0  0  0
  138.6360   68.9980  223.8300 C   0  0  0  0  0  0  0  0  0  0  0  0
  139.2260   68.4520  224.9720 C   0  0  0  0  0  0  0  0  0  0  0  0
  139.8460   69.2310  225.9250 C   0  0  0  0  0  0  0  0  0  0  0  0
  140.4340   68.6930  227.0620 C   0  0  0  0  0  0  0  0  0  0  0  0
  141.0400   69.4990  227.9820 C   0  0  0  0  0  0  0  0  0  0  0  0
  141.6200   68.9940  229.0970 F   0  0  0  0  0  0  0  0  0  0  0  0
  141.0830   70.8680  227.8070 C   0  0  0  0  0  0  0  0  0  0  0  0
  140.5030   71.4470  226.6750 C   0  0  0  0  0  0  0  0  0  0  0  0
  139.8970   70.6100  225.7610 C   0  0  0  0  0  0  0  0  0  0  0  0
  139.3210   71.1360  224.6490 N   0  0  0  0  0  0  0  0  0  0  0  0
  141.7488   80.7784  224.7015 H   0  0  0  0  0  0  0  0  0  0  0  0
  142.7047   81.9072  223.6823 H   0  0  0  0  0  0  0  0  0  0  0  0
  140.9107   81.9972  223.6823 H   0  0  0  0  0  0  0  0  0  0  0  0
  141.9734   82.1556  221.5251 H   0  0  0  0  0  0  0  0  0  0  0  0
  142.6846   80.7119  220.7273 H   0  0  0  0  0  0  0  0  0  0  0  0
  140.9045   80.9525  220.7273 H   0  0  0  0  0  0  0  0  0  0  0  0
  143.2902   79.3990  223.7811 H   0  0  0  0  0  0  0  0  0  0  0  0
  142.9396   78.5628  222.2304 H   0  0  0  0  0  0  0  0  0  0  0  0
  143.8547   80.1086  222.2304 H   0  0  0  0  0  0  0  0  0  0  0  0
  140.0321   79.7909  221.7663 H   0  0  0  0  0  0  0  0  0  0  0  0
  139.1619   78.5454  223.9727 H   0  0  0  0  0  0  0  0  0  0  0  0
  140.3676   79.7627  224.6958 H   0  0  0  0  0  0  0  0  0  0  0  0
  139.0648   81.0222  221.8299 H   0  0  0  0  0  0  0  0  0  0  0  0
  137.3664   82.7611  221.6376 H   0  0  0  0  0  0  0  0  0  0  0  0
  136.2950   82.1333  225.7442 H   0  0  0  0  0  0  0  0  0  0  0  0
  138.0120   80.3744  225.9315 H   0  0  0  0  0  0  0  0  0  0  0  0
  141.8490   77.6230  222.7710 H   0  0  0  0  0  0  0  0  0  0  0  0
  139.6778   75.3573  223.0569 H   0  0  0  0  0  0  0  0  0  0  0  0
  142.0960   75.8838  221.8617 H   0  0  0  0  0  0  0  0  0  0  0  0
  141.5605   74.2033  221.8863 H   0  0  0  0  0  0  0  0  0  0  0  0
  141.5513   76.1793  219.5789 H   0  0  0  0  0  0  0  0  0  0  0  0
  139.3398   75.9216  219.1137 H   0  0  0  0  0  0  0  0  0  0  0  0
  139.4915   74.1730  219.1497 H   0  0  0  0  0  0  0  0  0  0  0  0
  136.3560   73.0133  221.3525 H   0  0  0  0  0  0  0  0  0  0  0  0
  137.8243   72.6895  220.3686 H   0  0  0  0  0  0  0  0  0  0  0  0
  138.5040   72.9740  223.2410 H   0  0  0  0  0  0  0  0  0  0  0  0
  138.1417   68.3769  223.0684 H   0  0  0  0  0  0  0  0  0  0  0  0
  139.1948   67.3619  225.1159 H   0  0  0  0  0  0  0  0  0  0  0  0
  140.4112   67.6051  227.2232 H   0  0  0  0  0  0  0  0  0  0  0  0
  141.5740   71.5032  228.5590 H   0  0  0  0  0  0  0  0  0  0  0  0
  140.5289   72.5354  226.5178 H   0  0  0  0  0  0  0  0  0  0  0  0
  1  2  1  0
  2  3  1  0
  2  4  1  0
  2  5  1  0
  5  6  1  0
  6  7  1  0
  7  8  2  0
  8  9  1  0
  9 10  2  0
 10 11  1  0
 10 12  1  0
 12 13  2  0
  5 14  1  0
 14 15  1  0
 15 16  2  0
 15 17  1  0
 17 18  1  0
 18 19  1  0
 19 20  1  0
 19 21  1  0
 21 22  1  0
 22 23  1  0
 23 24  2  0
 23 25  1  0
 25 26  1  0
 26 27  1  0
 27 28  2  0
 27 29  1  0
 29 30  2  0
 30 31  1  0
 31 32  2  0
 32 33  1  0
 33 34  2  0
 34 35  1  0
 34 36  1  0
 36 37  2  0
 37 38  1  0
 38 39  2  0
 13  7  1  0
 22 17  1  0
 39 29  1  0
 38 32  1  0
  1 40  1  0
  1 41  1  0
  1 42  1  0
  3 43  1  0
  3 44  1  0
  3 45  1  0
  4 46  1  0
  4 47  1  0
  4 48  1  0
  5 49  1  6
  6 50  1  0
  6 51  1  0
  8 52  1  0
  9 53  1  0
 12 54  1  0
 13 55  1  0
 14 56  1  0
 17 57  1  1
 18 58  1  0
 18 59  1  0
 19 60  1  6
 21 61  1  0
 21 62  1  0
 25 63  1  0
 25 64  1  0
 26 65  1  0
 30 66  1  0
 31 67  1  0
 33 68  1  0
 36 69  1  0
 37 70  1  0
M  END
>  <smiles>  (1) 
CC(C)(C)C(Cc1ccc(F)cc1)NC(=O)[C@@H]1C[C@@H](F)CN1C(=O)CNC(=O)c1ccc2cc(F)ccc2n1

>  <score_type>  (1) 
oracle

>  <origin>  (1) 
autodockgpu

>  <m_score__min__energy>  (1) 
-8.8900000000000006

>  <m_primary>  (1) 
energy

>  <meeko>  (1) 
{"free_energy": -8.89, "intermolecular_energy": -11.57, "internal_energy": -2.39, "cluster_size": 1, "cluster_id": 1, "rank_in_cluster": 1}

>  <energy>  (1) 
-8.89

>  <cluster_rmsd>  (1) 
0.0

>  <rmsd>  (1) 
270.87

>  <cluster>  (1) 
1

$$$$

     RDKit          3D

 70 73  0  0  1  0  0  0  0  0999 V2000
  139.8100   79.2990  222.8680 C   0  0  0  0  0  0  0  0  0  0  0  0
  141.0300   78.5130  222.4110 C   0  0  0  0  0  0  0  0  0  0  0  0
  141.8900   79.4200  221.5840 C   0  0  0  0  0  0  0  0  0  0  0  0
  141.8220   78.2620  223.7080 C   0  0  0  0  0  0  0  0  0  0  0  0
  140.6940   77.2470  221.7410 C   0  0  2  0  0  0  0  0  0  0  0  0
  141.4600   76.9050  220.4870 C   0  0  0  0  0  0  0  0  0  0  0  0
  142.2010   75.6550  220.4700 C   0  0  0  0  0  0  0  0  0  0  0  0
  143.5390   75.7030  220.0520 C   0  0  0  0  0  0  0  0  0  0  0  0
  144.3480   74.6120  220.0310 C   0  0  0  0  0  0  0  0  0  0  0  0
  143.8480   73.3940  220.4310 C   0  0  0  0  0  0  0  0  0  0  0  0
  144.6840   72.3310  220.3940 F   0  0  0  0  0  0  0  0  0  0  0  0
  142.5380   73.3000  220.8460 C   0  0  0  0  0  0  0  0  0  0  0  0
  141.7290   74.4190  220.8640 C   0  0  0  0  0  0  0  0  0  0  0  0
  139.2840   77.1260  221.3330 N   0  0  0  0  0  0  0  0  0  0  0  0
  138.6070   75.9620  221.7310 C   0  0  0  0  0  0  0  0  0  0  0  0
  139.2930   75.1160  222.4100 O   0  0  0  0  0  0  0  0  0  0  0  0
  137.2200   75.6100  221.4580 C   0  0  2  0  0  0  0  0  0  0  0  0
  136.4250   76.7650  220.8720 C   0  0  0  0  0  0  0  0  0  0  0  0
  135.8860   77.5040  222.0560 C   0  0  1  0  0  0  0  0  0  0  0  0
  134.6280   77.9660  221.7050 F   0  0  0  0  0  0  0  0  0  0  0  0
  135.8000   76.4960  223.1740 C   0  0  0  0  0  0  0  0  0  0  0  0
  136.3950   75.3090  222.6100 N   0  0  0  0  0  0  0  0  0  0  0  0
  136.2140   73.9710  223.0710 C   0  0  0  0  0  0  0  0  0  0  0  0
  135.4880   73.7160  224.1000 O   0  0  0  0  0  0  0  0  0  0  0  0
  136.8300   72.7840  222.4280 C   0  0  0  0  0  0  0  0  0  0  0  0
  137.4810   71.9500  223.4530 N   0  0  0  0  0  0  0  0  0  0  0  0
  138.1850   70.7660  223.1270 C   0  0  0  0  0  0  0  0  0  0  0  0
  138.2810   70.3960  221.9180 O   0  0  0  0  0  0  0  0  0  0  0  0
  138.8090   69.9520  224.1880 C   0  0  0  0  0  0  0  0  0  0  0  0
  138.7920   68.5750  224.0560 C   0  0  0  0  0  0  0  0  0  0  0  0
  139.3880   67.8680  225.1030 C   0  0  0  0  0  0  0  0  0  0  0  0
  139.9550   68.4990  226.1900 C   0  0  0  0  0  0  0  0  0  0  0  0
  140.5490   67.8020  227.2320 C   0  0  0  0  0  0  0  0  0  0  0  0
  141.1000   68.4640  228.2910 C   0  0  0  0  0  0  0  0  0  0  0  0
  141.6850   67.8030  229.3180 F   0  0  0  0  0  0  0  0  0  0  0  0
  141.0810   69.8440  228.3520 C   0  0  0  0  0  0  0  0  0  0  0  0
  140.4930   70.5810  227.3210 C   0  0  0  0  0  0  0  0  0  0  0  0
  139.9430   69.8880  226.2640 C   0  0  0  0  0  0  0  0  0  0  0  0
  139.3610   70.5700  225.2430 N   0  0  0  0  0  0  0  0  0  0  0  0
  139.7779   79.3197  223.9673 H   0  0  0  0  0  0  0  0  0  0  0  0
  139.8715   80.3278  222.4835 H   0  0  0  0  0  0  0  0  0  0  0  0
  138.8986   78.8178  222.4835 H   0  0  0  0  0  0  0  0  0  0  0  0
  142.4942   80.0572  222.2466 H   0  0  0  0  0  0  0  0  0  0  0  0
  142.5553   78.8163  220.9492 H   0  0  0  0  0  0  0  0  0  0  0  0
  141.2518   80.0522  220.9492 H   0  0  0  0  0  0  0  0  0  0  0  0
  141.1781   78.4661  224.5761 H   0  0  0  0  0  0  0  0  0  0  0  0
  142.1554   77.2142  223.7370 H   0  0  0  0  0  0  0  0  0  0  0  0
  142.6981   78.9265  223.7370 H   0  0  0  0  0  0  0  0  0  0  0  0
  140.9697   76.5596  222.5544 H   0  0  0  0  0  0  0  0  0  0  0  0
  140.7367   76.8698  219.6590 H   0  0  0  0  0  0  0  0  0  0  0  0
  142.2299   77.6867  220.4086 H   0  0  0  0  0  0  0  0  0  0  0  0
  143.9524   76.6689  219.7261 H   0  0  0  0  0  0  0  0  0  0  0  0
  145.3924   74.7013  219.6976 H   0  0  0  0  0  0  0  0  0  0  0  0
  142.1339   72.3279  221.1649 H   0  0  0  0  0  0  0  0  0  0  0  0
  140.6858   74.3234  221.1996 H   0  0  0  0  0  0  0  0  0  0  0  0
  138.7970   77.8530  220.7810 H   0  0  0  0  0  0  0  0  0  0  0  0
  137.3741   74.7396  220.8033 H   0  0  0  0  0  0  0  0  0  0  0  0
  137.0764   77.4179  220.2724 H   0  0  0  0  0  0  0  0  0  0  0  0
  135.6246   76.4179  220.2021 H   0  0  0  0  0  0  0  0  0  0  0  0
  136.5078   78.3562  222.3677 H   0  0  0  0  0  0  0  0  0  0  0  0
  136.3643   76.8374  224.0543 H   0  0  0  0  0  0  0  0  0  0  0  0
  134.7695   76.3323  223.5223 H   0  0  0  0  0  0  0  0  0  0  0  0
  136.0509   72.1974  221.9192 H   0  0  0  0  0  0  0  0  0  0  0  0
  137.5802   73.1137  221.6942 H   0  0  0  0  0  0  0  0  0  0  0  0
  137.4470   72.2100  224.4710 H   0  0  0  0  0  0  0  0  0  0  0  0
  138.3410   68.0723  223.1878 H   0  0  0  0  0  0  0  0  0  0  0  0
  139.4056   66.7690  225.0587 H   0  0  0  0  0  0  0  0  0  0  0  0
  140.5763   66.7027  227.2045 H   0  0  0  0  0  0  0  0  0  0  0  0
  141.5289   70.3626  229.2125 H   0  0  0  0  0  0  0  0  0  0  0  0
  140.4697   71.6803  227.3518 H   0  0  0  0  0  0  0  0  0  0  0  0
  1  2  1  0
  2  3  1  0
  2  4  1  0
  2  5  1  0
  5  6  1  0
  6  7  1  0
  7  8  2  0
  8  9  1  0
  9 10  2  0
 10 11  1  0
 10 12  1  0
 12 13  2  0
  5 14  1  0
 14 15  1  0
 15 16  2  0
 15 17  1  0
 17 18  1  0
 18 19  1  0
 19 20  1  0
 19 21  1  0
 21 22  1  0
 22 23  1  0
 23 24  2  0
 23 25  1  0
 25 26  1  0
 26 27  1  0
 27 28  2  0
 27 29  1  0
 29 30  2  0
 30 31  1  0
 31 32  2  0
 32 33  1  0
 33 34  2  0
 34 35  1  0
 34 36  1  0
 36 37  2  0
 37 38  1  0
 38 39  2  0
 13  7  1  0
 22 17  1  0
 39 29  1  0
 38 32  1  0
  1 40  1  0
  1 41  1  0
  1 42  1  0
  3 43  1  0
  3 44  1  0
  3 45  1  0
  4 46  1  0
  4 47  1  0
  4 48  1  0
  5 49  1  1
  6 50  1  0
  6 51  1  0
  8 52  1  0
  9 53  1  0
 12 54  1  0
 13 55  1  0
 14 56  1  0
 17 57  1  6
 18 58  1  0
 18 59  1  0
 19 60  1  1
 21 61  1  0
 21 62  1  0
 25 63  1  0
 25 64  1  0
 26 65  1  0
 30 66  1  0
 31 67  1  0
 33 68  1  0
 36 69  1  0
 37 70  1  0
M  END
>  <smiles>  (2) 
CC(C)(C)C(Cc1ccc(F)cc1)NC(=O)[C@@H]1C[C@@H](F)CN1C(=O)CNC(=O)c1ccc2cc(F)ccc2n1

>  <score_type>  (2) 
oracle

>  <origin>  (2) 
autodockgpu

>  <m_score__min__energy>  (2) 
-8.8900000000000006

>  <m_primary>  (2) 
energy

>  <meeko>  (2) 
{"free_energy": -8.61, "intermolecular_energy": -11.29, "internal_energy": -2.76, "cluster_size": 3, "cluster_id": 3, "rank_in_cluster": 1}

>  <energy>  (2) 
-8.84

>  <cluster_rmsd>  (2) 
0.0

>  <rmsd>  (2) 
270.32

>  <cluster>  (2) 
2

$$$$

     RDKit          3D

 70 73  0  0  1  0  0  0  0  0999 V2000
  138.2080   69.5910  222.3810 C   0  0  0  0  0  0  0  0  0  0  0  0
  138.5620   70.9740  222.9070 C   0  0  0  0  0  0  0  0  0  0  0  0
  138.0250   71.9930  221.9480 C   0  0  0  0  0  0  0  0  0  0  0  0
  137.7120   71.1190  224.1830 C   0  0  0  0  0  0  0  0  0  0  0  0
  139.9930   71.1390  223.2020 C   0  0  2  0  0  0  0  0  0  0  0  0
  140.3570   71.8080  224.5060 C   0  0  0  0  0  0  0  0  0  0  0  0
  140.4950   70.9630  225.6790 C   0  0  0  0  0  0  0  0  0  0  0  0
  140.4950   69.5750  225.4800 C   0  0  0  0  0  0  0  0  0  0  0  0
  140.6580   68.6810  226.4900 C   0  0  0  0  0  0  0  0  0  0  0  0
  140.8290   69.1400  227.7760 C   0  0  0  0  0  0  0  0  0  0  0  0
  140.9860   68.2190  228.7540 F   0  0  0  0  0  0  0  0  0  0  0  0
  140.8330   70.4960  228.0190 C   0  0  0  0  0  0  0  0  0  0  0  0
  140.6680   71.3920  226.9810 C   0  0  0  0  0  0  0  0  0  0  0  0
  140.7420   71.9110  222.1950 N   0  0  0  0  0  0  0  0  0  0  0  0
  141.0850   71.2400  221.0100 C   0  0  0  0  0  0  0  0  0  0  0  0
  140.7140   70.0140  220.9290 O   0  0  0  0  0  0  0  0  0  0  0  0
  141.8140   71.7790  219.8700 C   0  0  2  0  0  0  0  0  0  0  0  0
  143.3180   71.5990  219.9950 C   0  0  0  0  0  0  0  0  0  0  0  0
  143.7920   72.8140  220.7280 C   0  0  1  0  0  0  0  0  0  0  0  0
  145.0320   73.1430  220.2040 F   0  0  0  0  0  0  0  0  0  0  0  0
  142.7810   73.8950  220.4440 C   0  0  0  0  0  0  0  0  0  0  0  0
  141.7560   73.2150  219.6910 N   0  0  0  0  0  0  0  0  0  0  0  0
  140.7880   73.8240  218.8370 C   0  0  0  0  0  0  0  0  0  0  0  0
  140.9980   73.9440  217.5750 O   0  0  0  0  0  0  0  0  0  0  0  0
  139.4890   74.3610  219.3110 C   0  0  0  0  0  0  0  0  0  0  0  0
  139.7090   75.6400  220.0080 N   0  0  0  0  0  0  0  0  0  0  0  0
  139.9450   75.7090  221.4020 C   0  0  0  0  0  0  0  0  0  0  0  0
  139.9820   74.6470  222.0940 O   0  0  0  0  0  0  0  0  0  0  0  0
  140.1460   77.0130  222.0620 C   0  0  0  0  0  0  0  0  0  0  0  0
  139.0460   77.6500  222.6080 C   0  0  0  0  0  0  0  0  0  0  0  0
  139.3070   78.8860  223.2050 C   0  0  0  0  0  0  0  0  0  0  0  0
  140.5720   79.4310  223.2470 C   0  0  0  0  0  0  0  0  0  0  0  0
  140.8370   80.6590  223.8380 C   0  0  0  0  0  0  0  0  0  0  0  0
  142.1050   81.1640  223.8590 C   0  0  0  0  0  0  0  0  0  0  0  0
  142.3850   82.3590  224.4320 F   0  0  0  0  0  0  0  0  0  0  0  0
  143.1560   80.4680  223.2940 C   0  0  0  0  0  0  0  0  0  0  0  0
  142.9290   79.2290  222.6900 C   0  0  0  0  0  0  0  0  0  0  0  0
  141.6390   78.7410  222.6810 C   0  0  0  0  0  0  0  0  0  0  0  0
  141.3790   77.5400  222.1030 N   0  0  0  0  0  0  0  0  0  0  0  0
  138.0338   68.9103  223.2274 H   0  0  0  0  0  0  0  0  0  0  0  0
  137.2970   69.6541  221.7677 H   0  0  0  0  0  0  0  0  0  0  0  0
  139.0372   69.2087  221.7677 H   0  0  0  0  0  0  0  0  0  0  0  0
  137.5843   72.8293  222.5104 H   0  0  0  0  0  0  0  0  0  0  0  0
  138.8429   72.3675  221.3149 H   0  0  0  0  0  0  0  0  0  0  0  0
  137.2537   71.5300  221.3149 H   0  0  0  0  0  0  0  0  0  0  0  0
  138.3567   71.0090  225.0675 H   0  0  0  0  0  0  0  0  0  0  0  0
  137.2371   72.1111  224.1965 H   0  0  0  0  0  0  0  0  0  0  0  0
  136.9351   70.3404  224.1965 H   0  0  0  0  0  0  0  0  0  0  0  0
  140.2716   70.0752  223.2276 H   0  0  0  0  0  0  0  0  0  0  0  0
  141.3179   72.3217  224.3554 H   0  0  0  0  0  0  0  0  0  0  0  0
  139.5027   72.4630  224.7322 H   0  0  0  0  0  0  0  0  0  0  0  0
  140.3565   69.1920  224.4582 H   0  0  0  0  0  0  0  0  0  0  0  0
  140.6533   67.6009  226.2818 H   0  0  0  0  0  0  0  0  0  0  0  0
  140.9684   70.8672  229.0456 H   0  0  0  0  0  0  0  0  0  0  0  0
  140.6745   72.4709  227.1955 H   0  0  0  0  0  0  0  0  0  0  0  0
  141.0080   72.9010  222.3330 H   0  0  0  0  0  0  0  0  0  0  0  0
  141.3211   71.2268  219.0563 H   0  0  0  0  0  0  0  0  0  0  0  0
  143.5526   70.6875  220.5644 H   0  0  0  0  0  0  0  0  0  0  0  0
  143.8048   71.4910  219.0145 H   0  0  0  0  0  0  0  0  0  0  0  0
  143.8875   72.6675  221.8140 H   0  0  0  0  0  0  0  0  0  0  0  0
  142.3732   74.3062  221.3792 H   0  0  0  0  0  0  0  0  0  0  0  0
  143.2118   74.7499  219.9022 H   0  0  0  0  0  0  0  0  0  0  0  0
  138.8235   74.5227  218.4502 H   0  0  0  0  0  0  0  0  0  0  0  0
  139.0267   73.6420  220.0033 H   0  0  0  0  0  0  0  0  0  0  0  0
  139.7030   76.5540  219.4880 H   0  0  0  0  0  0  0  0  0  0  0  0
  138.0367   77.2140  222.5745 H   0  0  0  0  0  0  0  0  0  0  0  0
  138.4736   79.4435  223.6573 H   0  0  0  0  0  0  0  0  0  0  0  0
  140.0160   81.2314  224.2944 H   0  0  0  0  0  0  0  0  0  0  0  0
  144.1717   80.8894  223.3197 H   0  0  0  0  0  0  0  0  0  0  0  0
  143.7536   78.6601  222.2356 H   0  0  0  0  0  0  0  0  0  0  0  0
  1  2  1  0
  2  3  1  0
  2  4  1  0
  2  5  1  0
  5  6  1  0
  6  7  1  0
  7  8  2  0
  8  9  1  0
  9 10  2  0
 10 11  1  0
 10 12  1  0
 12 13  2  0
  5 14  1  0
 14 15  1  0
 15 16  2  0
 15 17  1  0
 17 18  1  0
 18 19  1  0
 19 20  1  0
 19 21  1  0
 21 22  1  0
 22 23  1  0
 23 24  2  0
 23 25  1  0
 25 26  1  0
 26 27  1  0
 27 28  2  0
 27 29  1  0
 29 30  2  0
 30 31  1  0
 31 32  2  0
 32 33  1  0
 33 34  2  0
 34 35  1  0
 34 36  1  0
 36 37  2  0
 37 38  1  0
 38 39  2  0
 13  7  1  0
 22 17  1  0
 39 29  1  0
 38 32  1  0
  1 40  1  0
  1 41  1  0
  1 42  1  0
  3 43  1  0
  3 44  1  0
  3 45  1  0
  4 46  1  0
  4 47  1  0
  4 48  1  0
  5 49  1  1
  6 50  1  0
  6 51  1  0
  8 52  1  0
  9 53  1  0
 12 54  1  0
 13 55  1  0
 14 56  1  0
 17 57  1  6
 18 58  1  0
 18 59  1  0
 19 60  1  1
 21 61  1  0
 21 62  1  0
 25 63  1  0
 25 64  1  0
 26 65  1  0
 30 66  1  0
 31 67  1  0
 33 68  1  0
 36 69  1  0
 37 70  1  0
M  END
>  <smiles>  (3) 
CC(C)(C)C(Cc1ccc(F)cc1)NC(=O)[C@@H]1C[C@@H](F)CN1C(=O)CNC(=O)c1ccc2cc(F)ccc2n1

>  <score_type>  (3) 
oracle

>  <origin>  (3) 
autodockgpu

>  <m_score__min__energy>  (3) 
-8.8900000000000006

>  <m_primary>  (3) 
energy

>  <meeko>  (3) 
{"free_energy": -8.37, "intermolecular_energy": -11.06, "internal_energy": -3.45, "cluster_size": 1, "cluster_id": 5, "rank_in_cluster": 1}

>  <energy>  (3) 
-8.74

>  <cluster_rmsd>  (3) 
0.18

>  <rmsd>  (3) 
270.29

>  <cluster>  (3) 
2

$$$$

     RDKit          3D

 70 73  0  0  1  0  0  0  0  0999 V2000
  141.1420   78.3570  219.7420 C   0  0  0  0  0  0  0  0  0  0  0  0
  141.0470   76.8760  219.4040 C   0  0  0  0  0  0  0  0  0  0  0  0
  139.6160   76.4530  219.5450 C   0  0  0  0  0  0  0  0  0  0  0  0
  141.3500   76.8150  217.8950 C   0  0  0  0  0  0  0  0  0  0  0  0
  141.9870   76.0400  220.1670 C   0  0  2  0  0  0  0  0  0  0  0  0
  143.4270   76.0310  219.7140 C   0  0  0  0  0  0  0  0  0  0  0  0
  144.1420   74.7680  219.7710 C   0  0  0  0  0  0  0  0  0  0  0  0
  144.1430   73.9730  218.6150 C   0  0  0  0  0  0  0  0  0  0  0  0
  144.8080   72.7910  218.5290 C   0  0  0  0  0  0  0  0  0  0  0  0
  145.5160   72.3350  219.6170 C   0  0  0  0  0  0  0  0  0  0  0  0
  146.1630   71.1530  219.4920 F   0  0  0  0  0  0  0  0  0  0  0  0
  145.5400   73.0810  220.7740 C   0  0  0  0  0  0  0  0  0  0  0  0
  144.8610   74.2810  220.8460 C   0  0  0  0  0  0  0  0  0  0  0  0
  141.6310   74.6120  220.2220 N   0  0  0  0  0  0  0  0  0  0  0  0
  141.0170   74.1580  221.4010 C   0  0  0  0  0  0  0  0  0  0  0  0
  140.8340   75.0390  222.3160 O   0  0  0  0  0  0  0  0  0  0  0  0
  140.5690   72.8040  221.6980 C   0  0  2  0  0  0  0  0  0  0  0  0
  141.4020   71.7420  220.9980 C   0  0  0  0  0  0  0  0  0  0  0  0
  140.7420   71.5470  219.6690 C   0  0  1  0  0  0  0  0  0  0  0  0
  140.8550   70.2020  219.3570 F   0  0  0  0  0  0  0  0  0  0  0  0
  139.3000   71.9400  219.8570 C   0  0  0  0  0  0  0  0  0  0  0  0
  139.2550   72.4400  221.2100 N   0  0  0  0  0  0  0  0  0  0  0  0
  138.0920   72.5630  222.0280 C   0  0  0  0  0  0  0  0  0  0  0  0
  137.7780   71.6520  222.8770 O   0  0  0  0  0  0  0  0  0  0  0  0
  137.1640   73.7200  221.9770 C   0  0  0  0  0  0  0  0  0  0  0  0
  137.8860   74.9480  222.3500 N   0  0  0  0  0  0  0  0  0  0  0  0
  137.3310   76.2370  222.1630 C   0  0  0  0  0  0  0  0  0  0  0  0
  136.1690   76.3630  221.6700 O   0  0  0  0  0  0  0  0  0  0  0  0
  138.0960   77.4420  222.5370 C   0  0  0  0  0  0  0  0  0  0  0  0
  137.4060   78.6260  222.7270 C   0  0  0  0  0  0  0  0  0  0  0  0
  138.1950   79.7280  223.0660 C   0  0  0  0  0  0  0  0  0  0  0  0
  139.5640   79.6400  223.2030 C   0  0  0  0  0  0  0  0  0  0  0  0
  140.3520   80.7320  223.5390 C   0  0  0  0  0  0  0  0  0  0  0  0
  141.7060   80.6030  223.6660 C   0  0  0  0  0  0  0  0  0  0  0  0
  142.4920   81.6560  223.9940 F   0  0  0  0  0  0  0  0  0  0  0  0
  142.3250   79.3860  223.4620 C   0  0  0  0  0  0  0  0  0  0  0  0
  141.5640   78.2630  223.1230 C   0  0  0  0  0  0  0  0  0  0  0  0
  140.2000   78.4200  223.0000 C   0  0  0  0  0  0  0  0  0  0  0  0
  139.4280   77.3520  222.6710 N   0  0  0  0  0  0  0  0  0  0  0  0
  141.1501   78.4839  220.8346 H   0  0  0  0  0  0  0  0  0  0  0  0
  142.0686   78.7712  219.3178 H   0  0  0  0  0  0  0  0  0  0  0  0
  140.2760   78.8862  219.3178 H   0  0  0  0  0  0  0  0  0  0  0  0
  139.3595   76.3772  220.6120 H   0  0  0  0  0  0  0  0  0  0  0  0
  138.9646   77.1970  219.0632 H   0  0  0  0  0  0  0  0  0  0  0  0
  139.4737   75.4744  219.0632 H   0  0  0  0  0  0  0  0  0  0  0  0
  142.4182   76.6000  217.7439 H   0  0  0  0  0  0  0  0  0  0  0  0
  140.7469   76.0203  217.4317 H   0  0  0  0  0  0  0  0  0  0  0  0
  141.1014   77.7812  217.4317 H   0  0  0  0  0  0  0  0  0  0  0  0
  141.8959   76.5468  221.1390 H   0  0  0  0  0  0  0  0  0  0  0  0
  143.4452   76.3726  218.6686 H   0  0  0  0  0  0  0  0  0  0  0  0
  143.9496   76.6805  220.4317 H   0  0  0  0  0  0  0  0  0  0  0  0
  143.5793   74.3227  217.7375 H   0  0  0  0  0  0  0  0  0  0  0  0
  144.7805   72.2046  217.5987 H   0  0  0  0  0  0  0  0  0  0  0  0
  146.1036   72.7187  221.6464 H   0  0  0  0  0  0  0  0  0  0  0  0
  144.8930   74.8621  221.7794 H   0  0  0  0  0  0  0  0  0  0  0  0
  141.8130   73.9600  219.4410 H   0  0  0  0  0  0  0  0  0  0  0  0
  140.6260   72.8264  222.7963 H   0  0  0  0  0  0  0  0  0  0  0  0
  142.4385   72.0868  220.8682 H   0  0  0  0  0  0  0  0  0  0  0  0
  141.4514   70.8076  221.5763 H   0  0  0  0  0  0  0  0  0  0  0  0
  141.1888   72.1428  218.8595 H   0  0  0  0  0  0  0  0  0  0  0  0
  139.0100   72.7222  219.1400 H   0  0  0  0  0  0  0  0  0  0  0  0
  138.6050   71.1042  219.6882 H   0  0  0  0  0  0  0  0  0  0  0  0
  136.7653   73.8250  220.9572 H   0  0  0  0  0  0  0  0  0  0  0  0
  136.3349   73.5551  222.6809 H   0  0  0  0  0  0  0  0  0  0  0  0
  138.8470   74.9090  222.7750 H   0  0  0  0  0  0  0  0  0  0  0  0
  136.3135   78.6949  222.6188 H   0  0  0  0  0  0  0  0  0  0  0  0
  137.7068   80.7001  223.2293 H   0  0  0  0  0  0  0  0  0  0  0  0
  139.8811   81.7122  223.7049 H   0  0  0  0  0  0  0  0  0  0  0  0
  143.4167   79.2998  223.5661 H   0  0  0  0  0  0  0  0  0  0  0  0
  142.0391   77.2845  222.9595 H   0  0  0  0  0  0  0  0  0  0  0  0
  1  2  1  0
  2  3  1  0
  2  4  1  0
  2  5  1  0
  5  6  1  0
  6  7  1  0
  7  8  2  0
  8  9  1  0
  9 10  2  0
 10 11  1  0
 10 12  1  0
 12 13  2  0
  5 14  1  0
 14 15  1  0
 15 16  2  0
 15 17  1  0
 17 18  1  0
 18 19  1  0
 19 20  1  0
 19 21  1  0
 21 22  1  0
 22 23  1  0
 23 24  2  0
 23 25  1  0
 25 26  1  0
 26 27  1  0
 27 28  2  0
 27 29  1  0
 29 30  2  0
 30 31  1  0
 31 32  2  0
 32 33  1  0
 33 34  2  0
 34 35  1  0
 34 36  1  0
 36 37  2  0
 37 38  1  0
 38 39  2  0
 13  7  1  0
 22 17  1  0
 39 29  1  0
 38 32  1  0
  1 40  1  0
  1 41  1  0
  1 42  1  0
  3 43  1  0
  3 44  1  0
  3 45  1  0
  4 46  1  0
  4 47  1  0
  4 48  1  0
  5 49  1  1
  6 50  1  0
  6 51  1  0
  8 52  1  0
  9 53  1  0
 12 54  1  0
 13 55  1  0
 14 56  1  0
 17 57  1  1
 18 58  1  0
 18 59  1  0
 19 60  1  6
 21 61  1  0
 21 62  1  0
 25 63  1  0
 25 64  1  0
 26 65  1  0
 30 66  1  0
 31 67  1  0
 33 68  1  0
 36 69  1  0
 37 70  1  0
M  END
>  <smiles>  (4) 
CC(C)(C)C(Cc1ccc(F)cc1)NC(=O)[C@@H]1C[C@@H](F)CN1C(=O)CNC(=O)c1ccc2cc(F)ccc2n1

>  <score_type>  (4) 
oracle

>  <origin>  (4) 
autodockgpu

>  <m_score__min__energy>  (4) 
-8.8900000000000006

>  <m_primary>  (4) 
energy

>  <meeko>  (4) 
{"free_energy": -7.1, "intermolecular_energy": -9.78, "internal_energy": -5.0, "cluster_size": 5, "cluster_id": 9, "rank_in_cluster": 1}

>  <energy>  (4) 
-8.61

>  <cluster_rmsd>  (4) 
0.0

>  <rmsd>  (4) 
270.19

>  <cluster>  (4) 
3

$$$$

     RDKit          3D

 70 73  0  0  1  0  0  0  0  0999 V2000
  141.3660   76.8720  217.7400 C   0  0  0  0  0  0  0  0  0  0  0  0
  141.0120   76.9550  219.2180 C   0  0  0  0  0  0  0  0  0  0  0  0
  140.9330   78.4020  219.6010 C   0  0  0  0  0  0  0  0  0  0  0  0
  139.5660   76.4300  219.2880 C   0  0  0  0  0  0  0  0  0  0  0  0
  141.9060   76.1660  220.0790 C   0  0  2  0  0  0  0  0  0  0  0  0
  143.3740   76.1610  219.7300 C   0  0  0  0  0  0  0  0  0  0  0  0
  144.0690   74.8850  219.7630 C   0  0  0  0  0  0  0  0  0  0  0  0
  144.0760   74.1240  218.5840 C   0  0  0  0  0  0  0  0  0  0  0  0
  144.7240   72.9340  218.4750 C   0  0  0  0  0  0  0  0  0  0  0  0
  145.4080   72.4360  219.5610 C   0  0  0  0  0  0  0  0  0  0  0  0
  146.0390   71.2490  219.4130 F   0  0  0  0  0  0  0  0  0  0  0  0
  145.4250   73.1490  220.7390 C   0  0  0  0  0  0  0  0  0  0  0  0
  144.7620   74.3570  220.8340 C   0  0  0  0  0  0  0  0  0  0  0  0
  141.5640   74.7360  220.1690 N   0  0  0  0  0  0  0  0  0  0  0  0
  141.0910   74.2740  221.4080 C   0  0  0  0  0  0  0  0  0  0  0  0
  141.0110   75.1510  222.3420 O   0  0  0  0  0  0  0  0  0  0  0  0
  140.6870   72.9170  221.7490 C   0  0  2  0  0  0  0  0  0  0  0  0
  141.5880   71.8620  221.1280 C   0  0  0  0  0  0  0  0  0  0  0  0
  140.9870   71.5830  219.7860 C   0  0  1  0  0  0  0  0  0  0  0  0
  141.1650   70.2310  219.5380 F   0  0  0  0  0  0  0  0  0  0  0  0
  139.5240   71.9240  219.9030 C   0  0  0  0  0  0  0  0  0  0  0  0
  139.4080   72.4780  221.2290 N   0  0  0  0  0  0  0  0  0  0  0  0
  138.2100   72.5890  221.9980 C   0  0  0  0  0  0  0  0  0  0  0  0
  137.8560   71.6600  222.8120 O   0  0  0  0  0  0  0  0  0  0  0  0
  137.2890   73.7500  221.9320 C   0  0  0  0  0  0  0  0  0  0  0  0
  138.0070   74.9720  222.3340 N   0  0  0  0  0  0  0  0  0  0  0  0
  137.4960   76.2670  222.0760 C   0  0  0  0  0  0  0  0  0  0  0  0
  136.3810   76.4050  221.4890 O   0  0  0  0  0  0  0  0  0  0  0  0
  138.2560   77.4640  222.4830 C   0  0  0  0  0  0  0  0  0  0  0  0
  137.5600   78.6370  222.7130 C   0  0  0  0  0  0  0  0  0  0  0  0
  138.3440   79.7340  223.0820 C   0  0  0  0  0  0  0  0  0  0  0  0
  139.7140   79.6500  223.2100 C   0  0  0  0  0  0  0  0  0  0  0  0
  140.4970   80.7360  223.5760 C   0  0  0  0  0  0  0  0  0  0  0  0
  141.8520   80.6120  223.6930 C   0  0  0  0  0  0  0  0  0  0  0  0
  142.6340   81.6580  224.0500 F   0  0  0  0  0  0  0  0  0  0  0  0
  142.4770   79.4050  223.4480 C   0  0  0  0  0  0  0  0  0  0  0  0
  141.7220   78.2890  223.0780 C   0  0  0  0  0  0  0  0  0  0  0  0
  140.3560   78.4410  222.9670 C   0  0  0  0  0  0  0  0  0  0  0  0
  139.5890   77.3790  222.6080 N   0  0  0  0  0  0  0  0  0  0  0  0
  142.4318   76.6221  217.6317 H   0  0  0  0  0  0  0  0  0  0  0  0
  140.7560   76.0925  217.2601 H   0  0  0  0  0  0  0  0  0  0  0  0
  141.1661   77.8414  217.2601 H   0  0  0  0  0  0  0  0  0  0  0  0
  140.9281   78.4914  220.6974 H   0  0  0  0  0  0  0  0  0  0  0  0
  141.8033   78.9372  219.1934 H   0  0  0  0  0  0  0  0  0  0  0  0
  140.0096   78.8393  219.1934 H   0  0  0  0  0  0  0  0  0  0  0  0
  139.2660   76.3211  220.3407 H   0  0  0  0  0  0  0  0  0  0  0  0
  138.8930   77.1412  218.7867 H   0  0  0  0  0  0  0  0  0  0  0  0
  139.5061   75.4527  218.7867 H   0  0  0  0  0  0  0  0  0  0  0  0
  141.7406   76.7110  221.0201 H   0  0  0  0  0  0  0  0  0  0  0  0
  143.4713   76.5625  218.7105 H   0  0  0  0  0  0  0  0  0  0  0  0
  143.8510   76.7595  220.5201 H   0  0  0  0  0  0  0  0  0  0  0  0
  143.5324   74.5079  217.7081 H   0  0  0  0  0  0  0  0  0  0  0  0
  144.7020   72.3744  217.5282 H   0  0  0  0  0  0  0  0  0  0  0  0
  145.9697   72.7543  221.6093 H   0  0  0  0  0  0  0  0  0  0  0  0
  144.7867   74.9107  221.7842 H   0  0  0  0  0  0  0  0  0  0  0  0
  141.6580   74.0880  219.3690 H   0  0  0  0  0  0  0  0  0  0  0  0
  140.7009   72.9886  222.8466 H   0  0  0  0  0  0  0  0  0  0  0  0
  142.6140   72.2439  221.0206 H   0  0  0  0  0  0  0  0  0  0  0  0
  141.6533   70.9562  221.7486 H   0  0  0  0  0  0  0  0  0  0  0  0
  141.4406   72.1618  218.9679 H   0  0  0  0  0  0  0  0  0  0  0  0
  139.2312   72.6625  219.1422 H   0  0  0  0  0  0  0  0  0  0  0  0
  138.8693   71.0543  219.7452 H   0  0  0  0  0  0  0  0  0  0  0  0
  136.9177   73.8650  220.9030 H   0  0  0  0  0  0  0  0  0  0  0  0
  136.4408   73.5834  222.6123 H   0  0  0  0  0  0  0  0  0  0  0  0
  138.9300   74.9230  222.8350 H   0  0  0  0  0  0  0  0  0  0  0  0
  136.4665   78.7021  222.6126 H   0  0  0  0  0  0  0  0  0  0  0  0
  137.8506   80.6976  223.2770 H   0  0  0  0  0  0  0  0  0  0  0  0
  140.0207   81.7076  223.7741 H   0  0  0  0  0  0  0  0  0  0  0  0
  143.5697   79.3222  223.5442 H   0  0  0  0  0  0  0  0  0  0  0  0
  142.2025   77.3192  222.8814 H   0  0  0  0  0  0  0  0  0  0  0  0
  1  2  1  0
  2  3  1  0
  2  4  1  0
  2  5  1  0
  5  6  1  0
  6  7  1  0
  7  8  2  0
  8  9  1  0
  9 10  2  0
 10 11  1  0
 10 12  1  0
 12 13  2  0
  5 14  1  0
 14 15  1  0
 15 16  2  0
 15 17  1  0
 17 18  1  0
 18 19  1  0
 19 20  1  0
 19 21  1  0
 21 22  1  0
 22 23  1  0
 23 24  2  0
 23 25  1  0
 25 26  1  0
 26 27  1  0
 27 28  2  0
 27 29  1  0
 29 30  2  0
 30 31  1  0
 31 32  2  0
 32 33  1  0
 33 34  2  0
 34 35  1  0
 34 36  1  0
 36 37  2  0
 37 38  1  0
 38 39  2  0
 13  7  1  0
 22 17  1  0
 39 29  1  0
 38 32  1  0
  1 40  1  0
  1 41  1  0
  1 42  1  0
  3 43  1  0
  3 44  1  0
  3 45  1  0
  4 46  1  0
  4 47  1  0
  4 48  1  0
  5 49  1  1
  6 50  1  0
  6 51  1  0
  8 52  1  0
  9 53  1  0
 12 54  1  0
 13 55  1  0
 14 56  1  0
 17 57  1  1
 18 58  1  0
 18 59  1  0
 19 60  1  6
 21 61  1  0
 21 62  1  0
 25 63  1  0
 25 64  1  0
 26 65  1  0
 30 66  1  0
 31 67  1  0
 33 68  1  0
 36 69  1  0
 37 70  1  0
M  END
>  <smiles>  (5) 
CC(C)(C)C(Cc1ccc(F)cc1)NC(=O)[C@@H]1C[C@@H](F)CN1C(=O)CNC(=O)c1ccc2cc(F)ccc2n1

>  <score_type>  (5) 
oracle

>  <origin>  (5) 
autodockgpu

>  <m_score__min__energy>  (5) 
-8.8900000000000006

>  <m_primary>  (5) 
energy

>  <meeko>  (5) 
{"free_energy": -6.94, "intermolecular_energy": -9.62, "internal_energy": -5.1, "cluster_size": 5, "cluster_id": 9, "rank_in_cluster": 2}

>  <energy>  (5) 
-8.41

>  <cluster_rmsd>  (5) 
1.23

>  <rmsd>  (5) 
270.11

>  <cluster>  (5) 
3

$$$$

     RDKit          3D

 70 73  0  0  1  0  0  0  0  0999 V2000
  139.3530   75.1230  219.8470 C   0  0  0  0  0  0  0  0  0  0  0  0
  139.7410   74.9890  221.3130 C   0  0  0  0  0  0  0  0  0  0  0  0
  138.9550   73.8590  221.9050 C   0  0  0  0  0  0  0  0  0  0  0  0
  141.2010   74.5000  221.2710 C   0  0  0  0  0  0  0  0  0  0  0  0
  139.6250   76.2470  222.0660 C   0  0  2  0  0  0  0  0  0  0  0  0
  138.2330   76.7500  222.3600 C   0  0  0  0  0  0  0  0  0  0  0  0
  138.0360   78.1880  222.4200 C   0  0  0  0  0  0  0  0  0  0  0  0
  137.4410   78.8050  221.3090 C   0  0  0  0  0  0  0  0  0  0  0  0
  137.1670   80.1350  221.2580 C   0  0  0  0  0  0  0  0  0  0  0  0
  137.4820   80.9300  222.3370 C   0  0  0  0  0  0  0  0  0  0  0  0
  137.1950   82.2490  222.2470 F   0  0  0  0  0  0  0  0  0  0  0  0
  138.0690   80.3670  223.4480 C   0  0  0  0  0  0  0  0  0  0  0  0
  138.3410   79.0140  223.4840 C   0  0  0  0  0  0  0  0  0  0  0  0
  140.2860   77.4020  221.4350 N   0  0  0  0  0  0  0  0  0  0  0  0
  141.2490   78.0780  222.2020 C   0  0  0  0  0  0  0  0  0  0  0  0
  141.4500   77.6200  223.3840 O   0  0  0  0  0  0  0  0  0  0  0  0
  142.0380   79.2370  221.8070 C   0  0  2  0  0  0  0  0  0  0  0  0
  142.7980   79.8550  222.9690 C   0  0  0  0  0  0  0  0  0  0  0  0
  141.8500   80.8470  223.5670 C   0  0  1  0  0  0  0  0  0  0  0  0
  142.6100   81.9230  223.9950 F   0  0  0  0  0  0  0  0  0  0  0  0
  140.9140   81.2520  222.4580 C   0  0  0  0  0  0  0  0  0  0  0  0
  141.2960   80.3980  221.3600 N   0  0  0  0  0  0  0  0  0  0  0  0
  141.0240   80.6250  219.9770 C   0  0  0  0  0  0  0  0  0  0  0  0
  139.8450   80.9360  219.5750 O   0  0  0  0  0  0  0  0  0  0  0  0
  142.0470   80.5250  218.9060 C   0  0  0  0  0  0  0  0  0  0  0  0
  142.5790   79.1530  218.8600 N   0  0  0  0  0  0  0  0  0  0  0  0
  141.7430   78.0250  218.6770 C   0  0  0  0  0  0  0  0  0  0  0  0
  140.4920   78.1770  218.5350 O   0  0  0  0  0  0  0  0  0  0  0  0
  142.3170   76.6660  218.6530 C   0  0  0  0  0  0  0  0  0  0  0  0
  141.8160   75.7580  217.7370 C   0  0  0  0  0  0  0  0  0  0  0  0
  142.3950   74.4870  217.7790 C   0  0  0  0  0  0  0  0  0  0  0  0
  143.3970   74.1630  218.6690 C   0  0  0  0  0  0  0  0  0  0  0  0
  143.9760   72.9030  218.7140 C   0  0  0  0  0  0  0  0  0  0  0  0
  144.9670   72.6210  219.6110 C   0  0  0  0  0  0  0  0  0  0  0  0
  145.5460   71.3980  219.6710 F   0  0  0  0  0  0  0  0  0  0  0  0
  145.4170   73.5820  220.4940 C   0  0  0  0  0  0  0  0  0  0  0  0
  144.8590   74.8640  220.4790 C   0  0  0  0  0  0  0  0  0  0  0  0
  143.8600   75.1210  219.5640 C   0  0  0  0  0  0  0  0  0  0  0  0
  143.2920   76.3540  219.5190 N   0  0  0  0  0  0  0  0  0  0  0  0
  138.3156   75.4813  219.7736 H   0  0  0  0  0  0  0  0  0  0  0  0
  140.0247   75.8412  219.3541 H   0  0  0  0  0  0  0  0  0  0  0  0
  139.4383   74.1433  219.3541 H   0  0  0  0  0  0  0  0  0  0  0  0
  138.9966   73.9189  223.0026 H   0  0  0  0  0  0  0  0  0  0  0  0
  137.9084   73.9272  221.5735 H   0  0  0  0  0  0  0  0  0  0  0  0
  139.3830   72.9014  221.5735 H   0  0  0  0  0  0  0  0  0  0  0  0
  141.5754   74.3746  222.2977 H   0  0  0  0  0  0  0  0  0  0  0  0
  141.2499   73.5364  220.7426 H   0  0  0  0  0  0  0  0  0  0  0  0
  141.8204   75.2397  220.7426 H   0  0  0  0  0  0  0  0  0  0  0  0
  140.1165   75.9205  222.9943 H   0  0  0  0  0  0  0  0  0  0  0  0
  137.5693   76.3594  221.5746 H   0  0  0  0  0  0  0  0  0  0  0  0
  138.0176   76.3959  223.3789 H   0  0  0  0  0  0  0  0  0  0  0  0
  137.1844   78.1830  220.4388 H   0  0  0  0  0  0  0  0  0  0  0  0
  136.6984   80.5719  220.3638 H   0  0  0  0  0  0  0  0  0  0  0  0
  138.3227   80.9989  224.3119 H   0  0  0  0  0  0  0  0  0  0  0  0
  138.8114   78.5840  224.3806 H   0  0  0  0  0  0  0  0  0  0  0  0
  140.0680   77.7140  220.4730 H   0  0  0  0  0  0  0  0  0  0  0  0
  142.6455   78.7845  221.0094 H   0  0  0  0  0  0  0  0  0  0  0  0
  143.0689   79.0855  223.7069 H   0  0  0  0  0  0  0  0  0  0  0  0
  143.7383   80.3250  222.6449 H   0  0  0  0  0  0  0  0  0  0  0  0
  141.2733   80.4533  224.4170 H   0  0  0  0  0  0  0  0  0  0  0  0
  139.8666   81.0771  222.7451 H   0  0  0  0  0  0  0  0  0  0  0  0
  140.9833   82.3216  222.2106 H   0  0  0  0  0  0  0  0  0  0  0  0
  141.5887   80.7729  217.9373 H   0  0  0  0  0  0  0  0  0  0  0  0
  142.8663   81.2284  219.1156 H   0  0  0  0  0  0  0  0  0  0  0  0
  143.6080   78.9620  218.9590 H   0  0  0  0  0  0  0  0  0  0  0  0
  141.0182   76.0184  217.0259 H   0  0  0  0  0  0  0  0  0  0  0  0
  142.0390   73.7181  217.0776 H   0  0  0  0  0  0  0  0  0  0  0  0
  143.6331   72.1220  218.0194 H   0  0  0  0  0  0  0  0  0  0  0  0
  146.2156   73.3389  221.2103 H   0  0  0  0  0  0  0  0  0  0  0  0
  145.2057   75.6423  221.1747 H   0  0  0  0  0  0  0  0  0  0  0  0
  1  2  1  0
  2  3  1  0
  2  4  1  0
  2  5  1  0
  5  6  1  0
  6  7  1  0
  7  8  2  0
  8  9  1  0
  9 10  2  0
 10 11  1  0
 10 12  1  0
 12 13  2  0
  5 14  1  0
 14 15  1  0
 15 16  2  0
 15 17  1  0
 17 18  1  0
 18 19  1  0
 19 20  1  0
 19 21  1  0
 21 22  1  0
 22 23  1  0
 23 24  2  0
 23 25  1  0
 25 26  1  0
 26 27  1  0
 27 28  2  0
 27 29  1  0
 29 30  2  0
 30 31  1  0
 31 32  2  0
 32 33  1  0
 33 34  2  0
 34 35  1  0
 34 36  1  0
 36 37  2  0
 37 38  1  0
 38 39  2  0
 13  7  1  0
 22 17  1  0
 39 29  1  0
 38 32  1  0
  1 40  1  0
  1 41  1  0
  1 42  1  0
  3 43  1  0
  3 44  1  0
  3 45  1  0
  4 46  1  0
  4 47  1  0
  4 48  1  0
  5 49  1  1
  6 50  1  0
  6 51  1  0
  8 52  1  0
  9 53  1  0
 12 54  1  0
 13 55  1  0
 14 56  1  0
 17 57  1  6
 18 58  1  0
 18 59  1  0
 19 60  1  1
 21 61  1  0
 21 62  1  0
 25 63  1  0
 25 64  1  0
 26 65  1  0
 30 66  1  0
 31 67  1  0
 33 68  1  0
 36 69  1  0
 37 70  1  0
M  END
>  <smiles>  (6) 
CC(C)(C)C(Cc1ccc(F)cc1)NC(=O)[C@@H]1C[C@@H](F)CN1C(=O)CNC(=O)c1ccc2cc(F)ccc2n1

>  <score_type>  (6) 
oracle

>  <origin>  (6) 
autodockgpu

>  <m_score__min__energy>  (6) 
-8.8900000000000006

>  <m_primary>  (6) 
energy

>  <meeko>  (6) 
{"free_energy": -6.12, "intermolecular_energy": -8.8, "internal_energy": -5.42, "cluster_size": 2, "cluster_id": 11, "rank_in_cluster": 1}

>  <energy>  (6) 
-8.05

>  <cluster_rmsd>  (6) 
1.57

>  <rmsd>  (6) 
269.9

>  <cluster>  (6) 
3

$$$$

     RDKit          3D

 70 73  0  0  1  0  0  0  0  0999 V2000
  141.5560   79.8640  221.9680 C   0  0  0  0  0  0  0  0  0  0  0  0
  140.9130   78.8150  222.8640 C   0  0  0  0  0  0  0  0  0  0  0  0
  141.8260   78.5660  224.0260 C   0  0  0  0  0  0  0  0  0  0  0  0
  139.6810   79.5280  223.4520 C   0  0  0  0  0  0  0  0  0  0  0  0
  140.5250   77.5910  222.1460 C   0  0  2  0  0  0  0  0  0  0  0  0
  141.3150   77.2360  220.9100 C   0  0  0  0  0  0  0  0  0  0  0  0
  141.8000   75.8710  220.7910 C   0  0  0  0  0  0  0  0  0  0  0  0
  143.0100   75.6730  220.1080 C   0  0  0  0  0  0  0  0  0  0  0  0
  143.5870   74.4510  219.9640 C   0  0  0  0  0  0  0  0  0  0  0  0
  142.9710   73.3450  220.5040 C   0  0  0  0  0  0  0  0  0  0  0  0
  143.5760   72.1470  220.3380 F   0  0  0  0  0  0  0  0  0  0  0  0
  141.7800   73.4940  221.1800 C   0  0  0  0  0  0  0  0  0  0  0  0
  141.2060   74.7420  221.3190 C   0  0  0  0  0  0  0  0  0  0  0  0
  139.1270   77.5690  221.6830 N   0  0  0  0  0  0  0  0  0  0  0  0
  138.3590   76.4490  222.0400 C   0  0  0  0  0  0  0  0  0  0  0  0
  138.9610   75.5510  222.7320 O   0  0  0  0  0  0  0  0  0  0  0  0
  136.9630   76.1950  221.7100 C   0  0  2  0  0  0  0  0  0  0  0  0
  136.0050   77.0940  222.4750 C   0  0  0  0  0  0  0  0  0  0  0  0
  135.7200   76.3620  223.7480 C   0  0  1  0  0  0  0  0  0  0  0  0
  134.3960   76.6130  224.0700 F   0  0  0  0  0  0  0  0  0  0  0  0
  135.9360   74.9010  223.4470 C   0  0  0  0  0  0  0  0  0  0  0  0
  136.4380   74.9010  222.0950 N   0  0  0  0  0  0  0  0  0  0  0  0
  136.4250   73.7990  221.1870 C   0  0  0  0  0  0  0  0  0  0  0  0
  135.3500   73.4570  220.5730 O   0  0  0  0  0  0  0  0  0  0  0  0
  137.6160   72.9690  220.8790 C   0  0  0  0  0  0  0  0  0  0  0  0
  138.3050   72.6120  222.1310 N   0  0  0  0  0  0  0  0  0  0  0  0
  138.6360   71.2740  222.4550 C   0  0  0  0  0  0  0  0  0  0  0  0
  138.3490   70.3350  221.6520 O   0  0  0  0  0  0  0  0  0  0  0  0
  139.3130   70.9600  223.7280 C   0  0  0  0  0  0  0  0  0  0  0  0
  140.2300   71.8680  224.2250 C   0  0  0  0  0  0  0  0  0  0  0  0
  140.8420   71.5000  225.4260 C   0  0  0  0  0  0  0  0  0  0  0  0
  140.5510   70.3170  226.0700 C   0  0  0  0  0  0  0  0  0  0  0  0
  141.1560   69.9470  227.2630 C   0  0  0  0  0  0  0  0  0  0  0  0
  140.8390   68.7650  227.8700 C   0  0  0  0  0  0  0  0  0  0  0  0
  141.4180   68.3860  229.0340 F   0  0  0  0  0  0  0  0  0  0  0  0
  139.9100   67.9090  227.3120 C   0  0  0  0  0  0  0  0  0  0  0  0
  139.2790   68.2470  226.1120 C   0  0  0  0  0  0  0  0  0  0  0  0
  139.6180   69.4450  225.5200 C   0  0  0  0  0  0  0  0  0  0  0  0
  139.0260   69.8080  224.3520 N   0  0  0  0  0  0  0  0  0  0  0  0
  142.0300   80.6372  222.5905 H   0  0  0  0  0  0  0  0  0  0  0  0
  142.3171   79.3871  221.3330 H   0  0  0  0  0  0  0  0  0  0  0  0
  140.7856   80.3258  221.3330 H   0  0  0  0  0  0  0  0  0  0  0  0
  141.2736   78.7167  224.9652 H   0  0  0  0  0  0  0  0  0  0  0  0
  142.2010   77.5328  223.9829 H   0  0  0  0  0  0  0  0  0  0  0  0
  142.6736   79.2658  223.9829 H   0  0  0  0  0  0  0  0  0  0  0  0
  139.7304   79.4994  224.5505 H   0  0  0  0  0  0  0  0  0  0  0  0
  139.6662   80.5743  223.1127 H   0  0  0  0  0  0  0  0  0  0  0  0
  138.7665   79.0196  223.1127 H   0  0  0  0  0  0  0  0  0  0  0  0
  140.7266   76.8668  222.9491 H   0  0  0  0  0  0  0  0  0  0  0  0
  140.6716   77.4338  220.0400 H   0  0  0  0  0  0  0  0  0  0  0  0
  142.2246   77.8514  220.9732 H   0  0  0  0  0  0  0  0  0  0  0  0
  143.5142   76.5466  219.6693 H   0  0  0  0  0  0  0  0  0  0  0  0
  144.5378   74.3468  219.4208 H   0  0  0  0  0  0  0  0  0  0  0  0
  141.2830   72.6129  221.6119 H   0  0  0  0  0  0  0  0  0  0  0  0
  140.2545   74.8389  221.8624 H   0  0  0  0  0  0  0  0  0  0  0  0
  138.7110   78.3340  221.1240 H   0  0  0  0  0  0  0  0  0  0  0  0
  137.0006   76.3348  220.6196 H   0  0  0  0  0  0  0  0  0  0  0  0
  136.4726   78.0673  222.6851 H   0  0  0  0  0  0  0  0  0  0  0  0
  135.0882   77.3017  221.9038 H   0  0  0  0  0  0  0  0  0  0  0  0
  136.3590   76.6691  224.5890 H   0  0  0  0  0  0  0  0  0  0  0  0
  136.6708   74.4626  224.1383 H   0  0  0  0  0  0  0  0  0  0  0  0
  135.0204   74.3022  223.5617 H   0  0  0  0  0  0  0  0  0  0  0  0
  137.2993   72.0519  220.3608 H   0  0  0  0  0  0  0  0  0  0  0  0
  138.3014   73.5379  220.2335 H   0  0  0  0  0  0  0  0  0  0  0  0
  138.5800   73.3460  222.8310 H   0  0  0  0  0  0  0  0  0  0  0  0
  140.4612   72.8128  223.7114 H   0  0  0  0  0  0  0  0  0  0  0  0
  141.5827   72.1790  225.8735 H   0  0  0  0  0  0  0  0  0  0  0  0
  141.8994   70.6132  227.7251 H   0  0  0  0  0  0  0  0  0  0  0  0
  139.6666   66.9603  227.8126 H   0  0  0  0  0  0  0  0  0  0  0  0
  138.5352   67.5783  225.6541 H   0  0  0  0  0  0  0  0  0  0  0  0
  1  2  1  0
  2  3  1  0
  2  4  1  0
  2  5  1  0
  5  6  1  0
  6  7  1  0
  7  8  2  0
  8  9  1  0
  9 10  2  0
 10 11  1  0
 10 12  1  0
 12 13  2  0
  5 14  1  0
 14 15  1  0
 15 16  2  0
 15 17  1  0
 17 18  1  0
 18 19  1  0
 19 20  1  0
 19 21  1  0
 21 22  1  0
 22 23  1  0
 23 24  2  0
 23 25  1  0
 25 26  1  0
 26 27  1  0
 27 28  2  0
 27 29  1  0
 29 30  2  0
 30 31  1  0
 31 32  2  0
 32 33  1  0
 33 34  2  0
 34 35  1  0
 34 36  1  0
 36 37  2  0
 37 38  1  0
 38 39  2  0
 13  7  1  0
 22 17  1  0
 39 29  1  0
 38 32  1  0
  1 40  1  0
  1 41  1  0
  1 42  1  0
  3 43  1  0
  3 44  1  0
  3 45  1  0
  4 46  1  0
  4 47  1  0
  4 48  1  0
  5 49  1  1
  6 50  1  0
  6 51  1  0
  8 52  1  0
  9 53  1  0
 12 54  1  0
 13 55  1  0
 14 56  1  0
 17 57  1  6
 18 58  1  0
 18 59  1  0
 19 60  1  1
 21 61  1  0
 21 62  1  0
 25 63  1  0
 25 64  1  0
 26 65  1  0
 30 66  1  0
 31 67  1  0
 33 68  1  0
 36 69  1  0
 37 70  1  0
M  END
>  <smiles>  (7) 
CC(C)(C)C(Cc1ccc(F)cc1)NC(=O)[C@@H]1C[C@@H](F)CN1C(=O)CNC(=O)c1ccc2cc(F)ccc2n1

>  <score_type>  (7) 
oracle

>  <origin>  (7) 
autodockgpu

>  <m_score__min__energy>  (7) 
-8.8900000000000006

>  <m_primary>  (7) 
energy

>  <meeko>  (7) 
{"free_energy": -8.41, "intermolecular_energy": -11.09, "internal_energy": -3.35, "cluster_size": 3, "cluster_id": 3, "rank_in_cluster": 2}

>  <energy>  (7) 
-8.42

>  <cluster_rmsd>  (7) 
0.0

>  <rmsd>  (7) 
270.49

>  <cluster>  (7) 
4

$$$$

     RDKit          3D

 70 73  0  0  1  0  0  0  0  0999 V2000
  141.0310   78.9010  219.7960 C   0  0  0  0  0  0  0  0  0  0  0  0
  140.8920   77.4570  219.3350 C   0  0  0  0  0  0  0  0  0  0  0  0
  139.4550   77.0560  219.4750 C   0  0  0  0  0  0  0  0  0  0  0  0
  141.1580   77.5200  217.8190 C   0  0  0  0  0  0  0  0  0  0  0  0
  141.8290   76.5380  220.0000 C   0  0  2  0  0  0  0  0  0  0  0  0
  143.2330   76.4670  219.4510 C   0  0  0  0  0  0  0  0  0  0  0  0
  143.8550   75.1570  219.3630 C   0  0  0  0  0  0  0  0  0  0  0  0
  144.6050   74.7240  220.4670 C   0  0  0  0  0  0  0  0  0  0  0  0
  145.2020   73.5040  220.5250 C   0  0  0  0  0  0  0  0  0  0  0  0
  145.0790   72.6420  219.4590 C   0  0  0  0  0  0  0  0  0  0  0  0
  145.6890   71.4390  219.5540 F   0  0  0  0  0  0  0  0  0  0  0  0
  144.3540   73.0280  218.3530 C   0  0  0  0  0  0  0  0  0  0  0  0
  143.7520   74.2700  218.3110 C   0  0  0  0  0  0  0  0  0  0  0  0
  141.3930   75.1310  220.0240 N   0  0  0  0  0  0  0  0  0  0  0  0
  141.0830   74.5870  221.2810 C   0  0  0  0  0  0  0  0  0  0  0  0
  141.2180   75.3740  222.2850 O   0  0  0  0  0  0  0  0  0  0  0  0
  140.6290   73.2320  221.5680 C   0  0  2  0  0  0  0  0  0  0  0  0
  141.5680   72.1690  221.0210 C   0  0  0  0  0  0  0  0  0  0  0  0
  141.0890   71.9120  219.6270 C   0  0  1  0  0  0  0  0  0  0  0  0
  141.2690   70.5600  219.3820 F   0  0  0  0  0  0  0  0  0  0  0  0
  139.6260   72.2740  219.6130 C   0  0  0  0  0  0  0  0  0  0  0  0
  139.3970   72.8180  220.9300 N   0  0  0  0  0  0  0  0  0  0  0  0
  138.1360   72.9390  221.5870 C   0  0  0  0  0  0  0  0  0  0  0  0
  137.6570   71.9750  222.2880 O   0  0  0  0  0  0  0  0  0  0  0  0
  137.2840   74.1530  221.5240 C   0  0  0  0  0  0  0  0  0  0  0  0
  138.0710   75.3290  221.9310 N   0  0  0  0  0  0  0  0  0  0  0  0
  137.4630   76.5450  222.3260 C   0  0  0  0  0  0  0  0  0  0  0  0
  136.1990   76.6460  222.3490 O   0  0  0  0  0  0  0  0  0  0  0  0
  138.2910   77.7040  222.7120 C   0  0  0  0  0  0  0  0  0  0  0  0
  137.6550   78.8940  223.0160 C   0  0  0  0  0  0  0  0  0  0  0  0
  138.5000   79.9520  223.3590 C   0  0  0  0  0  0  0  0  0  0  0  0
  139.8710   79.8180  223.3940 C   0  0  0  0  0  0  0  0  0  0  0  0
  140.7160   80.8650  223.7340 C   0  0  0  0  0  0  0  0  0  0  0  0
  142.0700   80.6910  223.7580 C   0  0  0  0  0  0  0  0  0  0  0  0
  142.9110   81.7000  224.0880 F   0  0  0  0  0  0  0  0  0  0  0  0
  142.6340   79.4700  223.4430 C   0  0  0  0  0  0  0  0  0  0  0  0
  141.8160   78.3910  223.0960 C   0  0  0  0  0  0  0  0  0  0  0  0
  140.4520   78.5940  223.0800 C   0  0  0  0  0  0  0  0  0  0  0  0
  139.6250   77.5690  222.7460 N   0  0  0  0  0  0  0  0  0  0  0  0
  141.0344   78.9362  220.8954 H   0  0  0  0  0  0  0  0  0  0  0  0
  141.9736   79.3191  219.4129 H   0  0  0  0  0  0  0  0  0  0  0  0
  140.1855   79.4912  219.4129 H   0  0  0  0  0  0  0  0  0  0  0  0
  139.1967   76.9839  220.5418 H   0  0  0  0  0  0  0  0  0  0  0  0
  138.8153   77.8099  218.9930 H   0  0  0  0  0  0  0  0  0  0  0  0
  139.2981   76.0798  218.9930 H   0  0  0  0  0  0  0  0  0  0  0  0
  142.2145   77.7702  217.6422 H   0  0  0  0  0  0  0  0  0  0  0  0
  140.9317   76.5434  217.3661 H   0  0  0  0  0  0  0  0  0  0  0  0
  140.5178   78.2914  217.3661 H   0  0  0  0  0  0  0  0  0  0  0  0
  141.8321   77.0077  220.9947 H   0  0  0  0  0  0  0  0  0  0  0  0
  143.2112   76.8899  218.4358 H   0  0  0  0  0  0  0  0  0  0  0  0
  143.8459   77.0191  220.1787 H   0  0  0  0  0  0  0  0  0  0  0  0
  144.7150   75.4031  221.3253 H   0  0  0  0  0  0  0  0  0  0  0  0
  145.7775   73.2088  221.4147 H   0  0  0  0  0  0  0  0  0  0  0  0
  144.2541   72.3428  217.4983 H   0  0  0  0  0  0  0  0  0  0  0  0
  143.1773   74.5589  217.4187 H   0  0  0  0  0  0  0  0  0  0  0  0
  141.3100   74.5570  219.1680 H   0  0  0  0  0  0  0  0  0  0  0  0
  140.5431   73.2930  222.6629 H   0  0  0  0  0  0  0  0  0  0  0  0
  142.6049   72.5361  221.0123 H   0  0  0  0  0  0  0  0  0  0  0  0
  141.5629   71.2565  221.6352 H   0  0  0  0  0  0  0  0  0  0  0  0
  141.6243   72.4915  218.8605 H   0  0  0  0  0  0  0  0  0  0  0  0
  139.4146   73.0238  218.8364 H   0  0  0  0  0  0  0  0  0  0  0  0
  138.9761   71.4159  219.3867 H   0  0  0  0  0  0  0  0  0  0  0  0
  136.9215   74.2931  220.4949 H   0  0  0  0  0  0  0  0  0  0  0  0
  136.4266   74.0338  222.2028 H   0  0  0  0  0  0  0  0  0  0  0  0
  139.1220   75.3050  221.9460 H   0  0  0  0  0  0  0  0  0  0  0  0
  136.5604   78.9998  222.9895 H   0  0  0  0  0  0  0  0  0  0  0  0
  138.0554   80.9264  223.6100 H   0  0  0  0  0  0  0  0  0  0  0  0
  140.2898   81.8469  223.9872 H   0  0  0  0  0  0  0  0  0  0  0  0
  143.7269   79.3468  223.4652 H   0  0  0  0  0  0  0  0  0  0  0  0
  142.2467   77.4108  222.8436 H   0  0  0  0  0  0  0  0  0  0  0  0
  1  2  1  0
  2  3  1  0
  2  4  1  0
  2  5  1  0
  5  6  1  0
  6  7  1  0
  7  8  2  0
  8  9  1  0
  9 10  2  0
 10 11  1  0
 10 12  1  0
 12 13  2  0
  5 14  1  0
 14 15  1  0
 15 16  2  0
 15 17  1  0
 17 18  1  0
 18 19  1  0
 19 20  1  0
 19 21  1  0
 21 22  1  0
 22 23  1  0
 23 24  2  0
 23 25  1  0
 25 26  1  0
 26 27  1  0
 27 28  2  0
 27 29  1  0
 29 30  2  0
 30 31  1  0
 31 32  2  0
 32 33  1  0
 33 34  2  0
 34 35  1  0
 34 36  1  0
 36 37  2  0
 37 38  1  0
 38 39  2  0
 13  7  1  0
 22 17  1  0
 39 29  1  0
 38 32  1  0
  1 40  1  0
  1 41  1  0
  1 42  1  0
  3 43  1  0
  3 44  1  0
  3 45  1  0
  4 46  1  0
  4 47  1  0
  4 48  1  0
  5 49  1  1
  6 50  1  0
  6 51  1  0
  8 52  1  0
  9 53  1  0
 12 54  1  0
 13 55  1  0
 14 56  1  0
 17 57  1  1
 18 58  1  0
 18 59  1  0
 19 60  1  6
 21 61  1  0
 21 62  1  0
 25 63  1  0
 25 64  1  0
 26 65  1  0
 30 66  1  0
 31 67  1  0
 33 68  1  0
 36 69  1  0
 37 70  1  0
M  END
>  <smiles>  (8) 
CC(C)(C)C(Cc1ccc(F)cc1)NC(=O)[C@@H]1C[C@@H](F)CN1C(=O)CNC(=O)c1ccc2cc(F)ccc2n1

>  <score_type>  (8) 
oracle

>  <origin>  (8) 
autodockgpu

>  <m_score__min__energy>  (8) 
-8.8900000000000006

>  <m_primary>  (8) 
energy

>  <meeko>  (8) 
{"free_energy": -6.26, "intermolecular_energy": -8.95, "internal_energy": -5.29, "cluster_size": 5, "cluster_id": 9, "rank_in_cluster": 5}

>  <energy>  (8) 
-8.37

>  <cluster_rmsd>  (8) 
0.0

>  <rmsd>  (8) 
270.52

>  <cluster>  (8) 
5

$$$$

     RDKit          3D

 70 73  0  0  1  0  0  0  0  0999 V2000
  141.8030   78.5830  223.8530 C   0  0  0  0  0  0  0  0  0  0  0  0
  141.9120   79.7030  222.8270 C   0  0  0  0  0  0  0  0  0  0  0  0
  140.9450   80.7830  223.2060 C   0  0  0  0  0  0  0  0  0  0  0  0
  143.3120   80.2970  223.0680 C   0  0  0  0  0  0  0  0  0  0  0  0
  141.7650   79.2400  221.4380 C   0  0  2  0  0  0  0  0  0  0  0  0
  140.8310   80.0210  220.5460 C   0  0  0  0  0  0  0  0  0  0  0  0
  141.4240   80.9530  219.6020 C   0  0  0  0  0  0  0  0  0  0  0  0
  142.3130   80.4300  218.6510 C   0  0  0  0  0  0  0  0  0  0  0  0
  142.9010   81.1900  217.6900 C   0  0  0  0  0  0  0  0  0  0  0  0
  142.6270   82.5380  217.6340 C   0  0  0  0  0  0  0  0  0  0  0  0
  143.2330   83.2600  216.6650 F   0  0  0  0  0  0  0  0  0  0  0  0
  141.7620   83.0940  218.5510 C   0  0  0  0  0  0  0  0  0  0  0  0
  141.1710   82.3080  219.5200 C   0  0  0  0  0  0  0  0  0  0  0  0
  141.2950   77.8510  221.3020 N   0  0  0  0  0  0  0  0  0  0  0  0
  141.8000   77.1160  220.2170 C   0  0  0  0  0  0  0  0  0  0  0  0
  142.6180   77.7370  219.4480 O   0  0  0  0  0  0  0  0  0  0  0  0
  141.4960   75.7340  219.8690 C   0  0  2  0  0  0  0  0  0  0  0  0
  141.7010   75.4410  218.3920 C   0  0  0  0  0  0  0  0  0  0  0  0
  140.3920   75.7720  217.7470 C   0  0  1  0  0  0  0  0  0  0  0  0
  140.2040   74.8560  216.7240 F   0  0  0  0  0  0  0  0  0  0  0  0
  139.3450   75.6100  218.8180 C   0  0  0  0  0  0  0  0  0  0  0  0
  140.1130   75.3260  220.0060 N   0  0  0  0  0  0  0  0  0  0  0  0
  139.6320   74.7010  221.1960 C   0  0  0  0  0  0  0  0  0  0  0  0
  139.9440   75.1540  222.3560 O   0  0  0  0  0  0  0  0  0  0  0  0
  138.7540   73.5040  221.2040 C   0  0  0  0  0  0  0  0  0  0  0  0
  139.0780   72.6640  222.3690 N   0  0  0  0  0  0  0  0  0  0  0  0
  138.8780   71.2630  222.3680 C   0  0  0  0  0  0  0  0  0  0  0  0
  138.4140   70.6870  221.3380 O   0  0  0  0  0  0  0  0  0  0  0  0
  139.2030   70.4610  223.5640 C   0  0  0  0  0  0  0  0  0  0  0  0
  138.8660   69.1190  223.5660 C   0  0  0  0  0  0  0  0  0  0  0  0
  139.1910   68.4240  224.7340 C   0  0  0  0  0  0  0  0  0  0  0  0
  139.8040   69.0340  225.8070 C   0  0  0  0  0  0  0  0  0  0  0  0
  140.1280   68.3490  226.9700 C   0  0  0  0  0  0  0  0  0  0  0  0
  140.7370   68.9900  228.0120 C   0  0  0  0  0  0  0  0  0  0  0  0
  141.0620   68.3400  229.1540 F   0  0  0  0  0  0  0  0  0  0  0  0
  141.0440   70.3340  227.9350 C   0  0  0  0  0  0  0  0  0  0  0  0
  140.7330   71.0580  226.7800 C   0  0  0  0  0  0  0  0  0  0  0  0
  140.1190   70.3870  225.7440 C   0  0  0  0  0  0  0  0  0  0  0  0
  139.8010   71.0570  224.6060 N   0  0  0  0  0  0  0  0  0  0  0  0
  141.8444   79.0088  224.8664 H   0  0  0  0  0  0  0  0  0  0  0  0
  140.8490   78.0526  223.7169 H   0  0  0  0  0  0  0  0  0  0  0  0
  142.6368   77.8786  223.7169 H   0  0  0  0  0  0  0  0  0  0  0  0
  140.8834   80.8518  224.3021 H   0  0  0  0  0  0  0  0  0  0  0  0
  141.2900   81.7441  222.7971 H   0  0  0  0  0  0  0  0  0  0  0  0
  139.9518   80.5459  222.7971 H   0  0  0  0  0  0  0  0  0  0  0  0
  143.4959   80.3750  224.1497 H   0  0  0  0  0  0  0  0  0  0  0  0
  144.0709   79.6433  222.6132 H   0  0  0  0  0  0  0  0  0  0  0  0
  143.3693   81.2969  222.6132 H   0  0  0  0  0  0  0  0  0  0  0  0
  142.8071   79.3781  221.1140 H   0  0  0  0  0  0  0  0  0  0  0  0
  140.2450   79.2931  219.9657 H   0  0  0  0  0  0  0  0  0  0  0  0
  140.2505   80.6526  221.2346 H   0  0  0  0  0  0  0  0  0  0  0  0
  142.5448   79.3552  218.6848 H   0  0  0  0  0  0  0  0  0  0  0  0
  143.5892   80.7325  216.9640 H   0  0  0  0  0  0  0  0  0  0  0  0
  141.5409   84.1708  218.5108 H   0  0  0  0  0  0  0  0  0  0  0  0
  140.4834   82.7714  220.2428 H   0  0  0  0  0  0  0  0  0  0  0  0
  140.6290   77.4180  221.9640 H   0  0  0  0  0  0  0  0  0  0  0  0
  142.1664   75.2143  220.5693 H   0  0  0  0  0  0  0  0  0  0  0  0
  142.5046   76.0696  217.9809 H   0  0  0  0  0  0  0  0  0  0  0  0
  141.9968   74.3965  218.2148 H   0  0  0  0  0  0  0  0  0  0  0  0
  140.3466   76.7896  217.3317 H   0  0  0  0  0  0  0  0  0  0  0  0
  138.7617   76.5347  218.9396 H   0  0  0  0  0  0  0  0  0  0  0  0
  138.6140   74.8220  218.5841 H   0  0  0  0  0  0  0  0  0  0  0  0
  137.7024   73.8213  221.2621 H   0  0  0  0  0  0  0  0  0  0  0  0
  138.9130   72.9271  220.2810 H   0  0  0  0  0  0  0  0  0  0  0  0
  139.4770   73.0800  223.2490 H   0  0  0  0  0  0  0  0  0  0  0  0
  138.3768   68.6335  222.7087 H   0  0  0  0  0  0  0  0  0  0  0  0
  138.9491   67.3529  224.7992 H   0  0  0  0  0  0  0  0  0  0  0  0
  139.8919   67.2779  227.0539 H   0  0  0  0  0  0  0  0  0  0  0  0
  141.5336   70.8354  228.7829 H   0  0  0  0  0  0  0  0  0  0  0  0
  140.9707   72.1291  226.7005 H   0  0  0  0  0  0  0  0  0  0  0  0
  1  2  1  0
  2  3  1  0
  2  4  1  0
  2  5  1  0
  5  6  1  0
  6  7  1  0
  7  8  2  0
  8  9  1  0
  9 10  2  0
 10 11  1  0
 10 12  1  0
 12 13  2  0
  5 14  1  0
 14 15  1  0
 15 16  2  0
 15 17  1  0
 17 18  1  0
 18 19  1  0
 19 20  1  0
 19 21  1  0
 21 22  1  0
 22 23  1  0
 23 24  2  0
 23 25  1  0
 25 26  1  0
 26 27  1  0
 27 28  2  0
 27 29  1  0
 29 30  2  0
 30 31  1  0
 31 32  2  0
 32 33  1  0
 33 34  2  0
 34 35  1  0
 34 36  1  0
 36 37  2  0
 37 38  1  0
 38 39  2  0
 13  7  1  0
 22 17  1  0
 39 29  1  0
 38 32  1  0
  1 40  1  0
  1 41  1  0
  1 42  1  0
  3 43  1  0
  3 44  1  0
  3 45  1  0
  4 46  1  0
  4 47  1  0
  4 48  1  0
  5 49  1  6
  6 50  1  0
  6 51  1  0
  8 52  1  0
  9 53  1  0
 12 54  1  0
 13 55  1  0
 14 56  1  0
 17 57  1  1
 18 58  1  0
 18 59  1  0
 19 60  1  6
 21 61  1  0
 21 62  1  0
 25 63  1  0
 25 64  1  0
 26 65  1  0
 30 66  1  0
 31 67  1  0
 33 68  1  0
 36 69  1  0
 37 70  1  0
M  END
>  <smiles>  (9) 
CC(C)(C)C(Cc1ccc(F)cc1)NC(=O)[C@@H]1C[C@@H](F)CN1C(=O)CNC(=O)c1ccc2cc(F)ccc2n1

>  <score_type>  (9) 
oracle

>  <origin>  (9) 
autodockgpu

>  <m_score__min__energy>  (9) 
-8.8900000000000006

>  <m_primary>  (9) 
energy

>  <meeko>  (9) 
{"free_energy": -8.74, "intermolecular_energy": -11.43, "internal_energy": -3.4, "cluster_size": 2, "cluster_id": 2, "rank_in_cluster": 2}

>  <energy>  (9) 
-8.21

>  <cluster_rmsd>  (9) 
0.0

>  <rmsd>  (9) 
270.27

>  <cluster>  (9) 
6

$$$$

     RDKit          3D

 70 73  0  0  1  0  0  0  0  0999 V2000
  141.2660   76.9040  217.7810 C   0  0  0  0  0  0  0  0  0  0  0  0
  141.0020   77.0130  219.2750 C   0  0  0  0  0  0  0  0  0  0  0  0
  140.9990   78.4650  219.6470 C   0  0  0  0  0  0  0  0  0  0  0  0
  139.5430   76.5430  219.4330 C   0  0  0  0  0  0  0  0  0  0  0  0
  141.9120   76.1970  220.0920 C   0  0  2  0  0  0  0  0  0  0  0  0
  143.3720   76.1950  219.7060 C   0  0  0  0  0  0  0  0  0  0  0  0
  144.0770   74.9250  219.7500 C   0  0  0  0  0  0  0  0  0  0  0  0
  144.0890   74.1530  218.5780 C   0  0  0  0  0  0  0  0  0  0  0  0
  144.7470   72.9680  218.4790 C   0  0  0  0  0  0  0  0  0  0  0  0
  145.4370   72.4860  219.5680 C   0  0  0  0  0  0  0  0  0  0  0  0
  146.0770   71.3030  219.4300 F   0  0  0  0  0  0  0  0  0  0  0  0
  145.4490   73.2100  220.7400 C   0  0  0  0  0  0  0  0  0  0  0  0
  144.7770   74.4130  220.8240 C   0  0  0  0  0  0  0  0  0  0  0  0
  141.5660   74.7660  220.1520 N   0  0  0  0  0  0  0  0  0  0  0  0
  141.0590   74.2880  221.3710 C   0  0  0  0  0  0  0  0  0  0  0  0
  140.9540   75.1510  222.3150 O   0  0  0  0  0  0  0  0  0  0  0  0
  140.6430   72.9270  221.6810 C   0  0  2  0  0  0  0  0  0  0  0  0
  141.5060   71.8780  220.9980 C   0  0  0  0  0  0  0  0  0  0  0  0
  140.8590   71.6520  219.6680 C   0  0  1  0  0  0  0  0  0  0  0  0
  141.0070   70.3070  219.3720 F   0  0  0  0  0  0  0  0  0  0  0  0
  139.4060   72.0120  219.8430 C   0  0  0  0  0  0  0  0  0  0  0  0
  139.3410   72.5250  221.1890 N   0  0  0  0  0  0  0  0  0  0  0  0
  138.1700   72.6290  221.9990 C   0  0  0  0  0  0  0  0  0  0  0  0
  137.8480   71.6980  222.8230 O   0  0  0  0  0  0  0  0  0  0  0  0
  137.2420   73.7870  221.9660 C   0  0  0  0  0  0  0  0  0  0  0  0
  137.9720   75.0130  222.3300 N   0  0  0  0  0  0  0  0  0  0  0  0
  137.4020   76.3010  222.1850 C   0  0  0  0  0  0  0  0  0  0  0  0
  136.2220   76.4280  221.7390 O   0  0  0  0  0  0  0  0  0  0  0  0
  138.1750   77.5050  222.5480 C   0  0  0  0  0  0  0  0  0  0  0  0
  137.4930   78.6960  222.7190 C   0  0  0  0  0  0  0  0  0  0  0  0
  138.2880   79.7970  223.0490 C   0  0  0  0  0  0  0  0  0  0  0  0
  139.6560   79.7000  223.1940 C   0  0  0  0  0  0  0  0  0  0  0  0
  140.4510   80.7900  223.5210 C   0  0  0  0  0  0  0  0  0  0  0  0
  141.8030   80.6530  223.6560 C   0  0  0  0  0  0  0  0  0  0  0  0
  142.5960   81.7030  223.9750 F   0  0  0  0  0  0  0  0  0  0  0  0
  142.4130   79.4280  223.4710 C   0  0  0  0  0  0  0  0  0  0  0  0
  141.6460   78.3070  223.1410 C   0  0  0  0  0  0  0  0  0  0  0  0
  140.2840   78.4730  223.0100 C   0  0  0  0  0  0  0  0  0  0  0  0
  139.5050   77.4070  222.6900 N   0  0  0  0  0  0  0  0  0  0  0  0
  142.2712   76.4890  217.6156 H   0  0  0  0  0  0  0  0  0  0  0  0
  140.5161   76.2419  217.3235 H   0  0  0  0  0  0  0  0  0  0  0  0
  141.2016   77.9023  217.3235 H   0  0  0  0  0  0  0  0  0  0  0  0
  140.9988   78.5628  220.7426 H   0  0  0  0  0  0  0  0  0  0  0  0
  141.8961   78.9507  219.2357 H   0  0  0  0  0  0  0  0  0  0  0  0
  140.0998   78.9470  219.2357 H   0  0  0  0  0  0  0  0  0  0  0  0
  139.2971   76.4638  220.5022 H   0  0  0  0  0  0  0  0  0  0  0  0
  138.8698   77.2697  218.9548 H   0  0  0  0  0  0  0  0  0  0  0  0
  139.4206   75.5600  218.9548 H   0  0  0  0  0  0  0  0  0  0  0  0
  141.7714   76.7167  221.0512 H   0  0  0  0  0  0  0  0  0  0  0  0
  143.4407   76.5742  218.6757 H   0  0  0  0  0  0  0  0  0  0  0  0
  143.8642   76.8147  220.4700 H   0  0  0  0  0  0  0  0  0  0  0  0
  143.5408   74.5240  217.6994 H   0  0  0  0  0  0  0  0  0  0  0  0
  144.7283   72.3995  217.5375 H   0  0  0  0  0  0  0  0  0  0  0  0
  145.9971   72.8274  221.6137 H   0  0  0  0  0  0  0  0  0  0  0  0
  144.7999   74.9765  221.7684 H   0  0  0  0  0  0  0  0  0  0  0  0
  141.6810   74.1290  219.3460 H   0  0  0  0  0  0  0  0  0  0  0  0
  140.6929   72.9632  222.7793 H   0  0  0  0  0  0  0  0  0  0  0  0
  142.5345   72.2467  220.8702 H   0  0  0  0  0  0  0  0  0  0  0  0
  141.5750   70.9516  221.5872 H   0  0  0  0  0  0  0  0  0  0  0  0
  141.2958   72.2496  218.8543 H   0  0  0  0  0  0  0  0  0  0  0  0
  139.1015   72.7790  219.1157 H   0  0  0  0  0  0  0  0  0  0  0  0
  138.7324   71.1580  219.6792 H   0  0  0  0  0  0  0  0  0  0  0  0
  136.8265   73.8949  220.9532 H   0  0  0  0  0  0  0  0  0  0  0  0
  136.4241   73.6214  222.6827 H   0  0  0  0  0  0  0  0  0  0  0  0
  138.9480   74.9740  222.7170 H   0  0  0  0  0  0  0  0  0  0  0  0
  136.4017   78.7713  222.6034 H   0  0  0  0  0  0  0  0  0  0  0  0
  137.8060   80.7745  223.1982 H   0  0  0  0  0  0  0  0  0  0  0  0
  139.9866   81.7755  223.6731 H   0  0  0  0  0  0  0  0  0  0  0  0
  143.5032   79.3343  223.5834 H   0  0  0  0  0  0  0  0  0  0  0  0
  142.1146   77.3233  222.9906 H   0  0  0  0  0  0  0  0  0  0  0  0
  1  2  1  0
  2  3  1  0
  2  4  1  0
  2  5  1  0
  5  6  1  0
  6  7  1  0
  7  8  2  0
  8  9  1  0
  9 10  2  0
 10 11  1  0
 10 12  1  0
 12 13  2  0
  5 14  1  0
 14 15  1  0
 15 16  2  0
 15 17  1  0
 17 18  1  0
 18 19  1  0
 19 20  1  0
 19 21  1  0
 21 22  1  0
 22 23  1  0
 23 24  2  0
 23 25  1  0
 25 26  1  0
 26 27  1  0
 27 28  2  0
 27 29  1  0
 29 30  2  0
 30 31  1  0
 31 32  2  0
 32 33  1  0
 33 34  2  0
 34 35  1  0
 34 36  1  0
 36 37  2  0
 37 38  1  0
 38 39  2  0
 13  7  1  0
 22 17  1  0
 39 29  1  0
 38 32  1  0
  1 40  1  0
  1 41  1  0
  1 42  1  0
  3 43  1  0
  3 44  1  0
  3 45  1  0
  4 46  1  0
  4 47  1  0
  4 48  1  0
  5 49  1  1
  6 50  1  0
  6 51  1  0
  8 52  1  0
  9 53  1  0
 12 54  1  0
 13 55  1  0
 14 56  1  0
 17 57  1  1
 18 58  1  0
 18 59  1  0
 19 60  1  6
 21 61  1  0
 21 62  1  0
 25 63  1  0
 25 64  1  0
 26 65  1  0
 30 66  1  0
 31 67  1  0
 33 68  1  0
 36 69  1  0
 37 70  1  0
M  END
>  <smiles>  (10) 
CC(C)(C)C(Cc1ccc(F)cc1)NC(=O)[C@@H]1C[C@@H](F)CN1C(=O)CNC(=O)c1ccc2cc(F)ccc2n1

>  <score_type>  (10) 
oracle

>  <origin>  (10) 
autodockgpu

>  <m_score__min__energy>  (10) 
-8.8900000000000006

>  <m_primary>  (10) 
energy

>  <meeko>  (10) 
{"free_energy": -6.93, "intermolecular_energy": -9.61, "internal_energy": -5.11, "cluster_size": 5, "cluster_id": 9, "rank_in_cluster": 3}

>  <energy>  (10) 
-7.86

>  <cluster_rmsd>  (10) 
0.44

>  <rmsd>  (10) 
270.31

>  <cluster>  (10) 
6

$$$$

     RDKit          3D

 70 73  0  0  1  0  0  0  0  0999 V2000
  142.9400   77.2060  219.0090 C   0  0  0  0  0  0  0  0  0  0  0  0
  141.6630   77.5760  218.2670 C   0  0  0  0  0  0  0  0  0  0  0  0
  141.9500   77.5430  216.7960 C   0  0  0  0  0  0  0  0  0  0  0  0
  140.7190   76.3880  218.5310 C   0  0  0  0  0  0  0  0  0  0  0  0
  141.0660   78.8390  218.7240 C   0  0  2  0  0  0  0  0  0  0  0  0
  142.0070   79.9050  219.2310 C   0  0  0  0  0  0  0  0  0  0  0  0
  141.9650   80.2210  220.6480 C   0  0  0  0  0  0  0  0  0  0  0  0
  141.6210   81.5330  221.0070 C   0  0  0  0  0  0  0  0  0  0  0  0
  141.5080   81.9430  222.2980 C   0  0  0  0  0  0  0  0  0  0  0  0
  141.7410   81.0440  223.3140 C   0  0  0  0  0  0  0  0  0  0  0  0
  141.6200   81.4900  224.5850 F   0  0  0  0  0  0  0  0  0  0  0  0
  142.0850   79.7460  223.0070 C   0  0  0  0  0  0  0  0  0  0  0  0
  142.1940   79.3450  221.6900 C   0  0  0  0  0  0  0  0  0  0  0  0
  140.0860   78.6950  219.8140 N   0  0  0  0  0  0  0  0  0  0  0  0
  138.8840   79.4100  219.6840 C   0  0  0  0  0  0  0  0  0  0  0  0
  138.7660   80.1250  218.6250 O   0  0  0  0  0  0  0  0  0  0  0  0
  137.7640   79.4310  220.6160 C   0  0  2  0  0  0  0  0  0  0  0  0
  137.5180   80.8090  221.2080 C   0  0  0  0  0  0  0  0  0  0  0  0
  138.3850   80.8660  222.4270 C   0  0  1  0  0  0  0  0  0  0  0  0
  137.6920   81.5950  223.3800 F   0  0  0  0  0  0  0  0  0  0  0  0
  138.5760   79.4390  222.8710 C   0  0  0  0  0  0  0  0  0  0  0  0
  137.9290   78.6690  221.8360 N   0  0  0  0  0  0  0  0  0  0  0  0
  137.4640   77.3240  221.9480 C   0  0  0  0  0  0  0  0  0  0  0  0
  136.7040   76.8090  221.0500 O   0  0  0  0  0  0  0  0  0  0  0  0
  137.8040   76.4230  223.0770 C   0  0  0  0  0  0  0  0  0  0  0  0
  138.7820   75.4180  222.6270 N   0  0  0  0  0  0  0  0  0  0  0  0
  140.0210   75.7780  222.0440 C   0  0  0  0  0  0  0  0  0  0  0  0
  140.3250   77.0010  221.9040 O   0  0  0  0  0  0  0  0  0  0  0  0
  140.9650   74.7380  221.5940 C   0  0  0  0  0  0  0  0  0  0  0  0
  140.5410   73.4210  221.5950 C   0  0  0  0  0  0  0  0  0  0  0  0
  141.4900   72.4880  221.1700 C   0  0  0  0  0  0  0  0  0  0  0  0
  142.7590   72.8550  220.7750 C   0  0  0  0  0  0  0  0  0  0  0  0
  143.7050   71.9330  220.3510 C   0  0  0  0  0  0  0  0  0  0  0  0
  144.9520   72.3370  219.9670 C   0  0  0  0  0  0  0  0  0  0  0  0
  145.8890   71.4540  219.5500 F   0  0  0  0  0  0  0  0  0  0  0  0
  145.3020   73.6730  219.9910 C   0  0  0  0  0  0  0  0  0  0  0  0
  144.3760   74.6320  220.4110 C   0  0  0  0  0  0  0  0  0  0  0  0
  143.1250   74.1960  220.7940 C   0  0  0  0  0  0  0  0  0  0  0  0
  142.1980   75.0990  221.2090 N   0  0  0  0  0  0  0  0  0  0  0  0
  142.7621   77.2576  220.0933 H   0  0  0  0  0  0  0  0  0  0  0  0
  143.2403   76.1839  218.7349 H   0  0  0  0  0  0  0  0  0  0  0  0
  143.7402   77.9092  218.7349 H   0  0  0  0  0  0  0  0  0  0  0  0
  143.0312   77.4187  216.6361 H   0  0  0  0  0  0  0  0  0  0  0  0
  141.4121   76.7008  216.3363 H   0  0  0  0  0  0  0  0  0  0  0  0
  141.6173   78.4853  216.3363 H   0  0  0  0  0  0  0  0  0  0  0  0
  140.6049   76.2444  219.6156 H   0  0  0  0  0  0  0  0  0  0  0  0
  139.7358   76.5943  218.0830 H   0  0  0  0  0  0  0  0  0  0  0  0
  141.1421   75.4768  218.0830 H   0  0  0  0  0  0  0  0  0  0  0  0
  140.6127   79.1513  217.7717 H   0  0  0  0  0  0  0  0  0  0  0  0
  143.0310   79.5783  218.9970 H   0  0  0  0  0  0  0  0  0  0  0  0
  141.6798   80.8277  218.7294 H   0  0  0  0  0  0  0  0  0  0  0  0
  141.4341   82.2638  220.2064 H   0  0  0  0  0  0  0  0  0  0  0  0
  141.2331   82.9828  222.5286 H   0  0  0  0  0  0  0  0  0  0  0  0
  142.2740   79.0246  223.8156 H   0  0  0  0  0  0  0  0  0  0  0  0
  142.4696   78.3039  221.4662 H   0  0  0  0  0  0  0  0  0  0  0  0
  140.2540   78.0980  220.6420 H   0  0  0  0  0  0  0  0  0  0  0  0
  136.9730   79.0293  219.9656 H   0  0  0  0  0  0  0  0  0  0  0  0
  137.8043   81.5941  220.4926 H   0  0  0  0  0  0  0  0  0  0  0  0
  136.4569   80.9732  221.4470 H   0  0  0  0  0  0  0  0  0  0  0  0
  139.3636   81.3377  222.2542 H   0  0  0  0  0  0  0  0  0  0  0  0
  139.6451   79.1883  222.9362 H   0  0  0  0  0  0  0  0  0  0  0  0
  138.1598   79.2442  223.8704 H   0  0  0  0  0  0  0  0  0  0  0  0
  138.2361   77.0125  223.8990 H   0  0  0  0  0  0  0  0  0  0  0  0
  136.8931   75.9160  223.4281 H   0  0  0  0  0  0  0  0  0  0  0  0
  138.5930   74.3880  222.7280 H   0  0  0  0  0  0  0  0  0  0  0  0
  139.5278   73.1290  221.9084 H   0  0  0  0  0  0  0  0  0  0  0  0
  141.2151   71.4231  221.1498 H   0  0  0  0  0  0  0  0  0  0  0  0
  143.4477   70.8639  220.3237 H   0  0  0  0  0  0  0  0  0  0  0  0
  146.3105   73.9825  219.6793 H   0  0  0  0  0  0  0  0  0  0  0  0
  144.6368   75.7004  220.4353 H   0  0  0  0  0  0  0  0  0  0  0  0
  1  2  1  0
  2  3  1  0
  2  4  1  0
  2  5  1  0
  5  6  1  0
  6  7  1  0
  7  8  2  0
  8  9  1  0
  9 10  2  0
 10 11  1  0
 10 12  1  0
 12 13  2  0
  5 14  1  0
 14 15  1  0
 15 16  2  0
 15 17  1  0
 17 18  1  0
 18 19  1  0
 19 20  1  0
 19 21  1  0
 21 22  1  0
 22 23  1  0
 23 24  2  0
 23 25  1  0
 25 26  1  0
 26 27  1  0
 27 28  2  0
 27 29  1  0
 29 30  2  0
 30 31  1  0
 31 32  2  0
 32 33  1  0
 33 34  2  0
 34 35  1  0
 34 36  1  0
 36 37  2  0
 37 38  1  0
 38 39  2  0
 13  7  1  0
 22 17  1  0
 39 29  1  0
 38 32  1  0
  1 40  1  0
  1 41  1  0
  1 42  1  0
  3 43  1  0
  3 44  1  0
  3 45  1  0
  4 46  1  0
  4 47  1  0
  4 48  1  0
  5 49  1  6
  6 50  1  0
  6 51  1  0
  8 52  1  0
  9 53  1  0
 12 54  1  0
 13 55  1  0
 14 56  1  0
 17 57  1  6
 18 58  1  0
 18 59  1  0
 19 60  1  6
 21 61  1  0
 21 62  1  0
 25 63  1  0
 25 64  1  0
 26 65  1  0
 30 66  1  0
 31 67  1  0
 33 68  1  0
 36 69  1  0
 37 70  1  0
M  END
>  <smiles>  (11) 
CC(C)(C)C(Cc1ccc(F)cc1)NC(=O)[C@@H]1C[C@@H](F)CN1C(=O)CNC(=O)c1ccc2cc(F)ccc2n1

>  <score_type>  (11) 
oracle

>  <origin>  (11) 
autodockgpu

>  <m_score__min__energy>  (11) 
-8.8900000000000006

>  <m_primary>  (11) 
energy

>  <meeko>  (11) 
{"free_energy": -6.16, "intermolecular_energy": -8.84, "internal_energy": -5.05, "cluster_size": 1, "cluster_id": 10, "rank_in_cluster": 1}

>  <energy>  (11) 
-8.02

>  <cluster_rmsd>  (11) 
0.0

>  <rmsd>  (11) 
270.2

>  <cluster>  (11) 
7

$$$$

     RDKit          3D

 70 73  0  0  1  0  0  0  0  0999 V2000
  141.3810   77.9650  223.0720 C   0  0  0  0  0  0  0  0  0  0  0  0
  140.2880   77.4500  222.1460 C   0  0  0  0  0  0  0  0  0  0  0  0
  138.9650   77.8980  222.6880 C   0  0  0  0  0  0  0  0  0  0  0  0
  140.4940   78.2470  220.8440 C   0  0  0  0  0  0  0  0  0  0  0  0
  140.3650   76.0020  221.8990 C   0  0  2  0  0  0  0  0  0  0  0  0
  140.8720   75.5580  220.5480 C   0  0  0  0  0  0  0  0  0  0  0  0
  142.1300   74.8320  220.5080 C   0  0  0  0  0  0  0  0  0  0  0  0
  142.1040   73.4750  220.8650 C   0  0  0  0  0  0  0  0  0  0  0  0
  143.2040   72.6780  220.8280 C   0  0  0  0  0  0  0  0  0  0  0  0
  144.4090   73.2100  220.4290 C   0  0  0  0  0  0  0  0  0  0  0  0
  145.4810   72.3860  220.4080 F   0  0  0  0  0  0  0  0  0  0  0  0
  144.4820   74.5380  220.0730 C   0  0  0  0  0  0  0  0  0  0  0  0
  143.3540   75.3350  220.1130 C   0  0  0  0  0  0  0  0  0  0  0  0
  139.0840   75.2880  222.0410 N   0  0  0  0  0  0  0  0  0  0  0  0
  138.1120   75.5300  221.0570 C   0  0  0  0  0  0  0  0  0  0  0  0
  138.4390   76.3580  220.1330 O   0  0  0  0  0  0  0  0  0  0  0  0
  136.7790   74.9480  220.9720 C   0  0  2  0  0  0  0  0  0  0  0  0
  135.7070   75.8460  221.5690 C   0  0  0  0  0  0  0  0  0  0  0  0
  135.6530   75.4720  223.0180 C   0  0  1  0  0  0  0  0  0  0  0  0
  134.3280   75.5670  223.4100 F   0  0  0  0  0  0  0  0  0  0  0  0
  136.1420   74.0490  223.1010 C   0  0  0  0  0  0  0  0  0  0  0  0
  136.5500   73.7480  221.7500 N   0  0  0  0  0  0  0  0  0  0  0  0
  136.7060   72.4480  221.1830 C   0  0  0  0  0  0  0  0  0  0  0  0
  135.6880   71.7630  220.8020 O   0  0  0  0  0  0  0  0  0  0  0  0
  138.0180   71.7830  220.9870 C   0  0  0  0  0  0  0  0  0  0  0  0
  138.4780   71.2140  222.2650 N   0  0  0  0  0  0  0  0  0  0  0  0
  139.4430   71.8600  223.0750 C   0  0  0  0  0  0  0  0  0  0  0  0
  139.9350   72.9720  222.7140 O   0  0  0  0  0  0  0  0  0  0  0  0
  139.8860   71.2460  224.3420 C   0  0  0  0  0  0  0  0  0  0  0  0
  140.7170   71.9790  225.1710 C   0  0  0  0  0  0  0  0  0  0  0  0
  141.1080   71.3320  226.3460 C   0  0  0  0  0  0  0  0  0  0  0  0
  140.6930   70.0550  226.6570 C   0  0  0  0  0  0  0  0  0  0  0  0
  141.0790   69.4070  227.8220 C   0  0  0  0  0  0  0  0  0  0  0  0
  140.6450   68.1410  228.0940 C   0  0  0  0  0  0  0  0  0  0  0  0
  141.0090   67.4930  229.2260 F   0  0  0  0  0  0  0  0  0  0  0  0
  139.8140   67.4730  227.2170 C   0  0  0  0  0  0  0  0  0  0  0  0
  139.4040   68.0920  226.0330 C   0  0  0  0  0  0  0  0  0  0  0  0
  139.8560   69.3700  225.7830 C   0  0  0  0  0  0  0  0  0  0  0  0
  139.4800   70.0040  224.6420 N   0  0  0  0  0  0  0  0  0  0  0  0
  141.0736   77.8201  224.1182 H   0  0  0  0  0  0  0  0  0  0  0  0
  142.3124   77.4110  222.8835 H   0  0  0  0  0  0  0  0  0  0  0  0
  141.5468   79.0360  222.8835 H   0  0  0  0  0  0  0  0  0  0  0  0
  138.9966   77.8873  223.7875 H   0  0  0  0  0  0  0  0  0  0  0  0
  138.7516   78.9185  222.3372 H   0  0  0  0  0  0  0  0  0  0  0  0
  138.1755   77.2171  222.3372 H   0  0  0  0  0  0  0  0  0  0  0  0
  140.7624   79.2854  221.0883 H   0  0  0  0  0  0  0  0  0  0  0  0
  141.3029   77.7876  220.2570 H   0  0  0  0  0  0  0  0  0  0  0  0
  139.5638   78.2371  220.2570 H   0  0  0  0  0  0  0  0  0  0  0  0
  141.0933   75.7463  222.6827 H   0  0  0  0  0  0  0  0  0  0  0  0
  140.1027   74.9085  220.1048 H   0  0  0  0  0  0  0  0  0  0  0  0
  141.0708   76.4925  220.0028 H   0  0  0  0  0  0  0  0  0  0  0  0
  141.1490   73.0362  221.1898 H   0  0  0  0  0  0  0  0  0  0  0  0
  143.1321   71.6183  221.1141 H   0  0  0  0  0  0  0  0  0  0  0  0
  145.4437   74.9669  219.7549 H   0  0  0  0  0  0  0  0  0  0  0  0
  143.4327   76.3934  219.8239 H   0  0  0  0  0  0  0  0  0  0  0  0
  138.8920   74.6340  222.8190 H   0  0  0  0  0  0  0  0  0  0  0  0
  136.7222   74.7708  219.8879 H   0  0  0  0  0  0  0  0  0  0  0  0
  135.9807   76.9051  221.4527 H   0  0  0  0  0  0  0  0  0  0  0  0
  134.7345   75.7163  221.0717 H   0  0  0  0  0  0  0  0  0  0  0  0
  136.2662   76.1159  223.6656 H   0  0  0  0  0  0  0  0  0  0  0  0
  136.9914   73.9660  223.7950 H   0  0  0  0  0  0  0  0  0  0  0  0
  135.3757   73.3564  223.4791 H   0  0  0  0  0  0  0  0  0  0  0  0
  137.9135   70.9783  220.2443 H   0  0  0  0  0  0  0  0  0  0  0  0
  138.7520   72.5202  220.6296 H   0  0  0  0  0  0  0  0  0  0  0  0
  138.0990   70.3020  222.6250 H   0  0  0  0  0  0  0  0  0  0  0  0
  141.0463   72.9987  224.9225 H   0  0  0  0  0  0  0  0  0  0  0  0
  141.7703   71.8604  227.0475 H   0  0  0  0  0  0  0  0  0  0  0  0
  141.7423   69.9191  228.5346 H   0  0  0  0  0  0  0  0  0  0  0  0
  139.4744   66.4531  227.4502 H   0  0  0  0  0  0  0  0  0  0  0  0
  138.7414   67.5756  225.3229 H   0  0  0  0  0  0  0  0  0  0  0  0
  1  2  1  0
  2  3  1  0
  2  4  1  0
  2  5  1  0
  5  6  1  0
  6  7  1  0
  7  8  2  0
  8  9  1  0
  9 10  2  0
 10 11  1  0
 10 12  1  0
 12 13  2  0
  5 14  1  0
 14 15  1  0
 15 16  2  0
 15 17  1  0
 17 18  1  0
 18 19  1  0
 19 20  1  0
 19 21  1  0
 21 22  1  0
 22 23  1  0
 23 24  2  0
 23 25  1  0
 25 26  1  0
 26 27  1  0
 27 28  2  0
 27 29  1  0
 29 30  2  0
 30 31  1  0
 31 32  2  0
 32 33  1  0
 33 34  2  0
 34 35  1  0
 34 36  1  0
 36 37  2  0
 37 38  1  0
 38 39  2  0
 13  7  1  0
 22 17  1  0
 39 29  1  0
 38 32  1  0
  1 40  1  0
  1 41  1  0
  1 42  1  0
  3 43  1  0
  3 44  1  0
  3 45  1  0
  4 46  1  0
  4 47  1  0
  4 48  1  0
  5 49  1  1
  6 50  1  0
  6 51  1  0
  8 52  1  0
  9 53  1  0
 12 54  1  0
 13 55  1  0
 14 56  1  0
 17 57  1  6
 18 58  1  0
 18 59  1  0
 19 60  1  1
 21 61  1  0
 21 62  1  0
 25 63  1  0
 25 64  1  0
 26 65  1  0
 30 66  1  0
 31 67  1  0
 33 68  1  0
 36 69  1  0
 37 70  1  0
M  END
>  <smiles>  (12) 
CC(C)(C)C(Cc1ccc(F)cc1)NC(=O)[C@@H]1C[C@@H](F)CN1C(=O)CNC(=O)c1ccc2cc(F)ccc2n1

>  <score_type>  (12) 
oracle

>  <origin>  (12) 
autodockgpu

>  <m_score__min__energy>  (12) 
-8.8900000000000006

>  <m_primary>  (12) 
energy

>  <meeko>  (12) 
{"free_energy": -8.05, "intermolecular_energy": -10.74, "internal_energy": -3.53, "cluster_size": 3, "cluster_id": 3, "rank_in_cluster": 3}

>  <energy>  (12) 
-7.71

>  <cluster_rmsd>  (12) 
0.0

>  <rmsd>  (12) 
269.74

>  <cluster>  (12) 
8

$$$$

     RDKit          3D

 70 73  0  0  1  0  0  0  0  0999 V2000
  142.2030   79.0440  222.2310 C   0  0  0  0  0  0  0  0  0  0  0  0
  141.2390   78.0390  221.6160 C   0  0  0  0  0  0  0  0  0  0  0  0
  140.6920   77.1810  222.7160 C   0  0  0  0  0  0  0  0  0  0  0  0
  140.0560   78.9000  221.1360 C   0  0  0  0  0  0  0  0  0  0  0  0
  141.8220   77.2730  220.5040 C   0  0  2  0  0  0  0  0  0  0  0  0
  141.1990   77.4520  219.1410 C   0  0  0  0  0  0  0  0  0  0  0  0
  141.7990   76.7360  218.0280 C   0  0  0  0  0  0  0  0  0  0  0  0
  142.9640   77.2770  217.4650 C   0  0  0  0  0  0  0  0  0  0  0  0
  143.6410   76.6820  216.4480 C   0  0  0  0  0  0  0  0  0  0  0  0
  143.1760   75.4940  215.9320 C   0  0  0  0  0  0  0  0  0  0  0  0
  143.8760   74.9340  214.9200 F   0  0  0  0  0  0  0  0  0  0  0  0
  142.0340   74.9280  216.4530 C   0  0  0  0  0  0  0  0  0  0  0  0
  141.3580   75.5440  217.4870 C   0  0  0  0  0  0  0  0  0  0  0  0
  141.8210   75.8130  220.6990 N   0  0  0  0  0  0  0  0  0  0  0  0
  143.0160   75.1350  220.4110 C   0  0  0  0  0  0  0  0  0  0  0  0
  143.9910   75.8610  219.9990 O   0  0  0  0  0  0  0  0  0  0  0  0
  143.2690   73.7050  220.5250 C   0  0  2  0  0  0  0  0  0  0  0  0
  144.7240   73.3870  220.8270 C   0  0  0  0  0  0  0  0  0  0  0  0
  145.3820   73.2810  219.4870 C   0  0  1  0  0  0  0  0  0  0  0  0
  146.3400   72.2840  219.5870 F   0  0  0  0  0  0  0  0  0  0  0  0
  144.2960   72.8930  218.5180 C   0  0  0  0  0  0  0  0  0  0  0  0
  143.0960   72.9230  219.3180 N   0  0  0  0  0  0  0  0  0  0  0  0
  141.8650   72.2650  219.0230 C   0  0  0  0  0  0  0  0  0  0  0  0
  141.8150   71.3000  218.1770 O   0  0  0  0  0  0  0  0  0  0  0  0
  140.5660   72.6230  219.6440 C   0  0  0  0  0  0  0  0  0  0  0  0
  140.3550   71.8060  220.8520 N   0  0  0  0  0  0  0  0  0  0  0  0
  140.3240   72.3720  222.1490 C   0  0  0  0  0  0  0  0  0  0  0  0
  140.4680   73.6220  222.3020 O   0  0  0  0  0  0  0  0  0  0  0  0
  140.1260   71.5130  223.3330 C   0  0  0  0  0  0  0  0  0  0  0  0
  139.3700   70.3630  223.1910 C   0  0  0  0  0  0  0  0  0  0  0  0
  139.2120   69.6060  224.3550 C   0  0  0  0  0  0  0  0  0  0  0  0
  139.7720   69.9780  225.5580 C   0  0  0  0  0  0  0  0  0  0  0  0
  139.6190   69.2300  226.7170 C   0  0  0  0  0  0  0  0  0  0  0  0
  140.1910   69.6330  227.8890 C   0  0  0  0  0  0  0  0  0  0  0  0
  140.0540   68.9170  229.0300 F   0  0  0  0  0  0  0  0  0  0  0  0
  140.9350   70.7940  227.9530 C   0  0  0  0  0  0  0  0  0  0  0  0
  141.1130   71.5750  226.8070 C   0  0  0  0  0  0  0  0  0  0  0  0
  140.5240   71.1450  225.6360 C   0  0  0  0  0  0  0  0  0  0  0  0
  140.6730   71.8780  224.5020 N   0  0  0  0  0  0  0  0  0  0  0  0
  142.1452   78.9837  223.3278 H   0  0  0  0  0  0  0  0  0  0  0  0
  143.2284   78.8155  221.9048 H   0  0  0  0  0  0  0  0  0  0  0  0
  141.9320   80.0590  221.9048 H   0  0  0  0  0  0  0  0  0  0  0  0
  140.9674   77.6130  223.6894 H   0  0  0  0  0  0  0  0  0  0  0  0
  139.5962   77.1329  222.6331 H   0  0  0  0  0  0  0  0  0  0  0  0
  141.1109   76.1673  222.6331 H   0  0  0  0  0  0  0  0  0  0  0  0
  139.5129   79.2952  222.0071 H   0  0  0  0  0  0  0  0  0  0  0  0
  140.4335   79.7361  220.5290 H   0  0  0  0  0  0  0  0  0  0  0  0
  139.3765   78.2837  220.5290 H   0  0  0  0  0  0  0  0  0  0  0  0
  142.8308   77.7112  220.5222 H   0  0  0  0  0  0  0  0  0  0  0  0
  140.1502   77.1284  219.2135 H   0  0  0  0  0  0  0  0  0  0  0  0
  141.3491   78.5153  218.9027 H   0  0  0  0  0  0  0  0  0  0  0  0
  143.3476   78.2271  217.8652 H   0  0  0  0  0  0  0  0  0  0  0  0
  144.5519   77.1455  216.0412 H   0  0  0  0  0  0  0  0  0  0  0  0
  141.6580   73.9791  216.0427 H   0  0  0  0  0  0  0  0  0  0  0  0
  140.4478   75.0751  217.8891 H   0  0  0  0  0  0  0  0  0  0  0  0
  140.9910   75.2950  221.0340 H   0  0  0  0  0  0  0  0  0  0  0  0
  142.5395   73.4496  221.3077 H   0  0  0  0  0  0  0  0  0  0  0  0
  145.1812   74.1930  221.4198 H   0  0  0  0  0  0  0  0  0  0  0  0
  144.8323   72.4639  221.4153 H   0  0  0  0  0  0  0  0  0  0  0  0
  145.8645   74.2118  219.1539 H   0  0  0  0  0  0  0  0  0  0  0  0
  144.2333   73.6143  217.6899 H   0  0  0  0  0  0  0  0  0  0  0  0
  144.4722   71.9128  218.0510 H   0  0  0  0  0  0  0  0  0  0  0  0
  140.5725   73.6881  219.9187 H   0  0  0  0  0  0  0  0  0  0  0  0
  139.7533   72.4331  218.9274 H   0  0  0  0  0  0  0  0  0  0  0  0
  140.2170   70.7660  220.7900 H   0  0  0  0  0  0  0  0  0  0  0  0
  138.9249   70.0656  222.2300 H   0  0  0  0  0  0  0  0  0  0  0  0
  138.6196   68.6803  224.3094 H   0  0  0  0  0  0  0  0  0  0  0  0
  139.0298   68.3015  226.6908 H   0  0  0  0  0  0  0  0  0  0  0  0
  141.3880   71.1048  228.9060 H   0  0  0  0  0  0  0  0  0  0  0  0
  141.7037   72.5024  226.8382 H   0  0  0  0  0  0  0  0  0  0  0  0
  1  2  1  0
  2  3  1  0
  2  4  1  0
  2  5  1  0
  5  6  1  0
  6  7  1  0
  7  8  2  0
  8  9  1  0
  9 10  2  0
 10 11  1  0
 10 12  1  0
 12 13  2  0
  5 14  1  0
 14 15  1  0
 15 16  2  0
 15 17  1  0
 17 18  1  0
 18 19  1  0
 19 20  1  0
 19 21  1  0
 21 22  1  0
 22 23  1  0
 23 24  2  0
 23 25  1  0
 25 26  1  0
 26 27  1  0
 27 28  2  0
 27 29  1  0
 29 30  2  0
 30 31  1  0
 31 32  2  0
 32 33  1  0
 33 34  2  0
 34 35  1  0
 34 36  1  0
 36 37  2  0
 37 38  1  0
 38 39  2  0
 13  7  1  0
 22 17  1  0
 39 29  1  0
 38 32  1  0
  1 40  1  0
  1 41  1  0
  1 42  1  0
  3 43  1  0
  3 44  1  0
  3 45  1  0
  4 46  1  0
  4 47  1  0
  4 48  1  0
  5 49  1  6
  6 50  1  0
  6 51  1  0
  8 52  1  0
  9 53  1  0
 12 54  1  0
 13 55  1  0
 14 56  1  0
 17 57  1  1
 18 58  1  0
 18 59  1  0
 19 60  1  6
 21 61  1  0
 21 62  1  0
 25 63  1  0
 25 64  1  0
 26 65  1  0
 30 66  1  0
 31 67  1  0
 33 68  1  0
 36 69  1  0
 37 70  1  0
M  END
>  <smiles>  (13) 
CC(C)(C)C(Cc1ccc(F)cc1)NC(=O)[C@@H]1C[C@@H](F)CN1C(=O)CNC(=O)c1ccc2cc(F)ccc2n1

>  <score_type>  (13) 
oracle

>  <origin>  (13) 
autodockgpu

>  <m_score__min__energy>  (13) 
-8.8900000000000006

>  <m_primary>  (13) 
energy

>  <meeko>  (13) 
{"free_energy": -7.71, "intermolecular_energy": -10.4, "internal_energy": -3.93, "cluster_size": 1, "cluster_id": 8, "rank_in_cluster": 1}

>  <energy>  (13) 
-7.1

>  <cluster_rmsd>  (13) 
0.0

>  <rmsd>  (13) 
269.78

>  <cluster>  (13) 
9

$$$$

     RDKit          3D

 70 73  0  0  1  0  0  0  0  0999 V2000
  138.2850   74.2190  221.9290 C   0  0  0  0  0  0  0  0  0  0  0  0
  139.3170   75.2260  221.4410 C   0  0  0  0  0  0  0  0  0  0  0  0
  140.6350   74.5230  221.3130 C   0  0  0  0  0  0  0  0  0  0  0  0
  138.8780   75.5460  220.0000 C   0  0  0  0  0  0  0  0  0  0  0  0
  139.3770   76.4470  222.2590 C   0  0  2  0  0  0  0  0  0  0  0  0
  138.0640   77.0530  222.6920 C   0  0  0  0  0  0  0  0  0  0  0  0
  137.8750   78.4760  222.4700 C   0  0  0  0  0  0  0  0  0  0  0  0
  138.2000   79.3430  223.5240 C   0  0  0  0  0  0  0  0  0  0  0  0
  138.1060   80.6950  223.4270 C   0  0  0  0  0  0  0  0  0  0  0  0
  137.6690   81.2580  222.2500 C   0  0  0  0  0  0  0  0  0  0  0  0
  137.5870   82.6070  222.1930 F   0  0  0  0  0  0  0  0  0  0  0  0
  137.3360   80.4440  221.1900 C   0  0  0  0  0  0  0  0  0  0  0  0
  137.4390   79.0720  221.3030 C   0  0  0  0  0  0  0  0  0  0  0  0
  140.0890   77.5720  221.6300 N   0  0  0  0  0  0  0  0  0  0  0  0
  141.1750   78.1100  222.3400 C   0  0  0  0  0  0  0  0  0  0  0  0
  141.4330   77.5660  223.4730 O   0  0  0  0  0  0  0  0  0  0  0  0
  142.0350   79.2140  221.9340 C   0  0  2  0  0  0  0  0  0  0  0  0
  142.9020   79.7320  223.0690 C   0  0  0  0  0  0  0  0  0  0  0  0
  142.0710   80.7780  223.7440 C   0  0  1  0  0  0  0  0  0  0  0  0
  142.9370   81.7760  224.1580 F   0  0  0  0  0  0  0  0  0  0  0  0
  141.1150   81.2910  222.6980 C   0  0  0  0  0  0  0  0  0  0  0  0
  141.3680   80.4440  221.5580 N   0  0  0  0  0  0  0  0  0  0  0  0
  141.0460   80.7350  220.1990 C   0  0  0  0  0  0  0  0  0  0  0  0
  139.8950   81.2040  219.8760 O   0  0  0  0  0  0  0  0  0  0  0  0
  141.9800   80.5280  219.0640 C   0  0  0  0  0  0  0  0  0  0  0  0
  142.4450   79.1300  219.0590 N   0  0  0  0  0  0  0  0  0  0  0  0
  141.5660   78.0430  218.8380 C   0  0  0  0  0  0  0  0  0  0  0  0
  140.3340   78.2550  218.6240 O   0  0  0  0  0  0  0  0  0  0  0  0
  142.0720   76.6570  218.8550 C   0  0  0  0  0  0  0  0  0  0  0  0
  141.4110   75.7070  218.0990 C   0  0  0  0  0  0  0  0  0  0  0  0
  141.9360   74.4140  218.1730 C   0  0  0  0  0  0  0  0  0  0  0  0
  143.0370   74.1090  218.9450 C   0  0  0  0  0  0  0  0  0  0  0  0
  143.5630   72.8270  219.0230 C   0  0  0  0  0  0  0  0  0  0  0  0
  144.6550   72.5660  219.7990 C   0  0  0  0  0  0  0  0  0  0  0  0
  145.1840   71.3230  219.8880 F   0  0  0  0  0  0  0  0  0  0  0  0
  145.2640   73.5700  220.5270 C   0  0  0  0  0  0  0  0  0  0  0  0
  144.7640   74.8740  220.4740 C   0  0  0  0  0  0  0  0  0  0  0  0
  143.6600   75.1100  219.6830 C   0  0  0  0  0  0  0  0  0  0  0  0
  143.1440   76.3650  219.6060 N   0  0  0  0  0  0  0  0  0  0  0  0
  138.2744   74.2086  223.0289 H   0  0  0  0  0  0  0  0  0  0  0  0
  137.2902   74.5032  221.5554 H   0  0  0  0  0  0  0  0  0  0  0  0
  138.5447   73.2175  221.5554 H   0  0  0  0  0  0  0  0  0  0  0  0
  141.0355   74.3094  222.3150 H   0  0  0  0  0  0  0  0  0  0  0  0
  140.4956   73.5794  220.7650 H   0  0  0  0  0  0  0  0  0  0  0  0
  141.3410   75.1644  220.7650 H   0  0  0  0  0  0  0  0  0  0  0  0
  137.9893   76.1938  220.0228 H   0  0  0  0  0  0  0  0  0  0  0  0
  139.6946   76.0622  219.4740 H   0  0  0  0  0  0  0  0  0  0  0  0
  138.6365   74.6106  219.4740 H   0  0  0  0  0  0  0  0  0  0  0  0
  139.9089   76.0293  223.1265 H   0  0  0  0  0  0  0  0  0  0  0  0
  137.2640   76.5263  222.1510 H   0  0  0  0  0  0  0  0  0  0  0  0
  138.0494   76.9363  223.7857 H   0  0  0  0  0  0  0  0  0  0  0  0
  138.5470   78.9081  224.4729 H   0  0  0  0  0  0  0  0  0  0  0  0
  138.3766   81.3332  224.2811 H   0  0  0  0  0  0  0  0  0  0  0  0
  136.9858   80.8900  220.2474 H   0  0  0  0  0  0  0  0  0  0  0  0
  137.1679   78.4397  220.4447 H   0  0  0  0  0  0  0  0  0  0  0  0
  139.8200   77.9600  220.7100 H   0  0  0  0  0  0  0  0  0  0  0  0
  142.5618   78.7395  221.0930 H   0  0  0  0  0  0  0  0  0  0  0  0
  143.1467   78.9205  223.7702 H   0  0  0  0  0  0  0  0  0  0  0  0
  143.8596   80.1346  222.7072 H   0  0  0  0  0  0  0  0  0  0  0  0
  141.5096   80.4056  224.6136 H   0  0  0  0  0  0  0  0  0  0  0  0
  140.0731   81.1920  223.0366 H   0  0  0  0  0  0  0  0  0  0  0  0
  141.2592   82.3587  222.4759 H   0  0  0  0  0  0  0  0  0  0  0  0
  141.4617   80.7454  218.1184 H   0  0  0  0  0  0  0  0  0  0  0  0
  142.8433   81.2011  219.1722 H   0  0  0  0  0  0  0  0  0  0  0  0
  143.4570   78.8900  219.2160 H   0  0  0  0  0  0  0  0  0  0  0  0
  140.5334   75.9516  217.4825 H   0  0  0  0  0  0  0  0  0  0  0  0
  141.4541   73.6116  217.5952 H   0  0  0  0  0  0  0  0  0  0  0  0
  143.0942   72.0116  218.4526 H   0  0  0  0  0  0  0  0  0  0  0  0
  146.1427   73.3429  221.1485 H   0  0  0  0  0  0  0  0  0  0  0  0
  145.2366   75.6864  221.0455 H   0  0  0  0  0  0  0  0  0  0  0  0
  1  2  1  0
  2  3  1  0
  2  4  1  0
  2  5  1  0
  5  6  1  0
  6  7  1  0
  7  8  2  0
  8  9  1  0
  9 10  2  0
 10 11  1  0
 10 12  1  0
 12 13  2  0
  5 14  1  0
 14 15  1  0
 15 16  2  0
 15 17  1  0
 17 18  1  0
 18 19  1  0
 19 20  1  0
 19 21  1  0
 21 22  1  0
 22 23  1  0
 23 24  2  0
 23 25  1  0
 25 26  1  0
 26 27  1  0
 27 28  2  0
 27 29  1  0
 29 30  2  0
 30 31  1  0
 31 32  2  0
 32 33  1  0
 33 34  2  0
 34 35  1  0
 34 36  1  0
 36 37  2  0
 37 38  1  0
 38 39  2  0
 13  7  1  0
 22 17  1  0
 39 29  1  0
 38 32  1  0
  1 40  1  0
  1 41  1  0
  1 42  1  0
  3 43  1  0
  3 44  1  0
  3 45  1  0
  4 46  1  0
  4 47  1  0
  4 48  1  0
  5 49  1  1
  6 50  1  0
  6 51  1  0
  8 52  1  0
  9 53  1  0
 12 54  1  0
 13 55  1  0
 14 56  1  0
 17 57  1  6
 18 58  1  0
 18 59  1  0
 19 60  1  1
 21 61  1  0
 21 62  1  0
 25 63  1  0
 25 64  1  0
 26 65  1  0
 30 66  1  0
 31 67  1  0
 33 68  1  0
 36 69  1  0
 37 70  1  0
M  END
>  <smiles>  (14) 
CC(C)(C)C(Cc1ccc(F)cc1)NC(=O)[C@@H]1C[C@@H](F)CN1C(=O)CNC(=O)c1ccc2cc(F)ccc2n1

>  <score_type>  (14) 
oracle

>  <origin>  (14) 
autodockgpu

>  <m_score__min__energy>  (14) 
-8.8900000000000006

>  <m_primary>  (14) 
energy

>  <meeko>  (14) 
{"free_energy": -5.95, "intermolecular_energy": -8.64, "internal_energy": -5.52, "cluster_size": 2, "cluster_id": 11, "rank_in_cluster": 2}

>  <energy>  (14) 
-6.94

>  <cluster_rmsd>  (14) 
0.18

>  <rmsd>  (14) 
269.81

>  <cluster>  (14) 
9

$$$$

     RDKit          3D

 70 73  0  0  1  0  0  0  0  0999 V2000
  141.8060   81.9540  221.8950 C   0  0  0  0  0  0  0  0  0  0  0  0
  141.7390   80.5480  222.4750 C   0  0  0  0  0  0  0  0  0  0  0  0
  143.1320   80.1180  222.8230 C   0  0  0  0  0  0  0  0  0  0  0  0
  141.0140   80.7310  223.8210 C   0  0  0  0  0  0  0  0  0  0  0  0
  141.0250   79.5930  221.6130 C   0  0  2  0  0  0  0  0  0  0  0  0
  139.5640   79.3560  221.9090 C   0  0  0  0  0  0  0  0  0  0  0  0
  139.0290   78.0330  221.6360 C   0  0  0  0  0  0  0  0  0  0  0  0
  138.8520   77.1700  222.7280 C   0  0  0  0  0  0  0  0  0  0  0  0
  138.3230   75.9240  222.6090 C   0  0  0  0  0  0  0  0  0  0  0  0
  137.9400   75.4690  221.3670 C   0  0  0  0  0  0  0  0  0  0  0  0
  137.4190   74.2230  221.2900 F   0  0  0  0  0  0  0  0  0  0  0  0
  138.0980   76.2820  220.2670 C   0  0  0  0  0  0  0  0  0  0  0  0
  138.6360   77.5460  220.4050 C   0  0  0  0  0  0  0  0  0  0  0  0
  141.6010   78.2370  221.5930 N   0  0  0  0  0  0  0  0  0  0  0  0
  141.9450   77.7150  220.3350 C   0  0  0  0  0  0  0  0  0  0  0  0
  141.7140   78.4750  219.3270 O   0  0  0  0  0  0  0  0  0  0  0  0
  142.5280   76.4110  220.0510 C   0  0  2  0  0  0  0  0  0  0  0  0
  143.3220   76.3910  218.7550 C   0  0  0  0  0  0  0  0  0  0  0  0
  142.3230   76.0490  217.6950 C   0  0  1  0  0  0  0  0  0  0  0  0
  142.9770   75.2570  216.7660 F   0  0  0  0  0  0  0  0  0  0  0  0
  141.2280   75.2780  218.3870 C   0  0  0  0  0  0  0  0  0  0  0  0
  141.5970   75.3350  219.7800 N   0  0  0  0  0  0  0  0  0  0  0  0
  141.1520   74.4540  220.8110 C   0  0  0  0  0  0  0  0  0  0  0  0
  141.1210   74.8300  222.0390 O   0  0  0  0  0  0  0  0  0  0  0  0
  140.6970   73.0620  220.5700 C   0  0  0  0  0  0  0  0  0  0  0  0
  140.5720   72.3550  221.8560 N   0  0  0  0  0  0  0  0  0  0  0  0
  139.9320   71.0970  221.9660 C   0  0  0  0  0  0  0  0  0  0  0  0
  139.4520   70.5350  220.9360 O   0  0  0  0  0  0  0  0  0  0  0  0
  139.8160   70.4310  223.2780 C   0  0  0  0  0  0  0  0  0  0  0  0
  139.1890   69.1990  223.3360 C   0  0  0  0  0  0  0  0  0  0  0  0
  139.1030   68.6330  224.6100 C   0  0  0  0  0  0  0  0  0  0  0  0
  139.6090   69.2580  225.7300 C   0  0  0  0  0  0  0  0  0  0  0  0
  139.5260   68.7000  226.9980 C   0  0  0  0  0  0  0  0  0  0  0  0
  140.0410   69.3510  228.0820 C   0  0  0  0  0  0  0  0  0  0  0  0
  139.9710   68.8240  229.3280 F   0  0  0  0  0  0  0  0  0  0  0  0
  140.6560   70.5800  227.9450 C   0  0  0  0  0  0  0  0  0  0  0  0
  140.7600   71.1730  226.6840 C   0  0  0  0  0  0  0  0  0  0  0  0
  140.2310   70.4950  225.6070 C   0  0  0  0  0  0  0  0  0  0  0  0
  140.3110   71.0410  224.3650 N   0  0  0  0  0  0  0  0  0  0  0  0
  141.8409   82.6873  222.7142 H   0  0  0  0  0  0  0  0  0  0  0  0
  142.7099   82.0526  221.2759 H   0  0  0  0  0  0  0  0  0  0  0  0
  140.9156   82.1381  221.2759 H   0  0  0  0  0  0  0  0  0  0  0  0
  143.2427   80.0838  223.9169 H   0  0  0  0  0  0  0  0  0  0  0  0
  143.3229   79.1191  222.4038 H   0  0  0  0  0  0  0  0  0  0  0  0
  143.8527   80.8355  222.4038 H   0  0  0  0  0  0  0  0  0  0  0  0
  141.7204   80.5527  224.6452 H   0  0  0  0  0  0  0  0  0  0  0  0
  140.6217   81.7564  223.8897 H   0  0  0  0  0  0  0  0  0  0  0  0
  140.1820   80.0147  223.8897 H   0  0  0  0  0  0  0  0  0  0  0  0
  141.1391   80.1257  220.6574 H   0  0  0  0  0  0  0  0  0  0  0  0
  139.4074   79.5602  222.9785 H   0  0  0  0  0  0  0  0  0  0  0  0
  139.0270   80.0228  221.2183 H   0  0  0  0  0  0  0  0  0  0  0  0
  139.1554   77.5180  223.7264 H   0  0  0  0  0  0  0  0  0  0  0  0
  138.2019   75.2850  223.4962 H   0  0  0  0  0  0  0  0  0  0  0  0
  137.7939   75.9225  219.2729 H   0  0  0  0  0  0  0  0  0  0  0  0
  138.7543   78.1798  219.5138 H   0  0  0  0  0  0  0  0  0  0  0  0
  141.7550   77.6820  222.4510 H   0  0  0  0  0  0  0  0  0  0  0  0
  143.0996   76.2580  220.9783 H   0  0  0  0  0  0  0  0  0  0  0  0
  143.7700   77.3767  218.5607 H   0  0  0  0  0  0  0  0  0  0  0  0
  144.1517   75.6696  218.7895 H   0  0  0  0  0  0  0  0  0  0  0  0
  141.8985   76.9264  217.1851 H   0  0  0  0  0  0  0  0  0  0  0  0
  140.2494   75.7520  218.2208 H   0  0  0  0  0  0  0  0  0  0  0  0
  141.1308   74.2478  218.0137 H   0  0  0  0  0  0  0  0  0  0  0  0
  139.7202   73.0782  220.0644 H   0  0  0  0  0  0  0  0  0  0  0  0
  141.4303   72.5419  219.9362 H   0  0  0  0  0  0  0  0  0  0  0  0
  140.9610   72.7630  222.7430 H   0  0  0  0  0  0  0  0  0  0  0  0
  138.7866   68.7004  222.4418 H   0  0  0  0  0  0  0  0  0  0  0  0
  138.6143   67.6541  224.7238 H   0  0  0  0  0  0  0  0  0  0  0  0
  139.0399   67.7223  227.1312 H   0  0  0  0  0  0  0  0  0  0  0  0
  141.0641   71.0922  228.8288 H   0  0  0  0  0  0  0  0  0  0  0  0
  141.2486   72.1500  226.5550 H   0  0  0  0  0  0  0  0  0  0  0  0
  1  2  1  0
  2  3  1  0
  2  4  1  0
  2  5  1  0
  5  6  1  0
  6  7  1  0
  7  8  2  0
  8  9  1  0
  9 10  2  0
 10 11  1  0
 10 12  1  0
 12 13  2  0
  5 14  1  0
 14 15  1  0
 15 16  2  0
 15 17  1  0
 17 18  1  0
 18 19  1  0
 19 20  1  0
 19 21  1  0
 21 22  1  0
 22 23  1  0
 23 24  2  0
 23 25  1  0
 25 26  1  0
 26 27  1  0
 27 28  2  0
 27 29  1  0
 29 30  2  0
 30 31  1  0
 31 32  2  0
 32 33  1  0
 33 34  2  0
 34 35  1  0
 34 36  1  0
 36 37  2  0
 37 38  1  0
 38 39  2  0
 13  7  1  0
 22 17  1  0
 39 29  1  0
 38 32  1  0
  1 40  1  0
  1 41  1  0
  1 42  1  0
  3 43  1  0
  3 44  1  0
  3 45  1  0
  4 46  1  0
  4 47  1  0
  4 48  1  0
  5 49  1  6
  6 50  1  0
  6 51  1  0
  8 52  1  0
  9 53  1  0
 12 54  1  0
 13 55  1  0
 14 56  1  0
 17 57  1  1
 18 58  1  0
 18 59  1  0
 19 60  1  6
 21 61  1  0
 21 62  1  0
 25 63  1  0
 25 64  1  0
 26 65  1  0
 30 66  1  0
 31 67  1  0
 33 68  1  0
 36 69  1  0
 37 70  1  0
M  END
>  <smiles>  (15) 
CC(C)(C)C(Cc1ccc(F)cc1)NC(=O)[C@@H]1C[C@@H](F)CN1C(=O)CNC(=O)c1ccc2cc(F)ccc2n1

>  <score_type>  (15) 
oracle

>  <origin>  (15) 
autodockgpu

>  <m_score__min__energy>  (15) 
-8.8900000000000006

>  <m_primary>  (15) 
energy

>  <meeko>  (15) 
{"free_energy": -7.86, "intermolecular_energy": -10.55, "internal_energy": -4.07, "cluster_size": 2, "cluster_id": 6, "rank_in_cluster": 2}

>  <energy>  (15) 
-6.93

>  <cluster_rmsd>  (15) 
0.15

>  <rmsd>  (15) 
269.8

>  <cluster>  (15) 
9

$$$$

     RDKit          3D

 70 73  0  0  1  0  0  0  0  0999 V2000
  142.4710   74.6120  220.7720 C   0  0  0  0  0  0  0  0  0  0  0  0
  141.9110   75.8200  220.0350 C   0  0  0  0  0  0  0  0  0  0  0  0
  143.0520   76.7270  219.6850 C   0  0  0  0  0  0  0  0  0  0  0  0
  141.4150   75.2450  218.6950 C   0  0  0  0  0  0  0  0  0  0  0  0
  140.8220   76.4940  220.7590 C   0  0  2  0  0  0  0  0  0  0  0  0
  141.0690   76.8460  222.2060 C   0  0  0  0  0  0  0  0  0  0  0  0
  141.3690   78.2330  222.5190 C   0  0  0  0  0  0  0  0  0  0  0  0
  141.8440   78.5160  223.8080 C   0  0  0  0  0  0  0  0  0  0  0  0
  142.1970   79.7650  224.2100 C   0  0  0  0  0  0  0  0  0  0  0  0
  142.0890   80.8140  223.3260 C   0  0  0  0  0  0  0  0  0  0  0  0
  142.4490   82.0420  223.7640 F   0  0  0  0  0  0  0  0  0  0  0  0
  141.6240   80.5830  222.0500 C   0  0  0  0  0  0  0  0  0  0  0  0
  141.2700   79.3070  221.6560 C   0  0  0  0  0  0  0  0  0  0  0  0
  139.5550   75.7450  220.7950 N   0  0  0  0  0  0  0  0  0  0  0  0
  138.3720   76.4950  220.6860 C   0  0  0  0  0  0  0  0  0  0  0  0
  138.5190   77.7640  220.5720 O   0  0  0  0  0  0  0  0  0  0  0  0
  137.0050   75.9920  220.6900 C   0  0  2  0  0  0  0  0  0  0  0  0
  136.0660   76.8490  221.5250 C   0  0  0  0  0  0  0  0  0  0  0  0
  136.1580   76.2860  222.9080 C   0  0  1  0  0  0  0  0  0  0  0  0
  134.8950   76.3880  223.4690 F   0  0  0  0  0  0  0  0  0  0  0  0
  136.5630   74.8430  222.7470 C   0  0  0  0  0  0  0  0  0  0  0  0
  136.7940   74.7100  221.3290 N   0  0  0  0  0  0  0  0  0  0  0  0
  136.8020   73.4920  220.5840 C   0  0  0  0  0  0  0  0  0  0  0  0
  135.7180   73.0030  220.1000 O   0  0  0  0  0  0  0  0  0  0  0  0
  138.0270   72.7000  220.3080 C   0  0  0  0  0  0  0  0  0  0  0  0
  138.3320   71.8460  221.4680 N   0  0  0  0  0  0  0  0  0  0  0  0
  139.2670   72.2260  222.4600 C   0  0  0  0  0  0  0  0  0  0  0  0
  139.8670   73.3400  222.3750 O   0  0  0  0  0  0  0  0  0  0  0  0
  139.5540   71.3310  223.5980 C   0  0  0  0  0  0  0  0  0  0  0  0
  139.2580   69.9870  223.4670 C   0  0  0  0  0  0  0  0  0  0  0  0
  139.5430   69.2010  224.5870 C   0  0  0  0  0  0  0  0  0  0  0  0
  140.0820   69.7300  225.7400 C   0  0  0  0  0  0  0  0  0  0  0  0
  140.3660   68.9550  226.8550 C   0  0  0  0  0  0  0  0  0  0  0  0
  140.9010   69.5170  227.9790 C   0  0  0  0  0  0  0  0  0  0  0  0
  141.1870   68.7780  229.0770 F   0  0  0  0  0  0  0  0  0  0  0  0
  141.1720   70.8700  228.0350 C   0  0  0  0  0  0  0  0  0  0  0  0
  140.9000   71.6840  226.9310 C   0  0  0  0  0  0  0  0  0  0  0  0
  140.3590   71.0910  225.8100 C   0  0  0  0  0  0  0  0  0  0  0  0
  140.0800   71.8490  224.7180 N   0  0  0  0  0  0  0  0  0  0  0  0
  142.3947   74.7766  221.8569 H   0  0  0  0  0  0  0  0  0  0  0  0
  141.8967   73.7154  220.4959 H   0  0  0  0  0  0  0  0  0  0  0  0
  143.5264   74.4709  220.4959 H   0  0  0  0  0  0  0  0  0  0  0  0
  143.5207   77.0995  220.6078 H   0  0  0  0  0  0  0  0  0  0  0  0
  143.7952   76.1704  219.0952 H   0  0  0  0  0  0  0  0  0  0  0  0
  142.6774   77.5766  219.0952 H   0  0  0  0  0  0  0  0  0  0  0  0
  140.7076   74.4249  218.8873 H   0  0  0  0  0  0  0  0  0  0  0  0
  140.9115   76.0364  218.1203 H   0  0  0  0  0  0  0  0  0  0  0  0
  142.2717   74.8631  218.1203 H   0  0  0  0  0  0  0  0  0  0  0  0
  140.7682   77.4071  220.1480 H   0  0  0  0  0  0  0  0  0  0  0  0
  140.1667   76.5689  222.7708 H   0  0  0  0  0  0  0  0  0  0  0  0
  141.9820   76.2949  222.4757 H   0  0  0  0  0  0  0  0  0  0  0  0
  141.9350   77.6884  224.5269 H   0  0  0  0  0  0  0  0  0  0  0  0
  142.5656   79.9359  225.2322 H   0  0  0  0  0  0  0  0  0  0  0  0
  141.5340   81.4191  221.3409 H   0  0  0  0  0  0  0  0  0  0  0  0
  140.9013   79.1427  220.6327 H   0  0  0  0  0  0  0  0  0  0  0  0
  139.5160   74.7160  220.8910 H   0  0  0  0  0  0  0  0  0  0  0  0
  136.8127   75.9664  219.6072 H   0  0  0  0  0  0  0  0  0  0  0  0
  136.3884   77.9006  221.5131 H   0  0  0  0  0  0  0  0  0  0  0  0
  135.0362   76.8318  221.1387 H   0  0  0  0  0  0  0  0  0  0  0  0
  136.8817   76.8074  223.5517 H   0  0  0  0  0  0  0  0  0  0  0  0
  137.4793   74.6267  223.3159 H   0  0  0  0  0  0  0  0  0  0  0  0
  135.8034   74.1420  223.1232 H   0  0  0  0  0  0  0  0  0  0  0  0
  137.8638   72.0695  219.4215 H   0  0  0  0  0  0  0  0  0  0  0  0
  138.8702   73.3819  220.1233 H   0  0  0  0  0  0  0  0  0  0  0  0
  137.8590   70.9160  221.6020 H   0  0  0  0  0  0  0  0  0  0  0  0
  138.8284   69.5658  222.5461 H   0  0  0  0  0  0  0  0  0  0  0  0
  139.3297   68.1226  224.5469 H   0  0  0  0  0  0  0  0  0  0  0  0
  140.1578   67.8751  226.8336 H   0  0  0  0  0  0  0  0  0  0  0  0
  141.6019   71.3074  228.9482 H   0  0  0  0  0  0  0  0  0  0  0  0
  141.1110   72.7633  226.9561 H   0  0  0  0  0  0  0  0  0  0  0  0
  1  2  1  0
  2  3  1  0
  2  4  1  0
  2  5  1  0
  5  6  1  0
  6  7  1  0
  7  8  2  0
  8  9  1  0
  9 10  2  0
 10 11  1  0
 10 12  1  0
 12 13  2  0
  5 14  1  0
 14 15  1  0
 15 16  2  0
 15 17  1  0
 17 18  1  0
 18 19  1  0
 19 20  1  0
 19 21  1  0
 21 22  1  0
 22 23  1  0
 23 24  2  0
 23 25  1  0
 25 26  1  0
 26 27  1  0
 27 28  2  0
 27 29  1  0
 29 30  2  0
 30 31  1  0
 31 32  2  0
 32 33  1  0
 33 34  2  0
 34 35  1  0
 34 36  1  0
 36 37  2  0
 37 38  1  0
 38 39  2  0
 13  7  1  0
 22 17  1  0
 39 29  1  0
 38 32  1  0
  1 40  1  0
  1 41  1  0
  1 42  1  0
  3 43  1  0
  3 44  1  0
  3 45  1  0
  4 46  1  0
  4 47  1  0
  4 48  1  0
  5 49  1  6
  6 50  1  0
  6 51  1  0
  8 52  1  0
  9 53  1  0
 12 54  1  0
 13 55  1  0
 14 56  1  0
 17 57  1  6
 18 58  1  0
 18 59  1  0
 19 60  1  1
 21 61  1  0
 21 62  1  0
 25 63  1  0
 25 64  1  0
 26 65  1  0
 30 66  1  0
 31 67  1  0
 33 68  1  0
 36 69  1  0
 37 70  1  0
M  END
>  <smiles>  (16) 
CC(C)(C)C(Cc1ccc(F)cc1)NC(=O)[C@@H]1C[C@@H](F)CN1C(=O)CNC(=O)c1ccc2cc(F)ccc2n1

>  <score_type>  (16) 
oracle

>  <origin>  (16) 
autodockgpu

>  <m_score__min__energy>  (16) 
-8.8900000000000006

>  <m_primary>  (16) 
energy

>  <meeko>  (16) 
{"free_energy": -8.02, "intermolecular_energy": -10.7, "internal_energy": -3.55, "cluster_size": 1, "cluster_id": 7, "rank_in_cluster": 1}

>  <energy>  (16) 
-6.76

>  <cluster_rmsd>  (16) 
0.38

>  <rmsd>  (16) 
269.62

>  <cluster>  (16) 
9

$$$$

     RDKit          3D

 70 73  0  0  1  0  0  0  0  0999 V2000
  139.6320   76.8710  219.6490 C   0  0  0  0  0  0  0  0  0  0  0  0
  141.1120   77.1170  219.3910 C   0  0  0  0  0  0  0  0  0  0  0  0
  141.3250   77.1860  217.9090 C   0  0  0  0  0  0  0  0  0  0  0  0
  141.3500   78.5480  219.9090 C   0  0  0  0  0  0  0  0  0  0  0  0
  141.9930   76.1540  220.0690 C   0  0  2  0  0  0  0  0  0  0  0  0
  143.4410   76.1260  219.6460 C   0  0  0  0  0  0  0  0  0  0  0  0
  144.0850   74.8290  219.5350 C   0  0  0  0  0  0  0  0  0  0  0  0
  144.7530   74.3400  220.6680 C   0  0  0  0  0  0  0  0  0  0  0  0
  145.3590   73.1250  220.7040 C   0  0  0  0  0  0  0  0  0  0  0  0
  145.3290   72.3220  219.5870 C   0  0  0  0  0  0  0  0  0  0  0  0
  145.9440   71.1200  219.6620 F   0  0  0  0  0  0  0  0  0  0  0  0
  144.6860   72.7630  218.4510 C   0  0  0  0  0  0  0  0  0  0  0  0
  144.0740   74.0000  218.4300 C   0  0  0  0  0  0  0  0  0  0  0  0
  141.5690   74.7480  219.9520 N   0  0  0  0  0  0  0  0  0  0  0  0
  140.9310   74.1840  221.0680 C   0  0  0  0  0  0  0  0  0  0  0  0
  140.7870   74.9550  222.0840 O   0  0  0  0  0  0  0  0  0  0  0  0
  140.4190   72.8270  221.2000 C   0  0  2  0  0  0  0  0  0  0  0  0
  141.0490   71.8620  220.2080 C   0  0  0  0  0  0  0  0  0  0  0  0
  140.1880   71.9460  218.9870 C   0  0  1  0  0  0  0  0  0  0  0  0
  140.1400   70.6750  218.4390 F   0  0  0  0  0  0  0  0  0  0  0  0
  138.8270   72.3820  219.4640 C   0  0  0  0  0  0  0  0  0  0  0  0
  139.0210   72.6320  220.8710 N   0  0  0  0  0  0  0  0  0  0  0  0
  138.0050   72.6730  221.8720 C   0  0  0  0  0  0  0  0  0  0  0  0
  137.8560   71.7090  222.7070 O   0  0  0  0  0  0  0  0  0  0  0  0
  137.0510   73.7990  222.0370 C   0  0  0  0  0  0  0  0  0  0  0  0
  137.7960   75.0340  222.3360 N   0  0  0  0  0  0  0  0  0  0  0  0
  137.2070   76.3170  222.2180 C   0  0  0  0  0  0  0  0  0  0  0  0
  135.9970   76.4310  221.8560 O   0  0  0  0  0  0  0  0  0  0  0  0
  137.9950   77.5300  222.5130 C   0  0  0  0  0  0  0  0  0  0  0  0
  137.3360   78.7450  222.5610 C   0  0  0  0  0  0  0  0  0  0  0  0
  138.1440   79.8520  222.8310 C   0  0  0  0  0  0  0  0  0  0  0  0
  139.5020   79.7390  223.0370 C   0  0  0  0  0  0  0  0  0  0  0  0
  140.3100   80.8350  223.3060 C   0  0  0  0  0  0  0  0  0  0  0  0
  141.6530   80.6810  223.5050 C   0  0  0  0  0  0  0  0  0  0  0  0
  142.4580   81.7370  223.7690 F   0  0  0  0  0  0  0  0  0  0  0  0
  142.2400   79.4330  223.4440 C   0  0  0  0  0  0  0  0  0  0  0  0
  141.4590   78.3050  223.1760 C   0  0  0  0  0  0  0  0  0  0  0  0
  140.1070   78.4880  222.9780 C   0  0  0  0  0  0  0  0  0  0  0  0
  139.3150   77.4160  222.7150 N   0  0  0  0  0  0  0  0  0  0  0  0
  139.4489   76.8406  220.7332 H   0  0  0  0  0  0  0  0  0  0  0  0
  139.0416   77.6833  219.2001 H   0  0  0  0  0  0  0  0  0  0  0  0
  139.3361   75.9114  219.2001 H   0  0  0  0  0  0  0  0  0  0  0  0
  142.3526   77.5189  217.7014 H   0  0  0  0  0  0  0  0  0  0  0  0
  141.1661   76.1904  217.4690 H   0  0  0  0  0  0  0  0  0  0  0  0
  140.6125   77.8993  217.4690 H   0  0  0  0  0  0  0  0  0  0  0  0
  141.3494   78.5446  221.0090 H   0  0  0  0  0  0  0  0  0  0  0  0
  142.3212   78.9133  219.5440 H   0  0  0  0  0  0  0  0  0  0  0  0
  140.5493   79.2080  219.5440 H   0  0  0  0  0  0  0  0  0  0  0  0
  141.9022   76.5503  221.0911 H   0  0  0  0  0  0  0  0  0  0  0  0
  143.5052   76.6105  218.6605 H   0  0  0  0  0  0  0  0  0  0  0  0
  143.9789   76.6359  220.4588 H   0  0  0  0  0  0  0  0  0  0  0  0
  144.7875   74.9700  221.5690 H   0  0  0  0  0  0  0  0  0  0  0  0
  145.8691   72.7860  221.6177 H   0  0  0  0  0  0  0  0  0  0  0  0
  144.6602   72.1252  217.5551 H   0  0  0  0  0  0  0  0  0  0  0  0
  143.5662   74.3332  217.5129 H   0  0  0  0  0  0  0  0  0  0  0  0
  141.7220   74.1880  219.0960 H   0  0  0  0  0  0  0  0  0  0  0  0
  140.6368   72.6487  222.2634 H   0  0  0  0  0  0  0  0  0  0  0  0
  142.0805   72.1651  219.9754 H   0  0  0  0  0  0  0  0  0  0  0  0
  141.1040   70.8378  220.6055 H   0  0  0  0  0  0  0  0  0  0  0  0
  140.5611   72.6503  218.2288 H   0  0  0  0  0  0  0  0  0  0  0  0
  138.5035   73.2959  218.9443 H   0  0  0  0  0  0  0  0  0  0  0  0
  138.0465   71.6320  219.2683 H   0  0  0  0  0  0  0  0  0  0  0  0
  136.4773   73.9327  221.1080 H   0  0  0  0  0  0  0  0  0  0  0  0
  136.3616   73.5771  222.8650 H   0  0  0  0  0  0  0  0  0  0  0  0
  138.7980   75.0060  222.6520 H   0  0  0  0  0  0  0  0  0  0  0  0
  136.2517   78.8334  222.3980 H   0  0  0  0  0  0  0  0  0  0  0  0
  137.6804   80.8483  222.8809 H   0  0  0  0  0  0  0  0  0  0  0  0
  139.8641   81.8391  223.3596 H   0  0  0  0  0  0  0  0  0  0  0  0
  143.3227   79.3261  223.6063 H   0  0  0  0  0  0  0  0  0  0  0  0
  141.9092   77.3026  223.1247 H   0  0  0  0  0  0  0  0  0  0  0  0
  1  2  1  0
  2  3  1  0
  2  4  1  0
  2  5  1  0
  5  6  1  0
  6  7  1  0
  7  8  2  0
  8  9  1  0
  9 10  2  0
 10 11  1  0
 10 12  1  0
 12 13  2  0
  5 14  1  0
 14 15  1  0
 15 16  2  0
 15 17  1  0
 17 18  1  0
 18 19  1  0
 19 20  1  0
 19 21  1  0
 21 22  1  0
 22 23  1  0
 23 24  2  0
 23 25  1  0
 25 26  1  0
 26 27  1  0
 27 28  2  0
 27 29  1  0
 29 30  2  0
 30 31  1  0
 31 32  2  0
 32 33  1  0
 33 34  2  0
 34 35  1  0
 34 36  1  0
 36 37  2  0
 37 38  1  0
 38 39  2  0
 13  7  1  0
 22 17  1  0
 39 29  1  0
 38 32  1  0
  1 40  1  0
  1 41  1  0
  1 42  1  0
  3 43  1  0
  3 44  1  0
  3 45  1  0
  4 46  1  0
  4 47  1  0
  4 48  1  0
  5 49  1  1
  6 50  1  0
  6 51  1  0
  8 52  1  0
  9 53  1  0
 12 54  1  0
 13 55  1  0
 14 56  1  0
 17 57  1  1
 18 58  1  0
 18 59  1  0
 19 60  1  6
 21 61  1  0
 21 62  1  0
 25 63  1  0
 25 64  1  0
 26 65  1  0
 30 66  1  0
 31 67  1  0
 33 68  1  0
 36 69  1  0
 37 70  1  0
M  END
>  <smiles>  (17) 
CC(C)(C)C(Cc1ccc(F)cc1)NC(=O)[C@@H]1C[C@@H](F)CN1C(=O)CNC(=O)c1ccc2cc(F)ccc2n1

>  <score_type>  (17) 
oracle

>  <origin>  (17) 
autodockgpu

>  <m_score__min__energy>  (17) 
-8.8900000000000006

>  <m_primary>  (17) 
energy

>  <meeko>  (17) 
{"free_energy": -6.76, "intermolecular_energy": -9.44, "internal_energy": -4.97, "cluster_size": 5, "cluster_id": 9, "rank_in_cluster": 4}

>  <energy>  (17) 
-6.26

>  <cluster_rmsd>  (17) 
0.55

>  <rmsd>  (17) 
269.81

>  <cluster>  (17) 
9

$$$$

     RDKit          3D

 70 73  0  0  1  0  0  0  0  0999 V2000
  141.3360   81.5130  222.9780 C   0  0  0  0  0  0  0  0  0  0  0  0
  141.9060   80.1100  222.8240 C   0  0  0  0  0  0  0  0  0  0  0  0
  143.3970   80.1920  222.9610 C   0  0  0  0  0  0  0  0  0  0  0  0
  141.4160   79.3660  224.0800 C   0  0  0  0  0  0  0  0  0  0  0  0
  141.4640   79.4290  221.5980 C   0  0  2  0  0  0  0  0  0  0  0  0
  139.9850   79.4430  221.2960 C   0  0  0  0  0  0  0  0  0  0  0  0
  139.2510   78.2010  221.4710 C   0  0  0  0  0  0  0  0  0  0  0  0
  138.8460   77.5210  220.3130 C   0  0  0  0  0  0  0  0  0  0  0  0
  138.1900   76.3320  220.3430 C   0  0  0  0  0  0  0  0  0  0  0  0
  137.8980   75.7530  221.5570 C   0  0  0  0  0  0  0  0  0  0  0  0
  137.2430   74.5700  221.5460 F   0  0  0  0  0  0  0  0  0  0  0  0
  138.2750   76.3870  222.7200 C   0  0  0  0  0  0  0  0  0  0  0  0
  138.9420   77.5940  222.6730 C   0  0  0  0  0  0  0  0  0  0  0  0
  141.8200   78.0020  221.5270 N   0  0  0  0  0  0  0  0  0  0  0  0
  142.1630   77.4970  220.2630 C   0  0  0  0  0  0  0  0  0  0  0  0
  142.1240   78.3350  219.2920 O   0  0  0  0  0  0  0  0  0  0  0  0
  142.5540   76.1330  219.9330 C   0  0  2  0  0  0  0  0  0  0  0  0
  143.2540   76.0300  218.5880 C   0  0  0  0  0  0  0  0  0  0  0  0
  142.1540   75.8340  217.5930 C   0  0  1  0  0  0  0  0  0  0  0  0
  142.6390   74.9780  216.6180 F   0  0  0  0  0  0  0  0  0  0  0  0
  141.0140   75.2010  218.3500 C   0  0  0  0  0  0  0  0  0  0  0  0
  141.4760   75.1900  219.7160 N   0  0  0  0  0  0  0  0  0  0  0  0
  140.9860   74.3590  220.7680 C   0  0  0  0  0  0  0  0  0  0  0  0
  141.0660   74.7260  221.9970 O   0  0  0  0  0  0  0  0  0  0  0  0
  140.3590   73.0310  220.5500 C   0  0  0  0  0  0  0  0  0  0  0  0
  140.3290   72.2860  221.8200 N   0  0  0  0  0  0  0  0  0  0  0  0
  139.6560   71.0480  221.9530 C   0  0  0  0  0  0  0  0  0  0  0  0
  139.0600   70.5380  220.9560 O   0  0  0  0  0  0  0  0  0  0  0  0
  139.6380   70.3420  223.2490 C   0  0  0  0  0  0  0  0  0  0  0  0
  138.9600   69.1390  223.3320 C   0  0  0  0  0  0  0  0  0  0  0  0
  138.9740   68.5340  224.5910 C   0  0  0  0  0  0  0  0  0  0  0  0
  139.6190   69.0950  225.6720 C   0  0  0  0  0  0  0  0  0  0  0  0
  139.6360   68.4980  226.9250 C   0  0  0  0  0  0  0  0  0  0  0  0
  140.2870   69.0860  227.9710 C   0  0  0  0  0  0  0  0  0  0  0  0
  140.3160   68.5190  229.2000 F   0  0  0  0  0  0  0  0  0  0  0  0
  140.9460   70.2890  227.8090 C   0  0  0  0  0  0  0  0  0  0  0  0
  140.9520   70.9210  226.5630 C   0  0  0  0  0  0  0  0  0  0  0  0
  140.2860   70.3060  225.5240 C   0  0  0  0  0  0  0  0  0  0  0  0
  140.2690   70.8910  224.2980 N   0  0  0  0  0  0  0  0  0  0  0  0
  141.2382   81.7538  224.0469 H   0  0  0  0  0  0  0  0  0  0  0  0
  142.0110   82.2376  222.4992 H   0  0  0  0  0  0  0  0  0  0  0  0
  140.3469   81.5615  222.4992 H   0  0  0  0  0  0  0  0  0  0  0  0
  143.6670   80.2068  224.0273 H   0  0  0  0  0  0  0  0  0  0  0  0
  143.8582   79.3179  222.4781 H   0  0  0  0  0  0  0  0  0  0  0  0
  143.7596   81.1114  222.4781 H   0  0  0  0  0  0  0  0  0  0  0  0
  141.7646   79.8953  224.9791 H   0  0  0  0  0  0  0  0  0  0  0  0
  140.3166   79.3296  224.0791 H   0  0  0  0  0  0  0  0  0  0  0  0
  141.8168   78.3416  224.0791 H   0  0  0  0  0  0  0  0  0  0  0  0
  142.0085   80.0474  220.8692 H   0  0  0  0  0  0  0  0  0  0  0  0
  139.5221   80.1942  221.9528 H   0  0  0  0  0  0  0  0  0  0  0  0
  139.9218   79.6555  220.2186 H   0  0  0  0  0  0  0  0  0  0  0  0
  139.0701   77.9717  219.3349 H   0  0  0  0  0  0  0  0  0  0  0  0
  137.8950   75.8367  219.4062 H   0  0  0  0  0  0  0  0  0  0  0  0
  138.0429   75.9283  223.6925 H   0  0  0  0  0  0  0  0  0  0  0  0
  139.2342   78.0839  223.6136 H   0  0  0  0  0  0  0  0  0  0  0  0
  141.8270   77.3850  222.3580 H   0  0  0  0  0  0  0  0  0  0  0  0
  143.1596   75.8943  220.8198 H   0  0  0  0  0  0  0  0  0  0  0  0
  143.8119   76.9528  218.3708 H   0  0  0  0  0  0  0  0  0  0  0  0
  143.9841   75.2076  218.5641 H   0  0  0  0  0  0  0  0  0  0  0  0
  141.8156   76.7661  217.1169 H   0  0  0  0  0  0  0  0  0  0  0  0
  140.0967   75.7999  218.2509 H   0  0  0  0  0  0  0  0  0  0  0  0
  140.7597   74.1977  217.9776 H   0  0  0  0  0  0  0  0  0  0  0  0
  139.3318   73.1670  220.1807 H   0  0  0  0  0  0  0  0  0  0  0  0
  140.9444   72.4672  219.8088 H   0  0  0  0  0  0  0  0  0  0  0  0
  140.8150   72.6500  222.6790 H   0  0  0  0  0  0  0  0  0  0  0  0
  138.4467   68.6910  222.4684 H   0  0  0  0  0  0  0  0  0  0  0  0
  138.4514   67.5753  224.7244 H   0  0  0  0  0  0  0  0  0  0  0  0
  139.1185   67.5393  227.0770 H   0  0  0  0  0  0  0  0  0  0  0  0
  141.4664   70.7498  228.6615 H   0  0  0  0  0  0  0  0  0  0  0  0
  141.4717   71.8792  226.4155 H   0  0  0  0  0  0  0  0  0  0  0  0
  1  2  1  0
  2  3  1  0
  2  4  1  0
  2  5  1  0
  5  6  1  0
  6  7  1  0
  7  8  2  0
  8  9  1  0
  9 10  2  0
 10 11  1  0
 10 12  1  0
 12 13  2  0
  5 14  1  0
 14 15  1  0
 15 16  2  0
 15 17  1  0
 17 18  1  0
 18 19  1  0
 19 20  1  0
 19 21  1  0
 21 22  1  0
 22 23  1  0
 23 24  2  0
 23 25  1  0
 25 26  1  0
 26 27  1  0
 27 28  2  0
 27 29  1  0
 29 30  2  0
 30 31  1  0
 31 32  2  0
 32 33  1  0
 33 34  2  0
 34 35  1  0
 34 36  1  0
 36 37  2  0
 37 38  1  0
 38 39  2  0
 13  7  1  0
 22 17  1  0
 39 29  1  0
 38 32  1  0
  1 40  1  0
  1 41  1  0
  1 42  1  0
  3 43  1  0
  3 44  1  0
  3 45  1  0
  4 46  1  0
  4 47  1  0
  4 48  1  0
  5 49  1  6
  6 50  1  0
  6 51  1  0
  8 52  1  0
  9 53  1  0
 12 54  1  0
 13 55  1  0
 14 56  1  0
 17 57  1  1
 18 58  1  0
 18 59  1  0
 19 60  1  6
 21 61  1  0
 21 62  1  0
 25 63  1  0
 25 64  1  0
 26 65  1  0
 30 66  1  0
 31 67  1  0
 33 68  1  0
 36 69  1  0
 37 70  1  0
M  END
>  <smiles>  (18) 
CC(C)(C)C(Cc1ccc(F)cc1)NC(=O)[C@@H]1C[C@@H](F)CN1C(=O)CNC(=O)c1ccc2cc(F)ccc2n1

>  <score_type>  (18) 
oracle

>  <origin>  (18) 
autodockgpu

>  <m_score__min__energy>  (18) 
-8.8900000000000006

>  <m_primary>  (18) 
energy

>  <meeko>  (18) 
{"free_energy": -8.21, "intermolecular_energy": -10.9, "internal_energy": -4.1, "cluster_size": 2, "cluster_id": 6, "rank_in_cluster": 1}

>  <energy>  (18) 
-6.16

>  <cluster_rmsd>  (18) 
0.0

>  <rmsd>  (18) 
270.08

>  <cluster>  (18) 
10

$$$$

     RDKit          3D

 70 73  0  0  1  0  0  0  0  0999 V2000
  136.2150   78.3100  223.0790 C   0  0  0  0  0  0  0  0  0  0  0  0
  137.1330   77.2780  222.4400 C   0  0  0  0  0  0  0  0  0  0  0  0
  136.9030   75.9610  223.1170 C   0  0  0  0  0  0  0  0  0  0  0  0
  136.5760   77.1120  221.0140 C   0  0  0  0  0  0  0  0  0  0  0  0
  138.5460   77.6890  222.4130 C   0  0  2  0  0  0  0  0  0  0  0  0
  138.8340   79.1700  222.4140 C   0  0  0  0  0  0  0  0  0  0  0  0
  140.2220   79.5850  222.5160 C   0  0  0  0  0  0  0  0  0  0  0  0
  140.8800   79.3460  223.7320 C   0  0  0  0  0  0  0  0  0  0  0  0
  142.1880   79.6500  223.9390 C   0  0  0  0  0  0  0  0  0  0  0  0
  142.9170   80.2230  222.9220 C   0  0  0  0  0  0  0  0  0  0  0  0
  144.2150   80.5130  223.1680 F   0  0  0  0  0  0  0  0  0  0  0  0
  142.3110   80.4790  221.7120 C   0  0  0  0  0  0  0  0  0  0  0  0
  140.9810   80.1620  221.5170 C   0  0  0  0  0  0  0  0  0  0  0  0
  139.3080   77.1870  221.2560 N   0  0  0  0  0  0  0  0  0  0  0  0
  140.5130   76.5220  221.5330 C   0  0  0  0  0  0  0  0  0  0  0  0
  140.8320   76.4260  222.7730 O   0  0  0  0  0  0  0  0  0  0  0  0
  141.4390   75.9360  220.5730 C   0  0  2  0  0  0  0  0  0  0  0  0
  142.1090   76.9770  219.6900 C   0  0  0  0  0  0  0  0  0  0  0  0
  141.1850   77.1470  218.5250 C   0  0  1  0  0  0  0  0  0  0  0  0
  141.9790   77.3630  217.4100 F   0  0  0  0  0  0  0  0  0  0  0  0
  140.4220   75.8530  218.4040 C   0  0  0  0  0  0  0  0  0  0  0  0
  140.8550   75.0930  219.5500 N   0  0  0  0  0  0  0  0  0  0  0  0
  140.7660   73.6770  219.7090 C   0  0  0  0  0  0  0  0  0  0  0  0
  139.6640   73.0530  219.4970 O   0  0  0  0  0  0  0  0  0  0  0  0
  141.9040   72.8180  220.1230 C   0  0  0  0  0  0  0  0  0  0  0  0
  141.4990   71.9830  221.2670 N   0  0  0  0  0  0  0  0  0  0  0  0
  140.7300   72.4940  222.3400 C   0  0  0  0  0  0  0  0  0  0  0  0
  140.3560   73.7050  222.3340 O   0  0  0  0  0  0  0  0  0  0  0  0
  140.3600   71.6250  223.4740 C   0  0  0  0  0  0  0  0  0  0  0  0
  139.5360   70.5410  223.2280 C   0  0  0  0  0  0  0  0  0  0  0  0
  139.2150   69.7700  224.3480 C   0  0  0  0  0  0  0  0  0  0  0  0
  139.6890   70.0680  225.6080 C   0  0  0  0  0  0  0  0  0  0  0  0
  139.3730   69.3050  226.7240 C   0  0  0  0  0  0  0  0  0  0  0  0
  139.8640   69.6330  227.9550 C   0  0  0  0  0  0  0  0  0  0  0  0
  139.5690   68.9020  229.0560 F   0  0  0  0  0  0  0  0  0  0  0  0
  140.6850   70.7310  228.1220 C   0  0  0  0  0  0  0  0  0  0  0  0
  141.0250   71.5230  227.0220 C   0  0  0  0  0  0  0  0  0  0  0  0
  140.5160   71.1700  225.7900 C   0  0  0  0  0  0  0  0  0  0  0  0
  140.8240   71.9170  224.6970 N   0  0  0  0  0  0  0  0  0  0  0  0
  136.2832   78.2333  224.1742 H   0  0  0  0  0  0  0  0  0  0  0  0
  136.5202   79.3183  222.7623 H   0  0  0  0  0  0  0  0  0  0  0  0
  135.1780   78.1244  222.7623 H   0  0  0  0  0  0  0  0  0  0  0  0
  136.9273   76.1003  224.2079 H   0  0  0  0  0  0  0  0  0  0  0  0
  135.9217   75.5625  222.8200 H   0  0  0  0  0  0  0  0  0  0  0  0
  137.6912   75.2535  222.8200 H   0  0  0  0  0  0  0  0  0  0  0  0
  135.5230   76.7982  221.0659 H   0  0  0  0  0  0  0  0  0  0  0  0
  136.6470   78.0704  220.4787 H   0  0  0  0  0  0  0  0  0  0  0  0
  137.1601   76.3489  220.4787 H   0  0  0  0  0  0  0  0  0  0  0  0
  138.8596   77.2389  223.3664 H   0  0  0  0  0  0  0  0  0  0  0  0
  138.4350   79.5835  221.4760 H   0  0  0  0  0  0  0  0  0  0  0  0
  138.3618   79.5458  223.3337 H   0  0  0  0  0  0  0  0  0  0  0  0
  140.3105   78.8914  224.5560 H   0  0  0  0  0  0  0  0  0  0  0  0
  142.6598   79.4401  224.9103 H   0  0  0  0  0  0  0  0  0  0  0  0
  142.8893   80.9383  220.8967 H   0  0  0  0  0  0  0  0  0  0  0  0
  140.5154   80.3741  220.5432 H   0  0  0  0  0  0  0  0  0  0  0  0
  138.9860   77.3050  220.2810 H   0  0  0  0  0  0  0  0  0  0  0  0
  142.0947   75.3826  221.2613 H   0  0  0  0  0  0  0  0  0  0  0  0
  142.2264   77.9267  220.2325 H   0  0  0  0  0  0  0  0  0  0  0  0
  143.1170   76.6672  219.3770 H   0  0  0  0  0  0  0  0  0  0  0  0
  140.4820   77.9859  218.6344 H   0  0  0  0  0  0  0  0  0  0  0  0
  139.3373   76.0324  218.4393 H   0  0  0  0  0  0  0  0  0  0  0  0
  140.6102   75.3343  217.4524 H   0  0  0  0  0  0  0  0  0  0  0  0
  142.1995   72.1714  219.2836 H   0  0  0  0  0  0  0  0  0  0  0  0
  142.7543   73.4519  220.4149 H   0  0  0  0  0  0  0  0  0  0  0  0
  141.7670   70.9680  221.3240 H   0  0  0  0  0  0  0  0  0  0  0  0
  139.1603   70.3031  222.2219 H   0  0  0  0  0  0  0  0  0  0  0  0
  138.5613   68.8946  224.2201 H   0  0  0  0  0  0  0  0  0  0  0  0
  138.7199   68.4266  226.6152 H   0  0  0  0  0  0  0  0  0  0  0  0
  141.0713   70.9821  229.1209 H   0  0  0  0  0  0  0  0  0  0  0  0
  141.6783   72.4007  227.1354 H   0  0  0  0  0  0  0  0  0  0  0  0
  1  2  1  0
  2  3  1  0
  2  4  1  0
  2  5  1  0
  5  6  1  0
  6  7  1  0
  7  8  2  0
  8  9  1  0
  9 10  2  0
 10 11  1  0
 10 12  1  0
 12 13  2  0
  5 14  1  0
 14 15  1  0
 15 16  2  0
 15 17  1  0
 17 18  1  0
 18 19  1  0
 19 20  1  0
 19 21  1  0
 21 22  1  0
 22 23  1  0
 23 24  2  0
 23 25  1  0
 25 26  1  0
 26 27  1  0
 27 28  2  0
 27 29  1  0
 29 30  2  0
 30 31  1  0
 31 32  2  0
 32 33  1  0
 33 34  2  0
 34 35  1  0
 34 36  1  0
 36 37  2  0
 37 38  1  0
 38 39  2  0
 13  7  1  0
 22 17  1  0
 39 29  1  0
 38 32  1  0
  1 40  1  0
  1 41  1  0
  1 42  1  0
  3 43  1  0
  3 44  1  0
  3 45  1  0
  4 46  1  0
  4 47  1  0
  4 48  1  0
  5 49  1  1
  6 50  1  0
  6 51  1  0
  8 52  1  0
  9 53  1  0
 12 54  1  0
 13 55  1  0
 14 56  1  0
 17 57  1  1
 18 58  1  0
 18 59  1  0
 19 60  1  1
 21 61  1  0
 21 62  1  0
 25 63  1  0
 25 64  1  0
 26 65  1  0
 30 66  1  0
 31 67  1  0
 33 68  1  0
 36 69  1  0
 37 70  1  0
M  END
>  <smiles>  (19) 
CC(C)(C)C(Cc1ccc(F)cc1)NC(=O)[C@@H]1C[C@@H](F)CN1C(=O)CNC(=O)c1ccc2cc(F)ccc2n1

>  <score_type>  (19) 
oracle

>  <origin>  (19) 
autodockgpu

>  <m_score__min__energy>  (19) 
-8.8900000000000006

>  <m_primary>  (19) 
energy

>  <meeko>  (19) 
{"free_energy": -8.42, "intermolecular_energy": -11.1, "internal_energy": -2.83, "cluster_size": 1, "cluster_id": 4, "rank_in_cluster": 1}

>  <energy>  (19) 
-6.12

>  <cluster_rmsd>  (19) 
0.0

>  <rmsd>  (19) 
270.19

>  <cluster>  (19) 
11

$$$$

     RDKit          3D

 70 73  0  0  1  0  0  0  0  0999 V2000
  141.7970   78.6690  223.8840 C   0  0  0  0  0  0  0  0  0  0  0  0
  141.8700   79.7420  222.8070 C   0  0  0  0  0  0  0  0  0  0  0  0
  140.8110   80.7640  223.0910 C   0  0  0  0  0  0  0  0  0  0  0  0
  143.2100   80.4510  223.0740 C   0  0  0  0  0  0  0  0  0  0  0  0
  141.8180   79.2030  221.4390 C   0  0  2  0  0  0  0  0  0  0  0  0
  140.8790   79.8750  220.4670 C   0  0  0  0  0  0  0  0  0  0  0  0
  141.4400   80.8710  219.5700 C   0  0  0  0  0  0  0  0  0  0  0  0
  142.3300   80.4230  218.5830 C   0  0  0  0  0  0  0  0  0  0  0  0
  142.8890   81.2490  217.6600 C   0  0  0  0  0  0  0  0  0  0  0  0
  142.5820   82.5900  217.6810 C   0  0  0  0  0  0  0  0  0  0  0  0
  143.1600   83.3800  216.7470 F   0  0  0  0  0  0  0  0  0  0  0  0
  141.7140   83.0740  218.6340 C   0  0  0  0  0  0  0  0  0  0  0  0
  141.1530   82.2220  219.5650 C   0  0  0  0  0  0  0  0  0  0  0  0
  141.4460   77.7800  221.3550 N   0  0  0  0  0  0  0  0  0  0  0  0
  141.9080   77.0700  220.2360 C   0  0  0  0  0  0  0  0  0  0  0  0
  142.6060   77.7400  219.3920 O   0  0  0  0  0  0  0  0  0  0  0  0
  141.6800   75.6650  219.9260 C   0  0  2  0  0  0  0  0  0  0  0  0
  141.9900   75.3240  218.4780 C   0  0  0  0  0  0  0  0  0  0  0  0
  140.7120   75.5750  217.7400 C   0  0  1  0  0  0  0  0  0  0  0  0
  140.6240   74.6140  216.7470 F   0  0  0  0  0  0  0  0  0  0  0  0
  139.6070   75.4110  218.7520 C   0  0  0  0  0  0  0  0  0  0  0  0
  140.3090   75.2050  219.9950 N   0  0  0  0  0  0  0  0  0  0  0  0
  139.7780   74.6060  221.1770 C   0  0  0  0  0  0  0  0  0  0  0  0
  140.0540   75.0770  222.3400 O   0  0  0  0  0  0  0  0  0  0  0  0
  138.8870   73.4190  221.1750 C   0  0  0  0  0  0  0  0  0  0  0  0
  139.1630   72.5950  222.3640 N   0  0  0  0  0  0  0  0  0  0  0  0
  139.0180   71.1870  222.3560 C   0  0  0  0  0  0  0  0  0  0  0  0
  138.6510   70.5910  221.2980 O   0  0  0  0  0  0  0  0  0  0  0  0
  139.2900   70.4010  223.5750 C   0  0  0  0  0  0  0  0  0  0  0  0
  138.9110   69.0710  223.5970 C   0  0  0  0  0  0  0  0  0  0  0  0
  139.1870   68.3920  224.7870 C   0  0  0  0  0  0  0  0  0  0  0  0
  139.7960   69.0050  225.8610 C   0  0  0  0  0  0  0  0  0  0  0  0
  140.0720   68.3350  227.0450 C   0  0  0  0  0  0  0  0  0  0  0  0
  140.6770   68.9780  228.0860 C   0  0  0  0  0  0  0  0  0  0  0  0
  140.9560   68.3430  229.2490 F   0  0  0  0  0  0  0  0  0  0  0  0
  141.0290   70.3100  227.9890 C   0  0  0  0  0  0  0  0  0  0  0  0
  140.7680   71.0180  226.8120 C   0  0  0  0  0  0  0  0  0  0  0  0
  140.1550   70.3450  225.7770 C   0  0  0  0  0  0  0  0  0  0  0  0
  139.8840   71.0000  224.6170 N   0  0  0  0  0  0  0  0  0  0  0  0
  141.8292   79.1427  224.8763 H   0  0  0  0  0  0  0  0  0  0  0  0
  140.8584   78.1054  223.7771 H   0  0  0  0  0  0  0  0  0  0  0  0
  142.6506   77.9835  223.7771 H   0  0  0  0  0  0  0  0  0  0  0  0
  140.6933   80.8776  224.1788 H   0  0  0  0  0  0  0  0  0  0  0  0
  141.1049   81.7285  222.6513 H   0  0  0  0  0  0  0  0  0  0  0  0
  139.8575   80.4360  222.6513 H   0  0  0  0  0  0  0  0  0  0  0  0
  143.3702   80.5357  224.1590 H   0  0  0  0  0  0  0  0  0  0  0  0
  144.0287   79.8681  222.6269 H   0  0  0  0  0  0  0  0  0  0  0  0
  143.1887   81.4558  222.6269 H   0  0  0  0  0  0  0  0  0  0  0  0
  142.8629   79.3952  221.1541 H   0  0  0  0  0  0  0  0  0  0  0  0
  140.4302   79.0869  219.8445 H   0  0  0  0  0  0  0  0  0  0  0  0
  140.1743   80.4341  221.1001 H   0  0  0  0  0  0  0  0  0  0  0  0
  142.5874   79.3539  218.5547 H   0  0  0  0  0  0  0  0  0  0  0  0
  143.5803   80.8494  216.9034 H   0  0  0  0  0  0  0  0  0  0  0  0
  141.4660   84.1455  218.6539 H   0  0  0  0  0  0  0  0  0  0  0  0
  140.4626   82.6282  220.3189 H   0  0  0  0  0  0  0  0  0  0  0  0
  140.8750   77.3080  222.0770 H   0  0  0  0  0  0  0  0  0  0  0  0
  142.3245   75.2008  220.6870 H   0  0  0  0  0  0  0  0  0  0  0  0
  142.7928   75.9693  218.0919 H   0  0  0  0  0  0  0  0  0  0  0  0
  142.3375   74.2867  218.3625 H   0  0  0  0  0  0  0  0  0  0  0  0
  140.6533   76.5726  217.2803 H   0  0  0  0  0  0  0  0  0  0  0  0
  138.9817   76.3147  218.7998 H   0  0  0  0  0  0  0  0  0  0  0  0
  138.9236   74.5847  218.5066 H   0  0  0  0  0  0  0  0  0  0  0  0
  137.8376   73.7484  221.1929 H   0  0  0  0  0  0  0  0  0  0  0  0
  139.0699   72.8252  220.2673 H   0  0  0  0  0  0  0  0  0  0  0  0
  139.4820   73.0280  223.2670 H   0  0  0  0  0  0  0  0  0  0  0  0
  138.4267   68.5823  222.7387 H   0  0  0  0  0  0  0  0  0  0  0  0
  138.9084   67.3311  224.8695 H   0  0  0  0  0  0  0  0  0  0  0  0
  139.8001   67.2739  227.1455 H   0  0  0  0  0  0  0  0  0  0  0  0
  141.5147   70.8138  228.8377 H   0  0  0  0  0  0  0  0  0  0  0  0
  141.0432   72.0786  226.7150 H   0  0  0  0  0  0  0  0  0  0  0  0
  1  2  1  0
  2  3  1  0
  2  4  1  0
  2  5  1  0
  5  6  1  0
  6  7  1  0
  7  8  2  0
  8  9  1  0
  9 10  2  0
 10 11  1  0
 10 12  1  0
 12 13  2  0
  5 14  1  0
 14 15  1  0
 15 16  2  0
 15 17  1  0
 17 18  1  0
 18 19  1  0
 19 20  1  0
 19 21  1  0
 21 22  1  0
 22 23  1  0
 23 24  2  0
 23 25  1  0
 25 26  1  0
 26 27  1  0
 27 28  2  0
 27 29  1  0
 29 30  2  0
 30 31  1  0
 31 32  2  0
 32 33  1  0
 33 34  2  0
 34 35  1  0
 34 36  1  0
 36 37  2  0
 37 38  1  0
 38 39  2  0
 13  7  1  0
 22 17  1  0
 39 29  1  0
 38 32  1  0
  1 40  1  0
  1 41  1  0
  1 42  1  0
  3 43  1  0
  3 44  1  0
  3 45  1  0
  4 46  1  0
  4 47  1  0
  4 48  1  0
  5 49  1  6
  6 50  1  0
  6 51  1  0
  8 52  1  0
  9 53  1  0
 12 54  1  0
 13 55  1  0
 14 56  1  0
 17 57  1  1
 18 58  1  0
 18 59  1  0
 19 60  1  6
 21 61  1  0
 21 62  1  0
 25 63  1  0
 25 64  1  0
 26 65  1  0
 30 66  1  0
 31 67  1  0
 33 68  1  0
 36 69  1  0
 37 70  1  0
M  END
>  <smiles>  (20) 
CC(C)(C)C(Cc1ccc(F)cc1)NC(=O)[C@@H]1C[C@@H](F)CN1C(=O)CNC(=O)c1ccc2cc(F)ccc2n1

>  <score_type>  (20) 
oracle

>  <origin>  (20) 
autodockgpu

>  <m_score__min__energy>  (20) 
-8.8900000000000006

>  <m_primary>  (20) 
energy

>  <meeko>  (20) 
{"free_energy": -8.84, "intermolecular_energy": -11.53, "internal_energy": -3.35, "cluster_size": 2, "cluster_id": 2, "rank_in_cluster": 1}

>  <energy>  (20) 
-5.95

>  <cluster_rmsd>  (20) 
0.38

>  <rmsd>  (20) 
270.27

>  <cluster>  (20) 
11

$$$$

     RDKit          3D

 70 73  0  0  1  0  0  0  0  0999 V2000
  144.6610   76.0000  215.9250 C   0  0  0  0  0  0  0  0  0  0  0  0
  143.2290   76.4160  216.1180 C   0  0  0  0  0  0  0  0  0  0  0  0
  143.0040   77.6540  215.2600 C   0  0  0  0  0  0  0  0  0  0  0  0
  142.3580   75.3290  215.4390 C   0  0  0  0  0  0  0  0  0  0  0  0
  142.8080   76.6100  217.5250 C   0  0  1  0  0  0  0  0  0  0  0  0
  141.4820   77.1480  217.8360 C   0  0  0  0  0  0  0  0  0  0  0  0
  141.3910   78.4210  218.5630 C   0  0  0  0  0  0  0  0  0  0  0  0
  140.2330   78.7040  219.2520 C   0  0  0  0  0  0  0  0  0  0  0  0
  140.0220   79.8870  219.9400 C   0  0  0  0  0  0  0  0  0  0  0  0
  141.0170   80.8390  219.9400 C   0  0  0  0  0  0  0  0  0  0  0  0
  140.8290   82.0100  220.6090 F   0  0  0  0  0  0  0  0  0  0  0  0
  142.2020   80.5920  219.2580 C   0  0  0  0  0  0  0  0  0  0  0  0
  142.3680   79.3920  218.5840 C   0  0  0  0  0  0  0  0  0  0  0  0
  143.0980   75.3800  218.3050 N   0  0  0  0  0  0  0  0  0  0  0  0
  143.7050   75.5090  219.6090 C   0  0  0  0  0  0  0  0  0  0  0  0
  143.9940   76.6260  220.0910 O   0  0  0  0  0  0  0  0  0  0  0  0
  143.9540   74.2160  220.3190 C   0  0  2  0  0  0  0  0  0  0  0  0
  145.3650   73.7770  220.1980 C   0  0  0  0  0  0  0  0  0  0  0  0
  145.3130   72.4770  219.4320 C   0  0  1  0  0  0  0  0  0  0  0  0
  146.2140   71.5380  219.8870 F   0  0  0  0  0  0  0  0  0  0  0  0
  143.9370   71.9030  219.6900 C   0  0  0  0  0  0  0  0  0  0  0  0
  143.1720   73.1230  219.8240 N   0  0  0  0  0  0  0  0  0  0  0  0
  141.7690   73.1710  219.4920 C   0  0  0  0  0  0  0  0  0  0  0  0
  141.3490   72.9220  218.3310 O   0  0  0  0  0  0  0  0  0  0  0  0
  140.7380   73.5170  220.5080 C   0  0  0  0  0  0  0  0  0  0  0  0
  140.9360   74.8150  221.0730 N   0  0  0  0  0  0  0  0  0  0  0  0
  139.8750   75.6090  221.5390 C   0  0  0  0  0  0  0  0  0  0  0  0
  138.6850   75.1800  221.4730 O   0  0  0  0  0  0  0  0  0  0  0  0
  140.1150   76.9320  222.1120 C   0  0  0  0  0  0  0  0  0  0  0  0
  139.0690   77.6640  222.6710 C   0  0  0  0  0  0  0  0  0  0  0  0
  139.3040   78.9230  223.2450 C   0  0  0  0  0  0  0  0  0  0  0  0
  140.5960   79.4290  223.2450 C   0  0  0  0  0  0  0  0  0  0  0  0
  140.8740   80.6870  223.8030 C   0  0  0  0  0  0  0  0  0  0  0  0
  142.1950   81.1640  223.7810 C   0  0  0  0  0  0  0  0  0  0  0  0
  142.4540   82.3820  224.3240 F   0  0  0  0  0  0  0  0  0  0  0  0
  143.2110   80.4030  223.2120 C   0  0  0  0  0  0  0  0  0  0  0  0
  142.9320   79.1710  222.6660 C   0  0  0  0  0  0  0  0  0  0  0  0
  141.6230   78.6840  222.6830 C   0  0  0  0  0  0  0  0  0  0  0  0
  141.3400   77.4640  222.1390 N   0  0  0  0  0  0  0  0  0  0  0  0
  145.1380   75.8614  216.9065 H   0  0  0  0  0  0  0  0  0  0  0  0
  144.6957   75.0546  215.3637 H   0  0  0  0  0  0  0  0  0  0  0  0
  145.1968   76.7796  215.3637 H   0  0  0  0  0  0  0  0  0  0  0  0
  142.8453   78.5269  215.9103 H   0  0  0  0  0  0  0  0  0  0  0  0
  143.8857   77.8252  214.6250 H   0  0  0  0  0  0  0  0  0  0  0  0
  142.1184   77.5040  214.6250 H   0  0  0  0  0  0  0  0  0  0  0  0
  141.8677   74.7172  216.2106 H   0  0  0  0  0  0  0  0  0  0  0  0
  141.5931   75.8107  214.8122 H   0  0  0  0  0  0  0  0  0  0  0  0
  142.9949   74.6875  214.8122 H   0  0  0  0  0  0  0  0  0  0  0  0
  143.4251   77.4672  217.8323 H   0  0  0  0  0  0  0  0  0  0  0  0
  140.9546   77.2825  216.8801 H   0  0  0  0  0  0  0  0  0  0  0  0
  141.0508   76.4119  218.5305 H   0  0  0  0  0  0  0  0  0  0  0  0
  139.4324   77.9497  219.2561 H   0  0  0  0  0  0  0  0  0  0  0  0
  139.0778   80.0629  220.4762 H   0  0  0  0  0  0  0  0  0  0  0  0
  143.0042   81.3446  219.2529 H   0  0  0  0  0  0  0  0  0  0  0  0
  143.3111   79.2091  218.0482 H   0  0  0  0  0  0  0  0  0  0  0  0
  142.8630   74.4340  217.9160 H   0  0  0  0  0  0  0  0  0  0  0  0
  143.6779   74.4410  221.3598 H   0  0  0  0  0  0  0  0  0  0  0  0
  145.9555   74.5248  219.6483 H   0  0  0  0  0  0  0  0  0  0  0  0
  145.8425   73.6549  221.1814 H   0  0  0  0  0  0  0  0  0  0  0  0
  145.5447   72.6857  218.3771 H   0  0  0  0  0  0  0  0  0  0  0  0
  143.5854   71.2923  218.8454 H   0  0  0  0  0  0  0  0  0  0  0  0
  143.8751   71.2224  220.5520 H   0  0  0  0  0  0  0  0  0  0  0  0
  139.7481   73.4886  220.0291 H   0  0  0  0  0  0  0  0  0  0  0  0
  140.8155   72.7834  221.3240 H   0  0  0  0  0  0  0  0  0  0  0  0
  141.9310   75.1950  221.1520 H   0  0  0  0  0  0  0  0  0  0  0  0
  138.0495   77.2510  222.6622 H   0  0  0  0  0  0  0  0  0  0  0  0
  138.4778   79.4989  223.6874 H   0  0  0  0  0  0  0  0  0  0  0  0
  140.0699   81.2897  224.2504 H   0  0  0  0  0  0  0  0  0  0  0  0
  144.2415   80.7875  223.1985 H   0  0  0  0  0  0  0  0  0  0  0  0
  143.7377   78.5714  222.2174 H   0  0  0  0  0  0  0  0  0  0  0  0
  1  2  1  0
  2  3  1  0
  2  4  1  0
  2  5  1  0
  5  6  1  0
  6  7  1  0
  7  8  2  0
  8  9  1  0
  9 10  2  0
 10 11  1  0
 10 12  1  0
 12 13  2  0
  5 14  1  0
 14 15  1  0
 15 16  2  0
 15 17  1  0
 17 18  1  0
 18 19  1  0
 19 20  1  0
 19 21  1  0
 21 22  1  0
 22 23  1  0
 23 24  2  0
 23 25  1  0
 25 26  1  0
 26 27  1  0
 27 28  2  0
 27 29  1  0
 29 30  2  0
 30 31  1  0
 31 32  2  0
 32 33  1  0
 33 34  2  0
 34 35  1  0
 34 36  1  0
 36 37  2  0
 37 38  1  0
 38 39  2  0
 13  7  1  0
 22 17  1  0
 39 29  1  0
 38 32  1  0
  1 40  1  0
  1 41  1  0
  1 42  1  0
  3 43  1  0
  3 44  1  0
  3 45  1  0
  4 46  1  0
  4 47  1  0
  4 48  1  0
  5 49  1  1
  6 50  1  0
  6 51  1  0
  8 52  1  0
  9 53  1  0
 12 54  1  0
 13 55  1  0
 14 56  1  0
 17 57  1  1
 18 58  1  0
 18 59  1  0
 19 60  1  6
 21 61  1  0
 21 62  1  0
 25 63  1  0
 25 64  1  0
 26 65  1  0
 30 66  1  0
 31 67  1  0
 33 68  1  0
 36 69  1  0
 37 70  1  0
M  END
>  <smiles>  (21) 
CC(C)(C)C(Cc1ccc(F)cc1)NC(=O)[C@@H]1C[C@@H](F)CN1C(=O)CNC(=O)c1ccc2cc(F)ccc2n1

>  <score_type>  (21) 
oracle

>  <origin>  (21) 
autodockgpu

>  <m_score__min__energy>  (21) 
-9.5999999999999996

>  <m_primary>  (21) 
energy

>  <meeko>  (21) 
{"free_energy": -6.19, "intermolecular_energy": -8.87, "internal_energy": -5.39, "cluster_size": 3, "cluster_id": 8, "rank_in_cluster": 3}

>  <energy>  (21) 
-9.6

>  <cluster_rmsd>  (21) 
0.0

>  <rmsd>  (21) 
271.54

>  <cluster>  (21) 
1

$$$$

     RDKit          3D

 70 73  0  0  1  0  0  0  0  0999 V2000
  142.0330   73.4670  220.8170 C   0  0  0  0  0  0  0  0  0  0  0  0
  142.9110   74.3840  220.0120 C   0  0  0  0  0  0  0  0  0  0  0  0
  144.3410   74.1700  220.4950 C   0  0  0  0  0  0  0  0  0  0  0  0
  142.9200   73.8290  218.5650 C   0  0  0  0  0  0  0  0  0  0  0  0
  142.5140   75.8110  220.0150 C   0  0  1  0  0  0  0  0  0  0  0  0
  142.9940   76.7180  218.9690 C   0  0  0  0  0  0  0  0  0  0  0  0
  142.5230   78.1080  218.9720 C   0  0  0  0  0  0  0  0  0  0  0  0
  142.8130   78.9040  217.8870 C   0  0  0  0  0  0  0  0  0  0  0  0
  142.4530   80.2390  217.7980 C   0  0  0  0  0  0  0  0  0  0  0  0
  141.7670   80.8100  218.8480 C   0  0  0  0  0  0  0  0  0  0  0  0
  141.4050   82.1210  218.7810 F   0  0  0  0  0  0  0  0  0  0  0  0
  141.4530   80.0410  219.9620 C   0  0  0  0  0  0  0  0  0  0  0  0
  141.8350   78.7090  220.0040 C   0  0  0  0  0  0  0  0  0  0  0  0
  141.0440   75.9170  220.2010 N   0  0  0  0  0  0  0  0  0  0  0  0
  140.1810   75.7110  219.0620 C   0  0  0  0  0  0  0  0  0  0  0  0
  140.6410   75.4510  217.9280 O   0  0  0  0  0  0  0  0  0  0  0  0
  138.7190   75.8350  219.3490 C   0  0  2  0  0  0  0  0  0  0  0  0
  138.1840   77.1610  218.9600 C   0  0  0  0  0  0  0  0  0  0  0  0
  137.7220   77.7980  220.2490 C   0  0  1  0  0  0  0  0  0  0  0  0
  136.5530   78.5150  220.1160 F   0  0  0  0  0  0  0  0  0  0  0  0
  137.4110   76.6510  221.1860 C   0  0  0  0  0  0  0  0  0  0  0  0
  138.3840   75.6820  220.7330 N   0  0  0  0  0  0  0  0  0  0  0  0
  138.9180   74.6800  221.6240 C   0  0  0  0  0  0  0  0  0  0  0  0
  139.6270   74.9820  222.6200 O   0  0  0  0  0  0  0  0  0  0  0  0
  138.6560   73.2290  221.4150 C   0  0  0  0  0  0  0  0  0  0  0  0
  138.9450   72.4460  222.5750 N   0  0  0  0  0  0  0  0  0  0  0  0
  138.8840   71.0430  222.5770 C   0  0  0  0  0  0  0  0  0  0  0  0
  138.5660   70.4200  221.5200 O   0  0  0  0  0  0  0  0  0  0  0  0
  139.1870   70.2740  223.7820 C   0  0  0  0  0  0  0  0  0  0  0  0
  138.8810   68.9150  223.8540 C   0  0  0  0  0  0  0  0  0  0  0  0
  139.1970   68.1710  225.0010 C   0  0  0  0  0  0  0  0  0  0  0  0
  139.8180   68.8090  226.0640 C   0  0  0  0  0  0  0  0  0  0  0  0
  140.1450   68.1030  227.2330 C   0  0  0  0  0  0  0  0  0  0  0  0
  140.7710   68.7870  228.2880 C   0  0  0  0  0  0  0  0  0  0  0  0
  141.0850   68.0960  229.4140 F   0  0  0  0  0  0  0  0  0  0  0  0
  141.0600   70.1440  228.1780 C   0  0  0  0  0  0  0  0  0  0  0  0
  140.7350   70.8310  227.0300 C   0  0  0  0  0  0  0  0  0  0  0  0
  140.1140   70.1620  225.9720 C   0  0  0  0  0  0  0  0  0  0  0  0
  139.7860   70.8390  224.8330 N   0  0  0  0  0  0  0  0  0  0  0  0
  142.2029   73.6445  221.8892 H   0  0  0  0  0  0  0  0  0  0  0  0
  140.9781   73.6639  220.5754 H   0  0  0  0  0  0  0  0  0  0  0  0
  142.2755   72.4216  220.5754 H   0  0  0  0  0  0  0  0  0  0  0  0
  144.3600   74.1672  221.5948 H   0  0  0  0  0  0  0  0  0  0  0  0
  144.7145   73.2060  220.1193 H   0  0  0  0  0  0  0  0  0  0  0  0
  144.9804   74.9825  220.1193 H   0  0  0  0  0  0  0  0  0  0  0  0
  142.9378   72.7295  218.5941 H   0  0  0  0  0  0  0  0  0  0  0  0
  142.0162   74.1672  218.0369 H   0  0  0  0  0  0  0  0  0  0  0  0
  143.8123   74.1963  218.0369 H   0  0  0  0  0  0  0  0  0  0  0  0
  143.0837   76.2059  220.8691 H   0  0  0  0  0  0  0  0  0  0  0  0
  144.0910   76.7475  219.0442 H   0  0  0  0  0  0  0  0  0  0  0  0
  142.5809   76.2976  218.0402 H   0  0  0  0  0  0  0  0  0  0  0  0
  143.3604   78.4558  217.0447 H   0  0  0  0  0  0  0  0  0  0  0  0
  142.7096   80.8312  216.9072 H   0  0  0  0  0  0  0  0  0  0  0  0
  140.9048   80.4864  220.8053 H   0  0  0  0  0  0  0  0  0  0  0  0
  141.5802   78.1112  220.8915 H   0  0  0  0  0  0  0  0  0  0  0  0
  140.6410   76.1350  221.1450 H   0  0  0  0  0  0  0  0  0  0  0  0
  138.2764   75.0201  218.7574 H   0  0  0  0  0  0  0  0  0  0  0  0
  138.9694   77.7703  218.4890 H   0  0  0  0  0  0  0  0  0  0  0  0
  137.3666   77.0751  218.2290 H   0  0  0  0  0  0  0  0  0  0  0  0
  138.5052   78.4883  220.5955 H   0  0  0  0  0  0  0  0  0  0  0  0
  137.5717   76.9289  222.2381 H   0  0  0  0  0  0  0  0  0  0  0  0
  136.3674   76.3042  221.1615 H   0  0  0  0  0  0  0  0  0  0  0  0
  137.5953   73.0962  221.1556 H   0  0  0  0  0  0  0  0  0  0  0  0
  139.3175   72.8839  220.6067 H   0  0  0  0  0  0  0  0  0  0  0  0
  139.2290   72.9460  223.4760 H   0  0  0  0  0  0  0  0  0  0  0  0
  138.3873   68.4219  223.0036 H   0  0  0  0  0  0  0  0  0  0  0  0
  138.9560   67.0991  225.0560 H   0  0  0  0  0  0  0  0  0  0  0  0
  139.9145   67.0310  227.3211 H   0  0  0  0  0  0  0  0  0  0  0  0
  141.5497   70.6694  229.0111 H   0  0  0  0  0  0  0  0  0  0  0  0
  140.9636   71.9037  226.9459 H   0  0  0  0  0  0  0  0  0  0  0  0
  1  2  1  0
  2  3  1  0
  2  4  1  0
  2  5  1  0
  5  6  1  0
  6  7  1  0
  7  8  2  0
  8  9  1  0
  9 10  2  0
 10 11  1  0
 10 12  1  0
 12 13  2  0
  5 14  1  0
 14 15  1  0
 15 16  2  0
 15 17  1  0
 17 18  1  0
 18 19  1  0
 19 20  1  0
 19 21  1  0
 21 22  1  0
 22 23  1  0
 23 24  2  0
 23 25  1  0
 25 26  1  0
 26 27  1  0
 27 28  2  0
 27 29  1  0
 29 30  2  0
 30 31  1  0
 31 32  2  0
 32 33  1  0
 33 34  2  0
 34 35  1  0
 34 36  1  0
 36 37  2  0
 37 38  1  0
 38 39  2  0
 13  7  1  0
 22 17  1  0
 39 29  1  0
 38 32  1  0
  1 40  1  0
  1 41  1  0
  1 42  1  0
  3 43  1  0
  3 44  1  0
  3 45  1  0
  4 46  1  0
  4 47  1  0
  4 48  1  0
  5 49  1  1
  6 50  1  0
  6 51  1  0
  8 52  1  0
  9 53  1  0
 12 54  1  0
 13 55  1  0
 14 56  1  0
 17 57  1  6
 18 58  1  0
 18 59  1  0
 19 60  1  1
 21 61  1  0
 21 62  1  0
 25 63  1  0
 25 64  1  0
 26 65  1  0
 30 66  1  0
 31 67  1  0
 33 68  1  0
 36 69  1  0
 37 70  1  0
M  END
>  <smiles>  (22) 
CC(C)(C)C(Cc1ccc(F)cc1)NC(=O)[C@@H]1C[C@@H](F)CN1C(=O)CNC(=O)c1ccc2cc(F)ccc2n1

>  <score_type>  (22) 
oracle

>  <origin>  (22) 
autodockgpu

>  <m_score__min__energy>  (22) 
-9.5999999999999996

>  <m_primary>  (22) 
energy

>  <meeko>  (22) 
{"free_energy": -7.35, "intermolecular_energy": -10.04, "internal_energy": -3.98, "cluster_size": 1, "cluster_id": 7, "rank_in_cluster": 1}

>  <energy>  (22) 
-9.18

>  <cluster_rmsd>  (22) 
1.98

>  <rmsd>  (22) 
271.12

>  <cluster>  (22) 
1

$$$$

     RDKit          3D

 70 73  0  0  1  0  0  0  0  0999 V2000
  142.5370   74.6050  220.4680 C   0  0  0  0  0  0  0  0  0  0  0  0
  141.9360   75.8290  219.8340 C   0  0  0  0  0  0  0  0  0  0  0  0
  143.0890   76.7580  219.4750 C   0  0  0  0  0  0  0  0  0  0  0  0
  141.3740   75.3840  218.4600 C   0  0  0  0  0  0  0  0  0  0  0  0
  140.8830   76.5040  220.6270 C   0  0  1  0  0  0  0  0  0  0  0  0
  140.7260   77.9590  220.5690 C   0  0  0  0  0  0  0  0  0  0  0  0
  141.2570   78.7700  221.6710 C   0  0  0  0  0  0  0  0  0  0  0  0
  141.8390   79.9830  221.3760 C   0  0  0  0  0  0  0  0  0  0  0  0
  142.4050   80.8120  222.3290 C   0  0  0  0  0  0  0  0  0  0  0  0
  142.3920   80.4110  223.6470 C   0  0  0  0  0  0  0  0  0  0  0  0
  142.9450   81.2120  224.6000 F   0  0  0  0  0  0  0  0  0  0  0  0
  141.8140   79.1950  223.9880 C   0  0  0  0  0  0  0  0  0  0  0  0
  141.2580   78.3990  222.9980 C   0  0  0  0  0  0  0  0  0  0  0  0
  139.5880   75.8040  220.4320 N   0  0  0  0  0  0  0  0  0  0  0  0
  138.7190   75.6170  221.5700 C   0  0  0  0  0  0  0  0  0  0  0  0
  139.0330   76.0250  222.7110 O   0  0  0  0  0  0  0  0  0  0  0  0
  137.4370   74.9060  221.2750 C   0  0  2  0  0  0  0  0  0  0  0  0
  136.6600   74.6240  222.5050 C   0  0  0  0  0  0  0  0  0  0  0  0
  136.5960   73.1180  222.5990 C   0  0  1  0  0  0  0  0  0  0  0  0
  135.3800   72.6490  223.0460 F   0  0  0  0  0  0  0  0  0  0  0  0
  136.7500   72.6110  221.1810 C   0  0  0  0  0  0  0  0  0  0  0  0
  137.6120   73.6360  220.6360 N   0  0  0  0  0  0  0  0  0  0  0  0
  138.5240   73.3550  219.5540 C   0  0  0  0  0  0  0  0  0  0  0  0
  138.3410   73.8050  218.3920 O   0  0  0  0  0  0  0  0  0  0  0  0
  139.7380   72.5170  219.7540 C   0  0  0  0  0  0  0  0  0  0  0  0
  139.6580   71.7060  220.9280 N   0  0  0  0  0  0  0  0  0  0  0  0
  140.0070   72.1830  222.2030 C   0  0  0  0  0  0  0  0  0  0  0  0
  140.4080   73.3760  222.3460 O   0  0  0  0  0  0  0  0  0  0  0  0
  139.9120   71.3270  223.3830 C   0  0  0  0  0  0  0  0  0  0  0  0
  139.2740   70.0880  223.3120 C   0  0  0  0  0  0  0  0  0  0  0  0
  139.2060   69.2540  224.4380 C   0  0  0  0  0  0  0  0  0  0  0  0
  139.7820   69.6820  225.6250 C   0  0  0  0  0  0  0  0  0  0  0  0
  139.7310   68.8790  226.7770 C   0  0  0  0  0  0  0  0  0  0  0  0
  140.3250   69.3500  227.9600 C   0  0  0  0  0  0  0  0  0  0  0  0
  140.2710   68.5680  229.0690 F   0  0  0  0  0  0  0  0  0  0  0  0
  140.9510   70.5930  227.9900 C   0  0  0  0  0  0  0  0  0  0  0  0
  140.9970   71.3740  226.8580 C   0  0  0  0  0  0  0  0  0  0  0  0
  140.4120   70.9170  225.6740 C   0  0  0  0  0  0  0  0  0  0  0  0
  140.4510   71.6890  224.5500 N   0  0  0  0  0  0  0  0  0  0  0  0
  142.4908   74.6990  221.5630 H   0  0  0  0  0  0  0  0  0  0  0  0
  141.9737   73.7145  220.1524 H   0  0  0  0  0  0  0  0  0  0  0  0
  143.5861   74.5062  220.1524 H   0  0  0  0  0  0  0  0  0  0  0  0
  143.5568   77.1349  220.3965 H   0  0  0  0  0  0  0  0  0  0  0  0
  143.8348   76.2055  218.8847 H   0  0  0  0  0  0  0  0  0  0  0  0
  142.7078   77.6043  218.8847 H   0  0  0  0  0  0  0  0  0  0  0  0
  140.5202   74.7079  218.6146 H   0  0  0  0  0  0  0  0  0  0  0  0
  141.0439   76.2682  217.8951 H   0  0  0  0  0  0  0  0  0  0  0  0
  142.1590   74.8600  217.8951 H   0  0  0  0  0  0  0  0  0  0  0  0
  141.2720   76.4079  221.6514 H   0  0  0  0  0  0  0  0  0  0  0  0
  141.2201   78.3014  219.6478 H   0  0  0  0  0  0  0  0  0  0  0  0
  139.6382   78.1125  220.6247 H   0  0  0  0  0  0  0  0  0  0  0  0
  141.8549   80.3107  220.3261 H   0  0  0  0  0  0  0  0  0  0  0  0
  142.8565   81.7724  222.0396 H   0  0  0  0  0  0  0  0  0  0  0  0
  141.7974   78.8653  225.0373 H   0  0  0  0  0  0  0  0  0  0  0  0
  140.8023   77.4389  223.2817 H   0  0  0  0  0  0  0  0  0  0  0  0
  139.3090   75.4540  219.4830 H   0  0  0  0  0  0  0  0  0  0  0  0
  136.9112   75.6008  220.6036 H   0  0  0  0  0  0  0  0  0  0  0  0
  137.1674   75.0439  223.3861 H   0  0  0  0  0  0  0  0  0  0  0  0
  135.6577   75.0758  222.4697 H   0  0  0  0  0  0  0  0  0  0  0  0
  137.3691   72.7810  223.3052 H   0  0  0  0  0  0  0  0  0  0  0  0
  137.2264   71.6200  221.1520 H   0  0  0  0  0  0  0  0  0  0  0  0
  135.8048   72.4654  220.6374 H   0  0  0  0  0  0  0  0  0  0  0  0
  139.8610   71.8606  218.8799 H   0  0  0  0  0  0  0  0  0  0  0  0
  140.5953   73.1955  219.8753 H   0  0  0  0  0  0  0  0  0  0  0  0
  139.3110   70.7010  220.8370 H   0  0  0  0  0  0  0  0  0  0  0  0
  138.8202   69.7622  222.3644 H   0  0  0  0  0  0  0  0  0  0  0  0
  138.7042   68.2768  224.3805 H   0  0  0  0  0  0  0  0  0  0  0  0
  139.2343   67.8978  226.7530 H   0  0  0  0  0  0  0  0  0  0  0  0
  141.4108   70.9524  228.9224 H   0  0  0  0  0  0  0  0  0  0  0  0
  141.4929   72.3555  226.8850 H   0  0  0  0  0  0  0  0  0  0  0  0
  1  2  1  0
  2  3  1  0
  2  4  1  0
  2  5  1  0
  5  6  1  0
  6  7  1  0
  7  8  2  0
  8  9  1  0
  9 10  2  0
 10 11  1  0
 10 12  1  0
 12 13  2  0
  5 14  1  0
 14 15  1  0
 15 16  2  0
 15 17  1  0
 17 18  1  0
 18 19  1  0
 19 20  1  0
 19 21  1  0
 21 22  1  0
 22 23  1  0
 23 24  2  0
 23 25  1  0
 25 26  1  0
 26 27  1  0
 27 28  2  0
 27 29  1  0
 29 30  2  0
 30 31  1  0
 31 32  2  0
 32 33  1  0
 33 34  2  0
 34 35  1  0
 34 36  1  0
 36 37  2  0
 37 38  1  0
 38 39  2  0
 13  7  1  0
 22 17  1  0
 39 29  1  0
 38 32  1  0
  1 40  1  0
  1 41  1  0
  1 42  1  0
  3 43  1  0
  3 44  1  0
  3 45  1  0
  4 46  1  0
  4 47  1  0
  4 48  1  0
  5 49  1  1
  6 50  1  0
  6 51  1  0
  8 52  1  0
  9 53  1  0
 12 54  1  0
 13 55  1  0
 14 56  1  0
 17 57  1  6
 18 58  1  0
 18 59  1  0
 19 60  1  1
 21 61  1  0
 21 62  1  0
 25 63  1  0
 25 64  1  0
 26 65  1  0
 30 66  1  0
 31 67  1  0
 33 68  1  0
 36 69  1  0
 37 70  1  0
M  END
>  <smiles>  (23) 
CC(C)(C)C(Cc1ccc(F)cc1)NC(=O)[C@@H]1C[C@@H](F)CN1C(=O)CNC(=O)c1ccc2cc(F)ccc2n1

>  <score_type>  (23) 
oracle

>  <origin>  (23) 
autodockgpu

>  <m_score__min__energy>  (23) 
-9.5999999999999996

>  <m_primary>  (23) 
energy

>  <meeko>  (23) 
{"free_energy": -8.56, "intermolecular_energy": -11.25, "internal_energy": -3.77, "cluster_size": 7, "cluster_id": 2, "rank_in_cluster": 4}

>  <energy>  (23) 
-8.97

>  <cluster_rmsd>  (23) 
1.97

>  <rmsd>  (23) 
271.02

>  <cluster>  (23) 
1

$$$$

     RDKit          3D

 70 73  0  0  1  0  0  0  0  0999 V2000
  141.7630   81.3840  221.4100 C   0  0  0  0  0  0  0  0  0  0  0  0
  141.8560   80.4540  222.5870 C   0  0  0  0  0  0  0  0  0  0  0  0
  143.3180   80.0500  222.7240 C   0  0  0  0  0  0  0  0  0  0  0  0
  141.5860   81.3110  223.8500 C   0  0  0  0  0  0  0  0  0  0  0  0
  140.9410   79.2890  222.5500 C   0  0  1  0  0  0  0  0  0  0  0  0
  139.5840   79.4260  222.0160 C   0  0  0  0  0  0  0  0  0  0  0  0
  138.7540   78.2220  221.8840 C   0  0  0  0  0  0  0  0  0  0  0  0
  138.4180   77.5250  223.0230 C   0  0  0  0  0  0  0  0  0  0  0  0
  137.6730   76.3580  223.0150 C   0  0  0  0  0  0  0  0  0  0  0  0
  137.2410   75.8580  221.8060 C   0  0  0  0  0  0  0  0  0  0  0  0
  136.5080   74.7110  221.7760 F   0  0  0  0  0  0  0  0  0  0  0  0
  137.5570   76.5310  220.6330 C   0  0  0  0  0  0  0  0  0  0  0  0
  138.3050   77.6970  220.6920 C   0  0  0  0  0  0  0  0  0  0  0  0
  141.6470   78.1210  221.9640 N   0  0  0  0  0  0  0  0  0  0  0  0
  141.7670   78.0300  220.5280 C   0  0  0  0  0  0  0  0  0  0  0  0
  141.2900   78.9050  219.7710 O   0  0  0  0  0  0  0  0  0  0  0  0
  142.4960   76.8230  220.0320 C   0  0  2  0  0  0  0  0  0  0  0  0
  142.9110   76.9640  218.6160 C   0  0  0  0  0  0  0  0  0  0  0  0
  142.1600   75.8860  217.8710 C   0  0  1  0  0  0  0  0  0  0  0  0
  142.9070   75.2860  216.8800 F   0  0  0  0  0  0  0  0  0  0  0  0
  141.8690   74.8080  218.8930 C   0  0  0  0  0  0  0  0  0  0  0  0
  141.7240   75.6170  220.0830 N   0  0  0  0  0  0  0  0  0  0  0  0
  140.8870   75.1980  221.1800 C   0  0  0  0  0  0  0  0  0  0  0  0
  140.9530   75.7390  222.3150 O   0  0  0  0  0  0  0  0  0  0  0  0
  139.8920   74.1010  221.0280 C   0  0  0  0  0  0  0  0  0  0  0  0
  139.8020   73.2760  222.1920 N   0  0  0  0  0  0  0  0  0  0  0  0
  139.9850   71.8840  222.1500 C   0  0  0  0  0  0  0  0  0  0  0  0
  140.2430   71.3100  221.0500 O   0  0  0  0  0  0  0  0  0  0  0  0
  139.8870   71.0720  223.3610 C   0  0  0  0  0  0  0  0  0  0  0  0
  139.3090   69.8030  223.3210 C   0  0  0  0  0  0  0  0  0  0  0  0
  139.2400   69.0120  224.4780 C   0  0  0  0  0  0  0  0  0  0  0  0
  139.7540   69.5140  225.6650 C   0  0  0  0  0  0  0  0  0  0  0  0
  139.6990   68.7570  226.8470 C   0  0  0  0  0  0  0  0  0  0  0  0
  140.2290   69.3020  228.0280 C   0  0  0  0  0  0  0  0  0  0  0  0
  140.1720   68.5640  229.1660 F   0  0  0  0  0  0  0  0  0  0  0  0
  140.7970   70.5730  228.0270 C   0  0  0  0  0  0  0  0  0  0  0  0
  140.8470   71.3090  226.8650 C   0  0  0  0  0  0  0  0  0  0  0  0
  140.3250   70.7790  225.6830 C   0  0  0  0  0  0  0  0  0  0  0  0
  140.3680   71.5060  224.5290 N   0  0  0  0  0  0  0  0  0  0  0  0
  141.6595   82.4190  221.7678 H   0  0  0  0  0  0  0  0  0  0  0  0
  142.6744   81.2962  220.8004 H   0  0  0  0  0  0  0  0  0  0  0  0
  140.8870   81.1174  220.8004 H   0  0  0  0  0  0  0  0  0  0  0  0
  143.5801   79.9776  223.7899 H   0  0  0  0  0  0  0  0  0  0  0  0
  143.4757   79.0746  222.2405 H   0  0  0  0  0  0  0  0  0  0  0  0
  143.9542   80.8060  222.2405 H   0  0  0  0  0  0  0  0  0  0  0  0
  141.7761   80.7077  224.7500 H   0  0  0  0  0  0  0  0  0  0  0  0
  142.2518   82.1866  223.8482 H   0  0  0  0  0  0  0  0  0  0  0  0
  140.5385   81.6468  223.8482 H   0  0  0  0  0  0  0  0  0  0  0  0
  140.6997   79.1536  223.6147 H   0  0  0  0  0  0  0  0  0  0  0  0
  139.0445   80.1205  222.6768 H   0  0  0  0  0  0  0  0  0  0  0  0
  139.7371   79.7602  220.9792 H   0  0  0  0  0  0  0  0  0  0  0  0
  138.7602   77.9168  223.9922 H   0  0  0  0  0  0  0  0  0  0  0  0
  137.4309   75.8405  223.9550 H   0  0  0  0  0  0  0  0  0  0  0  0
  137.2158   76.1412  219.6626 H   0  0  0  0  0  0  0  0  0  0  0  0
  138.5481   78.2205  219.7556 H   0  0  0  0  0  0  0  0  0  0  0  0
  142.0520   77.3770  222.5820 H   0  0  0  0  0  0  0  0  0  0  0  0
  143.3584   76.7526  220.7111 H   0  0  0  0  0  0  0  0  0  0  0  0
  142.6392   77.9584  218.2321 H   0  0  0  0  0  0  0  0  0  0  0  0
  143.9997   76.8629  218.4959 H   0  0  0  0  0  0  0  0  0  0  0  0
  141.2747   76.3393  217.4011 H   0  0  0  0  0  0  0  0  0  0  0  0
  140.9442   74.2613  218.6567 H   0  0  0  0  0  0  0  0  0  0  0  0
  142.6320   74.0186  218.9615 H   0  0  0  0  0  0  0  0  0  0  0  0
  138.9046   74.5452  220.8337 H   0  0  0  0  0  0  0  0  0  0  0  0
  140.2218   73.4650  220.1933 H   0  0  0  0  0  0  0  0  0  0  0  0
  139.5980   73.7360  223.1340 H   0  0  0  0  0  0  0  0  0  0  0  0
  138.9035   69.4187  222.3734 H   0  0  0  0  0  0  0  0  0  0  0  0
  138.7860   68.0106  224.4445 H   0  0  0  0  0  0  0  0  0  0  0  0
  139.2482   67.7536  226.8477 H   0  0  0  0  0  0  0  0  0  0  0  0
  141.2073   70.9906  228.9583 H   0  0  0  0  0  0  0  0  0  0  0  0
  141.2972   72.3126  226.8673 H   0  0  0  0  0  0  0  0  0  0  0  0
  1  2  1  0
  2  3  1  0
  2  4  1  0
  2  5  1  0
  5  6  1  0
  6  7  1  0
  7  8  2  0
  8  9  1  0
  9 10  2  0
 10 11  1  0
 10 12  1  0
 12 13  2  0
  5 14  1  0
 14 15  1  0
 15 16  2  0
 15 17  1  0
 17 18  1  0
 18 19  1  0
 19 20  1  0
 19 21  1  0
 21 22  1  0
 22 23  1  0
 23 24  2  0
 23 25  1  0
 25 26  1  0
 26 27  1  0
 27 28  2  0
 27 29  1  0
 29 30  2  0
 30 31  1  0
 31 32  2  0
 32 33  1  0
 33 34  2  0
 34 35  1  0
 34 36  1  0
 36 37  2  0
 37 38  1  0
 38 39  2  0
 13  7  1  0
 22 17  1  0
 39 29  1  0
 38 32  1  0
  1 40  1  0
  1 41  1  0
  1 42  1  0
  3 43  1  0
  3 44  1  0
  3 45  1  0
  4 46  1  0
  4 47  1  0
  4 48  1  0
  5 49  1  1
  6 50  1  0
  6 51  1  0
  8 52  1  0
  9 53  1  0
 12 54  1  0
 13 55  1  0
 14 56  1  0
 17 57  1  1
 18 58  1  0
 18 59  1  0
 19 60  1  6
 21 61  1  0
 21 62  1  0
 25 63  1  0
 25 64  1  0
 26 65  1  0
 30 66  1  0
 31 67  1  0
 33 68  1  0
 36 69  1  0
 37 70  1  0
M  END
>  <smiles>  (24) 
CC(C)(C)C(Cc1ccc(F)cc1)NC(=O)[C@@H]1C[C@@H](F)CN1C(=O)CNC(=O)c1ccc2cc(F)ccc2n1

>  <score_type>  (24) 
oracle

>  <origin>  (24) 
autodockgpu

>  <m_score__min__energy>  (24) 
-9.5999999999999996

>  <m_primary>  (24) 
energy

>  <meeko>  (24) 
{"free_energy": -8.97, "intermolecular_energy": -11.65, "internal_energy": -3.87, "cluster_size": 4, "cluster_id": 1, "rank_in_cluster": 3}

>  <energy>  (24) 
-8.96

>  <cluster_rmsd>  (24) 
1.97

>  <rmsd>  (24) 
271.03

>  <cluster>  (24) 
1

$$$$

     RDKit          3D

 70 73  0  0  1  0  0  0  0  0999 V2000
  141.7860   81.3650  224.1310 C   0  0  0  0  0  0  0  0  0  0  0  0
  141.8430   80.5270  222.8840 C   0  0  0  0  0  0  0  0  0  0  0  0
  141.6440   81.4690  221.7030 C   0  0  0  0  0  0  0  0  0  0  0  0
  143.3110   80.0510  222.7380 C   0  0  0  0  0  0  0  0  0  0  0  0
  140.9200   79.3690  222.8540 C   0  0  1  0  0  0  0  0  0  0  0  0
  139.5250   79.5400  222.4400 C   0  0  0  0  0  0  0  0  0  0  0  0
  138.6590   80.4240  223.2300 C   0  0  0  0  0  0  0  0  0  0  0  0
  138.0540   81.4880  222.5990 C   0  0  0  0  0  0  0  0  0  0  0  0
  137.2490   82.4070  223.2520 C   0  0  0  0  0  0  0  0  0  0  0  0
  137.0360   82.2570  224.6050 C   0  0  0  0  0  0  0  0  0  0  0  0
  136.2480   83.1500  225.2640 F   0  0  0  0  0  0  0  0  0  0  0  0
  137.6270   81.1960  225.2780 C   0  0  0  0  0  0  0  0  0  0  0  0
  138.4250   80.3010  224.5820 C   0  0  0  0  0  0  0  0  0  0  0  0
  141.5670   78.2360  222.1460 N   0  0  0  0  0  0  0  0  0  0  0  0
  141.5080   78.1910  220.7030 C   0  0  0  0  0  0  0  0  0  0  0  0
  140.9240   79.0780  220.0420 O   0  0  0  0  0  0  0  0  0  0  0  0
  142.1920   77.0160  220.0810 C   0  0  2  0  0  0  0  0  0  0  0  0
  142.5360   77.2600  218.6600 C   0  0  0  0  0  0  0  0  0  0  0  0
  141.7310   76.2500  217.8760 C   0  0  1  0  0  0  0  0  0  0  0  0
  142.4160   75.7180  216.8050 F   0  0  0  0  0  0  0  0  0  0  0  0
  141.4740   75.1020  218.8270 C   0  0  0  0  0  0  0  0  0  0  0  0
  141.4030   75.8200  220.0810 N   0  0  0  0  0  0  0  0  0  0  0  0
  140.6160   75.3290  221.1850 C   0  0  0  0  0  0  0  0  0  0  0  0
  140.6770   75.8460  222.3310 O   0  0  0  0  0  0  0  0  0  0  0  0
  139.6800   74.1810  221.0280 C   0  0  0  0  0  0  0  0  0  0  0  0
  139.6550   73.3320  222.1780 N   0  0  0  0  0  0  0  0  0  0  0  0
  139.7300   71.9320  222.0870 C   0  0  0  0  0  0  0  0  0  0  0  0
  139.8270   71.3730  220.9540 O   0  0  0  0  0  0  0  0  0  0  0  0
  139.7030   71.0950  223.2850 C   0  0  0  0  0  0  0  0  0  0  0  0
  139.1930   69.7970  223.2330 C   0  0  0  0  0  0  0  0  0  0  0  0
  139.1920   68.9840  224.3760 C   0  0  0  0  0  0  0  0  0  0  0  0
  139.7040   69.4920  225.5610 C   0  0  0  0  0  0  0  0  0  0  0  0
  139.7160   68.7130  226.7300 C   0  0  0  0  0  0  0  0  0  0  0  0
  140.2410   69.2660  227.9090 C   0  0  0  0  0  0  0  0  0  0  0  0
  140.2490   68.5050  229.0350 F   0  0  0  0  0  0  0  0  0  0  0  0
  140.7390   70.5650  227.9210 C   0  0  0  0  0  0  0  0  0  0  0  0
  140.7240   71.3230  226.7720 C   0  0  0  0  0  0  0  0  0  0  0  0
  140.2060   70.7860  225.5910 C   0  0  0  0  0  0  0  0  0  0  0  0
  140.1850   71.5340  224.4500 N   0  0  0  0  0  0  0  0  0  0  0  0
  141.8305   80.7112  225.0145 H   0  0  0  0  0  0  0  0  0  0  0  0
  142.6390   82.0594  224.1454 H   0  0  0  0  0  0  0  0  0  0  0  0
  140.8468   81.9375  224.1454 H   0  0  0  0  0  0  0  0  0  0  0  0
  141.4300   82.4821  222.0741 H   0  0  0  0  0  0  0  0  0  0  0  0
  142.5579   81.4881  221.0912 H   0  0  0  0  0  0  0  0  0  0  0  0
  140.8004   81.1168  221.0912 H   0  0  0  0  0  0  0  0  0  0  0  0
  143.7512   79.9083  223.7360 H   0  0  0  0  0  0  0  0  0  0  0  0
  143.3348   79.0991  222.1872 H   0  0  0  0  0  0  0  0  0  0  0  0
  143.8888   80.8078  222.1872 H   0  0  0  0  0  0  0  0  0  0  0  0
  140.7651   79.1730  223.9253 H   0  0  0  0  0  0  0  0  0  0  0  0
  139.5379   79.9328  221.4126 H   0  0  0  0  0  0  0  0  0  0  0  0
  139.0820   78.5421  222.5742 H   0  0  0  0  0  0  0  0  0  0  0  0
  138.2187   81.6150  221.5188 H   0  0  0  0  0  0  0  0  0  0  0  0
  136.7887   83.2404  222.7010 H   0  0  0  0  0  0  0  0  0  0  0  0
  137.4629   81.0662  226.3579 H   0  0  0  0  0  0  0  0  0  0  0  0
  138.8867   79.4648  225.1276 H   0  0  0  0  0  0  0  0  0  0  0  0
  142.0610   77.4830  222.6840 H   0  0  0  0  0  0  0  0  0  0  0  0
  143.0868   76.8825  220.7067 H   0  0  0  0  0  0  0  0  0  0  0  0
  142.2601   78.2837  218.3671 H   0  0  0  0  0  0  0  0  0  0  0  0
  143.6155   77.1563  218.4757 H   0  0  0  0  0  0  0  0  0  0  0  0
  140.8306   76.7488  217.4882 H   0  0  0  0  0  0  0  0  0  0  0  0
  140.5293   74.5870  218.5982 H   0  0  0  0  0  0  0  0  0  0  0  0
  142.2261   74.2999  218.7963 H   0  0  0  0  0  0  0  0  0  0  0  0
  138.6666   74.5733  220.8574 H   0  0  0  0  0  0  0  0  0  0  0  0
  140.0302   73.5791  220.1765 H   0  0  0  0  0  0  0  0  0  0  0  0
  139.5870   73.7780  223.1450 H   0  0  0  0  0  0  0  0  0  0  0  0
  138.7881   69.4080  222.2871 H   0  0  0  0  0  0  0  0  0  0  0  0
  138.7918   67.9603  224.3334 H   0  0  0  0  0  0  0  0  0  0  0  0
  139.3206   67.6866  226.7218 H   0  0  0  0  0  0  0  0  0  0  0  0
  141.1460   70.9877  228.8515 H   0  0  0  0  0  0  0  0  0  0  0  0
  141.1191   72.3495  226.7838 H   0  0  0  0  0  0  0  0  0  0  0  0
  1  2  1  0
  2  3  1  0
  2  4  1  0
  2  5  1  0
  5  6  1  0
  6  7  1  0
  7  8  2  0
  8  9  1  0
  9 10  2  0
 10 11  1  0
 10 12  1  0
 12 13  2  0
  5 14  1  0
 14 15  1  0
 15 16  2  0
 15 17  1  0
 17 18  1  0
 18 19  1  0
 19 20  1  0
 19 21  1  0
 21 22  1  0
 22 23  1  0
 23 24  2  0
 23 25  1  0
 25 26  1  0
 26 27  1  0
 27 28  2  0
 27 29  1  0
 29 30  2  0
 30 31  1  0
 31 32  2  0
 32 33  1  0
 33 34  2  0
 34 35  1  0
 34 36  1  0
 36 37  2  0
 37 38  1  0
 38 39  2  0
 13  7  1  0
 22 17  1  0
 39 29  1  0
 38 32  1  0
  1 40  1  0
  1 41  1  0
  1 42  1  0
  3 43  1  0
  3 44  1  0
  3 45  1  0
  4 46  1  0
  4 47  1  0
  4 48  1  0
  5 49  1  1
  6 50  1  0
  6 51  1  0
  8 52  1  0
  9 53  1  0
 12 54  1  0
 13 55  1  0
 14 56  1  0
 17 57  1  1
 18 58  1  0
 18 59  1  0
 19 60  1  6
 21 61  1  0
 21 62  1  0
 25 63  1  0
 25 64  1  0
 26 65  1  0
 30 66  1  0
 31 67  1  0
 33 68  1  0
 36 69  1  0
 37 70  1  0
M  END
>  <smiles>  (25) 
CC(C)(C)C(Cc1ccc(F)cc1)NC(=O)[C@@H]1C[C@@H](F)CN1C(=O)CNC(=O)c1ccc2cc(F)ccc2n1

>  <score_type>  (25) 
oracle

>  <origin>  (25) 
autodockgpu

>  <m_score__min__energy>  (25) 
-9.5999999999999996

>  <m_primary>  (25) 
energy

>  <meeko>  (25) 
{"free_energy": -9.6, "intermolecular_energy": -12.29, "internal_energy": -3.12, "cluster_size": 4, "cluster_id": 1, "rank_in_cluster": 1}

>  <energy>  (25) 
-8.87

>  <cluster_rmsd>  (25) 
0.0

>  <rmsd>  (25) 
271.03

>  <cluster>  (25) 
2

$$$$

     RDKit          3D

 70 73  0  0  1  0  0  0  0  0999 V2000
  141.7560   81.4170  221.4060 C   0  0  0  0  0  0  0  0  0  0  0  0
  141.8540   80.4910  222.5860 C   0  0  0  0  0  0  0  0  0  0  0  0
  143.3210   80.1060  222.7310 C   0  0  0  0  0  0  0  0  0  0  0  0
  141.5680   81.3490  223.8450 C   0  0  0  0  0  0  0  0  0  0  0  0
  140.9540   79.3150  222.5490 C   0  0  1  0  0  0  0  0  0  0  0  0
  139.5960   79.4350  222.0130 C   0  0  0  0  0  0  0  0  0  0  0  0
  138.7750   78.2230  221.8970 C   0  0  0  0  0  0  0  0  0  0  0  0
  138.4240   77.5530  223.0470 C   0  0  0  0  0  0  0  0  0  0  0  0
  137.6850   76.3810  223.0540 C   0  0  0  0  0  0  0  0  0  0  0  0
  137.2770   75.8490  221.8510 C   0  0  0  0  0  0  0  0  0  0  0  0
  136.5510   74.6970  221.8370 F   0  0  0  0  0  0  0  0  0  0  0  0
  137.6090   76.4950  220.6670 C   0  0  0  0  0  0  0  0  0  0  0  0
  138.3500   77.6660  220.7100 C   0  0  0  0  0  0  0  0  0  0  0  0
  141.6750   78.1560  221.9640 N   0  0  0  0  0  0  0  0  0  0  0  0
  141.7610   78.0430  220.5270 C   0  0  0  0  0  0  0  0  0  0  0  0
  141.2410   78.8920  219.7680 O   0  0  0  0  0  0  0  0  0  0  0  0
  142.5080   76.8460  220.0330 C   0  0  2  0  0  0  0  0  0  0  0  0
  142.9260   76.9940  218.6180 C   0  0  0  0  0  0  0  0  0  0  0  0
  142.1920   75.9060  217.8700 C   0  0  1  0  0  0  0  0  0  0  0  0
  142.9500   75.3170  216.8810 F   0  0  0  0  0  0  0  0  0  0  0  0
  141.9130   74.8230  218.8910 C   0  0  0  0  0  0  0  0  0  0  0  0
  141.7540   75.6300  220.0800 N   0  0  0  0  0  0  0  0  0  0  0  0
  140.9190   75.1980  221.1750 C   0  0  0  0  0  0  0  0  0  0  0  0
  140.9870   75.7270  222.3160 O   0  0  0  0  0  0  0  0  0  0  0  0
  139.9240   74.1020  221.0130 C   0  0  0  0  0  0  0  0  0  0  0  0
  139.8070   73.2900  222.1850 N   0  0  0  0  0  0  0  0  0  0  0  0
  139.9850   71.8970  222.1620 C   0  0  0  0  0  0  0  0  0  0  0  0
  140.2660   71.3110  221.0740 O   0  0  0  0  0  0  0  0  0  0  0  0
  139.8590   71.0990  223.3790 C   0  0  0  0  0  0  0  0  0  0  0  0
  139.2470   69.8450  223.3460 C   0  0  0  0  0  0  0  0  0  0  0  0
  139.1500   69.0670  224.5100 C   0  0  0  0  0  0  0  0  0  0  0  0
  139.6700   69.5660  225.6950 C   0  0  0  0  0  0  0  0  0  0  0  0
  139.5870   68.8220  226.8840 C   0  0  0  0  0  0  0  0  0  0  0  0
  140.1240   69.3630  228.0630 C   0  0  0  0  0  0  0  0  0  0  0  0
  140.0410   68.6370  229.2080 F   0  0  0  0  0  0  0  0  0  0  0  0
  140.7260   70.6180  228.0550 C   0  0  0  0  0  0  0  0  0  0  0  0
  140.8020   71.3430  226.8870 C   0  0  0  0  0  0  0  0  0  0  0  0
  140.2740   70.8150  225.7060 C   0  0  0  0  0  0  0  0  0  0  0  0
  140.3440   71.5310  224.5460 N   0  0  0  0  0  0  0  0  0  0  0  0
  141.6464   82.4525  221.7606 H   0  0  0  0  0  0  0  0  0  0  0  0
  142.6681   81.3326  220.7969 H   0  0  0  0  0  0  0  0  0  0  0  0
  140.8818   81.1435  220.7969 H   0  0  0  0  0  0  0  0  0  0  0  0
  143.5786   80.0384  223.7983 H   0  0  0  0  0  0  0  0  0  0  0  0
  143.4938   79.1321  222.2497 H   0  0  0  0  0  0  0  0  0  0  0  0
  143.9498   80.8695  222.2497 H   0  0  0  0  0  0  0  0  0  0  0  0
  141.7667   80.7529  224.7479 H   0  0  0  0  0  0  0  0  0  0  0  0
  142.2192   82.2355  223.8403 H   0  0  0  0  0  0  0  0  0  0  0  0
  140.5151   81.6674  223.8403 H   0  0  0  0  0  0  0  0  0  0  0  0
  140.7135   79.1769  223.6135 H   0  0  0  0  0  0  0  0  0  0  0  0
  139.0512   80.1342  222.6644 H   0  0  0  0  0  0  0  0  0  0  0  0
  139.7467   79.7567  220.9719 H   0  0  0  0  0  0  0  0  0  0  0  0
  138.7475   77.9703  224.0120 H   0  0  0  0  0  0  0  0  0  0  0  0
  137.4292   75.8851  224.0020 H   0  0  0  0  0  0  0  0  0  0  0  0
  137.2859   76.0799  219.7009 H   0  0  0  0  0  0  0  0  0  0  0  0
  138.6074   78.1673  219.7653 H   0  0  0  0  0  0  0  0  0  0  0  0
  142.1160   77.4340  222.5840 H   0  0  0  0  0  0  0  0  0  0  0  0
  143.3683   76.7870  220.7159 H   0  0  0  0  0  0  0  0  0  0  0  0
  142.6419   77.9848  218.2339 H   0  0  0  0  0  0  0  0  0  0  0  0
  144.0164   76.9082  218.5012 H   0  0  0  0  0  0  0  0  0  0  0  0
  141.3019   76.3474  217.3978 H   0  0  0  0  0  0  0  0  0  0  0  0
  140.9963   74.2638  218.6521 H   0  0  0  0  0  0  0  0  0  0  0  0
  142.6862   74.0437  218.9613 H   0  0  0  0  0  0  0  0  0  0  0  0
  138.9423   74.5466  220.7926 H   0  0  0  0  0  0  0  0  0  0  0  0
  140.2692   73.4561  220.1922 H   0  0  0  0  0  0  0  0  0  0  0  0
  139.5830   73.7620  223.1160 H   0  0  0  0  0  0  0  0  0  0  0  0
  138.8371   69.4632  222.3993 H   0  0  0  0  0  0  0  0  0  0  0  0
  138.6695   68.0779  224.4830 H   0  0  0  0  0  0  0  0  0  0  0  0
  139.1089   67.8314  226.8910 H   0  0  0  0  0  0  0  0  0  0  0  0
  141.1425   71.0320  228.9851 H   0  0  0  0  0  0  0  0  0  0  0  0
  141.2771   72.3351  226.8836 H   0  0  0  0  0  0  0  0  0  0  0  0
  1  2  1  0
  2  3  1  0
  2  4  1  0
  2  5  1  0
  5  6  1  0
  6  7  1  0
  7  8  2  0
  8  9  1  0
  9 10  2  0
 10 11  1  0
 10 12  1  0
 12 13  2  0
  5 14  1  0
 14 15  1  0
 15 16  2  0
 15 17  1  0
 17 18  1  0
 18 19  1  0
 19 20  1  0
 19 21  1  0
 21 22  1  0
 22 23  1  0
 23 24  2  0
 23 25  1  0
 25 26  1  0
 26 27  1  0
 27 28  2  0
 27 29  1  0
 29 30  2  0
 30 31  1  0
 31 32  2  0
 32 33  1  0
 33 34  2  0
 34 35  1  0
 34 36  1  0
 36 37  2  0
 37 38  1  0
 38 39  2  0
 13  7  1  0
 22 17  1  0
 39 29  1  0
 38 32  1  0
  1 40  1  0
  1 41  1  0
  1 42  1  0
  3 43  1  0
  3 44  1  0
  3 45  1  0
  4 46  1  0
  4 47  1  0
  4 48  1  0
  5 49  1  1
  6 50  1  0
  6 51  1  0
  8 52  1  0
  9 53  1  0
 12 54  1  0
 13 55  1  0
 14 56  1  0
 17 57  1  1
 18 58  1  0
 18 59  1  0
 19 60  1  6
 21 61  1  0
 21 62  1  0
 25 63  1  0
 25 64  1  0
 26 65  1  0
 30 66  1  0
 31 67  1  0
 33 68  1  0
 36 69  1  0
 37 70  1  0
M  END
>  <smiles>  (26) 
CC(C)(C)C(Cc1ccc(F)cc1)NC(=O)[C@@H]1C[C@@H](F)CN1C(=O)CNC(=O)c1ccc2cc(F)ccc2n1

>  <score_type>  (26) 
oracle

>  <origin>  (26) 
autodockgpu

>  <m_score__min__energy>  (26) 
-9.5999999999999996

>  <m_primary>  (26) 
energy

>  <meeko>  (26) 
{"free_energy": -8.96, "intermolecular_energy": -11.65, "internal_energy": -3.9, "cluster_size": 4, "cluster_id": 1, "rank_in_cluster": 4}

>  <energy>  (26) 
-8.8

>  <cluster_rmsd>  (26) 
1.57

>  <rmsd>  (26) 
270.79

>  <cluster>  (26) 
2

$$$$

     RDKit          3D

 70 73  0  0  1  0  0  0  0  0999 V2000
  143.6840   76.3570  219.7200 C   0  0  0  0  0  0  0  0  0  0  0  0
  142.4740   76.9190  219.0290 C   0  0  0  0  0  0  0  0  0  0  0  0
  142.9650   77.6310  217.7750 C   0  0  0  0  0  0  0  0  0  0  0  0
  141.6750   75.7090  218.4810 C   0  0  0  0  0  0  0  0  0  0  0  0
  141.6020   77.7740  219.8680 C   0  0  1  0  0  0  0  0  0  0  0  0
  141.6810   79.2340  219.7750 C   0  0  0  0  0  0  0  0  0  0  0  0
  141.8220   80.0120  221.0120 C   0  0  0  0  0  0  0  0  0  0  0  0
  142.2990   79.3800  222.1370 C   0  0  0  0  0  0  0  0  0  0  0  0
  142.4370   80.0040  223.3660 C   0  0  0  0  0  0  0  0  0  0  0  0
  142.0790   81.3290  223.4790 C   0  0  0  0  0  0  0  0  0  0  0  0
  142.2060   81.9610  224.6780 F   0  0  0  0  0  0  0  0  0  0  0  0
  141.5940   82.0050  222.3660 C   0  0  0  0  0  0  0  0  0  0  0  0
  141.4740   81.3380  221.1570 C   0  0  0  0  0  0  0  0  0  0  0  0
  140.2000   77.2940  219.7780 N   0  0  0  0  0  0  0  0  0  0  0  0
  139.4420   77.1250  220.9960 C   0  0  0  0  0  0  0  0  0  0  0  0
  139.9400   77.3690  222.1180 O   0  0  0  0  0  0  0  0  0  0  0  0
  138.0400   76.6420  220.8050 C   0  0  2  0  0  0  0  0  0  0  0  0
  137.0430   77.7060  221.0720 C   0  0  0  0  0  0  0  0  0  0  0  0
  136.2470   77.2170  222.2590 C   0  0  1  0  0  0  0  0  0  0  0  0
  134.9030   77.5090  222.1730 F   0  0  0  0  0  0  0  0  0  0  0  0
  136.3560   75.7080  222.2320 C   0  0  0  0  0  0  0  0  0  0  0  0
  137.6780   75.5570  221.6660 N   0  0  0  0  0  0  0  0  0  0  0  0
  138.4960   74.4060  221.9630 C   0  0  0  0  0  0  0  0  0  0  0  0
  139.7190   74.5120  222.2460 O   0  0  0  0  0  0  0  0  0  0  0  0
  137.9370   73.0270  221.9540 C   0  0  0  0  0  0  0  0  0  0  0  0
  138.4730   72.2100  222.9980 N   0  0  0  0  0  0  0  0  0  0  0  0
  138.1810   70.8410  223.1140 C   0  0  0  0  0  0  0  0  0  0  0  0
  137.4180   70.2810  222.2720 O   0  0  0  0  0  0  0  0  0  0  0  0
  138.7480   70.0360  224.1940 C   0  0  0  0  0  0  0  0  0  0  0  0
  138.6990   68.6430  224.1430 C   0  0  0  0  0  0  0  0  0  0  0  0
  139.2670   67.8700  225.1670 C   0  0  0  0  0  0  0  0  0  0  0  0
  139.8780   68.5140  226.2330 C   0  0  0  0  0  0  0  0  0  0  0  0
  140.4540   67.7780  227.2810 C   0  0  0  0  0  0  0  0  0  0  0  0
  141.0610   68.4680  228.3430 C   0  0  0  0  0  0  0  0  0  0  0  0
  141.6160   67.7480  229.3530 F   0  0  0  0  0  0  0  0  0  0  0  0
  141.0890   69.8590  228.3580 C   0  0  0  0  0  0  0  0  0  0  0  0
  140.5220   70.5750  227.3270 C   0  0  0  0  0  0  0  0  0  0  0  0
  139.9160   69.9010  226.2640 C   0  0  0  0  0  0  0  0  0  0  0  0
  139.3500   70.6050  225.2420 N   0  0  0  0  0  0  0  0  0  0  0  0
  143.5467   76.4208  220.8095 H   0  0  0  0  0  0  0  0  0  0  0  0
  143.8173   75.3048  219.4282 H   0  0  0  0  0  0  0  0  0  0  0  0
  144.5739   76.9340  219.4282 H   0  0  0  0  0  0  0  0  0  0  0  0
  143.5678   78.5052  218.0620 H   0  0  0  0  0  0  0  0  0  0  0  0
  143.5802   76.9411  217.1787 H   0  0  0  0  0  0  0  0  0  0  0  0
  142.1015   77.9608  217.1787 H   0  0  0  0  0  0  0  0  0  0  0  0
  141.2840   75.1168  219.3215 H   0  0  0  0  0  0  0  0  0  0  0  0
  140.8375   76.0707  217.8663 H   0  0  0  0  0  0  0  0  0  0  0  0
  142.3365   75.0809  217.8663 H   0  0  0  0  0  0  0  0  0  0  0  0
  142.0392   77.6348  220.8677 H   0  0  0  0  0  0  0  0  0  0  0  0
  142.5487   79.4718  219.1421 H   0  0  0  0  0  0  0  0  0  0  0  0
  140.6968   79.5306  219.3833 H   0  0  0  0  0  0  0  0  0  0  0  0
  142.5865   78.3213  222.0562 H   0  0  0  0  0  0  0  0  0  0  0  0
  142.8250   79.4519  224.2347 H   0  0  0  0  0  0  0  0  0  0  0  0
  141.3068   83.0640  222.4441 H   0  0  0  0  0  0  0  0  0  0  0  0
  141.0882   81.8849  220.2841 H   0  0  0  0  0  0  0  0  0  0  0  0
  139.7660   77.0840  218.8460 H   0  0  0  0  0  0  0  0  0  0  0  0
  138.0258   76.3152  219.7548 H   0  0  0  0  0  0  0  0  0  0  0  0
  137.5463   78.6547  221.3099 H   0  0  0  0  0  0  0  0  0  0  0  0
  136.4021   77.8962  220.1985 H   0  0  0  0  0  0  0  0  0  0  0  0
  136.6408   77.7001  223.1654 H   0  0  0  0  0  0  0  0  0  0  0  0
  136.2936   75.2769  223.2421 H   0  0  0  0  0  0  0  0  0  0  0  0
  135.5553   75.1974  221.6768 H   0  0  0  0  0  0  0  0  0  0  0  0
  136.8459   73.0882  222.0795 H   0  0  0  0  0  0  0  0  0  0  0  0
  138.2094   72.5631  220.9945 H   0  0  0  0  0  0  0  0  0  0  0  0
  139.1290   72.6550  223.7130 H   0  0  0  0  0  0  0  0  0  0  0  0
  138.2105   68.1458  223.2920 H   0  0  0  0  0  0  0  0  0  0  0  0
  139.2284   66.7715  225.1252 H   0  0  0  0  0  0  0  0  0  0  0  0
  140.4301   66.6783  227.2703 H   0  0  0  0  0  0  0  0  0  0  0  0
  141.5656   70.3887  229.1961 H   0  0  0  0  0  0  0  0  0  0  0  0
  140.5463   71.6746  227.3406 H   0  0  0  0  0  0  0  0  0  0  0  0
  1  2  1  0
  2  3  1  0
  2  4  1  0
  2  5  1  0
  5  6  1  0
  6  7  1  0
  7  8  2  0
  8  9  1  0
  9 10  2  0
 10 11  1  0
 10 12  1  0
 12 13  2  0
  5 14  1  0
 14 15  1  0
 15 16  2  0
 15 17  1  0
 17 18  1  0
 18 19  1  0
 19 20  1  0
 19 21  1  0
 21 22  1  0
 22 23  1  0
 23 24  2  0
 23 25  1  0
 25 26  1  0
 26 27  1  0
 27 28  2  0
 27 29  1  0
 29 30  2  0
 30 31  1  0
 31 32  2  0
 32 33  1  0
 33 34  2  0
 34 35  1  0
 34 36  1  0
 36 37  2  0
 37 38  1  0
 38 39  2  0
 13  7  1  0
 22 17  1  0
 39 29  1  0
 38 32  1  0
  1 40  1  0
  1 41  1  0
  1 42  1  0
  3 43  1  0
  3 44  1  0
  3 45  1  0
  4 46  1  0
  4 47  1  0
  4 48  1  0
  5 49  1  1
  6 50  1  0
  6 51  1  0
  8 52  1  0
  9 53  1  0
 12 54  1  0
 13 55  1  0
 14 56  1  0
 17 57  1  6
 18 58  1  0
 18 59  1  0
 19 60  1  1
 21 61  1  0
 21 62  1  0
 25 63  1  0
 25 64  1  0
 26 65  1  0
 30 66  1  0
 31 67  1  0
 33 68  1  0
 36 69  1  0
 37 70  1  0
M  END
>  <smiles>  (27) 
CC(C)(C)C(Cc1ccc(F)cc1)NC(=O)[C@@H]1C[C@@H](F)CN1C(=O)CNC(=O)c1ccc2cc(F)ccc2n1

>  <score_type>  (27) 
oracle

>  <origin>  (27) 
autodockgpu

>  <m_score__min__energy>  (27) 
-9.5999999999999996

>  <m_primary>  (27) 
energy

>  <meeko>  (27) 
{"free_energy": -8.78, "intermolecular_energy": -11.46, "internal_energy": -2.7, "cluster_size": 7, "cluster_id": 2, "rank_in_cluster": 3}

>  <energy>  (27) 
-8.78

>  <cluster_rmsd>  (27) 
1.13

>  <rmsd>  (27) 
270.97

>  <cluster>  (27) 
2

$$$$

     RDKit          3D

 70 73  0  0  1  0  0  0  0  0999 V2000
  142.0540   75.5300  218.0710 C   0  0  0  0  0  0  0  0  0  0  0  0
  141.3510   76.4760  219.0040 C   0  0  0  0  0  0  0  0  0  0  0  0
  141.6720   77.8890  218.5320 C   0  0  0  0  0  0  0  0  0  0  0  0
  139.8340   76.3250  218.7250 C   0  0  0  0  0  0  0  0  0  0  0  0
  141.6330   76.2760  220.4440 C   0  0  1  0  0  0  0  0  0  0  0  0
  140.8340   76.9650  221.4610 C   0  0  0  0  0  0  0  0  0  0  0  0
  141.3820   78.1730  222.0890 C   0  0  0  0  0  0  0  0  0  0  0  0
  141.4390   78.2340  223.4630 C   0  0  0  0  0  0  0  0  0  0  0  0
  141.9000   79.3360  224.1620 C   0  0  0  0  0  0  0  0  0  0  0  0
  142.3270   80.4380  223.4540 C   0  0  0  0  0  0  0  0  0  0  0  0
  142.7840   81.5330  224.1230 F   0  0  0  0  0  0  0  0  0  0  0  0
  142.2890   80.4180  222.0650 C   0  0  0  0  0  0  0  0  0  0  0  0
  141.8190   79.2900  221.4100 C   0  0  0  0  0  0  0  0  0  0  0  0
  141.7520   74.8240  220.7310 N   0  0  0  0  0  0  0  0  0  0  0  0
  143.0300   74.1790  220.5370 C   0  0  0  0  0  0  0  0  0  0  0  0
  144.0300   74.8110  220.1310 O   0  0  0  0  0  0  0  0  0  0  0  0
  143.0520   72.7180  220.8550 C   0  0  2  0  0  0  0  0  0  0  0  0
  144.3720   72.1050  220.5690 C   0  0  0  0  0  0  0  0  0  0  0  0
  144.1130   71.0940  219.4770 C   0  0  1  0  0  0  0  0  0  0  0  0
  144.8400   69.9320  219.6260 F   0  0  0  0  0  0  0  0  0  0  0  0
  142.6580   70.7030  219.6160 C   0  0  0  0  0  0  0  0  0  0  0  0
  142.1050   71.9460  220.1060 N   0  0  0  0  0  0  0  0  0  0  0  0
  140.7340   72.3130  219.8490 C   0  0  0  0  0  0  0  0  0  0  0  0
  140.4310   73.3270  219.1660 O   0  0  0  0  0  0  0  0  0  0  0  0
  139.5980   71.5070  220.3760 C   0  0  0  0  0  0  0  0  0  0  0  0
  139.8560   70.9840  221.6810 N   0  0  0  0  0  0  0  0  0  0  0  0
  140.0910   71.8070  222.7950 C   0  0  0  0  0  0  0  0  0  0  0  0
  140.0760   73.0670  222.6670 O   0  0  0  0  0  0  0  0  0  0  0  0
  140.3510   71.2370  224.1150 C   0  0  0  0  0  0  0  0  0  0  0  0
  140.7550   72.0510  225.1740 C   0  0  0  0  0  0  0  0  0  0  0  0
  140.9780   71.5070  226.4480 C   0  0  0  0  0  0  0  0  0  0  0  0
  140.7920   70.1460  226.6380 C   0  0  0  0  0  0  0  0  0  0  0  0
  141.0110   69.5610  227.8970 C   0  0  0  0  0  0  0  0  0  0  0  0
  140.8140   68.1780  228.0470 C   0  0  0  0  0  0  0  0  0  0  0  0
  141.0270   67.6210  229.2670 F   0  0  0  0  0  0  0  0  0  0  0  0
  140.4120   67.4000  226.9650 C   0  0  0  0  0  0  0  0  0  0  0  0
  140.2000   67.9800  225.7350 C   0  0  0  0  0  0  0  0  0  0  0  0
  140.3910   69.3540  225.5720 C   0  0  0  0  0  0  0  0  0  0  0  0
  140.1860   69.9330  224.3530 N   0  0  0  0  0  0  0  0  0  0  0  0
  142.6094   74.7826  218.6566 H   0  0  0  0  0  0  0  0  0  0  0  0
  141.3126   75.0219  217.4368 H   0  0  0  0  0  0  0  0  0  0  0  0
  142.7544   76.0933  217.4368 H   0  0  0  0  0  0  0  0  0  0  0  0
  141.8204   78.5422  219.4045 H   0  0  0  0  0  0  0  0  0  0  0  0
  142.5895   77.8734  217.9254 H   0  0  0  0  0  0  0  0  0  0  0  0
  140.8378   78.2713  217.9254 H   0  0  0  0  0  0  0  0  0  0  0  0
  139.2893   76.2708  219.6791 H   0  0  0  0  0  0  0  0  0  0  0  0
  139.4790   77.1922  218.1489 H   0  0  0  0  0  0  0  0  0  0  0  0
  139.6569   75.4048  218.1489 H   0  0  0  0  0  0  0  0  0  0  0  0
  142.5833   76.8162  220.5673 H   0  0  0  0  0  0  0  0  0  0  0  0
  139.8828   77.2494  220.9874 H   0  0  0  0  0  0  0  0  0  0  0  0
  140.7702   76.2406  222.2863 H   0  0  0  0  0  0  0  0  0  0  0  0
  141.0996   77.3590  224.0368 H   0  0  0  0  0  0  0  0  0  0  0  0
  141.9250   79.3320  225.2617 H   0  0  0  0  0  0  0  0  0  0  0  0
  142.6295   81.2912  221.4891 H   0  0  0  0  0  0  0  0  0  0  0  0
  141.7940   79.2864  220.3103 H   0  0  0  0  0  0  0  0  0  0  0  0
  140.9240   74.2780  221.0710 H   0  0  0  0  0  0  0  0  0  0  0  0
  142.8045   72.6891  221.9264 H   0  0  0  0  0  0  0  0  0  0  0  0
  145.0854   72.8687  220.2258 H   0  0  0  0  0  0  0  0  0  0  0  0
  144.8107   71.6393  221.4638 H   0  0  0  0  0  0  0  0  0  0  0  0
  144.3878   71.5455  218.5123 H   0  0  0  0  0  0  0  0  0  0  0  0
  142.2194   70.4149  218.6492 H   0  0  0  0  0  0  0  0  0  0  0  0
  142.4741   69.8304  220.2600 H   0  0  0  0  0  0  0  0  0  0  0  0
  138.7039   72.1461  220.4227 H   0  0  0  0  0  0  0  0  0  0  0  0
  139.4508   70.6538  219.6975 H   0  0  0  0  0  0  0  0  0  0  0  0
  139.8620   69.9250  221.8190 H   0  0  0  0  0  0  0  0  0  0  0  0
  140.9000   73.1288  225.0085 H   0  0  0  0  0  0  0  0  0  0  0  0
  141.2952   72.1497  227.2825 H   0  0  0  0  0  0  0  0  0  0  0  0
  141.3314   70.1759  228.7510 H   0  0  0  0  0  0  0  0  0  0  0  0
  140.2632   66.3177  227.0935 H   0  0  0  0  0  0  0  0  0  0  0  0
  139.8808   67.3629  224.8822 H   0  0  0  0  0  0  0  0  0  0  0  0
  1  2  1  0
  2  3  1  0
  2  4  1  0
  2  5  1  0
  5  6  1  0
  6  7  1  0
  7  8  2  0
  8  9  1  0
  9 10  2  0
 10 11  1  0
 10 12  1  0
 12 13  2  0
  5 14  1  0
 14 15  1  0
 15 16  2  0
 15 17  1  0
 17 18  1  0
 18 19  1  0
 19 20  1  0
 19 21  1  0
 21 22  1  0
 22 23  1  0
 23 24  2  0
 23 25  1  0
 25 26  1  0
 26 27  1  0
 27 28  2  0
 27 29  1  0
 29 30  2  0
 30 31  1  0
 31 32  2  0
 32 33  1  0
 33 34  2  0
 34 35  1  0
 34 36  1  0
 36 37  2  0
 37 38  1  0
 38 39  2  0
 13  7  1  0
 22 17  1  0
 39 29  1  0
 38 32  1  0
  1 40  1  0
  1 41  1  0
  1 42  1  0
  3 43  1  0
  3 44  1  0
  3 45  1  0
  4 46  1  0
  4 47  1  0
  4 48  1  0
  5 49  1  6
  6 50  1  0
  6 51  1  0
  8 52  1  0
  9 53  1  0
 12 54  1  0
 13 55  1  0
 14 56  1  0
 17 57  1  1
 18 58  1  0
 18 59  1  0
 19 60  1  6
 21 61  1  0
 21 62  1  0
 25 63  1  0
 25 64  1  0
 26 65  1  0
 30 66  1  0
 31 67  1  0
 33 68  1  0
 36 69  1  0
 37 70  1  0
M  END
>  <smiles>  (28) 
CC(C)(C)C(Cc1ccc(F)cc1)NC(=O)[C@@H]1C[C@@H](F)CN1C(=O)CNC(=O)c1ccc2cc(F)ccc2n1

>  <score_type>  (28) 
oracle

>  <origin>  (28) 
autodockgpu

>  <m_score__min__energy>  (28) 
-9.5999999999999996

>  <m_primary>  (28) 
energy

>  <meeko>  (28) 
{"free_energy": -8.42, "intermolecular_energy": -11.11, "internal_energy": -3.89, "cluster_size": 1, "cluster_id": 5, "rank_in_cluster": 1}

>  <energy>  (28) 
-8.56

>  <cluster_rmsd>  (28) 
1.36

>  <rmsd>  (28) 
270.61

>  <cluster>  (28) 
2

$$$$

     RDKit          3D

 70 73  0  0  1  0  0  0  0  0999 V2000
  139.0970   75.0430  219.5860 C   0  0  0  0  0  0  0  0  0  0  0  0
  139.4150   76.0450  220.6600 C   0  0  0  0  0  0  0  0  0  0  0  0
  139.4760   77.4130  219.9910 C   0  0  0  0  0  0  0  0  0  0  0  0
  138.1620   76.1310  221.5690 C   0  0  0  0  0  0  0  0  0  0  0  0
  140.6200   75.7500  221.4700 C   0  0  1  0  0  0  0  0  0  0  0  0
  141.4120   74.5450  221.2120 C   0  0  0  0  0  0  0  0  0  0  0  0
  140.8260   73.2360  221.5270 C   0  0  0  0  0  0  0  0  0  0  0  0
  141.2110   72.1460  220.7790 C   0  0  0  0  0  0  0  0  0  0  0  0
  140.6970   70.8730  220.9620 C   0  0  0  0  0  0  0  0  0  0  0  0
  139.7490   70.6760  221.9420 C   0  0  0  0  0  0  0  0  0  0  0  0
  139.2300   69.4330  222.1370 F   0  0  0  0  0  0  0  0  0  0  0  0
  139.3340   71.7500  222.7200 C   0  0  0  0  0  0  0  0  0  0  0  0
  139.8780   73.0060  222.4990 C   0  0  0  0  0  0  0  0  0  0  0  0
  141.4740   76.9620  221.5500 N   0  0  0  0  0  0  0  0  0  0  0  0
  141.0730   78.0410  222.4220 C   0  0  0  0  0  0  0  0  0  0  0  0
  140.0250   77.9800  223.1030 O   0  0  0  0  0  0  0  0  0  0  0  0
  141.9980   79.2150  222.4380 C   0  0  2  0  0  0  0  0  0  0  0  0
  142.2500   79.7080  223.8130 C   0  0  0  0  0  0  0  0  0  0  0  0
  141.6860   81.1090  223.8440 C   0  0  1  0  0  0  0  0  0  0  0  0
  142.4550   81.9910  224.5710 F   0  0  0  0  0  0  0  0  0  0  0  0
  141.7210   81.5970  222.4120 C   0  0  0  0  0  0  0  0  0  0  0  0
  141.5090   80.3490  221.7120 N   0  0  0  0  0  0  0  0  0  0  0  0
  140.8780   80.3120  220.4150 C   0  0  0  0  0  0  0  0  0  0  0  0
  139.6490   80.5400  220.2630 O   0  0  0  0  0  0  0  0  0  0  0  0
  141.6510   80.0040  219.1800 C   0  0  0  0  0  0  0  0  0  0  0  0
  142.2630   78.7130  219.2230 N   0  0  0  0  0  0  0  0  0  0  0  0
  142.0820   77.7550  218.2110 C   0  0  0  0  0  0  0  0  0  0  0  0
  141.3550   78.0200  217.2080 O   0  0  0  0  0  0  0  0  0  0  0  0
  142.7240   76.4440  218.2880 C   0  0  0  0  0  0  0  0  0  0  0  0
  142.6150   75.5370  217.2330 C   0  0  0  0  0  0  0  0  0  0  0  0
  143.2540   74.2900  217.2950 C   0  0  0  0  0  0  0  0  0  0  0  0
  143.9960   73.9710  218.4240 C   0  0  0  0  0  0  0  0  0  0  0  0
  144.6460   72.7310  218.5290 C   0  0  0  0  0  0  0  0  0  0  0  0
  145.3850   72.4470  219.6890 C   0  0  0  0  0  0  0  0  0  0  0  0
  146.0110   71.2450  219.7820 F   0  0  0  0  0  0  0  0  0  0  0  0
  145.4690   73.3780  220.7190 C   0  0  0  0  0  0  0  0  0  0  0  0
  144.8280   74.5920  220.6100 C   0  0  0  0  0  0  0  0  0  0  0  0
  144.0910   74.8880  219.4610 C   0  0  0  0  0  0  0  0  0  0  0  0
  143.4510   76.0880  219.3500 N   0  0  0  0  0  0  0  0  0  0  0  0
  138.7952   74.0921  220.0494 H   0  0  0  0  0  0  0  0  0  0  0  0
  138.2754   75.4234  218.9612 H   0  0  0  0  0  0  0  0  0  0  0  0
  139.9876   74.8801  218.9612 H   0  0  0  0  0  0  0  0  0  0  0  0
  139.5110   78.1969  220.7619 H   0  0  0  0  0  0  0  0  0  0  0  0
  140.3778   77.4747  219.3641 H   0  0  0  0  0  0  0  0  0  0  0  0
  138.5833   77.5547  219.3641 H   0  0  0  0  0  0  0  0  0  0  0  0
  138.4723   76.1097  222.6241 H   0  0  0  0  0  0  0  0  0  0  0  0
  137.6239   77.0682  221.3639 H   0  0  0  0  0  0  0  0  0  0  0  0
  137.5009   75.2761  221.3639 H   0  0  0  0  0  0  0  0  0  0  0  0
  140.1816   75.4706  222.4394 H   0  0  0  0  0  0  0  0  0  0  0  0
  141.6558   74.5411  220.1394 H   0  0  0  0  0  0  0  0  0  0  0  0
  142.2626   74.6308  221.9043 H   0  0  0  0  0  0  0  0  0  0  0  0
  141.9673   72.2942  219.9941 H   0  0  0  0  0  0  0  0  0  0  0  0
  141.0392   70.0352  220.3368 H   0  0  0  0  0  0  0  0  0  0  0  0
  138.5786   71.6046  223.5063 H   0  0  0  0  0  0  0  0  0  0  0  0
  139.5407   73.8478  223.1216 H   0  0  0  0  0  0  0  0  0  0  0  0
  142.3560   77.0310  220.9850 H   0  0  0  0  0  0  0  0  0  0  0  0
  142.9105   78.8238  221.9644 H   0  0  0  0  0  0  0  0  0  0  0  0
  141.7397   79.0709  224.5503 H   0  0  0  0  0  0  0  0  0  0  0  0
  143.3207   79.6914  224.0647 H   0  0  0  0  0  0  0  0  0  0  0  0
  140.6872   81.0721  224.3034 H   0  0  0  0  0  0  0  0  0  0  0  0
  140.9176   82.3202  222.2081 H   0  0  0  0  0  0  0  0  0  0  0  0
  142.6381   82.1348  222.1297 H   0  0  0  0  0  0  0  0  0  0  0  0
  140.9683   80.0419  218.3183 H   0  0  0  0  0  0  0  0  0  0  0  0
  142.4539   80.7510  219.0942 H   0  0  0  0  0  0  0  0  0  0  0  0
  142.8900   78.4680  220.0520 H   0  0  0  0  0  0  0  0  0  0  0  0
  142.0227   75.8024  216.3449 H   0  0  0  0  0  0  0  0  0  0  0  0
  143.1685   73.5763  216.4624 H   0  0  0  0  0  0  0  0  0  0  0  0
  144.5775   71.9936  217.7156 H   0  0  0  0  0  0  0  0  0  0  0  0
  146.0493   73.1438  221.6236 H   0  0  0  0  0  0  0  0  0  0  0  0
  144.8962   75.3267  221.4258 H   0  0  0  0  0  0  0  0  0  0  0  0
  1  2  1  0
  2  3  1  0
  2  4  1  0
  2  5  1  0
  5  6  1  0
  6  7  1  0
  7  8  2  0
  8  9  1  0
  9 10  2  0
 10 11  1  0
 10 12  1  0
 12 13  2  0
  5 14  1  0
 14 15  1  0
 15 16  2  0
 15 17  1  0
 17 18  1  0
 18 19  1  0
 19 20  1  0
 19 21  1  0
 21 22  1  0
 22 23  1  0
 23 24  2  0
 23 25  1  0
 25 26  1  0
 26 27  1  0
 27 28  2  0
 27 29  1  0
 29 30  2  0
 30 31  1  0
 31 32  2  0
 32 33  1  0
 33 34  2  0
 34 35  1  0
 34 36  1  0
 36 37  2  0
 37 38  1  0
 38 39  2  0
 13  7  1  0
 22 17  1  0
 39 29  1  0
 38 32  1  0
  1 40  1  0
  1 41  1  0
  1 42  1  0
  3 43  1  0
  3 44  1  0
  3 45  1  0
  4 46  1  0
  4 47  1  0
  4 48  1  0
  5 49  1  1
  6 50  1  0
  6 51  1  0
  8 52  1  0
  9 53  1  0
 12 54  1  0
 13 55  1  0
 14 56  1  0
 17 57  1  6
 18 58  1  0
 18 59  1  0
 19 60  1  1
 21 61  1  0
 21 62  1  0
 25 63  1  0
 25 64  1  0
 26 65  1  0
 30 66  1  0
 31 67  1  0
 33 68  1  0
 36 69  1  0
 37 70  1  0
M  END
>  <smiles>  (29) 
CC(C)(C)C(Cc1ccc(F)cc1)NC(=O)[C@@H]1C[C@@H](F)CN1C(=O)CNC(=O)c1ccc2cc(F)ccc2n1

>  <score_type>  (29) 
oracle

>  <origin>  (29) 
autodockgpu

>  <m_score__min__energy>  (29) 
-9.5999999999999996

>  <m_primary>  (29) 
energy

>  <meeko>  (29) 
{"free_energy": -6.77, "intermolecular_energy": -9.45, "internal_energy": -4.82, "cluster_size": 1, "cluster_id": 9, "rank_in_cluster": 1}

>  <energy>  (29) 
-8.18

>  <cluster_rmsd>  (29) 
1.79

>  <rmsd>  (29) 
270.71

>  <cluster>  (29) 
2

$$$$

     RDKit          3D

 70 73  0  0  1  0  0  0  0  0999 V2000
  142.7150   74.2290  220.5400 C   0  0  0  0  0  0  0  0  0  0  0  0
  142.1640   75.4760  219.9060 C   0  0  0  0  0  0  0  0  0  0  0  0
  143.3400   76.4170  219.6750 C   0  0  0  0  0  0  0  0  0  0  0  0
  141.7150   75.0820  218.4760 C   0  0  0  0  0  0  0  0  0  0  0  0
  141.0490   76.1210  220.6370 C   0  0  1  0  0  0  0  0  0  0  0  0
  140.8280   77.5650  220.5300 C   0  0  0  0  0  0  0  0  0  0  0  0
  141.3050   78.4330  221.6140 C   0  0  0  0  0  0  0  0  0  0  0  0
  141.8580   79.6510  221.2870 C   0  0  0  0  0  0  0  0  0  0  0  0
  142.3750   80.5330  222.2220 C   0  0  0  0  0  0  0  0  0  0  0  0
  142.3390   80.1810  223.5540 C   0  0  0  0  0  0  0  0  0  0  0  0
  142.8420   81.0340  224.4880 F   0  0  0  0  0  0  0  0  0  0  0  0
  141.7880   78.9620  223.9260 C   0  0  0  0  0  0  0  0  0  0  0  0
  141.2820   78.1120  222.9540 C   0  0  0  0  0  0  0  0  0  0  0  0
  139.7960   75.3560  220.4100 N   0  0  0  0  0  0  0  0  0  0  0  0
  139.0000   74.9700  221.5510 C   0  0  0  0  0  0  0  0  0  0  0  0
  139.3420   75.2590  222.7190 O   0  0  0  0  0  0  0  0  0  0  0  0
  137.7560   74.2070  221.2220 C   0  0  2  0  0  0  0  0  0  0  0  0
  136.8280   74.1310  222.3750 C   0  0  0  0  0  0  0  0  0  0  0  0
  136.7340   72.6630  222.7150 C   0  0  1  0  0  0  0  0  0  0  0  0
  135.4660   72.2660  223.0790 F   0  0  0  0  0  0  0  0  0  0  0  0
  137.0580   71.9230  221.4350 C   0  0  0  0  0  0  0  0  0  0  0  0
  137.9940   72.8480  220.8360 N   0  0  0  0  0  0  0  0  0  0  0  0
  139.0310   72.3950  219.9400 C   0  0  0  0  0  0  0  0  0  0  0  0
  139.4090   73.0820  218.9550 O   0  0  0  0  0  0  0  0  0  0  0  0
  139.7150   71.0880  220.1360 C   0  0  0  0  0  0  0  0  0  0  0  0
  139.7820   70.7040  221.5120 N   0  0  0  0  0  0  0  0  0  0  0  0
  140.2740   71.5580  222.5130 C   0  0  0  0  0  0  0  0  0  0  0  0
  140.6780   72.7210  222.2140 O   0  0  0  0  0  0  0  0  0  0  0  0
  140.3270   71.1330  223.9100 C   0  0  0  0  0  0  0  0  0  0  0  0
  140.7010   72.0290  224.9120 C   0  0  0  0  0  0  0  0  0  0  0  0
  140.7260   71.6290  226.2560 C   0  0  0  0  0  0  0  0  0  0  0  0
  140.3740   70.3250  226.5740 C   0  0  0  0  0  0  0  0  0  0  0  0
  140.3920   69.8820  227.9070 C   0  0  0  0  0  0  0  0  0  0  0  0
  140.0300   68.5540  228.1860 C   0  0  0  0  0  0  0  0  0  0  0  0
  140.0490   68.1340  229.4780 F   0  0  0  0  0  0  0  0  0  0  0  0
  139.6640   67.6900  227.1580 C   0  0  0  0  0  0  0  0  0  0  0  0
  139.6490   68.1310  225.8540 C   0  0  0  0  0  0  0  0  0  0  0  0
  140.0050   69.4500  225.5620 C   0  0  0  0  0  0  0  0  0  0  0  0
  139.9960   69.8910  224.2710 N   0  0  0  0  0  0  0  0  0  0  0  0
  142.6726   74.3249  221.6350 H   0  0  0  0  0  0  0  0  0  0  0  0
  142.1162   73.3619  220.2244 H   0  0  0  0  0  0  0  0  0  0  0  0
  143.7593   74.0879  220.2244 H   0  0  0  0  0  0  0  0  0  0  0  0
  143.7457   76.7417  220.6445 H   0  0  0  0  0  0  0  0  0  0  0  0
  144.1227   75.8930  219.1069 H   0  0  0  0  0  0  0  0  0  0  0  0
  143.0005   77.2956  219.1069 H   0  0  0  0  0  0  0  0  0  0  0  0
  140.8895   74.3576  218.5374 H   0  0  0  0  0  0  0  0  0  0  0  0
  141.3760   75.9795  217.9378 H   0  0  0  0  0  0  0  0  0  0  0  0
  142.5608   74.6293  217.9378 H   0  0  0  0  0  0  0  0  0  0  0  0
  141.3987   76.0698  221.6787 H   0  0  0  0  0  0  0  0  0  0  0  0
  141.3210   77.9005  219.6057 H   0  0  0  0  0  0  0  0  0  0  0  0
  139.7337   77.6712  220.5643 H   0  0  0  0  0  0  0  0  0  0  0  0
  141.8911   79.9393  220.2260 H   0  0  0  0  0  0  0  0  0  0  0  0
  142.8056   81.4951  221.9075 H   0  0  0  0  0  0  0  0  0  0  0  0
  141.7530   78.6719  224.9865 H   0  0  0  0  0  0  0  0  0  0  0  0
  140.8479   77.1496  223.2629 H   0  0  0  0  0  0  0  0  0  0  0  0
  139.4940   75.1040  219.4370 H   0  0  0  0  0  0  0  0  0  0  0  0
  137.3273   74.7723  220.3814 H   0  0  0  0  0  0  0  0  0  0  0  0
  137.2265   74.6993  223.2284 H   0  0  0  0  0  0  0  0  0  0  0  0
  135.8436   74.5608  222.1380 H   0  0  0  0  0  0  0  0  0  0  0  0
  137.4084   72.4586  223.5596 H   0  0  0  0  0  0  0  0  0  0  0  0
  137.5221   70.9460  221.6353 H   0  0  0  0  0  0  0  0  0  0  0  0
  136.1867   71.6780  220.8099 H   0  0  0  0  0  0  0  0  0  0  0  0
  139.1636   70.3149  219.5808 H   0  0  0  0  0  0  0  0  0  0  0  0
  140.7465   71.1930  219.7685 H   0  0  0  0  0  0  0  0  0  0  0  0
  139.4360   69.7340  221.7930 H   0  0  0  0  0  0  0  0  0  0  0  0
  140.9790   73.0593  224.6452 H   0  0  0  0  0  0  0  0  0  0  0  0
  141.0197   72.3371  227.0448 H   0  0  0  0  0  0  0  0  0  0  0  0
  140.6848   70.5640  228.7189 H   0  0  0  0  0  0  0  0  0  0  0  0
  139.3857   66.6510  227.3884 H   0  0  0  0  0  0  0  0  0  0  0  0
  139.3574   67.4464  225.0439 H   0  0  0  0  0  0  0  0  0  0  0  0
  1  2  1  0
  2  3  1  0
  2  4  1  0
  2  5  1  0
  5  6  1  0
  6  7  1  0
  7  8  2  0
  8  9  1  0
  9 10  2  0
 10 11  1  0
 10 12  1  0
 12 13  2  0
  5 14  1  0
 14 15  1  0
 15 16  2  0
 15 17  1  0
 17 18  1  0
 18 19  1  0
 19 20  1  0
 19 21  1  0
 21 22  1  0
 22 23  1  0
 23 24  2  0
 23 25  1  0
 25 26  1  0
 26 27  1  0
 27 28  2  0
 27 29  1  0
 29 30  2  0
 30 31  1  0
 31 32  2  0
 32 33  1  0
 33 34  2  0
 34 35  1  0
 34 36  1  0
 36 37  2  0
 37 38  1  0
 38 39  2  0
 13  7  1  0
 22 17  1  0
 39 29  1  0
 38 32  1  0
  1 40  1  0
  1 41  1  0
  1 42  1  0
  3 43  1  0
  3 44  1  0
  3 45  1  0
  4 46  1  0
  4 47  1  0
  4 48  1  0
  5 49  1  1
  6 50  1  0
  6 51  1  0
  8 52  1  0
  9 53  1  0
 12 54  1  0
 13 55  1  0
 14 56  1  0
 17 57  1  6
 18 58  1  0
 18 59  1  0
 19 60  1  1
 21 61  1  0
 21 62  1  0
 25 63  1  0
 25 64  1  0
 26 65  1  0
 30 66  1  0
 31 67  1  0
 33 68  1  0
 36 69  1  0
 37 70  1  0
M  END
>  <smiles>  (30) 
CC(C)(C)C(Cc1ccc(F)cc1)NC(=O)[C@@H]1C[C@@H](F)CN1C(=O)CNC(=O)c1ccc2cc(F)ccc2n1

>  <score_type>  (30) 
oracle

>  <origin>  (30) 
autodockgpu

>  <m_score__min__energy>  (30) 
-9.5999999999999996

>  <m_primary>  (30) 
energy

>  <meeko>  (30) 
{"free_energy": -8.16, "intermolecular_energy": -10.84, "internal_energy": -4.06, "cluster_size": 7, "cluster_id": 2, "rank_in_cluster": 6}

>  <energy>  (30) 
-8.16

>  <cluster_rmsd>  (30) 
1.58

>  <rmsd>  (30) 
270.7

>  <cluster>  (30) 
2

$$$$

     RDKit          3D

 70 73  0  0  1  0  0  0  0  0999 V2000
  143.0750   77.5120  215.0720 C   0  0  0  0  0  0  0  0  0  0  0  0
  143.0950   76.3180  215.9840 C   0  0  0  0  0  0  0  0  0  0  0  0
  142.2250   75.2470  215.3370 C   0  0  0  0  0  0  0  0  0  0  0  0
  144.5270   75.7300  215.9100 C   0  0  0  0  0  0  0  0  0  0  0  0
  142.7200   76.5860  217.3920 C   0  0  1  0  0  0  0  0  0  0  0  0
  141.4060   77.1440  217.7180 C   0  0  0  0  0  0  0  0  0  0  0  0
  141.3400   78.3820  218.5040 C   0  0  0  0  0  0  0  0  0  0  0  0
  140.1880   78.6570  219.2050 C   0  0  0  0  0  0  0  0  0  0  0  0
  140.0010   79.8110  219.9480 C   0  0  0  0  0  0  0  0  0  0  0  0
  141.0170   80.7410  219.9940 C   0  0  0  0  0  0  0  0  0  0  0  0
  140.8520   81.8820  220.7170 F   0  0  0  0  0  0  0  0  0  0  0  0
  142.1970   80.5010  219.3010 C   0  0  0  0  0  0  0  0  0  0  0  0
  142.3370   79.3310  218.5710 C   0  0  0  0  0  0  0  0  0  0  0  0
  143.0350   75.3980  218.2250 N   0  0  0  0  0  0  0  0  0  0  0  0
  143.5020   75.6000  219.5770 C   0  0  0  0  0  0  0  0  0  0  0  0
  143.6510   76.7460  220.0560 O   0  0  0  0  0  0  0  0  0  0  0  0
  143.7890   74.3450  220.3380 C   0  0  2  0  0  0  0  0  0  0  0  0
  145.2380   74.0380  220.3810 C   0  0  0  0  0  0  0  0  0  0  0  0
  145.3890   72.7280  219.6430 C   0  0  1  0  0  0  0  0  0  0  0  0
  146.3160   71.8840  220.2140 F   0  0  0  0  0  0  0  0  0  0  0  0
  144.0510   72.0320  219.7640 C   0  0  0  0  0  0  0  0  0  0  0  0
  143.1690   73.1780  219.7870 N   0  0  0  0  0  0  0  0  0  0  0  0
  141.8120   73.0920  219.3040 C   0  0  0  0  0  0  0  0  0  0  0  0
  141.5400   72.6670  218.1500 O   0  0  0  0  0  0  0  0  0  0  0  0
  140.6550   73.4990  220.1480 C   0  0  0  0  0  0  0  0  0  0  0  0
  140.7830   74.8330  220.6470 N   0  0  0  0  0  0  0  0  0  0  0  0
  140.0470   75.3040  221.7470 C   0  0  0  0  0  0  0  0  0  0  0  0
  139.2340   74.5360  222.3420 O   0  0  0  0  0  0  0  0  0  0  0  0
  140.2040   76.6740  222.2310 C   0  0  0  0  0  0  0  0  0  0  0  0
  139.1070   77.3870  222.7130 C   0  0  0  0  0  0  0  0  0  0  0  0
  139.2620   78.6930  223.2020 C   0  0  0  0  0  0  0  0  0  0  0  0
  140.5260   79.2650  223.1980 C   0  0  0  0  0  0  0  0  0  0  0  0
  140.7240   80.5720  223.6730 C   0  0  0  0  0  0  0  0  0  0  0  0
  142.0190   81.1140  223.6500 C   0  0  0  0  0  0  0  0  0  0  0  0
  142.2020   82.3780  224.1120 F   0  0  0  0  0  0  0  0  0  0  0  0
  143.0890   80.3710  223.1600 C   0  0  0  0  0  0  0  0  0  0  0  0
  142.8880   79.0910  222.6950 C   0  0  0  0  0  0  0  0  0  0  0  0
  141.6050   78.5380  222.7140 C   0  0  0  0  0  0  0  0  0  0  0  0
  141.3990   77.2710  222.2510 N   0  0  0  0  0  0  0  0  0  0  0  0
  143.0596   78.4327  215.6737 H   0  0  0  0  0  0  0  0  0  0  0  0
  143.9734   77.5037  214.4373 H   0  0  0  0  0  0  0  0  0  0  0  0
  142.1774   77.4736  214.4373 H   0  0  0  0  0  0  0  0  0  0  0  0
  141.7381   74.6476  216.1203 H   0  0  0  0  0  0  0  0  0  0  0  0
  141.4574   75.7265  214.7118 H   0  0  0  0  0  0  0  0  0  0  0  0
  142.8516   74.5939  214.7118 H   0  0  0  0  0  0  0  0  0  0  0  0
  144.9116   75.5721  216.9284 H   0  0  0  0  0  0  0  0  0  0  0  0
  144.5017   74.7695  215.3745 H   0  0  0  0  0  0  0  0  0  0  0  0
  145.1840   76.4311  215.3745 H   0  0  0  0  0  0  0  0  0  0  0  0
  143.3471   77.4568  217.6339 H   0  0  0  0  0  0  0  0  0  0  0  0
  140.8914   77.3378  216.7653 H   0  0  0  0  0  0  0  0  0  0  0  0
  140.9503   76.3874  218.3736 H   0  0  0  0  0  0  0  0  0  0  0  0
  139.3716   77.9205  219.1736 H   0  0  0  0  0  0  0  0  0  0  0  0
  139.0597   79.9818  220.4909 H   0  0  0  0  0  0  0  0  0  0  0  0
  143.0155   81.2353  219.3314 H   0  0  0  0  0  0  0  0  0  0  0  0
  143.2762   79.1539  218.0265 H   0  0  0  0  0  0  0  0  0  0  0  0
  142.9170   74.4300  217.8400 H   0  0  0  0  0  0  0  0  0  0  0  0
  143.3811   74.5566  221.3374 H   0  0  0  0  0  0  0  0  0  0  0  0
  145.8149   74.8304  219.8818 H   0  0  0  0  0  0  0  0  0  0  0  0
  145.6136   73.9735  221.4129 H   0  0  0  0  0  0  0  0  0  0  0  0
  145.7147   72.9433  218.6146 H   0  0  0  0  0  0  0  0  0  0  0  0
  143.8507   71.3807  218.9004 H   0  0  0  0  0  0  0  0  0  0  0  0
  143.9568   71.3592  220.6292 H   0  0  0  0  0  0  0  0  0  0  0  0
  139.7380   73.4349  219.5439 H   0  0  0  0  0  0  0  0  0  0  0  0
  140.6178   72.8208  221.0133 H   0  0  0  0  0  0  0  0  0  0  0  0
  141.4710   75.4970  220.1710 H   0  0  0  0  0  0  0  0  0  0  0  0
  138.1105   76.9212  222.7099 H   0  0  0  0  0  0  0  0  0  0  0  0
  138.3956   79.2541  223.5823 H   0  0  0  0  0  0  0  0  0  0  0  0
  139.8782   81.1613  224.0568 H   0  0  0  0  0  0  0  0  0  0  0  0
  144.0984   80.8079  223.1443 H   0  0  0  0  0  0  0  0  0  0  0  0
  143.7353   78.5050  222.3095 H   0  0  0  0  0  0  0  0  0  0  0  0
  1  2  1  0
  2  3  1  0
  2  4  1  0
  2  5  1  0
  5  6  1  0
  6  7  1  0
  7  8  2  0
  8  9  1  0
  9 10  2  0
 10 11  1  0
 10 12  1  0
 12 13  2  0
  5 14  1  0
 14 15  1  0
 15 16  2  0
 15 17  1  0
 17 18  1  0
 18 19  1  0
 19 20  1  0
 19 21  1  0
 21 22  1  0
 22 23  1  0
 23 24  2  0
 23 25  1  0
 25 26  1  0
 26 27  1  0
 27 28  2  0
 27 29  1  0
 29 30  2  0
 30 31  1  0
 31 32  2  0
 32 33  1  0
 33 34  2  0
 34 35  1  0
 34 36  1  0
 36 37  2  0
 37 38  1  0
 38 39  2  0
 13  7  1  0
 22 17  1  0
 39 29  1  0
 38 32  1  0
  1 40  1  0
  1 41  1  0
  1 42  1  0
  3 43  1  0
  3 44  1  0
  3 45  1  0
  4 46  1  0
  4 47  1  0
  4 48  1  0
  5 49  1  1
  6 50  1  0
  6 51  1  0
  8 52  1  0
  9 53  1  0
 12 54  1  0
 13 55  1  0
 14 56  1  0
 17 57  1  1
 18 58  1  0
 18 59  1  0
 19 60  1  6
 21 61  1  0
 21 62  1  0
 25 63  1  0
 25 64  1  0
 26 65  1  0
 30 66  1  0
 31 67  1  0
 33 68  1  0
 36 69  1  0
 37 70  1  0
M  END
>  <smiles>  (31) 
CC(C)(C)C(Cc1ccc(F)cc1)NC(=O)[C@@H]1C[C@@H](F)CN1C(=O)CNC(=O)c1ccc2cc(F)ccc2n1

>  <score_type>  (31) 
oracle

>  <origin>  (31) 
autodockgpu

>  <m_score__min__energy>  (31) 
-9.5999999999999996

>  <m_primary>  (31) 
energy

>  <meeko>  (31) 
{"free_energy": -6.25, "intermolecular_energy": -8.94, "internal_energy": -5.31, "cluster_size": 3, "cluster_id": 8, "rank_in_cluster": 2}

>  <energy>  (31) 
-7.64

>  <cluster_rmsd>  (31) 
1.68

>  <rmsd>  (31) 
270.52

>  <cluster>  (31) 
2

$$$$

     RDKit          3D

 70 73  0  0  1  0  0  0  0  0999 V2000
  142.5150   74.9040  220.4700 C   0  0  0  0  0  0  0  0  0  0  0  0
  142.0560   76.1310  219.7330 C   0  0  0  0  0  0  0  0  0  0  0  0
  143.2880   76.7510  219.0860 C   0  0  0  0  0  0  0  0  0  0  0  0
  141.2130   75.6340  218.5310 C   0  0  0  0  0  0  0  0  0  0  0  0
  141.2820   77.1040  220.5380 C   0  0  1  0  0  0  0  0  0  0  0  0
  141.4750   78.5440  220.3510 C   0  0  0  0  0  0  0  0  0  0  0  0
  141.7150   79.3820  221.5330 C   0  0  0  0  0  0  0  0  0  0  0  0
  141.5550   80.7440  221.4170 C   0  0  0  0  0  0  0  0  0  0  0  0
  141.7900   81.6330  222.4530 C   0  0  0  0  0  0  0  0  0  0  0  0
  142.2090   81.1370  223.6680 C   0  0  0  0  0  0  0  0  0  0  0  0
  142.4470   81.9950  224.6990 F   0  0  0  0  0  0  0  0  0  0  0  0
  142.3810   79.7680  223.8270 C   0  0  0  0  0  0  0  0  0  0  0  0
  142.1330   78.9180  222.7610 C   0  0  0  0  0  0  0  0  0  0  0  0
  139.8430   76.7360  220.5140 N   0  0  0  0  0  0  0  0  0  0  0  0
  139.0740   76.8530  221.7310 C   0  0  0  0  0  0  0  0  0  0  0  0
  139.5910   77.2510  222.7990 O   0  0  0  0  0  0  0  0  0  0  0  0
  137.6360   76.4640  221.6070 C   0  0  2  0  0  0  0  0  0  0  0  0
  136.8120   77.0160  222.7100 C   0  0  0  0  0  0  0  0  0  0  0  0
  136.2920   75.8110  223.4590 C   0  0  1  0  0  0  0  0  0  0  0  0
  134.9920   75.9570  223.8910 F   0  0  0  0  0  0  0  0  0  0  0  0
  136.2800   74.6780  222.4560 C   0  0  0  0  0  0  0  0  0  0  0  0
  137.4130   75.0500  221.6370 N   0  0  0  0  0  0  0  0  0  0  0  0
  138.1920   74.0580  220.9360 C   0  0  0  0  0  0  0  0  0  0  0  0
  137.7380   73.4310  219.9440 O   0  0  0  0  0  0  0  0  0  0  0  0
  139.5830   73.7240  221.3490 C   0  0  0  0  0  0  0  0  0  0  0  0
  139.6260   72.8820  222.5030 N   0  0  0  0  0  0  0  0  0  0  0  0
  139.6350   71.4800  222.4180 C   0  0  0  0  0  0  0  0  0  0  0  0
  139.6090   70.9130  221.2850 O   0  0  0  0  0  0  0  0  0  0  0  0
  139.6810   70.6490  223.6190 C   0  0  0  0  0  0  0  0  0  0  0  0
  139.1520   69.3590  223.6110 C   0  0  0  0  0  0  0  0  0  0  0  0
  139.2190   68.5520  224.7570 C   0  0  0  0  0  0  0  0  0  0  0  0
  139.8200   69.0590  225.9000 C   0  0  0  0  0  0  0  0  0  0  0  0
  139.9030   68.2870  227.0710 C   0  0  0  0  0  0  0  0  0  0  0  0
  140.5170   68.8380  228.2070 C   0  0  0  0  0  0  0  0  0  0  0  0
  140.5930   68.0840  229.3340 F   0  0  0  0  0  0  0  0  0  0  0  0
  141.0310   70.1310  228.1750 C   0  0  0  0  0  0  0  0  0  0  0  0
  140.9460   70.8830  227.0250 C   0  0  0  0  0  0  0  0  0  0  0  0
  140.3400   70.3460  225.8870 C   0  0  0  0  0  0  0  0  0  0  0  0
  140.2490   71.0880  224.7450 N   0  0  0  0  0  0  0  0  0  0  0  0
  142.4488   75.0810  221.5537 H   0  0  0  0  0  0  0  0  0  0  0  0
  141.8748   74.0519  220.1978 H   0  0  0  0  0  0  0  0  0  0  0  0
  143.5573   74.6812  220.1978 H   0  0  0  0  0  0  0  0  0  0  0  0
  143.9780   77.0982  219.8692 H   0  0  0  0  0  0  0  0  0  0  0  0
  143.7915   75.9989  218.4608 H   0  0  0  0  0  0  0  0  0  0  0  0
  142.9841   77.6035  218.4608 H   0  0  0  0  0  0  0  0  0  0  0  0
  140.3208   75.1080  218.9014 H   0  0  0  0  0  0  0  0  0  0  0  0
  140.9038   76.4944  217.9193 H   0  0  0  0  0  0  0  0  0  0  0  0
  141.8161   74.9470  217.9193 H   0  0  0  0  0  0  0  0  0  0  0  0
  141.7371   76.9905  221.5330 H   0  0  0  0  0  0  0  0  0  0  0  0
  142.3397   78.6709  219.6830 H   0  0  0  0  0  0  0  0  0  0  0  0
  140.5066   78.8959  219.9659 H   0  0  0  0  0  0  0  0  0  0  0  0
  141.2226   81.1484  220.4496 H   0  0  0  0  0  0  0  0  0  0  0  0
  141.6449   82.7138  222.3084 H   0  0  0  0  0  0  0  0  0  0  0  0
  142.7122   79.3608  224.7937 H   0  0  0  0  0  0  0  0  0  0  0  0
  142.2747   77.8361  222.9000 H   0  0  0  0  0  0  0  0  0  0  0  0
  139.3930   76.4000  219.6280 H   0  0  0  0  0  0  0  0  0  0  0  0
  137.3465   76.8742  220.6283 H   0  0  0  0  0  0  0  0  0  0  0  0
  137.4251   77.6459  223.3713 H   0  0  0  0  0  0  0  0  0  0  0  0
  135.9953   77.6501  222.3348 H   0  0  0  0  0  0  0  0  0  0  0  0
  136.9271   75.6493  224.3424 H   0  0  0  0  0  0  0  0  0  0  0  0
  136.4308   73.7025  222.9413 H   0  0  0  0  0  0  0  0  0  0  0  0
  135.3341   74.5567  221.9078 H   0  0  0  0  0  0  0  0  0  0  0  0
  140.0832   73.2071  220.5168 H   0  0  0  0  0  0  0  0  0  0  0  0
  140.0902   74.6661  221.6046 H   0  0  0  0  0  0  0  0  0  0  0  0
  139.6610   73.3350  223.4700 H   0  0  0  0  0  0  0  0  0  0  0  0
  138.6777   68.9703  222.6978 H   0  0  0  0  0  0  0  0  0  0  0  0
  138.8019   67.5342  224.7492 H   0  0  0  0  0  0  0  0  0  0  0  0
  139.4932   67.2665  227.0973 H   0  0  0  0  0  0  0  0  0  0  0  0
  141.5070   70.5537  229.0721 H   0  0  0  0  0  0  0  0  0  0  0  0
  141.3543   71.9042  227.0025 H   0  0  0  0  0  0  0  0  0  0  0  0
  1  2  1  0
  2  3  1  0
  2  4  1  0
  2  5  1  0
  5  6  1  0
  6  7  1  0
  7  8  2  0
  8  9  1  0
  9 10  2  0
 10 11  1  0
 10 12  1  0
 12 13  2  0
  5 14  1  0
 14 15  1  0
 15 16  2  0
 15 17  1  0
 17 18  1  0
 18 19  1  0
 19 20  1  0
 19 21  1  0
 21 22  1  0
 22 23  1  0
 23 24  2  0
 23 25  1  0
 25 26  1  0
 26 27  1  0
 27 28  2  0
 27 29  1  0
 29 30  2  0
 30 31  1  0
 31 32  2  0
 32 33  1  0
 33 34  2  0
 34 35  1  0
 34 36  1  0
 36 37  2  0
 37 38  1  0
 38 39  2  0
 13  7  1  0
 22 17  1  0
 39 29  1  0
 38 32  1  0
  1 40  1  0
  1 41  1  0
  1 42  1  0
  3 43  1  0
  3 44  1  0
  3 45  1  0
  4 46  1  0
  4 47  1  0
  4 48  1  0
  5 49  1  1
  6 50  1  0
  6 51  1  0
  8 52  1  0
  9 53  1  0
 12 54  1  0
 13 55  1  0
 14 56  1  0
 17 57  1  6
 18 58  1  0
 18 59  1  0
 19 60  1  1
 21 61  1  0
 21 62  1  0
 25 63  1  0
 25 64  1  0
 26 65  1  0
 30 66  1  0
 31 67  1  0
 33 68  1  0
 36 69  1  0
 37 70  1  0
M  END
>  <smiles>  (32) 
CC(C)(C)C(Cc1ccc(F)cc1)NC(=O)[C@@H]1C[C@@H](F)CN1C(=O)CNC(=O)c1ccc2cc(F)ccc2n1

>  <score_type>  (32) 
oracle

>  <origin>  (32) 
autodockgpu

>  <m_score__min__energy>  (32) 
-9.5999999999999996

>  <m_primary>  (32) 
energy

>  <meeko>  (32) 
{"free_energy": -8.87, "intermolecular_energy": -11.55, "internal_energy": -2.68, "cluster_size": 7, "cluster_id": 2, "rank_in_cluster": 1}

>  <energy>  (32) 
-8.64

>  <cluster_rmsd>  (32) 
0.0

>  <rmsd>  (32) 
270.75

>  <cluster>  (32) 
3

$$$$

     RDKit          3D

 70 73  0  0  1  0  0  0  0  0999 V2000
  136.8180   71.0530  221.8990 C   0  0  0  0  0  0  0  0  0  0  0  0
  137.4330   70.2460  223.0080 C   0  0  0  0  0  0  0  0  0  0  0  0
  136.4720   70.3030  224.1890 C   0  0  0  0  0  0  0  0  0  0  0  0
  137.3810   68.7640  222.5570 C   0  0  0  0  0  0  0  0  0  0  0  0
  138.8170   70.6240  223.3780 C   0  0  1  0  0  0  0  0  0  0  0  0
  139.6090   69.7700  224.2660 C   0  0  0  0  0  0  0  0  0  0  0  0
  140.1890   70.3600  225.4780 C   0  0  0  0  0  0  0  0  0  0  0  0
  139.9680   69.7360  226.6850 C   0  0  0  0  0  0  0  0  0  0  0  0
  140.4340   70.2230  227.8950 C   0  0  0  0  0  0  0  0  0  0  0  0
  141.1580   71.3950  227.9030 C   0  0  0  0  0  0  0  0  0  0  0  0
  141.6240   71.8900  229.0820 F   0  0  0  0  0  0  0  0  0  0  0  0
  141.4050   72.0550  226.7060 C   0  0  0  0  0  0  0  0  0  0  0  0
  140.9180   71.5290  225.5190 C   0  0  0  0  0  0  0  0  0  0  0  0
  139.5740   70.9970  222.1550 N   0  0  0  0  0  0  0  0  0  0  0  0
  140.1110   72.3330  222.0490 C   0  0  0  0  0  0  0  0  0  0  0  0
  139.9510   73.1800  222.9560 O   0  0  0  0  0  0  0  0  0  0  0  0
  140.8610   72.6120  220.7860 C   0  0  2  0  0  0  0  0  0  0  0  0
  142.3060   72.3100  220.9170 C   0  0  0  0  0  0  0  0  0  0  0  0
  143.0080   73.6360  220.7360 C   0  0  1  0  0  0  0  0  0  0  0  0
  144.1790   73.5400  220.0160 F   0  0  0  0  0  0  0  0  0  0  0  0
  142.0700   74.4860  219.9070 C   0  0  0  0  0  0  0  0  0  0  0  0
  140.7950   73.9780  220.3620 N   0  0  0  0  0  0  0  0  0  0  0  0
  139.6110   74.8030  220.3550 C   0  0  0  0  0  0  0  0  0  0  0  0
  138.7770   74.7670  219.4120 O   0  0  0  0  0  0  0  0  0  0  0  0
  139.3070   75.7420  221.4700 C   0  0  0  0  0  0  0  0  0  0  0  0
  138.3380   75.2170  222.3810 N   0  0  0  0  0  0  0  0  0  0  0  0
  137.0670   75.7920  222.5480 C   0  0  0  0  0  0  0  0  0  0  0  0
  136.7390   76.8140  221.8760 O   0  0  0  0  0  0  0  0  0  0  0  0
  136.1000   75.2280  223.4880 C   0  0  0  0  0  0  0  0  0  0  0  0
  135.8270   73.8600  223.4910 C   0  0  0  0  0  0  0  0  0  0  0  0
  134.9180   73.3150  224.4110 C   0  0  0  0  0  0  0  0  0  0  0  0
  134.2940   74.1590  225.3180 C   0  0  0  0  0  0  0  0  0  0  0  0
  133.3740   73.6550  226.2510 C   0  0  0  0  0  0  0  0  0  0  0  0
  132.7620   74.5430  227.1510 C   0  0  0  0  0  0  0  0  0  0  0  0
  131.8740   74.0470  228.0500 F   0  0  0  0  0  0  0  0  0  0  0  0
  133.0610   75.9020  227.1150 C   0  0  0  0  0  0  0  0  0  0  0  0
  133.9630   76.3900  226.1970 C   0  0  0  0  0  0  0  0  0  0  0  0
  134.5800   75.5170  225.2980 C   0  0  0  0  0  0  0  0  0  0  0  0
  135.4730   75.9960  224.3830 N   0  0  0  0  0  0  0  0  0  0  0  0
  136.2042   71.8584  222.3285 H   0  0  0  0  0  0  0  0  0  0  0  0
  137.6142   71.4900  221.2784 H   0  0  0  0  0  0  0  0  0  0  0  0
  136.1855   70.4012  221.2784 H   0  0  0  0  0  0  0  0  0  0  0  0
  137.0432   70.2691  225.1285 H   0  0  0  0  0  0  0  0  0  0  0  0
  135.8927   71.2371  224.1456 H   0  0  0  0  0  0  0  0  0  0  0  0
  135.7863   69.4439  224.1456 H   0  0  0  0  0  0  0  0  0  0  0  0
  137.3581   68.1118  223.4425 H   0  0  0  0  0  0  0  0  0  0  0  0
  136.4764   68.5957  221.9542 H   0  0  0  0  0  0  0  0  0  0  0  0
  138.2716   68.5327  221.9542 H   0  0  0  0  0  0  0  0  0  0  0  0
  138.6487   71.4751  224.0542 H   0  0  0  0  0  0  0  0  0  0  0  0
  138.9570   68.9446  224.5878 H   0  0  0  0  0  0  0  0  0  0  0  0
  140.4835   69.4919  223.6594 H   0  0  0  0  0  0  0  0  0  0  0  0
  139.3901   68.8000  226.6887 H   0  0  0  0  0  0  0  0  0  0  0  0
  140.2298   69.6841  228.8320 H   0  0  0  0  0  0  0  0  0  0  0  0
  141.9840   72.9902  226.6997 H   0  0  0  0  0  0  0  0  0  0  0  0
  141.1203   72.0626  224.5786 H   0  0  0  0  0  0  0  0  0  0  0  0
  139.7180   70.3000  221.3840 H   0  0  0  0  0  0  0  0  0  0  0  0
  140.3672   71.9606  220.0499 H   0  0  0  0  0  0  0  0  0  0  0  0
  142.5236   71.8912  221.9106 H   0  0  0  0  0  0  0  0  0  0  0  0
  142.6382   71.5657  220.1784 H   0  0  0  0  0  0  0  0  0  0  0  0
  143.2533   74.0388  221.7297 H   0  0  0  0  0  0  0  0  0  0  0  0
  142.1853   75.5568  220.1308 H   0  0  0  0  0  0  0  0  0  0  0  0
  142.2301   74.4245  218.8205 H   0  0  0  0  0  0  0  0  0  0  0  0
  140.2361   75.9458  222.0225 H   0  0  0  0  0  0  0  0  0  0  0  0
  138.8883   76.6588  221.0293 H   0  0  0  0  0  0  0  0  0  0  0  0
  138.5850   74.3480  222.9510 H   0  0  0  0  0  0  0  0  0  0  0  0
  136.3287   73.2025  222.7657 H   0  0  0  0  0  0  0  0  0  0  0  0
  134.7038   72.2361  224.4128 H   0  0  0  0  0  0  0  0  0  0  0  0
  133.1361   72.5813  226.2769 H   0  0  0  0  0  0  0  0  0  0  0  0
  132.5744   76.5888  227.8232 H   0  0  0  0  0  0  0  0  0  0  0  0
  134.1973   77.4645  226.1714 H   0  0  0  0  0  0  0  0  0  0  0  0
  1  2  1  0
  2  3  1  0
  2  4  1  0
  2  5  1  0
  5  6  1  0
  6  7  1  0
  7  8  2  0
  8  9  1  0
  9 10  2  0
 10 11  1  0
 10 12  1  0
 12 13  2  0
  5 14  1  0
 14 15  1  0
 15 16  2  0
 15 17  1  0
 17 18  1  0
 18 19  1  0
 19 20  1  0
 19 21  1  0
 21 22  1  0
 22 23  1  0
 23 24  2  0
 23 25  1  0
 25 26  1  0
 26 27  1  0
 27 28  2  0
 27 29  1  0
 29 30  2  0
 30 31  1  0
 31 32  2  0
 32 33  1  0
 33 34  2  0
 34 35  1  0
 34 36  1  0
 36 37  2  0
 37 38  1  0
 38 39  2  0
 13  7  1  0
 22 17  1  0
 39 29  1  0
 38 32  1  0
  1 40  1  0
  1 41  1  0
  1 42  1  0
  3 43  1  0
  3 44  1  0
  3 45  1  0
  4 46  1  0
  4 47  1  0
  4 48  1  0
  5 49  1  1
  6 50  1  0
  6 51  1  0
  8 52  1  0
  9 53  1  0
 12 54  1  0
 13 55  1  0
 14 56  1  0
 17 57  1  6
 18 58  1  0
 18 59  1  0
 19 60  1  1
 21 61  1  0
 21 62  1  0
 25 63  1  0
 25 64  1  0
 26 65  1  0
 30 66  1  0
 31 67  1  0
 33 68  1  0
 36 69  1  0
 37 70  1  0
M  END
>  <smiles>  (33) 
CC(C)(C)C(Cc1ccc(F)cc1)NC(=O)[C@@H]1C[C@@H](F)CN1C(=O)CNC(=O)c1ccc2cc(F)ccc2n1

>  <score_type>  (33) 
oracle

>  <origin>  (33) 
autodockgpu

>  <m_score__min__energy>  (33) 
-9.5999999999999996

>  <m_primary>  (33) 
energy

>  <meeko>  (33) 
{"free_energy": -7.89, "intermolecular_energy": -10.58, "internal_energy": -3.56, "cluster_size": 1, "cluster_id": 6, "rank_in_cluster": 1}

>  <energy>  (33) 
-8.61

>  <cluster_rmsd>  (33) 
0.0

>  <rmsd>  (33) 
271.23

>  <cluster>  (33) 
4

$$$$

     RDKit          3D

 70 73  0  0  1  0  0  0  0  0999 V2000
  139.4580   75.5170  219.8700 C   0  0  0  0  0  0  0  0  0  0  0  0
  140.2470   76.1350  220.9900 C   0  0  0  0  0  0  0  0  0  0  0  0
  141.4650   75.2490  221.2200 C   0  0  0  0  0  0  0  0  0  0  0  0
  140.8440   77.4530  220.4360 C   0  0  0  0  0  0  0  0  0  0  0  0
  139.4870   76.3970  222.2350 C   0  0  1  0  0  0  0  0  0  0  0  0
  139.0570   77.7560  222.5710 C   0  0  0  0  0  0  0  0  0  0  0  0
  140.0610   78.7150  223.0490 C   0  0  0  0  0  0  0  0  0  0  0  0
  139.7340   80.0510  223.0780 C   0  0  0  0  0  0  0  0  0  0  0  0
  140.6130   81.0460  223.4740 C   0  0  0  0  0  0  0  0  0  0  0  0
  141.8860   80.6890  223.8600 C   0  0  0  0  0  0  0  0  0  0  0  0
  142.7650   81.6520  224.2520 F   0  0  0  0  0  0  0  0  0  0  0  0
  142.2560   79.3500  223.8470 C   0  0  0  0  0  0  0  0  0  0  0  0
  141.3410   78.3900  223.4440 C   0  0  0  0  0  0  0  0  0  0  0  0
  138.3710   75.4240  222.3500 N   0  0  0  0  0  0  0  0  0  0  0  0
  137.0820   75.7750  221.8010 C   0  0  0  0  0  0  0  0  0  0  0  0
  136.8850   76.8750  221.2390 O   0  0  0  0  0  0  0  0  0  0  0  0
  136.0240   74.7310  221.9620 C   0  0  2  0  0  0  0  0  0  0  0  0
  135.6040   74.5750  223.3750 C   0  0  0  0  0  0  0  0  0  0  0  0
  135.9910   73.1650  223.7520 C   0  0  1  0  0  0  0  0  0  0  0  0
  135.0640   72.5420  224.5610 F   0  0  0  0  0  0  0  0  0  0  0  0
  136.0130   72.3850  222.4560 C   0  0  0  0  0  0  0  0  0  0  0  0
  136.4290   73.4240  221.5400 N   0  0  0  0  0  0  0  0  0  0  0  0
  137.1630   73.1160  220.3360 C   0  0  0  0  0  0  0  0  0  0  0  0
  136.7000   73.3600  219.1910 O   0  0  0  0  0  0  0  0  0  0  0  0
  138.5150   72.4940  220.3840 C   0  0  0  0  0  0  0  0  0  0  0  0
  138.6810   71.6280  221.5080 N   0  0  0  0  0  0  0  0  0  0  0  0
  139.4030   72.0030  222.6540 C   0  0  0  0  0  0  0  0  0  0  0  0
  139.9340   73.1520  222.7210 O   0  0  0  0  0  0  0  0  0  0  0  0
  139.5510   71.0920  223.7870 C   0  0  0  0  0  0  0  0  0  0  0  0
  139.1320   69.7650  223.6900 C   0  0  0  0  0  0  0  0  0  0  0  0
  139.3000   68.8830  224.7680 C   0  0  0  0  0  0  0  0  0  0  0  0
  139.8880   69.3520  225.9340 C   0  0  0  0  0  0  0  0  0  0  0  0
  140.0690   68.5030  227.0380 C   0  0  0  0  0  0  0  0  0  0  0  0
  140.6670   69.0180  228.2000 C   0  0  0  0  0  0  0  0  0  0  0  0
  140.8380   68.1910  229.2640 F   0  0  0  0  0  0  0  0  0  0  0  0
  141.0700   70.3490  228.2570 C   0  0  0  0  0  0  0  0  0  0  0  0
  140.8900   71.1750  227.1710 C   0  0  0  0  0  0  0  0  0  0  0  0
  140.2980   70.6760  226.0090 C   0  0  0  0  0  0  0  0  0  0  0  0
  140.1130   71.4920  224.9300 N   0  0  0  0  0  0  0  0  0  0  0  0
  138.6571   74.8897  220.2883 H   0  0  0  0  0  0  0  0  0  0  0  0
  139.0159   76.3116  219.2510 H   0  0  0  0  0  0  0  0  0  0  0  0
  140.1235   74.8974  219.2510 H   0  0  0  0  0  0  0  0  0  0  0  0
  141.6315   75.1279  222.3006 H   0  0  0  0  0  0  0  0  0  0  0  0
  141.2931   74.2634  220.7627 H   0  0  0  0  0  0  0  0  0  0  0  0
  142.3498   75.7160  220.7627 H   0  0  0  0  0  0  0  0  0  0  0  0
  141.1383   78.1027  221.2734 H   0  0  0  0  0  0  0  0  0  0  0  0
  141.7269   77.2254  219.8206 H   0  0  0  0  0  0  0  0  0  0  0  0
  140.0906   77.9666  219.8206 H   0  0  0  0  0  0  0  0  0  0  0  0
  140.2579   76.2580  223.0073 H   0  0  0  0  0  0  0  0  0  0  0  0
  138.6042   78.1856  221.6652 H   0  0  0  0  0  0  0  0  0  0  0  0
  138.3869   77.6190  223.4325 H   0  0  0  0  0  0  0  0  0  0  0  0
  138.7197   80.3452  222.7701 H   0  0  0  0  0  0  0  0  0  0  0  0
  140.3003   82.1006  223.4800 H   0  0  0  0  0  0  0  0  0  0  0  0
  143.2695   79.0533  224.1548 H   0  0  0  0  0  0  0  0  0  0  0  0
  141.6466   77.3333  223.4392 H   0  0  0  0  0  0  0  0  0  0  0  0
  138.5180   74.4970  222.8200 H   0  0  0  0  0  0  0  0  0  0  0  0
  135.2066   75.1005  221.3253 H   0  0  0  0  0  0  0  0  0  0  0  0
  136.1259   75.3019  224.0147 H   0  0  0  0  0  0  0  0  0  0  0  0
  134.5263   74.7532  223.5047 H   0  0  0  0  0  0  0  0  0  0  0  0
  136.9467   73.2001  224.2955 H   0  0  0  0  0  0  0  0  0  0  0  0
  136.7374   71.5579  222.4903 H   0  0  0  0  0  0  0  0  0  0  0  0
  135.0636   71.8937  222.1966 H   0  0  0  0  0  0  0  0  0  0  0  0
  138.6674   71.9106  219.4640 H   0  0  0  0  0  0  0  0  0  0  0  0
  139.2522   73.3052  220.4763 H   0  0  0  0  0  0  0  0  0  0  0  0
  138.2320   70.6590  221.4820 H   0  0  0  0  0  0  0  0  0  0  0  0
  138.6658   69.4070  222.7602 H   0  0  0  0  0  0  0  0  0  0  0  0
  138.9708   67.8363  224.6901 H   0  0  0  0  0  0  0  0  0  0  0  0
  139.7477   67.4519  226.9935 H   0  0  0  0  0  0  0  0  0  0  0  0
  141.5341   70.7422  229.1735 H   0  0  0  0  0  0  0  0  0  0  0  0
  141.2117   72.2258  227.2183 H   0  0  0  0  0  0  0  0  0  0  0  0
  1  2  1  0
  2  3  1  0
  2  4  1  0
  2  5  1  0
  5  6  1  0
  6  7  1  0
  7  8  2  0
  8  9  1  0
  9 10  2  0
 10 11  1  0
 10 12  1  0
 12 13  2  0
  5 14  1  0
 14 15  1  0
 15 16  2  0
 15 17  1  0
 17 18  1  0
 18 19  1  0
 19 20  1  0
 19 21  1  0
 21 22  1  0
 22 23  1  0
 23 24  2  0
 23 25  1  0
 25 26  1  0
 26 27  1  0
 27 28  2  0
 27 29  1  0
 29 30  2  0
 30 31  1  0
 31 32  2  0
 32 33  1  0
 33 34  2  0
 34 35  1  0
 34 36  1  0
 36 37  2  0
 37 38  1  0
 38 39  2  0
 13  7  1  0
 22 17  1  0
 39 29  1  0
 38 32  1  0
  1 40  1  0
  1 41  1  0
  1 42  1  0
  3 43  1  0
  3 44  1  0
  3 45  1  0
  4 46  1  0
  4 47  1  0
  4 48  1  0
  5 49  1  1
  6 50  1  0
  6 51  1  0
  8 52  1  0
  9 53  1  0
 12 54  1  0
 13 55  1  0
 14 56  1  0
 17 57  1  6
 18 58  1  0
 18 59  1  0
 19 60  1  1
 21 61  1  0
 21 62  1  0
 25 63  1  0
 25 64  1  0
 26 65  1  0
 30 66  1  0
 31 67  1  0
 33 68  1  0
 36 69  1  0
 37 70  1  0
M  END
>  <smiles>  (34) 
CC(C)(C)C(Cc1ccc(F)cc1)NC(=O)[C@@H]1C[C@@H](F)CN1C(=O)CNC(=O)c1ccc2cc(F)ccc2n1

>  <score_type>  (34) 
oracle

>  <origin>  (34) 
autodockgpu

>  <m_score__min__energy>  (34) 
-9.5999999999999996

>  <m_primary>  (34) 
energy

>  <meeko>  (34) 
{"free_energy": -8.8, "intermolecular_energy": -11.48, "internal_energy": -3.43, "cluster_size": 7, "cluster_id": 2, "rank_in_cluster": 2}

>  <energy>  (34) 
-8.42

>  <cluster_rmsd>  (34) 
0.0

>  <rmsd>  (34) 
271.05

>  <cluster>  (34) 
5

$$$$

     RDKit          3D

 70 73  0  0  1  0  0  0  0  0999 V2000
  140.8930   80.8720  223.8090 C   0  0  0  0  0  0  0  0  0  0  0  0
  141.6410   79.7600  223.1280 C   0  0  0  0  0  0  0  0  0  0  0  0
  143.0590   80.2610  222.8810 C   0  0  0  0  0  0  0  0  0  0  0  0
  141.8210   78.6390  224.1820 C   0  0  0  0  0  0  0  0  0  0  0  0
  141.0040   79.2200  221.9050 C   0  0  1  0  0  0  0  0  0  0  0  0
  140.0800   80.0440  221.1220 C   0  0  0  0  0  0  0  0  0  0  0  0
  140.6330   81.0800  220.2410 C   0  0  0  0  0  0  0  0  0  0  0  0
  140.3630   82.4000  220.5260 C   0  0  0  0  0  0  0  0  0  0  0  0
  140.8000   83.4570  219.7450 C   0  0  0  0  0  0  0  0  0  0  0  0
  141.5450   83.1830  218.6190 C   0  0  0  0  0  0  0  0  0  0  0  0
  141.9830   84.2080  217.8370 F   0  0  0  0  0  0  0  0  0  0  0  0
  141.8410   81.8650  218.2960 C   0  0  0  0  0  0  0  0  0  0  0  0
  141.3810   80.8400  219.1100 C   0  0  0  0  0  0  0  0  0  0  0  0
  142.0350   78.5840  221.0450 N   0  0  0  0  0  0  0  0  0  0  0  0
  141.7590   77.2900  220.4680 C   0  0  0  0  0  0  0  0  0  0  0  0
  140.6790   76.6930  220.6790 O   0  0  0  0  0  0  0  0  0  0  0  0
  142.8540   76.7340  219.6160 C   0  0  2  0  0  0  0  0  0  0  0  0
  142.8500   77.3170  218.2530 C   0  0  0  0  0  0  0  0  0  0  0  0
  142.5670   76.1590  217.3250 C   0  0  1  0  0  0  0  0  0  0  0  0
  143.2860   76.2110  216.1510 F   0  0  0  0  0  0  0  0  0  0  0  0
  143.0390   74.9210  218.0570 C   0  0  0  0  0  0  0  0  0  0  0  0
  142.7760   75.3160  219.4230 N   0  0  0  0  0  0  0  0  0  0  0  0
  142.4840   74.3410  220.4450 C   0  0  0  0  0  0  0  0  0  0  0  0
  143.3880   73.8270  221.1550 O   0  0  0  0  0  0  0  0  0  0  0  0
  141.0920   73.8900  220.7200 C   0  0  0  0  0  0  0  0  0  0  0  0
  141.0110   73.0180  221.8490 N   0  0  0  0  0  0  0  0  0  0  0  0
  139.7990   72.4570  222.2870 C   0  0  0  0  0  0  0  0  0  0  0  0
  138.7220   72.7140  221.6720 O   0  0  0  0  0  0  0  0  0  0  0  0
  139.7530   71.5680  223.4460 C   0  0  0  0  0  0  0  0  0  0  0  0
  139.0880   70.3440  223.3760 C   0  0  0  0  0  0  0  0  0  0  0  0
  139.0660   69.4780  224.4800 C   0  0  0  0  0  0  0  0  0  0  0  0
  139.7160   69.8610  225.6450 C   0  0  0  0  0  0  0  0  0  0  0  0
  139.7130   69.0270  226.7750 C   0  0  0  0  0  0  0  0  0  0  0  0
  140.3810   69.4520  227.9350 C   0  0  0  0  0  0  0  0  0  0  0  0
  140.3740   68.6400  229.0230 F   0  0  0  0  0  0  0  0  0  0  0  0
  141.0320   70.6820  227.9650 C   0  0  0  0  0  0  0  0  0  0  0  0
  141.0310   71.4950  226.8540 C   0  0  0  0  0  0  0  0  0  0  0  0
  140.3710   71.0830  225.6930 C   0  0  0  0  0  0  0  0  0  0  0  0
  140.3630   71.8870  224.5900 N   0  0  0  0  0  0  0  0  0  0  0  0
  140.9728   80.7534  224.8997 H   0  0  0  0  0  0  0  0  0  0  0  0
  141.3247   81.8394  223.5128 H   0  0  0  0  0  0  0  0  0  0  0  0
  139.8342   80.8369  223.5128 H   0  0  0  0  0  0  0  0  0  0  0  0
  143.5586   80.4375  223.8449 H   0  0  0  0  0  0  0  0  0  0  0  0
  143.6201   79.5067  222.3099 H   0  0  0  0  0  0  0  0  0  0  0  0
  143.0217   81.2004  222.3099 H   0  0  0  0  0  0  0  0  0  0  0  0
  141.7517   79.0704  225.1915 H   0  0  0  0  0  0  0  0  0  0  0  0
  141.0327   77.8830  224.0514 H   0  0  0  0  0  0  0  0  0  0  0  0
  142.8063   78.1677  224.0514 H   0  0  0  0  0  0  0  0  0  0  0  0
  140.2884   78.4962  222.3221 H   0  0  0  0  0  0  0  0  0  0  0  0
  139.4931   79.3611  220.4901 H   0  0  0  0  0  0  0  0  0  0  0  0
  139.5186   80.6098  221.8801 H   0  0  0  0  0  0  0  0  0  0  0  0
  139.7679   82.6272  221.4228 H   0  0  0  0  0  0  0  0  0  0  0  0
  140.5571   84.4945  220.0183 H   0  0  0  0  0  0  0  0  0  0  0  0
  142.4366   81.6352  217.4002 H   0  0  0  0  0  0  0  0  0  0  0  0
  141.6219   79.8005  218.8429 H   0  0  0  0  0  0  0  0  0  0  0  0
  142.9460   79.0690  220.8590 H   0  0  0  0  0  0  0  0  0  0  0  0
  143.7655   76.9927  220.1747 H   0  0  0  0  0  0  0  0  0  0  0  0
  142.0655   78.0829  218.1638 H   0  0  0  0  0  0  0  0  0  0  0  0
  143.8042   77.8097  218.0149 H   0  0  0  0  0  0  0  0  0  0  0  0
  141.4976   76.1732  217.0677 H   0  0  0  0  0  0  0  0  0  0  0  0
  142.4578   74.0320  217.7708 H   0  0  0  0  0  0  0  0  0  0  0  0
  144.0806   74.6327  217.8523 H   0  0  0  0  0  0  0  0  0  0  0  0
  140.4664   74.7742  220.9119 H   0  0  0  0  0  0  0  0  0  0  0  0
  140.7428   73.3299  219.8401 H   0  0  0  0  0  0  0  0  0  0  0  0
  141.9060   72.7750  222.3780 H   0  0  0  0  0  0  0  0  0  0  0  0
  138.5758   70.0547  222.4465 H   0  0  0  0  0  0  0  0  0  0  0  0
  138.5426   68.5122  224.4231 H   0  0  0  0  0  0  0  0  0  0  0  0
  139.1957   68.0565  226.7519 H   0  0  0  0  0  0  0  0  0  0  0  0
  141.5494   71.0057  228.8802 H   0  0  0  0  0  0  0  0  0  0  0  0
  141.5479   72.4656  226.8800 H   0  0  0  0  0  0  0  0  0  0  0  0
  1  2  1  0
  2  3  1  0
  2  4  1  0
  2  5  1  0
  5  6  1  0
  6  7  1  0
  7  8  2  0
  8  9  1  0
  9 10  2  0
 10 11  1  0
 10 12  1  0
 12 13  2  0
  5 14  1  0
 14 15  1  0
 15 16  2  0
 15 17  1  0
 17 18  1  0
 18 19  1  0
 19 20  1  0
 19 21  1  0
 21 22  1  0
 22 23  1  0
 23 24  2  0
 23 25  1  0
 25 26  1  0
 26 27  1  0
 27 28  2  0
 27 29  1  0
 29 30  2  0
 30 31  1  0
 31 32  2  0
 32 33  1  0
 33 34  2  0
 34 35  1  0
 34 36  1  0
 36 37  2  0
 37 38  1  0
 38 39  2  0
 13  7  1  0
 22 17  1  0
 39 29  1  0
 38 32  1  0
  1 40  1  0
  1 41  1  0
  1 42  1  0
  3 43  1  0
  3 44  1  0
  3 45  1  0
  4 46  1  0
  4 47  1  0
  4 48  1  0
  5 49  1  1
  6 50  1  0
  6 51  1  0
  8 52  1  0
  9 53  1  0
 12 54  1  0
 13 55  1  0
 14 56  1  0
 17 57  1  1
 18 58  1  0
 18 59  1  0
 19 60  1  6
 21 61  1  0
 21 62  1  0
 25 63  1  0
 25 64  1  0
 26 65  1  0
 30 66  1  0
 31 67  1  0
 33 68  1  0
 36 69  1  0
 37 70  1  0
M  END
>  <smiles>  (35) 
CC(C)(C)C(Cc1ccc(F)cc1)NC(=O)[C@@H]1C[C@@H](F)CN1C(=O)CNC(=O)c1ccc2cc(F)ccc2n1

>  <score_type>  (35) 
oracle

>  <origin>  (35) 
autodockgpu

>  <m_score__min__energy>  (35) 
-9.5999999999999996

>  <m_primary>  (35) 
energy

>  <meeko>  (35) 
{"free_energy": -8.61, "intermolecular_energy": -11.29, "internal_energy": -2.89, "cluster_size": 1, "cluster_id": 4, "rank_in_cluster": 1}

>  <energy>  (35) 
-7.89

>  <cluster_rmsd>  (35) 
0.0

>  <rmsd>  (35) 
270.44

>  <cluster>  (35) 
6

$$$$

     RDKit          3D

 70 73  0  0  1  0  0  0  0  0999 V2000
  142.6210   73.9290  220.4640 C   0  0  0  0  0  0  0  0  0  0  0  0
  142.3300   75.2880  219.8920 C   0  0  0  0  0  0  0  0  0  0  0  0
  143.6700   75.9850  219.6920 C   0  0  0  0  0  0  0  0  0  0  0  0
  141.8110   75.0580  218.4500 C   0  0  0  0  0  0  0  0  0  0  0  0
  141.3670   76.1100  220.6620 C   0  0  1  0  0  0  0  0  0  0  0  0
  141.4440   77.5720  220.6280 C   0  0  0  0  0  0  0  0  0  0  0  0
  140.7980   78.3370  221.7020 C   0  0  0  0  0  0  0  0  0  0  0  0
  139.4940   78.7410  221.5300 C   0  0  0  0  0  0  0  0  0  0  0  0
  138.7980   79.4980  222.4580 C   0  0  0  0  0  0  0  0  0  0  0  0
  139.4370   79.8720  223.6190 C   0  0  0  0  0  0  0  0  0  0  0  0
  138.7710   80.6170  224.5440 F   0  0  0  0  0  0  0  0  0  0  0  0
  140.7540   79.4830  223.8330 C   0  0  0  0  0  0  0  0  0  0  0  0
  141.4090   78.7250  222.8750 C   0  0  0  0  0  0  0  0  0  0  0  0
  139.9860   75.6270  220.4070 N   0  0  0  0  0  0  0  0  0  0  0  0
  139.1020   75.4230  221.5300 C   0  0  0  0  0  0  0  0  0  0  0  0
  139.4720   75.6380  222.7050 O   0  0  0  0  0  0  0  0  0  0  0  0
  137.7320   74.9400  221.1730 C   0  0  2  0  0  0  0  0  0  0  0  0
  136.7480   75.2100  222.2480 C   0  0  0  0  0  0  0  0  0  0  0  0
  136.2850   73.8500  222.7160 C   0  0  1  0  0  0  0  0  0  0  0  0
  134.9400   73.8030  223.0110 F   0  0  0  0  0  0  0  0  0  0  0  0
  136.4950   72.9190  221.5410 C   0  0  0  0  0  0  0  0  0  0  0  0
  137.6580   73.5290  220.9370 N   0  0  0  0  0  0  0  0  0  0  0  0
  138.6050   72.7510  220.1750 C   0  0  0  0  0  0  0  0  0  0  0  0
  139.4080   73.2830  219.3650 O   0  0  0  0  0  0  0  0  0  0  0  0
  138.6850   71.2700  220.3090 C   0  0  0  0  0  0  0  0  0  0  0  0
  138.9300   70.8530  221.6540 N   0  0  0  0  0  0  0  0  0  0  0  0
  139.8710   71.4860  222.4830 C   0  0  0  0  0  0  0  0  0  0  0  0
  140.5410   72.4690  222.0490 O   0  0  0  0  0  0  0  0  0  0  0  0
  140.0950   71.0340  223.8550 C   0  0  0  0  0  0  0  0  0  0  0  0
  140.6540   71.8900  224.8030 C   0  0  0  0  0  0  0  0  0  0  0  0
  140.8440   71.4650  226.1270 C   0  0  0  0  0  0  0  0  0  0  0  0
  140.4680   70.1760  226.4770 C   0  0  0  0  0  0  0  0  0  0  0  0
  140.6460   69.7090  227.7900 C   0  0  0  0  0  0  0  0  0  0  0  0
  140.2530   68.3970  228.1030 C   0  0  0  0  0  0  0  0  0  0  0  0
  140.4290   67.9540  229.3750 F   0  0  0  0  0  0  0  0  0  0  0  0
  139.7000   67.5730  227.1280 C   0  0  0  0  0  0  0  0  0  0  0  0
  139.5280   68.0370  225.8440 C   0  0  0  0  0  0  0  0  0  0  0  0
  139.9130   69.3400  225.5190 C   0  0  0  0  0  0  0  0  0  0  0  0
  139.7490   69.8040  224.2460 N   0  0  0  0  0  0  0  0  0  0  0  0
  142.6094   73.9834  221.5626 H   0  0  0  0  0  0  0  0  0  0  0  0
  141.8551   73.2164  220.1240 H   0  0  0  0  0  0  0  0  0  0  0  0
  143.6116   73.5925  220.1240 H   0  0  0  0  0  0  0  0  0  0  0  0
  144.1132   76.2156  220.6720 H   0  0  0  0  0  0  0  0  0  0  0  0
  144.3465   75.3245  219.1298 H   0  0  0  0  0  0  0  0  0  0  0  0
  143.5176   76.9181  219.1298 H   0  0  0  0  0  0  0  0  0  0  0  0
  140.8060   74.6126  218.4887 H   0  0  0  0  0  0  0  0  0  0  0  0
  141.7654   76.0202  217.9189 H   0  0  0  0  0  0  0  0  0  0  0  0
  142.4932   74.3779  217.9189 H   0  0  0  0  0  0  0  0  0  0  0  0
  141.6966   75.9384  221.6973 H   0  0  0  0  0  0  0  0  0  0  0  0
  142.5107   77.8404  220.6358 H   0  0  0  0  0  0  0  0  0  0  0  0
  140.8787   77.8484  219.7258 H   0  0  0  0  0  0  0  0  0  0  0  0
  138.9761   78.4468  220.6052 H   0  0  0  0  0  0  0  0  0  0  0  0
  137.7553   79.7946  222.2712 H   0  0  0  0  0  0  0  0  0  0  0  0
  141.2737   79.7750  224.7575 H   0  0  0  0  0  0  0  0  0  0  0  0
  142.4510   78.4231  223.0569 H   0  0  0  0  0  0  0  0  0  0  0  0
  139.6590   75.4390  219.4280 H   0  0  0  0  0  0  0  0  0  0  0  0
  137.5009   75.4937  220.2510 H   0  0  0  0  0  0  0  0  0  0  0  0
  137.2213   75.7611  223.0740 H   0  0  0  0  0  0  0  0  0  0  0  0
  135.9106   75.8279  221.8915 H   0  0  0  0  0  0  0  0  0  0  0  0
  136.8407   73.5874  223.6283 H   0  0  0  0  0  0  0  0  0  0  0  0
  136.6989   71.8889  221.8686 H   0  0  0  0  0  0  0  0  0  0  0  0
  135.6276   72.8165  220.8723 H   0  0  0  0  0  0  0  0  0  0  0  0
  137.7329   70.8337  219.9726 H   0  0  0  0  0  0  0  0  0  0  0  0
  139.5289   70.9246  219.6938 H   0  0  0  0  0  0  0  0  0  0  0  0
  138.3690   70.0350  222.0490 H   0  0  0  0  0  0  0  0  0  0  0  0
  140.9490   72.9085  224.5103 H   0  0  0  0  0  0  0  0  0  0  0  0
  141.2834   72.1420  226.8744 H   0  0  0  0  0  0  0  0  0  0  0  0
  141.0857   70.3598  228.5601 H   0  0  0  0  0  0  0  0  0  0  0  0
  139.3990   66.5465  227.3845 H   0  0  0  0  0  0  0  0  0  0  0  0
  139.0886   67.3838  225.0757 H   0  0  0  0  0  0  0  0  0  0  0  0
  1  2  1  0
  2  3  1  0
  2  4  1  0
  2  5  1  0
  5  6  1  0
  6  7  1  0
  7  8  2  0
  8  9  1  0
  9 10  2  0
 10 11  1  0
 10 12  1  0
 12 13  2  0
  5 14  1  0
 14 15  1  0
 15 16  2  0
 15 17  1  0
 17 18  1  0
 18 19  1  0
 19 20  1  0
 19 21  1  0
 21 22  1  0
 22 23  1  0
 23 24  2  0
 23 25  1  0
 25 26  1  0
 26 27  1  0
 27 28  2  0
 27 29  1  0
 29 30  2  0
 30 31  1  0
 31 32  2  0
 32 33  1  0
 33 34  2  0
 34 35  1  0
 34 36  1  0
 36 37  2  0
 37 38  1  0
 38 39  2  0
 13  7  1  0
 22 17  1  0
 39 29  1  0
 38 32  1  0
  1 40  1  0
  1 41  1  0
  1 42  1  0
  3 43  1  0
  3 44  1  0
  3 45  1  0
  4 46  1  0
  4 47  1  0
  4 48  1  0
  5 49  1  1
  6 50  1  0
  6 51  1  0
  8 52  1  0
  9 53  1  0
 12 54  1  0
 13 55  1  0
 14 56  1  0
 17 57  1  6
 18 58  1  0
 18 59  1  0
 19 60  1  1
 21 61  1  0
 21 62  1  0
 25 63  1  0
 25 64  1  0
 26 65  1  0
 30 66  1  0
 31 67  1  0
 33 68  1  0
 36 69  1  0
 37 70  1  0
M  END
>  <smiles>  (36) 
CC(C)(C)C(Cc1ccc(F)cc1)NC(=O)[C@@H]1C[C@@H](F)CN1C(=O)CNC(=O)c1ccc2cc(F)ccc2n1

>  <score_type>  (36) 
oracle

>  <origin>  (36) 
autodockgpu

>  <m_score__min__energy>  (36) 
-9.5999999999999996

>  <m_primary>  (36) 
energy

>  <meeko>  (36) 
{"free_energy": -7.64, "intermolecular_energy": -10.32, "internal_energy": -3.89, "cluster_size": 7, "cluster_id": 2, "rank_in_cluster": 7}

>  <energy>  (36) 
-7.35

>  <cluster_rmsd>  (36) 
0.0

>  <rmsd>  (36) 
270.25

>  <cluster>  (36) 
7

$$$$

     RDKit          3D

 70 73  0  0  1  0  0  0  0  0999 V2000
  140.3280   75.7980  218.7250 C   0  0  0  0  0  0  0  0  0  0  0  0
  140.8210   77.1780  218.3910 C   0  0  0  0  0  0  0  0  0  0  0  0
  141.1320   77.1920  216.9000 C   0  0  0  0  0  0  0  0  0  0  0  0
  139.6020   78.1260  218.5260 C   0  0  0  0  0  0  0  0  0  0  0  0
  141.9490   77.6680  219.2170 C   0  0  1  0  0  0  0  0  0  0  0  0
  141.8310   78.9210  219.9670 C   0  0  0  0  0  0  0  0  0  0  0  0
  142.0160   80.1900  219.2530 C   0  0  0  0  0  0  0  0  0  0  0  0
  141.3730   81.3120  219.7270 C   0  0  0  0  0  0  0  0  0  0  0  0
  141.4440   82.5510  219.1130 C   0  0  0  0  0  0  0  0  0  0  0  0
  142.1950   82.6790  217.9650 C   0  0  0  0  0  0  0  0  0  0  0  0
  142.2770   83.8890  217.3460 F   0  0  0  0  0  0  0  0  0  0  0  0
  142.8610   81.5720  217.4540 C   0  0  0  0  0  0  0  0  0  0  0  0
  142.7600   80.3520  218.1040 C   0  0  0  0  0  0  0  0  0  0  0  0
  142.4580   76.5640  220.0690 N   0  0  0  0  0  0  0  0  0  0  0  0
  143.3140   75.5640  219.4740 C   0  0  0  0  0  0  0  0  0  0  0  0
  143.6300   75.6050  218.2640 O   0  0  0  0  0  0  0  0  0  0  0  0
  143.7800   74.4960  220.4110 C   0  0  2  0  0  0  0  0  0  0  0  0
  145.1910   74.1160  220.1660 C   0  0  0  0  0  0  0  0  0  0  0  0
  145.1460   72.6680  219.7380 C   0  0  1  0  0  0  0  0  0  0  0  0
  146.1840   71.9160  220.2430 F   0  0  0  0  0  0  0  0  0  0  0  0
  143.8790   72.1010  220.3420 C   0  0  0  0  0  0  0  0  0  0  0  0
  143.0360   73.2750  220.3150 N   0  0  0  0  0  0  0  0  0  0  0  0
  141.6000   73.1680  220.2140 C   0  0  0  0  0  0  0  0  0  0  0  0
  141.0340   72.7520  219.1690 O   0  0  0  0  0  0  0  0  0  0  0  0
  140.7080   73.5430  221.3450 C   0  0  0  0  0  0  0  0  0  0  0  0
  140.9270   74.8810  221.7970 N   0  0  0  0  0  0  0  0  0  0  0  0
  139.8770   75.7950  221.9950 C   0  0  0  0  0  0  0  0  0  0  0  0
  138.6800   75.4430  221.7760 O   0  0  0  0  0  0  0  0  0  0  0  0
  140.1380   77.1560  222.4580 C   0  0  0  0  0  0  0  0  0  0  0  0
  139.0850   77.9940  222.8270 C   0  0  0  0  0  0  0  0  0  0  0  0
  139.3370   79.2920  223.2970 C   0  0  0  0  0  0  0  0  0  0  0  0
  140.6500   79.7290  223.3890 C   0  0  0  0  0  0  0  0  0  0  0  0
  140.9450   81.0230  223.8490 C   0  0  0  0  0  0  0  0  0  0  0  0
  142.2880   81.4280  223.9250 C   0  0  0  0  0  0  0  0  0  0  0  0
  142.5640   82.6810  224.3710 F   0  0  0  0  0  0  0  0  0  0  0  0
  143.3100   80.5620  223.5460 C   0  0  0  0  0  0  0  0  0  0  0  0
  143.0130   79.2960  223.0960 C   0  0  0  0  0  0  0  0  0  0  0  0
  141.6820   78.8790  223.0170 C   0  0  0  0  0  0  0  0  0  0  0  0
  141.3830   77.6260  222.5670 N   0  0  0  0  0  0  0  0  0  0  0  0
  140.2853   75.6784  219.8176 H   0  0  0  0  0  0  0  0  0  0  0  0
  139.3232   75.6550  218.3009 H   0  0  0  0  0  0  0  0  0  0  0  0
  141.0148   75.0507  218.3009 H   0  0  0  0  0  0  0  0  0  0  0  0
  142.2210   77.2410  216.7530 H   0  0  0  0  0  0  0  0  0  0  0  0
  140.7402   76.2753  216.4351 H   0  0  0  0  0  0  0  0  0  0  0  0
  140.6594   78.0698  216.4351 H   0  0  0  0  0  0  0  0  0  0  0  0
  139.3850   78.2948  219.5911 H   0  0  0  0  0  0  0  0  0  0  0  0
  139.8294   79.0869  218.0414 H   0  0  0  0  0  0  0  0  0  0  0  0
  138.7266   77.6690  218.0414 H   0  0  0  0  0  0  0  0  0  0  0  0
  142.6722   77.9856  218.4514 H   0  0  0  0  0  0  0  0  0  0  0  0
  140.8231   78.9411  220.4072 H   0  0  0  0  0  0  0  0  0  0  0  0
  142.6717   78.8883  220.6756 H   0  0  0  0  0  0  0  0  0  0  0  0
  140.7706   81.2187  220.6427 H   0  0  0  0  0  0  0  0  0  0  0  0
  140.9111   83.4165  219.5337 H   0  0  0  0  0  0  0  0  0  0  0  0
  143.4648   81.6632  216.5391 H   0  0  0  0  0  0  0  0  0  0  0  0
  143.2918   79.4833  217.6887 H   0  0  0  0  0  0  0  0  0  0  0  0
  142.2030   76.5130  221.0850 H   0  0  0  0  0  0  0  0  0  0  0  0
  143.6398   74.9511  221.4026 H   0  0  0  0  0  0  0  0  0  0  0  0
  145.6253   74.7394  219.3706 H   0  0  0  0  0  0  0  0  0  0  0  0
  145.8153   74.2598  221.0601 H   0  0  0  0  0  0  0  0  0  0  0  0
  145.2022   72.6281  218.6402 H   0  0  0  0  0  0  0  0  0  0  0  0
  143.4641   71.2872  219.7291 H   0  0  0  0  0  0  0  0  0  0  0  0
  144.0047   71.6456  221.3354 H   0  0  0  0  0  0  0  0  0  0  0  0
  139.6627   73.4490  221.0155 H   0  0  0  0  0  0  0  0  0  0  0  0
  140.9311   72.8671  222.1837 H   0  0  0  0  0  0  0  0  0  0  0  0
  141.9260   75.1990  222.0010 H   0  0  0  0  0  0  0  0  0  0  0  0
  138.0485   77.6340  222.7488 H   0  0  0  0  0  0  0  0  0  0  0  0
  138.5066   79.9522  223.5877 H   0  0  0  0  0  0  0  0  0  0  0  0
  140.1372   81.7084  224.1450 H   0  0  0  0  0  0  0  0  0  0  0  0
  144.3580   80.8907  223.6065 H   0  0  0  0  0  0  0  0  0  0  0  0
  143.8226   78.6132  222.7988 H   0  0  0  0  0  0  0  0  0  0  0  0
  1  2  1  0
  2  3  1  0
  2  4  1  0
  2  5  1  0
  5  6  1  0
  6  7  1  0
  7  8  2  0
  8  9  1  0
  9 10  2  0
 10 11  1  0
 10 12  1  0
 12 13  2  0
  5 14  1  0
 14 15  1  0
 15 16  2  0
 15 17  1  0
 17 18  1  0
 18 19  1  0
 19 20  1  0
 19 21  1  0
 21 22  1  0
 22 23  1  0
 23 24  2  0
 23 25  1  0
 25 26  1  0
 26 27  1  0
 27 28  2  0
 27 29  1  0
 29 30  2  0
 30 31  1  0
 31 32  2  0
 32 33  1  0
 33 34  2  0
 34 35  1  0
 34 36  1  0
 36 37  2  0
 37 38  1  0
 38 39  2  0
 13  7  1  0
 22 17  1  0
 39 29  1  0
 38 32  1  0
  1 40  1  0
  1 41  1  0
  1 42  1  0
  3 43  1  0
  3 44  1  0
  3 45  1  0
  4 46  1  0
  4 47  1  0
  4 48  1  0
  5 49  1  6
  6 50  1  0
  6 51  1  0
  8 52  1  0
  9 53  1  0
 12 54  1  0
 13 55  1  0
 14 56  1  0
 17 57  1  1
 18 58  1  0
 18 59  1  0
 19 60  1  6
 21 61  1  0
 21 62  1  0
 25 63  1  0
 25 64  1  0
 26 65  1  0
 30 66  1  0
 31 67  1  0
 33 68  1  0
 36 69  1  0
 37 70  1  0
M  END
>  <smiles>  (37) 
CC(C)(C)C(Cc1ccc(F)cc1)NC(=O)[C@@H]1C[C@@H](F)CN1C(=O)CNC(=O)c1ccc2cc(F)ccc2n1

>  <score_type>  (37) 
oracle

>  <origin>  (37) 
autodockgpu

>  <m_score__min__energy>  (37) 
-9.5999999999999996

>  <m_primary>  (37) 
energy

>  <meeko>  (37) 
{"free_energy": -7.08, "intermolecular_energy": -9.77, "internal_energy": -4.87, "cluster_size": 3, "cluster_id": 8, "rank_in_cluster": 1}

>  <energy>  (37) 
-7.08

>  <cluster_rmsd>  (37) 
0.0

>  <rmsd>  (37) 
270.94

>  <cluster>  (37) 
8

$$$$

     RDKit          3D

 70 73  0  0  1  0  0  0  0  0999 V2000
  141.7290   81.5100  221.5650 C   0  0  0  0  0  0  0  0  0  0  0  0
  141.8620   80.5150  222.6830 C   0  0  0  0  0  0  0  0  0  0  0  0
  143.3270   80.1040  222.7450 C   0  0  0  0  0  0  0  0  0  0  0  0
  141.6390   81.3010  224.0010 C   0  0  0  0  0  0  0  0  0  0  0  0
  140.9440   79.3540  222.6140 C   0  0  1  0  0  0  0  0  0  0  0  0
  139.5890   79.5090  222.0810 C   0  0  0  0  0  0  0  0  0  0  0  0
  138.7400   78.3170  221.9570 C   0  0  0  0  0  0  0  0  0  0  0  0
  138.4640   77.5860  223.0900 C   0  0  0  0  0  0  0  0  0  0  0  0
  137.7070   76.4250  223.0870 C   0  0  0  0  0  0  0  0  0  0  0  0
  137.2000   75.9700  221.8890 C   0  0  0  0  0  0  0  0  0  0  0  0
  136.4540   74.8310  221.8640 F   0  0  0  0  0  0  0  0  0  0  0  0
  137.4540   76.6800  220.7230 C   0  0  0  0  0  0  0  0  0  0  0  0
  138.2160   77.8370  220.7770 C   0  0  0  0  0  0  0  0  0  0  0  0
  141.6480   78.2000  221.9990 N   0  0  0  0  0  0  0  0  0  0  0  0
  141.7580   78.1390  220.5600 C   0  0  0  0  0  0  0  0  0  0  0  0
  141.2740   79.0280  219.8250 O   0  0  0  0  0  0  0  0  0  0  0  0
  142.4870   76.9430  220.0350 C   0  0  2  0  0  0  0  0  0  0  0  0
  142.8990   77.1180  218.6220 C   0  0  0  0  0  0  0  0  0  0  0  0
  142.1460   76.0570  217.8540 C   0  0  1  0  0  0  0  0  0  0  0  0
  142.8900   75.4800  216.8470 F   0  0  0  0  0  0  0  0  0  0  0  0
  141.8570   74.9560  218.8510 C   0  0  0  0  0  0  0  0  0  0  0  0
  141.7150   75.7370  220.0590 N   0  0  0  0  0  0  0  0  0  0  0  0
  140.8790   75.2920  221.1480 C   0  0  0  0  0  0  0  0  0  0  0  0
  141.0390   75.7090  222.3260 O   0  0  0  0  0  0  0  0  0  0  0  0
  139.7760   74.3150  220.9370 C   0  0  0  0  0  0  0  0  0  0  0  0
  139.5860   73.4500  222.0600 N   0  0  0  0  0  0  0  0  0  0  0  0
  140.4190   72.3480  222.3160 C   0  0  0  0  0  0  0  0  0  0  0  0
  141.3860   72.0890  221.5390 O   0  0  0  0  0  0  0  0  0  0  0  0
  140.1970   71.4850  223.4740 C   0  0  0  0  0  0  0  0  0  0  0  0
  139.5210   70.2730  223.3380 C   0  0  0  0  0  0  0  0  0  0  0  0
  139.3310   69.4320  224.4450 C   0  0  0  0  0  0  0  0  0  0  0  0
  139.8250   69.8280  225.6800 C   0  0  0  0  0  0  0  0  0  0  0  0
  139.6510   69.0190  226.8150 C   0  0  0  0  0  0  0  0  0  0  0  0
  140.1640   69.4560  228.0460 C   0  0  0  0  0  0  0  0  0  0  0  0
  139.9920   68.6680  229.1390 F   0  0  0  0  0  0  0  0  0  0  0  0
  140.8310   70.6740  228.1420 C   0  0  0  0  0  0  0  0  0  0  0  0
  140.9980   71.4620  227.0260 C   0  0  0  0  0  0  0  0  0  0  0  0
  140.4940   71.0380  225.7940 C   0  0  0  0  0  0  0  0  0  0  0  0
  140.6530   71.8180  224.6850 N   0  0  0  0  0  0  0  0  0  0  0  0
  141.5943   82.5177  221.9851 H   0  0  0  0  0  0  0  0  0  0  0  0
  142.6379   81.4894  220.9457 H   0  0  0  0  0  0  0  0  0  0  0  0
  140.8574   81.2514  220.9457 H   0  0  0  0  0  0  0  0  0  0  0  0
  143.6391   80.0164  223.7962 H   0  0  0  0  0  0  0  0  0  0  0  0
  143.4575   79.1346  222.2418 H   0  0  0  0  0  0  0  0  0  0  0  0
  143.9427   80.8641  222.2418 H   0  0  0  0  0  0  0  0  0  0  0  0
  141.8269   80.6388  224.8591 H   0  0  0  0  0  0  0  0  0  0  0  0
  142.3300   82.1560  224.0394 H   0  0  0  0  0  0  0  0  0  0  0  0
  140.6019   81.6657  224.0394 H   0  0  0  0  0  0  0  0  0  0  0  0
  140.7002   79.1911  223.6742 H   0  0  0  0  0  0  0  0  0  0  0  0
  139.0612   80.2156  222.7383 H   0  0  0  0  0  0  0  0  0  0  0  0
  139.7459   79.8348  221.0421 H   0  0  0  0  0  0  0  0  0  0  0  0
  138.8660   77.9425  224.0499 H   0  0  0  0  0  0  0  0  0  0  0  0
  137.5148   75.8779  224.0218 H   0  0  0  0  0  0  0  0  0  0  0  0
  137.0528   76.3264  219.7617 H   0  0  0  0  0  0  0  0  0  0  0  0
  138.4086   78.3904  219.8460 H   0  0  0  0  0  0  0  0  0  0  0  0
  142.0590   77.4450  222.5990 H   0  0  0  0  0  0  0  0  0  0  0  0
  143.3506   76.8559  220.7107 H   0  0  0  0  0  0  0  0  0  0  0  0
  142.6260   78.1210  218.2623 H   0  0  0  0  0  0  0  0  0  0  0  0
  143.9875   77.0208  218.4967 H   0  0  0  0  0  0  0  0  0  0  0  0
  141.2597   76.5214  217.3971 H   0  0  0  0  0  0  0  0  0  0  0  0
  140.9315   74.4152  218.6041 H   0  0  0  0  0  0  0  0  0  0  0  0
  142.6198   74.1650  218.8995 H   0  0  0  0  0  0  0  0  0  0  0  0
  138.8432   74.8698  220.7577 H   0  0  0  0  0  0  0  0  0  0  0  0
  140.0466   73.6877  220.0749 H   0  0  0  0  0  0  0  0  0  0  0  0
  138.7860   73.6540  222.7370 H   0  0  0  0  0  0  0  0  0  0  0  0
  139.1329   69.9733  222.3533 H   0  0  0  0  0  0  0  0  0  0  0  0
  138.7995   68.4751  224.3358 H   0  0  0  0  0  0  0  0  0  0  0  0
  139.1210   68.0580  226.7401 H   0  0  0  0  0  0  0  0  0  0  0  0
  141.2259   71.0078  229.1129 H   0  0  0  0  0  0  0  0  0  0  0  0
  141.5270   72.4233  227.1039 H   0  0  0  0  0  0  0  0  0  0  0  0
  1  2  1  0
  2  3  1  0
  2  4  1  0
  2  5  1  0
  5  6  1  0
  6  7  1  0
  7  8  2  0
  8  9  1  0
  9 10  2  0
 10 11  1  0
 10 12  1  0
 12 13  2  0
  5 14  1  0
 14 15  1  0
 15 16  2  0
 15 17  1  0
 17 18  1  0
 18 19  1  0
 19 20  1  0
 19 21  1  0
 21 22  1  0
 22 23  1  0
 23 24  2  0
 23 25  1  0
 25 26  1  0
 26 27  1  0
 27 28  2  0
 27 29  1  0
 29 30  2  0
 30 31  1  0
 31 32  2  0
 32 33  1  0
 33 34  2  0
 34 35  1  0
 34 36  1  0
 36 37  2  0
 37 38  1  0
 38 39  2  0
 13  7  1  0
 22 17  1  0
 39 29  1  0
 38 32  1  0
  1 40  1  0
  1 41  1  0
  1 42  1  0
  3 43  1  0
  3 44  1  0
  3 45  1  0
  4 46  1  0
  4 47  1  0
  4 48  1  0
  5 49  1  1
  6 50  1  0
  6 51  1  0
  8 52  1  0
  9 53  1  0
 12 54  1  0
 13 55  1  0
 14 56  1  0
 17 57  1  1
 18 58  1  0
 18 59  1  0
 19 60  1  6
 21 61  1  0
 21 62  1  0
 25 63  1  0
 25 64  1  0
 26 65  1  0
 30 66  1  0
 31 67  1  0
 33 68  1  0
 36 69  1  0
 37 70  1  0
M  END
>  <smiles>  (38) 
CC(C)(C)C(Cc1ccc(F)cc1)NC(=O)[C@@H]1C[C@@H](F)CN1C(=O)CNC(=O)c1ccc2cc(F)ccc2n1

>  <score_type>  (38) 
oracle

>  <origin>  (38) 
autodockgpu

>  <m_score__min__energy>  (38) 
-9.5999999999999996

>  <m_primary>  (38) 
energy

>  <meeko>  (38) 
{"free_energy": -9.18, "intermolecular_energy": -11.86, "internal_energy": -3.7, "cluster_size": 4, "cluster_id": 1, "rank_in_cluster": 2}

>  <energy>  (38) 
-6.25

>  <cluster_rmsd>  (38) 
1.63

>  <rmsd>  (38) 
270.44

>  <cluster>  (38) 
8

$$$$

     RDKit          3D

 70 73  0  0  1  0  0  0  0  0999 V2000
  139.3010   70.9270  220.6840 C   0  0  0  0  0  0  0  0  0  0  0  0
  139.9960   71.6690  221.7900 C   0  0  0  0  0  0  0  0  0  0  0  0
  141.4930   71.5630  221.5280 C   0  0  0  0  0  0  0  0  0  0  0  0
  139.6850   73.1720  221.5770 C   0  0  0  0  0  0  0  0  0  0  0  0
  139.6250   71.2560  223.1640 C   0  0  1  0  0  0  0  0  0  0  0  0
  140.5230   71.5260  224.2890 C   0  0  0  0  0  0  0  0  0  0  0  0
  140.4270   70.6810  225.4860 C   0  0  0  0  0  0  0  0  0  0  0  0
  140.4970   71.2820  226.7230 C   0  0  0  0  0  0  0  0  0  0  0  0
  140.4560   70.5810  227.9170 C   0  0  0  0  0  0  0  0  0  0  0  0
  140.3400   69.2090  227.8760 C   0  0  0  0  0  0  0  0  0  0  0  0
  140.2990   68.5010  229.0380 F   0  0  0  0  0  0  0  0  0  0  0  0
  140.2650   68.5640  226.6470 C   0  0  0  0  0  0  0  0  0  0  0  0
  140.3100   69.3090  225.4790 C   0  0  0  0  0  0  0  0  0  0  0  0
  138.2350   71.6890  223.4550 N   0  0  0  0  0  0  0  0  0  0  0  0
  137.2970   70.7200  223.9720 C   0  0  0  0  0  0  0  0  0  0  0  0
  137.6270   69.5300  224.1750 O   0  0  0  0  0  0  0  0  0  0  0  0
  135.9250   71.2500  224.2380 C   0  0  2  0  0  0  0  0  0  0  0  0
  134.9600   70.1680  224.5480 C   0  0  0  0  0  0  0  0  0  0  0  0
  133.9420   70.2110  223.4320 C   0  0  1  0  0  0  0  0  0  0  0  0
  132.6520   69.9790  223.8610 F   0  0  0  0  0  0  0  0  0  0  0  0
  133.9650   71.6320  222.9100 C   0  0  0  0  0  0  0  0  0  0  0  0
  135.3550   71.9630  223.1340 N   0  0  0  0  0  0  0  0  0  0  0  0
  136.0400   72.9280  222.3090 C   0  0  0  0  0  0  0  0  0  0  0  0
  136.7840   72.5810  221.3540 O   0  0  0  0  0  0  0  0  0  0  0  0
  135.9010   74.3920  222.5410 C   0  0  0  0  0  0  0  0  0  0  0  0
  137.1640   75.0520  222.6540 N   0  0  0  0  0  0  0  0  0  0  0  0
  137.2990   76.4480  222.5770 C   0  0  0  0  0  0  0  0  0  0  0  0
  136.2760   77.1760  222.4060 O   0  0  0  0  0  0  0  0  0  0  0  0
  138.6060   77.0900  222.6980 C   0  0  0  0  0  0  0  0  0  0  0  0
  139.7680   76.4070  222.3380 C   0  0  0  0  0  0  0  0  0  0  0  0
  141.0210   77.0320  222.4290 C   0  0  0  0  0  0  0  0  0  0  0  0
  141.0860   78.3410  222.8850 C   0  0  0  0  0  0  0  0  0  0  0  0
  142.3210   79.0010  222.9960 C   0  0  0  0  0  0  0  0  0  0  0  0
  142.3440   80.3250  223.4640 C   0  0  0  0  0  0  0  0  0  0  0  0
  143.5420   80.9560  223.5690 F   0  0  0  0  0  0  0  0  0  0  0  0
  141.1620   80.9710  223.8150 C   0  0  0  0  0  0  0  0  0  0  0  0
  139.9560   80.3180  223.7040 C   0  0  0  0  0  0  0  0  0  0  0  0
  139.9180   79.0020  223.2380 C   0  0  0  0  0  0  0  0  0  0  0  0
  138.7250   78.3480  223.1300 N   0  0  0  0  0  0  0  0  0  0  0  0
  138.6094   70.1887  221.1159 H   0  0  0  0  0  0  0  0  0  0  0  0
  138.7368   71.6385  220.0631 H   0  0  0  0  0  0  0  0  0  0  0  0
  140.0478   70.4105  220.0631 H   0  0  0  0  0  0  0  0  0  0  0  0
  142.0312   71.5249  222.4866 H   0  0  0  0  0  0  0  0  0  0  0  0
  141.7009   70.6479  220.9541 H   0  0  0  0  0  0  0  0  0  0  0  0
  141.8278   72.4397  220.9541 H   0  0  0  0  0  0  0  0  0  0  0  0
  139.5825   73.6672  222.5538 H   0  0  0  0  0  0  0  0  0  0  0  0
  140.5054   73.6398  221.0130 H   0  0  0  0  0  0  0  0  0  0  0  0
  138.7463   73.2759  221.0130 H   0  0  0  0  0  0  0  0  0  0  0  0
  139.7304   70.1624  223.1104 H   0  0  0  0  0  0  0  0  0  0  0  0
  141.5520   71.4360  223.9108 H   0  0  0  0  0  0  0  0  0  0  0  0
  140.2187   72.5229  224.6405 H   0  0  0  0  0  0  0  0  0  0  0  0
  140.5905   72.3772  226.7652 H   0  0  0  0  0  0  0  0  0  0  0  0
  140.5149   71.1099  228.8797 H   0  0  0  0  0  0  0  0  0  0  0  0
  140.1705   67.4690  226.6016 H   0  0  0  0  0  0  0  0  0  0  0  0
  140.2502   68.7861  224.5131 H   0  0  0  0  0  0  0  0  0  0  0  0
  137.9400   72.6820  223.2900 H   0  0  0  0  0  0  0  0  0  0  0  0
  136.0761   71.9272  225.0916 H   0  0  0  0  0  0  0  0  0  0  0  0
  135.4681   69.1926  224.5688 H   0  0  0  0  0  0  0  0  0  0  0  0
  134.4934   70.3045  225.5347 H   0  0  0  0  0  0  0  0  0  0  0  0
  134.1997   69.4357  222.6955 H   0  0  0  0  0  0  0  0  0  0  0  0
  133.7017   71.6786  221.8430 H   0  0  0  0  0  0  0  0  0  0  0  0
  133.2452   72.3119  223.3892 H   0  0  0  0  0  0  0  0  0  0  0  0
  135.3478   74.8315  221.6979 H   0  0  0  0  0  0  0  0  0  0  0  0
  135.3663   74.5297  223.4924 H   0  0  0  0  0  0  0  0  0  0  0  0
  138.0410   74.4620  222.8110 H   0  0  0  0  0  0  0  0  0  0  0  0
  139.7013   75.3692  221.9796 H   0  0  0  0  0  0  0  0  0  0  0  0
  141.9366   76.4932  222.1436 H   0  0  0  0  0  0  0  0  0  0  0  0
  143.2550   78.4892  222.7208 H   0  0  0  0  0  0  0  0  0  0  0  0
  141.1922   82.0074  224.1825 H   0  0  0  0  0  0  0  0  0  0  0  0
  139.0237   80.8314  223.9817 H   0  0  0  0  0  0  0  0  0  0  0  0
  1  2  1  0
  2  3  1  0
  2  4  1  0
  2  5  1  0
  5  6  1  0
  6  7  1  0
  7  8  2  0
  8  9  1  0
  9 10  2  0
 10 11  1  0
 10 12  1  0
 12 13  2  0
  5 14  1  0
 14 15  1  0
 15 16  2  0
 15 17  1  0
 17 18  1  0
 18 19  1  0
 19 20  1  0
 19 21  1  0
 21 22  1  0
 22 23  1  0
 23 24  2  0
 23 25  1  0
 25 26  1  0
 26 27  1  0
 27 28  2  0
 27 29  1  0
 29 30  2  0
 30 31  1  0
 31 32  2  0
 32 33  1  0
 33 34  2  0
 34 35  1  0
 34 36  1  0
 36 37  2  0
 37 38  1  0
 38 39  2  0
 13  7  1  0
 22 17  1  0
 39 29  1  0
 38 32  1  0
  1 40  1  0
  1 41  1  0
  1 42  1  0
  3 43  1  0
  3 44  1  0
  3 45  1  0
  4 46  1  0
  4 47  1  0
  4 48  1  0
  5 49  1  6
  6 50  1  0
  6 51  1  0
  8 52  1  0
  9 53  1  0
 12 54  1  0
 13 55  1  0
 14 56  1  0
 17 57  1  1
 18 58  1  0
 18 59  1  0
 19 60  1  6
 21 61  1  0
 21 62  1  0
 25 63  1  0
 25 64  1  0
 26 65  1  0
 30 66  1  0
 31 67  1  0
 33 68  1  0
 36 69  1  0
 37 70  1  0
M  END
>  <smiles>  (39) 
CC(C)(C)C(Cc1ccc(F)cc1)NC(=O)[C@@H]1C[C@@H](F)CN1C(=O)CNC(=O)c1ccc2cc(F)ccc2n1

>  <score_type>  (39) 
oracle

>  <origin>  (39) 
autodockgpu

>  <m_score__min__energy>  (39) 
-9.5999999999999996

>  <m_primary>  (39) 
energy

>  <meeko>  (39) 
{"free_energy": -8.64, "intermolecular_energy": -11.32, "internal_energy": -3.2, "cluster_size": 1, "cluster_id": 3, "rank_in_cluster": 1}

>  <energy>  (39) 
-6.19

>  <cluster_rmsd>  (39) 
1.57

>  <rmsd>  (39) 
270.5

>  <cluster>  (39) 
8

$$$$

     RDKit          3D

 70 73  0  0  1  0  0  0  0  0999 V2000
  139.4880   77.0890  219.8500 C   0  0  0  0  0  0  0  0  0  0  0  0
  139.9890   76.0340  220.7960 C   0  0  0  0  0  0  0  0  0  0  0  0
  139.7810   74.6870  220.1140 C   0  0  0  0  0  0  0  0  0  0  0  0
  141.5300   76.1880  220.8540 C   0  0  0  0  0  0  0  0  0  0  0  0
  139.4150   76.0780  222.1610 C   0  0  1  0  0  0  0  0  0  0  0  0
  138.9440   77.3440  222.7280 C   0  0  0  0  0  0  0  0  0  0  0  0
  139.9310   78.3810  223.0530 C   0  0  0  0  0  0  0  0  0  0  0  0
  139.5000   79.6810  223.1890 C   0  0  0  0  0  0  0  0  0  0  0  0
  140.3460   80.7450  223.4570 C   0  0  0  0  0  0  0  0  0  0  0  0
  141.6940   80.4980  223.5960 C   0  0  0  0  0  0  0  0  0  0  0  0
  142.5430   81.5300  223.8580 F   0  0  0  0  0  0  0  0  0  0  0  0
  142.1710   79.2000  223.4680 C   0  0  0  0  0  0  0  0  0  0  0  0
  141.2840   78.1680  223.2000 C   0  0  0  0  0  0  0  0  0  0  0  0
  138.4040   75.0000  222.3110 N   0  0  0  0  0  0  0  0  0  0  0  0
  137.0460   75.2560  221.8910 C   0  0  0  0  0  0  0  0  0  0  0  0
  136.7030   76.3590  221.4110 O   0  0  0  0  0  0  0  0  0  0  0  0
  136.1030   74.1100  222.0770 C   0  0  2  0  0  0  0  0  0  0  0  0
  135.6770   73.9630  223.4900 C   0  0  0  0  0  0  0  0  0  0  0  0
  136.2060   72.6170  223.9270 C   0  0  1  0  0  0  0  0  0  0  0  0
  135.3370   71.9290  224.7460 F   0  0  0  0  0  0  0  0  0  0  0  0
  136.3360   71.7970  222.6620 C   0  0  0  0  0  0  0  0  0  0  0  0
  136.6550   72.8390  221.7130 N   0  0  0  0  0  0  0  0  0  0  0  0
  137.4390   72.5680  220.5330 C   0  0  0  0  0  0  0  0  0  0  0  0
  137.3630   73.2860  219.5010 O   0  0  0  0  0  0  0  0  0  0  0  0
  138.3880   71.4220  220.4720 C   0  0  0  0  0  0  0  0  0  0  0  0
  138.7530   70.9430  221.7690 N   0  0  0  0  0  0  0  0  0  0  0  0
  139.6070   71.6560  222.6270 C   0  0  0  0  0  0  0  0  0  0  0  0
  140.0840   72.7720  222.2640 O   0  0  0  0  0  0  0  0  0  0  0  0
  139.9580   71.1360  223.9470 C   0  0  0  0  0  0  0  0  0  0  0  0
  140.6890   71.9140  224.8450 C   0  0  0  0  0  0  0  0  0  0  0  0
  141.0030   71.4250  226.1220 C   0  0  0  0  0  0  0  0  0  0  0  0
  140.5760   70.1540  226.4770 C   0  0  0  0  0  0  0  0  0  0  0  0
  140.8740   69.6250  227.7440 C   0  0  0  0  0  0  0  0  0  0  0  0
  140.4260   68.3330  228.0630 C   0  0  0  0  0  0  0  0  0  0  0  0
  140.7180   67.8290  229.2900 F   0  0  0  0  0  0  0  0  0  0  0  0
  139.7000   67.5880  227.1380 C   0  0  0  0  0  0  0  0  0  0  0  0
  139.4110   68.1120  225.8990 C   0  0  0  0  0  0  0  0  0  0  0  0
  139.8500   69.3970  225.5680 C   0  0  0  0  0  0  0  0  0  0  0  0
  139.5710   69.9200  224.3390 N   0  0  0  0  0  0  0  0  0  0  0  0
  139.0858   77.9360  220.4251 H   0  0  0  0  0  0  0  0  0  0  0  0
  140.3171   77.4368  219.2163 H   0  0  0  0  0  0  0  0  0  0  0  0
  138.6945   76.6663  219.2163 H   0  0  0  0  0  0  0  0  0  0  0  0
  139.6601   73.9043  220.8774 H   0  0  0  0  0  0  0  0  0  0  0  0
  138.8788   74.7293  219.4862 H   0  0  0  0  0  0  0  0  0  0  0  0
  140.6540   74.4552  219.4862 H   0  0  0  0  0  0  0  0  0  0  0  0
  141.8560   76.2206  221.9041 H   0  0  0  0  0  0  0  0  0  0  0  0
  142.0032   75.3327  220.3495 H   0  0  0  0  0  0  0  0  0  0  0  0
  141.8246   77.1201  220.3495 H   0  0  0  0  0  0  0  0  0  0  0  0
  140.3047   75.9205  222.7884 H   0  0  0  0  0  0  0  0  0  0  0  0
  138.2411   77.7816  222.0038 H   0  0  0  0  0  0  0  0  0  0  0  0
  138.5237   77.0598  223.7040 H   0  0  0  0  0  0  0  0  0  0  0  0
  138.4250   79.8865  223.0789 H   0  0  0  0  0  0  0  0  0  0  0  0
  139.9493   81.7661  223.5567 H   0  0  0  0  0  0  0  0  0  0  0  0
  143.2454   78.9917  223.5785 H   0  0  0  0  0  0  0  0  0  0  0  0
  141.6743   77.1443  223.1014 H   0  0  0  0  0  0  0  0  0  0  0  0
  138.6730   74.0690  222.7130 H   0  0  0  0  0  0  0  0  0  0  0  0
  135.2625   74.3639  221.4144 H   0  0  0  0  0  0  0  0  0  0  0  0
  136.1071   74.7652  224.1077 H   0  0  0  0  0  0  0  0  0  0  0  0
  134.5844   74.0294  223.5983 H   0  0  0  0  0  0  0  0  0  0  0  0
  137.1423   72.7742  224.4826 H   0  0  0  0  0  0  0  0  0  0  0  0
  137.1442   71.0548  222.7390 H   0  0  0  0  0  0  0  0  0  0  0  0
  135.4495   71.1973  222.4079 H   0  0  0  0  0  0  0  0  0  0  0  0
  137.9144   70.6013  219.9134 H   0  0  0  0  0  0  0  0  0  0  0  0
  139.3046   71.7734  219.9756 H   0  0  0  0  0  0  0  0  0  0  0  0
  138.3540   70.0110  222.1040 H   0  0  0  0  0  0  0  0  0  0  0  0
  141.0222   72.9198  224.5493 H   0  0  0  0  0  0  0  0  0  0  0  0
  141.5784   72.0395  226.8300 H   0  0  0  0  0  0  0  0  0  0  0  0
  141.4489   70.2134  228.4742 H   0  0  0  0  0  0  0  0  0  0  0  0
  139.3559   66.5762  227.3986 H   0  0  0  0  0  0  0  0  0  0  0  0
  138.8359   67.5211  225.1709 H   0  0  0  0  0  0  0  0  0  0  0  0
  1  2  1  0
  2  3  1  0
  2  4  1  0
  2  5  1  0
  5  6  1  0
  6  7  1  0
  7  8  2  0
  8  9  1  0
  9 10  2  0
 10 11  1  0
 10 12  1  0
 12 13  2  0
  5 14  1  0
 14 15  1  0
 15 16  2  0
 15 17  1  0
 17 18  1  0
 18 19  1  0
 19 20  1  0
 19 21  1  0
 21 22  1  0
 22 23  1  0
 23 24  2  0
 23 25  1  0
 25 26  1  0
 26 27  1  0
 27 28  2  0
 27 29  1  0
 29 30  2  0
 30 31  1  0
 31 32  2  0
 32 33  1  0
 33 34  2  0
 34 35  1  0
 34 36  1  0
 36 37  2  0
 37 38  1  0
 38 39  2  0
 13  7  1  0
 22 17  1  0
 39 29  1  0
 38 32  1  0
  1 40  1  0
  1 41  1  0
  1 42  1  0
  3 43  1  0
  3 44  1  0
  3 45  1  0
  4 46  1  0
  4 47  1  0
  4 48  1  0
  5 49  1  1
  6 50  1  0
  6 51  1  0
  8 52  1  0
  9 53  1  0
 12 54  1  0
 13 55  1  0
 14 56  1  0
 17 57  1  6
 18 58  1  0
 18 59  1  0
 19 60  1  1
 21 61  1  0
 21 62  1  0
 25 63  1  0
 25 64  1  0
 26 65  1  0
 30 66  1  0
 31 67  1  0
 33 68  1  0
 36 69  1  0
 37 70  1  0
M  END
>  <smiles>  (40) 
CC(C)(C)C(Cc1ccc(F)cc1)NC(=O)[C@@H]1C[C@@H](F)CN1C(=O)CNC(=O)c1ccc2cc(F)ccc2n1

>  <score_type>  (40) 
oracle

>  <origin>  (40) 
autodockgpu

>  <m_score__min__energy>  (40) 
-9.5999999999999996

>  <m_primary>  (40) 
energy

>  <meeko>  (40) 
{"free_energy": -8.18, "intermolecular_energy": -10.86, "internal_energy": -3.75, "cluster_size": 7, "cluster_id": 2, "rank_in_cluster": 5}

>  <energy>  (40) 
-6.77

>  <cluster_rmsd>  (40) 
0.0

>  <rmsd>  (40) 
270.48

>  <cluster>  (40) 
9

$$$$
