
     RDKit          3D

 64 67  0  0  0  0  0  0  0  0999 V2000
  141.0380   77.1400  222.7650 C   0  0  0  0  0  0  0  0  0  0  0  0
  140.5140   77.2450  221.3610 C   0  0  0  0  0  0  0  0  0  0  0  0
  141.4820   76.4390  220.4900 C   0  0  0  0  0  0  0  0  0  0  0  0
  140.6170   78.6740  220.8780 C   0  0  0  0  0  0  0  0  0  0  0  0
  141.1890   79.5490  221.9340 C   0  0  0  0  0  0  0  0  0  0  0  0
  140.3210   80.2380  222.7590 C   0  0  0  0  0  0  0  0  0  0  0  0
  140.7800   81.0660  223.7560 C   0  0  0  0  0  0  0  0  0  0  0  0
  142.1480   81.2040  223.9280 C   0  0  0  0  0  0  0  0  0  0  0  0
  142.5650   82.0210  224.9130 F   0  0  0  0  0  0  0  0  0  0  0  0
  143.0240   80.5100  223.0990 C   0  0  0  0  0  0  0  0  0  0  0  0
  142.5430   79.6930  222.1120 C   0  0  0  0  0  0  0  0  0  0  0  0
  139.2110   76.6830  221.1650 N   0  0  0  0  0  0  0  0  0  0  0  0
  138.1450   77.1750  221.9710 C   0  0  0  0  0  0  0  0  0  0  0  0
  138.3160   78.0670  222.8260 O   0  0  0  0  0  0  0  0  0  0  0  0
  136.8000   76.5940  221.7680 C   0  0  2  0  0  0  0  0  0  0  0  0
  135.7230   77.3290  222.5000 C   0  0  0  0  0  0  0  0  0  0  0  0
  135.4430   76.4560  223.6850 C   0  0  0  0  0  0  0  0  0  0  0  0
  136.1980   75.1770  223.4850 C   0  0  0  0  0  0  0  0  0  0  0  0
  136.7140   75.2100  222.1120 N   0  0  0  0  0  0  0  0  0  0  0  0
  137.0290   74.0340  221.3730 C   0  0  0  0  0  0  0  0  0  0  0  0
  136.0970   73.4090  220.8070 O   0  0  0  0  0  0  0  0  0  0  0  0
  138.4520   73.6220  221.3220 C   0  0  0  0  0  0  0  0  0  0  0  0
  138.8000   72.7310  222.4050 N   0  0  0  0  0  0  0  0  0  0  0  0
  138.6490   71.3290  222.3680 C   0  0  0  0  0  0  0  0  0  0  0  0
  138.1810   70.7680  221.3430 O   0  0  0  0  0  0  0  0  0  0  0  0
  139.0530   70.5540  223.5600 C   0  0  0  0  0  0  0  0  0  0  0  0
  138.8210   69.1940  223.6420 C   0  0  0  0  0  0  0  0  0  0  0  0
  139.1960   68.4680  224.7550 C   0  0  0  0  0  0  0  0  0  0  0  0
  139.8140   69.0930  225.8070 C   0  0  0  0  0  0  0  0  0  0  0  0
  140.2300   68.4780  226.9530 C   0  0  0  0  0  0  0  0  0  0  0  0
  140.8520   69.1760  227.9840 C   0  0  0  0  0  0  0  0  0  0  0  0
  141.2650   68.5770  229.1200 F   0  0  0  0  0  0  0  0  0  0  0  0
  141.0680   70.5510  227.8600 C   0  0  0  0  0  0  0  0  0  0  0  0
  140.6510   71.1580  226.7110 C   0  0  0  0  0  0  0  0  0  0  0  0
  140.0340   70.4520  225.6950 C   0  0  0  0  0  0  0  0  0  0  0  0
  139.6620   71.1490  224.6060 N   0  0  0  0  0  0  0  0  0  0  0  0
  140.2155   77.3048  223.4766 H   0  0  0  0  0  0  0  0  0  0  0  0
  141.4646   76.1385  222.9232 H   0  0  0  0  0  0  0  0  0  0  0  0
  141.8175   77.8998  222.9232 H   0  0  0  0  0  0  0  0  0  0  0  0
  142.1670   75.8686  221.1345 H   0  0  0  0  0  0  0  0  0  0  0  0
  140.9124   75.7445  219.8550 H   0  0  0  0  0  0  0  0  0  0  0  0
  142.0618   77.1249  219.8550 H   0  0  0  0  0  0  0  0  0  0  0  0
  141.2660   78.7086  219.9906 H   0  0  0  0  0  0  0  0  0  0  0  0
  139.6082   79.0353  220.6295 H   0  0  0  0  0  0  0  0  0  0  0  0
  139.2368   80.1213  222.6147 H   0  0  0  0  0  0  0  0  0  0  0  0
  140.0755   81.6080  224.4040 H   0  0  0  0  0  0  0  0  0  0  0  0
  144.1098   80.6187  223.2378 H   0  0  0  0  0  0  0  0  0  0  0  0
  143.2428   79.1503  221.4596 H   0  0  0  0  0  0  0  0  0  0  0  0
  139.0030   75.9210  220.4510 H   0  0  0  0  0  0  0  0  0  0  0  0
  136.6391   76.6993  220.6849 H   0  0  0  0  0  0  0  0  0  0  0  0
  136.0719   78.3226  222.8179 H   0  0  0  0  0  0  0  0  0  0  0  0
  134.8314   77.5082  221.8811 H   0  0  0  0  0  0  0  0  0  0  0  0
  135.7811   76.9525  224.6065 H   0  0  0  0  0  0  0  0  0  0  0  0
  134.3645   76.2609  223.7786 H   0  0  0  0  0  0  0  0  0  0  0  0
  137.0294   75.1100  224.2022 H   0  0  0  0  0  0  0  0  0  0  0  0
  135.5504   74.3026  223.6463 H   0  0  0  0  0  0  0  0  0  0  0  0
  138.6385   73.1090  220.3670 H   0  0  0  0  0  0  0  0  0  0  0  0
  139.0699   74.5271  221.4168 H   0  0  0  0  0  0  0  0  0  0  0  0
  139.1950   73.1730  223.2760 H   0  0  0  0  0  0  0  0  0  0  0  0
  138.3278   68.6798  222.8039 H   0  0  0  0  0  0  0  0  0  0  0  0
  138.9986   67.3867  224.7976 H   0  0  0  0  0  0  0  0  0  0  0  0
  140.0682   67.3957  227.0650 H   0  0  0  0  0  0  0  0  0  0  0  0
  141.5573   71.1245  228.6610 H   0  0  0  0  0  0  0  0  0  0  0  0
  140.8103   72.2396  226.5898 H   0  0  0  0  0  0  0  0  0  0  0  0
  1  2  1  0
  2  3  1  0
  2  4  1  0
  4  5  1  0
  5  6  2  0
  6  7  1  0
  7  8  2  0
  8  9  1  0
  8 10  1  0
 10 11  2  0
  2 12  1  0
 12 13  1  0
 13 14  2  0
 13 15  1  0
 15 16  1  0
 16 17  1  0
 17 18  1  0
 18 19  1  0
 19 20  1  0
 20 21  2  0
 20 22  1  0
 22 23  1  0
 23 24  1  0
 24 25  2  0
 24 26  1  0
 26 27  2  0
 27 28  1  0
 28 29  2  0
 29 30  1  0
 30 31  2  0
 31 32  1  0
 31 33  1  0
 33 34  2  0
 34 35  1  0
 35 36  2  0
 11  5  1  0
 19 15  1  0
 36 26  1  0
 35 29  1  0
  1 37  1  0
  1 38  1  0
  1 39  1  0
  3 40  1  0
  3 41  1  0
  3 42  1  0
  4 43  1  0
  4 44  1  0
  6 45  1  0
  7 46  1  0
 10 47  1  0
 11 48  1  0
 12 49  1  0
 15 50  1  6
 16 51  1  0
 16 52  1  0
 17 53  1  0
 17 54  1  0
 18 55  1  0
 18 56  1  0
 22 57  1  0
 22 58  1  0
 23 59  1  0
 27 60  1  0
 28 61  1  0
 30 62  1  0
 33 63  1  0
 34 64  1  0
M  END
>  <smiles>  (1) 
CC(C)(Cc1ccc(F)cc1)NC(=O)[C@@H]1CCCN1C(=O)CNC(=O)c1ccc2cc(F)ccc2n1

>  <score_type>  (1) 
oracle

>  <origin>  (1) 
autodockgpu

>  <m_score__min__energy>  (1) 
-8.7799999999999994

>  <m_primary>  (1) 
energy

>  <meeko>  (1) 
{"free_energy": -8.24, "intermolecular_energy": -10.62, "internal_energy": -2.28, "cluster_size": 2, "cluster_id": 4, "rank_in_cluster": 1}

>  <energy>  (1) 
-8.78

>  <cluster_rmsd>  (1) 
0.0

>  <rmsd>  (1) 
270.21

>  <cluster>  (1) 
1

$$$$

     RDKit          3D

 64 67  0  0  0  0  0  0  0  0999 V2000
  139.3690   78.1450  220.8190 C   0  0  0  0  0  0  0  0  0  0  0  0
  139.8660   76.8310  221.3520 C   0  0  0  0  0  0  0  0  0  0  0  0
  138.6160   75.9980  221.6500 C   0  0  0  0  0  0  0  0  0  0  0  0
  140.5490   77.0410  222.6840 C   0  0  0  0  0  0  0  0  0  0  0  0
  140.9230   78.4670  222.8680 C   0  0  0  0  0  0  0  0  0  0  0  0
  142.1270   78.9040  222.3510 C   0  0  0  0  0  0  0  0  0  0  0  0
  142.5370   80.2100  222.4840 C   0  0  0  0  0  0  0  0  0  0  0  0
  141.7140   81.0990  223.1540 C   0  0  0  0  0  0  0  0  0  0  0  0
  142.1440   82.3700  223.2670 F   0  0  0  0  0  0  0  0  0  0  0  0
  140.5000   80.6620  223.6760 C   0  0  0  0  0  0  0  0  0  0  0  0
  140.1140   79.3570  223.5320 C   0  0  0  0  0  0  0  0  0  0  0  0
  140.6610   76.0740  220.4310 N   0  0  0  0  0  0  0  0  0  0  0  0
  141.1390   74.8010  220.8520 C   0  0  0  0  0  0  0  0  0  0  0  0
  140.8860   74.3370  221.9830 O   0  0  0  0  0  0  0  0  0  0  0  0
  141.9590   74.0210  219.9000 C   0  0  2  0  0  0  0  0  0  0  0  0
  142.9100   73.0830  220.5710 C   0  0  0  0  0  0  0  0  0  0  0  0
  144.2320   73.7810  220.4620 C   0  0  0  0  0  0  0  0  0  0  0  0
  144.0360   74.9670  219.5660 C   0  0  0  0  0  0  0  0  0  0  0  0
  142.6970   74.8290  218.9820 N   0  0  0  0  0  0  0  0  0  0  0  0
  142.3270   75.4260  217.7430 C   0  0  0  0  0  0  0  0  0  0  0  0
  141.2200   75.1210  217.2330 O   0  0  0  0  0  0  0  0  0  0  0  0
  143.2850   76.3780  217.1320 C   0  0  0  0  0  0  0  0  0  0  0  0
  142.9050   77.7540  217.3570 N   0  0  0  0  0  0  0  0  0  0  0  0
  142.5640   78.2940  218.6140 C   0  0  0  0  0  0  0  0  0  0  0  0
  142.5760   77.5670  219.6420 O   0  0  0  0  0  0  0  0  0  0  0  0
  142.1980   79.7250  218.6800 C   0  0  0  0  0  0  0  0  0  0  0  0
  142.8440   80.6660  217.8990 C   0  0  0  0  0  0  0  0  0  0  0  0
  142.5050   82.0030  217.9600 C   0  0  0  0  0  0  0  0  0  0  0  0
  141.5090   82.4220  218.8040 C   0  0  0  0  0  0  0  0  0  0  0  0
  141.0900   83.7130  218.9450 C   0  0  0  0  0  0  0  0  0  0  0  0
  140.0710   84.0690  219.8230 C   0  0  0  0  0  0  0  0  0  0  0  0
  139.6510   85.3430  219.9700 F   0  0  0  0  0  0  0  0  0  0  0  0
  139.4440   83.0870  220.5940 C   0  0  0  0  0  0  0  0  0  0  0  0
  139.8680   81.7980  220.4460 C   0  0  0  0  0  0  0  0  0  0  0  0
  140.8820   81.4590  219.5700 C   0  0  0  0  0  0  0  0  0  0  0  0
  141.2220   80.1590  219.5030 N   0  0  0  0  0  0  0  0  0  0  0  0
  139.1176   78.8097  221.6586 H   0  0  0  0  0  0  0  0  0  0  0  0
  140.1529   78.6113  220.2041 H   0  0  0  0  0  0  0  0  0  0  0  0
  138.4727   77.9759  220.2041 H   0  0  0  0  0  0  0  0  0  0  0  0
  138.4846   75.9105  222.7386 H   0  0  0  0  0  0  0  0  0  0  0  0
  137.7347   76.4900  221.2127 H   0  0  0  0  0  0  0  0  0  0  0  0
  138.7308   74.9952  221.2127 H   0  0  0  0  0  0  0  0  0  0  0  0
  139.8645   76.7410  223.4912 H   0  0  0  0  0  0  0  0  0  0  0  0
  141.4640   76.4311  222.7103 H   0  0  0  0  0  0  0  0  0  0  0  0
  142.7737   78.1900  221.8199 H   0  0  0  0  0  0  0  0  0  0  0  0
  143.4992   80.5414  222.0665 H   0  0  0  0  0  0  0  0  0  0  0  0
  139.8469   81.3698  224.2075 H   0  0  0  0  0  0  0  0  0  0  0  0
  139.1536   79.0198  223.9489 H   0  0  0  0  0  0  0  0  0  0  0  0
  140.9100   76.4160  219.4540 H   0  0  0  0  0  0  0  0  0  0  0  0
  141.2124   73.4401  219.3386 H   0  0  0  0  0  0  0  0  0  0  0  0
  142.6327   72.9300  221.6244 H   0  0  0  0  0  0  0  0  0  0  0  0
  142.9167   72.0826  220.1137 H   0  0  0  0  0  0  0  0  0  0  0  0
  144.5666   74.1114  221.4564 H   0  0  0  0  0  0  0  0  0  0  0  0
  144.9972   73.1052  220.0526 H   0  0  0  0  0  0  0  0  0  0  0  0
  144.1031   75.8983  220.1476 H   0  0  0  0  0  0  0  0  0  0  0  0
  144.8092   75.0083  218.7847 H   0  0  0  0  0  0  0  0  0  0  0  0
  144.2801   76.2091  217.5694 H   0  0  0  0  0  0  0  0  0  0  0  0
  143.2902   76.2021  216.0462 H   0  0  0  0  0  0  0  0  0  0  0  0
  142.8870   78.3860  216.5140 H   0  0  0  0  0  0  0  0  0  0  0  0
  143.6434   80.3429  217.2160 H   0  0  0  0  0  0  0  0  0  0  0  0
  143.0348   82.7332  217.3306 H   0  0  0  0  0  0  0  0  0  0  0  0
  141.5736   84.4979  218.3449 H   0  0  0  0  0  0  0  0  0  0  0  0
  138.6368   83.3436  221.2958 H   0  0  0  0  0  0  0  0  0  0  0  0
  139.3890   81.0064  221.0409 H   0  0  0  0  0  0  0  0  0  0  0  0
  1  2  1  0
  2  3  1  0
  2  4  1  0
  4  5  1  0
  5  6  2  0
  6  7  1  0
  7  8  2  0
  8  9  1  0
  8 10  1  0
 10 11  2  0
  2 12  1  0
 12 13  1  0
 13 14  2  0
 13 15  1  0
 15 16  1  0
 16 17  1  0
 17 18  1  0
 18 19  1  0
 19 20  1  0
 20 21  2  0
 20 22  1  0
 22 23  1  0
 23 24  1  0
 24 25  2  0
 24 26  1  0
 26 27  2  0
 27 28  1  0
 28 29  2  0
 29 30  1  0
 30 31  2  0
 31 32  1  0
 31 33  1  0
 33 34  2  0
 34 35  1  0
 35 36  2  0
 11  5  1  0
 19 15  1  0
 36 26  1  0
 35 29  1  0
  1 37  1  0
  1 38  1  0
  1 39  1  0
  3 40  1  0
  3 41  1  0
  3 42  1  0
  4 43  1  0
  4 44  1  0
  6 45  1  0
  7 46  1  0
 10 47  1  0
 11 48  1  0
 12 49  1  0
 15 50  1  6
 16 51  1  0
 16 52  1  0
 17 53  1  0
 17 54  1  0
 18 55  1  0
 18 56  1  0
 22 57  1  0
 22 58  1  0
 23 59  1  0
 27 60  1  0
 28 61  1  0
 30 62  1  0
 33 63  1  0
 34 64  1  0
M  END
>  <smiles>  (2) 
CC(C)(Cc1ccc(F)cc1)NC(=O)[C@@H]1CCCN1C(=O)CNC(=O)c1ccc2cc(F)ccc2n1

>  <score_type>  (2) 
oracle

>  <origin>  (2) 
autodockgpu

>  <m_score__min__energy>  (2) 
-8.7799999999999994

>  <m_primary>  (2) 
energy

>  <meeko>  (2) 
{"free_energy": -6.63, "intermolecular_energy": -9.02, "internal_energy": -4.46, "cluster_size": 1, "cluster_id": 7, "rank_in_cluster": 1}

>  <energy>  (2) 
-8.76

>  <cluster_rmsd>  (2) 
1.72

>  <rmsd>  (2) 
270.41

>  <cluster>  (2) 
1

$$$$

     RDKit          3D

 64 67  0  0  0  0  0  0  0  0999 V2000
  142.9410   80.4700  222.5380 C   0  0  0  0  0  0  0  0  0  0  0  0
  141.6390   79.7220  222.4950 C   0  0  0  0  0  0  0  0  0  0  0  0
  140.7490   80.4830  221.5090 C   0  0  0  0  0  0  0  0  0  0  0  0
  140.9450   79.8180  223.8350 C   0  0  0  0  0  0  0  0  0  0  0  0
  139.4750   79.6620  223.6830 C   0  0  0  0  0  0  0  0  0  0  0  0
  138.6550   80.6640  224.1630 C   0  0  0  0  0  0  0  0  0  0  0  0
  137.2860   80.5860  224.0560 C   0  0  0  0  0  0  0  0  0  0  0  0
  136.7290   79.4730  223.4500 C   0  0  0  0  0  0  0  0  0  0  0  0
  135.3870   79.4270  223.3600 F   0  0  0  0  0  0  0  0  0  0  0  0
  137.5540   78.4620  222.9640 C   0  0  0  0  0  0  0  0  0  0  0  0
  138.9130   78.5620  223.0830 C   0  0  0  0  0  0  0  0  0  0  0  0
  141.7380   78.3760  222.0140 N   0  0  0  0  0  0  0  0  0  0  0  0
  141.9930   78.1820  220.6270 C   0  0  0  0  0  0  0  0  0  0  0  0
  142.1300   79.1370  219.8360 O   0  0  0  0  0  0  0  0  0  0  0  0
  142.0960   76.7920  220.1310 C   0  0  2  0  0  0  0  0  0  0  0  0
  142.5790   76.7040  218.7190 C   0  0  0  0  0  0  0  0  0  0  0  0
  141.3320   76.4280  217.9350 C   0  0  0  0  0  0  0  0  0  0  0  0
  140.2360   76.1620  218.9220 C   0  0  0  0  0  0  0  0  0  0  0  0
  140.8780   76.0530  220.2370 N   0  0  0  0  0  0  0  0  0  0  0  0
  140.3070   75.3290  221.3210 C   0  0  0  0  0  0  0  0  0  0  0  0
  140.3960   75.8060  222.4800 O   0  0  0  0  0  0  0  0  0  0  0  0
  139.6370   74.0450  221.0050 C   0  0  0  0  0  0  0  0  0  0  0  0
  139.6390   73.1370  222.1300 N   0  0  0  0  0  0  0  0  0  0  0  0
  139.6940   71.7320  222.0240 C   0  0  0  0  0  0  0  0  0  0  0  0
  139.7440   71.1820  220.8920 O   0  0  0  0  0  0  0  0  0  0  0  0
  139.6900   70.9400  223.2710 C   0  0  0  0  0  0  0  0  0  0  0  0
  139.1800   69.6550  223.3020 C   0  0  0  0  0  0  0  0  0  0  0  0
  139.1730   68.9130  224.4670 C   0  0  0  0  0  0  0  0  0  0  0  0
  139.6810   69.4460  225.6240 C   0  0  0  0  0  0  0  0  0  0  0  0
  139.7280   68.8070  226.8290 C   0  0  0  0  0  0  0  0  0  0  0  0
  140.2580   69.4090  227.9660 C   0  0  0  0  0  0  0  0  0  0  0  0
  140.3080   68.7850  229.1620 F   0  0  0  0  0  0  0  0  0  0  0  0
  140.7630   70.7100  227.8910 C   0  0  0  0  0  0  0  0  0  0  0  0
  140.7130   71.3410  226.6830 C   0  0  0  0  0  0  0  0  0  0  0  0
  140.1840   70.7310  225.5610 C   0  0  0  0  0  0  0  0  0  0  0  0
  140.1830   71.4440  224.4200 N   0  0  0  0  0  0  0  0  0  0  0  0
  143.2331   80.6378  223.5852 H   0  0  0  0  0  0  0  0  0  0  0  0
  143.7191   79.8812  222.0302 H   0  0  0  0  0  0  0  0  0  0  0  0
  142.8243   81.4387  222.0302 H   0  0  0  0  0  0  0  0  0  0  0  0
  140.0281   81.0994  222.0662 H   0  0  0  0  0  0  0  0  0  0  0  0
  141.3733   81.1309  220.8762 H   0  0  0  0  0  0  0  0  0  0  0  0
  140.2060   79.7656  220.8762 H   0  0  0  0  0  0  0  0  0  0  0  0
  141.3251   79.0244  224.4951 H   0  0  0  0  0  0  0  0  0  0  0  0
  141.1506   80.8084  224.2672 H   0  0  0  0  0  0  0  0  0  0  0  0
  139.1071   81.5450  224.6420 H   0  0  0  0  0  0  0  0  0  0  0  0
  136.6463   81.3922  224.4443 H   0  0  0  0  0  0  0  0  0  0  0  0
  137.1105   77.5783  222.4819 H   0  0  0  0  0  0  0  0  0  0  0  0
  139.5577   77.7588  222.6968 H   0  0  0  0  0  0  0  0  0  0  0  0
  141.6320   77.5210  222.6390 H   0  0  0  0  0  0  0  0  0  0  0  0
  142.8435   76.3386  220.7986 H   0  0  0  0  0  0  0  0  0  0  0  0
  143.0402   77.6511  218.4022 H   0  0  0  0  0  0  0  0  0  0  0  0
  143.3506   75.9326  218.5791 H   0  0  0  0  0  0  0  0  0  0  0  0
  141.0766   77.2996  217.3144 H   0  0  0  0  0  0  0  0  0  0  0  0
  141.4739   75.5649  217.2679 H   0  0  0  0  0  0  0  0  0  0  0  0
  139.5128   76.9909  218.9196 H   0  0  0  0  0  0  0  0  0  0  0  0
  139.6873   75.2427  218.6694 H   0  0  0  0  0  0  0  0  0  0  0  0
  138.5953   74.2503  220.7173 H   0  0  0  0  0  0  0  0  0  0  0  0
  140.1921   73.5673  220.1843 H   0  0  0  0  0  0  0  0  0  0  0  0
  139.5980   73.5690  223.0900 H   0  0  0  0  0  0  0  0  0  0  0  0
  138.7716   69.2149  222.3803 H   0  0  0  0  0  0  0  0  0  0  0  0
  138.7596   67.8936  224.4668 H   0  0  0  0  0  0  0  0  0  0  0  0
  139.3341   67.7827  226.9038 H   0  0  0  0  0  0  0  0  0  0  0  0
  141.1862   71.2079  228.7759 H   0  0  0  0  0  0  0  0  0  0  0  0
  141.1051   72.3653  226.5990 H   0  0  0  0  0  0  0  0  0  0  0  0
  1  2  1  0
  2  3  1  0
  2  4  1  0
  4  5  1  0
  5  6  2  0
  6  7  1  0
  7  8  2  0
  8  9  1  0
  8 10  1  0
 10 11  2  0
  2 12  1  0
 12 13  1  0
 13 14  2  0
 13 15  1  0
 15 16  1  0
 16 17  1  0
 17 18  1  0
 18 19  1  0
 19 20  1  0
 20 21  2  0
 20 22  1  0
 22 23  1  0
 23 24  1  0
 24 25  2  0
 24 26  1  0
 26 27  2  0
 27 28  1  0
 28 29  2  0
 29 30  1  0
 30 31  2  0
 31 32  1  0
 31 33  1  0
 33 34  2  0
 34 35  1  0
 35 36  2  0
 11  5  1  0
 19 15  1  0
 36 26  1  0
 35 29  1  0
  1 37  1  0
  1 38  1  0
  1 39  1  0
  3 40  1  0
  3 41  1  0
  3 42  1  0
  4 43  1  0
  4 44  1  0
  6 45  1  0
  7 46  1  0
 10 47  1  0
 11 48  1  0
 12 49  1  0
 15 50  1  1
 16 51  1  0
 16 52  1  0
 17 53  1  0
 17 54  1  0
 18 55  1  0
 18 56  1  0
 22 57  1  0
 22 58  1  0
 23 59  1  0
 27 60  1  0
 28 61  1  0
 30 62  1  0
 33 63  1  0
 34 64  1  0
M  END
>  <smiles>  (3) 
CC(C)(Cc1ccc(F)cc1)NC(=O)[C@@H]1CCCN1C(=O)CNC(=O)c1ccc2cc(F)ccc2n1

>  <score_type>  (3) 
oracle

>  <origin>  (3) 
autodockgpu

>  <m_score__min__energy>  (3) 
-8.7799999999999994

>  <m_primary>  (3) 
energy

>  <meeko>  (3) 
{"free_energy": -8.78, "intermolecular_energy": -11.16, "internal_energy": -2.92, "cluster_size": 5, "cluster_id": 1, "rank_in_cluster": 1}

>  <energy>  (3) 
-8.45

>  <cluster_rmsd>  (3) 
1.09

>  <rmsd>  (3) 
269.99

>  <cluster>  (3) 
1

$$$$

     RDKit          3D

 64 67  0  0  0  0  0  0  0  0999 V2000
  140.0570   80.3290  223.4550 C   0  0  0  0  0  0  0  0  0  0  0  0
  140.8300   79.2220  222.7960 C   0  0  0  0  0  0  0  0  0  0  0  0
  141.8200   78.7160  223.8480 C   0  0  0  0  0  0  0  0  0  0  0  0
  141.6720   79.7800  221.6710 C   0  0  0  0  0  0  0  0  0  0  0  0
  141.6370   78.8810  220.4880 C   0  0  0  0  0  0  0  0  0  0  0  0
  142.1950   77.6230  220.6010 C   0  0  0  0  0  0  0  0  0  0  0  0
  142.1990   76.7390  219.5480 C   0  0  0  0  0  0  0  0  0  0  0  0
  141.6250   77.1310  218.3500 C   0  0  0  0  0  0  0  0  0  0  0  0
  141.6450   76.2430  217.3380 F   0  0  0  0  0  0  0  0  0  0  0  0
  141.0620   78.3980  218.2330 C   0  0  0  0  0  0  0  0  0  0  0  0
  141.0710   79.2600  219.2960 C   0  0  0  0  0  0  0  0  0  0  0  0
  140.0370   78.0970  222.3950 N   0  0  0  0  0  0  0  0  0  0  0  0
  138.8640   78.3480  221.6300 C   0  0  0  0  0  0  0  0  0  0  0  0
  138.5150   79.5010  221.3050 O   0  0  0  0  0  0  0  0  0  0  0  0
  138.0470   77.1850  221.2170 C   0  0  2  0  0  0  0  0  0  0  0  0
  136.5800   77.4760  221.1870 C   0  0  0  0  0  0  0  0  0  0  0  0
  136.0680   76.8370  222.4410 C   0  0  0  0  0  0  0  0  0  0  0  0
  137.1940   76.0370  223.0260 C   0  0  0  0  0  0  0  0  0  0  0  0
  138.2590   76.0210  222.0170 N   0  0  0  0  0  0  0  0  0  0  0  0
  139.2470   74.9980  221.9490 C   0  0  0  0  0  0  0  0  0  0  0  0
  140.4420   75.2960  222.1950 O   0  0  0  0  0  0  0  0  0  0  0  0
  138.7920   73.6350  221.5880 C   0  0  0  0  0  0  0  0  0  0  0  0
  139.0820   72.6710  222.6240 N   0  0  0  0  0  0  0  0  0  0  0  0
  138.7260   71.3070  222.5710 C   0  0  0  0  0  0  0  0  0  0  0  0
  138.1110   70.8500  221.5720 O   0  0  0  0  0  0  0  0  0  0  0  0
  139.0970   70.4470  223.7140 C   0  0  0  0  0  0  0  0  0  0  0  0
  138.8350   69.0890  223.7030 C   0  0  0  0  0  0  0  0  0  0  0  0
  139.1790   68.2830  224.7700 C   0  0  0  0  0  0  0  0  0  0  0  0
  139.7930   68.8240  225.8700 C   0  0  0  0  0  0  0  0  0  0  0  0
  140.1780   68.1260  226.9780 C   0  0  0  0  0  0  0  0  0  0  0  0
  140.7990   68.7410  228.0610 C   0  0  0  0  0  0  0  0  0  0  0  0
  141.1820   68.0590  229.1610 F   0  0  0  0  0  0  0  0  0  0  0  0
  141.0450   70.1160  228.0320 C   0  0  0  0  0  0  0  0  0  0  0  0
  140.6580   70.8060  226.9200 C   0  0  0  0  0  0  0  0  0  0  0  0
  140.0420   70.1830  225.8510 C   0  0  0  0  0  0  0  0  0  0  0  0
  139.7010   70.9570  224.8060 N   0  0  0  0  0  0  0  0  0  0  0  0
  140.1288   80.2262  224.5478 H   0  0  0  0  0  0  0  0  0  0  0  0
  140.4745   81.2999  223.1498 H   0  0  0  0  0  0  0  0  0  0  0  0
  139.0018   80.2715  223.1498 H   0  0  0  0  0  0  0  0  0  0  0  0
  141.4225   78.9192  224.8533 H   0  0  0  0  0  0  0  0  0  0  0  0
  141.9658   77.6329  223.7234 H   0  0  0  0  0  0  0  0  0  0  0  0
  142.7833   79.2323  223.7234 H   0  0  0  0  0  0  0  0  0  0  0  0
  141.2819   80.7678  221.3846 H   0  0  0  0  0  0  0  0  0  0  0  0
  142.7123   79.8645  222.0183 H   0  0  0  0  0  0  0  0  0  0  0  0
  142.6475   77.3207  221.5570 H   0  0  0  0  0  0  0  0  0  0  0  0
  142.6488   75.7409  219.6548 H   0  0  0  0  0  0  0  0  0  0  0  0
  140.6071   78.7086  217.2808 H   0  0  0  0  0  0  0  0  0  0  0  0
  140.6233   80.2597  219.1950 H   0  0  0  0  0  0  0  0  0  0  0  0
  140.2830   77.0910  222.6400 H   0  0  0  0  0  0  0  0  0  0  0  0
  138.3968   76.9787  220.1947 H   0  0  0  0  0  0  0  0  0  0  0  0
  136.3945   78.5602  221.1948 H   0  0  0  0  0  0  0  0  0  0  0  0
  136.0871   77.0940  220.2808 H   0  0  0  0  0  0  0  0  0  0  0  0
  135.7462   77.6108  223.1535 H   0  0  0  0  0  0  0  0  0  0  0  0
  135.2036   76.1921  222.2245 H   0  0  0  0  0  0  0  0  0  0  0  0
  137.5545   76.5084  223.9522 H   0  0  0  0  0  0  0  0  0  0  0  0
  136.8690   75.0170  223.2789 H   0  0  0  0  0  0  0  0  0  0  0  0
  137.7053   73.6574  221.4190 H   0  0  0  0  0  0  0  0  0  0  0  0
  139.3319   73.3280  220.6801 H   0  0  0  0  0  0  0  0  0  0  0  0
  139.5970   73.0250  223.4720 H   0  0  0  0  0  0  0  0  0  0  0  0
  138.3427   68.6421  222.8267 H   0  0  0  0  0  0  0  0  0  0  0  0
  138.9601   67.2055  224.7375 H   0  0  0  0  0  0  0  0  0  0  0  0
  139.9914   67.0426  227.0161 H   0  0  0  0  0  0  0  0  0  0  0  0
  141.5336   70.6247  228.8761 H   0  0  0  0  0  0  0  0  0  0  0  0
  140.8417   71.8895  226.8731 H   0  0  0  0  0  0  0  0  0  0  0  0
  1  2  1  0
  2  3  1  0
  2  4  1  0
  4  5  1  0
  5  6  2  0
  6  7  1  0
  7  8  2  0
  8  9  1  0
  8 10  1  0
 10 11  2  0
  2 12  1  0
 12 13  1  0
 13 14  2  0
 13 15  1  0
 15 16  1  0
 16 17  1  0
 17 18  1  0
 18 19  1  0
 19 20  1  0
 20 21  2  0
 20 22  1  0
 22 23  1  0
 23 24  1  0
 24 25  2  0
 24 26  1  0
 26 27  2  0
 27 28  1  0
 28 29  2  0
 29 30  1  0
 30 31  2  0
 31 32  1  0
 31 33  1  0
 33 34  2  0
 34 35  1  0
 35 36  2  0
 11  5  1  0
 19 15  1  0
 36 26  1  0
 35 29  1  0
  1 37  1  0
  1 38  1  0
  1 39  1  0
  3 40  1  0
  3 41  1  0
  3 42  1  0
  4 43  1  0
  4 44  1  0
  6 45  1  0
  7 46  1  0
 10 47  1  0
 11 48  1  0
 12 49  1  0
 15 50  1  6
 16 51  1  0
 16 52  1  0
 17 53  1  0
 17 54  1  0
 18 55  1  0
 18 56  1  0
 22 57  1  0
 22 58  1  0
 23 59  1  0
 27 60  1  0
 28 61  1  0
 30 62  1  0
 33 63  1  0
 34 64  1  0
M  END
>  <smiles>  (4) 
CC(C)(Cc1ccc(F)cc1)NC(=O)[C@@H]1CCCN1C(=O)CNC(=O)c1ccc2cc(F)ccc2n1

>  <score_type>  (4) 
oracle

>  <origin>  (4) 
autodockgpu

>  <m_score__min__energy>  (4) 
-8.7799999999999994

>  <m_primary>  (4) 
energy

>  <meeko>  (4) 
{"free_energy": -7.91, "intermolecular_energy": -10.3, "internal_energy": -3.4, "cluster_size": 1, "cluster_id": 5, "rank_in_cluster": 1}

>  <energy>  (4) 
-7.77

>  <cluster_rmsd>  (4) 
1.17

>  <rmsd>  (4) 
270.11

>  <cluster>  (4) 
1

$$$$

     RDKit          3D

 64 67  0  0  0  0  0  0  0  0999 V2000
  143.1980   76.7520  219.6570 C   0  0  0  0  0  0  0  0  0  0  0  0
  141.8310   77.3080  219.3740 C   0  0  0  0  0  0  0  0  0  0  0  0
  141.6400   77.2050  217.8580 C   0  0  0  0  0  0  0  0  0  0  0  0
  141.7990   78.7850  219.6940 C   0  0  0  0  0  0  0  0  0  0  0  0
  141.1780   79.0260  221.0230 C   0  0  0  0  0  0  0  0  0  0  0  0
  140.0520   79.8220  221.0880 C   0  0  0  0  0  0  0  0  0  0  0  0
  139.4250   80.0870  222.2830 C   0  0  0  0  0  0  0  0  0  0  0  0
  139.9460   79.5360  223.4420 C   0  0  0  0  0  0  0  0  0  0  0  0
  139.3090   79.8140  224.5950 F   0  0  0  0  0  0  0  0  0  0  0  0
  141.0810   78.7320  223.3790 C   0  0  0  0  0  0  0  0  0  0  0  0
  141.6870   78.4840  222.1780 C   0  0  0  0  0  0  0  0  0  0  0  0
  140.7540   76.5830  219.9800 N   0  0  0  0  0  0  0  0  0  0  0  0
  139.4240   76.9540  219.6350 C   0  0  0  0  0  0  0  0  0  0  0  0
  139.1780   77.8780  218.8320 O   0  0  0  0  0  0  0  0  0  0  0  0
  138.3130   76.2040  220.2610 C   0  0  2  0  0  0  0  0  0  0  0  0
  137.0700   77.0190  220.4260 C   0  0  0  0  0  0  0  0  0  0  0  0
  137.0710   77.3740  221.8820 C   0  0  0  0  0  0  0  0  0  0  0  0
  138.1740   76.5910  222.5300 C   0  0  0  0  0  0  0  0  0  0  0  0
  138.6470   75.6320  221.5260 N   0  0  0  0  0  0  0  0  0  0  0  0
  139.2940   74.4100  221.8660 C   0  0  0  0  0  0  0  0  0  0  0  0
  140.5160   74.4350  222.1620 O   0  0  0  0  0  0  0  0  0  0  0  0
  138.4730   73.1760  221.8480 C   0  0  0  0  0  0  0  0  0  0  0  0
  138.8620   72.2470  222.8850 N   0  0  0  0  0  0  0  0  0  0  0  0
  138.4410   70.9030  222.9540 C   0  0  0  0  0  0  0  0  0  0  0  0
  137.6720   70.4330  222.0750 O   0  0  0  0  0  0  0  0  0  0  0  0
  138.9290   70.0780  224.0790 C   0  0  0  0  0  0  0  0  0  0  0  0
  138.7800   68.7040  224.0760 C   0  0  0  0  0  0  0  0  0  0  0  0
  139.2340   67.9310  225.1270 C   0  0  0  0  0  0  0  0  0  0  0  0
  139.8470   68.5230  226.2010 C   0  0  0  0  0  0  0  0  0  0  0  0
  140.3340   67.8610  227.2910 C   0  0  0  0  0  0  0  0  0  0  0  0
  140.9470   68.5270  228.3480 C   0  0  0  0  0  0  0  0  0  0  0  0
  141.4310   67.8810  229.4300 F   0  0  0  0  0  0  0  0  0  0  0  0
  141.0770   69.9180  228.3110 C   0  0  0  0  0  0  0  0  0  0  0  0
  140.5880   70.5720  227.2170 C   0  0  0  0  0  0  0  0  0  0  0  0
  139.9820   69.8980  226.1740 C   0  0  0  0  0  0  0  0  0  0  0  0
  139.5350   70.6390  225.1450 N   0  0  0  0  0  0  0  0  0  0  0  0
  143.3506   76.6899  220.7446 H   0  0  0  0  0  0  0  0  0  0  0  0
  143.2837   75.7476  219.2168 H   0  0  0  0  0  0  0  0  0  0  0  0
  143.9604   77.4115  219.2168 H   0  0  0  0  0  0  0  0  0  0  0  0
  140.6907   76.6931  217.6420 H   0  0  0  0  0  0  0  0  0  0  0  0
  141.6198   78.2145  217.4216 H   0  0  0  0  0  0  0  0  0  0  0  0
  142.4724   76.6335  217.4216 H   0  0  0  0  0  0  0  0  0  0  0  0
  142.8277   79.1744  219.7011 H   0  0  0  0  0  0  0  0  0  0  0  0
  141.1996   79.2980  218.9275 H   0  0  0  0  0  0  0  0  0  0  0  0
  139.6465   80.2548  220.1616 H   0  0  0  0  0  0  0  0  0  0  0  0
  138.5284   80.7233  222.3176 H   0  0  0  0  0  0  0  0  0  0  0  0
  141.4927   78.2938  224.3001 H   0  0  0  0  0  0  0  0  0  0  0  0
  142.5842   77.8489  222.1370 H   0  0  0  0  0  0  0  0  0  0  0  0
  140.9000   75.7860  220.6700 H   0  0  0  0  0  0  0  0  0  0  0  0
  138.1211   75.3908  219.5455 H   0  0  0  0  0  0  0  0  0  0  0  0
  137.1079   77.9236  219.8013 H   0  0  0  0  0  0  0  0  0  0  0  0
  136.1619   76.4798  220.1185 H   0  0  0  0  0  0  0  0  0  0  0  0
  137.2508   78.4520  222.0067 H   0  0  0  0  0  0  0  0  0  0  0  0
  136.1009   77.1352  222.3422 H   0  0  0  0  0  0  0  0  0  0  0  0
  138.9920   77.2627  222.8295 H   0  0  0  0  0  0  0  0  0  0  0  0
  137.8192   76.0773  223.4357 H   0  0  0  0  0  0  0  0  0  0  0  0
  137.4179   73.4501  221.9953 H   0  0  0  0  0  0  0  0  0  0  0  0
  138.6261   72.6823  220.8770 H   0  0  0  0  0  0  0  0  0  0  0  0
  139.5060   72.6130  223.6340 H   0  0  0  0  0  0  0  0  0  0  0  0
  138.2904   68.2165  223.2201 H   0  0  0  0  0  0  0  0  0  0  0  0
  139.1035   66.8390  225.1022 H   0  0  0  0  0  0  0  0  0  0  0  0
  140.2388   66.7660  227.3352 H   0  0  0  0  0  0  0  0  0  0  0  0
  141.5567   70.4668  229.1348 H   0  0  0  0  0  0  0  0  0  0  0  0
  140.6790   71.6670  227.1643 H   0  0  0  0  0  0  0  0  0  0  0  0
  1  2  1  0
  2  3  1  0
  2  4  1  0
  4  5  1  0
  5  6  2  0
  6  7  1  0
  7  8  2  0
  8  9  1  0
  8 10  1  0
 10 11  2  0
  2 12  1  0
 12 13  1  0
 13 14  2  0
 13 15  1  0
 15 16  1  0
 16 17  1  0
 17 18  1  0
 18 19  1  0
 19 20  1  0
 20 21  2  0
 20 22  1  0
 22 23  1  0
 23 24  1  0
 24 25  2  0
 24 26  1  0
 26 27  2  0
 27 28  1  0
 28 29  2  0
 29 30  1  0
 30 31  2  0
 31 32  1  0
 31 33  1  0
 33 34  2  0
 34 35  1  0
 35 36  2  0
 11  5  1  0
 19 15  1  0
 36 26  1  0
 35 29  1  0
  1 37  1  0
  1 38  1  0
  1 39  1  0
  3 40  1  0
  3 41  1  0
  3 42  1  0
  4 43  1  0
  4 44  1  0
  6 45  1  0
  7 46  1  0
 10 47  1  0
 11 48  1  0
 12 49  1  0
 15 50  1  6
 16 51  1  0
 16 52  1  0
 17 53  1  0
 17 54  1  0
 18 55  1  0
 18 56  1  0
 22 57  1  0
 22 58  1  0
 23 59  1  0
 27 60  1  0
 28 61  1  0
 30 62  1  0
 33 63  1  0
 34 64  1  0
M  END
>  <smiles>  (5) 
CC(C)(Cc1ccc(F)cc1)NC(=O)[C@@H]1CCCN1C(=O)CNC(=O)c1ccc2cc(F)ccc2n1

>  <score_type>  (5) 
oracle

>  <origin>  (5) 
autodockgpu

>  <m_score__min__energy>  (5) 
-8.7799999999999994

>  <m_primary>  (5) 
energy

>  <meeko>  (5) 
{"free_energy": -7.64, "intermolecular_energy": -10.03, "internal_energy": -3.67, "cluster_size": 5, "cluster_id": 1, "rank_in_cluster": 5}

>  <energy>  (5) 
-7.64

>  <cluster_rmsd>  (5) 
1.99

>  <rmsd>  (5) 
269.71

>  <cluster>  (5) 
1

$$$$

     RDKit          3D

 64 67  0  0  0  0  0  0  0  0999 V2000
  138.6220   76.4400  220.3960 C   0  0  0  0  0  0  0  0  0  0  0  0
  139.4500   76.9630  221.5350 C   0  0  0  0  0  0  0  0  0  0  0  0
  140.3520   75.8040  221.9660 C   0  0  0  0  0  0  0  0  0  0  0  0
  138.5640   77.2590  222.7230 C   0  0  0  0  0  0  0  0  0  0  0  0
  138.2480   78.7090  222.8000 C   0  0  0  0  0  0  0  0  0  0  0  0
  138.7920   79.4480  223.8320 C   0  0  0  0  0  0  0  0  0  0  0  0
  138.5420   80.7930  223.9650 C   0  0  0  0  0  0  0  0  0  0  0  0
  137.7250   81.4120  223.0340 C   0  0  0  0  0  0  0  0  0  0  0  0
  137.5010   82.7300  223.1910 F   0  0  0  0  0  0  0  0  0  0  0  0
  137.1760   80.6700  221.9920 C   0  0  0  0  0  0  0  0  0  0  0  0
  137.4380   79.3320  221.8820 C   0  0  0  0  0  0  0  0  0  0  0  0
  140.3110   78.0570  221.1950 N   0  0  0  0  0  0  0  0  0  0  0  0
  141.2890   78.4560  222.1480 C   0  0  0  0  0  0  0  0  0  0  0  0
  141.4140   77.8860  223.2510 O   0  0  0  0  0  0  0  0  0  0  0  0
  142.1780   79.5860  221.7950 C   0  0  2  0  0  0  0  0  0  0  0  0
  142.9100   80.1500  222.9700 C   0  0  0  0  0  0  0  0  0  0  0  0
  142.1590   81.4080  223.2840 C   0  0  0  0  0  0  0  0  0  0  0  0
  141.1760   81.6280  222.1730 C   0  0  0  0  0  0  0  0  0  0  0  0
  141.5080   80.6550  221.1260 N   0  0  0  0  0  0  0  0  0  0  0  0
  141.1780   80.8490  219.7550 C   0  0  0  0  0  0  0  0  0  0  0  0
  140.0410   81.2990  219.4650 O   0  0  0  0  0  0  0  0  0  0  0  0
  142.2110   80.5030  218.7500 C   0  0  0  0  0  0  0  0  0  0  0  0
  142.5760   79.1060  218.8010 N   0  0  0  0  0  0  0  0  0  0  0  0
  141.6820   78.0380  218.5820 C   0  0  0  0  0  0  0  0  0  0  0  0
  140.4710   78.2660  218.3200 O   0  0  0  0  0  0  0  0  0  0  0  0
  142.2100   76.6600  218.6680 C   0  0  0  0  0  0  0  0  0  0  0  0
  141.6750   75.6390  217.9050 C   0  0  0  0  0  0  0  0  0  0  0  0
  142.1650   74.3500  217.9850 C   0  0  0  0  0  0  0  0  0  0  0  0
  143.2040   74.0620  218.8330 C   0  0  0  0  0  0  0  0  0  0  0  0
  143.7680   72.8300  218.9930 C   0  0  0  0  0  0  0  0  0  0  0  0
  144.8230   72.6070  219.8740 C   0  0  0  0  0  0  0  0  0  0  0  0
  145.3870   71.3920  220.0390 F   0  0  0  0  0  0  0  0  0  0  0  0
  145.3340   73.6670  220.6270 C   0  0  0  0  0  0  0  0  0  0  0  0
  144.7640   74.8970  220.4600 C   0  0  0  0  0  0  0  0  0  0  0  0
  143.7170   75.1030  219.5820 C   0  0  0  0  0  0  0  0  0  0  0  0
  143.2300   76.3540  219.4950 N   0  0  0  0  0  0  0  0  0  0  0  0
  137.7550   75.8924  220.7941 H   0  0  0  0  0  0  0  0  0  0  0  0
  138.2727   77.2817  219.7799 H   0  0  0  0  0  0  0  0  0  0  0  0
  139.2319   75.7630  219.7799 H   0  0  0  0  0  0  0  0  0  0  0  0
  140.3887   75.7568  223.0644 H   0  0  0  0  0  0  0  0  0  0  0  0
  139.9490   74.8595  221.5717 H   0  0  0  0  0  0  0  0  0  0  0  0
  141.3666   75.9627  221.5717 H   0  0  0  0  0  0  0  0  0  0  0  0
  137.6272   76.6909  222.6242 H   0  0  0  0  0  0  0  0  0  0  0  0
  139.0959   76.9658  223.6401 H   0  0  0  0  0  0  0  0  0  0  0  0
  139.4414   78.9479  224.5656 H   0  0  0  0  0  0  0  0  0  0  0  0
  138.9821   81.3662  224.7943 H   0  0  0  0  0  0  0  0  0  0  0  0
  136.5275   81.1627  221.2526 H   0  0  0  0  0  0  0  0  0  0  0  0
  136.9988   78.7532  221.0561 H   0  0  0  0  0  0  0  0  0  0  0  0
  140.2530   78.5810  220.2700 H   0  0  0  0  0  0  0  0  0  0  0  0
  142.9017   79.1335  221.1012 H   0  0  0  0  0  0  0  0  0  0  0  0
  142.8822   79.4535  223.8210 H   0  0  0  0  0  0  0  0  0  0  0  0
  143.9754   80.3292  222.7633 H   0  0  0  0  0  0  0  0  0  0  0  0
  141.6278   81.3006  224.2412 H   0  0  0  0  0  0  0  0  0  0  0  0
  142.8472   82.2618  223.3706 H   0  0  0  0  0  0  0  0  0  0  0  0
  140.1503   81.4625  222.5345 H   0  0  0  0  0  0  0  0  0  0  0  0
  141.2304   82.6582  221.7912 H   0  0  0  0  0  0  0  0  0  0  0  0
  141.8200   80.7306  217.7473 H   0  0  0  0  0  0  0  0  0  0  0  0
  143.1107   81.0954  218.9729 H   0  0  0  0  0  0  0  0  0  0  0  0
  143.5830   78.8850  219.0180 H   0  0  0  0  0  0  0  0  0  0  0  0
  140.8423   75.8574  217.2203 H   0  0  0  0  0  0  0  0  0  0  0  0
  141.7218   73.5541  217.3684 H   0  0  0  0  0  0  0  0  0  0  0  0
  143.3766   71.9854  218.4070 H   0  0  0  0  0  0  0  0  0  0  0  0
  146.1665   73.5163  221.3300 H   0  0  0  0  0  0  0  0  0  0  0  0
  145.1494   75.7478  221.0410 H   0  0  0  0  0  0  0  0  0  0  0  0
  1  2  1  0
  2  3  1  0
  2  4  1  0
  4  5  1  0
  5  6  2  0
  6  7  1  0
  7  8  2  0
  8  9  1  0
  8 10  1  0
 10 11  2  0
  2 12  1  0
 12 13  1  0
 13 14  2  0
 13 15  1  0
 15 16  1  0
 16 17  1  0
 17 18  1  0
 18 19  1  0
 19 20  1  0
 20 21  2  0
 20 22  1  0
 22 23  1  0
 23 24  1  0
 24 25  2  0
 24 26  1  0
 26 27  2  0
 27 28  1  0
 28 29  2  0
 29 30  1  0
 30 31  2  0
 31 32  1  0
 31 33  1  0
 33 34  2  0
 34 35  1  0
 35 36  2  0
 11  5  1  0
 19 15  1  0
 36 26  1  0
 35 29  1  0
  1 37  1  0
  1 38  1  0
  1 39  1  0
  3 40  1  0
  3 41  1  0
  3 42  1  0
  4 43  1  0
  4 44  1  0
  6 45  1  0
  7 46  1  0
 10 47  1  0
 11 48  1  0
 12 49  1  0
 15 50  1  6
 16 51  1  0
 16 52  1  0
 17 53  1  0
 17 54  1  0
 18 55  1  0
 18 56  1  0
 22 57  1  0
 22 58  1  0
 23 59  1  0
 27 60  1  0
 28 61  1  0
 30 62  1  0
 33 63  1  0
 34 64  1  0
M  END
>  <smiles>  (6) 
CC(C)(Cc1ccc(F)cc1)NC(=O)[C@@H]1CCCN1C(=O)CNC(=O)c1ccc2cc(F)ccc2n1

>  <score_type>  (6) 
oracle

>  <origin>  (6) 
autodockgpu

>  <m_score__min__energy>  (6) 
-8.7799999999999994

>  <m_primary>  (6) 
energy

>  <meeko>  (6) 
{"free_energy": -6.29, "intermolecular_energy": -8.68, "internal_energy": -4.74, "cluster_size": 3, "cluster_id": 9, "rank_in_cluster": 2}

>  <energy>  (6) 
-8.64

>  <cluster_rmsd>  (6) 
0.0

>  <rmsd>  (6) 
270.0

>  <cluster>  (6) 
2

$$$$

     RDKit          3D

 64 67  0  0  0  0  0  0  0  0999 V2000
  141.9220   79.6470  224.2150 C   0  0  0  0  0  0  0  0  0  0  0  0
  141.5760   79.6840  222.7530 C   0  0  0  0  0  0  0  0  0  0  0  0
  142.5880   80.6340  222.1060 C   0  0  0  0  0  0  0  0  0  0  0  0
  140.2230   80.3280  222.5590 C   0  0  0  0  0  0  0  0  0  0  0  0
  139.1910   79.3070  222.2410 C   0  0  0  0  0  0  0  0  0  0  0  0
  138.4950   79.4220  221.0540 C   0  0  0  0  0  0  0  0  0  0  0  0
  137.5270   78.5140  220.6960 C   0  0  0  0  0  0  0  0  0  0  0  0
  137.2530   77.4610  221.5540 C   0  0  0  0  0  0  0  0  0  0  0  0
  136.3010   76.5900  221.1740 F   0  0  0  0  0  0  0  0  0  0  0  0
  137.9540   77.3430  222.7500 C   0  0  0  0  0  0  0  0  0  0  0  0
  138.9120   78.2600  223.0850 C   0  0  0  0  0  0  0  0  0  0  0  0
  141.6970   78.4250  222.0790 N   0  0  0  0  0  0  0  0  0  0  0  0
  141.6600   78.4250  220.6560 C   0  0  0  0  0  0  0  0  0  0  0  0
  141.5290   79.4750  219.9940 O   0  0  0  0  0  0  0  0  0  0  0  0
  141.7850   77.1240  219.9620 C   0  0  2  0  0  0  0  0  0  0  0  0
  141.9710   77.2600  218.4850 C   0  0  0  0  0  0  0  0  0  0  0  0
  140.6200   76.9340  217.9260 C   0  0  0  0  0  0  0  0  0  0  0  0
  139.7810   76.4260  219.0600 C   0  0  0  0  0  0  0  0  0  0  0  0
  140.6890   76.2400  220.1980 N   0  0  0  0  0  0  0  0  0  0  0  0
  140.4230   75.3310  221.2610 C   0  0  0  0  0  0  0  0  0  0  0  0
  141.0670   75.4510  222.3330 O   0  0  0  0  0  0  0  0  0  0  0  0
  139.3920   74.2920  221.0280 C   0  0  0  0  0  0  0  0  0  0  0  0
  139.3390   73.3260  222.1000 N   0  0  0  0  0  0  0  0  0  0  0  0
  140.3400   72.3660  222.3620 C   0  0  0  0  0  0  0  0  0  0  0  0
  141.3680   72.3080  221.6380 O   0  0  0  0  0  0  0  0  0  0  0  0
  140.1390   71.4460  223.5010 C   0  0  0  0  0  0  0  0  0  0  0  0
  139.4650   70.2490  223.3440 C   0  0  0  0  0  0  0  0  0  0  0  0
  139.2750   69.3870  224.4060 C   0  0  0  0  0  0  0  0  0  0  0  0
  139.7580   69.7100  225.6480 C   0  0  0  0  0  0  0  0  0  0  0  0
  139.6310   68.9380  226.7660 C   0  0  0  0  0  0  0  0  0  0  0  0
  140.1470   69.3280  227.9980 C   0  0  0  0  0  0  0  0  0  0  0  0
  140.0260   68.5720  229.1090 F   0  0  0  0  0  0  0  0  0  0  0  0
  140.8210   70.5470  228.1130 C   0  0  0  0  0  0  0  0  0  0  0  0
  140.9450   71.3120  226.9900 C   0  0  0  0  0  0  0  0  0  0  0  0
  140.4270   70.9120  225.7730 C   0  0  0  0  0  0  0  0  0  0  0  0
  140.6050   71.7430  224.7310 N   0  0  0  0  0  0  0  0  0  0  0  0
  141.0032   79.7452  224.8118 H   0  0  0  0  0  0  0  0  0  0  0  0
  142.4125   78.6913  224.4516 H   0  0  0  0  0  0  0  0  0  0  0  0
  142.6035   80.4774  224.4516 H   0  0  0  0  0  0  0  0  0  0  0  0
  143.1497   81.1613  222.8911 H   0  0  0  0  0  0  0  0  0  0  0  0
  143.2853   80.0567  221.4811 H   0  0  0  0  0  0  0  0  0  0  0  0
  142.0559   81.3663  221.4811 H   0  0  0  0  0  0  0  0  0  0  0  0
  139.9380   80.8527  223.4828 H   0  0  0  0  0  0  0  0  0  0  0  0
  140.2876   81.0360  221.7196 H   0  0  0  0  0  0  0  0  0  0  0  0
  138.7206   80.2604  220.3786 H   0  0  0  0  0  0  0  0  0  0  0  0
  136.9807   78.6212  219.7473 H   0  0  0  0  0  0  0  0  0  0  0  0
  137.7363   76.5067  223.4307 H   0  0  0  0  0  0  0  0  0  0  0  0
  139.4605   78.1586  224.0331 H   0  0  0  0  0  0  0  0  0  0  0  0
  141.8120   77.4970  222.5880 H   0  0  0  0  0  0  0  0  0  0  0  0
  142.6926   76.6863  220.4032 H   0  0  0  0  0  0  0  0  0  0  0  0
  142.2684   78.2853  218.2198 H   0  0  0  0  0  0  0  0  0  0  0  0
  142.7639   76.6061  218.0930 H   0  0  0  0  0  0  0  0  0  0  0  0
  140.1631   77.8367  217.4942 H   0  0  0  0  0  0  0  0  0  0  0  0
  140.6989   76.1787  217.1302 H   0  0  0  0  0  0  0  0  0  0  0  0
  138.9998   77.1580  219.3126 H   0  0  0  0  0  0  0  0  0  0  0  0
  139.2788   75.4844  218.7932 H   0  0  0  0  0  0  0  0  0  0  0  0
  138.4100   74.7803  220.9423 H   0  0  0  0  0  0  0  0  0  0  0  0
  139.6550   73.7566  220.1037 H   0  0  0  0  0  0  0  0  0  0  0  0
  138.4900   73.3510  222.7230 H   0  0  0  0  0  0  0  0  0  0  0  0
  139.0721   69.9778  222.3530 H   0  0  0  0  0  0  0  0  0  0  0  0
  138.7356   68.4402  224.2554 H   0  0  0  0  0  0  0  0  0  0  0  0
  139.1034   67.9757  226.6908 H   0  0  0  0  0  0  0  0  0  0  0  0
  141.2372   70.8783  229.0758 H   0  0  0  0  0  0  0  0  0  0  0  0
  141.4726   72.2750  227.0554 H   0  0  0  0  0  0  0  0  0  0  0  0
  1  2  1  0
  2  3  1  0
  2  4  1  0
  4  5  1  0
  5  6  2  0
  6  7  1  0
  7  8  2  0
  8  9  1  0
  8 10  1  0
 10 11  2  0
  2 12  1  0
 12 13  1  0
 13 14  2  0
 13 15  1  0
 15 16  1  0
 16 17  1  0
 17 18  1  0
 18 19  1  0
 19 20  1  0
 20 21  2  0
 20 22  1  0
 22 23  1  0
 23 24  1  0
 24 25  2  0
 24 26  1  0
 26 27  2  0
 27 28  1  0
 28 29  2  0
 29 30  1  0
 30 31  2  0
 31 32  1  0
 31 33  1  0
 33 34  2  0
 34 35  1  0
 35 36  2  0
 11  5  1  0
 19 15  1  0
 36 26  1  0
 35 29  1  0
  1 37  1  0
  1 38  1  0
  1 39  1  0
  3 40  1  0
  3 41  1  0
  3 42  1  0
  4 43  1  0
  4 44  1  0
  6 45  1  0
  7 46  1  0
 10 47  1  0
 11 48  1  0
 12 49  1  0
 15 50  1  1
 16 51  1  0
 16 52  1  0
 17 53  1  0
 17 54  1  0
 18 55  1  0
 18 56  1  0
 22 57  1  0
 22 58  1  0
 23 59  1  0
 27 60  1  0
 28 61  1  0
 30 62  1  0
 33 63  1  0
 34 64  1  0
M  END
>  <smiles>  (7) 
CC(C)(Cc1ccc(F)cc1)NC(=O)[C@@H]1CCCN1C(=O)CNC(=O)c1ccc2cc(F)ccc2n1

>  <score_type>  (7) 
oracle

>  <origin>  (7) 
autodockgpu

>  <m_score__min__energy>  (7) 
-8.7799999999999994

>  <m_primary>  (7) 
energy

>  <meeko>  (7) 
{"free_energy": -8.45, "intermolecular_energy": -10.83, "internal_energy": -3.33, "cluster_size": 5, "cluster_id": 1, "rank_in_cluster": 3}

>  <energy>  (7) 
-8.47

>  <cluster_rmsd>  (7) 
1.47

>  <rmsd>  (7) 
270.03

>  <cluster>  (7) 
2

$$$$

     RDKit          3D

 64 67  0  0  0  0  0  0  0  0999 V2000
  138.3120   79.2810  220.8280 C   0  0  0  0  0  0  0  0  0  0  0  0
  138.6790   77.9940  221.5130 C   0  0  0  0  0  0  0  0  0  0  0  0
  137.4360   77.1040  221.4290 C   0  0  0  0  0  0  0  0  0  0  0  0
  138.9100   78.2420  222.9860 C   0  0  0  0  0  0  0  0  0  0  0  0
  140.1770   78.9880  223.2050 C   0  0  0  0  0  0  0  0  0  0  0  0
  140.1060   80.3390  223.4810 C   0  0  0  0  0  0  0  0  0  0  0  0
  141.2370   81.0920  223.6930 C   0  0  0  0  0  0  0  0  0  0  0  0
  142.4720   80.4670  223.6270 C   0  0  0  0  0  0  0  0  0  0  0  0
  143.5600   81.2300  223.8410 F   0  0  0  0  0  0  0  0  0  0  0  0
  142.5460   79.1050  223.3500 C   0  0  0  0  0  0  0  0  0  0  0  0
  141.4060   78.3780  223.1410 C   0  0  0  0  0  0  0  0  0  0  0  0
  139.7510   77.2730  220.8940 N   0  0  0  0  0  0  0  0  0  0  0  0
  140.0750   75.9870  221.4110 C   0  0  0  0  0  0  0  0  0  0  0  0
  139.4580   75.4820  222.3710 O   0  0  0  0  0  0  0  0  0  0  0  0
  141.1810   75.2430  220.7700 C   0  0  2  0  0  0  0  0  0  0  0  0
  142.2430   76.1330  220.2080 C   0  0  0  0  0  0  0  0  0  0  0  0
  141.9670   76.1260  218.7360 C   0  0  0  0  0  0  0  0  0  0  0  0
  140.9150   75.0880  218.4850 C   0  0  0  0  0  0  0  0  0  0  0  0
  140.7530   74.3490  219.7420 N   0  0  0  0  0  0  0  0  0  0  0  0
  140.2590   73.0150  219.7980 C   0  0  0  0  0  0  0  0  0  0  0  0
  140.9480   72.0940  219.2930 O   0  0  0  0  0  0  0  0  0  0  0  0
  138.9490   72.8000  220.4580 C   0  0  0  0  0  0  0  0  0  0  0  0
  139.0550   71.9390  221.6130 N   0  0  0  0  0  0  0  0  0  0  0  0
  139.9380   72.1520  222.6910 C   0  0  0  0  0  0  0  0  0  0  0  0
  140.7100   73.1470  222.6930 O   0  0  0  0  0  0  0  0  0  0  0  0
  139.9260   71.1780  223.8030 C   0  0  0  0  0  0  0  0  0  0  0  0
  139.3680   69.9220  223.6480 C   0  0  0  0  0  0  0  0  0  0  0  0
  139.3540   69.0110  224.6860 C   0  0  0  0  0  0  0  0  0  0  0  0
  139.9000   69.3410  225.8980 C   0  0  0  0  0  0  0  0  0  0  0  0
  139.9440   68.5230  226.9900 C   0  0  0  0  0  0  0  0  0  0  0  0
  140.5160   68.9250  228.1940 C   0  0  0  0  0  0  0  0  0  0  0  0
  140.5630   68.1230  229.2790 F   0  0  0  0  0  0  0  0  0  0  0  0
  141.0690   70.2030  228.3070 C   0  0  0  0  0  0  0  0  0  0  0  0
  141.0220   71.0140  227.2110 C   0  0  0  0  0  0  0  0  0  0  0  0
  140.4510   70.6030  226.0220 C   0  0  0  0  0  0  0  0  0  0  0  0
  140.4580   71.4820  225.0040 N   0  0  0  0  0  0  0  0  0  0  0  0
  138.0929   80.0493  221.5841 H   0  0  0  0  0  0  0  0  0  0  0  0
  139.1510   79.6140  220.1993 H   0  0  0  0  0  0  0  0  0  0  0  0
  137.4236   79.1214  220.1993 H   0  0  0  0  0  0  0  0  0  0  0  0
  137.0921   76.8577  222.4444 H   0  0  0  0  0  0  0  0  0  0  0  0
  136.6386   77.6377  220.8911 H   0  0  0  0  0  0  0  0  0  0  0  0
  137.6843   76.1772  220.8911 H   0  0  0  0  0  0  0  0  0  0  0  0
  138.0717   78.8297  223.3883 H   0  0  0  0  0  0  0  0  0  0  0  0
  138.9797   77.2717  223.4995 H   0  0  0  0  0  0  0  0  0  0  0  0
  139.1205   80.8249  223.5326 H   0  0  0  0  0  0  0  0  0  0  0  0
  141.1629   82.1678  223.9104 H   0  0  0  0  0  0  0  0  0  0  0  0
  143.5270   78.6101  223.2988 H   0  0  0  0  0  0  0  0  0  0  0  0
  141.4738   77.3023  222.9212 H   0  0  0  0  0  0  0  0  0  0  0  0
  140.3130   77.6500  220.0720 H   0  0  0  0  0  0  0  0  0  0  0  0
  141.6023   74.6532  221.5974 H   0  0  0  0  0  0  0  0  0  0  0  0
  142.1602   77.1503  220.6181 H   0  0  0  0  0  0  0  0  0  0  0  0
  143.2597   75.7923  220.4535 H   0  0  0  0  0  0  0  0  0  0  0  0
  141.6048   77.1142  218.4162 H   0  0  0  0  0  0  0  0  0  0  0  0
  142.8818   75.8985  218.1692 H   0  0  0  0  0  0  0  0  0  0  0  0
  139.9669   75.5682  218.2013 H   0  0  0  0  0  0  0  0  0  0  0  0
  141.2052   74.4172  217.6629 H   0  0  0  0  0  0  0  0  0  0  0  0
  138.5492   73.7737  220.7774 H   0  0  0  0  0  0  0  0  0  0  0  0
  138.2815   72.3117  219.7328 H   0  0  0  0  0  0  0  0  0  0  0  0
  138.4210   71.0980  221.6390 H   0  0  0  0  0  0  0  0  0  0  0  0
  138.9270   69.6433  222.6796 H   0  0  0  0  0  0  0  0  0  0  0  0
  138.9034   68.0183  224.5390 H   0  0  0  0  0  0  0  0  0  0  0  0
  139.5135   67.5134  226.9163 H   0  0  0  0  0  0  0  0  0  0  0  0
  141.5266   70.5437  229.2475 H   0  0  0  0  0  0  0  0  0  0  0  0
  141.4513   72.0247  227.2759 H   0  0  0  0  0  0  0  0  0  0  0  0
  1  2  1  0
  2  3  1  0
  2  4  1  0
  4  5  1  0
  5  6  2  0
  6  7  1  0
  7  8  2  0
  8  9  1  0
  8 10  1  0
 10 11  2  0
  2 12  1  0
 12 13  1  0
 13 14  2  0
 13 15  1  0
 15 16  1  0
 16 17  1  0
 17 18  1  0
 18 19  1  0
 19 20  1  0
 20 21  2  0
 20 22  1  0
 22 23  1  0
 23 24  1  0
 24 25  2  0
 24 26  1  0
 26 27  2  0
 27 28  1  0
 28 29  2  0
 29 30  1  0
 30 31  2  0
 31 32  1  0
 31 33  1  0
 33 34  2  0
 34 35  1  0
 35 36  2  0
 11  5  1  0
 19 15  1  0
 36 26  1  0
 35 29  1  0
  1 37  1  0
  1 38  1  0
  1 39  1  0
  3 40  1  0
  3 41  1  0
  3 42  1  0
  4 43  1  0
  4 44  1  0
  6 45  1  0
  7 46  1  0
 10 47  1  0
 11 48  1  0
 12 49  1  0
 15 50  1  1
 16 51  1  0
 16 52  1  0
 17 53  1  0
 17 54  1  0
 18 55  1  0
 18 56  1  0
 22 57  1  0
 22 58  1  0
 23 59  1  0
 27 60  1  0
 28 61  1  0
 30 62  1  0
 33 63  1  0
 34 64  1  0
M  END
>  <smiles>  (8) 
CC(C)(Cc1ccc(F)cc1)NC(=O)[C@@H]1CCCN1C(=O)CNC(=O)c1ccc2cc(F)ccc2n1

>  <score_type>  (8) 
oracle

>  <origin>  (8) 
autodockgpu

>  <m_score__min__energy>  (8) 
-8.7799999999999994

>  <m_primary>  (8) 
energy

>  <meeko>  (8) 
{"free_energy": -8.47, "intermolecular_energy": -10.86, "internal_energy": -2.28, "cluster_size": 4, "cluster_id": 2, "rank_in_cluster": 2}

>  <energy>  (8) 
-8.17

>  <cluster_rmsd>  (8) 
0.98

>  <rmsd>  (8) 
269.92

>  <cluster>  (8) 
2

$$$$

     RDKit          3D

 64 67  0  0  0  0  0  0  0  0999 V2000
  138.5600   76.4810  220.3580 C   0  0  0  0  0  0  0  0  0  0  0  0
  139.4030   76.9620  221.5050 C   0  0  0  0  0  0  0  0  0  0  0  0
  140.2880   75.7770  221.9010 C   0  0  0  0  0  0  0  0  0  0  0  0
  138.5290   77.2440  222.7050 C   0  0  0  0  0  0  0  0  0  0  0  0
  138.2680   78.7000  222.8400 C   0  0  0  0  0  0  0  0  0  0  0  0
  137.4300   79.3060  221.9240 C   0  0  0  0  0  0  0  0  0  0  0  0
  137.1450   80.6500  221.9870 C   0  0  0  0  0  0  0  0  0  0  0  0
  137.7170   81.4030  223.0000 C   0  0  0  0  0  0  0  0  0  0  0  0
  137.4170   82.7150  223.0350 F   0  0  0  0  0  0  0  0  0  0  0  0
  138.5610   80.7940  223.9240 C   0  0  0  0  0  0  0  0  0  0  0  0
  138.8300   79.4560  223.8390 C   0  0  0  0  0  0  0  0  0  0  0  0
  140.2800   78.0490  221.1860 N   0  0  0  0  0  0  0  0  0  0  0  0
  141.2840   78.3950  222.1340 C   0  0  0  0  0  0  0  0  0  0  0  0
  141.4170   77.7840  223.2140 O   0  0  0  0  0  0  0  0  0  0  0  0
  142.1900   79.5170  221.8030 C   0  0  2  0  0  0  0  0  0  0  0  0
  142.9430   80.0350  222.9870 C   0  0  0  0  0  0  0  0  0  0  0  0
  142.2180   81.2970  223.3430 C   0  0  0  0  0  0  0  0  0  0  0  0
  141.2290   81.5660  222.2480 C   0  0  0  0  0  0  0  0  0  0  0  0
  141.5340   80.6170  221.1720 N   0  0  0  0  0  0  0  0  0  0  0  0
  141.1940   80.8560  219.8100 C   0  0  0  0  0  0  0  0  0  0  0  0
  140.0660   81.3420  219.5440 O   0  0  0  0  0  0  0  0  0  0  0  0
  142.2070   80.5090  218.7840 C   0  0  0  0  0  0  0  0  0  0  0  0
  142.5710   79.1120  218.8280 N   0  0  0  0  0  0  0  0  0  0  0  0
  141.6820   78.0450  218.5860 C   0  0  0  0  0  0  0  0  0  0  0  0
  140.4750   78.2750  218.3080 O   0  0  0  0  0  0  0  0  0  0  0  0
  142.2090   76.6660  218.6680 C   0  0  0  0  0  0  0  0  0  0  0  0
  141.6780   75.6490  217.8970 C   0  0  0  0  0  0  0  0  0  0  0  0
  142.1680   74.3600  217.9730 C   0  0  0  0  0  0  0  0  0  0  0  0
  143.2020   74.0680  218.8230 C   0  0  0  0  0  0  0  0  0  0  0  0
  143.7660   72.8350  218.9800 C   0  0  0  0  0  0  0  0  0  0  0  0
  144.8170   72.6080  219.8640 C   0  0  0  0  0  0  0  0  0  0  0  0
  145.3800   71.3920  220.0260 F   0  0  0  0  0  0  0  0  0  0  0  0
  145.3240   73.6640  220.6250 C   0  0  0  0  0  0  0  0  0  0  0  0
  144.7560   74.8940  220.4620 C   0  0  0  0  0  0  0  0  0  0  0  0
  143.7130   75.1050  219.5800 C   0  0  0  0  0  0  0  0  0  0  0  0
  143.2250   76.3560  219.4980 N   0  0  0  0  0  0  0  0  0  0  0  0
  137.6666   75.9713  220.7480 H   0  0  0  0  0  0  0  0  0  0  0  0
  138.2530   77.3399  219.7431 H   0  0  0  0  0  0  0  0  0  0  0  0
  139.1432   75.7797  219.7431 H   0  0  0  0  0  0  0  0  0  0  0  0
  140.3394   75.7081  222.9976 H   0  0  0  0  0  0  0  0  0  0  0  0
  139.8606   74.8483  221.4949 H   0  0  0  0  0  0  0  0  0  0  0  0
  141.2998   75.9232  221.4949 H   0  0  0  0  0  0  0  0  0  0  0  0
  137.5715   76.7160  222.5852 H   0  0  0  0  0  0  0  0  0  0  0  0
  139.0497   76.8949  223.6089 H   0  0  0  0  0  0  0  0  0  0  0  0
  136.9797   78.6988  221.1249 H   0  0  0  0  0  0  0  0  0  0  0  0
  136.4769   81.1175  221.2487 H   0  0  0  0  0  0  0  0  0  0  0  0
  139.0145   81.3927  224.7277 H   0  0  0  0  0  0  0  0  0  0  0  0
  139.4989   78.9837  224.5735 H   0  0  0  0  0  0  0  0  0  0  0  0
  140.2170   78.6070  220.2810 H   0  0  0  0  0  0  0  0  0  0  0  0
  142.8978   79.0706  221.0890 H   0  0  0  0  0  0  0  0  0  0  0  0
  142.9101   79.3156  223.8185 H   0  0  0  0  0  0  0  0  0  0  0  0
  144.0096   80.2008  222.7753 H   0  0  0  0  0  0  0  0  0  0  0  0
  141.6936   81.1724  224.3019 H   0  0  0  0  0  0  0  0  0  0  0  0
  142.9225   82.1354  223.4467 H   0  0  0  0  0  0  0  0  0  0  0  0
  140.2038   81.4091  222.6144 H   0  0  0  0  0  0  0  0  0  0  0  0
  141.2984   82.6053  221.8945 H   0  0  0  0  0  0  0  0  0  0  0  0
  141.7964   80.7370  217.7893 H   0  0  0  0  0  0  0  0  0  0  0  0
  143.1116   81.1005  218.9886 H   0  0  0  0  0  0  0  0  0  0  0  0
  143.5750   78.8890  219.0580 H   0  0  0  0  0  0  0  0  0  0  0  0
  140.8487   75.8708  217.2092 H   0  0  0  0  0  0  0  0  0  0  0  0
  141.7277   73.5671  217.3505 H   0  0  0  0  0  0  0  0  0  0  0  0
  143.3772   71.9930  218.3885 H   0  0  0  0  0  0  0  0  0  0  0  0
  146.1528   73.5093  221.3315 H   0  0  0  0  0  0  0  0  0  0  0  0
  145.1391   75.7416  221.0492 H   0  0  0  0  0  0  0  0  0  0  0  0
  1  2  1  0
  2  3  1  0
  2  4  1  0
  4  5  1  0
  5  6  2  0
  6  7  1  0
  7  8  2  0
  8  9  1  0
  8 10  1  0
 10 11  2  0
  2 12  1  0
 12 13  1  0
 13 14  2  0
 13 15  1  0
 15 16  1  0
 16 17  1  0
 17 18  1  0
 18 19  1  0
 19 20  1  0
 20 21  2  0
 20 22  1  0
 22 23  1  0
 23 24  1  0
 24 25  2  0
 24 26  1  0
 26 27  2  0
 27 28  1  0
 28 29  2  0
 29 30  1  0
 30 31  2  0
 31 32  1  0
 31 33  1  0
 33 34  2  0
 34 35  1  0
 35 36  2  0
 11  5  1  0
 19 15  1  0
 36 26  1  0
 35 29  1  0
  1 37  1  0
  1 38  1  0
  1 39  1  0
  3 40  1  0
  3 41  1  0
  3 42  1  0
  4 43  1  0
  4 44  1  0
  6 45  1  0
  7 46  1  0
 10 47  1  0
 11 48  1  0
 12 49  1  0
 15 50  1  6
 16 51  1  0
 16 52  1  0
 17 53  1  0
 17 54  1  0
 18 55  1  0
 18 56  1  0
 22 57  1  0
 22 58  1  0
 23 59  1  0
 27 60  1  0
 28 61  1  0
 30 62  1  0
 33 63  1  0
 34 64  1  0
M  END
>  <smiles>  (9) 
CC(C)(Cc1ccc(F)cc1)NC(=O)[C@@H]1CCCN1C(=O)CNC(=O)c1ccc2cc(F)ccc2n1

>  <score_type>  (9) 
oracle

>  <origin>  (9) 
autodockgpu

>  <m_score__min__energy>  (9) 
-8.7799999999999994

>  <m_primary>  (9) 
energy

>  <meeko>  (9) 
{"free_energy": -6.3, "intermolecular_energy": -8.68, "internal_energy": -4.72, "cluster_size": 3, "cluster_id": 9, "rank_in_cluster": 1}

>  <energy>  (9) 
-8.13

>  <cluster_rmsd>  (9) 
1.8

>  <rmsd>  (9) 
269.95

>  <cluster>  (9) 
2

$$$$

     RDKit          3D

 64 67  0  0  0  0  0  0  0  0999 V2000
  140.2350   82.5880  217.9440 C   0  0  0  0  0  0  0  0  0  0  0  0
  141.1760   81.4480  218.2130 C   0  0  0  0  0  0  0  0  0  0  0  0
  142.5820   82.0540  218.2050 C   0  0  0  0  0  0  0  0  0  0  0  0
  141.1420   80.4680  217.0620 C   0  0  0  0  0  0  0  0  0  0  0  0
  141.4470   79.0910  217.5300 C   0  0  0  0  0  0  0  0  0  0  0  0
  140.4420   78.1450  217.4880 C   0  0  0  0  0  0  0  0  0  0  0  0
  140.6520   76.8520  217.9060 C   0  0  0  0  0  0  0  0  0  0  0  0
  141.9070   76.5020  218.3770 C   0  0  0  0  0  0  0  0  0  0  0  0
  142.0810   75.2290  218.7770 F   0  0  0  0  0  0  0  0  0  0  0  0
  142.9220   77.4540  218.4190 C   0  0  0  0  0  0  0  0  0  0  0  0
  142.6870   78.7350  217.9990 C   0  0  0  0  0  0  0  0  0  0  0  0
  141.0020   80.8170  219.4880 N   0  0  0  0  0  0  0  0  0  0  0  0
  141.1220   81.6250  220.6530 C   0  0  0  0  0  0  0  0  0  0  0  0
  141.3700   82.8470  220.5920 O   0  0  0  0  0  0  0  0  0  0  0  0
  140.9420   80.9730  221.9690 C   0  0  2  0  0  0  0  0  0  0  0  0
  141.8250   81.5390  223.0340 C   0  0  0  0  0  0  0  0  0  0  0  0
  142.9160   80.5200  223.1670 C   0  0  0  0  0  0  0  0  0  0  0  0
  142.5170   79.3310  222.3460 C   0  0  0  0  0  0  0  0  0  0  0  0
  141.1260   79.5570  221.9370 N   0  0  0  0  0  0  0  0  0  0  0  0
  140.2350   78.4980  221.6010 C   0  0  0  0  0  0  0  0  0  0  0  0
  139.5130   78.6170  220.5800 O   0  0  0  0  0  0  0  0  0  0  0  0
  140.2200   77.3120  222.4910 C   0  0  0  0  0  0  0  0  0  0  0  0
  141.0140   76.2260  221.9650 N   0  0  0  0  0  0  0  0  0  0  0  0
  140.5700   74.8920  221.8520 C   0  0  0  0  0  0  0  0  0  0  0  0
  139.4090   74.5760  222.2240 O   0  0  0  0  0  0  0  0  0  0  0  0
  141.5040   73.8930  221.2900 C   0  0  0  0  0  0  0  0  0  0  0  0
  141.0830   72.6120  220.9850 C   0  0  0  0  0  0  0  0  0  0  0  0
  141.9540   71.6770  220.4620 C   0  0  0  0  0  0  0  0  0  0  0  0
  143.2640   72.0090  220.2330 C   0  0  0  0  0  0  0  0  0  0  0  0
  144.2100   71.1700  219.7200 C   0  0  0  0  0  0  0  0  0  0  0  0
  145.5250   71.5750  219.5130 C   0  0  0  0  0  0  0  0  0  0  0  0
  146.4670   70.7520  219.0060 F   0  0  0  0  0  0  0  0  0  0  0  0
  145.9090   72.8790  219.8350 C   0  0  0  0  0  0  0  0  0  0  0  0
  144.9570   73.7120  220.3470 C   0  0  0  0  0  0  0  0  0  0  0  0
  143.6540   73.2970  220.5470 C   0  0  0  0  0  0  0  0  0  0  0  0
  142.7960   74.1990  221.0580 N   0  0  0  0  0  0  0  0  0  0  0  0
  139.8872   83.0094  218.8987 H   0  0  0  0  0  0  0  0  0  0  0  0
  140.7571   83.3664  217.3682 H   0  0  0  0  0  0  0  0  0  0  0  0
  139.3718   82.2229  217.3682 H   0  0  0  0  0  0  0  0  0  0  0  0
  142.9237   82.2013  219.2402 H   0  0  0  0  0  0  0  0  0  0  0  0
  143.2717   81.3733  217.6845 H   0  0  0  0  0  0  0  0  0  0  0  0
  142.5607   83.0229  217.6845 H   0  0  0  0  0  0  0  0  0  0  0  0
  140.1403   80.4805  216.6076 H   0  0  0  0  0  0  0  0  0  0  0  0
  141.9018   80.7653  216.3242 H   0  0  0  0  0  0  0  0  0  0  0  0
  139.4495   78.4327  217.1111 H   0  0  0  0  0  0  0  0  0  0  0  0
  139.8402   76.1107  217.8672 H   0  0  0  0  0  0  0  0  0  0  0  0
  143.9185   77.1749  218.7919 H   0  0  0  0  0  0  0  0  0  0  0  0
  143.4940   79.4815  218.0373 H   0  0  0  0  0  0  0  0  0  0  0  0
  140.7890   79.7800  219.6040 H   0  0  0  0  0  0  0  0  0  0  0  0
  139.8922   81.1878  222.2177 H   0  0  0  0  0  0  0  0  0  0  0  0
  142.2333   82.5137  222.7285 H   0  0  0  0  0  0  0  0  0  0  0  0
  141.2920   81.7198  223.9791 H   0  0  0  0  0  0  0  0  0  0  0  0
  143.8649   80.9335  222.7946 H   0  0  0  0  0  0  0  0  0  0  0  0
  143.0581   80.2364  224.2203 H   0  0  0  0  0  0  0  0  0  0  0  0
  143.1645   79.2454  221.4609 H   0  0  0  0  0  0  0  0  0  0  0  0
  142.6169   78.3983  222.9206 H   0  0  0  0  0  0  0  0  0  0  0  0
  140.6215   77.6011  223.4735 H   0  0  0  0  0  0  0  0  0  0  0  0
  139.1801   76.9625  222.5710 H   0  0  0  0  0  0  0  0  0  0  0  0
  141.9900   76.4610  221.6450 H   0  0  0  0  0  0  0  0  0  0  0  0
  140.0340   72.3323  221.1624 H   0  0  0  0  0  0  0  0  0  0  0  0
  141.5958   70.6635  220.2286 H   0  0  0  0  0  0  0  0  0  0  0  0
  143.9237   70.1398  219.4617 H   0  0  0  0  0  0  0  0  0  0  0  0
  146.9427   73.2224  219.6812 H   0  0  0  0  0  0  0  0  0  0  0  0
  145.2348   74.7438  220.6081 H   0  0  0  0  0  0  0  0  0  0  0  0
  1  2  1  0
  2  3  1  0
  2  4  1  0
  4  5  1  0
  5  6  2  0
  6  7  1  0
  7  8  2  0
  8  9  1  0
  8 10  1  0
 10 11  2  0
  2 12  1  0
 12 13  1  0
 13 14  2  0
 13 15  1  0
 15 16  1  0
 16 17  1  0
 17 18  1  0
 18 19  1  0
 19 20  1  0
 20 21  2  0
 20 22  1  0
 22 23  1  0
 23 24  1  0
 24 25  2  0
 24 26  1  0
 26 27  2  0
 27 28  1  0
 28 29  2  0
 29 30  1  0
 30 31  2  0
 31 32  1  0
 31 33  1  0
 33 34  2  0
 34 35  1  0
 35 36  2  0
 11  5  1  0
 19 15  1  0
 36 26  1  0
 35 29  1  0
  1 37  1  0
  1 38  1  0
  1 39  1  0
  3 40  1  0
  3 41  1  0
  3 42  1  0
  4 43  1  0
  4 44  1  0
  6 45  1  0
  7 46  1  0
 10 47  1  0
 11 48  1  0
 12 49  1  0
 15 50  1  1
 16 51  1  0
 16 52  1  0
 17 53  1  0
 17 54  1  0
 18 55  1  0
 18 56  1  0
 22 57  1  0
 22 58  1  0
 23 59  1  0
 27 60  1  0
 28 61  1  0
 30 62  1  0
 33 63  1  0
 34 64  1  0
M  END
>  <smiles>  (10) 
CC(C)(Cc1ccc(F)cc1)NC(=O)[C@@H]1CCCN1C(=O)CNC(=O)c1ccc2cc(F)ccc2n1

>  <score_type>  (10) 
oracle

>  <origin>  (10) 
autodockgpu

>  <m_score__min__energy>  (10) 
-8.7799999999999994

>  <m_primary>  (10) 
energy

>  <meeko>  (10) 
{"free_energy": -6.47, "intermolecular_energy": -8.86, "internal_energy": -4.14, "cluster_size": 1, "cluster_id": 8, "rank_in_cluster": 1}

>  <energy>  (10) 
-8.34

>  <cluster_rmsd>  (10) 
0.0

>  <rmsd>  (10) 
269.45

>  <cluster>  (10) 
3

$$$$

     RDKit          3D

 64 67  0  0  0  0  0  0  0  0999 V2000
  141.6730   80.7390  223.8270 C   0  0  0  0  0  0  0  0  0  0  0  0
  140.4810   80.3780  222.9860 C   0  0  0  0  0  0  0  0  0  0  0  0
  140.3220   81.5140  221.9720 C   0  0  0  0  0  0  0  0  0  0  0  0
  139.2280   80.4010  223.8320 C   0  0  0  0  0  0  0  0  0  0  0  0
  138.0750   79.8320  223.0860 C   0  0  0  0  0  0  0  0  0  0  0  0
  137.8980   78.4620  223.0940 C   0  0  0  0  0  0  0  0  0  0  0  0
  136.8540   77.8670  222.4260 C   0  0  0  0  0  0  0  0  0  0  0  0
  135.9650   78.6710  221.7310 C   0  0  0  0  0  0  0  0  0  0  0  0
  134.9540   78.0580  221.0880 F   0  0  0  0  0  0  0  0  0  0  0  0
  136.1420   80.0520  221.7220 C   0  0  0  0  0  0  0  0  0  0  0  0
  137.1890   80.6200  222.3940 C   0  0  0  0  0  0  0  0  0  0  0  0
  140.6240   79.1660  222.2350 N   0  0  0  0  0  0  0  0  0  0  0  0
  141.6940   79.0840  221.3000 C   0  0  0  0  0  0  0  0  0  0  0  0
  142.4960   80.0240  221.1240 O   0  0  0  0  0  0  0  0  0  0  0  0
  141.8410   77.8320  220.5250 C   0  0  2  0  0  0  0  0  0  0  0  0
  142.1870   78.0650  219.0890 C   0  0  0  0  0  0  0  0  0  0  0  0
  140.8900   77.8420  218.3730 C   0  0  0  0  0  0  0  0  0  0  0  0
  139.9170   77.2940  219.3740 C   0  0  0  0  0  0  0  0  0  0  0  0
  140.6930   76.9850  220.5800 N   0  0  0  0  0  0  0  0  0  0  0  0
  140.2820   76.0160  221.5390 C   0  0  0  0  0  0  0  0  0  0  0  0
  140.1130   76.3780  222.7300 O   0  0  0  0  0  0  0  0  0  0  0  0
  140.0800   74.6280  221.0600 C   0  0  0  0  0  0  0  0  0  0  0  0
  139.9490   73.6890  222.1510 N   0  0  0  0  0  0  0  0  0  0  0  0
  140.2740   72.3190  222.0710 C   0  0  0  0  0  0  0  0  0  0  0  0
  140.7120   71.8320  220.9960 O   0  0  0  0  0  0  0  0  0  0  0  0
  140.0840   71.4870  223.2780 C   0  0  0  0  0  0  0  0  0  0  0  0
  139.3980   70.2890  223.2210 C   0  0  0  0  0  0  0  0  0  0  0  0
  139.2180   69.5110  224.3480 C   0  0  0  0  0  0  0  0  0  0  0  0
  139.7240   69.9200  225.5540 C   0  0  0  0  0  0  0  0  0  0  0  0
  139.6080   69.2350  226.7290 C   0  0  0  0  0  0  0  0  0  0  0  0
  140.1480   69.7110  227.9200 C   0  0  0  0  0  0  0  0  0  0  0  0
  140.0380   69.0400  229.0860 F   0  0  0  0  0  0  0  0  0  0  0  0
  140.8340   70.9280  227.9340 C   0  0  0  0  0  0  0  0  0  0  0  0
  140.9460   71.6070  226.7550 C   0  0  0  0  0  0  0  0  0  0  0  0
  140.4050   71.1220  225.5790 C   0  0  0  0  0  0  0  0  0  0  0  0
  140.5730   71.8710  224.4750 N   0  0  0  0  0  0  0  0  0  0  0  0
  141.4084   80.6589  224.8917 H   0  0  0  0  0  0  0  0  0  0  0  0
  142.5019   80.0516  223.6024 H   0  0  0  0  0  0  0  0  0  0  0  0
  141.9812   81.7708  223.6024 H   0  0  0  0  0  0  0  0  0  0  0  0
  140.1887   82.4663  222.5062 H   0  0  0  0  0  0  0  0  0  0  0  0
  141.2210   81.5704  221.3406 H   0  0  0  0  0  0  0  0  0  0  0  0
  139.4421   81.3215  221.3406 H   0  0  0  0  0  0  0  0  0  0  0  0
  139.3968   79.8069  224.7422 H   0  0  0  0  0  0  0  0  0  0  0  0
  138.9982   81.4448  224.0922 H   0  0  0  0  0  0  0  0  0  0  0  0
  138.6094   77.8320  223.6481 H   0  0  0  0  0  0  0  0  0  0  0  0
  136.7270   76.7745  222.4429 H   0  0  0  0  0  0  0  0  0  0  0  0
  135.4354   80.6901  221.1710 H   0  0  0  0  0  0  0  0  0  0  0  0
  137.3217   81.7119  222.3800 H   0  0  0  0  0  0  0  0  0  0  0  0
  139.9730   78.3310  222.3410 H   0  0  0  0  0  0  0  0  0  0  0  0
  142.6796   77.3221  221.0217 H   0  0  0  0  0  0  0  0  0  0  0  0
  142.5495   79.0919  218.9341 H   0  0  0  0  0  0  0  0  0  0  0  0
  142.9915   77.4058  218.7310 H   0  0  0  0  0  0  0  0  0  0  0  0
  140.5161   78.7932  217.9662 H   0  0  0  0  0  0  0  0  0  0  0  0
  141.0229   77.1418  217.5351 H   0  0  0  0  0  0  0  0  0  0  0  0
  139.1430   78.0419  219.6009 H   0  0  0  0  0  0  0  0  0  0  0  0
  139.4085   76.3987  218.9869 H   0  0  0  0  0  0  0  0  0  0  0  0
  139.1651   74.5930  220.4503 H   0  0  0  0  0  0  0  0  0  0  0  0
  140.9638   74.3413  220.4712 H   0  0  0  0  0  0  0  0  0  0  0  0
  139.5840   74.0680  223.0640 H   0  0  0  0  0  0  0  0  0  0  0  0
  138.9871   69.9481  222.2592 H   0  0  0  0  0  0  0  0  0  0  0  0
  138.6674   68.5613  224.2773 H   0  0  0  0  0  0  0  0  0  0  0  0
  139.0702   68.2755  226.7346 H   0  0  0  0  0  0  0  0  0  0  0  0
  141.2689   71.3254  228.8630 H   0  0  0  0  0  0  0  0  0  0  0  0
  141.4820   72.5674  226.7404 H   0  0  0  0  0  0  0  0  0  0  0  0
  1  2  1  0
  2  3  1  0
  2  4  1  0
  4  5  1  0
  5  6  2  0
  6  7  1  0
  7  8  2  0
  8  9  1  0
  8 10  1  0
 10 11  2  0
  2 12  1  0
 12 13  1  0
 13 14  2  0
 13 15  1  0
 15 16  1  0
 16 17  1  0
 17 18  1  0
 18 19  1  0
 19 20  1  0
 20 21  2  0
 20 22  1  0
 22 23  1  0
 23 24  1  0
 24 25  2  0
 24 26  1  0
 26 27  2  0
 27 28  1  0
 28 29  2  0
 29 30  1  0
 30 31  2  0
 31 32  1  0
 31 33  1  0
 33 34  2  0
 34 35  1  0
 35 36  2  0
 11  5  1  0
 19 15  1  0
 36 26  1  0
 35 29  1  0
  1 37  1  0
  1 38  1  0
  1 39  1  0
  3 40  1  0
  3 41  1  0
  3 42  1  0
  4 43  1  0
  4 44  1  0
  6 45  1  0
  7 46  1  0
 10 47  1  0
 11 48  1  0
 12 49  1  0
 15 50  1  1
 16 51  1  0
 16 52  1  0
 17 53  1  0
 17 54  1  0
 18 55  1  0
 18 56  1  0
 22 57  1  0
 22 58  1  0
 23 59  1  0
 27 60  1  0
 28 61  1  0
 30 62  1  0
 33 63  1  0
 34 64  1  0
M  END
>  <smiles>  (11) 
CC(C)(Cc1ccc(F)cc1)NC(=O)[C@@H]1CCCN1C(=O)CNC(=O)c1ccc2cc(F)ccc2n1

>  <score_type>  (11) 
oracle

>  <origin>  (11) 
autodockgpu

>  <m_score__min__energy>  (11) 
-8.7799999999999994

>  <m_primary>  (11) 
energy

>  <meeko>  (11) 
{"free_energy": -7.77, "intermolecular_energy": -10.15, "internal_energy": -3.34, "cluster_size": 5, "cluster_id": 1, "rank_in_cluster": 4}

>  <energy>  (11) 
-8.24

>  <cluster_rmsd>  (11) 
0.0

>  <rmsd>  (11) 
270.0

>  <cluster>  (11) 
4

$$$$

     RDKit          3D

 64 67  0  0  0  0  0  0  0  0999 V2000
  140.3080   76.1160  219.5090 C   0  0  0  0  0  0  0  0  0  0  0  0
  140.4780   77.4570  220.1650 C   0  0  0  0  0  0  0  0  0  0  0  0
  140.4680   78.4850  219.0300 C   0  0  0  0  0  0  0  0  0  0  0  0
  141.8490   77.5530  220.7960 C   0  0  0  0  0  0  0  0  0  0  0  0
  141.8860   78.6280  221.8210 C   0  0  0  0  0  0  0  0  0  0  0  0
  142.0520   79.9320  221.4000 C   0  0  0  0  0  0  0  0  0  0  0  0
  142.0970   80.9770  222.2930 C   0  0  0  0  0  0  0  0  0  0  0  0
  141.9690   80.7020  223.6450 C   0  0  0  0  0  0  0  0  0  0  0  0
  142.0160   81.7460  224.4930 F   0  0  0  0  0  0  0  0  0  0  0  0
  141.8000   79.3870  224.0710 C   0  0  0  0  0  0  0  0  0  0  0  0
  141.7610   78.3650  223.1630 C   0  0  0  0  0  0  0  0  0  0  0  0
  139.4240   77.8200  221.0650 N   0  0  0  0  0  0  0  0  0  0  0  0
  139.1070   76.9180  222.1190 C   0  0  0  0  0  0  0  0  0  0  0  0
  139.7150   75.8390  222.2760 O   0  0  0  0  0  0  0  0  0  0  0  0
  138.0180   77.2940  223.0470 C   0  0  2  0  0  0  0  0  0  0  0  0
  136.8100   76.4220  222.9240 C   0  0  0  0  0  0  0  0  0  0  0  0
  135.8450   77.2620  222.1440 C   0  0  0  0  0  0  0  0  0  0  0  0
  136.4380   78.6340  222.0340 C   0  0  0  0  0  0  0  0  0  0  0  0
  137.6040   78.6560  222.9240 N   0  0  0  0  0  0  0  0  0  0  0  0
  138.1240   79.8540  223.4910 C   0  0  0  0  0  0  0  0  0  0  0  0
  139.0020   79.7670  224.3860 O   0  0  0  0  0  0  0  0  0  0  0  0
  137.5890   81.1380  222.9800 C   0  0  0  0  0  0  0  0  0  0  0  0
  138.5000   81.7830  222.0630 N   0  0  0  0  0  0  0  0  0  0  0  0
  138.7980   81.3120  220.7670 C   0  0  0  0  0  0  0  0  0  0  0  0
  138.2570   80.2600  220.3340 O   0  0  0  0  0  0  0  0  0  0  0  0
  139.7530   82.0870  219.9480 C   0  0  0  0  0  0  0  0  0  0  0  0
  139.6720   83.4650  219.8650 C   0  0  0  0  0  0  0  0  0  0  0  0
  140.5620   84.1910  219.1000 C   0  0  0  0  0  0  0  0  0  0  0  0
  141.5530   83.5490  218.4030 C   0  0  0  0  0  0  0  0  0  0  0  0
  142.4860   84.1630  217.6180 C   0  0  0  0  0  0  0  0  0  0  0  0
  143.4670   83.4470  216.9370 C   0  0  0  0  0  0  0  0  0  0  0  0
  144.3930   84.0450  216.1590 F   0  0  0  0  0  0  0  0  0  0  0  0
  143.5140   82.0550  217.0490 C   0  0  0  0  0  0  0  0  0  0  0  0
  142.5780   81.4500  217.8360 C   0  0  0  0  0  0  0  0  0  0  0  0
  141.6090   82.1730  218.5070 C   0  0  0  0  0  0  0  0  0  0  0  0
  140.7350   81.4760  219.2550 N   0  0  0  0  0  0  0  0  0  0  0  0
  140.2096   75.3395  220.2819 H   0  0  0  0  0  0  0  0  0  0  0  0
  139.4040   76.1263  218.8824 H   0  0  0  0  0  0  0  0  0  0  0  0
  141.1860   75.9004  218.8824 H   0  0  0  0  0  0  0  0  0  0  0  0
  140.4581   79.4998  219.4545 H   0  0  0  0  0  0  0  0  0  0  0  0
  141.3674   78.3556  218.4101 H   0  0  0  0  0  0  0  0  0  0  0  0
  139.5712   78.3381  218.4101 H   0  0  0  0  0  0  0  0  0  0  0  0
  142.0944   76.5924  221.2724 H   0  0  0  0  0  0  0  0  0  0  0  0
  142.5818   77.7903  220.0107 H   0  0  0  0  0  0  0  0  0  0  0  0
  142.1507   80.1404  220.3244 H   0  0  0  0  0  0  0  0  0  0  0  0
  142.2319   82.0104  221.9410 H   0  0  0  0  0  0  0  0  0  0  0  0
  141.6973   79.1690  225.1443 H   0  0  0  0  0  0  0  0  0  0  0  0
  141.6291   77.3291  223.5087 H   0  0  0  0  0  0  0  0  0  0  0  0
  138.8700   78.7260  220.9830 H   0  0  0  0  0  0  0  0  0  0  0  0
  138.4693   77.1496  224.0397 H   0  0  0  0  0  0  0  0  0  0  0  0
  137.0490   75.4944  222.3833 H   0  0  0  0  0  0  0  0  0  0  0  0
  136.4101   76.1068  223.8991 H   0  0  0  0  0  0  0  0  0  0  0  0
  135.6978   76.8338  221.1415 H   0  0  0  0  0  0  0  0  0  0  0  0
  134.8666   77.2991  222.6454 H   0  0  0  0  0  0  0  0  0  0  0  0
  136.7474   78.8323  220.9972 H   0  0  0  0  0  0  0  0  0  0  0  0
  135.7077   79.4069  222.3157 H   0  0  0  0  0  0  0  0  0  0  0  0
  136.6401   80.9438  222.4586 H   0  0  0  0  0  0  0  0  0  0  0  0
  137.4439   81.8090  223.8394 H   0  0  0  0  0  0  0  0  0  0  0  0
  138.9670   82.6660  222.3990 H   0  0  0  0  0  0  0  0  0  0  0  0
  138.8824   83.9929  220.4198 H   0  0  0  0  0  0  0  0  0  0  0  0
  140.4763   85.2865  219.0493 H   0  0  0  0  0  0  0  0  0  0  0  0
  142.4620   85.2584  217.5203 H   0  0  0  0  0  0  0  0  0  0  0  0
  144.2793   81.4672  216.5209 H   0  0  0  0  0  0  0  0  0  0  0  0
  142.5947   80.3550  217.9397 H   0  0  0  0  0  0  0  0  0  0  0  0
  1  2  1  0
  2  3  1  0
  2  4  1  0
  4  5  1  0
  5  6  2  0
  6  7  1  0
  7  8  2  0
  8  9  1  0
  8 10  1  0
 10 11  2  0
  2 12  1  0
 12 13  1  0
 13 14  2  0
 13 15  1  0
 15 16  1  0
 16 17  1  0
 17 18  1  0
 18 19  1  0
 19 20  1  0
 20 21  2  0
 20 22  1  0
 22 23  1  0
 23 24  1  0
 24 25  2  0
 24 26  1  0
 26 27  2  0
 27 28  1  0
 28 29  2  0
 29 30  1  0
 30 31  2  0
 31 32  1  0
 31 33  1  0
 33 34  2  0
 34 35  1  0
 35 36  2  0
 11  5  1  0
 19 15  1  0
 36 26  1  0
 35 29  1  0
  1 37  1  0
  1 38  1  0
  1 39  1  0
  3 40  1  0
  3 41  1  0
  3 42  1  0
  4 43  1  0
  4 44  1  0
  6 45  1  0
  7 46  1  0
 10 47  1  0
 11 48  1  0
 12 49  1  0
 15 50  1  1
 16 51  1  0
 16 52  1  0
 17 53  1  0
 17 54  1  0
 18 55  1  0
 18 56  1  0
 22 57  1  0
 22 58  1  0
 23 59  1  0
 27 60  1  0
 28 61  1  0
 30 62  1  0
 33 63  1  0
 34 64  1  0
M  END
>  <smiles>  (12) 
CC(C)(Cc1ccc(F)cc1)NC(=O)[C@@H]1CCCN1C(=O)CNC(=O)c1ccc2cc(F)ccc2n1

>  <score_type>  (12) 
oracle

>  <origin>  (12) 
autodockgpu

>  <m_score__min__energy>  (12) 
-8.7799999999999994

>  <m_primary>  (12) 
energy

>  <meeko>  (12) 
{"free_energy": -5.28, "intermolecular_energy": -7.67, "internal_energy": -4.83, "cluster_size": 1, "cluster_id": 10, "rank_in_cluster": 1}

>  <energy>  (12) 
-8.18

>  <cluster_rmsd>  (12) 
1.68

>  <rmsd>  (12) 
270.21

>  <cluster>  (12) 
4

$$$$

     RDKit          3D

 64 67  0  0  0  0  0  0  0  0999 V2000
  145.4050   73.7110  220.4220 C   0  0  0  0  0  0  0  0  0  0  0  0
  144.1170   73.0440  220.0300 C   0  0  0  0  0  0  0  0  0  0  0  0
  143.8690   71.9590  221.0810 C   0  0  0  0  0  0  0  0  0  0  0  0
  144.2930   72.3150  218.7170 C   0  0  0  0  0  0  0  0  0  0  0  0
  144.6380   70.8880  218.9470 C   0  0  0  0  0  0  0  0  0  0  0  0
  145.9650   70.5530  219.1250 C   0  0  0  0  0  0  0  0  0  0  0  0
  146.3570   69.2520  219.3410 C   0  0  0  0  0  0  0  0  0  0  0  0
  145.3870   68.2640  219.3800 C   0  0  0  0  0  0  0  0  0  0  0  0
  145.8020   67.0020  219.5940 F   0  0  0  0  0  0  0  0  0  0  0  0
  144.0480   68.6000  219.2010 C   0  0  0  0  0  0  0  0  0  0  0  0
  143.6840   69.9010  218.9860 C   0  0  0  0  0  0  0  0  0  0  0  0
  142.9710   73.9050  220.0410 N   0  0  0  0  0  0  0  0  0  0  0  0
  142.9280   74.9690  219.0970 C   0  0  0  0  0  0  0  0  0  0  0  0
  143.8460   75.1670  218.2750 O   0  0  0  0  0  0  0  0  0  0  0  0
  141.7440   75.8560  219.1100 C   0  0  2  0  0  0  0  0  0  0  0  0
  141.8690   77.0190  218.1780 C   0  0  0  0  0  0  0  0  0  0  0  0
  142.1940   78.1660  219.0860 C   0  0  0  0  0  0  0  0  0  0  0  0
  142.0380   77.6760  220.4950 C   0  0  0  0  0  0  0  0  0  0  0  0
  141.4120   76.3530  220.4070 N   0  0  0  0  0  0  0  0  0  0  0  0
  140.6510   75.7840  221.4670 C   0  0  0  0  0  0  0  0  0  0  0  0
  140.7520   76.2800  222.6170 O   0  0  0  0  0  0  0  0  0  0  0  0
  139.7800   74.6300  221.1380 C   0  0  0  0  0  0  0  0  0  0  0  0
  139.7280   73.6630  222.2090 N   0  0  0  0  0  0  0  0  0  0  0  0
  140.3380   72.3920  222.1710 C   0  0  0  0  0  0  0  0  0  0  0  0
  140.9840   72.0290  221.1520 O   0  0  0  0  0  0  0  0  0  0  0  0
  140.1940   71.5150  223.3520 C   0  0  0  0  0  0  0  0  0  0  0  0
  139.5780   70.2810  223.2560 C   0  0  0  0  0  0  0  0  0  0  0  0
  139.4410   69.4610  224.3580 C   0  0  0  0  0  0  0  0  0  0  0  0
  139.9210   69.8620  225.5780 C   0  0  0  0  0  0  0  0  0  0  0  0
  139.8430   69.1360  226.7310 C   0  0  0  0  0  0  0  0  0  0  0  0
  140.3530   69.6060  227.9380 C   0  0  0  0  0  0  0  0  0  0  0  0
  140.2790   68.8950  229.0830 F   0  0  0  0  0  0  0  0  0  0  0  0
  140.9680   70.8590  227.9910 C   0  0  0  0  0  0  0  0  0  0  0  0
  141.0430   71.5780  226.8330 C   0  0  0  0  0  0  0  0  0  0  0  0
  140.5320   71.0990  225.6410 C   0  0  0  0  0  0  0  0  0  0  0  0
  140.6580   71.8900  224.5610 N   0  0  0  0  0  0  0  0  0  0  0  0
  145.4790   73.7493  221.5188 H   0  0  0  0  0  0  0  0  0  0  0  0
  146.2525   73.1384  220.0171 H   0  0  0  0  0  0  0  0  0  0  0  0
  145.4264   74.7335  220.0171 H   0  0  0  0  0  0  0  0  0  0  0  0
  143.9683   72.3932  222.0868 H   0  0  0  0  0  0  0  0  0  0  0  0
  142.8547   71.5522  220.9557 H   0  0  0  0  0  0  0  0  0  0  0  0
  144.6058   71.1519  220.9557 H   0  0  0  0  0  0  0  0  0  0  0  0
  143.3552   72.3715  218.1448 H   0  0  0  0  0  0  0  0  0  0  0  0
  145.1125   72.7898  218.1576 H   0  0  0  0  0  0  0  0  0  0  0  0
  146.7275   71.3452  219.0934 H   0  0  0  0  0  0  0  0  0  0  0  0
  147.4191   69.0016  219.4799 H   0  0  0  0  0  0  0  0  0  0  0  0
  143.2782   67.8149  219.2326 H   0  0  0  0  0  0  0  0  0  0  0  0
  142.6238   70.1574  218.8439 H   0  0  0  0  0  0  0  0  0  0  0  0
  142.1570   73.7860  220.7170 H   0  0  0  0  0  0  0  0  0  0  0  0
  140.9313   75.1997  218.7653 H   0  0  0  0  0  0  0  0  0  0  0  0
  142.6768   76.8536  217.4499 H   0  0  0  0  0  0  0  0  0  0  0  0
  140.9594   77.1895  217.5834 H   0  0  0  0  0  0  0  0  0  0  0  0
  143.2282   78.4999  218.9157 H   0  0  0  0  0  0  0  0  0  0  0  0
  141.5251   79.0177  218.8931 H   0  0  0  0  0  0  0  0  0  0  0  0
  143.0213   77.5999  220.9822 H   0  0  0  0  0  0  0  0  0  0  0  0
  141.4255   78.3677  221.0919 H   0  0  0  0  0  0  0  0  0  0  0  0
  138.7619   74.9986  220.9438 H   0  0  0  0  0  0  0  0  0  0  0  0
  140.2008   74.1309  220.2526 H   0  0  0  0  0  0  0  0  0  0  0  0
  139.1940   73.9400  223.0750 H   0  0  0  0  0  0  0  0  0  0  0  0
  139.1896   69.9462  222.2828 H   0  0  0  0  0  0  0  0  0  0  0  0
  138.9457   68.4840  224.2571 H   0  0  0  0  0  0  0  0  0  0  0  0
  139.3615   68.1473  226.7057 H   0  0  0  0  0  0  0  0  0  0  0  0
  141.3776   71.2526  228.9329 H   0  0  0  0  0  0  0  0  0  0  0  0
  141.5240   72.5672  226.8487 H   0  0  0  0  0  0  0  0  0  0  0  0
  1  2  1  0
  2  3  1  0
  2  4  1  0
  4  5  1  0
  5  6  2  0
  6  7  1  0
  7  8  2  0
  8  9  1  0
  8 10  1  0
 10 11  2  0
  2 12  1  0
 12 13  1  0
 13 14  2  0
 13 15  1  0
 15 16  1  0
 16 17  1  0
 17 18  1  0
 18 19  1  0
 19 20  1  0
 20 21  2  0
 20 22  1  0
 22 23  1  0
 23 24  1  0
 24 25  2  0
 24 26  1  0
 26 27  2  0
 27 28  1  0
 28 29  2  0
 29 30  1  0
 30 31  2  0
 31 32  1  0
 31 33  1  0
 33 34  2  0
 34 35  1  0
 35 36  2  0
 11  5  1  0
 19 15  1  0
 36 26  1  0
 35 29  1  0
  1 37  1  0
  1 38  1  0
  1 39  1  0
  3 40  1  0
  3 41  1  0
  3 42  1  0
  4 43  1  0
  4 44  1  0
  6 45  1  0
  7 46  1  0
 10 47  1  0
 11 48  1  0
 12 49  1  0
 15 50  1  6
 16 51  1  0
 16 52  1  0
 17 53  1  0
 17 54  1  0
 18 55  1  0
 18 56  1  0
 22 57  1  0
 22 58  1  0
 23 59  1  0
 27 60  1  0
 28 61  1  0
 30 62  1  0
 33 63  1  0
 34 64  1  0
M  END
>  <smiles>  (13) 
CC(C)(Cc1ccc(F)cc1)NC(=O)[C@@H]1CCCN1C(=O)CNC(=O)c1ccc2cc(F)ccc2n1

>  <score_type>  (13) 
oracle

>  <origin>  (13) 
autodockgpu

>  <m_score__min__energy>  (13) 
-8.7799999999999994

>  <m_primary>  (13) 
energy

>  <meeko>  (13) 
{"free_energy": -8.34, "intermolecular_energy": -10.72, "internal_energy": -2.95, "cluster_size": 1, "cluster_id": 3, "rank_in_cluster": 1}

>  <energy>  (13) 
-7.91

>  <cluster_rmsd>  (13) 
0.0

>  <rmsd>  (13) 
269.75

>  <cluster>  (13) 
5

$$$$

     RDKit          3D

 64 67  0  0  0  0  0  0  0  0999 V2000
  142.9260   79.8460  218.1730 C   0  0  0  0  0  0  0  0  0  0  0  0
  141.6910   79.3780  218.8900 C   0  0  0  0  0  0  0  0  0  0  0  0
  140.5940   79.2920  217.8260 C   0  0  0  0  0  0  0  0  0  0  0  0
  141.2330   80.4330  219.8710 C   0  0  0  0  0  0  0  0  0  0  0  0
  141.3420   79.9400  221.2680 C   0  0  0  0  0  0  0  0  0  0  0  0
  142.5300   80.1380  221.9450 C   0  0  0  0  0  0  0  0  0  0  0  0
  142.7010   79.7070  223.2400 C   0  0  0  0  0  0  0  0  0  0  0  0
  141.6500   79.0620  223.8700 C   0  0  0  0  0  0  0  0  0  0  0  0
  141.8490   78.6530  225.1370 F   0  0  0  0  0  0  0  0  0  0  0  0
  140.4520   78.8620  223.1900 C   0  0  0  0  0  0  0  0  0  0  0  0
  140.3060   79.2980  221.9020 C   0  0  0  0  0  0  0  0  0  0  0  0
  141.8010   78.0770  219.4810 N   0  0  0  0  0  0  0  0  0  0  0  0
  142.4990   77.0720  218.7550 C   0  0  0  0  0  0  0  0  0  0  0  0
  143.0090   77.2930  217.6380 O   0  0  0  0  0  0  0  0  0  0  0  0
  142.6120   75.7300  219.3670 C   0  0  2  0  0  0  0  0  0  0  0  0
  143.2280   74.7170  218.4560 C   0  0  0  0  0  0  0  0  0  0  0  0
  142.0570   73.9180  217.9710 C   0  0  0  0  0  0  0  0  0  0  0  0
  140.8620   74.3530  218.7650 C   0  0  0  0  0  0  0  0  0  0  0  0
  141.3690   75.2100  219.8430 N   0  0  0  0  0  0  0  0  0  0  0  0
  140.6740   75.4050  221.0700 C   0  0  0  0  0  0  0  0  0  0  0  0
  141.1450   76.2140  221.9090 O   0  0  0  0  0  0  0  0  0  0  0  0
  139.4270   74.6320  221.2770 C   0  0  0  0  0  0  0  0  0  0  0  0
  139.5570   73.6630  222.3410 N   0  0  0  0  0  0  0  0  0  0  0  0
  139.6930   72.2720  222.1450 C   0  0  0  0  0  0  0  0  0  0  0  0
  139.7060   71.7940  220.9800 O   0  0  0  0  0  0  0  0  0  0  0  0
  139.8170   71.4110  223.3390 C   0  0  0  0  0  0  0  0  0  0  0  0
  139.4700   70.0730  223.2960 C   0  0  0  0  0  0  0  0  0  0  0  0
  139.5830   69.2660  224.4110 C   0  0  0  0  0  0  0  0  0  0  0  0
  140.0490   69.7850  225.5900 C   0  0  0  0  0  0  0  0  0  0  0  0
  140.2040   69.0840  226.7510 C   0  0  0  0  0  0  0  0  0  0  0  0
  140.6830   69.6760  227.9160 C   0  0  0  0  0  0  0  0  0  0  0  0
  140.8390   68.9910  229.0680 F   0  0  0  0  0  0  0  0  0  0  0  0
  141.0230   71.0310  227.9160 C   0  0  0  0  0  0  0  0  0  0  0  0
  140.8660   71.7250  226.7510 C   0  0  0  0  0  0  0  0  0  0  0  0
  140.3890   71.1240  225.6020 C   0  0  0  0  0  0  0  0  0  0  0  0
  140.2720   71.9000  224.5100 N   0  0  0  0  0  0  0  0  0  0  0  0
  143.6900   80.1355  218.9095 H   0  0  0  0  0  0  0  0  0  0  0  0
  143.3142   79.0327  217.5423 H   0  0  0  0  0  0  0  0  0  0  0  0
  142.6777   80.7124  217.5423 H   0  0  0  0  0  0  0  0  0  0  0  0
  139.6125   79.2151  218.3167 H   0  0  0  0  0  0  0  0  0  0  0  0
  140.6204   80.1950  217.1983 H   0  0  0  0  0  0  0  0  0  0  0  0
  140.7608   78.4042  217.1983 H   0  0  0  0  0  0  0  0  0  0  0  0
  141.8603   81.3291  219.7552 H   0  0  0  0  0  0  0  0  0  0  0  0
  140.1796   80.6724  219.6637 H   0  0  0  0  0  0  0  0  0  0  0  0
  143.3586   80.6525  221.4364 H   0  0  0  0  0  0  0  0  0  0  0  0
  143.6537   79.8714  223.7647 H   0  0  0  0  0  0  0  0  0  0  0  0
  139.6176   78.3501  223.6917 H   0  0  0  0  0  0  0  0  0  0  0  0
  139.3561   79.1341  221.3720 H   0  0  0  0  0  0  0  0  0  0  0  0
  141.3870   77.8290  220.4300 H   0  0  0  0  0  0  0  0  0  0  0  0
  143.2777   75.8972  220.2266 H   0  0  0  0  0  0  0  0  0  0  0  0
  143.7438   75.2063  217.6167 H   0  0  0  0  0  0  0  0  0  0  0  0
  143.9880   74.0992  218.9567 H   0  0  0  0  0  0  0  0  0  0  0  0
  141.8880   74.1090  216.9010 H   0  0  0  0  0  0  0  0  0  0  0  0
  142.2397   72.8410  218.1000 H   0  0  0  0  0  0  0  0  0  0  0  0
  140.1660   74.9168  218.1265 H   0  0  0  0  0  0  0  0  0  0  0  0
  140.3150   73.4878  219.1678 H   0  0  0  0  0  0  0  0  0  0  0  0
  138.6153   75.3298  221.5303 H   0  0  0  0  0  0  0  0  0  0  0  0
  139.2092   74.0861  220.3472 H   0  0  0  0  0  0  0  0  0  0  0  0
  139.5500   74.0340  223.3270 H   0  0  0  0  0  0  0  0  0  0  0  0
  139.0966   69.6430  222.3549 H   0  0  0  0  0  0  0  0  0  0  0  0
  139.2984   68.2051  224.3523 H   0  0  0  0  0  0  0  0  0  0  0  0
  139.9416   68.0159  226.7663 H   0  0  0  0  0  0  0  0  0  0  0  0
  141.4041   71.5219  228.8236 H   0  0  0  0  0  0  0  0  0  0  0  0
  141.1267   72.7934  226.7263 H   0  0  0  0  0  0  0  0  0  0  0  0
  1  2  1  0
  2  3  1  0
  2  4  1  0
  4  5  1  0
  5  6  2  0
  6  7  1  0
  7  8  2  0
  8  9  1  0
  8 10  1  0
 10 11  2  0
  2 12  1  0
 12 13  1  0
 13 14  2  0
 13 15  1  0
 15 16  1  0
 16 17  1  0
 17 18  1  0
 18 19  1  0
 19 20  1  0
 20 21  2  0
 20 22  1  0
 22 23  1  0
 23 24  1  0
 24 25  2  0
 24 26  1  0
 26 27  2  0
 27 28  1  0
 28 29  2  0
 29 30  1  0
 30 31  2  0
 31 32  1  0
 31 33  1  0
 33 34  2  0
 34 35  1  0
 35 36  2  0
 11  5  1  0
 19 15  1  0
 36 26  1  0
 35 29  1  0
  1 37  1  0
  1 38  1  0
  1 39  1  0
  3 40  1  0
  3 41  1  0
  3 42  1  0
  4 43  1  0
  4 44  1  0
  6 45  1  0
  7 46  1  0
 10 47  1  0
 11 48  1  0
 12 49  1  0
 15 50  1  1
 16 51  1  0
 16 52  1  0
 17 53  1  0
 17 54  1  0
 18 55  1  0
 18 56  1  0
 22 57  1  0
 22 58  1  0
 23 59  1  0
 27 60  1  0
 28 61  1  0
 30 62  1  0
 33 63  1  0
 34 64  1  0
M  END
>  <smiles>  (14) 
CC(C)(Cc1ccc(F)cc1)NC(=O)[C@@H]1CCCN1C(=O)CNC(=O)c1ccc2cc(F)ccc2n1

>  <score_type>  (14) 
oracle

>  <origin>  (14) 
autodockgpu

>  <m_score__min__energy>  (14) 
-8.7799999999999994

>  <m_primary>  (14) 
energy

>  <meeko>  (14) 
{"free_energy": -8.13, "intermolecular_energy": -10.52, "internal_energy": -3.15, "cluster_size": 4, "cluster_id": 2, "rank_in_cluster": 4}

>  <energy>  (14) 
-7.1

>  <cluster_rmsd>  (14) 
0.0

>  <rmsd>  (14) 
269.1

>  <cluster>  (14) 
6

$$$$

     RDKit          3D

 64 67  0  0  0  0  0  0  0  0999 V2000
  138.6540   76.4510  220.4030 C   0  0  0  0  0  0  0  0  0  0  0  0
  139.4780   76.9650  221.5500 C   0  0  0  0  0  0  0  0  0  0  0  0
  140.3890   75.8070  221.9660 C   0  0  0  0  0  0  0  0  0  0  0  0
  138.5890   77.2390  222.7410 C   0  0  0  0  0  0  0  0  0  0  0  0
  138.2570   78.6850  222.8330 C   0  0  0  0  0  0  0  0  0  0  0  0
  138.8060   79.4220  223.8630 C   0  0  0  0  0  0  0  0  0  0  0  0
  138.5420   80.7640  224.0090 C   0  0  0  0  0  0  0  0  0  0  0  0
  137.7050   81.3800  223.0940 C   0  0  0  0  0  0  0  0  0  0  0  0
  137.4670   82.6930  223.2640 F   0  0  0  0  0  0  0  0  0  0  0  0
  137.1510   80.6380  222.0540 C   0  0  0  0  0  0  0  0  0  0  0  0
  137.4280   79.3040  221.9300 C   0  0  0  0  0  0  0  0  0  0  0  0
  140.3310   78.0700  221.2240 N   0  0  0  0  0  0  0  0  0  0  0  0
  141.3090   78.4610  222.1810 C   0  0  0  0  0  0  0  0  0  0  0  0
  141.4410   77.8750  223.2750 O   0  0  0  0  0  0  0  0  0  0  0  0
  142.1890   79.6010  221.8430 C   0  0  2  0  0  0  0  0  0  0  0  0
  142.9060   80.1650  223.0280 C   0  0  0  0  0  0  0  0  0  0  0  0
  142.1400   81.4130  223.3440 C   0  0  0  0  0  0  0  0  0  0  0  0
  141.1650   81.6310  222.2270 C   0  0  0  0  0  0  0  0  0  0  0  0
  141.5150   80.6690  221.1760 N   0  0  0  0  0  0  0  0  0  0  0  0
  141.1940   80.8700  219.8030 C   0  0  0  0  0  0  0  0  0  0  0  0
  140.0650   81.3350  219.5090 O   0  0  0  0  0  0  0  0  0  0  0  0
  142.2270   80.5100  218.8030 C   0  0  0  0  0  0  0  0  0  0  0  0
  142.5750   79.1090  218.8570 N   0  0  0  0  0  0  0  0  0  0  0  0
  141.6790   78.0510  218.5960 C   0  0  0  0  0  0  0  0  0  0  0  0
  140.4820   78.2940  218.2900 O   0  0  0  0  0  0  0  0  0  0  0  0
  142.1900   76.6680  218.6920 C   0  0  0  0  0  0  0  0  0  0  0  0
  141.6270   75.6440  217.9530 C   0  0  0  0  0  0  0  0  0  0  0  0
  142.1010   74.3500  218.0420 C   0  0  0  0  0  0  0  0  0  0  0  0
  143.1510   74.0590  218.8740 C   0  0  0  0  0  0  0  0  0  0  0  0
  143.7010   72.8210  219.0410 C   0  0  0  0  0  0  0  0  0  0  0  0
  144.7690   72.5960  219.9050 C   0  0  0  0  0  0  0  0  0  0  0  0
  145.3190   71.3750  220.0770 F   0  0  0  0  0  0  0  0  0  0  0  0
  145.3080   73.6590  220.6340 C   0  0  0  0  0  0  0  0  0  0  0  0
  144.7530   74.8930  220.4610 C   0  0  0  0  0  0  0  0  0  0  0  0
  143.6920   75.1030  219.5990 C   0  0  0  0  0  0  0  0  0  0  0  0
  143.2210   76.3580  219.5040 N   0  0  0  0  0  0  0  0  0  0  0  0
  137.7814   75.9067  220.7933 H   0  0  0  0  0  0  0  0  0  0  0  0
  138.3134   77.2971  219.7881 H   0  0  0  0  0  0  0  0  0  0  0  0
  139.2641   75.7730  219.7881 H   0  0  0  0  0  0  0  0  0  0  0  0
  140.4330   75.7511  223.0637 H   0  0  0  0  0  0  0  0  0  0  0  0
  139.9884   74.8636  221.5666 H   0  0  0  0  0  0  0  0  0  0  0  0
  141.4002   75.9743  221.5666 H   0  0  0  0  0  0  0  0  0  0  0  0
  137.6585   76.6617  222.6364 H   0  0  0  0  0  0  0  0  0  0  0  0
  139.1243   76.9423  223.6550 H   0  0  0  0  0  0  0  0  0  0  0  0
  139.4706   78.9241  224.5844 H   0  0  0  0  0  0  0  0  0  0  0  0
  138.9870   81.3365  224.8362 H   0  0  0  0  0  0  0  0  0  0  0  0
  136.4862   81.1278  221.3273 H   0  0  0  0  0  0  0  0  0  0  0  0
  136.9857   78.7260  221.1052 H   0  0  0  0  0  0  0  0  0  0  0  0
  140.2670   78.6080  220.3080 H   0  0  0  0  0  0  0  0  0  0  0  0
  142.9218   79.1590  221.1519 H   0  0  0  0  0  0  0  0  0  0  0  0
  142.8785   79.4627  223.8742 H   0  0  0  0  0  0  0  0  0  0  0  0
  143.9712   80.3563  222.8310 H   0  0  0  0  0  0  0  0  0  0  0  0
  141.6017   81.2937  224.2959 H   0  0  0  0  0  0  0  0  0  0  0  0
  142.8190   82.2729  223.4422 H   0  0  0  0  0  0  0  0  0  0  0  0
  140.1380   81.4530  222.5786 H   0  0  0  0  0  0  0  0  0  0  0  0
  141.2127   82.6643  221.8529 H   0  0  0  0  0  0  0  0  0  0  0  0
  141.8431   80.7410  217.7984 H   0  0  0  0  0  0  0  0  0  0  0  0
  143.1328   81.0916  219.0293 H   0  0  0  0  0  0  0  0  0  0  0  0
  143.5710   78.8760  219.1100 H   0  0  0  0  0  0  0  0  0  0  0  0
  140.7847   75.8645  217.2807 H   0  0  0  0  0  0  0  0  0  0  0  0
  141.6356   73.5520  217.4448 H   0  0  0  0  0  0  0  0  0  0  0  0
  143.2870   71.9738  218.4746 H   0  0  0  0  0  0  0  0  0  0  0  0
  146.1510   73.5061  221.3239 H   0  0  0  0  0  0  0  0  0  0  0  0
  145.1611   75.7458  221.0233 H   0  0  0  0  0  0  0  0  0  0  0  0
  1  2  1  0
  2  3  1  0
  2  4  1  0
  4  5  1  0
  5  6  2  0
  6  7  1  0
  7  8  2  0
  8  9  1  0
  8 10  1  0
 10 11  2  0
  2 12  1  0
 12 13  1  0
 13 14  2  0
 13 15  1  0
 15 16  1  0
 16 17  1  0
 17 18  1  0
 18 19  1  0
 19 20  1  0
 20 21  2  0
 20 22  1  0
 22 23  1  0
 23 24  1  0
 24 25  2  0
 24 26  1  0
 26 27  2  0
 27 28  1  0
 28 29  2  0
 29 30  1  0
 30 31  2  0
 31 32  1  0
 31 33  1  0
 33 34  2  0
 34 35  1  0
 35 36  2  0
 11  5  1  0
 19 15  1  0
 36 26  1  0
 35 29  1  0
  1 37  1  0
  1 38  1  0
  1 39  1  0
  3 40  1  0
  3 41  1  0
  3 42  1  0
  4 43  1  0
  4 44  1  0
  6 45  1  0
  7 46  1  0
 10 47  1  0
 11 48  1  0
 12 49  1  0
 15 50  1  6
 16 51  1  0
 16 52  1  0
 17 53  1  0
 17 54  1  0
 18 55  1  0
 18 56  1  0
 22 57  1  0
 22 58  1  0
 23 59  1  0
 27 60  1  0
 28 61  1  0
 30 62  1  0
 33 63  1  0
 34 64  1  0
M  END
>  <smiles>  (15) 
CC(C)(Cc1ccc(F)cc1)NC(=O)[C@@H]1CCCN1C(=O)CNC(=O)c1ccc2cc(F)ccc2n1

>  <score_type>  (15) 
oracle

>  <origin>  (15) 
autodockgpu

>  <m_score__min__energy>  (15) 
-8.7799999999999994

>  <m_primary>  (15) 
energy

>  <meeko>  (15) 
{"free_energy": -6.25, "intermolecular_energy": -8.64, "internal_energy": -4.76, "cluster_size": 3, "cluster_id": 9, "rank_in_cluster": 3}

>  <energy>  (15) 
-6.63

>  <cluster_rmsd>  (15) 
0.0

>  <rmsd>  (15) 
269.49

>  <cluster>  (15) 
7

$$$$

     RDKit          3D

 64 67  0  0  0  0  0  0  0  0999 V2000
  142.7180   79.4250  222.7160 C   0  0  0  0  0  0  0  0  0  0  0  0
  141.4530   80.1610  222.3750 C   0  0  0  0  0  0  0  0  0  0  0  0
  141.8810   81.3590  221.5240 C   0  0  0  0  0  0  0  0  0  0  0  0
  140.8410   80.7420  223.6290 C   0  0  0  0  0  0  0  0  0  0  0  0
  139.3680   80.8740  223.4870 C   0  0  0  0  0  0  0  0  0  0  0  0
  138.8730   81.7680  222.5580 C   0  0  0  0  0  0  0  0  0  0  0  0
  137.5220   81.9420  222.3730 C   0  0  0  0  0  0  0  0  0  0  0  0
  136.6450   81.1950  223.1430 C   0  0  0  0  0  0  0  0  0  0  0  0
  135.3290   81.3870  222.9380 F   0  0  0  0  0  0  0  0  0  0  0  0
  137.1410   80.2920  224.0790 C   0  0  0  0  0  0  0  0  0  0  0  0
  138.4900   80.1380  224.2450 C   0  0  0  0  0  0  0  0  0  0  0  0
  140.5160   79.4080  221.5940 N   0  0  0  0  0  0  0  0  0  0  0  0
  140.2040   78.0860  222.0200 C   0  0  0  0  0  0  0  0  0  0  0  0
  140.7170   77.5770  223.0370 O   0  0  0  0  0  0  0  0  0  0  0  0
  139.2370   77.3110  221.2120 C   0  0  2  0  0  0  0  0  0  0  0  0
  138.0070   78.0860  220.8610 C   0  0  0  0  0  0  0  0  0  0  0  0
  136.9740   77.5600  221.8090 C   0  0  0  0  0  0  0  0  0  0  0  0
  137.5740   76.3790  222.5110 C   0  0  0  0  0  0  0  0  0  0  0  0
  138.8350   76.0830  221.8210 N   0  0  0  0  0  0  0  0  0  0  0  0
  139.4380   74.7930  221.8290 C   0  0  0  0  0  0  0  0  0  0  0  0
  140.6800   74.7080  222.0010 O   0  0  0  0  0  0  0  0  0  0  0  0
  138.5490   73.6240  221.6300 C   0  0  0  0  0  0  0  0  0  0  0  0
  138.7140   72.6310  222.6670 N   0  0  0  0  0  0  0  0  0  0  0  0
  139.8070   71.7460  222.7600 C   0  0  0  0  0  0  0  0  0  0  0  0
  140.7290   71.7830  221.9030 O   0  0  0  0  0  0  0  0  0  0  0  0
  139.8310   70.7860  223.8840 C   0  0  0  0  0  0  0  0  0  0  0  0
  139.2570   69.5340  223.7680 C   0  0  0  0  0  0  0  0  0  0  0  0
  139.2760   68.6360  224.8170 C   0  0  0  0  0  0  0  0  0  0  0  0
  139.8730   68.9770  226.0030 C   0  0  0  0  0  0  0  0  0  0  0  0
  139.9530   68.1730  227.1030 C   0  0  0  0  0  0  0  0  0  0  0  0
  140.5770   68.5840  228.2770 C   0  0  0  0  0  0  0  0  0  0  0  0
  140.6600   67.7960  229.3700 F   0  0  0  0  0  0  0  0  0  0  0  0
  141.1450   69.8580  228.3520 C   0  0  0  0  0  0  0  0  0  0  0  0
  141.0610   70.6560  227.2480 C   0  0  0  0  0  0  0  0  0  0  0  0
  140.4390   70.2340  226.0880 C   0  0  0  0  0  0  0  0  0  0  0  0
  140.4130   71.1000  225.0590 N   0  0  0  0  0  0  0  0  0  0  0  0
  142.8232   79.3638  223.8092 H   0  0  0  0  0  0  0  0  0  0  0  0
  142.6767   78.4099  222.2942 H   0  0  0  0  0  0  0  0  0  0  0  0
  143.5800   79.9626  222.2942 H   0  0  0  0  0  0  0  0  0  0  0  0
  142.1775   82.1890  222.1821 H   0  0  0  0  0  0  0  0  0  0  0  0
  142.7323   81.0723  220.8891 H   0  0  0  0  0  0  0  0  0  0  0  0
  141.0407   81.6767  220.8891 H   0  0  0  0  0  0  0  0  0  0  0  0
  141.0631   80.0796  224.4786 H   0  0  0  0  0  0  0  0  0  0  0  0
  141.2690   81.7410  223.7991 H   0  0  0  0  0  0  0  0  0  0  0  0
  139.5774   82.3555  221.9509 H   0  0  0  0  0  0  0  0  0  0  0  0
  137.1450   82.6593  221.6292 H   0  0  0  0  0  0  0  0  0  0  0  0
  136.4439   79.6986  224.6889 H   0  0  0  0  0  0  0  0  0  0  0  0
  138.8729   79.4226  224.9877 H   0  0  0  0  0  0  0  0  0  0  0  0
  140.0460   79.7880  220.7180 H   0  0  0  0  0  0  0  0  0  0  0  0
  139.7976   77.0839  220.2932 H   0  0  0  0  0  0  0  0  0  0  0  0
  138.1659   79.1639  221.0124 H   0  0  0  0  0  0  0  0  0  0  0  0
  137.7164   77.9702  219.8064 H   0  0  0  0  0  0  0  0  0  0  0  0
  136.7045   78.3359  222.5406 H   0  0  0  0  0  0  0  0  0  0  0  0
  136.0611   77.2695  221.2685 H   0  0  0  0  0  0  0  0  0  0  0  0
  137.7658   76.6212  223.5667 H   0  0  0  0  0  0  0  0  0  0  0  0
  136.8946   75.5142  222.4881 H   0  0  0  0  0  0  0  0  0  0  0  0
  137.5044   73.9687  221.6323 H   0  0  0  0  0  0  0  0  0  0  0  0
  138.8139   73.1573  220.6698 H   0  0  0  0  0  0  0  0  0  0  0  0
  137.9570   72.5780  223.3980 H   0  0  0  0  0  0  0  0  0  0  0  0
  138.7756   69.2472  222.8214 H   0  0  0  0  0  0  0  0  0  0  0  0
  138.8114   67.6457  224.7007 H   0  0  0  0  0  0  0  0  0  0  0  0
  139.5097   67.1672  227.0601 H   0  0  0  0  0  0  0  0  0  0  0  0
  141.6428   70.2060  229.2691 H   0  0  0  0  0  0  0  0  0  0  0  0
  141.5008   71.6637  227.2823 H   0  0  0  0  0  0  0  0  0  0  0  0
  1  2  1  0
  2  3  1  0
  2  4  1  0
  4  5  1  0
  5  6  2  0
  6  7  1  0
  7  8  2  0
  8  9  1  0
  8 10  1  0
 10 11  2  0
  2 12  1  0
 12 13  1  0
 13 14  2  0
 13 15  1  0
 15 16  1  0
 16 17  1  0
 17 18  1  0
 18 19  1  0
 19 20  1  0
 20 21  2  0
 20 22  1  0
 22 23  1  0
 23 24  1  0
 24 25  2  0
 24 26  1  0
 26 27  2  0
 27 28  1  0
 28 29  2  0
 29 30  1  0
 30 31  2  0
 31 32  1  0
 31 33  1  0
 33 34  2  0
 34 35  1  0
 35 36  2  0
 11  5  1  0
 19 15  1  0
 36 26  1  0
 35 29  1  0
  1 37  1  0
  1 38  1  0
  1 39  1  0
  3 40  1  0
  3 41  1  0
  3 42  1  0
  4 43  1  0
  4 44  1  0
  6 45  1  0
  7 46  1  0
 10 47  1  0
 11 48  1  0
 12 49  1  0
 15 50  1  6
 16 51  1  0
 16 52  1  0
 17 53  1  0
 17 54  1  0
 18 55  1  0
 18 56  1  0
 22 57  1  0
 22 58  1  0
 23 59  1  0
 27 60  1  0
 28 61  1  0
 30 62  1  0
 33 63  1  0
 34 64  1  0
M  END
>  <smiles>  (16) 
CC(C)(Cc1ccc(F)cc1)NC(=O)[C@@H]1CCCN1C(=O)CNC(=O)c1ccc2cc(F)ccc2n1

>  <score_type>  (16) 
oracle

>  <origin>  (16) 
autodockgpu

>  <m_score__min__energy>  (16) 
-8.7799999999999994

>  <m_primary>  (16) 
energy

>  <meeko>  (16) 
{"free_energy": -8.76, "intermolecular_energy": -11.15, "internal_energy": -2.3, "cluster_size": 5, "cluster_id": 1, "rank_in_cluster": 2}

>  <energy>  (16) 
-6.47

>  <cluster_rmsd>  (16) 
0.0

>  <rmsd>  (16) 
269.32

>  <cluster>  (16) 
8

$$$$

     RDKit          3D

 64 67  0  0  0  0  0  0  0  0999 V2000
  138.8640   78.5930  220.4630 C   0  0  0  0  0  0  0  0  0  0  0  0
  138.8460   77.3200  221.2620 C   0  0  0  0  0  0  0  0  0  0  0  0
  137.4770   76.6830  221.0090 C   0  0  0  0  0  0  0  0  0  0  0  0
  138.8860   77.6380  222.7390 C   0  0  0  0  0  0  0  0  0  0  0  0
  139.9270   78.6570  223.0330 C   0  0  0  0  0  0  0  0  0  0  0  0
  141.2210   78.2300  223.2580 C   0  0  0  0  0  0  0  0  0  0  0  0
  142.2350   79.1170  223.5360 C   0  0  0  0  0  0  0  0  0  0  0  0
  141.9380   80.4700  223.5880 C   0  0  0  0  0  0  0  0  0  0  0  0
  142.9520   81.3120  223.8610 F   0  0  0  0  0  0  0  0  0  0  0  0
  140.6350   80.9020  223.3610 C   0  0  0  0  0  0  0  0  0  0  0  0
  139.6430   80.0000  223.0870 C   0  0  0  0  0  0  0  0  0  0  0  0
  139.8330   76.3560  220.8720 N   0  0  0  0  0  0  0  0  0  0  0  0
  141.1090   76.8360  220.4650 C   0  0  0  0  0  0  0  0  0  0  0  0
  141.3850   78.0530  220.4410 O   0  0  0  0  0  0  0  0  0  0  0  0
  142.1260   75.8400  220.0630 C   0  0  2  0  0  0  0  0  0  0  0  0
  143.3080   76.4470  219.3780 C   0  0  0  0  0  0  0  0  0  0  0  0
  143.0720   76.1450  217.9300 C   0  0  0  0  0  0  0  0  0  0  0  0
  141.9010   75.2120  217.8560 C   0  0  0  0  0  0  0  0  0  0  0  0
  141.6120   74.7980  219.2330 N   0  0  0  0  0  0  0  0  0  0  0  0
  140.9480   73.5790  219.5530 C   0  0  0  0  0  0  0  0  0  0  0  0
  139.6930   73.5480  219.5160 O   0  0  0  0  0  0  0  0  0  0  0  0
  141.7940   72.4160  219.9120 C   0  0  0  0  0  0  0  0  0  0  0  0
  141.3420   71.7660  221.1200 N   0  0  0  0  0  0  0  0  0  0  0  0
  140.6730   72.4170  222.1780 C   0  0  0  0  0  0  0  0  0  0  0  0
  140.4310   73.6510  222.1110 O   0  0  0  0  0  0  0  0  0  0  0  0
  140.2720   71.6100  223.3490 C   0  0  0  0  0  0  0  0  0  0  0  0
  139.3800   70.5610  223.2240 C   0  0  0  0  0  0  0  0  0  0  0  0
  139.0020   69.8070  224.3180 C   0  0  0  0  0  0  0  0  0  0  0  0
  139.5140   70.0890  225.5570 C   0  0  0  0  0  0  0  0  0  0  0  0
  139.2150   69.4120  226.7040 C   0  0  0  0  0  0  0  0  0  0  0  0
  139.7730   69.7540  227.9330 C   0  0  0  0  0  0  0  0  0  0  0  0
  139.4820   69.0910  229.0720 F   0  0  0  0  0  0  0  0  0  0  0  0
  140.6700   70.8220  228.0150 C   0  0  0  0  0  0  0  0  0  0  0  0
  140.9650   71.4930  226.8630 C   0  0  0  0  0  0  0  0  0  0  0  0
  140.4040   71.1420  225.6500 C   0  0  0  0  0  0  0  0  0  0  0  0
  140.7620   71.8710  224.5780 N   0  0  0  0  0  0  0  0  0  0  0  0
  138.8762   79.4548  221.1465 H   0  0  0  0  0  0  0  0  0  0  0  0
  139.7625   78.6152  219.8289 H   0  0  0  0  0  0  0  0  0  0  0  0
  137.9664   78.6406  219.8289 H   0  0  0  0  0  0  0  0  0  0  0  0
  136.9938   76.4581  221.9712 H   0  0  0  0  0  0  0  0  0  0  0  0
  136.8479   77.3809  220.4370 H   0  0  0  0  0  0  0  0  0  0  0  0
  137.6057   75.7523  220.4370 H   0  0  0  0  0  0  0  0  0  0  0  0
  137.9047   78.0249  223.0510 H   0  0  0  0  0  0  0  0  0  0  0  0
  139.1286   76.7178  223.2906 H   0  0  0  0  0  0  0  0  0  0  0  0
  141.4463   77.1542  223.2138 H   0  0  0  0  0  0  0  0  0  0  0  0
  143.2602   78.7600  223.7134 H   0  0  0  0  0  0  0  0  0  0  0  0
  140.4006   81.9760  223.4020 H   0  0  0  0  0  0  0  0  0  0  0  0
  138.6158   80.3512  222.9096 H   0  0  0  0  0  0  0  0  0  0  0  0
  139.6570   75.3060  220.8730 H   0  0  0  0  0  0  0  0  0  0  0  0
  142.4464   75.4038  221.0207 H   0  0  0  0  0  0  0  0  0  0  0  0
  143.3471   77.5326  219.5511 H   0  0  0  0  0  0  0  0  0  0  0  0
  144.2652   76.0493  219.7462 H   0  0  0  0  0  0  0  0  0  0  0  0
  142.8494   77.0730  217.3830 H   0  0  0  0  0  0  0  0  0  0  0  0
  143.9640   75.6883  217.4763 H   0  0  0  0  0  0  0  0  0  0  0  0
  141.0309   75.7275  217.4234 H   0  0  0  0  0  0  0  0  0  0  0  0
  142.1230   74.3442  217.2176 H   0  0  0  0  0  0  0  0  0  0  0  0
  141.7662   71.6892  219.0867 H   0  0  0  0  0  0  0  0  0  0  0  0
  142.8161   72.7827  220.0875 H   0  0  0  0  0  0  0  0  0  0  0  0
  141.5310   70.7330  221.2040 H   0  0  0  0  0  0  0  0  0  0  0  0
  138.9633   70.3222  222.2344 H   0  0  0  0  0  0  0  0  0  0  0  0
  138.2887   68.9788  224.1941 H   0  0  0  0  0  0  0  0  0  0  0  0
  138.5102   68.5688  226.6558 H   0  0  0  0  0  0  0  0  0  0  0  0
  141.1229   71.1123  228.9745 H   0  0  0  0  0  0  0  0  0  0  0  0
  141.6693   72.3370  226.9017 H   0  0  0  0  0  0  0  0  0  0  0  0
  1  2  1  0
  2  3  1  0
  2  4  1  0
  4  5  1  0
  5  6  2  0
  6  7  1  0
  7  8  2  0
  8  9  1  0
  8 10  1  0
 10 11  2  0
  2 12  1  0
 12 13  1  0
 13 14  2  0
 13 15  1  0
 15 16  1  0
 16 17  1  0
 17 18  1  0
 18 19  1  0
 19 20  1  0
 20 21  2  0
 20 22  1  0
 22 23  1  0
 23 24  1  0
 24 25  2  0
 24 26  1  0
 26 27  2  0
 27 28  1  0
 28 29  2  0
 29 30  1  0
 30 31  2  0
 31 32  1  0
 31 33  1  0
 33 34  2  0
 34 35  1  0
 35 36  2  0
 11  5  1  0
 19 15  1  0
 36 26  1  0
 35 29  1  0
  1 37  1  0
  1 38  1  0
  1 39  1  0
  3 40  1  0
  3 41  1  0
  3 42  1  0
  4 43  1  0
  4 44  1  0
  6 45  1  0
  7 46  1  0
 10 47  1  0
 11 48  1  0
 12 49  1  0
 15 50  1  1
 16 51  1  0
 16 52  1  0
 17 53  1  0
 17 54  1  0
 18 55  1  0
 18 56  1  0
 22 57  1  0
 22 58  1  0
 23 59  1  0
 27 60  1  0
 28 61  1  0
 30 62  1  0
 33 63  1  0
 34 64  1  0
M  END
>  <smiles>  (17) 
CC(C)(Cc1ccc(F)cc1)NC(=O)[C@@H]1CCCN1C(=O)CNC(=O)c1ccc2cc(F)ccc2n1

>  <score_type>  (17) 
oracle

>  <origin>  (17) 
autodockgpu

>  <m_score__min__energy>  (17) 
-8.7799999999999994

>  <m_primary>  (17) 
energy

>  <meeko>  (17) 
{"free_energy": -8.17, "intermolecular_energy": -10.56, "internal_energy": -3.07, "cluster_size": 4, "cluster_id": 2, "rank_in_cluster": 3}

>  <energy>  (17) 
-6.3

>  <cluster_rmsd>  (17) 
0.0

>  <rmsd>  (17) 
269.71

>  <cluster>  (17) 
9

$$$$

     RDKit          3D

 64 67  0  0  0  0  0  0  0  0999 V2000
  140.2330   70.8480  219.1750 C   0  0  0  0  0  0  0  0  0  0  0  0
  141.4900   71.5310  218.7150 C   0  0  0  0  0  0  0  0  0  0  0  0
  141.4720   71.4620  217.1860 C   0  0  0  0  0  0  0  0  0  0  0  0
  142.6990   70.7340  219.1500 C   0  0  0  0  0  0  0  0  0  0  0  0
  143.8190   71.6350  219.5270 C   0  0  0  0  0  0  0  0  0  0  0  0
  144.0100   71.9230  220.8640 C   0  0  0  0  0  0  0  0  0  0  0  0
  145.0250   72.7490  221.2850 C   0  0  0  0  0  0  0  0  0  0  0  0
  145.8720   73.2970  220.3350 C   0  0  0  0  0  0  0  0  0  0  0  0
  146.8570   74.1010  220.7790 F   0  0  0  0  0  0  0  0  0  0  0  0
  145.6820   73.0070  218.9870 C   0  0  0  0  0  0  0  0  0  0  0  0
  144.6640   72.1840  218.5930 C   0  0  0  0  0  0  0  0  0  0  0  0
  141.5800   72.9170  219.0680 N   0  0  0  0  0  0  0  0  0  0  0  0
  140.6910   73.8260  218.4280 C   0  0  0  0  0  0  0  0  0  0  0  0
  139.8510   73.4520  217.5850 O   0  0  0  0  0  0  0  0  0  0  0  0
  140.7850   75.2570  218.7940 C   0  0  2  0  0  0  0  0  0  0  0  0
  141.7320   76.0260  217.9300 C   0  0  0  0  0  0  0  0  0  0  0  0
  142.9510   76.1760  218.7880 C   0  0  0  0  0  0  0  0  0  0  0  0
  142.5930   75.6870  220.1590 C   0  0  0  0  0  0  0  0  0  0  0  0
  141.1400   75.4780  220.1590 N   0  0  0  0  0  0  0  0  0  0  0  0
  140.3520   75.5140  221.3450 C   0  0  0  0  0  0  0  0  0  0  0  0
  140.7360   76.2300  222.3040 O   0  0  0  0  0  0  0  0  0  0  0  0
  139.1180   74.6930  221.3670 C   0  0  0  0  0  0  0  0  0  0  0  0
  139.1910   73.6260  222.3380 N   0  0  0  0  0  0  0  0  0  0  0  0
  140.2520   72.7020  222.4340 C   0  0  0  0  0  0  0  0  0  0  0  0
  141.2260   72.7700  221.6390 O   0  0  0  0  0  0  0  0  0  0  0  0
  140.1790   71.6660  223.4860 C   0  0  0  0  0  0  0  0  0  0  0  0
  139.6550   70.4140  223.2220 C   0  0  0  0  0  0  0  0  0  0  0  0
  139.5840   69.4450  224.2030 C   0  0  0  0  0  0  0  0  0  0  0  0
  140.0400   69.7130  225.4680 C   0  0  0  0  0  0  0  0  0  0  0  0
  140.0220   68.8340  226.5130 C   0  0  0  0  0  0  0  0  0  0  0  0
  140.5030   69.1740  227.7740 C   0  0  0  0  0  0  0  0  0  0  0  0
  140.4890   68.3120  228.8130 F   0  0  0  0  0  0  0  0  0  0  0  0
  141.0250   70.4500  227.9970 C   0  0  0  0  0  0  0  0  0  0  0  0
  141.0400   71.3220  226.9480 C   0  0  0  0  0  0  0  0  0  0  0  0
  140.5590   70.9720  225.7000 C   0  0  0  0  0  0  0  0  0  0  0  0
  140.6210   71.9080  224.7360 N   0  0  0  0  0  0  0  0  0  0  0  0
  140.2052   70.8329  220.2745 H   0  0  0  0  0  0  0  0  0  0  0  0
  139.3580   71.3947  218.7936 H   0  0  0  0  0  0  0  0  0  0  0  0
  140.2156   69.8164  218.7936 H   0  0  0  0  0  0  0  0  0  0  0  0
  141.2061   70.4431  216.8681 H   0  0  0  0  0  0  0  0  0  0  0  0
  140.7294   72.1734  216.7956 H   0  0  0  0  0  0  0  0  0  0  0  0
  142.4675   71.7199  216.7956 H   0  0  0  0  0  0  0  0  0  0  0  0
  142.4285   70.1132  220.0168 H   0  0  0  0  0  0  0  0  0  0  0  0
  143.0237   70.1009  218.3111 H   0  0  0  0  0  0  0  0  0  0  0  0
  143.3336   71.4807  221.6102 H   0  0  0  0  0  0  0  0  0  0  0  0
  145.1620   72.9703  222.3538 H   0  0  0  0  0  0  0  0  0  0  0  0
  146.3552   73.4427  218.2340 H   0  0  0  0  0  0  0  0  0  0  0  0
  144.5210   71.9607  217.5254 H   0  0  0  0  0  0  0  0  0  0  0  0
  142.2750   73.2960  219.7800 H   0  0  0  0  0  0  0  0  0  0  0  0
  139.7627   75.6287  218.6306 H   0  0  0  0  0  0  0  0  0  0  0  0
  141.9652   75.4689  217.0106 H   0  0  0  0  0  0  0  0  0  0  0  0
  141.3208   76.9914  217.5999 H   0  0  0  0  0  0  0  0  0  0  0  0
  143.7765   75.5758  218.3777 H   0  0  0  0  0  0  0  0  0  0  0  0
  143.2773   77.2260  218.8215 H   0  0  0  0  0  0  0  0  0  0  0  0
  143.1132   74.7418  220.3735 H   0  0  0  0  0  0  0  0  0  0  0  0
  142.8913   76.4116  220.9310 H   0  0  0  0  0  0  0  0  0  0  0  0
  138.2652   75.3415  221.6164 H   0  0  0  0  0  0  0  0  0  0  0  0
  138.9968   74.2379  220.3729 H   0  0  0  0  0  0  0  0  0  0  0  0
  138.3890   73.5450  223.0170 H   0  0  0  0  0  0  0  0  0  0  0  0
  139.2875   70.1855  222.2107 H   0  0  0  0  0  0  0  0  0  0  0  0
  139.1611   68.4568  223.9694 H   0  0  0  0  0  0  0  0  0  0  0  0
  139.6143   67.8250  226.3530 H   0  0  0  0  0  0  0  0  0  0  0  0
  141.4109   70.7420  228.9848 H   0  0  0  0  0  0  0  0  0  0  0  0
  141.4465   72.3328  227.0995 H   0  0  0  0  0  0  0  0  0  0  0  0
  1  2  1  0
  2  3  1  0
  2  4  1  0
  4  5  1  0
  5  6  2  0
  6  7  1  0
  7  8  2  0
  8  9  1  0
  8 10  1  0
 10 11  2  0
  2 12  1  0
 12 13  1  0
 13 14  2  0
 13 15  1  0
 15 16  1  0
 16 17  1  0
 17 18  1  0
 18 19  1  0
 19 20  1  0
 20 21  2  0
 20 22  1  0
 22 23  1  0
 23 24  1  0
 24 25  2  0
 24 26  1  0
 26 27  2  0
 27 28  1  0
 28 29  2  0
 29 30  1  0
 30 31  2  0
 31 32  1  0
 31 33  1  0
 33 34  2  0
 34 35  1  0
 35 36  2  0
 11  5  1  0
 19 15  1  0
 36 26  1  0
 35 29  1  0
  1 37  1  0
  1 38  1  0
  1 39  1  0
  3 40  1  0
  3 41  1  0
  3 42  1  0
  4 43  1  0
  4 44  1  0
  6 45  1  0
  7 46  1  0
 10 47  1  0
 11 48  1  0
 12 49  1  0
 15 50  1  1
 16 51  1  0
 16 52  1  0
 17 53  1  0
 17 54  1  0
 18 55  1  0
 18 56  1  0
 22 57  1  0
 22 58  1  0
 23 59  1  0
 27 60  1  0
 28 61  1  0
 30 62  1  0
 33 63  1  0
 34 64  1  0
M  END
>  <smiles>  (18) 
CC(C)(Cc1ccc(F)cc1)NC(=O)[C@@H]1CCCN1C(=O)CNC(=O)c1ccc2cc(F)ccc2n1

>  <score_type>  (18) 
oracle

>  <origin>  (18) 
autodockgpu

>  <m_score__min__energy>  (18) 
-8.7799999999999994

>  <m_primary>  (18) 
energy

>  <meeko>  (18) 
{"free_energy": -7.1, "intermolecular_energy": -9.49, "internal_energy": -3.74, "cluster_size": 1, "cluster_id": 6, "rank_in_cluster": 1}

>  <energy>  (18) 
-6.29

>  <cluster_rmsd>  (18) 
0.06

>  <rmsd>  (18) 
269.71

>  <cluster>  (18) 
9

$$$$

     RDKit          3D

 64 67  0  0  0  0  0  0  0  0999 V2000
  138.3040   80.6770  221.8350 C   0  0  0  0  0  0  0  0  0  0  0  0
  137.9270   79.6970  222.9100 C   0  0  0  0  0  0  0  0  0  0  0  0
  136.4940   80.0510  223.3170 C   0  0  0  0  0  0  0  0  0  0  0  0
  138.7740   79.9290  224.1400 C   0  0  0  0  0  0  0  0  0  0  0  0
  140.2120   80.0370  223.7790 C   0  0  0  0  0  0  0  0  0  0  0  0
  140.9000   78.8820  223.4660 C   0  0  0  0  0  0  0  0  0  0  0  0
  142.2320   78.9060  223.1240 C   0  0  0  0  0  0  0  0  0  0  0  0
  142.8870   80.1270  223.0950 C   0  0  0  0  0  0  0  0  0  0  0  0
  144.1900   80.1170  222.7550 F   0  0  0  0  0  0  0  0  0  0  0  0
  142.1950   81.2930  223.4090 C   0  0  0  0  0  0  0  0  0  0  0  0
  140.8710   81.2420  223.7480 C   0  0  0  0  0  0  0  0  0  0  0  0
  137.9140   78.3270  222.4920 N   0  0  0  0  0  0  0  0  0  0  0  0
  137.1330   77.9850  221.3530 C   0  0  0  0  0  0  0  0  0  0  0  0
  136.4720   78.8340  220.7200 O   0  0  0  0  0  0  0  0  0  0  0  0
  137.1210   76.5690  220.9220 C   0  0  2  0  0  0  0  0  0  0  0  0
  135.7480   76.0500  220.6380 C   0  0  0  0  0  0  0  0  0  0  0  0
  135.4230   75.2300  221.8490 C   0  0  0  0  0  0  0  0  0  0  0  0
  136.6740   75.1340  222.6700 C   0  0  0  0  0  0  0  0  0  0  0  0
  137.7550   75.6830  221.8450 N   0  0  0  0  0  0  0  0  0  0  0  0
  139.1230   75.3280  222.0230 C   0  0  0  0  0  0  0  0  0  0  0  0
  139.8870   76.1390  222.6030 O   0  0  0  0  0  0  0  0  0  0  0  0
  139.5570   74.0090  221.5040 C   0  0  0  0  0  0  0  0  0  0  0  0
  139.6610   73.0190  222.5510 N   0  0  0  0  0  0  0  0  0  0  0  0
  139.3930   71.6450  222.3830 C   0  0  0  0  0  0  0  0  0  0  0  0
  139.0330   71.2010  221.2600 O   0  0  0  0  0  0  0  0  0  0  0  0
  139.5470   70.7570  223.5540 C   0  0  0  0  0  0  0  0  0  0  0  0
  139.1000   69.4490  223.5250 C   0  0  0  0  0  0  0  0  0  0  0  0
  139.2410   68.6180  224.6190 C   0  0  0  0  0  0  0  0  0  0  0  0
  139.8360   69.0830  225.7630 C   0  0  0  0  0  0  0  0  0  0  0  0
  140.0300   68.3540  226.9010 C   0  0  0  0  0  0  0  0  0  0  0  0
  140.6420   68.8920  228.0290 C   0  0  0  0  0  0  0  0  0  0  0  0
  140.8380   68.1780  229.1580 F   0  0  0  0  0  0  0  0  0  0  0  0
  141.0800   70.2180  228.0160 C   0  0  0  0  0  0  0  0  0  0  0  0
  140.8830   70.9400  226.8750 C   0  0  0  0  0  0  0  0  0  0  0  0
  140.2730   70.3940  225.7610 C   0  0  0  0  0  0  0  0  0  0  0  0
  140.1280   71.1940  224.6900 N   0  0  0  0  0  0  0  0  0  0  0  0
  138.6624   81.6086  222.2974 H   0  0  0  0  0  0  0  0  0  0  0  0
  139.1011   80.2474  221.2104 H   0  0  0  0  0  0  0  0  0  0  0  0
  137.4245   80.8924  221.2104 H   0  0  0  0  0  0  0  0  0  0  0  0
  136.4185   80.0697  224.4142 H   0  0  0  0  0  0  0  0  0  0  0  0
  136.2324   81.0408  222.9146 H   0  0  0  0  0  0  0  0  0  0  0  0
  135.8016   79.2969  222.9146 H   0  0  0  0  0  0  0  0  0  0  0  0
  138.4537   80.8616  224.6276 H   0  0  0  0  0  0  0  0  0  0  0  0
  138.6453   79.0759  224.8224 H   0  0  0  0  0  0  0  0  0  0  0  0
  140.3698   77.9185  223.4907 H   0  0  0  0  0  0  0  0  0  0  0  0
  142.7659   77.9761  222.8788 H   0  0  0  0  0  0  0  0  0  0  0  0
  142.7161   82.2614  223.3844 H   0  0  0  0  0  0  0  0  0  0  0  0
  140.3323   82.1683  223.9965 H   0  0  0  0  0  0  0  0  0  0  0  0
  138.4570   77.5580  222.9900 H   0  0  0  0  0  0  0  0  0  0  0  0
  137.7030   76.5827  219.9887 H   0  0  0  0  0  0  0  0  0  0  0  0
  135.0323   76.8770  220.5202 H   0  0  0  0  0  0  0  0  0  0  0  0
  135.6948   75.4717  219.7038 H   0  0  0  0  0  0  0  0  0  0  0  0
  134.6269   75.7172  222.4312 H   0  0  0  0  0  0  0  0  0  0  0  0
  135.0692   74.2296  221.5590 H   0  0  0  0  0  0  0  0  0  0  0  0
  136.5673   75.7190  223.5954 H   0  0  0  0  0  0  0  0  0  0  0  0
  136.8823   74.0931  222.9584 H   0  0  0  0  0  0  0  0  0  0  0  0
  138.8247   73.6624  220.7600 H   0  0  0  0  0  0  0  0  0  0  0  0
  140.5539   74.1333  221.0560 H   0  0  0  0  0  0  0  0  0  0  0  0
  139.9610   73.3610  223.5010 H   0  0  0  0  0  0  0  0  0  0  0  0
  138.6226   69.0626  222.6124 H   0  0  0  0  0  0  0  0  0  0  0  0
  138.8753   67.5816  224.5723 H   0  0  0  0  0  0  0  0  0  0  0  0
  139.6916   67.3077  226.9270 H   0  0  0  0  0  0  0  0  0  0  0  0
  141.5670   70.6650  228.8952 H   0  0  0  0  0  0  0  0  0  0  0  0
  141.2193   71.9868  226.8406 H   0  0  0  0  0  0  0  0  0  0  0  0
  1  2  1  0
  2  3  1  0
  2  4  1  0
  4  5  1  0
  5  6  2  0
  6  7  1  0
  7  8  2  0
  8  9  1  0
  8 10  1  0
 10 11  2  0
  2 12  1  0
 12 13  1  0
 13 14  2  0
 13 15  1  0
 15 16  1  0
 16 17  1  0
 17 18  1  0
 18 19  1  0
 19 20  1  0
 20 21  2  0
 20 22  1  0
 22 23  1  0
 23 24  1  0
 24 25  2  0
 24 26  1  0
 26 27  2  0
 27 28  1  0
 28 29  2  0
 29 30  1  0
 30 31  2  0
 31 32  1  0
 31 33  1  0
 33 34  2  0
 34 35  1  0
 35 36  2  0
 11  5  1  0
 19 15  1  0
 36 26  1  0
 35 29  1  0
  1 37  1  0
  1 38  1  0
  1 39  1  0
  3 40  1  0
  3 41  1  0
  3 42  1  0
  4 43  1  0
  4 44  1  0
  6 45  1  0
  7 46  1  0
 10 47  1  0
 11 48  1  0
 12 49  1  0
 15 50  1  6
 16 51  1  0
 16 52  1  0
 17 53  1  0
 17 54  1  0
 18 55  1  0
 18 56  1  0
 22 57  1  0
 22 58  1  0
 23 59  1  0
 27 60  1  0
 28 61  1  0
 30 62  1  0
 33 63  1  0
 34 64  1  0
M  END
>  <smiles>  (19) 
CC(C)(Cc1ccc(F)cc1)NC(=O)[C@@H]1CCCN1C(=O)CNC(=O)c1ccc2cc(F)ccc2n1

>  <score_type>  (19) 
oracle

>  <origin>  (19) 
autodockgpu

>  <m_score__min__energy>  (19) 
-8.7799999999999994

>  <m_primary>  (19) 
energy

>  <meeko>  (19) 
{"free_energy": -8.18, "intermolecular_energy": -10.56, "internal_energy": -3.12, "cluster_size": 2, "cluster_id": 4, "rank_in_cluster": 2}

>  <energy>  (19) 
-6.25

>  <cluster_rmsd>  (19) 
0.08

>  <rmsd>  (19) 
269.74

>  <cluster>  (19) 
9

$$$$

     RDKit          3D

 64 67  0  0  0  0  0  0  0  0999 V2000
  138.1400   76.2740  220.3380 C   0  0  0  0  0  0  0  0  0  0  0  0
  139.0740   76.7610  221.4090 C   0  0  0  0  0  0  0  0  0  0  0  0
  138.5670   76.1510  222.7180 C   0  0  0  0  0  0  0  0  0  0  0  0
  138.9370   78.2580  221.5710 C   0  0  0  0  0  0  0  0  0  0  0  0
  140.2180   78.8610  222.0220 C   0  0  0  0  0  0  0  0  0  0  0  0
  140.6250   78.6450  223.3240 C   0  0  0  0  0  0  0  0  0  0  0  0
  141.7990   79.1730  223.8090 C   0  0  0  0  0  0  0  0  0  0  0  0
  142.5840   79.9370  222.9610 C   0  0  0  0  0  0  0  0  0  0  0  0
  143.7260   80.4390  223.4650 F   0  0  0  0  0  0  0  0  0  0  0  0
  142.1760   80.1550  221.6480 C   0  0  0  0  0  0  0  0  0  0  0  0
  141.0040   79.6200  221.1890 C   0  0  0  0  0  0  0  0  0  0  0  0
  140.4350   76.3390  221.2530 N   0  0  0  0  0  0  0  0  0  0  0  0
  141.0770   76.6080  220.0120 C   0  0  0  0  0  0  0  0  0  0  0  0
  140.4960   77.1920  219.0740 O   0  0  0  0  0  0  0  0  0  0  0  0
  142.4820   76.1720  219.8520 C   0  0  2  0  0  0  0  0  0  0  0  0
  143.2730   77.0540  218.9390 C   0  0  0  0  0  0  0  0  0  0  0  0
  143.3430   76.2710  217.6640 C   0  0  0  0  0  0  0  0  0  0  0  0
  142.7870   74.9080  217.9480 C   0  0  0  0  0  0  0  0  0  0  0  0
  142.6170   74.8230  219.4020 N   0  0  0  0  0  0  0  0  0  0  0  0
  142.6070   73.5880  220.1110 C   0  0  0  0  0  0  0  0  0  0  0  0
  143.5780   73.3130  220.8600 O   0  0  0  0  0  0  0  0  0  0  0  0
  141.4370   72.7000  219.9150 C   0  0  0  0  0  0  0  0  0  0  0  0
  141.0990   71.9710  221.1150 N   0  0  0  0  0  0  0  0  0  0  0  0
  140.5470   72.5520  222.2760 C   0  0  0  0  0  0  0  0  0  0  0  0
  140.3150   73.7890  222.3180 O   0  0  0  0  0  0  0  0  0  0  0  0
  140.2540   71.6680  223.4240 C   0  0  0  0  0  0  0  0  0  0  0  0
  139.5060   70.5170  223.2690 C   0  0  0  0  0  0  0  0  0  0  0  0
  139.2290   69.6900  224.3400 C   0  0  0  0  0  0  0  0  0  0  0  0
  139.7010   70.0030  225.5890 C   0  0  0  0  0  0  0  0  0  0  0  0
  139.4920   69.2630  226.7160 C   0  0  0  0  0  0  0  0  0  0  0  0
  140.0020   69.6410  227.9550 C   0  0  0  0  0  0  0  0  0  0  0  0
  139.8000   68.9150  229.0750 F   0  0  0  0  0  0  0  0  0  0  0  0
  140.7540   70.8130  228.0680 C   0  0  0  0  0  0  0  0  0  0  0  0
  140.9590   71.5470  226.9360 C   0  0  0  0  0  0  0  0  0  0  0  0
  140.4470   71.1600  225.7120 C   0  0  0  0  0  0  0  0  0  0  0  0
  140.7080   71.9570  224.6610 N   0  0  0  0  0  0  0  0  0  0  0  0
  137.2564   75.8133  220.8038 H   0  0  0  0  0  0  0  0  0  0  0  0
  137.8246   77.1224  219.7130 H   0  0  0  0  0  0  0  0  0  0  0  0
  138.6551   75.5297  219.7130 H   0  0  0  0  0  0  0  0  0  0  0  0
  139.0125   76.6870  223.5690 H   0  0  0  0  0  0  0  0  0  0  0  0
  137.4714   76.2379  222.7629 H   0  0  0  0  0  0  0  0  0  0  0  0
  138.8528   75.0897  222.7629 H   0  0  0  0  0  0  0  0  0  0  0  0
  138.6508   78.7002  220.6053 H   0  0  0  0  0  0  0  0  0  0  0  0
  138.1664   78.4608  222.3293 H   0  0  0  0  0  0  0  0  0  0  0  0
  139.9952   78.0360  223.9892 H   0  0  0  0  0  0  0  0  0  0  0  0
  142.1082   78.9922  224.8491 H   0  0  0  0  0  0  0  0  0  0  0  0
  142.8003   80.7615  220.9753 H   0  0  0  0  0  0  0  0  0  0  0  0
  140.6897   79.7979  220.1500 H   0  0  0  0  0  0  0  0  0  0  0  0
  140.9840   75.8380  222.0150 H   0  0  0  0  0  0  0  0  0  0  0  0
  142.8887   76.2469  220.8713 H   0  0  0  0  0  0  0  0  0  0  0  0
  142.7618   78.0152  218.7817 H   0  0  0  0  0  0  0  0  0  0  0  0
  144.2657   77.3041  219.3414 H   0  0  0  0  0  0  0  0  0  0  0  0
  142.7457   76.7665  216.8845 H   0  0  0  0  0  0  0  0  0  0  0  0
  144.3806   76.2018  217.3054 H   0  0  0  0  0  0  0  0  0  0  0  0
  141.8177   74.7802  217.4439 H   0  0  0  0  0  0  0  0  0  0  0  0
  143.4590   74.1192  217.5790 H   0  0  0  0  0  0  0  0  0  0  0  0
  140.5732   73.3125  219.6173 H   0  0  0  0  0  0  0  0  0  0  0  0
  141.6954   71.9675  219.1361 H   0  0  0  0  0  0  0  0  0  0  0  0
  141.2810   70.9330  221.1090 H   0  0  0  0  0  0  0  0  0  0  0  0
  139.1231   70.2537  222.2720 H   0  0  0  0  0  0  0  0  0  0  0  0
  138.6295   68.7798  224.1911 H   0  0  0  0  0  0  0  0  0  0  0  0
  138.9015   68.3378  226.6433 H   0  0  0  0  0  0  0  0  0  0  0  0
  141.1666   71.1331  229.0361 H   0  0  0  0  0  0  0  0  0  0  0  0
  141.5487   72.4734  226.9996 H   0  0  0  0  0  0  0  0  0  0  0  0
  1  2  1  0
  2  3  1  0
  2  4  1  0
  4  5  1  0
  5  6  2  0
  6  7  1  0
  7  8  2  0
  8  9  1  0
  8 10  1  0
 10 11  2  0
  2 12  1  0
 12 13  1  0
 13 14  2  0
 13 15  1  0
 15 16  1  0
 16 17  1  0
 17 18  1  0
 18 19  1  0
 19 20  1  0
 20 21  2  0
 20 22  1  0
 22 23  1  0
 23 24  1  0
 24 25  2  0
 24 26  1  0
 26 27  2  0
 27 28  1  0
 28 29  2  0
 29 30  1  0
 30 31  2  0
 31 32  1  0
 31 33  1  0
 33 34  2  0
 34 35  1  0
 35 36  2  0
 11  5  1  0
 19 15  1  0
 36 26  1  0
 35 29  1  0
  1 37  1  0
  1 38  1  0
  1 39  1  0
  3 40  1  0
  3 41  1  0
  3 42  1  0
  4 43  1  0
  4 44  1  0
  6 45  1  0
  7 46  1  0
 10 47  1  0
 11 48  1  0
 12 49  1  0
 15 50  1  1
 16 51  1  0
 16 52  1  0
 17 53  1  0
 17 54  1  0
 18 55  1  0
 18 56  1  0
 22 57  1  0
 22 58  1  0
 23 59  1  0
 27 60  1  0
 28 61  1  0
 30 62  1  0
 33 63  1  0
 34 64  1  0
M  END
>  <smiles>  (20) 
CC(C)(Cc1ccc(F)cc1)NC(=O)[C@@H]1CCCN1C(=O)CNC(=O)c1ccc2cc(F)ccc2n1

>  <score_type>  (20) 
oracle

>  <origin>  (20) 
autodockgpu

>  <m_score__min__energy>  (20) 
-8.7799999999999994

>  <m_primary>  (20) 
energy

>  <meeko>  (20) 
{"free_energy": -8.64, "intermolecular_energy": -11.03, "internal_energy": -3.21, "cluster_size": 4, "cluster_id": 2, "rank_in_cluster": 1}

>  <energy>  (20) 
-5.28

>  <cluster_rmsd>  (20) 
0.0

>  <rmsd>  (20) 
269.96

>  <cluster>  (20) 
10

$$$$
