
     RDKit          3D

 53 56  0  0  0  0  0  0  0  0999 V2000
  139.8040   71.3800  221.1040 O   0  0  0  0  0  0  0  0  0  0  0  0
  139.7370   71.8820  222.2660 C   0  0  0  0  0  0  0  0  0  0  0  0
  139.6170   73.2870  222.4360 N   0  0  0  0  0  0  0  0  0  0  0  0
  139.5760   74.1060  221.2540 C   0  0  0  0  0  0  0  0  0  0  0  0
  140.5080   75.2450  221.4570 C   0  0  0  0  0  0  0  0  0  0  0  0
  140.1550   76.1000  222.3240 O   0  0  0  0  0  0  0  0  0  0  0  0
  141.7350   75.3740  220.7220 N   0  0  0  0  0  0  0  0  0  0  0  0
  142.7970   74.3520  220.8380 C   0  0  0  0  0  0  0  0  0  0  0  0
  143.7400   74.6930  219.6980 C   0  0  2  0  0  0  0  0  0  0  0  0
  145.0400   74.2720  219.9460 O   0  0  0  0  0  0  0  0  0  0  0  0
  143.6080   76.1960  219.6360 C   0  0  0  0  0  0  0  0  0  0  0  0
  142.1250   76.4040  219.8220 C   0  0  2  0  0  0  0  0  0  0  0  0
  141.8280   77.7750  220.3040 C   0  0  0  0  0  0  0  0  0  0  0  0
  141.5850   78.7520  219.5590 O   0  0  0  0  0  0  0  0  0  0  0  0
  141.8190   77.9870  221.7050 N   0  0  0  0  0  0  0  0  0  0  0  0
  141.5360   79.3050  222.2800 C   0  0  0  0  0  0  0  0  0  0  0  0
  142.8530   80.0570  222.4190 C   0  0  0  0  0  0  0  0  0  0  0  0
  142.4780   80.3870  223.8450 C   0  0  0  0  0  0  0  0  0  0  0  0
  141.4060   79.3260  223.7670 C   0  0  0  0  0  0  0  0  0  0  0  0
  139.7790   71.0550  223.4720 C   0  0  0  0  0  0  0  0  0  0  0  0
  139.2830   69.7550  223.3900 C   0  0  0  0  0  0  0  0  0  0  0  0
  139.3240   68.9670  224.5440 C   0  0  0  0  0  0  0  0  0  0  0  0
  139.8480   69.4910  225.7160 C   0  0  0  0  0  0  0  0  0  0  0  0
  139.8900   68.7260  226.8470 C   0  0  0  0  0  0  0  0  0  0  0  0
  140.4190   69.2840  227.9930 C   0  0  0  0  0  0  0  0  0  0  0  0
  140.4690   68.5410  229.1220 F   0  0  0  0  0  0  0  0  0  0  0  0
  140.9000   70.5640  228.0530 C   0  0  0  0  0  0  0  0  0  0  0  0
  140.8610   71.3490  226.9070 C   0  0  0  0  0  0  0  0  0  0  0  0
  140.3280   70.7850  225.7520 C   0  0  0  0  0  0  0  0  0  0  0  0
  140.2800   71.5170  224.6450 N   0  0  0  0  0  0  0  0  0  0  0  0
  139.5630   73.6830  223.4010 H   0  0  0  0  0  0  0  0  0  0  0  0
  139.8901   73.5169  220.3797 H   0  0  0  0  0  0  0  0  0  0  0  0
  138.5543   74.4730  221.0766 H   0  0  0  0  0  0  0  0  0  0  0  0
  143.3098   74.4257  221.8084 H   0  0  0  0  0  0  0  0  0  0  0  0
  142.4109   73.3235  220.7827 H   0  0  0  0  0  0  0  0  0  0  0  0
  143.4969   74.1933  218.7487 H   0  0  0  0  0  0  0  0  0  0  0  0
  145.5500   74.5080  219.1200 H   0  0  0  0  0  0  0  0  0  0  0  0
  144.1808   76.6785  220.4417 H   0  0  0  0  0  0  0  0  0  0  0  0
  143.9974   76.6314  218.7039 H   0  0  0  0  0  0  0  0  0  0  0  0
  141.5539   76.3340  218.8845 H   0  0  0  0  0  0  0  0  0  0  0  0
  142.0170   77.1980  222.3530 H   0  0  0  0  0  0  0  0  0  0  0  0
  140.6861   79.6477  221.6715 H   0  0  0  0  0  0  0  0  0  0  0  0
  143.7485   79.4259  222.3198 H   0  0  0  0  0  0  0  0  0  0  0  0
  143.1317   80.8488  221.7081 H   0  0  0  0  0  0  0  0  0  0  0  0
  143.2682   80.1819  224.5822 H   0  0  0  0  0  0  0  0  0  0  0  0
  142.2391   81.4172  224.1476 H   0  0  0  0  0  0  0  0  0  0  0  0
  141.6761   78.3779  224.2549 H   0  0  0  0  0  0  0  0  0  0  0  0
  140.4255   79.4892  224.2381 H   0  0  0  0  0  0  0  0  0  0  0  0
  138.8727   69.3619  222.4481 H   0  0  0  0  0  0  0  0  0  0  0  0
  138.9422   67.9356  224.5224 H   0  0  0  0  0  0  0  0  0  0  0  0
  139.5123   67.6929  226.8443 H   0  0  0  0  0  0  0  0  0  0  0  0
  141.3102   70.9643  228.9919 H   0  0  0  0  0  0  0  0  0  0  0  0
  141.2389   72.3820  226.9127 H   0  0  0  0  0  0  0  0  0  0  0  0
  1  2  2  0
  2  3  1  0
  3  4  1  0
  4  5  1  0
  5  6  2  0
  5  7  1  0
  7  8  1  0
  8  9  1  0
  9 10  1  0
  9 11  1  0
 11 12  1  0
 12 13  1  0
 13 14  2  0
 13 15  1  0
 15 16  1  0
 16 17  1  0
 17 18  1  0
 18 19  1  0
  2 20  1  0
 20 21  2  0
 21 22  1  0
 22 23  2  0
 23 24  1  0
 24 25  2  0
 25 26  1  0
 25 27  1  0
 27 28  2  0
 28 29  1  0
 29 30  2  0
 12  7  1  0
 19 16  1  0
 30 20  1  0
 29 23  1  0
  3 31  1  0
  4 32  1  0
  4 33  1  0
  8 34  1  0
  8 35  1  0
  9 36  1  6
 10 37  1  0
 11 38  1  0
 11 39  1  0
 12 40  1  6
 15 41  1  0
 16 42  1  0
 17 43  1  0
 17 44  1  0
 18 45  1  0
 18 46  1  0
 19 47  1  0
 19 48  1  0
 21 49  1  0
 22 50  1  0
 24 51  1  0
 27 52  1  0
 28 53  1  0
M  END
>  <smiles>  (1) 
O=C(NCC(=O)N1C[C@H](O)C[C@@H]1C(=O)NC1CCC1)c1ccc2cc(F)ccc2n1

>  <score_type>  (1) 
oracle

>  <origin>  (1) 
autodockgpu

>  <m_score__min__energy>  (1) 
-9.3800000000000008

>  <m_primary>  (1) 
energy

>  <meeko>  (1) 
{"free_energy": -9.15, "intermolecular_energy": -11.23, "internal_energy": -2.36, "cluster_size": 15, "cluster_id": 1, "rank_in_cluster": 2}

>  <energy>  (1) 
-9.38

>  <cluster_rmsd>  (1) 
0.0

>  <rmsd>  (1) 
271.89

>  <cluster>  (1) 
1

$$$$

     RDKit          3D

 53 56  0  0  0  0  0  0  0  0999 V2000
  139.5740   71.1180  221.1020 O   0  0  0  0  0  0  0  0  0  0  0  0
  139.6060   71.6270  222.2620 C   0  0  0  0  0  0  0  0  0  0  0  0
  139.5840   73.0370  222.4280 N   0  0  0  0  0  0  0  0  0  0  0  0
  139.5250   73.8530  221.2440 C   0  0  0  0  0  0  0  0  0  0  0  0
  140.4150   75.0250  221.4540 C   0  0  0  0  0  0  0  0  0  0  0  0
  140.0300   75.8610  222.3260 O   0  0  0  0  0  0  0  0  0  0  0  0
  141.6360   75.2040  220.7200 N   0  0  0  0  0  0  0  0  0  0  0  0
  142.7290   74.2150  220.8190 C   0  0  0  0  0  0  0  0  0  0  0  0
  143.6600   74.6030  219.6840 C   0  0  2  0  0  0  0  0  0  0  0  0
  144.9730   74.2190  219.9240 O   0  0  0  0  0  0  0  0  0  0  0  0
  143.4810   76.1020  219.6460 C   0  0  0  0  0  0  0  0  0  0  0  0
  141.9920   76.2600  219.8360 C   0  0  2  0  0  0  0  0  0  0  0  0
  141.6520   77.6130  220.3400 C   0  0  0  0  0  0  0  0  0  0  0  0
  141.3760   78.5930  219.6110 O   0  0  0  0  0  0  0  0  0  0  0  0
  141.6400   77.8030  221.7450 N   0  0  0  0  0  0  0  0  0  0  0  0
  141.3170   79.1020  222.3410 C   0  0  0  0  0  0  0  0  0  0  0  0
  142.5720   79.9630  222.3170 C   0  0  0  0  0  0  0  0  0  0  0  0
  142.3420   80.2840  223.7750 C   0  0  0  0  0  0  0  0  0  0  0  0
  141.3620   79.1370  223.8330 C   0  0  0  0  0  0  0  0  0  0  0  0
  139.6670   70.8040  223.4700 C   0  0  0  0  0  0  0  0  0  0  0  0
  139.1750   69.5020  223.3980 C   0  0  0  0  0  0  0  0  0  0  0  0
  139.2340   68.7180  224.5530 C   0  0  0  0  0  0  0  0  0  0  0  0
  139.7700   69.2470  225.7170 C   0  0  0  0  0  0  0  0  0  0  0  0
  139.8300   68.4860  226.8500 C   0  0  0  0  0  0  0  0  0  0  0  0
  140.3700   69.0490  227.9870 C   0  0  0  0  0  0  0  0  0  0  0  0
  140.4370   68.3100  229.1190 F   0  0  0  0  0  0  0  0  0  0  0  0
  140.8470   70.3320  228.0380 C   0  0  0  0  0  0  0  0  0  0  0  0
  140.7900   71.1130  226.8900 C   0  0  0  0  0  0  0  0  0  0  0  0
  140.2450   70.5430  225.7440 C   0  0  0  0  0  0  0  0  0  0  0  0
  140.1800   71.2710  224.6350 N   0  0  0  0  0  0  0  0  0  0  0  0
  139.6120   73.4400  223.3910 H   0  0  0  0  0  0  0  0  0  0  0  0
  139.8676   73.2744  220.3735 H   0  0  0  0  0  0  0  0  0  0  0  0
  138.4927   74.1836  221.0567 H   0  0  0  0  0  0  0  0  0  0  0  0
  143.2402   74.2895  221.7901 H   0  0  0  0  0  0  0  0  0  0  0  0
  142.3752   73.1759  220.7475 H   0  0  0  0  0  0  0  0  0  0  0  0
  143.4316   74.1106  218.7272 H   0  0  0  0  0  0  0  0  0  0  0  0
  145.4760   74.4940  219.1060 H   0  0  0  0  0  0  0  0  0  0  0  0
  144.0391   76.5894  220.4590 H   0  0  0  0  0  0  0  0  0  0  0  0
  143.8558   76.5643  218.7209 H   0  0  0  0  0  0  0  0  0  0  0  0
  141.4225   76.1869  218.8977 H   0  0  0  0  0  0  0  0  0  0  0  0
  141.8650   77.0100  222.3800 H   0  0  0  0  0  0  0  0  0  0  0  0
  140.3753   79.3626  221.8358 H   0  0  0  0  0  0  0  0  0  0  0  0
  143.4997   79.4072  222.1157 H   0  0  0  0  0  0  0  0  0  0  0  0
  142.6964   80.7635  221.5729 H   0  0  0  0  0  0  0  0  0  0  0  0
  143.2285   80.1575  224.4139 H   0  0  0  0  0  0  0  0  0  0  0  0
  142.0544   81.2957  224.0970 H   0  0  0  0  0  0  0  0  0  0  0  0
  141.7668   78.2229  224.2919 H   0  0  0  0  0  0  0  0  0  0  0  0
  140.4338   79.2261  224.4166 H   0  0  0  0  0  0  0  0  0  0  0  0
  138.7541   69.1047  222.4626 H   0  0  0  0  0  0  0  0  0  0  0  0
  138.8566   67.6849  224.5388 H   0  0  0  0  0  0  0  0  0  0  0  0
  139.4572   67.4511  226.8551 H   0  0  0  0  0  0  0  0  0  0  0  0
  141.2674   70.7366  228.9705 H   0  0  0  0  0  0  0  0  0  0  0  0
  141.1634   72.1477  226.8875 H   0  0  0  0  0  0  0  0  0  0  0  0
  1  2  2  0
  2  3  1  0
  3  4  1  0
  4  5  1  0
  5  6  2  0
  5  7  1  0
  7  8  1  0
  8  9  1  0
  9 10  1  0
  9 11  1  0
 11 12  1  0
 12 13  1  0
 13 14  2  0
 13 15  1  0
 15 16  1  0
 16 17  1  0
 17 18  1  0
 18 19  1  0
  2 20  1  0
 20 21  2  0
 21 22  1  0
 22 23  2  0
 23 24  1  0
 24 25  2  0
 25 26  1  0
 25 27  1  0
 27 28  2  0
 28 29  1  0
 29 30  2  0
 12  7  1  0
 19 16  1  0
 30 20  1  0
 29 23  1  0
  3 31  1  0
  4 32  1  0
  4 33  1  0
  8 34  1  0
  8 35  1  0
  9 36  1  6
 10 37  1  0
 11 38  1  0
 11 39  1  0
 12 40  1  6
 15 41  1  0
 16 42  1  0
 17 43  1  0
 17 44  1  0
 18 45  1  0
 18 46  1  0
 19 47  1  0
 19 48  1  0
 21 49  1  0
 22 50  1  0
 24 51  1  0
 27 52  1  0
 28 53  1  0
M  END
>  <smiles>  (2) 
O=C(NCC(=O)N1C[C@H](O)C[C@@H]1C(=O)NC1CCC1)c1ccc2cc(F)ccc2n1

>  <score_type>  (2) 
oracle

>  <origin>  (2) 
autodockgpu

>  <m_score__min__energy>  (2) 
-9.3800000000000008

>  <m_primary>  (2) 
energy

>  <meeko>  (2) 
{"free_energy": -9.11, "intermolecular_energy": -11.2, "internal_energy": -2.38, "cluster_size": 15, "cluster_id": 1, "rank_in_cluster": 3}

>  <energy>  (2) 
-9.15

>  <cluster_rmsd>  (2) 
0.41

>  <rmsd>  (2) 
271.91

>  <cluster>  (2) 
1

$$$$

     RDKit          3D

 53 56  0  0  0  0  0  0  0  0999 V2000
  136.6090   77.3680  222.8540 O   0  0  0  0  0  0  0  0  0  0  0  0
  136.7930   76.1530  223.1640 C   0  0  0  0  0  0  0  0  0  0  0  0
  137.9550   75.4670  222.7200 N   0  0  0  0  0  0  0  0  0  0  0  0
  138.9010   76.1960  221.9180 C   0  0  0  0  0  0  0  0  0  0  0  0
  140.0530   75.2980  221.6440 C   0  0  0  0  0  0  0  0  0  0  0  0
  140.0980   74.2330  222.3320 O   0  0  0  0  0  0  0  0  0  0  0  0
  141.0530   75.6080  220.6630 N   0  0  0  0  0  0  0  0  0  0  0  0
  142.1530   74.6620  220.3790 C   0  0  0  0  0  0  0  0  0  0  0  0
  142.7710   75.2100  219.1050 C   0  0  2  0  0  0  0  0  0  0  0  0
  144.1080   74.8600  218.9740 O   0  0  0  0  0  0  0  0  0  0  0  0
  142.5640   76.6960  219.2840 C   0  0  0  0  0  0  0  0  0  0  0  0
  141.1660   76.7680  219.8470 C   0  0  2  0  0  0  0  0  0  0  0  0
  140.9390   78.0420  220.5700 C   0  0  0  0  0  0  0  0  0  0  0  0
  140.2600   78.9980  220.1300 O   0  0  0  0  0  0  0  0  0  0  0  0
  141.5360   78.1830  221.8490 N   0  0  0  0  0  0  0  0  0  0  0  0
  141.3710   79.4040  222.6420 C   0  0  0  0  0  0  0  0  0  0  0  0
  142.5540   80.3190  222.3600 C   0  0  0  0  0  0  0  0  0  0  0  0
  142.7380   80.4890  223.8500 C   0  0  0  0  0  0  0  0  0  0  0  0
  141.8330   79.2980  224.0580 C   0  0  0  0  0  0  0  0  0  0  0  0
  135.8350   75.4050  223.9780 C   0  0  0  0  0  0  0  0  0  0  0  0
  135.7060   74.0370  223.7420 C   0  0  0  0  0  0  0  0  0  0  0  0
  134.7900   73.3250  224.5220 C   0  0  0  0  0  0  0  0  0  0  0  0
  134.0500   73.9860  225.4890 C   0  0  0  0  0  0  0  0  0  0  0  0
  133.1530   73.2950  226.2540 C   0  0  0  0  0  0  0  0  0  0  0  0
  132.4350   73.9900  227.2060 C   0  0  0  0  0  0  0  0  0  0  0  0
  131.5420   73.3220  227.9720 F   0  0  0  0  0  0  0  0  0  0  0  0
  132.5760   75.3350  227.4210 C   0  0  0  0  0  0  0  0  0  0  0  0
  133.4870   76.0450  226.6470 C   0  0  0  0  0  0  0  0  0  0  0  0
  134.2100   75.3430  225.6880 C   0  0  0  0  0  0  0  0  0  0  0  0
  135.0850   76.0010  224.9370 N   0  0  0  0  0  0  0  0  0  0  0  0
  138.0900   74.4660  222.9840 H   0  0  0  0  0  0  0  0  0  0  0  0
  138.4316   76.5017  220.9713 H   0  0  0  0  0  0  0  0  0  0  0  0
  139.2365   77.1002  222.4471 H   0  0  0  0  0  0  0  0  0  0  0  0
  142.8858   74.6532  221.1994 H   0  0  0  0  0  0  0  0  0  0  0  0
  141.8084   73.6225  220.2756 H   0  0  0  0  0  0  0  0  0  0  0  0
  142.3228   74.8138  218.1818 H   0  0  0  0  0  0  0  0  0  0  0  0
  144.4740   75.4880  218.2900 H   0  0  0  0  0  0  0  0  0  0  0  0
  143.2975   77.1172  219.9872 H   0  0  0  0  0  0  0  0  0  0  0  0
  142.6916   77.2706  218.3547 H   0  0  0  0  0  0  0  0  0  0  0  0
  140.3849   76.7720  219.0725 H   0  0  0  0  0  0  0  0  0  0  0  0
  142.1070   77.4090  222.2450 H   0  0  0  0  0  0  0  0  0  0  0  0
  140.3213   79.6693  222.4479 H   0  0  0  0  0  0  0  0  0  0  0  0
  143.3968   79.8274  221.8520 H   0  0  0  0  0  0  0  0  0  0  0  0
  142.4508   81.1916  221.6982 H   0  0  0  0  0  0  0  0  0  0  0  0
  143.7703   80.3425  224.2005 H   0  0  0  0  0  0  0  0  0  0  0  0
  142.5357   81.4513  224.3430 H   0  0  0  0  0  0  0  0  0  0  0  0
  142.3658   78.3635  224.2881 H   0  0  0  0  0  0  0  0  0  0  0  0
  141.1050   79.2885  224.8825 H   0  0  0  0  0  0  0  0  0  0  0  0
  136.3049   73.5347  222.9680 H   0  0  0  0  0  0  0  0  0  0  0  0
  134.6572   72.2439  224.3686 H   0  0  0  0  0  0  0  0  0  0  0  0
  133.0071   72.2136  226.1148 H   0  0  0  0  0  0  0  0  0  0  0  0
  131.9794   75.8444  228.1921 H   0  0  0  0  0  0  0  0  0  0  0  0
  133.6313   77.1263  226.7883 H   0  0  0  0  0  0  0  0  0  0  0  0
  1  2  2  0
  2  3  1  0
  3  4  1  0
  4  5  1  0
  5  6  2  0
  5  7  1  0
  7  8  1  0
  8  9  1  0
  9 10  1  0
  9 11  1  0
 11 12  1  0
 12 13  1  0
 13 14  2  0
 13 15  1  0
 15 16  1  0
 16 17  1  0
 17 18  1  0
 18 19  1  0
  2 20  1  0
 20 21  2  0
 21 22  1  0
 22 23  2  0
 23 24  1  0
 24 25  2  0
 25 26  1  0
 25 27  1  0
 27 28  2  0
 28 29  1  0
 29 30  2  0
 12  7  1  0
 19 16  1  0
 30 20  1  0
 29 23  1  0
  3 31  1  0
  4 32  1  0
  4 33  1  0
  8 34  1  0
  8 35  1  0
  9 36  1  6
 10 37  1  0
 11 38  1  0
 11 39  1  0
 12 40  1  6
 15 41  1  0
 16 42  1  0
 17 43  1  0
 17 44  1  0
 18 45  1  0
 18 46  1  0
 19 47  1  0
 19 48  1  0
 21 49  1  0
 22 50  1  0
 24 51  1  0
 27 52  1  0
 28 53  1  0
M  END
>  <smiles>  (3) 
O=C(NCC(=O)N1C[C@H](O)C[C@@H]1C(=O)NC1CCC1)c1ccc2cc(F)ccc2n1

>  <score_type>  (3) 
oracle

>  <origin>  (3) 
autodockgpu

>  <m_score__min__energy>  (3) 
-9.3800000000000008

>  <m_primary>  (3) 
energy

>  <meeko>  (3) 
{"free_energy": -7.88, "intermolecular_energy": -9.97, "internal_energy": -2.0, "cluster_size": 2, "cluster_id": 2, "rank_in_cluster": 2}

>  <energy>  (3) 
-9.11

>  <cluster_rmsd>  (3) 
0.54

>  <rmsd>  (3) 
271.8

>  <cluster>  (3) 
1

$$$$

     RDKit          3D

 53 56  0  0  0  0  0  0  0  0999 V2000
  136.7240   77.2790  222.5710 O   0  0  0  0  0  0  0  0  0  0  0  0
  136.8450   76.0720  222.9380 C   0  0  0  0  0  0  0  0  0  0  0  0
  137.9450   75.2930  222.4890 N   0  0  0  0  0  0  0  0  0  0  0  0
  138.9010   75.9200  221.6150 C   0  0  0  0  0  0  0  0  0  0  0  0
  140.1110   75.0580  221.5720 C   0  0  0  0  0  0  0  0  0  0  0  0
  140.0970   74.0470  222.3390 O   0  0  0  0  0  0  0  0  0  0  0  0
  141.2270   75.3430  220.7160 N   0  0  0  0  0  0  0  0  0  0  0  0
  142.3410   74.3800  220.5810 C   0  0  0  0  0  0  0  0  0  0  0  0
  143.1160   74.9030  219.3840 C   0  0  2  0  0  0  0  0  0  0  0  0
  144.4550   74.5360  219.4220 O   0  0  0  0  0  0  0  0  0  0  0  0
  142.9090   76.3930  219.5180 C   0  0  0  0  0  0  0  0  0  0  0  0
  141.4530   76.4890  219.9040 C   0  0  2  0  0  0  0  0  0  0  0  0
  141.1560   77.7770  220.5780 C   0  0  0  0  0  0  0  0  0  0  0  0
  140.6640   78.7780  220.0100 O   0  0  0  0  0  0  0  0  0  0  0  0
  141.4520   77.8730  221.9610 N   0  0  0  0  0  0  0  0  0  0  0  0
  141.1960   79.1030  222.7170 C   0  0  0  0  0  0  0  0  0  0  0  0
  142.2500   80.1290  222.3280 C   0  0  0  0  0  0  0  0  0  0  0  0
  142.4970   80.3850  223.7970 C   0  0  0  0  0  0  0  0  0  0  0  0
  141.7460   79.1120  224.1050 C   0  0  0  0  0  0  0  0  0  0  0  0
  135.8770   75.4280  223.8250 C   0  0  0  0  0  0  0  0  0  0  0  0
  135.7360   74.0430  223.7420 C   0  0  0  0  0  0  0  0  0  0  0  0
  134.8100   73.4310  224.5910 C   0  0  0  0  0  0  0  0  0  0  0  0
  134.0730   74.2020  225.4760 C   0  0  0  0  0  0  0  0  0  0  0  0
  133.1650   73.6090  226.3080 C   0  0  0  0  0  0  0  0  0  0  0  0
  132.4510   74.4110  227.1730 C   0  0  0  0  0  0  0  0  0  0  0  0
  131.5490   73.8410  228.0050 F   0  0  0  0  0  0  0  0  0  0  0  0
  132.6040   75.7700  227.2380 C   0  0  0  0  0  0  0  0  0  0  0  0
  133.5250   76.3820  226.3960 C   0  0  0  0  0  0  0  0  0  0  0  0
  134.2440   75.5710  225.5240 C   0  0  0  0  0  0  0  0  0  0  0  0
  135.1290   76.1340  224.7090 N   0  0  0  0  0  0  0  0  0  0  0  0
  138.0300   74.3000  222.8000 H   0  0  0  0  0  0  0  0  0  0  0  0
  138.4761   76.0191  220.6052 H   0  0  0  0  0  0  0  0  0  0  0  0
  139.1576   76.9242  221.9834 H   0  0  0  0  0  0  0  0  0  0  0  0
  142.9685   74.3750  221.4844 H   0  0  0  0  0  0  0  0  0  0  0  0
  141.9984   73.3429  220.4507 H   0  0  0  0  0  0  0  0  0  0  0  0
  142.7777   74.4993  218.4183 H   0  0  0  0  0  0  0  0  0  0  0  0
  144.8410   74.8790  218.5670 H   0  0  0  0  0  0  0  0  0  0  0  0
  143.5562   76.8151  220.3010 H   0  0  0  0  0  0  0  0  0  0  0  0
  143.1577   76.9534  218.6047 H   0  0  0  0  0  0  0  0  0  0  0  0
  140.7726   76.4902  219.0397 H   0  0  0  0  0  0  0  0  0  0  0  0
  141.8620   77.0600  222.4650 H   0  0  0  0  0  0  0  0  0  0  0  0
  140.1136   79.2418  222.5783 H   0  0  0  0  0  0  0  0  0  0  0  0
  143.1129   79.7110  221.7889 H   0  0  0  0  0  0  0  0  0  0  0  0
  142.0121   80.9540  221.6405 H   0  0  0  0  0  0  0  0  0  0  0  0
  143.5573   80.3696  224.0894 H   0  0  0  0  0  0  0  0  0  0  0  0
  142.2150   81.3401  224.2642 H   0  0  0  0  0  0  0  0  0  0  0  0
  142.3932   78.2535  224.3375 H   0  0  0  0  0  0  0  0  0  0  0  0
  141.0714   79.0587  224.9722 H   0  0  0  0  0  0  0  0  0  0  0  0
  136.3336   73.4522  223.0321 H   0  0  0  0  0  0  0  0  0  0  0  0
  134.6665   72.3409  224.5570 H   0  0  0  0  0  0  0  0  0  0  0  0
  133.0080   72.5204  226.2880 H   0  0  0  0  0  0  0  0  0  0  0  0
  132.0084   76.3671  227.9443 H   0  0  0  0  0  0  0  0  0  0  0  0
  133.6801   77.4708  226.4184 H   0  0  0  0  0  0  0  0  0  0  0  0
  1  2  2  0
  2  3  1  0
  3  4  1  0
  4  5  1  0
  5  6  2  0
  5  7  1  0
  7  8  1  0
  8  9  1  0
  9 10  1  0
  9 11  1  0
 11 12  1  0
 12 13  1  0
 13 14  2  0
 13 15  1  0
 15 16  1  0
 16 17  1  0
 17 18  1  0
 18 19  1  0
  2 20  1  0
 20 21  2  0
 21 22  1  0
 22 23  2  0
 23 24  1  0
 24 25  2  0
 25 26  1  0
 25 27  1  0
 27 28  2  0
 28 29  1  0
 29 30  2  0
 12  7  1  0
 19 16  1  0
 30 20  1  0
 29 23  1  0
  3 31  1  0
  4 32  1  0
  4 33  1  0
  8 34  1  0
  8 35  1  0
  9 36  1  6
 10 37  1  0
 11 38  1  0
 11 39  1  0
 12 40  1  6
 15 41  1  0
 16 42  1  0
 17 43  1  0
 17 44  1  0
 18 45  1  0
 18 46  1  0
 19 47  1  0
 19 48  1  0
 21 49  1  0
 22 50  1  0
 24 51  1  0
 27 52  1  0
 28 53  1  0
M  END
>  <smiles>  (4) 
O=C(NCC(=O)N1C[C@H](O)C[C@@H]1C(=O)NC1CCC1)c1ccc2cc(F)ccc2n1

>  <score_type>  (4) 
oracle

>  <origin>  (4) 
autodockgpu

>  <m_score__min__energy>  (4) 
-9.3800000000000008

>  <m_primary>  (4) 
energy

>  <meeko>  (4) 
{"free_energy": -7.98, "intermolecular_energy": -10.06, "internal_energy": -2.05, "cluster_size": 2, "cluster_id": 2, "rank_in_cluster": 1}

>  <energy>  (4) 
-9.1

>  <cluster_rmsd>  (4) 
0.36

>  <rmsd>  (4) 
271.81

>  <cluster>  (4) 
1

$$$$

     RDKit          3D

 53 56  0  0  0  0  0  0  0  0999 V2000
  138.8950   71.1490  221.3390 O   0  0  0  0  0  0  0  0  0  0  0  0
  139.2600   71.6210  222.4580 C   0  0  0  0  0  0  0  0  0  0  0  0
  139.5050   73.0130  222.6030 N   0  0  0  0  0  0  0  0  0  0  0  0
  139.3250   73.8520  221.4480 C   0  0  0  0  0  0  0  0  0  0  0  0
  140.2460   75.0110  221.5790 C   0  0  0  0  0  0  0  0  0  0  0  0
  140.0500   75.7610  222.5840 O   0  0  0  0  0  0  0  0  0  0  0  0
  141.2950   75.2700  220.6350 N   0  0  0  0  0  0  0  0  0  0  0  0
  142.4080   74.3130  220.4590 C   0  0  0  0  0  0  0  0  0  0  0  0
  143.0890   74.7930  219.1900 C   0  0  2  0  0  0  0  0  0  0  0  0
  144.4320   74.4410  219.1460 O   0  0  0  0  0  0  0  0  0  0  0  0
  142.8730   76.2860  219.2770 C   0  0  0  0  0  0  0  0  0  0  0  0
  141.4480   76.3840  219.7630 C   0  0  2  0  0  0  0  0  0  0  0  0
  141.1850   77.6960  220.4030 C   0  0  0  0  0  0  0  0  0  0  0  0
  140.7430   78.7020  219.8040 O   0  0  0  0  0  0  0  0  0  0  0  0
  141.4530   77.8110  221.7910 N   0  0  0  0  0  0  0  0  0  0  0  0
  141.2250   79.0650  222.5140 C   0  0  0  0  0  0  0  0  0  0  0  0
  142.4120   79.9830  222.2600 C   0  0  0  0  0  0  0  0  0  0  0  0
  142.5030   80.2250  223.7490 C   0  0  0  0  0  0  0  0  0  0  0  0
  141.6020   79.0320  223.9590 C   0  0  0  0  0  0  0  0  0  0  0  0
  139.4460   70.7750  223.6360 C   0  0  0  0  0  0  0  0  0  0  0  0
  139.0100   69.4520  223.5640 C   0  0  0  0  0  0  0  0  0  0  0  0
  139.1880   68.6460  224.6910 C   0  0  0  0  0  0  0  0  0  0  0  0
  139.7830   69.1730  225.8270 C   0  0  0  0  0  0  0  0  0  0  0  0
  139.9590   68.3880  226.9330 C   0  0  0  0  0  0  0  0  0  0  0  0
  140.5550   68.9500  228.0430 C   0  0  0  0  0  0  0  0  0  0  0  0
  140.7380   68.1890  229.1460 F   0  0  0  0  0  0  0  0  0  0  0  0
  140.9750   70.2520  228.0930 C   0  0  0  0  0  0  0  0  0  0  0  0
  140.8000   71.0570  226.9730 C   0  0  0  0  0  0  0  0  0  0  0  0
  140.1990   70.4880  225.8540 C   0  0  0  0  0  0  0  0  0  0  0  0
  140.0210   71.2380  224.7730 N   0  0  0  0  0  0  0  0  0  0  0  0
  139.8050   73.3860  223.5310 H   0  0  0  0  0  0  0  0  0  0  0  0
  139.5625   73.2869  220.5346 H   0  0  0  0  0  0  0  0  0  0  0  0
  138.2822   74.1960  221.3823 H   0  0  0  0  0  0  0  0  0  0  0  0
  143.0984   74.3509  221.3145 H   0  0  0  0  0  0  0  0  0  0  0  0
  142.0695   73.2683  220.3953 H   0  0  0  0  0  0  0  0  0  0  0  0
  142.6878   74.3456  218.2686 H   0  0  0  0  0  0  0  0  0  0  0  0
  144.8120   74.9650  218.3860 H   0  0  0  0  0  0  0  0  0  0  0  0
  143.5694   76.7470  219.9929 H   0  0  0  0  0  0  0  0  0  0  0  0
  143.0480   76.8098  218.3257 H   0  0  0  0  0  0  0  0  0  0  0  0
  140.7067   76.3428  218.9514 H   0  0  0  0  0  0  0  0  0  0  0  0
  141.8210   76.9940  222.3200 H   0  0  0  0  0  0  0  0  0  0  0  0
  140.1857   79.3053  222.2454 H   0  0  0  0  0  0  0  0  0  0  0  0
  143.2898   79.4806  221.8275 H   0  0  0  0  0  0  0  0  0  0  0  0
  142.3390   80.8220  221.5523 H   0  0  0  0  0  0  0  0  0  0  0  0
  143.5139   80.1106  224.1673 H   0  0  0  0  0  0  0  0  0  0  0  0
  142.2592   81.2061  224.1825 H   0  0  0  0  0  0  0  0  0  0  0  0
  142.1313   78.1174  224.2646 H   0  0  0  0  0  0  0  0  0  0  0  0
  140.8258   79.0500  224.7382 H   0  0  0  0  0  0  0  0  0  0  0  0
  138.5417   69.0566  222.6505 H   0  0  0  0  0  0  0  0  0  0  0  0
  138.8573   67.5970  224.6772 H   0  0  0  0  0  0  0  0  0  0  0  0
  139.6342   67.3371  226.9374 H   0  0  0  0  0  0  0  0  0  0  0  0
  141.4429   70.6543  229.0036 H   0  0  0  0  0  0  0  0  0  0  0  0
  141.1254   72.1078  226.9713 H   0  0  0  0  0  0  0  0  0  0  0  0
  1  2  2  0
  2  3  1  0
  3  4  1  0
  4  5  1  0
  5  6  2  0
  5  7  1  0
  7  8  1  0
  8  9  1  0
  9 10  1  0
  9 11  1  0
 11 12  1  0
 12 13  1  0
 13 14  2  0
 13 15  1  0
 15 16  1  0
 16 17  1  0
 17 18  1  0
 18 19  1  0
  2 20  1  0
 20 21  2  0
 21 22  1  0
 22 23  2  0
 23 24  1  0
 24 25  2  0
 25 26  1  0
 25 27  1  0
 27 28  2  0
 28 29  1  0
 29 30  2  0
 12  7  1  0
 19 16  1  0
 30 20  1  0
 29 23  1  0
  3 31  1  0
  4 32  1  0
  4 33  1  0
  8 34  1  0
  8 35  1  0
  9 36  1  6
 10 37  1  0
 11 38  1  0
 11 39  1  0
 12 40  1  6
 15 41  1  0
 16 42  1  0
 17 43  1  0
 17 44  1  0
 18 45  1  0
 18 46  1  0
 19 47  1  0
 19 48  1  0
 21 49  1  0
 22 50  1  0
 24 51  1  0
 27 52  1  0
 28 53  1  0
M  END
>  <smiles>  (5) 
O=C(NCC(=O)N1C[C@H](O)C[C@@H]1C(=O)NC1CCC1)c1ccc2cc(F)ccc2n1

>  <score_type>  (5) 
oracle

>  <origin>  (5) 
autodockgpu

>  <m_score__min__energy>  (5) 
-9.3800000000000008

>  <m_primary>  (5) 
energy

>  <meeko>  (5) 
{"free_energy": -8.85, "intermolecular_energy": -10.94, "internal_energy": -2.49, "cluster_size": 15, "cluster_id": 1, "rank_in_cluster": 7}

>  <energy>  (5) 
-9.03

>  <cluster_rmsd>  (5) 
0.57

>  <rmsd>  (5) 
271.74

>  <cluster>  (5) 
1

$$$$

     RDKit          3D

 53 56  0  0  0  0  0  0  0  0999 V2000
  139.0210   71.3100  221.1440 O   0  0  0  0  0  0  0  0  0  0  0  0
  139.3650   71.8240  222.2510 C   0  0  0  0  0  0  0  0  0  0  0  0
  139.5880   73.2230  222.3540 N   0  0  0  0  0  0  0  0  0  0  0  0
  139.4100   74.0210  221.1700 C   0  0  0  0  0  0  0  0  0  0  0  0
  140.3300   75.1840  221.2620 C   0  0  0  0  0  0  0  0  0  0  0  0
  141.0840   75.2120  222.2820 O   0  0  0  0  0  0  0  0  0  0  0  0
  140.3700   76.2140  220.2640 N   0  0  0  0  0  0  0  0  0  0  0  0
  139.1210   76.7820  219.7140 C   0  0  0  0  0  0  0  0  0  0  0  0
  139.5940   78.0130  218.9610 C   0  0  2  0  0  0  0  0  0  0  0  0
  138.7350   78.3620  217.9260 O   0  0  0  0  0  0  0  0  0  0  0  0
  140.9530   77.5660  218.4750 C   0  0  0  0  0  0  0  0  0  0  0  0
  141.5060   76.8350  219.6730 C   0  0  2  0  0  0  0  0  0  0  0  0
  142.5780   75.8870  219.2810 C   0  0  0  0  0  0  0  0  0  0  0  0
  142.9250   75.6580  218.1000 O   0  0  0  0  0  0  0  0  0  0  0  0
  143.2520   75.1980  220.3200 N   0  0  0  0  0  0  0  0  0  0  0  0
  144.3250   74.2410  220.0350 C   0  0  0  0  0  0  0  0  0  0  0  0
  144.0640   72.9780  220.8430 C   0  0  0  0  0  0  0  0  0  0  0  0
  145.4980   73.0230  221.3180 C   0  0  0  0  0  0  0  0  0  0  0  0
  145.5750   74.4480  220.8250 C   0  0  0  0  0  0  0  0  0  0  0  0
  139.5490   71.0190  223.4580 C   0  0  0  0  0  0  0  0  0  0  0  0
  139.1430   69.6850  223.4210 C   0  0  0  0  0  0  0  0  0  0  0  0
  139.3200   68.9180  224.5760 C   0  0  0  0  0  0  0  0  0  0  0  0
  139.8840   69.4940  225.7040 C   0  0  0  0  0  0  0  0  0  0  0  0
  140.0590   68.7490  226.8370 C   0  0  0  0  0  0  0  0  0  0  0  0
  140.6230   69.3580  227.9380 C   0  0  0  0  0  0  0  0  0  0  0  0
  140.8030   68.6360  229.0680 F   0  0  0  0  0  0  0  0  0  0  0  0
  141.0140   70.6700  227.9540 C   0  0  0  0  0  0  0  0  0  0  0  0
  140.8400   71.4350  226.8070 C   0  0  0  0  0  0  0  0  0  0  0  0
  140.2710   70.8190  225.6970 C   0  0  0  0  0  0  0  0  0  0  0  0
  140.0950   71.5300  224.5890 N   0  0  0  0  0  0  0  0  0  0  0  0
  139.8720   73.6300  223.2730 H   0  0  0  0  0  0  0  0  0  0  0  0
  139.6495   73.4244  220.2774 H   0  0  0  0  0  0  0  0  0  0  0  0
  138.3672   74.3621  221.0904 H   0  0  0  0  0  0  0  0  0  0  0  0
  138.6307   76.0694  219.0344 H   0  0  0  0  0  0  0  0  0  0  0  0
  138.3770   77.0138  220.4904 H   0  0  0  0  0  0  0  0  0  0  0  0
  139.6263   78.9277  219.5712 H   0  0  0  0  0  0  0  0  0  0  0  0
  138.3680   79.2540  218.1850 H   0  0  0  0  0  0  0  0  0  0  0  0
  140.8639   76.8960  217.6072 H   0  0  0  0  0  0  0  0  0  0  0  0
  141.5910   78.3952  218.1353 H   0  0  0  0  0  0  0  0  0  0  0  0
  142.0031   77.4988  220.3957 H   0  0  0  0  0  0  0  0  0  0  0  0
  142.9890   75.3640  221.3130 H   0  0  0  0  0  0  0  0  0  0  0  0
  144.3831   74.2746  218.9371 H   0  0  0  0  0  0  0  0  0  0  0  0
  143.3175   73.0968  221.6421 H   0  0  0  0  0  0  0  0  0  0  0  0
  143.6521   72.0756  220.3676 H   0  0  0  0  0  0  0  0  0  0  0  0
  145.6208   72.9106  222.4053 H   0  0  0  0  0  0  0  0  0  0  0  0
  146.2294   72.2678  220.9946 H   0  0  0  0  0  0  0  0  0  0  0  0
  145.4845   75.2037  221.6192 H   0  0  0  0  0  0  0  0  0  0  0  0
  146.4877   74.8200  220.3364 H   0  0  0  0  0  0  0  0  0  0  0  0
  138.6984   69.2511  222.5132 H   0  0  0  0  0  0  0  0  0  0  0  0
  139.0131   67.8618  224.5900 H   0  0  0  0  0  0  0  0  0  0  0  0
  139.7578   67.6915  226.8694 H   0  0  0  0  0  0  0  0  0  0  0  0
  141.4580   71.1107  228.8587 H   0  0  0  0  0  0  0  0  0  0  0  0
  141.1421   72.4923  226.7777 H   0  0  0  0  0  0  0  0  0  0  0  0
  1  2  2  0
  2  3  1  0
  3  4  1  0
  4  5  1  0
  5  6  2  0
  5  7  1  0
  7  8  1  0
  8  9  1  0
  9 10  1  0
  9 11  1  0
 11 12  1  0
 12 13  1  0
 13 14  2  0
 13 15  1  0
 15 16  1  0
 16 17  1  0
 17 18  1  0
 18 19  1  0
  2 20  1  0
 20 21  2  0
 21 22  1  0
 22 23  2  0
 23 24  1  0
 24 25  2  0
 25 26  1  0
 25 27  1  0
 27 28  2  0
 28 29  1  0
 29 30  2  0
 12  7  1  0
 19 16  1  0
 30 20  1  0
 29 23  1  0
  3 31  1  0
  4 32  1  0
  4 33  1  0
  8 34  1  0
  8 35  1  0
  9 36  1  1
 10 37  1  0
 11 38  1  0
 11 39  1  0
 12 40  1  1
 15 41  1  0
 16 42  1  0
 17 43  1  0
 17 44  1  0
 18 45  1  0
 18 46  1  0
 19 47  1  0
 19 48  1  0
 21 49  1  0
 22 50  1  0
 24 51  1  0
 27 52  1  0
 28 53  1  0
M  END
>  <smiles>  (6) 
O=C(NCC(=O)N1C[C@H](O)C[C@@H]1C(=O)NC1CCC1)c1ccc2cc(F)ccc2n1

>  <score_type>  (6) 
oracle

>  <origin>  (6) 
autodockgpu

>  <m_score__min__energy>  (6) 
-9.3800000000000008

>  <m_primary>  (6) 
energy

>  <meeko>  (6) 
{"free_energy": -7.07, "intermolecular_energy": -9.16, "internal_energy": -3.0, "cluster_size": 15, "cluster_id": 1, "rank_in_cluster": 15}

>  <energy>  (6) 
-9.02

>  <cluster_rmsd>  (6) 
0.39

>  <rmsd>  (6) 
271.8

>  <cluster>  (6) 
1

$$$$

     RDKit          3D

 53 56  0  0  0  0  0  0  0  0999 V2000
  141.0330   71.9460  221.4260 O   0  0  0  0  0  0  0  0  0  0  0  0
  140.2220   72.1930  222.3680 C   0  0  0  0  0  0  0  0  0  0  0  0
  139.3780   73.3340  222.3060 N   0  0  0  0  0  0  0  0  0  0  0  0
  139.4790   74.1840  221.1500 C   0  0  0  0  0  0  0  0  0  0  0  0
  140.5190   75.2090  221.4290 C   0  0  0  0  0  0  0  0  0  0  0  0
  140.2640   76.0100  222.3790 O   0  0  0  0  0  0  0  0  0  0  0  0
  141.7380   75.2920  220.6760 N   0  0  0  0  0  0  0  0  0  0  0  0
  142.8010   74.2790  220.8450 C   0  0  0  0  0  0  0  0  0  0  0  0
  143.7340   74.5480  219.6770 C   0  0  2  0  0  0  0  0  0  0  0  0
  145.0360   74.1430  219.9390 O   0  0  0  0  0  0  0  0  0  0  0  0
  143.6010   76.0440  219.5220 C   0  0  0  0  0  0  0  0  0  0  0  0
  142.1200   76.2640  219.7090 C   0  0  2  0  0  0  0  0  0  0  0  0
  141.8260   77.6620  220.1080 C   0  0  0  0  0  0  0  0  0  0  0  0
  141.5800   78.5920  219.3060 O   0  0  0  0  0  0  0  0  0  0  0  0
  141.8260   77.9600  221.4940 N   0  0  0  0  0  0  0  0  0  0  0  0
  141.5480   79.3120  221.9880 C   0  0  0  0  0  0  0  0  0  0  0  0
  142.7930   79.8260  222.6960 C   0  0  0  0  0  0  0  0  0  0  0  0
  141.9240   80.2260  223.8660 C   0  0  0  0  0  0  0  0  0  0  0  0
  140.8240   79.3660  223.2920 C   0  0  0  0  0  0  0  0  0  0  0  0
  140.1130   71.3340  223.5460 C   0  0  0  0  0  0  0  0  0  0  0  0
  139.4960   70.0930  223.3950 C   0  0  0  0  0  0  0  0  0  0  0  0
  139.3930   69.2740  224.5220 C   0  0  0  0  0  0  0  0  0  0  0  0
  139.8990   69.7100  225.7370 C   0  0  0  0  0  0  0  0  0  0  0  0
  139.8020   68.9130  226.8440 C   0  0  0  0  0  0  0  0  0  0  0  0
  140.3170   69.3830  228.0340 C   0  0  0  0  0  0  0  0  0  0  0  0
  140.2300   68.6090  229.1390 F   0  0  0  0  0  0  0  0  0  0  0  0
  140.9190   70.6060  228.1620 C   0  0  0  0  0  0  0  0  0  0  0  0
  141.0230   71.4230  227.0420 C   0  0  0  0  0  0  0  0  0  0  0  0
  140.5030   70.9470  225.8420 C   0  0  0  0  0  0  0  0  0  0  0  0
  140.5900   71.7100  224.7590 N   0  0  0  0  0  0  0  0  0  0  0  0
  138.7150   73.5240  223.0910 H   0  0  0  0  0  0  0  0  0  0  0  0
  139.7671   73.5881  220.2714 H   0  0  0  0  0  0  0  0  0  0  0  0
  138.5120   74.6648  220.9410 H   0  0  0  0  0  0  0  0  0  0  0  0
  143.3227   74.4125  221.8041 H   0  0  0  0  0  0  0  0  0  0  0  0
  142.4143   73.2493  220.8569 H   0  0  0  0  0  0  0  0  0  0  0  0
  143.4824   73.9900  218.7630 H   0  0  0  0  0  0  0  0  0  0  0  0
  145.5720   74.4820  219.1670 H   0  0  0  0  0  0  0  0  0  0  0  0
  144.1815   76.5759  220.2901 H   0  0  0  0  0  0  0  0  0  0  0  0
  143.9811   76.4197  218.5606 H   0  0  0  0  0  0  0  0  0  0  0  0
  141.5412   76.1361  218.7823 H   0  0  0  0  0  0  0  0  0  0  0  0
  142.0270   77.2120  222.1880 H   0  0  0  0  0  0  0  0  0  0  0  0
  141.0903   79.7921  221.1105 H   0  0  0  0  0  0  0  0  0  0  0  0
  143.5365   79.0491  222.9277 H   0  0  0  0  0  0  0  0  0  0  0  0
  143.4618   80.5527  222.2116 H   0  0  0  0  0  0  0  0  0  0  0  0
  142.2979   79.8926  224.8453 H   0  0  0  0  0  0  0  0  0  0  0  0
  141.7507   81.2841  224.1117 H   0  0  0  0  0  0  0  0  0  0  0  0
  140.7138   78.3891  223.7854 H   0  0  0  0  0  0  0  0  0  0  0  0
  139.7766   79.6995  223.3343 H   0  0  0  0  0  0  0  0  0  0  0  0
  139.1030   69.7692  222.4200 H   0  0  0  0  0  0  0  0  0  0  0  0
  138.9125   68.2874  224.4458 H   0  0  0  0  0  0  0  0  0  0  0  0
  139.3258   67.9231  226.7869 H   0  0  0  0  0  0  0  0  0  0  0  0
  141.3136   70.9364  229.1342 H   0  0  0  0  0  0  0  0  0  0  0  0
  141.5002   72.4123  227.1022 H   0  0  0  0  0  0  0  0  0  0  0  0
  1  2  2  0
  2  3  1  0
  3  4  1  0
  4  5  1  0
  5  6  2  0
  5  7  1  0
  7  8  1  0
  8  9  1  0
  9 10  1  0
  9 11  1  0
 11 12  1  0
 12 13  1  0
 13 14  2  0
 13 15  1  0
 15 16  1  0
 16 17  1  0
 17 18  1  0
 18 19  1  0
  2 20  1  0
 20 21  2  0
 21 22  1  0
 22 23  2  0
 23 24  1  0
 24 25  2  0
 25 26  1  0
 25 27  1  0
 27 28  2  0
 28 29  1  0
 29 30  2  0
 12  7  1  0
 19 16  1  0
 30 20  1  0
 29 23  1  0
  3 31  1  0
  4 32  1  0
  4 33  1  0
  8 34  1  0
  8 35  1  0
  9 36  1  6
 10 37  1  0
 11 38  1  0
 11 39  1  0
 12 40  1  6
 15 41  1  0
 16 42  1  0
 17 43  1  0
 17 44  1  0
 18 45  1  0
 18 46  1  0
 19 47  1  0
 19 48  1  0
 21 49  1  0
 22 50  1  0
 24 51  1  0
 27 52  1  0
 28 53  1  0
M  END
>  <smiles>  (7) 
O=C(NCC(=O)N1C[C@H](O)C[C@@H]1C(=O)NC1CCC1)c1ccc2cc(F)ccc2n1

>  <score_type>  (7) 
oracle

>  <origin>  (7) 
autodockgpu

>  <m_score__min__energy>  (7) 
-9.3800000000000008

>  <m_primary>  (7) 
energy

>  <meeko>  (7) 
{"free_energy": -9.38, "intermolecular_energy": -11.46, "internal_energy": -2.25, "cluster_size": 15, "cluster_id": 1, "rank_in_cluster": 1}

>  <energy>  (7) 
-8.85

>  <cluster_rmsd>  (7) 
0.81

>  <rmsd>  (7) 
271.72

>  <cluster>  (7) 
1

$$$$

     RDKit          3D

 53 56  0  0  0  0  0  0  0  0999 V2000
  139.9160   71.4730  220.9870 O   0  0  0  0  0  0  0  0  0  0  0  0
  139.8100   72.0090  222.1310 C   0  0  0  0  0  0  0  0  0  0  0  0
  139.6820   73.4180  222.2550 N   0  0  0  0  0  0  0  0  0  0  0  0
  139.6770   74.2010  221.0470 C   0  0  0  0  0  0  0  0  0  0  0  0
  140.7650   75.2070  221.1540 C   0  0  0  0  0  0  0  0  0  0  0  0
  141.0610   75.5800  222.3300 O   0  0  0  0  0  0  0  0  0  0  0  0
  141.4460   75.7280  220.0020 N   0  0  0  0  0  0  0  0  0  0  0  0
  142.5750   74.9930  219.3950 C   0  0  0  0  0  0  0  0  0  0  0  0
  142.7830   75.6990  218.0670 C   0  0  2  0  0  0  0  0  0  0  0  0
  144.0880   75.5820  217.6060 O   0  0  0  0  0  0  0  0  0  0  0  0
  142.4060   77.1190  218.4170 C   0  0  0  0  0  0  0  0  0  0  0  0
  141.1860   76.9300  219.2860 C   0  0  2  0  0  0  0  0  0  0  0  0
  140.9500   78.1110  220.1510 C   0  0  0  0  0  0  0  0  0  0  0  0
  140.2420   79.0940  219.8330 O   0  0  0  0  0  0  0  0  0  0  0  0
  141.5730   78.1230  221.4250 N   0  0  0  0  0  0  0  0  0  0  0  0
  141.4020   79.2450  222.3520 C   0  0  0  0  0  0  0  0  0  0  0  0
  142.5870   80.1850  222.1860 C   0  0  0  0  0  0  0  0  0  0  0  0
  142.7580   80.1830  223.6880 C   0  0  0  0  0  0  0  0  0  0  0  0
  141.8510   78.9770  223.7500 C   0  0  0  0  0  0  0  0  0  0  0  0
  139.8150   71.2200  223.3620 C   0  0  0  0  0  0  0  0  0  0  0  0
  139.2670   69.9380  223.3180 C   0  0  0  0  0  0  0  0  0  0  0  0
  139.2730   69.1860  224.4960 C   0  0  0  0  0  0  0  0  0  0  0  0
  139.8130   69.7240  225.6530 C   0  0  0  0  0  0  0  0  0  0  0  0
  139.8210   68.9930  226.8080 C   0  0  0  0  0  0  0  0  0  0  0  0
  140.3680   69.5650  227.9380 C   0  0  0  0  0  0  0  0  0  0  0  0
  140.3850   68.8560  229.0910 F   0  0  0  0  0  0  0  0  0  0  0  0
  140.9010   70.8260  227.9610 C   0  0  0  0  0  0  0  0  0  0  0  0
  140.8970   71.5760  226.7910 C   0  0  0  0  0  0  0  0  0  0  0  0
  140.3450   70.9980  225.6520 C   0  0  0  0  0  0  0  0  0  0  0  0
  140.3300   71.6970  224.5220 N   0  0  0  0  0  0  0  0  0  0  0  0
  139.5960   73.8430  223.2040 H   0  0  0  0  0  0  0  0  0  0  0  0
  139.8534   73.5498  220.1782 H   0  0  0  0  0  0  0  0  0  0  0  0
  138.7049   74.6986  220.9154 H   0  0  0  0  0  0  0  0  0  0  0  0
  143.4747   75.0648  220.0238 H   0  0  0  0  0  0  0  0  0  0  0  0
  142.3753   73.9172  219.2821 H   0  0  0  0  0  0  0  0  0  0  0  0
  142.1918   75.2810  217.2389 H   0  0  0  0  0  0  0  0  0  0  0  0
  144.5610   76.3850  217.9650 H   0  0  0  0  0  0  0  0  0  0  0  0
  143.2142   77.6197  218.9703 H   0  0  0  0  0  0  0  0  0  0  0  0
  142.2229   77.7531  217.5370 H   0  0  0  0  0  0  0  0  0  0  0  0
  140.2516   76.8435  218.7120 H   0  0  0  0  0  0  0  0  0  0  0  0
  142.1690   77.3240  221.7210 H   0  0  0  0  0  0  0  0  0  0  0  0
  140.3539   79.5319  222.1812 H   0  0  0  0  0  0  0  0  0  0  0  0
  143.4341   79.7539  221.6323 H   0  0  0  0  0  0  0  0  0  0  0  0
  142.4897   81.1275  221.6273 H   0  0  0  0  0  0  0  0  0  0  0  0
  143.7872   79.9962  224.0284 H   0  0  0  0  0  0  0  0  0  0  0  0
  142.5515   81.0827  224.2863 H   0  0  0  0  0  0  0  0  0  0  0  0
  142.3816   78.0217  223.8762 H   0  0  0  0  0  0  0  0  0  0  0  0
  141.1156   78.8739  224.5615 H   0  0  0  0  0  0  0  0  0  0  0  0
  138.8442   69.5324  222.3870 H   0  0  0  0  0  0  0  0  0  0  0  0
  138.8504   68.1704  224.5046 H   0  0  0  0  0  0  0  0  0  0  0  0
  139.4026   67.9761  226.8357 H   0  0  0  0  0  0  0  0  0  0  0  0
  141.3247   71.2380  228.8888 H   0  0  0  0  0  0  0  0  0  0  0  0
  141.3162   72.5927  226.7662 H   0  0  0  0  0  0  0  0  0  0  0  0
  1  2  2  0
  2  3  1  0
  3  4  1  0
  4  5  1  0
  5  6  2  0
  5  7  1  0
  7  8  1  0
  8  9  1  0
  9 10  1  0
  9 11  1  0
 11 12  1  0
 12 13  1  0
 13 14  2  0
 13 15  1  0
 15 16  1  0
 16 17  1  0
 17 18  1  0
 18 19  1  0
  2 20  1  0
 20 21  2  0
 21 22  1  0
 22 23  2  0
 23 24  1  0
 24 25  2  0
 25 26  1  0
 25 27  1  0
 27 28  2  0
 28 29  1  0
 29 30  2  0
 12  7  1  0
 19 16  1  0
 30 20  1  0
 29 23  1  0
  3 31  1  0
  4 32  1  0
  4 33  1  0
  8 34  1  0
  8 35  1  0
  9 36  1  6
 10 37  1  0
 11 38  1  0
 11 39  1  0
 12 40  1  6
 15 41  1  0
 16 42  1  0
 17 43  1  0
 17 44  1  0
 18 45  1  0
 18 46  1  0
 19 47  1  0
 19 48  1  0
 21 49  1  0
 22 50  1  0
 24 51  1  0
 27 52  1  0
 28 53  1  0
M  END
>  <smiles>  (8) 
O=C(NCC(=O)N1C[C@H](O)C[C@@H]1C(=O)NC1CCC1)c1ccc2cc(F)ccc2n1

>  <score_type>  (8) 
oracle

>  <origin>  (8) 
autodockgpu

>  <m_score__min__energy>  (8) 
-9.3800000000000008

>  <m_primary>  (8) 
energy

>  <meeko>  (8) 
{"free_energy": -8.6, "intermolecular_energy": -10.69, "internal_energy": -2.6, "cluster_size": 15, "cluster_id": 1, "rank_in_cluster": 11}

>  <energy>  (8) 
-8.74

>  <cluster_rmsd>  (8) 
1.05

>  <rmsd>  (8) 
271.68

>  <cluster>  (8) 
1

$$$$

     RDKit          3D

 53 56  0  0  0  0  0  0  0  0999 V2000
  140.6650   70.9520  221.8120 O   0  0  0  0  0  0  0  0  0  0  0  0
  140.3440   71.6310  222.8330 C   0  0  0  0  0  0  0  0  0  0  0  0
  139.8780   72.9650  222.6900 N   0  0  0  0  0  0  0  0  0  0  0  0
  139.7870   73.5070  221.3600 C   0  0  0  0  0  0  0  0  0  0  0  0
  140.6530   74.7120  221.3000 C   0  0  0  0  0  0  0  0  0  0  0  0
  140.4730   75.5680  222.2190 O   0  0  0  0  0  0  0  0  0  0  0  0
  141.6350   74.9030  220.2700 N   0  0  0  0  0  0  0  0  0  0  0  0
  142.7620   73.9590  220.1170 C   0  0  0  0  0  0  0  0  0  0  0  0
  143.3510   74.3290  218.7670 C   0  0  2  0  0  0  0  0  0  0  0  0
  144.6990   74.0050  218.6730 O   0  0  0  0  0  0  0  0  0  0  0  0
  143.0980   75.8180  218.7250 C   0  0  0  0  0  0  0  0  0  0  0  0
  141.7030   75.9300  219.2880 C   0  0  2  0  0  0  0  0  0  0  0  0
  141.4400   77.2910  219.8150 C   0  0  0  0  0  0  0  0  0  0  0  0
  140.9430   78.2270  219.1490 O   0  0  0  0  0  0  0  0  0  0  0  0
  141.7780   77.5430  221.1690 N   0  0  0  0  0  0  0  0  0  0  0  0
  141.5580   78.8560  221.7830 C   0  0  0  0  0  0  0  0  0  0  0  0
  141.8400   78.7380  223.2740 C   0  0  0  0  0  0  0  0  0  0  0  0
  140.5220   79.4260  223.5450 C   0  0  0  0  0  0  0  0  0  0  0  0
  140.1340   79.1640  222.1100 C   0  0  0  0  0  0  0  0  0  0  0  0
  140.4340   71.0870  224.1880 C   0  0  0  0  0  0  0  0  0  0  0  0
  140.9770   71.9000  225.1820 C   0  0  0  0  0  0  0  0  0  0  0  0
  141.0620   71.3780  226.4760 C   0  0  0  0  0  0  0  0  0  0  0  0
  140.6140   70.0910  226.7290 C   0  0  0  0  0  0  0  0  0  0  0  0
  140.6960   69.5750  227.9920 C   0  0  0  0  0  0  0  0  0  0  0  0
  140.2390   68.2910  228.2030 C   0  0  0  0  0  0  0  0  0  0  0  0
  140.3120   67.7630  229.4470 F   0  0  0  0  0  0  0  0  0  0  0  0
  139.7100   67.5080  227.2120 C   0  0  0  0  0  0  0  0  0  0  0  0
  139.6230   68.0250  225.9250 C   0  0  0  0  0  0  0  0  0  0  0  0
  140.0840   69.3210  225.7140 C   0  0  0  0  0  0  0  0  0  0  0  0
  140.0110   69.8350  224.4920 N   0  0  0  0  0  0  0  0  0  0  0  0
  139.6180   73.5100  223.5420 H   0  0  0  0  0  0  0  0  0  0  0  0
  140.1317   72.7618  220.6280 H   0  0  0  0  0  0  0  0  0  0  0  0
  138.7456   73.7704  221.1231 H   0  0  0  0  0  0  0  0  0  0  0  0
  143.5015   74.0956  220.9198 H   0  0  0  0  0  0  0  0  0  0  0  0
  142.4505   72.9056  220.1752 H   0  0  0  0  0  0  0  0  0  0  0  0
  142.9079   73.7856  217.9194 H   0  0  0  0  0  0  0  0  0  0  0  0
  145.1420   74.8380  218.3460 H   0  0  0  0  0  0  0  0  0  0  0  0
  143.8229   76.3618  219.3486 H   0  0  0  0  0  0  0  0  0  0  0  0
  143.2002   76.2512  217.7191 H   0  0  0  0  0  0  0  0  0  0  0  0
  140.9161   75.7933  218.5316 H   0  0  0  0  0  0  0  0  0  0  0  0
  142.1940   76.7890  221.7520 H   0  0  0  0  0  0  0  0  0  0  0  0
  142.0994   79.5274  221.1003 H   0  0  0  0  0  0  0  0  0  0  0  0
  141.8968   77.7039  223.6447 H   0  0  0  0  0  0  0  0  0  0  0  0
  142.7777   79.1177  223.7059 H   0  0  0  0  0  0  0  0  0  0  0  0
  139.8883   78.9186  224.2873 H   0  0  0  0  0  0  0  0  0  0  0  0
  140.4857   80.4405  223.9686 H   0  0  0  0  0  0  0  0  0  0  0  0
  139.4486   78.3138  221.9779 H   0  0  0  0  0  0  0  0  0  0  0  0
  139.5814   79.9215  221.5349 H   0  0  0  0  0  0  0  0  0  0  0  0
  141.3268   72.9180  224.9556 H   0  0  0  0  0  0  0  0  0  0  0  0
  141.4828   71.9862  227.2902 H   0  0  0  0  0  0  0  0  0  0  0  0
  141.1153   70.1680  228.8181 H   0  0  0  0  0  0  0  0  0  0  0  0
  139.3603   66.4883  227.4307 H   0  0  0  0  0  0  0  0  0  0  0  0
  139.2037   67.4297  225.1005 H   0  0  0  0  0  0  0  0  0  0  0  0
  1  2  2  0
  2  3  1  0
  3  4  1  0
  4  5  1  0
  5  6  2  0
  5  7  1  0
  7  8  1  0
  8  9  1  0
  9 10  1  0
  9 11  1  0
 11 12  1  0
 12 13  1  0
 13 14  2  0
 13 15  1  0
 15 16  1  0
 16 17  1  0
 17 18  1  0
 18 19  1  0
  2 20  1  0
 20 21  2  0
 21 22  1  0
 22 23  2  0
 23 24  1  0
 24 25  2  0
 25 26  1  0
 25 27  1  0
 27 28  2  0
 28 29  1  0
 29 30  2  0
 12  7  1  0
 19 16  1  0
 30 20  1  0
 29 23  1  0
  3 31  1  0
  4 32  1  0
  4 33  1  0
  8 34  1  0
  8 35  1  0
  9 36  1  6
 10 37  1  0
 11 38  1  0
 11 39  1  0
 12 40  1  6
 15 41  1  0
 16 42  1  0
 17 43  1  0
 17 44  1  0
 18 45  1  0
 18 46  1  0
 19 47  1  0
 19 48  1  0
 21 49  1  0
 22 50  1  0
 24 51  1  0
 27 52  1  0
 28 53  1  0
M  END
>  <smiles>  (9) 
O=C(NCC(=O)N1C[C@H](O)C[C@@H]1C(=O)NC1CCC1)c1ccc2cc(F)ccc2n1

>  <score_type>  (9) 
oracle

>  <origin>  (9) 
autodockgpu

>  <m_score__min__energy>  (9) 
-9.3800000000000008

>  <m_primary>  (9) 
energy

>  <meeko>  (9) 
{"free_energy": -8.33, "intermolecular_energy": -10.42, "internal_energy": -2.28, "cluster_size": 15, "cluster_id": 1, "rank_in_cluster": 14}

>  <energy>  (9) 
-8.64

>  <cluster_rmsd>  (9) 
1.01

>  <rmsd>  (9) 
271.62

>  <cluster>  (9) 
1

$$$$

     RDKit          3D

 53 56  0  0  0  0  0  0  0  0999 V2000
  139.1130   71.7060  221.2420 O   0  0  0  0  0  0  0  0  0  0  0  0
  139.8920   71.9180  222.2190 C   0  0  0  0  0  0  0  0  0  0  0  0
  140.8450   72.9700  222.1610 N   0  0  0  0  0  0  0  0  0  0  0  0
  140.8890   73.7730  220.9680 C   0  0  0  0  0  0  0  0  0  0  0  0
  141.4900   72.9490  219.8870 C   0  0  0  0  0  0  0  0  0  0  0  0
  140.6980   72.5840  218.9660 O   0  0  0  0  0  0  0  0  0  0  0  0
  142.8790   72.5880  219.8780 N   0  0  0  0  0  0  0  0  0  0  0  0
  143.9090   73.5550  219.4440 C   0  0  0  0  0  0  0  0  0  0  0  0
  145.2100   72.9050  219.8800 C   0  0  2  0  0  0  0  0  0  0  0  0
  146.2880   73.3100  219.1040 O   0  0  0  0  0  0  0  0  0  0  0  0
  144.8840   71.4390  219.7180 C   0  0  0  0  0  0  0  0  0  0  0  0
  143.4770   71.3530  220.2560 C   0  0  2  0  0  0  0  0  0  0  0  0
  142.7720   70.1550  219.7390 C   0  0  0  0  0  0  0  0  0  0  0  0
  143.3360   69.1850  219.1820 O   0  0  0  0  0  0  0  0  0  0  0  0
  141.3630   70.1110  219.8900 N   0  0  0  0  0  0  0  0  0  0  0  0
  140.5760   68.9710  219.4120 C   0  0  0  0  0  0  0  0  0  0  0  0
  139.1040   69.3560  219.4550 C   0  0  0  0  0  0  0  0  0  0  0  0
  138.8190   68.0580  220.1750 C   0  0  0  0  0  0  0  0  0  0  0  0
  140.3000   67.9250  220.4400 C   0  0  0  0  0  0  0  0  0  0  0  0
  139.8540   71.1060  223.4340 C   0  0  0  0  0  0  0  0  0  0  0  0
  139.1880   69.8810  223.3800 C   0  0  0  0  0  0  0  0  0  0  0  0
  139.1530   69.1070  224.5430 C   0  0  0  0  0  0  0  0  0  0  0  0
  139.7690   69.5690  225.6960 C   0  0  0  0  0  0  0  0  0  0  0  0
  139.7370   68.8160  226.8360 C   0  0  0  0  0  0  0  0  0  0  0  0
  140.3620   69.3100  227.9620 C   0  0  0  0  0  0  0  0  0  0  0  0
  140.3400   68.5790  229.1000 F   0  0  0  0  0  0  0  0  0  0  0  0
  141.0100   70.5160  227.9950 C   0  0  0  0  0  0  0  0  0  0  0  0
  141.0470   71.2880  226.8390 C   0  0  0  0  0  0  0  0  0  0  0  0
  140.4170   70.7880  225.7050 C   0  0  0  0  0  0  0  0  0  0  0  0
  140.4390   71.5080  224.5890 N   0  0  0  0  0  0  0  0  0  0  0  0
  141.4800   73.1300  222.9750 H   0  0  0  0  0  0  0  0  0  0  0  0
  139.8708   74.0774  220.6842 H   0  0  0  0  0  0  0  0  0  0  0  0
  141.4879   74.6800  221.1375 H   0  0  0  0  0  0  0  0  0  0  0  0
  143.8844   73.6927  218.3529 H   0  0  0  0  0  0  0  0  0  0  0  0
  143.7649   74.5570  219.8743 H   0  0  0  0  0  0  0  0  0  0  0  0
  145.5268   73.1730  220.8987 H   0  0  0  0  0  0  0  0  0  0  0  0
  145.9720   74.1310  218.6310 H   0  0  0  0  0  0  0  0  0  0  0  0
  144.9239   71.1379  218.6608 H   0  0  0  0  0  0  0  0  0  0  0  0
  145.5914   70.7739  220.2350 H   0  0  0  0  0  0  0  0  0  0  0  0
  143.4354   71.2215  221.3473 H   0  0  0  0  0  0  0  0  0  0  0  0
  140.8630   70.9000  220.3470 H   0  0  0  0  0  0  0  0  0  0  0  0
  141.1149   68.6818  218.4977 H   0  0  0  0  0  0  0  0  0  0  0  0
  138.8881   70.2591  220.0448 H   0  0  0  0  0  0  0  0  0  0  0  0
  138.5612   69.6271  218.5374 H   0  0  0  0  0  0  0  0  0  0  0  0
  138.2029   68.1656  221.0799 H   0  0  0  0  0  0  0  0  0  0  0  0
  138.2523   67.2498  219.6895 H   0  0  0  0  0  0  0  0  0  0  0  0
  140.6011   68.2067  221.4598 H   0  0  0  0  0  0  0  0  0  0  0  0
  140.7907   66.9423  220.3810 H   0  0  0  0  0  0  0  0  0  0  0  0
  138.7066   69.5361  222.4530 H   0  0  0  0  0  0  0  0  0  0  0  0
  138.6386   68.1347  224.5437 H   0  0  0  0  0  0  0  0  0  0  0  0
  139.2264   67.8419  226.8551 H   0  0  0  0  0  0  0  0  0  0  0  0
  141.4924   70.8676  228.9190 H   0  0  0  0  0  0  0  0  0  0  0  0
  141.5578   72.2621  226.8224 H   0  0  0  0  0  0  0  0  0  0  0  0
  1  2  2  0
  2  3  1  0
  3  4  1  0
  4  5  1  0
  5  6  2  0
  5  7  1  0
  7  8  1  0
  8  9  1  0
  9 10  1  0
  9 11  1  0
 11 12  1  0
 12 13  1  0
 13 14  2  0
 13 15  1  0
 15 16  1  0
 16 17  1  0
 17 18  1  0
 18 19  1  0
  2 20  1  0
 20 21  2  0
 21 22  1  0
 22 23  2  0
 23 24  1  0
 24 25  2  0
 25 26  1  0
 25 27  1  0
 27 28  2  0
 28 29  1  0
 29 30  2  0
 12  7  1  0
 19 16  1  0
 30 20  1  0
 29 23  1  0
  3 31  1  0
  4 32  1  0
  4 33  1  0
  8 34  1  0
  8 35  1  0
  9 36  1  1
 10 37  1  0
 11 38  1  0
 11 39  1  0
 12 40  1  1
 15 41  1  0
 16 42  1  0
 17 43  1  0
 17 44  1  0
 18 45  1  0
 18 46  1  0
 19 47  1  0
 19 48  1  0
 21 49  1  0
 22 50  1  0
 24 51  1  0
 27 52  1  0
 28 53  1  0
M  END
>  <smiles>  (10) 
O=C(NCC(=O)N1C[C@H](O)C[C@@H]1C(=O)NC1CCC1)c1ccc2cc(F)ccc2n1

>  <score_type>  (10) 
oracle

>  <origin>  (10) 
autodockgpu

>  <m_score__min__energy>  (10) 
-9.3800000000000008

>  <m_primary>  (10) 
energy

>  <meeko>  (10) 
{"free_energy": -6.22, "intermolecular_energy": -8.3, "internal_energy": -3.63, "cluster_size": 1, "cluster_id": 4, "rank_in_cluster": 1}

>  <energy>  (10) 
-8.62

>  <cluster_rmsd>  (10) 
1.01

>  <rmsd>  (10) 
271.61

>  <cluster>  (10) 
1

$$$$

     RDKit          3D

 53 56  0  0  0  0  0  0  0  0999 V2000
  139.7630   71.4020  220.9540 O   0  0  0  0  0  0  0  0  0  0  0  0
  139.7810   71.9530  222.0960 C   0  0  0  0  0  0  0  0  0  0  0  0
  139.7930   73.3690  222.2090 N   0  0  0  0  0  0  0  0  0  0  0  0
  139.7850   74.1410  220.9960 C   0  0  0  0  0  0  0  0  0  0  0  0
  140.7670   75.2450  221.1520 C   0  0  0  0  0  0  0  0  0  0  0  0
  140.9980   75.6140  222.3440 O   0  0  0  0  0  0  0  0  0  0  0  0
  141.4190   75.8590  220.0310 N   0  0  0  0  0  0  0  0  0  0  0  0
  142.5830   75.2150  219.3880 C   0  0  0  0  0  0  0  0  0  0  0  0
  142.7540   75.9990  218.0990 C   0  0  2  0  0  0  0  0  0  0  0  0
  144.0630   75.9730  217.6340 O   0  0  0  0  0  0  0  0  0  0  0  0
  142.3060   77.3780  218.5220 C   0  0  0  0  0  0  0  0  0  0  0  0
  141.0990   77.0830  219.3780 C   0  0  2  0  0  0  0  0  0  0  0  0
  140.8040   78.2040  220.3040 C   0  0  0  0  0  0  0  0  0  0  0  0
  140.0350   79.1570  220.0420 O   0  0  0  0  0  0  0  0  0  0  0  0
  141.4400   78.1890  221.5700 N   0  0  0  0  0  0  0  0  0  0  0  0
  141.2150   79.2520  222.5540 C   0  0  0  0  0  0  0  0  0  0  0  0
  142.2640   80.3330  222.3370 C   0  0  0  0  0  0  0  0  0  0  0  0
  142.5560   80.3020  223.8200 C   0  0  0  0  0  0  0  0  0  0  0  0
  141.8050   78.9950  223.9010 C   0  0  0  0  0  0  0  0  0  0  0  0
  139.7900   71.1740  223.3340 C   0  0  0  0  0  0  0  0  0  0  0  0
  139.2650   69.8830  223.2960 C   0  0  0  0  0  0  0  0  0  0  0  0
  139.2750   69.1410  224.4810 C   0  0  0  0  0  0  0  0  0  0  0  0
  139.7960   69.6990  225.6380 C   0  0  0  0  0  0  0  0  0  0  0  0
  139.8080   68.9780  226.7990 C   0  0  0  0  0  0  0  0  0  0  0  0
  140.3360   69.5690  227.9280 C   0  0  0  0  0  0  0  0  0  0  0  0
  140.3560   68.8710  229.0870 F   0  0  0  0  0  0  0  0  0  0  0  0
  140.8460   70.8400  227.9440 C   0  0  0  0  0  0  0  0  0  0  0  0
  140.8380   71.5800  226.7670 C   0  0  0  0  0  0  0  0  0  0  0  0
  140.3060   70.9820  225.6290 C   0  0  0  0  0  0  0  0  0  0  0  0
  140.2870   71.6700  224.4930 N   0  0  0  0  0  0  0  0  0  0  0  0
  139.8090   73.8060  223.1580 H   0  0  0  0  0  0  0  0  0  0  0  0
  140.0702   73.5042  220.1456 H   0  0  0  0  0  0  0  0  0  0  0  0
  138.7800   74.5456  220.8055 H   0  0  0  0  0  0  0  0  0  0  0  0
  143.4785   75.2991  220.0212 H   0  0  0  0  0  0  0  0  0  0  0  0
  142.4375   74.1379  219.2185 H   0  0  0  0  0  0  0  0  0  0  0  0
  142.1840   75.5948  217.2494 H   0  0  0  0  0  0  0  0  0  0  0  0
  144.5540   75.3880  218.2790 H   0  0  0  0  0  0  0  0  0  0  0  0
  143.0886   77.8895  219.1016 H   0  0  0  0  0  0  0  0  0  0  0  0
  142.0897   78.0468  217.6759 H   0  0  0  0  0  0  0  0  0  0  0  0
  140.1699   76.9802  218.7981 H   0  0  0  0  0  0  0  0  0  0  0  0
  142.0860   77.4130  221.8210 H   0  0  0  0  0  0  0  0  0  0  0  0
  140.1300   79.4159  222.4765 H   0  0  0  0  0  0  0  0  0  0  0  0
  143.1078   80.0256  221.7018 H   0  0  0  0  0  0  0  0  0  0  0  0
  142.0114   81.2748  221.8279 H   0  0  0  0  0  0  0  0  0  0  0  0
  143.6243   80.2290  224.0718 H   0  0  0  0  0  0  0  0  0  0  0  0
  142.2949   81.1502  224.4699 H   0  0  0  0  0  0  0  0  0  0  0  0
  142.4524   78.1069  223.9459 H   0  0  0  0  0  0  0  0  0  0  0  0
  141.1552   78.7782  224.7617 H   0  0  0  0  0  0  0  0  0  0  0  0
  138.8567   69.4624  222.3652 H   0  0  0  0  0  0  0  0  0  0  0  0
  138.8708   68.1180  224.4951 H   0  0  0  0  0  0  0  0  0  0  0  0
  139.4074   67.9541  226.8322 H   0  0  0  0  0  0  0  0  0  0  0  0
  141.2546   71.2677  228.8714 H   0  0  0  0  0  0  0  0  0  0  0  0
  141.2388   72.6039  226.7365 H   0  0  0  0  0  0  0  0  0  0  0  0
  1  2  2  0
  2  3  1  0
  3  4  1  0
  4  5  1  0
  5  6  2  0
  5  7  1  0
  7  8  1  0
  8  9  1  0
  9 10  1  0
  9 11  1  0
 11 12  1  0
 12 13  1  0
 13 14  2  0
 13 15  1  0
 15 16  1  0
 16 17  1  0
 17 18  1  0
 18 19  1  0
  2 20  1  0
 20 21  2  0
 21 22  1  0
 22 23  2  0
 23 24  1  0
 24 25  2  0
 25 26  1  0
 25 27  1  0
 27 28  2  0
 28 29  1  0
 29 30  2  0
 12  7  1  0
 19 16  1  0
 30 20  1  0
 29 23  1  0
  3 31  1  0
  4 32  1  0
  4 33  1  0
  8 34  1  0
  8 35  1  0
  9 36  1  6
 10 37  1  0
 11 38  1  0
 11 39  1  0
 12 40  1  6
 15 41  1  0
 16 42  1  0
 17 43  1  0
 17 44  1  0
 18 45  1  0
 18 46  1  0
 19 47  1  0
 19 48  1  0
 21 49  1  0
 22 50  1  0
 24 51  1  0
 27 52  1  0
 28 53  1  0
M  END
>  <smiles>  (11) 
O=C(NCC(=O)N1C[C@H](O)C[C@@H]1C(=O)NC1CCC1)c1ccc2cc(F)ccc2n1

>  <score_type>  (11) 
oracle

>  <origin>  (11) 
autodockgpu

>  <m_score__min__energy>  (11) 
-9.3800000000000008

>  <m_primary>  (11) 
energy

>  <meeko>  (11) 
{"free_energy": -8.56, "intermolecular_energy": -10.64, "internal_energy": -2.75, "cluster_size": 15, "cluster_id": 1, "rank_in_cluster": 13}

>  <energy>  (11) 
-8.6

>  <cluster_rmsd>  (11) 
1.03

>  <rmsd>  (11) 
271.59

>  <cluster>  (11) 
1

$$$$

     RDKit          3D

 53 56  0  0  0  0  0  0  0  0999 V2000
  139.8110   71.3580  221.1100 O   0  0  0  0  0  0  0  0  0  0  0  0
  139.7220   71.8540  222.2730 C   0  0  0  0  0  0  0  0  0  0  0  0
  139.5870   73.2570  222.4460 N   0  0  0  0  0  0  0  0  0  0  0  0
  139.5560   74.0800  221.2660 C   0  0  0  0  0  0  0  0  0  0  0  0
  140.5420   75.1770  221.4500 C   0  0  0  0  0  0  0  0  0  0  0  0
  140.2510   76.0380  222.3350 O   0  0  0  0  0  0  0  0  0  0  0  0
  141.7500   75.2610  220.6800 N   0  0  0  0  0  0  0  0  0  0  0  0
  142.8220   74.2570  220.8440 C   0  0  0  0  0  0  0  0  0  0  0  0
  143.7370   74.5210  219.6610 C   0  0  2  0  0  0  0  0  0  0  0  0
  145.0460   74.1270  219.9090 O   0  0  0  0  0  0  0  0  0  0  0  0
  143.5920   76.0150  219.4940 C   0  0  0  0  0  0  0  0  0  0  0  0
  142.1120   76.2270  219.6990 C   0  0  2  0  0  0  0  0  0  0  0  0
  141.8140   77.6260  220.0890 C   0  0  0  0  0  0  0  0  0  0  0  0
  141.5520   78.5470  219.2810 O   0  0  0  0  0  0  0  0  0  0  0  0
  141.8280   77.9370  221.4720 N   0  0  0  0  0  0  0  0  0  0  0  0
  141.5480   79.2910  221.9570 C   0  0  0  0  0  0  0  0  0  0  0  0
  142.7610   79.7790  222.7360 C   0  0  0  0  0  0  0  0  0  0  0  0
  141.8360   80.1900  223.8580 C   0  0  0  0  0  0  0  0  0  0  0  0
  140.7540   79.3520  223.2200 C   0  0  0  0  0  0  0  0  0  0  0  0
  139.7530   71.0240  223.4770 C   0  0  0  0  0  0  0  0  0  0  0  0
  139.2600   69.7230  223.3860 C   0  0  0  0  0  0  0  0  0  0  0  0
  139.2910   68.9320  224.5370 C   0  0  0  0  0  0  0  0  0  0  0  0
  139.8020   69.4530  225.7160 C   0  0  0  0  0  0  0  0  0  0  0  0
  139.8350   68.6840  226.8450 C   0  0  0  0  0  0  0  0  0  0  0  0
  140.3510   69.2390  227.9980 C   0  0  0  0  0  0  0  0  0  0  0  0
  140.3910   68.4930  229.1260 F   0  0  0  0  0  0  0  0  0  0  0  0
  140.8300   70.5200  228.0670 C   0  0  0  0  0  0  0  0  0  0  0  0
  140.8010   71.3090  226.9230 C   0  0  0  0  0  0  0  0  0  0  0  0
  140.2800   70.7470  225.7610 C   0  0  0  0  0  0  0  0  0  0  0  0
  140.2420   71.4820  224.6560 N   0  0  0  0  0  0  0  0  0  0  0  0
  139.5150   73.6500  223.4110 H   0  0  0  0  0  0  0  0  0  0  0  0
  139.8245   73.4798  220.3842 H   0  0  0  0  0  0  0  0  0  0  0  0
  138.5478   74.4920  221.1117 H   0  0  0  0  0  0  0  0  0  0  0  0
  143.3559   74.4032  221.7946 H   0  0  0  0  0  0  0  0  0  0  0  0
  142.4426   73.2248  220.8710 H   0  0  0  0  0  0  0  0  0  0  0  0
  143.4766   73.9527  218.7559 H   0  0  0  0  0  0  0  0  0  0  0  0
  145.5770   74.5050  219.1520 H   0  0  0  0  0  0  0  0  0  0  0  0
  144.1793   76.5578  220.2493 H   0  0  0  0  0  0  0  0  0  0  0  0
  143.9567   76.3843  218.5241 H   0  0  0  0  0  0  0  0  0  0  0  0
  141.5215   76.0870  218.7816 H   0  0  0  0  0  0  0  0  0  0  0  0
  142.0430   77.1960  222.1700 H   0  0  0  0  0  0  0  0  0  0  0  0
  141.1485   79.7835  221.0582 H   0  0  0  0  0  0  0  0  0  0  0  0
  143.4762   78.9875  223.0045 H   0  0  0  0  0  0  0  0  0  0  0  0
  143.4687   80.4953  222.2933 H   0  0  0  0  0  0  0  0  0  0  0  0
  142.1493   79.8462  224.8548 H   0  0  0  0  0  0  0  0  0  0  0  0
  141.6682   81.2501  224.0988 H   0  0  0  0  0  0  0  0  0  0  0  0
  140.5998   78.3750  223.7014 H   0  0  0  0  0  0  0  0  0  0  0  0
  139.7118   79.7037  223.2066 H   0  0  0  0  0  0  0  0  0  0  0  0
  138.8597   69.3322  222.4389 H   0  0  0  0  0  0  0  0  0  0  0  0
  138.9115   67.8999  224.5081 H   0  0  0  0  0  0  0  0  0  0  0  0
  139.4601   67.6499  226.8349 H   0  0  0  0  0  0  0  0  0  0  0  0
  141.2307   70.9176  229.0111 H   0  0  0  0  0  0  0  0  0  0  0  0
  141.1771   72.3426  226.9355 H   0  0  0  0  0  0  0  0  0  0  0  0
  1  2  2  0
  2  3  1  0
  3  4  1  0
  4  5  1  0
  5  6  2  0
  5  7  1  0
  7  8  1  0
  8  9  1  0
  9 10  1  0
  9 11  1  0
 11 12  1  0
 12 13  1  0
 13 14  2  0
 13 15  1  0
 15 16  1  0
 16 17  1  0
 17 18  1  0
 18 19  1  0
  2 20  1  0
 20 21  2  0
 21 22  1  0
 22 23  2  0
 23 24  1  0
 24 25  2  0
 25 26  1  0
 25 27  1  0
 27 28  2  0
 28 29  1  0
 29 30  2  0
 12  7  1  0
 19 16  1  0
 30 20  1  0
 29 23  1  0
  3 31  1  0
  4 32  1  0
  4 33  1  0
  8 34  1  0
  8 35  1  0
  9 36  1  6
 10 37  1  0
 11 38  1  0
 11 39  1  0
 12 40  1  6
 15 41  1  0
 16 42  1  0
 17 43  1  0
 17 44  1  0
 18 45  1  0
 18 46  1  0
 19 47  1  0
 19 48  1  0
 21 49  1  0
 22 50  1  0
 24 51  1  0
 27 52  1  0
 28 53  1  0
M  END
>  <smiles>  (12) 
O=C(NCC(=O)N1C[C@H](O)C[C@@H]1C(=O)NC1CCC1)c1ccc2cc(F)ccc2n1

>  <score_type>  (12) 
oracle

>  <origin>  (12) 
autodockgpu

>  <m_score__min__energy>  (12) 
-9.3800000000000008

>  <m_primary>  (12) 
energy

>  <meeko>  (12) 
{"free_energy": -9.1, "intermolecular_energy": -11.18, "internal_energy": -2.39, "cluster_size": 15, "cluster_id": 1, "rank_in_cluster": 4}

>  <energy>  (12) 
-8.59

>  <cluster_rmsd>  (12) 
1.09

>  <rmsd>  (12) 
271.66

>  <cluster>  (12) 
1

$$$$

     RDKit          3D

 53 56  0  0  0  0  0  0  0  0999 V2000
  138.4130   75.3040  221.8890 O   0  0  0  0  0  0  0  0  0  0  0  0
  139.5870   75.7750  221.8060 C   0  0  0  0  0  0  0  0  0  0  0  0
  140.6190   75.0250  221.1820 N   0  0  0  0  0  0  0  0  0  0  0  0
  140.2840   73.7280  220.6560 C   0  0  0  0  0  0  0  0  0  0  0  0
  141.3330   73.3510  219.6750 C   0  0  0  0  0  0  0  0  0  0  0  0
  140.9220   72.7820  218.6180 O   0  0  0  0  0  0  0  0  0  0  0  0
  142.7270   73.6120  219.9000 N   0  0  0  0  0  0  0  0  0  0  0  0
  143.5090   72.7800  220.8390 C   0  0  0  0  0  0  0  0  0  0  0  0
  144.9460   73.1730  220.5460 C   0  0  2  0  0  0  0  0  0  0  0  0
  145.7800   72.9810  221.6400 O   0  0  0  0  0  0  0  0  0  0  0  0
  144.7910   74.6280  220.1700 C   0  0  0  0  0  0  0  0  0  0  0  0
  143.5470   74.6160  219.3150 C   0  0  2  0  0  0  0  0  0  0  0  0
  142.9170   75.9570  219.2600 C   0  0  0  0  0  0  0  0  0  0  0  0
  142.9680   76.8050  220.1800 O   0  0  0  0  0  0  0  0  0  0  0  0
  142.2080   76.2970  218.0800 N   0  0  0  0  0  0  0  0  0  0  0  0
  141.5500   77.5980  217.9280 C   0  0  0  0  0  0  0  0  0  0  0  0
  142.5780   78.6870  218.1990 C   0  0  0  0  0  0  0  0  0  0  0  0
  141.5910   79.3420  219.1360 C   0  0  0  0  0  0  0  0  0  0  0  0
  140.7920   78.0600  219.1290 C   0  0  0  0  0  0  0  0  0  0  0  0
  139.9340   77.0920  222.3390 C   0  0  0  0  0  0  0  0  0  0  0  0
  138.9070   77.8770  222.8600 C   0  0  0  0  0  0  0  0  0  0  0  0
  139.2410   79.1350  223.3680 C   0  0  0  0  0  0  0  0  0  0  0  0
  140.5610   79.5590  223.3410 C   0  0  0  0  0  0  0  0  0  0  0  0
  140.8950   80.7890  223.8370 C   0  0  0  0  0  0  0  0  0  0  0  0
  142.2180   81.1730  223.7910 C   0  0  0  0  0  0  0  0  0  0  0  0
  142.5670   82.3870  224.2770 F   0  0  0  0  0  0  0  0  0  0  0  0
  143.2130   80.3870  223.2740 C   0  0  0  0  0  0  0  0  0  0  0  0
  142.8830   79.1350  222.7680 C   0  0  0  0  0  0  0  0  0  0  0  0
  141.5470   78.7490  222.8150 C   0  0  0  0  0  0  0  0  0  0  0  0
  141.2080   77.5570  222.3370 N   0  0  0  0  0  0  0  0  0  0  0  0
  141.5800   75.4280  221.1230 H   0  0  0  0  0  0  0  0  0  0  0  0
  140.2519   72.9904  221.4715 H   0  0  0  0  0  0  0  0  0  0  0  0
  139.2966   73.7531  220.1719 H   0  0  0  0  0  0  0  0  0  0  0  0
  143.2435   73.0083  221.8818 H   0  0  0  0  0  0  0  0  0  0  0  0
  143.3247   71.7028  220.7136 H   0  0  0  0  0  0  0  0  0  0  0  0
  145.4260   72.5674  219.7631 H   0  0  0  0  0  0  0  0  0  0  0  0
  145.7970   71.9920  221.7810 H   0  0  0  0  0  0  0  0  0  0  0  0
  144.6536   75.2563  221.0624 H   0  0  0  0  0  0  0  0  0  0  0  0
  145.6708   75.0436  219.6568 H   0  0  0  0  0  0  0  0  0  0  0  0
  143.7463   74.3841  218.2584 H   0  0  0  0  0  0  0  0  0  0  0  0
  142.1440   75.6170  217.2960 H   0  0  0  0  0  0  0  0  0  0  0  0
  141.0100   77.4777  216.9772 H   0  0  0  0  0  0  0  0  0  0  0  0
  143.4982   78.3313  218.6856 H   0  0  0  0  0  0  0  0  0  0  0  0
  143.0372   79.2514  217.3740 H   0  0  0  0  0  0  0  0  0  0  0  0
  142.0070   79.6132  220.1175 H   0  0  0  0  0  0  0  0  0  0  0  0
  141.1231   80.3060  218.8872 H   0  0  0  0  0  0  0  0  0  0  0  0
  140.9387   77.4339  220.0215 H   0  0  0  0  0  0  0  0  0  0  0  0
  139.6924   78.0880  219.1179 H   0  0  0  0  0  0  0  0  0  0  0  0
  137.8673   77.5179  222.8709 H   0  0  0  0  0  0  0  0  0  0  0  0
  138.4601   79.7863  223.7876 H   0  0  0  0  0  0  0  0  0  0  0  0
  140.1284   81.4540  224.2613 H   0  0  0  0  0  0  0  0  0  0  0  0
  144.2547   80.7400  223.2594 H   0  0  0  0  0  0  0  0  0  0  0  0
  143.6519   78.4720  222.3448 H   0  0  0  0  0  0  0  0  0  0  0  0
  1  2  2  0
  2  3  1  0
  3  4  1  0
  4  5  1  0
  5  6  2  0
  5  7  1  0
  7  8  1  0
  8  9  1  0
  9 10  1  0
  9 11  1  0
 11 12  1  0
 12 13  1  0
 13 14  2  0
 13 15  1  0
 15 16  1  0
 16 17  1  0
 17 18  1  0
 18 19  1  0
  2 20  1  0
 20 21  2  0
 21 22  1  0
 22 23  2  0
 23 24  1  0
 24 25  2  0
 25 26  1  0
 25 27  1  0
 27 28  2  0
 28 29  1  0
 29 30  2  0
 12  7  1  0
 19 16  1  0
 30 20  1  0
 29 23  1  0
  3 31  1  0
  4 32  1  0
  4 33  1  0
  8 34  1  0
  8 35  1  0
  9 36  1  6
 10 37  1  0
 11 38  1  0
 11 39  1  0
 12 40  1  6
 15 41  1  0
 16 42  1  0
 17 43  1  0
 17 44  1  0
 18 45  1  0
 18 46  1  0
 19 47  1  0
 19 48  1  0
 21 49  1  0
 22 50  1  0
 24 51  1  0
 27 52  1  0
 28 53  1  0
M  END
>  <smiles>  (13) 
O=C(NCC(=O)N1C[C@H](O)C[C@@H]1C(=O)NC1CCC1)c1ccc2cc(F)ccc2n1

>  <score_type>  (13) 
oracle

>  <origin>  (13) 
autodockgpu

>  <m_score__min__energy>  (13) 
-9.3800000000000008

>  <m_primary>  (13) 
energy

>  <meeko>  (13) 
{"free_energy": -6.16, "intermolecular_energy": -8.24, "internal_energy": -3.44, "cluster_size": 1, "cluster_id": 5, "rank_in_cluster": 1}

>  <energy>  (13) 
-8.56

>  <cluster_rmsd>  (13) 
1.03

>  <rmsd>  (13) 
271.61

>  <cluster>  (13) 
1

$$$$

     RDKit          3D

 53 56  0  0  0  0  0  0  0  0999 V2000
  139.7280   71.3780  221.1050 O   0  0  0  0  0  0  0  0  0  0  0  0
  139.6840   71.8720  222.2720 C   0  0  0  0  0  0  0  0  0  0  0  0
  139.5790   73.2770  222.4530 N   0  0  0  0  0  0  0  0  0  0  0  0
  139.5250   74.1040  221.2770 C   0  0  0  0  0  0  0  0  0  0  0  0
  140.5240   75.1920  221.4410 C   0  0  0  0  0  0  0  0  0  0  0  0
  140.2670   76.0460  222.3430 O   0  0  0  0  0  0  0  0  0  0  0  0
  141.7080   75.2770  220.6340 N   0  0  0  0  0  0  0  0  0  0  0  0
  142.7810   74.2690  220.7590 C   0  0  0  0  0  0  0  0  0  0  0  0
  143.6600   74.5360  219.5490 C   0  0  2  0  0  0  0  0  0  0  0  0
  144.9740   74.1370  219.7530 O   0  0  0  0  0  0  0  0  0  0  0  0
  143.5140   76.0320  219.3950 C   0  0  0  0  0  0  0  0  0  0  0  0
  142.0420   76.2470  219.6480 C   0  0  2  0  0  0  0  0  0  0  0  0
  141.7620   77.6460  220.0540 C   0  0  0  0  0  0  0  0  0  0  0  0
  141.4680   78.5700  219.2620 O   0  0  0  0  0  0  0  0  0  0  0  0
  141.8320   77.9510  221.4370 N   0  0  0  0  0  0  0  0  0  0  0  0
  141.5720   79.3030  221.9380 C   0  0  0  0  0  0  0  0  0  0  0  0
  142.7930   79.7630  222.7230 C   0  0  0  0  0  0  0  0  0  0  0  0
  141.8730   80.1740  223.8500 C   0  0  0  0  0  0  0  0  0  0  0  0
  140.7780   79.3610  223.2010 C   0  0  0  0  0  0  0  0  0  0  0  0
  139.7380   71.0370  223.4720 C   0  0  0  0  0  0  0  0  0  0  0  0
  139.2520   69.7330  223.3820 C   0  0  0  0  0  0  0  0  0  0  0  0
  139.3050   68.9380  224.5300 C   0  0  0  0  0  0  0  0  0  0  0  0
  139.8300   69.4570  225.7030 C   0  0  0  0  0  0  0  0  0  0  0  0
  139.8840   68.6840  226.8290 C   0  0  0  0  0  0  0  0  0  0  0  0
  140.4140   69.2380  227.9760 C   0  0  0  0  0  0  0  0  0  0  0  0
  140.4750   68.4880  229.1000 F   0  0  0  0  0  0  0  0  0  0  0  0
  140.8850   70.5220  228.0430 C   0  0  0  0  0  0  0  0  0  0  0  0
  140.8340   71.3150  226.9030 C   0  0  0  0  0  0  0  0  0  0  0  0
  140.3000   70.7550  225.7470 C   0  0  0  0  0  0  0  0  0  0  0  0
  140.2410   71.4940  224.6450 N   0  0  0  0  0  0  0  0  0  0  0  0
  139.5440   73.6670  223.4210 H   0  0  0  0  0  0  0  0  0  0  0  0
  139.7668   73.5049  220.3867 H   0  0  0  0  0  0  0  0  0  0  0  0
  138.5166   74.5242  221.1485 H   0  0  0  0  0  0  0  0  0  0  0  0
  143.3448   74.4085  221.6932 H   0  0  0  0  0  0  0  0  0  0  0  0
  142.3990   73.2380  220.7923 H   0  0  0  0  0  0  0  0  0  0  0  0
  143.3701   73.9728  218.6497 H   0  0  0  0  0  0  0  0  0  0  0  0
  145.5300   74.8760  219.3750 H   0  0  0  0  0  0  0  0  0  0  0  0
  144.1265   76.5689  220.1343 H   0  0  0  0  0  0  0  0  0  0  0  0
  143.8488   76.4057  218.4161 H   0  0  0  0  0  0  0  0  0  0  0  0
  141.4214   76.1133  218.7497 H   0  0  0  0  0  0  0  0  0  0  0  0
  142.0730   77.2070  222.1230 H   0  0  0  0  0  0  0  0  0  0  0  0
  141.1802   79.8125  221.0453 H   0  0  0  0  0  0  0  0  0  0  0  0
  143.4961   78.9576  222.9818 H   0  0  0  0  0  0  0  0  0  0  0  0
  143.5119   80.4737  222.2893 H   0  0  0  0  0  0  0  0  0  0  0  0
  142.1802   79.8128  224.8425 H   0  0  0  0  0  0  0  0  0  0  0  0
  141.7215   81.2335  224.1039 H   0  0  0  0  0  0  0  0  0  0  0  0
  140.6079   78.3808  223.6702 H   0  0  0  0  0  0  0  0  0  0  0  0
  139.7415   79.7293  223.1913 H   0  0  0  0  0  0  0  0  0  0  0  0
  138.8408   69.3433  222.4391 H   0  0  0  0  0  0  0  0  0  0  0  0
  138.9313   67.9038  224.5028 H   0  0  0  0  0  0  0  0  0  0  0  0
  139.5147   67.6479  226.8209 H   0  0  0  0  0  0  0  0  0  0  0  0
  141.2965   70.9188  228.9828 H   0  0  0  0  0  0  0  0  0  0  0  0
  141.2036   72.3510  226.9143 H   0  0  0  0  0  0  0  0  0  0  0  0
  1  2  2  0
  2  3  1  0
  3  4  1  0
  4  5  1  0
  5  6  2  0
  5  7  1  0
  7  8  1  0
  8  9  1  0
  9 10  1  0
  9 11  1  0
 11 12  1  0
 12 13  1  0
 13 14  2  0
 13 15  1  0
 15 16  1  0
 16 17  1  0
 17 18  1  0
 18 19  1  0
  2 20  1  0
 20 21  2  0
 21 22  1  0
 22 23  2  0
 23 24  1  0
 24 25  2  0
 25 26  1  0
 25 27  1  0
 27 28  2  0
 28 29  1  0
 29 30  2  0
 12  7  1  0
 19 16  1  0
 30 20  1  0
 29 23  1  0
  3 31  1  0
  4 32  1  0
  4 33  1  0
  8 34  1  0
  8 35  1  0
  9 36  1  6
 10 37  1  0
 11 38  1  0
 11 39  1  0
 12 40  1  6
 15 41  1  0
 16 42  1  0
 17 43  1  0
 17 44  1  0
 18 45  1  0
 18 46  1  0
 19 47  1  0
 19 48  1  0
 21 49  1  0
 22 50  1  0
 24 51  1  0
 27 52  1  0
 28 53  1  0
M  END
>  <smiles>  (14) 
O=C(NCC(=O)N1C[C@H](O)C[C@@H]1C(=O)NC1CCC1)c1ccc2cc(F)ccc2n1

>  <score_type>  (14) 
oracle

>  <origin>  (14) 
autodockgpu

>  <m_score__min__energy>  (14) 
-9.3800000000000008

>  <m_primary>  (14) 
energy

>  <meeko>  (14) 
{"free_energy": -9.02, "intermolecular_energy": -11.11, "internal_energy": -2.41, "cluster_size": 15, "cluster_id": 1, "rank_in_cluster": 6}

>  <energy>  (14) 
-8.33

>  <cluster_rmsd>  (14) 
0.96

>  <rmsd>  (14) 
271.68

>  <cluster>  (14) 
1

$$$$

     RDKit          3D

 53 56  0  0  0  0  0  0  0  0999 V2000
  139.8360   71.4620  221.0030 O   0  0  0  0  0  0  0  0  0  0  0  0
  139.7600   71.9890  222.1540 C   0  0  0  0  0  0  0  0  0  0  0  0
  139.6460   73.3980  222.2910 N   0  0  0  0  0  0  0  0  0  0  0  0
  139.6200   74.1910  221.0910 C   0  0  0  0  0  0  0  0  0  0  0  0
  140.6780   75.2290  221.2080 C   0  0  0  0  0  0  0  0  0  0  0  0
  140.9250   75.6340  222.3850 O   0  0  0  0  0  0  0  0  0  0  0  0
  141.3810   75.7420  220.0670 N   0  0  0  0  0  0  0  0  0  0  0  0
  142.5080   74.9930  219.4740 C   0  0  0  0  0  0  0  0  0  0  0  0
  142.7440   75.6990  218.1500 C   0  0  2  0  0  0  0  0  0  0  0  0
  144.0530   75.5660  217.7070 O   0  0  0  0  0  0  0  0  0  0  0  0
  142.3810   77.1230  218.4990 C   0  0  0  0  0  0  0  0  0  0  0  0
  141.1470   76.9490  219.3510 C   0  0  2  0  0  0  0  0  0  0  0  0
  140.9150   78.1320  220.2150 C   0  0  0  0  0  0  0  0  0  0  0  0
  140.2180   79.1210  219.8930 O   0  0  0  0  0  0  0  0  0  0  0  0
  141.5280   78.1370  221.4930 N   0  0  0  0  0  0  0  0  0  0  0  0
  141.3600   79.2590  222.4200 C   0  0  0  0  0  0  0  0  0  0  0  0
  142.5860   80.1550  222.3110 C   0  0  0  0  0  0  0  0  0  0  0  0
  142.6930   80.1380  223.8190 C   0  0  0  0  0  0  0  0  0  0  0  0
  141.7400   78.9670  223.8340 C   0  0  0  0  0  0  0  0  0  0  0  0
  139.7860   71.1900  223.3780 C   0  0  0  0  0  0  0  0  0  0  0  0
  139.2360   69.9090  223.3330 C   0  0  0  0  0  0  0  0  0  0  0  0
  139.2620   69.1470  224.5040 C   0  0  0  0  0  0  0  0  0  0  0  0
  139.8240   69.6750  225.6560 C   0  0  0  0  0  0  0  0  0  0  0  0
  139.8510   68.9350  226.8050 C   0  0  0  0  0  0  0  0  0  0  0  0
  140.4180   69.4970  227.9300 C   0  0  0  0  0  0  0  0  0  0  0  0
  140.4550   68.7790  229.0760 F   0  0  0  0  0  0  0  0  0  0  0  0
  140.9520   70.7580  227.9530 C   0  0  0  0  0  0  0  0  0  0  0  0
  140.9280   71.5180  226.7900 C   0  0  0  0  0  0  0  0  0  0  0  0
  140.3560   70.9490  225.6560 C   0  0  0  0  0  0  0  0  0  0  0  0
  140.3220   71.6570  224.5330 N   0  0  0  0  0  0  0  0  0  0  0  0
  139.5840   73.8160  223.2460 H   0  0  0  0  0  0  0  0  0  0  0  0
  139.8169   73.5531  220.2168 H   0  0  0  0  0  0  0  0  0  0  0  0
  138.6337   74.6610  220.9628 H   0  0  0  0  0  0  0  0  0  0  0  0
  143.3998   75.0513  220.1153 H   0  0  0  0  0  0  0  0  0  0  0  0
  142.2952   73.9203  219.3560 H   0  0  0  0  0  0  0  0  0  0  0  0
  142.1593   75.2906  217.3126 H   0  0  0  0  0  0  0  0  0  0  0  0
  144.5230   76.3810  218.0410 H   0  0  0  0  0  0  0  0  0  0  0  0
  143.1883   77.6114  219.0644 H   0  0  0  0  0  0  0  0  0  0  0  0
  142.2180   77.7613  217.6181 H   0  0  0  0  0  0  0  0  0  0  0  0
  140.2190   76.8765  218.7648 H   0  0  0  0  0  0  0  0  0  0  0  0
  142.1150   77.3320  221.7930 H   0  0  0  0  0  0  0  0  0  0  0  0
  140.3313   79.5856  222.2074 H   0  0  0  0  0  0  0  0  0  0  0  0
  143.4391   79.6954  221.7904 H   0  0  0  0  0  0  0  0  0  0  0  0
  142.5478   81.1037  221.7556 H   0  0  0  0  0  0  0  0  0  0  0  0
  143.6991   79.9106  224.2011 H   0  0  0  0  0  0  0  0  0  0  0  0
  142.4951   81.0414  224.4145 H   0  0  0  0  0  0  0  0  0  0  0  0
  142.2289   77.9918  223.9755 H   0  0  0  0  0  0  0  0  0  0  0  0
  140.9677   78.8874  224.6132 H   0  0  0  0  0  0  0  0  0  0  0  0
  138.7963   69.5117  222.4063 H   0  0  0  0  0  0  0  0  0  0  0  0
  138.8381   68.1320  224.5117 H   0  0  0  0  0  0  0  0  0  0  0  0
  139.4317   67.9184  226.8318 H   0  0  0  0  0  0  0  0  0  0  0  0
  141.3924   71.1622  228.8764 H   0  0  0  0  0  0  0  0  0  0  0  0
  141.3469   72.5348  226.7664 H   0  0  0  0  0  0  0  0  0  0  0  0
  1  2  2  0
  2  3  1  0
  3  4  1  0
  4  5  1  0
  5  6  2  0
  5  7  1  0
  7  8  1  0
  8  9  1  0
  9 10  1  0
  9 11  1  0
 11 12  1  0
 12 13  1  0
 13 14  2  0
 13 15  1  0
 15 16  1  0
 16 17  1  0
 17 18  1  0
 18 19  1  0
  2 20  1  0
 20 21  2  0
 21 22  1  0
 22 23  2  0
 23 24  1  0
 24 25  2  0
 25 26  1  0
 25 27  1  0
 27 28  2  0
 28 29  1  0
 29 30  2  0
 12  7  1  0
 19 16  1  0
 30 20  1  0
 29 23  1  0
  3 31  1  0
  4 32  1  0
  4 33  1  0
  8 34  1  0
  8 35  1  0
  9 36  1  6
 10 37  1  0
 11 38  1  0
 11 39  1  0
 12 40  1  6
 15 41  1  0
 16 42  1  0
 17 43  1  0
 17 44  1  0
 18 45  1  0
 18 46  1  0
 19 47  1  0
 19 48  1  0
 21 49  1  0
 22 50  1  0
 24 51  1  0
 27 52  1  0
 28 53  1  0
M  END
>  <smiles>  (15) 
O=C(NCC(=O)N1C[C@H](O)C[C@@H]1C(=O)NC1CCC1)c1ccc2cc(F)ccc2n1

>  <score_type>  (15) 
oracle

>  <origin>  (15) 
autodockgpu

>  <m_score__min__energy>  (15) 
-9.3800000000000008

>  <m_primary>  (15) 
energy

>  <meeko>  (15) 
{"free_energy": -8.62, "intermolecular_energy": -10.7, "internal_energy": -2.6, "cluster_size": 15, "cluster_id": 1, "rank_in_cluster": 10}

>  <energy>  (15) 
-7.07

>  <cluster_rmsd>  (15) 
1.82

>  <rmsd>  (15) 
271.06

>  <cluster>  (15) 
1

$$$$

     RDKit          3D

 53 56  0  0  0  0  0  0  0  0999 V2000
  141.0490   72.0950  221.2300 O   0  0  0  0  0  0  0  0  0  0  0  0
  140.2500   72.4060  222.1640 C   0  0  0  0  0  0  0  0  0  0  0  0
  139.4840   73.6000  222.0840 N   0  0  0  0  0  0  0  0  0  0  0  0
  139.6490   74.4280  220.9190 C   0  0  0  0  0  0  0  0  0  0  0  0
  140.8290   75.3030  221.1460 C   0  0  0  0  0  0  0  0  0  0  0  0
  141.2420   75.3730  222.3430 O   0  0  0  0  0  0  0  0  0  0  0  0
  141.4680   76.0230  220.0820 N   0  0  0  0  0  0  0  0  0  0  0  0
  142.5040   75.3780  219.2480 C   0  0  0  0  0  0  0  0  0  0  0  0
  142.6740   76.3430  218.0870 C   0  0  2  0  0  0  0  0  0  0  0  0
  143.9360   76.2610  217.5130 O   0  0  0  0  0  0  0  0  0  0  0  0
  142.4160   77.6710  218.7580 C   0  0  0  0  0  0  0  0  0  0  0  0
  141.2440   77.3630  219.6580 C   0  0  2  0  0  0  0  0  0  0  0  0
  141.1440   78.3410  220.7690 C   0  0  0  0  0  0  0  0  0  0  0  0
  140.5890   79.4600  220.6810 O   0  0  0  0  0  0  0  0  0  0  0  0
  141.7170   77.9770  222.0130 N   0  0  0  0  0  0  0  0  0  0  0  0
  141.6700   78.8740  223.1710 C   0  0  0  0  0  0  0  0  0  0  0  0
  140.2250   79.3050  223.3820 C   0  0  0  0  0  0  0  0  0  0  0  0
  140.6970   80.7380  223.4650 C   0  0  0  0  0  0  0  0  0  0  0  0
  142.0160   80.2970  222.8760 C   0  0  0  0  0  0  0  0  0  0  0  0
  140.0770   71.5690  223.3500 C   0  0  0  0  0  0  0  0  0  0  0  0
  139.3200   70.4050  223.2240 C   0  0  0  0  0  0  0  0  0  0  0  0
  139.1570   69.6070  224.3590 C   0  0  0  0  0  0  0  0  0  0  0  0
  139.7410   69.9880  225.5570 C   0  0  0  0  0  0  0  0  0  0  0  0
  139.5850   69.2120  226.6710 C   0  0  0  0  0  0  0  0  0  0  0  0
  140.1820   69.6250  227.8440 C   0  0  0  0  0  0  0  0  0  0  0  0
  140.0380   68.8690  228.9570 F   0  0  0  0  0  0  0  0  0  0  0  0
  140.9220   70.7730  227.9470 C   0  0  0  0  0  0  0  0  0  0  0  0
  141.0860   71.5680  226.8190 C   0  0  0  0  0  0  0  0  0  0  0  0
  140.4830   71.1490  225.6370 C   0  0  0  0  0  0  0  0  0  0  0  0
  140.6270   71.8940  224.5470 N   0  0  0  0  0  0  0  0  0  0  0  0
  138.8310   73.8420  222.8620 H   0  0  0  0  0  0  0  0  0  0  0  0
  139.8155   73.7980  220.0328 H   0  0  0  0  0  0  0  0  0  0  0  0
  138.7478   75.0353  220.7488 H   0  0  0  0  0  0  0  0  0  0  0  0
  143.4448   75.2650  219.8067 H   0  0  0  0  0  0  0  0  0  0  0  0
  142.2253   74.3639  218.9257 H   0  0  0  0  0  0  0  0  0  0  0  0
  142.0048   76.1450  217.2368 H   0  0  0  0  0  0  0  0  0  0  0  0
  144.4520   75.6490  218.1110 H   0  0  0  0  0  0  0  0  0  0  0  0
  143.2896   77.9975  219.3413 H   0  0  0  0  0  0  0  0  0  0  0  0
  142.2200   78.4887  218.0488 H   0  0  0  0  0  0  0  0  0  0  0  0
  140.2712   77.4508  219.1521 H   0  0  0  0  0  0  0  0  0  0  0  0
  142.1860   77.0550  222.1210 H   0  0  0  0  0  0  0  0  0  0  0  0
  142.2699   78.3282  223.9142 H   0  0  0  0  0  0  0  0  0  0  0  0
  139.5601   79.0949  222.5312 H   0  0  0  0  0  0  0  0  0  0  0  0
  139.6123   78.8626  224.1813 H   0  0  0  0  0  0  0  0  0  0  0  0
  140.1304   81.4406  222.8362 H   0  0  0  0  0  0  0  0  0  0  0  0
  140.6544   81.2979  224.4109 H   0  0  0  0  0  0  0  0  0  0  0  0
  142.1265   80.5197  221.8045 H   0  0  0  0  0  0  0  0  0  0  0  0
  142.9606   80.7278  223.2396 H   0  0  0  0  0  0  0  0  0  0  0  0
  138.8659   70.1241  222.2623 H   0  0  0  0  0  0  0  0  0  0  0  0
  138.5676   68.6800  224.3022 H   0  0  0  0  0  0  0  0  0  0  0  0
  138.9986   68.2821  226.6333 H   0  0  0  0  0  0  0  0  0  0  0  0
  141.3784   71.0606  228.9056 H   0  0  0  0  0  0  0  0  0  0  0  0
  141.6729   72.4975  226.8592 H   0  0  0  0  0  0  0  0  0  0  0  0
  1  2  2  0
  2  3  1  0
  3  4  1  0
  4  5  1  0
  5  6  2  0
  5  7  1  0
  7  8  1  0
  8  9  1  0
  9 10  1  0
  9 11  1  0
 11 12  1  0
 12 13  1  0
 13 14  2  0
 13 15  1  0
 15 16  1  0
 16 17  1  0
 17 18  1  0
 18 19  1  0
  2 20  1  0
 20 21  2  0
 21 22  1  0
 22 23  2  0
 23 24  1  0
 24 25  2  0
 25 26  1  0
 25 27  1  0
 27 28  2  0
 28 29  1  0
 29 30  2  0
 12  7  1  0
 19 16  1  0
 30 20  1  0
 29 23  1  0
  3 31  1  0
  4 32  1  0
  4 33  1  0
  8 34  1  0
  8 35  1  0
  9 36  1  6
 10 37  1  0
 11 38  1  0
 11 39  1  0
 12 40  1  6
 15 41  1  0
 16 42  1  0
 17 43  1  0
 17 44  1  0
 18 45  1  0
 18 46  1  0
 19 47  1  0
 19 48  1  0
 21 49  1  0
 22 50  1  0
 24 51  1  0
 27 52  1  0
 28 53  1  0
M  END
>  <smiles>  (16) 
O=C(NCC(=O)N1C[C@H](O)C[C@@H]1C(=O)NC1CCC1)c1ccc2cc(F)ccc2n1

>  <score_type>  (16) 
oracle

>  <origin>  (16) 
autodockgpu

>  <m_score__min__energy>  (16) 
-9.3800000000000008

>  <m_primary>  (16) 
energy

>  <meeko>  (16) 
{"free_energy": -8.74, "intermolecular_energy": -10.83, "internal_energy": -1.99, "cluster_size": 15, "cluster_id": 1, "rank_in_cluster": 8}

>  <energy>  (16) 
-7.98

>  <cluster_rmsd>  (16) 
0.0

>  <rmsd>  (16) 
271.14

>  <cluster>  (16) 
2

$$$$

     RDKit          3D

 53 56  0  0  0  0  0  0  0  0999 V2000
  139.8770   71.3810  220.9510 O   0  0  0  0  0  0  0  0  0  0  0  0
  139.8140   71.9380  222.0880 C   0  0  0  0  0  0  0  0  0  0  0  0
  139.7520   73.3540  222.1910 N   0  0  0  0  0  0  0  0  0  0  0  0
  139.7640   74.1180  220.9710 C   0  0  0  0  0  0  0  0  0  0  0  0
  140.7020   75.2550  221.1560 C   0  0  0  0  0  0  0  0  0  0  0  0
  140.8670   75.6470  222.3510 O   0  0  0  0  0  0  0  0  0  0  0  0
  141.3850   75.8750  220.0560 N   0  0  0  0  0  0  0  0  0  0  0  0
  142.5440   75.2160  219.4180 C   0  0  0  0  0  0  0  0  0  0  0  0
  142.7520   76.0200  218.1470 C   0  0  2  0  0  0  0  0  0  0  0  0
  144.0670   75.9730  217.7020 O   0  0  0  0  0  0  0  0  0  0  0  0
  142.3270   77.4010  218.5890 C   0  0  0  0  0  0  0  0  0  0  0  0
  141.1010   77.1160  219.4210 C   0  0  2  0  0  0  0  0  0  0  0  0
  140.8170   78.2270  220.3630 C   0  0  0  0  0  0  0  0  0  0  0  0
  140.0720   79.2010  220.1070 O   0  0  0  0  0  0  0  0  0  0  0  0
  141.4330   78.1750  221.6380 N   0  0  0  0  0  0  0  0  0  0  0  0
  141.2150   79.2250  222.6380 C   0  0  0  0  0  0  0  0  0  0  0  0
  142.2150   80.3440  222.3800 C   0  0  0  0  0  0  0  0  0  0  0  0
  142.5760   80.3170  223.8470 C   0  0  0  0  0  0  0  0  0  0  0  0
  141.8760   78.9830  223.9550 C   0  0  0  0  0  0  0  0  0  0  0  0
  139.8030   71.1680  223.3310 C   0  0  0  0  0  0  0  0  0  0  0  0
  139.2280   69.8980  223.3070 C   0  0  0  0  0  0  0  0  0  0  0  0
  139.2180   69.1640  224.4960 C   0  0  0  0  0  0  0  0  0  0  0  0
  139.7700   69.7100  225.6450 C   0  0  0  0  0  0  0  0  0  0  0  0
  139.7630   68.9970  226.8120 C   0  0  0  0  0  0  0  0  0  0  0  0
  140.3220   69.5740  227.9330 C   0  0  0  0  0  0  0  0  0  0  0  0
  140.3250   68.8840  229.0960 F   0  0  0  0  0  0  0  0  0  0  0  0
  140.8810   70.8240  227.9350 C   0  0  0  0  0  0  0  0  0  0  0  0
  140.8930   71.5560  226.7540 C   0  0  0  0  0  0  0  0  0  0  0  0
  140.3290   70.9720  225.6240 C   0  0  0  0  0  0  0  0  0  0  0  0
  140.3280   71.6530  224.4840 N   0  0  0  0  0  0  0  0  0  0  0  0
  139.7020   73.7970  223.1350 H   0  0  0  0  0  0  0  0  0  0  0  0
  140.1024   73.4857  220.1369 H   0  0  0  0  0  0  0  0  0  0  0  0
  138.7541   74.4871  220.7390 H   0  0  0  0  0  0  0  0  0  0  0  0
  143.4316   75.2676  220.0658 H   0  0  0  0  0  0  0  0  0  0  0  0
  142.3768   74.1459  219.2260 H   0  0  0  0  0  0  0  0  0  0  0  0
  142.1866   75.6449  217.2812 H   0  0  0  0  0  0  0  0  0  0  0  0
  144.5240   75.3310  218.3150 H   0  0  0  0  0  0  0  0  0  0  0  0
  143.1112   77.8848  219.1898 H   0  0  0  0  0  0  0  0  0  0  0  0
  142.1383   78.0899  217.7525 H   0  0  0  0  0  0  0  0  0  0  0  0
  140.1788   77.0427  218.8259 H   0  0  0  0  0  0  0  0  0  0  0  0
  142.0580   77.3810  221.8840 H   0  0  0  0  0  0  0  0  0  0  0  0
  140.1225   79.3504  222.6113 H   0  0  0  0  0  0  0  0  0  0  0  0
  143.0389   80.0695  221.7049 H   0  0  0  0  0  0  0  0  0  0  0  0
  141.9061   81.2786  221.8890 H   0  0  0  0  0  0  0  0  0  0  0  0
  143.6567   80.2811  224.0488 H   0  0  0  0  0  0  0  0  0  0  0  0
  142.3153   81.1526  224.5132 H   0  0  0  0  0  0  0  0  0  0  0  0
  142.5559   78.1183  223.9644 H   0  0  0  0  0  0  0  0  0  0  0  0
  141.2752   78.7393  224.8436 H   0  0  0  0  0  0  0  0  0  0  0  0
  138.7964   69.4873  222.3823 H   0  0  0  0  0  0  0  0  0  0  0  0
  138.7743   68.1577  224.5205 H   0  0  0  0  0  0  0  0  0  0  0  0
  139.3231   67.9897  226.8554 H   0  0  0  0  0  0  0  0  0  0  0  0
  141.3133   71.2417  228.8562 H   0  0  0  0  0  0  0  0  0  0  0  0
  141.3335   72.5631  226.7138 H   0  0  0  0  0  0  0  0  0  0  0  0
  1  2  2  0
  2  3  1  0
  3  4  1  0
  4  5  1  0
  5  6  2  0
  5  7  1  0
  7  8  1  0
  8  9  1  0
  9 10  1  0
  9 11  1  0
 11 12  1  0
 12 13  1  0
 13 14  2  0
 13 15  1  0
 15 16  1  0
 16 17  1  0
 17 18  1  0
 18 19  1  0
  2 20  1  0
 20 21  2  0
 21 22  1  0
 22 23  2  0
 23 24  1  0
 24 25  2  0
 25 26  1  0
 25 27  1  0
 27 28  2  0
 28 29  1  0
 29 30  2  0
 12  7  1  0
 19 16  1  0
 30 20  1  0
 29 23  1  0
  3 31  1  0
  4 32  1  0
  4 33  1  0
  8 34  1  0
  8 35  1  0
  9 36  1  6
 10 37  1  0
 11 38  1  0
 11 39  1  0
 12 40  1  6
 15 41  1  0
 16 42  1  0
 17 43  1  0
 17 44  1  0
 18 45  1  0
 18 46  1  0
 19 47  1  0
 19 48  1  0
 21 49  1  0
 22 50  1  0
 24 51  1  0
 27 52  1  0
 28 53  1  0
M  END
>  <smiles>  (17) 
O=C(NCC(=O)N1C[C@H](O)C[C@@H]1C(=O)NC1CCC1)c1ccc2cc(F)ccc2n1

>  <score_type>  (17) 
oracle

>  <origin>  (17) 
autodockgpu

>  <m_score__min__energy>  (17) 
-9.3800000000000008

>  <m_primary>  (17) 
energy

>  <meeko>  (17) 
{"free_energy": -8.64, "intermolecular_energy": -10.72, "internal_energy": -2.7, "cluster_size": 15, "cluster_id": 1, "rank_in_cluster": 9}

>  <energy>  (17) 
-7.88

>  <cluster_rmsd>  (17) 
0.38

>  <rmsd>  (17) 
271.14

>  <cluster>  (17) 
2

$$$$

     RDKit          3D

 53 56  0  0  0  0  0  0  0  0999 V2000
  140.1130   71.5850  220.9310 O   0  0  0  0  0  0  0  0  0  0  0  0
  139.9240   72.1250  222.0620 C   0  0  0  0  0  0  0  0  0  0  0  0
  139.7590   73.5320  222.1660 N   0  0  0  0  0  0  0  0  0  0  0  0
  139.8160   74.3070  220.9560 C   0  0  0  0  0  0  0  0  0  0  0  0
  140.7710   75.4250  221.1750 C   0  0  0  0  0  0  0  0  0  0  0  0
  140.9940   75.7300  222.3860 O   0  0  0  0  0  0  0  0  0  0  0  0
  141.4060   76.1170  220.0900 N   0  0  0  0  0  0  0  0  0  0  0  0
  142.4220   75.4440  219.2550 C   0  0  0  0  0  0  0  0  0  0  0  0
  142.5900   76.3840  218.0750 C   0  0  2  0  0  0  0  0  0  0  0  0
  143.8440   76.2750  217.4870 O   0  0  0  0  0  0  0  0  0  0  0  0
  142.3580   77.7280  218.7250 C   0  0  0  0  0  0  0  0  0  0  0  0
  141.1950   77.4520  219.6450 C   0  0  2  0  0  0  0  0  0  0  0  0
  141.1210   78.4510  220.7390 C   0  0  0  0  0  0  0  0  0  0  0  0
  140.5660   79.5690  220.6430 O   0  0  0  0  0  0  0  0  0  0  0  0
  141.7240   78.1100  221.9760 N   0  0  0  0  0  0  0  0  0  0  0  0
  141.7060   79.0290  223.1170 C   0  0  0  0  0  0  0  0  0  0  0  0
  140.2610   79.4310  223.3820 C   0  0  0  0  0  0  0  0  0  0  0  0
  140.7030   80.8750  223.4180 C   0  0  0  0  0  0  0  0  0  0  0  0
  142.0050   80.4530  222.7810 C   0  0  0  0  0  0  0  0  0  0  0  0
  139.8660   71.3430  223.2970 C   0  0  0  0  0  0  0  0  0  0  0  0
  139.2870   70.0760  223.2400 C   0  0  0  0  0  0  0  0  0  0  0  0
  139.2320   69.3310  224.4210 C   0  0  0  0  0  0  0  0  0  0  0  0
  139.7470   69.8630  225.5940 C   0  0  0  0  0  0  0  0  0  0  0  0
  139.6960   69.1390  226.7520 C   0  0  0  0  0  0  0  0  0  0  0  0
  140.2190   69.7030  227.8970 C   0  0  0  0  0  0  0  0  0  0  0  0
  140.1780   69.0010  229.0530 F   0  0  0  0  0  0  0  0  0  0  0  0
  140.7830   70.9500  227.9320 C   0  0  0  0  0  0  0  0  0  0  0  0
  140.8390   71.6930  226.7580 C   0  0  0  0  0  0  0  0  0  0  0  0
  140.3120   71.1220  225.6040 C   0  0  0  0  0  0  0  0  0  0  0  0
  140.3530   71.8140  224.4710 N   0  0  0  0  0  0  0  0  0  0  0  0
  139.6040   73.9610  223.1060 H   0  0  0  0  0  0  0  0  0  0  0  0
  140.1629   73.6764  220.1241 H   0  0  0  0  0  0  0  0  0  0  0  0
  138.8192   74.6979  220.7036 H   0  0  0  0  0  0  0  0  0  0  0  0
  143.3684   75.3288  219.8037 H   0  0  0  0  0  0  0  0  0  0  0  0
  142.1254   74.4282  218.9548 H   0  0  0  0  0  0  0  0  0  0  0  0
  141.9078   76.1790  217.2368 H   0  0  0  0  0  0  0  0  0  0  0  0
  144.4660   76.0760  218.2420 H   0  0  0  0  0  0  0  0  0  0  0  0
  143.2434   78.0536  219.2908 H   0  0  0  0  0  0  0  0  0  0  0  0
  142.1632   78.5352  218.0035 H   0  0  0  0  0  0  0  0  0  0  0  0
  140.2171   77.5439  219.1498 H   0  0  0  0  0  0  0  0  0  0  0  0
  142.1950   77.1900  222.0900 H   0  0  0  0  0  0  0  0  0  0  0  0
  142.3505   78.5123  223.8434 H   0  0  0  0  0  0  0  0  0  0  0  0
  139.5656   79.1895  222.5646 H   0  0  0  0  0  0  0  0  0  0  0  0
  139.6931   78.9905  224.2148 H   0  0  0  0  0  0  0  0  0  0  0  0
  140.0938   81.5524  222.8015 H   0  0  0  0  0  0  0  0  0  0  0  0
  140.6881   81.4518  224.3546 H   0  0  0  0  0  0  0  0  0  0  0  0
  142.0641   80.6571  221.7017 H   0  0  0  0  0  0  0  0  0  0  0  0
  142.9538   80.9123  223.0953 H   0  0  0  0  0  0  0  0  0  0  0  0
  138.8868   69.6760  222.2967 H   0  0  0  0  0  0  0  0  0  0  0  0
  138.7823   68.3271  224.4205 H   0  0  0  0  0  0  0  0  0  0  0  0
  139.2499   68.1337  226.7705 H   0  0  0  0  0  0  0  0  0  0  0  0
  141.1846   71.3568  228.8718 H   0  0  0  0  0  0  0  0  0  0  0  0
  141.2850   72.6984  226.7422 H   0  0  0  0  0  0  0  0  0  0  0  0
  1  2  2  0
  2  3  1  0
  3  4  1  0
  4  5  1  0
  5  6  2  0
  5  7  1  0
  7  8  1  0
  8  9  1  0
  9 10  1  0
  9 11  1  0
 11 12  1  0
 12 13  1  0
 13 14  2  0
 13 15  1  0
 15 16  1  0
 16 17  1  0
 17 18  1  0
 18 19  1  0
  2 20  1  0
 20 21  2  0
 21 22  1  0
 22 23  2  0
 23 24  1  0
 24 25  2  0
 25 26  1  0
 25 27  1  0
 27 28  2  0
 28 29  1  0
 29 30  2  0
 12  7  1  0
 19 16  1  0
 30 20  1  0
 29 23  1  0
  3 31  1  0
  4 32  1  0
  4 33  1  0
  8 34  1  0
  8 35  1  0
  9 36  1  6
 10 37  1  0
 11 38  1  0
 11 39  1  0
 12 40  1  6
 15 41  1  0
 16 42  1  0
 17 43  1  0
 17 44  1  0
 18 45  1  0
 18 46  1  0
 19 47  1  0
 19 48  1  0
 21 49  1  0
 22 50  1  0
 24 51  1  0
 27 52  1  0
 28 53  1  0
M  END
>  <smiles>  (18) 
O=C(NCC(=O)N1C[C@H](O)C[C@@H]1C(=O)NC1CCC1)c1ccc2cc(F)ccc2n1

>  <score_type>  (18) 
oracle

>  <origin>  (18) 
autodockgpu

>  <m_score__min__energy>  (18) 
-9.3800000000000008

>  <m_primary>  (18) 
energy

>  <meeko>  (18) 
{"free_energy": -8.59, "intermolecular_energy": -10.68, "internal_energy": -2.31, "cluster_size": 15, "cluster_id": 1, "rank_in_cluster": 12}

>  <energy>  (18) 
-6.99

>  <cluster_rmsd>  (18) 
0.0

>  <rmsd>  (18) 
270.97

>  <cluster>  (18) 
3

$$$$

     RDKit          3D

 53 56  0  0  0  0  0  0  0  0999 V2000
  138.0680   70.9540  221.7810 O   0  0  0  0  0  0  0  0  0  0  0  0
  138.8020   71.3730  222.7260 C   0  0  0  0  0  0  0  0  0  0  0  0
  139.3180   72.6960  222.7010 N   0  0  0  0  0  0  0  0  0  0  0  0
  138.9800   73.5290  221.5780 C   0  0  0  0  0  0  0  0  0  0  0  0
  140.0490   74.5510  221.4300 C   0  0  0  0  0  0  0  0  0  0  0  0
  141.0740   74.3850  222.1580 O   0  0  0  0  0  0  0  0  0  0  0  0
  139.9350   75.6560  220.5220 N   0  0  0  0  0  0  0  0  0  0  0  0
  138.6100   76.1310  220.0700 C   0  0  0  0  0  0  0  0  0  0  0  0
  138.9190   77.4610  219.4080 C   0  0  2  0  0  0  0  0  0  0  0  0
  137.9810   77.7990  218.4400 O   0  0  0  0  0  0  0  0  0  0  0  0
  140.2920   77.2020  218.8340 C   0  0  0  0  0  0  0  0  0  0  0  0
  140.9730   76.4390  219.9430 C   0  0  2  0  0  0  0  0  0  0  0  0
  142.1170   75.6460  219.4320 C   0  0  0  0  0  0  0  0  0  0  0  0
  142.3300   75.4070  218.2210 O   0  0  0  0  0  0  0  0  0  0  0  0
  143.0290   75.1240  220.3840 N   0  0  0  0  0  0  0  0  0  0  0  0
  144.1900   74.3280  219.9780 C   0  0  0  0  0  0  0  0  0  0  0  0
  144.0340   72.9290  220.5580 C   0  0  0  0  0  0  0  0  0  0  0  0
  145.4500   73.0210  221.0780 C   0  0  0  0  0  0  0  0  0  0  0  0
  145.4030   74.5100  220.8300 C   0  0  0  0  0  0  0  0  0  0  0  0
  139.1510   70.5320  223.8700 C   0  0  0  0  0  0  0  0  0  0  0  0
  138.8260   69.1770  223.8070 C   0  0  0  0  0  0  0  0  0  0  0  0
  139.1610   68.3750  224.9020 C   0  0  0  0  0  0  0  0  0  0  0  0
  139.7940   68.9390  225.9990 C   0  0  0  0  0  0  0  0  0  0  0  0
  140.1230   68.1600  227.0730 C   0  0  0  0  0  0  0  0  0  0  0  0
  140.7520   68.7580  228.1450 C   0  0  0  0  0  0  0  0  0  0  0  0
  141.0850   68.0030  229.2170 F   0  0  0  0  0  0  0  0  0  0  0  0
  141.0610   70.0910  228.1870 C   0  0  0  0  0  0  0  0  0  0  0  0
  140.7300   70.8910  227.1000 C   0  0  0  0  0  0  0  0  0  0  0  0
  140.0960   70.2850  226.0190 C   0  0  0  0  0  0  0  0  0  0  0  0
  139.7700   71.0300  224.9690 N   0  0  0  0  0  0  0  0  0  0  0  0
  139.9220   73.0250  223.4870 H   0  0  0  0  0  0  0  0  0  0  0  0
  138.9174   72.9185  220.6651 H   0  0  0  0  0  0  0  0  0  0  0  0
  138.0058   74.0137  221.7396 H   0  0  0  0  0  0  0  0  0  0  0  0
  138.1642   75.4279  219.3511 H   0  0  0  0  0  0  0  0  0  0  0  0
  137.8829   76.2190  220.8907 H   0  0  0  0  0  0  0  0  0  0  0  0
  138.8866   78.3214  220.0926 H   0  0  0  0  0  0  0  0  0  0  0  0
  138.4940   77.8290  217.5830 H   0  0  0  0  0  0  0  0  0  0  0  0
  140.2315   76.5990  217.9160 H   0  0  0  0  0  0  0  0  0  0  0  0
  140.8247   78.1192  218.5424 H   0  0  0  0  0  0  0  0  0  0  0  0
  141.4334   77.0907  220.7002 H   0  0  0  0  0  0  0  0  0  0  0  0
  142.8810   75.3030  221.3980 H   0  0  0  0  0  0  0  0  0  0  0  0
  144.2624   74.5500  218.9031 H   0  0  0  0  0  0  0  0  0  0  0  0
  143.2671   72.8459  221.3422 H   0  0  0  0  0  0  0  0  0  0  0  0
  143.7148   72.0859  219.9276 H   0  0  0  0  0  0  0  0  0  0  0  0
  145.5655   72.7394  222.1351 H   0  0  0  0  0  0  0  0  0  0  0  0
  146.2531   72.3984  220.6568 H   0  0  0  0  0  0  0  0  0  0  0  0
  145.2304   75.1110  221.7350 H   0  0  0  0  0  0  0  0  0  0  0  0
  146.2850   75.0379  220.4384 H   0  0  0  0  0  0  0  0  0  0  0  0
  138.3229   68.7536  222.9252 H   0  0  0  0  0  0  0  0  0  0  0  0
  138.9234   67.3010  224.8932 H   0  0  0  0  0  0  0  0  0  0  0  0
  139.8922   67.0845  227.0821 H   0  0  0  0  0  0  0  0  0  0  0  0
  141.5627   70.5215  229.0662 H   0  0  0  0  0  0  0  0  0  0  0  0
  140.9611   71.9664  227.0940 H   0  0  0  0  0  0  0  0  0  0  0  0
  1  2  2  0
  2  3  1  0
  3  4  1  0
  4  5  1  0
  5  6  2  0
  5  7  1  0
  7  8  1  0
  8  9  1  0
  9 10  1  0
  9 11  1  0
 11 12  1  0
 12 13  1  0
 13 14  2  0
 13 15  1  0
 15 16  1  0
 16 17  1  0
 17 18  1  0
 18 19  1  0
  2 20  1  0
 20 21  2  0
 21 22  1  0
 22 23  2  0
 23 24  1  0
 24 25  2  0
 25 26  1  0
 25 27  1  0
 27 28  2  0
 28 29  1  0
 29 30  2  0
 12  7  1  0
 19 16  1  0
 30 20  1  0
 29 23  1  0
  3 31  1  0
  4 32  1  0
  4 33  1  0
  8 34  1  0
  8 35  1  0
  9 36  1  1
 10 37  1  0
 11 38  1  0
 11 39  1  0
 12 40  1  1
 15 41  1  0
 16 42  1  0
 17 43  1  0
 17 44  1  0
 18 45  1  0
 18 46  1  0
 19 47  1  0
 19 48  1  0
 21 49  1  0
 22 50  1  0
 24 51  1  0
 27 52  1  0
 28 53  1  0
M  END
>  <smiles>  (19) 
O=C(NCC(=O)N1C[C@H](O)C[C@@H]1C(=O)NC1CCC1)c1ccc2cc(F)ccc2n1

>  <score_type>  (19) 
oracle

>  <origin>  (19) 
autodockgpu

>  <m_score__min__energy>  (19) 
-9.3800000000000008

>  <m_primary>  (19) 
energy

>  <meeko>  (19) 
{"free_energy": -6.99, "intermolecular_energy": -9.08, "internal_energy": -2.91, "cluster_size": 1, "cluster_id": 3, "rank_in_cluster": 1}

>  <energy>  (19) 
-6.22

>  <cluster_rmsd>  (19) 
0.0

>  <rmsd>  (19) 
270.49

>  <cluster>  (19) 
4

$$$$

     RDKit          3D

 53 56  0  0  0  0  0  0  0  0999 V2000
  139.5580   71.1940  221.1020 O   0  0  0  0  0  0  0  0  0  0  0  0
  139.5940   71.7040  222.2620 C   0  0  0  0  0  0  0  0  0  0  0  0
  139.5420   73.1130  222.4280 N   0  0  0  0  0  0  0  0  0  0  0  0
  139.4490   73.9270  221.2450 C   0  0  0  0  0  0  0  0  0  0  0  0
  140.3630   75.0860  221.4170 C   0  0  0  0  0  0  0  0  0  0  0  0
  140.0800   75.8760  222.3680 O   0  0  0  0  0  0  0  0  0  0  0  0
  141.4980   75.3030  220.5650 N   0  0  0  0  0  0  0  0  0  0  0  0
  142.5990   74.3190  220.5100 C   0  0  0  0  0  0  0  0  0  0  0  0
  143.4030   74.7570  219.2980 C   0  0  2  0  0  0  0  0  0  0  0  0
  144.7360   74.3750  219.3820 O   0  0  0  0  0  0  0  0  0  0  0  0
  143.2140   76.2550  219.3350 C   0  0  0  0  0  0  0  0  0  0  0  0
  141.7540   76.3940  219.6890 C   0  0  2  0  0  0  0  0  0  0  0  0
  141.4640   77.7240  220.2770 C   0  0  0  0  0  0  0  0  0  0  0  0
  141.1110   78.7300  219.6190 O   0  0  0  0  0  0  0  0  0  0  0  0
  141.5980   77.8610  221.6820 N   0  0  0  0  0  0  0  0  0  0  0  0
  141.3350   79.1340  222.3570 C   0  0  0  0  0  0  0  0  0  0  0  0
  142.6000   79.9780  222.2940 C   0  0  0  0  0  0  0  0  0  0  0  0
  142.4680   80.2310  223.7780 C   0  0  0  0  0  0  0  0  0  0  0  0
  141.4740   79.0960  223.8430 C   0  0  0  0  0  0  0  0  0  0  0  0
  139.6900   70.8830  223.4690 C   0  0  0  0  0  0  0  0  0  0  0  0
  139.2080   69.5760  223.4090 C   0  0  0  0  0  0  0  0  0  0  0  0
  139.3010   68.7940  224.5630 C   0  0  0  0  0  0  0  0  0  0  0  0
  139.8590   69.3290  225.7140 C   0  0  0  0  0  0  0  0  0  0  0  0
  139.9510   68.5690  226.8460 C   0  0  0  0  0  0  0  0  0  0  0  0
  140.5120   69.1380  227.9700 C   0  0  0  0  0  0  0  0  0  0  0  0
  140.6120   68.4010  229.1000 F   0  0  0  0  0  0  0  0  0  0  0  0
  140.9790   70.4250  228.0080 C   0  0  0  0  0  0  0  0  0  0  0  0
  140.8890   71.2050  226.8610 C   0  0  0  0  0  0  0  0  0  0  0  0
  140.3230   70.6290  225.7280 C   0  0  0  0  0  0  0  0  0  0  0  0
  140.2260   71.3560  224.6210 N   0  0  0  0  0  0  0  0  0  0  0  0
  139.5730   73.5170  223.3910 H   0  0  0  0  0  0  0  0  0  0  0  0
  139.7493   73.3415  220.3635 H   0  0  0  0  0  0  0  0  0  0  0  0
  138.4151   74.2722  221.0969 H   0  0  0  0  0  0  0  0  0  0  0  0
  143.2101   74.3607  221.4237 H   0  0  0  0  0  0  0  0  0  0  0  0
  142.2434   73.2806  220.4368 H   0  0  0  0  0  0  0  0  0  0  0  0
  143.0764   74.2984  218.3530 H   0  0  0  0  0  0  0  0  0  0  0  0
  145.1900   74.8590  218.6360 H   0  0  0  0  0  0  0  0  0  0  0  0
  143.8540   76.7172  220.1010 H   0  0  0  0  0  0  0  0  0  0  0  0
  143.4850   76.7535  218.3927 H   0  0  0  0  0  0  0  0  0  0  0  0
  141.0882   76.3515  218.8144 H   0  0  0  0  0  0  0  0  0  0  0  0
  141.8900   77.0460  222.2590 H   0  0  0  0  0  0  0  0  0  0  0  0
  140.3682   79.4319  221.9251 H   0  0  0  0  0  0  0  0  0  0  0  0
  143.5037   79.4201  222.0076 H   0  0  0  0  0  0  0  0  0  0  0  0
  142.6904   80.8120  221.5824 H   0  0  0  0  0  0  0  0  0  0  0  0
  143.3907   80.0611  224.3523 H   0  0  0  0  0  0  0  0  0  0  0  0
  142.2187   81.2297  224.1659 H   0  0  0  0  0  0  0  0  0  0  0  0
  141.8912   78.1552  224.2313 H   0  0  0  0  0  0  0  0  0  0  0  0
  140.5857   79.1696  224.4877 H   0  0  0  0  0  0  0  0  0  0  0  0
  138.7691   69.1740  222.4839 H   0  0  0  0  0  0  0  0  0  0  0  0
  138.9328   67.7575  224.5585 H   0  0  0  0  0  0  0  0  0  0  0  0
  139.5873   67.5310  226.8603 H   0  0  0  0  0  0  0  0  0  0  0  0
  141.4176   70.8342  228.9300 H   0  0  0  0  0  0  0  0  0  0  0  0
  141.2531   72.2429  226.8494 H   0  0  0  0  0  0  0  0  0  0  0  0
  1  2  2  0
  2  3  1  0
  3  4  1  0
  4  5  1  0
  5  6  2  0
  5  7  1  0
  7  8  1  0
  8  9  1  0
  9 10  1  0
  9 11  1  0
 11 12  1  0
 12 13  1  0
 13 14  2  0
 13 15  1  0
 15 16  1  0
 16 17  1  0
 17 18  1  0
 18 19  1  0
  2 20  1  0
 20 21  2  0
 21 22  1  0
 22 23  2  0
 23 24  1  0
 24 25  2  0
 25 26  1  0
 25 27  1  0
 27 28  2  0
 28 29  1  0
 29 30  2  0
 12  7  1  0
 19 16  1  0
 30 20  1  0
 29 23  1  0
  3 31  1  0
  4 32  1  0
  4 33  1  0
  8 34  1  0
  8 35  1  0
  9 36  1  6
 10 37  1  0
 11 38  1  0
 11 39  1  0
 12 40  1  6
 15 41  1  0
 16 42  1  0
 17 43  1  0
 17 44  1  0
 18 45  1  0
 18 46  1  0
 19 47  1  0
 19 48  1  0
 21 49  1  0
 22 50  1  0
 24 51  1  0
 27 52  1  0
 28 53  1  0
M  END
>  <smiles>  (20) 
O=C(NCC(=O)N1C[C@H](O)C[C@@H]1C(=O)NC1CCC1)c1ccc2cc(F)ccc2n1

>  <score_type>  (20) 
oracle

>  <origin>  (20) 
autodockgpu

>  <m_score__min__energy>  (20) 
-9.3800000000000008

>  <m_primary>  (20) 
energy

>  <meeko>  (20) 
{"free_energy": -9.03, "intermolecular_energy": -11.12, "internal_energy": -2.41, "cluster_size": 15, "cluster_id": 1, "rank_in_cluster": 5}

>  <energy>  (20) 
-6.16

>  <cluster_rmsd>  (20) 
0.0

>  <rmsd>  (20) 
271.36

>  <cluster>  (20) 
5

$$$$
