
     RDKit          3D

 55 58  0  0  0  0  0  0  0  0999 V2000
  140.6870   73.4000  222.4280 O   0  0  0  0  0  0  0  0  0  0  0  0
  140.1390   72.2510  222.3670 C   0  0  0  0  0  0  0  0  0  0  0  0
  139.5800   71.7910  221.1470 N   0  0  0  0  0  0  0  0  0  0  0  0
  139.5730   72.4970  219.9120 C   0  0  0  0  0  0  0  0  0  0  0  0
  140.7510   72.5420  219.0730 C   0  0  0  0  0  0  0  0  0  0  0  0
  140.7050   73.4790  218.1640 O   0  0  0  0  0  0  0  0  0  0  0  0
  141.9170   71.7310  219.0870 N   0  0  0  0  0  0  0  0  0  0  0  0
  142.2200   70.5160  218.3580 C   0  0  0  0  0  0  0  0  0  0  0  0
  143.6930   70.2950  218.4230 C   0  0  0  0  0  0  0  0  0  0  0  0
  144.2330   71.5040  219.0890 C   0  0  0  0  0  0  0  0  0  0  0  0
  143.0730   72.0480  219.9010 C   0  0  1  0  0  0  0  0  0  0  0  0
  143.2890   73.5220  220.0760 C   0  0  0  0  0  0  0  0  0  0  0  0
  143.8950   73.8750  221.1240 O   0  0  0  0  0  0  0  0  0  0  0  0
  142.8740   74.4970  219.1660 N   0  0  0  0  0  0  0  0  0  0  0  0
  143.0720   75.9250  219.3170 C   0  0  0  0  0  0  0  0  0  0  0  0
  142.1060   76.5380  220.2450 C   0  0  0  0  0  0  0  0  0  0  0  0
  141.1250   75.8740  220.9240 C   0  0  0  0  0  0  0  0  0  0  0  0
  140.2600   76.5170  221.7790 C   0  0  0  0  0  0  0  0  0  0  0  0
  140.3380   77.8730  221.9960 C   0  0  0  0  0  0  0  0  0  0  0  0
  139.2190   78.6510  223.0910 Cl  0  0  0  0  0  0  0  0  0  0  0  0
  141.3190   78.5650  221.3220 C   0  0  0  0  0  0  0  0  0  0  0  0
  141.4640   80.2930  221.5590 Cl  0  0  0  0  0  0  0  0  0  0  0  0
  142.1930   77.9120  220.4570 C   0  0  0  0  0  0  0  0  0  0  0  0
  140.0980   71.4130  223.5780 C   0  0  0  0  0  0  0  0  0  0  0  0
  139.5570   70.1500  223.5190 C   0  0  0  0  0  0  0  0  0  0  0  0
  139.4880   69.3140  224.6160 C   0  0  0  0  0  0  0  0  0  0  0  0
  139.9880   69.7760  225.8250 C   0  0  0  0  0  0  0  0  0  0  0  0
  139.9180   68.9450  226.9030 C   0  0  0  0  0  0  0  0  0  0  0  0
  140.4150   69.4020  228.1070 C   0  0  0  0  0  0  0  0  0  0  0  0
  140.3360   68.5580  229.1720 F   0  0  0  0  0  0  0  0  0  0  0  0
  140.9710   70.6720  228.2100 C   0  0  0  0  0  0  0  0  0  0  0  0
  141.0200   71.4860  227.0770 C   0  0  0  0  0  0  0  0  0  0  0  0
  140.5270   71.0430  225.8640 C   0  0  0  0  0  0  0  0  0  0  0  0
  140.5740   71.8330  224.7600 N   0  0  0  0  0  0  0  0  0  0  0  0
  139.1330   70.8220  221.2010 H   0  0  0  0  0  0  0  0  0  0  0  0
  138.7718   72.0535  219.3027 H   0  0  0  0  0  0  0  0  0  0  0  0
  139.4637   73.5437  220.2322 H   0  0  0  0  0  0  0  0  0  0  0  0
  141.6943   69.6651  218.8157 H   0  0  0  0  0  0  0  0  0  0  0  0
  141.8929   70.6065  217.3117 H   0  0  0  0  0  0  0  0  0  0  0  0
  143.9233   69.3943  219.0109 H   0  0  0  0  0  0  0  0  0  0  0  0
  144.1322   70.1412  217.4263 H   0  0  0  0  0  0  0  0  0  0  0  0
  145.0761   71.2415  219.7450 H   0  0  0  0  0  0  0  0  0  0  0  0
  144.6166   72.2401  218.3672 H   0  0  0  0  0  0  0  0  0  0  0  0
  142.9586   71.6301  220.9121 H   0  0  0  0  0  0  0  0  0  0  0  0
  142.3870   74.2020  218.2810 H   0  0  0  0  0  0  0  0  0  0  0  0
  144.0881   76.1008  219.7000 H   0  0  0  0  0  0  0  0  0  0  0  0
  142.9236   76.3872  218.3299 H   0  0  0  0  0  0  0  0  0  0  0  0
  141.0228   74.7879  220.7826 H   0  0  0  0  0  0  0  0  0  0  0  0
  139.4879   75.9330  222.3013 H   0  0  0  0  0  0  0  0  0  0  0  0
  142.9662   78.4916  219.9315 H   0  0  0  0  0  0  0  0  0  0  0  0
  139.1625   69.7904  222.5572 H   0  0  0  0  0  0  0  0  0  0  0  0
  139.0485   68.3090  224.5335 H   0  0  0  0  0  0  0  0  0  0  0  0
  139.4786   67.9403  226.8162 H   0  0  0  0  0  0  0  0  0  0  0  0
  141.3670   71.0307  229.1715 H   0  0  0  0  0  0  0  0  0  0  0  0
  141.4566   72.4930  227.1504 H   0  0  0  0  0  0  0  0  0  0  0  0
  1  2  2  0
  2  3  1  0
  3  4  1  0
  4  5  1  0
  5  6  2  0
  5  7  1  0
  7  8  1  0
  8  9  1  0
  9 10  1  0
 10 11  1  0
 11 12  1  0
 12 13  2  0
 12 14  1  0
 14 15  1  0
 15 16  1  0
 16 17  2  0
 17 18  1  0
 18 19  2  0
 19 20  1  0
 19 21  1  0
 21 22  1  0
 21 23  2  0
  2 24  1  0
 24 25  2  0
 25 26  1  0
 26 27  2  0
 27 28  1  0
 28 29  2  0
 29 30  1  0
 29 31  1  0
 31 32  2  0
 32 33  1  0
 33 34  2  0
 11  7  1  0
 23 16  1  0
 34 24  1  0
 33 27  1  0
  3 35  1  0
  4 36  1  0
  4 37  1  0
  8 38  1  0
  8 39  1  0
  9 40  1  0
  9 41  1  0
 10 42  1  0
 10 43  1  0
 11 44  1  1
 14 45  1  0
 15 46  1  0
 15 47  1  0
 17 48  1  0
 18 49  1  0
 23 50  1  0
 25 51  1  0
 26 52  1  0
 28 53  1  0
 31 54  1  0
 32 55  1  0
M  END
>  <smiles>  (1) 
O=C(NCC(=O)N1CCC[C@H]1C(=O)NCc1ccc(Cl)c(Cl)c1)c1ccc2cc(F)ccc2n1

>  <score_type>  (1) 
oracle

>  <origin>  (1) 
autodockgpu

>  <m_score__min__energy>  (1) 
-9.0099999999999998

>  <m_primary>  (1) 
energy

>  <meeko>  (1) 
{"free_energy": -7.57, "intermolecular_energy": -9.66, "internal_energy": -2.77, "cluster_size": 4, "cluster_id": 2, "rank_in_cluster": 4}

>  <energy>  (1) 
-9.01

>  <cluster_rmsd>  (1) 
0.0

>  <rmsd>  (1) 
270.9

>  <cluster>  (1) 
1

$$$$

     RDKit          3D

 55 58  0  0  0  0  0  0  0  0999 V2000
  141.0840   77.1580  217.6060 O   0  0  0  0  0  0  0  0  0  0  0  0
  142.1000   77.1790  218.3770 C   0  0  0  0  0  0  0  0  0  0  0  0
  142.4050   78.3440  219.1240 N   0  0  0  0  0  0  0  0  0  0  0  0
  141.6580   79.5550  219.1260 C   0  0  0  0  0  0  0  0  0  0  0  0
  141.2020   80.1470  220.3650 C   0  0  0  0  0  0  0  0  0  0  0  0
  140.1080   80.8480  220.2330 O   0  0  0  0  0  0  0  0  0  0  0  0
  141.7610   80.0880  221.6700 N   0  0  0  0  0  0  0  0  0  0  0  0
  142.2230   81.1510  222.5390 C   0  0  0  0  0  0  0  0  0  0  0  0
  142.3370   80.6000  223.9200 C   0  0  0  0  0  0  0  0  0  0  0  0
  141.7850   79.2280  223.8320 C   0  0  0  0  0  0  0  0  0  0  0  0
  141.9520   78.8370  222.3760 C   0  0  1  0  0  0  0  0  0  0  0  0
  140.9070   77.8100  222.0550 C   0  0  0  0  0  0  0  0  0  0  0  0
  139.7170   78.1220  222.3320 O   0  0  0  0  0  0  0  0  0  0  0  0
  141.1700   76.5660  221.4770 N   0  0  0  0  0  0  0  0  0  0  0  0
  140.1750   75.5590  221.1610 C   0  0  0  0  0  0  0  0  0  0  0  0
  140.7730   74.2730  220.7680 C   0  0  0  0  0  0  0  0  0  0  0  0
  141.4600   73.4300  221.5940 C   0  0  0  0  0  0  0  0  0  0  0  0
  141.9880   72.2380  221.1520 C   0  0  0  0  0  0  0  0  0  0  0  0
  141.8510   71.8310  219.8460 C   0  0  0  0  0  0  0  0  0  0  0  0
  142.5380   70.3100  219.3260 Cl  0  0  0  0  0  0  0  0  0  0  0  0
  141.1630   72.6640  218.9930 C   0  0  0  0  0  0  0  0  0  0  0  0
  140.9590   72.1970  217.3190 Cl  0  0  0  0  0  0  0  0  0  0  0  0
  140.6290   73.8700  219.4420 C   0  0  0  0  0  0  0  0  0  0  0  0
  142.9460   75.9760  218.4760 C   0  0  0  0  0  0  0  0  0  0  0  0
  143.1370   75.1810  217.3710 C   0  0  0  0  0  0  0  0  0  0  0  0
  143.9170   74.0420  217.3960 C   0  0  0  0  0  0  0  0  0  0  0  0
  144.5300   73.6920  218.5900 C   0  0  0  0  0  0  0  0  0  0  0  0
  145.2990   72.5670  218.6070 C   0  0  0  0  0  0  0  0  0  0  0  0
  145.9100   72.2170  219.7940 C   0  0  0  0  0  0  0  0  0  0  0  0
  146.6740   71.0900  219.7910 F   0  0  0  0  0  0  0  0  0  0  0  0
  145.7430   72.9940  220.9350 C   0  0  0  0  0  0  0  0  0  0  0  0
  144.9450   74.1380  220.8670 C   0  0  0  0  0  0  0  0  0  0  0  0
  144.3260   74.5020  219.6860 C   0  0  0  0  0  0  0  0  0  0  0  0
  143.5500   75.6140  219.6170 N   0  0  0  0  0  0  0  0  0  0  0  0
  143.2820   78.2660  219.7300 H   0  0  0  0  0  0  0  0  0  0  0  0
  142.2857   80.3105  218.6308 H   0  0  0  0  0  0  0  0  0  0  0  0
  140.7173   79.2599  218.6382 H   0  0  0  0  0  0  0  0  0  0  0  0
  143.2050   81.5113  222.1986 H   0  0  0  0  0  0  0  0  0  0  0  0
  141.5165   81.9939  222.5208 H   0  0  0  0  0  0  0  0  0  0  0  0
  143.3891   80.5737  224.2402 H   0  0  0  0  0  0  0  0  0  0  0  0
  141.7991   81.2154  224.6562 H   0  0  0  0  0  0  0  0  0  0  0  0
  142.3453   78.5421  224.4843 H   0  0  0  0  0  0  0  0  0  0  0  0
  140.7353   79.1806  224.1573 H   0  0  0  0  0  0  0  0  0  0  0  0
  142.9197   78.3871  222.1093 H   0  0  0  0  0  0  0  0  0  0  0  0
  142.1600   76.3130  221.2260 H   0  0  0  0  0  0  0  0  0  0  0  0
  139.5441   75.3974  222.0475 H   0  0  0  0  0  0  0  0  0  0  0  0
  139.5890   75.9278  220.3062 H   0  0  0  0  0  0  0  0  0  0  0  0
  141.5961   73.7130  222.6482 H   0  0  0  0  0  0  0  0  0  0  0  0
  142.5323   71.5961  221.8603 H   0  0  0  0  0  0  0  0  0  0  0  0
  140.0841   74.5154  218.7373 H   0  0  0  0  0  0  0  0  0  0  0  0
  142.6479   75.4641  216.4273 H   0  0  0  0  0  0  0  0  0  0  0  0
  144.0488   73.4282  216.4927 H   0  0  0  0  0  0  0  0  0  0  0  0
  145.4289   71.9560  217.7015 H   0  0  0  0  0  0  0  0  0  0  0  0
  146.2329   72.7114  221.8785 H   0  0  0  0  0  0  0  0  0  0  0  0
  144.8072   74.7577  221.7653 H   0  0  0  0  0  0  0  0  0  0  0  0
  1  2  2  0
  2  3  1  0
  3  4  1  0
  4  5  1  0
  5  6  2  0
  5  7  1  0
  7  8  1  0
  8  9  1  0
  9 10  1  0
 10 11  1  0
 11 12  1  0
 12 13  2  0
 12 14  1  0
 14 15  1  0
 15 16  1  0
 16 17  2  0
 17 18  1  0
 18 19  2  0
 19 20  1  0
 19 21  1  0
 21 22  1  0
 21 23  2  0
  2 24  1  0
 24 25  2  0
 25 26  1  0
 26 27  2  0
 27 28  1  0
 28 29  2  0
 29 30  1  0
 29 31  1  0
 31 32  2  0
 32 33  1  0
 33 34  2  0
 11  7  1  0
 23 16  1  0
 34 24  1  0
 33 27  1  0
  3 35  1  0
  4 36  1  0
  4 37  1  0
  8 38  1  0
  8 39  1  0
  9 40  1  0
  9 41  1  0
 10 42  1  0
 10 43  1  0
 11 44  1  1
 14 45  1  0
 15 46  1  0
 15 47  1  0
 17 48  1  0
 18 49  1  0
 23 50  1  0
 25 51  1  0
 26 52  1  0
 28 53  1  0
 31 54  1  0
 32 55  1  0
M  END
>  <smiles>  (2) 
O=C(NCC(=O)N1CCC[C@H]1C(=O)NCc1ccc(Cl)c(Cl)c1)c1ccc2cc(F)ccc2n1

>  <score_type>  (2) 
oracle

>  <origin>  (2) 
autodockgpu

>  <m_score__min__energy>  (2) 
-9.0099999999999998

>  <m_primary>  (2) 
energy

>  <meeko>  (2) 
{"free_energy": -6.87, "intermolecular_energy": -8.96, "internal_energy": -4.58, "cluster_size": 2, "cluster_id": 10, "rank_in_cluster": 1}

>  <energy>  (2) 
-8.92

>  <cluster_rmsd>  (2) 
0.0

>  <rmsd>  (2) 
271.24

>  <cluster>  (2) 
2

$$$$

     RDKit          3D

 55 58  0  0  0  0  0  0  0  0999 V2000
  141.4910   77.4740  217.2370 O   0  0  0  0  0  0  0  0  0  0  0  0
  142.2380   77.3010  218.2560 C   0  0  0  0  0  0  0  0  0  0  0  0
  142.3120   78.2960  219.2640 N   0  0  0  0  0  0  0  0  0  0  0  0
  141.5970   79.5260  219.2780 C   0  0  0  0  0  0  0  0  0  0  0  0
  141.0550   80.0590  220.5100 C   0  0  0  0  0  0  0  0  0  0  0  0
  139.8360   80.5100  220.3870 O   0  0  0  0  0  0  0  0  0  0  0  0
  141.6430   80.1690  221.7980 N   0  0  0  0  0  0  0  0  0  0  0  0
  142.0260   81.3450  222.5530 C   0  0  0  0  0  0  0  0  0  0  0  0
  142.2170   80.9360  223.9750 C   0  0  0  0  0  0  0  0  0  0  0  0
  141.7870   79.5190  224.0280 C   0  0  0  0  0  0  0  0  0  0  0  0
  141.9580   79.0110  222.6080 C   0  0  1  0  0  0  0  0  0  0  0  0
  141.0020   77.8720  222.4120 C   0  0  0  0  0  0  0  0  0  0  0  0
  141.4300   76.7260  222.7200 O   0  0  0  0  0  0  0  0  0  0  0  0
  139.6980   78.0070  221.9280 N   0  0  0  0  0  0  0  0  0  0  0  0
  138.7600   76.9190  221.7300 C   0  0  0  0  0  0  0  0  0  0  0  0
  139.3340   75.8060  220.9570 C   0  0  0  0  0  0  0  0  0  0  0  0
  139.4330   75.7520  219.5960 C   0  0  0  0  0  0  0  0  0  0  0  0
  139.9890   74.6740  218.9430 C   0  0  0  0  0  0  0  0  0  0  0  0
  140.4760   73.5890  219.6320 C   0  0  0  0  0  0  0  0  0  0  0  0
  141.1740   72.2410  218.7640 Cl  0  0  0  0  0  0  0  0  0  0  0  0
  140.3870   73.6200  221.0060 C   0  0  0  0  0  0  0  0  0  0  0  0
  140.9920   72.2650  221.9340 Cl  0  0  0  0  0  0  0  0  0  0  0  0
  139.8250   74.7110  221.6640 C   0  0  0  0  0  0  0  0  0  0  0  0
  143.0180   76.0560  218.3670 C   0  0  0  0  0  0  0  0  0  0  0  0
  143.1840   75.2510  217.2650 C   0  0  0  0  0  0  0  0  0  0  0  0
  143.9020   74.0720  217.3010 C   0  0  0  0  0  0  0  0  0  0  0  0
  144.4780   73.6910  218.5040 C   0  0  0  0  0  0  0  0  0  0  0  0
  145.1860   72.5270  218.5310 C   0  0  0  0  0  0  0  0  0  0  0  0
  145.7590   72.1460  219.7280 C   0  0  0  0  0  0  0  0  0  0  0  0
  146.4630   70.9800  219.7350 F   0  0  0  0  0  0  0  0  0  0  0  0
  145.6160   72.9300  220.8660 C   0  0  0  0  0  0  0  0  0  0  0  0
  144.8810   74.1150  220.7870 C   0  0  0  0  0  0  0  0  0  0  0  0
  144.3000   74.5110  219.5970 C   0  0  0  0  0  0  0  0  0  0  0  0
  143.5850   75.6620  219.5180 N   0  0  0  0  0  0  0  0  0  0  0  0
  142.9730   78.0630  220.0700 H   0  0  0  0  0  0  0  0  0  0  0  0
  142.2814   80.2902  218.8809 H   0  0  0  0  0  0  0  0  0  0  0  0
  140.6927   79.2869  218.6992 H   0  0  0  0  0  0  0  0  0  0  0  0
  142.9647   81.7562  222.1533 H   0  0  0  0  0  0  0  0  0  0  0  0
  141.2472   82.1182  222.4784 H   0  0  0  0  0  0  0  0  0  0  0  0
  143.2737   81.0304  224.2658 H   0  0  0  0  0  0  0  0  0  0  0  0
  141.6419   81.5683  224.6674 H   0  0  0  0  0  0  0  0  0  0  0  0
  142.4195   78.9475  224.7232 H   0  0  0  0  0  0  0  0  0  0  0  0
  140.7528   79.4111  224.3869 H   0  0  0  0  0  0  0  0  0  0  0  0
  142.9561   78.6241  222.3548 H   0  0  0  0  0  0  0  0  0  0  0  0
  139.3320   78.9650  221.6920 H   0  0  0  0  0  0  0  0  0  0  0  0
  138.4486   76.5396  222.7144 H   0  0  0  0  0  0  0  0  0  0  0  0
  137.9082   77.3155  221.1580 H   0  0  0  0  0  0  0  0  0  0  0  0
  139.0563   76.5973  219.0015 H   0  0  0  0  0  0  0  0  0  0  0  0
  140.0445   74.6817  217.8444 H   0  0  0  0  0  0  0  0  0  0  0  0
  139.7678   74.7080  222.7625 H   0  0  0  0  0  0  0  0  0  0  0  0
  142.7253   75.5592  216.3139 H   0  0  0  0  0  0  0  0  0  0  0  0
  144.0142   73.4515  216.3997 H   0  0  0  0  0  0  0  0  0  0  0  0
  145.2976   71.9100  217.6272 H   0  0  0  0  0  0  0  0  0  0  0  0
  146.0755   72.6216  221.8166 H   0  0  0  0  0  0  0  0  0  0  0  0
  144.7630   74.7413  221.6835 H   0  0  0  0  0  0  0  0  0  0  0  0
  1  2  2  0
  2  3  1  0
  3  4  1  0
  4  5  1  0
  5  6  2  0
  5  7  1  0
  7  8  1  0
  8  9  1  0
  9 10  1  0
 10 11  1  0
 11 12  1  0
 12 13  2  0
 12 14  1  0
 14 15  1  0
 15 16  1  0
 16 17  2  0
 17 18  1  0
 18 19  2  0
 19 20  1  0
 19 21  1  0
 21 22  1  0
 21 23  2  0
  2 24  1  0
 24 25  2  0
 25 26  1  0
 26 27  2  0
 27 28  1  0
 28 29  2  0
 29 30  1  0
 29 31  1  0
 31 32  2  0
 32 33  1  0
 33 34  2  0
 11  7  1  0
 23 16  1  0
 34 24  1  0
 33 27  1  0
  3 35  1  0
  4 36  1  0
  4 37  1  0
  8 38  1  0
  8 39  1  0
  9 40  1  0
  9 41  1  0
 10 42  1  0
 10 43  1  0
 11 44  1  1
 14 45  1  0
 15 46  1  0
 15 47  1  0
 17 48  1  0
 18 49  1  0
 23 50  1  0
 25 51  1  0
 26 52  1  0
 28 53  1  0
 31 54  1  0
 32 55  1  0
M  END
>  <smiles>  (3) 
O=C(NCC(=O)N1CCC[C@H]1C(=O)NCc1ccc(Cl)c(Cl)c1)c1ccc2cc(F)ccc2n1

>  <score_type>  (3) 
oracle

>  <origin>  (3) 
autodockgpu

>  <m_score__min__energy>  (3) 
-9.0099999999999998

>  <m_primary>  (3) 
energy

>  <meeko>  (3) 
{"free_energy": -6.24, "intermolecular_energy": -8.32, "internal_energy": -4.32, "cluster_size": 2, "cluster_id": 10, "rank_in_cluster": 2}

>  <energy>  (3) 
-8.86

>  <cluster_rmsd>  (3) 
0.69

>  <rmsd>  (3) 
271.2

>  <cluster>  (3) 
2

$$$$

     RDKit          3D

 55 58  0  0  0  0  0  0  0  0999 V2000
  133.4870   69.9610  226.6400 O   0  0  0  0  0  0  0  0  0  0  0  0
  133.9490   71.0690  226.2110 C   0  0  0  0  0  0  0  0  0  0  0  0
  135.0780   71.0880  225.3530 N   0  0  0  0  0  0  0  0  0  0  0  0
  135.7850   69.9480  224.8770 C   0  0  0  0  0  0  0  0  0  0  0  0
  136.3100   69.9060  223.5290 C   0  0  0  0  0  0  0  0  0  0  0  0
  137.0780   68.8750  223.3040 O   0  0  0  0  0  0  0  0  0  0  0  0
  136.1250   70.8050  222.4450 N   0  0  0  0  0  0  0  0  0  0  0  0
  134.9730   71.6060  222.0810 C   0  0  0  0  0  0  0  0  0  0  0  0
  135.4260   72.6530  221.1210 C   0  0  0  0  0  0  0  0  0  0  0  0
  136.9000   72.5110  221.0660 C   0  0  0  0  0  0  0  0  0  0  0  0
  137.1650   71.0740  221.4740 C   0  0  1  0  0  0  0  0  0  0  0  0
  138.5470   71.0110  222.0520 C   0  0  0  0  0  0  0  0  0  0  0  0
  139.2770   70.0650  221.6480 O   0  0  0  0  0  0  0  0  0  0  0  0
  139.0590   71.9190  222.9820 N   0  0  0  0  0  0  0  0  0  0  0  0
  140.3910   71.8740  223.5540 C   0  0  0  0  0  0  0  0  0  0  0  0
  140.4340   71.1600  224.8400 C   0  0  0  0  0  0  0  0  0  0  0  0
  140.8120   71.6980  226.0360 C   0  0  0  0  0  0  0  0  0  0  0  0
  140.8220   70.9650  227.2010 C   0  0  0  0  0  0  0  0  0  0  0  0
  140.4490   69.6420  227.2210 C   0  0  0  0  0  0  0  0  0  0  0  0
  140.4770   68.7460  228.7230 Cl  0  0  0  0  0  0  0  0  0  0  0  0
  140.0640   69.0750  226.0270 C   0  0  0  0  0  0  0  0  0  0  0  0
  139.5800   67.3940  225.9930 Cl  0  0  0  0  0  0  0  0  0  0  0  0
  140.0550   69.8190  224.8500 C   0  0  0  0  0  0  0  0  0  0  0  0
  133.2920   72.3240  226.6190 C   0  0  0  0  0  0  0  0  0  0  0  0
  132.0540   72.2850  227.2150 C   0  0  0  0  0  0  0  0  0  0  0  0
  131.3840   73.4220  227.6210 C   0  0  0  0  0  0  0  0  0  0  0  0
  131.9930   74.6510  227.4160 C   0  0  0  0  0  0  0  0  0  0  0  0
  131.3260   75.7690  227.8210 C   0  0  0  0  0  0  0  0  0  0  0  0
  131.9310   76.9930  227.6170 C   0  0  0  0  0  0  0  0  0  0  0  0
  131.2490   78.0980  228.0280 F   0  0  0  0  0  0  0  0  0  0  0  0
  133.1830   77.0770  227.0190 C   0  0  0  0  0  0  0  0  0  0  0  0
  133.8260   75.9030  226.6210 C   0  0  0  0  0  0  0  0  0  0  0  0
  133.2340   74.6690  226.8180 C   0  0  0  0  0  0  0  0  0  0  0  0
  133.8580   73.5260  226.4330 N   0  0  0  0  0  0  0  0  0  0  0  0
  135.3960   72.0640  225.0580 H   0  0  0  0  0  0  0  0  0  0  0  0
  136.6428   69.8079  225.5512 H   0  0  0  0  0  0  0  0  0  0  0  0
  135.0065   69.1711  224.8578 H   0  0  0  0  0  0  0  0  0  0  0  0
  134.2104   70.9701  221.6077 H   0  0  0  0  0  0  0  0  0  0  0  0
  134.5327   72.0715  222.9751 H   0  0  0  0  0  0  0  0  0  0  0  0
  134.9840   72.4842  220.1279 H   0  0  0  0  0  0  0  0  0  0  0  0
  135.1195   73.6617  221.4349 H   0  0  0  0  0  0  0  0  0  0  0  0
  137.2699   72.6993  220.0473 H   0  0  0  0  0  0  0  0  0  0  0  0
  137.4118   73.2306  221.7220 H   0  0  0  0  0  0  0  0  0  0  0  0
  137.1352   70.3322  220.6623 H   0  0  0  0  0  0  0  0  0  0  0  0
  138.4590   72.7210  223.3040 H   0  0  0  0  0  0  0  0  0  0  0  0
  141.0608   71.3640  222.8460 H   0  0  0  0  0  0  0  0  0  0  0  0
  140.7077   72.9110  223.7395 H   0  0  0  0  0  0  0  0  0  0  0  0
  141.1192   72.7537  226.0701 H   0  0  0  0  0  0  0  0  0  0  0  0
  141.1357   71.4490  228.1377 H   0  0  0  0  0  0  0  0  0  0  0  0
  139.7429   69.3393  223.9106 H   0  0  0  0  0  0  0  0  0  0  0  0
  131.5770   71.3069  227.3752 H   0  0  0  0  0  0  0  0  0  0  0  0
  130.3934   73.3548  228.0945 H   0  0  0  0  0  0  0  0  0  0  0  0
  130.3363   75.6979  228.2957 H   0  0  0  0  0  0  0  0  0  0  0  0
  133.6609   78.0552  226.8614 H   0  0  0  0  0  0  0  0  0  0  0  0
  134.8159   75.9606  226.1448 H   0  0  0  0  0  0  0  0  0  0  0  0
  1  2  2  0
  2  3  1  0
  3  4  1  0
  4  5  1  0
  5  6  2  0
  5  7  1  0
  7  8  1  0
  8  9  1  0
  9 10  1  0
 10 11  1  0
 11 12  1  0
 12 13  2  0
 12 14  1  0
 14 15  1  0
 15 16  1  0
 16 17  2  0
 17 18  1  0
 18 19  2  0
 19 20  1  0
 19 21  1  0
 21 22  1  0
 21 23  2  0
  2 24  1  0
 24 25  2  0
 25 26  1  0
 26 27  2  0
 27 28  1  0
 28 29  2  0
 29 30  1  0
 29 31  1  0
 31 32  2  0
 32 33  1  0
 33 34  2  0
 11  7  1  0
 23 16  1  0
 34 24  1  0
 33 27  1  0
  3 35  1  0
  4 36  1  0
  4 37  1  0
  8 38  1  0
  8 39  1  0
  9 40  1  0
  9 41  1  0
 10 42  1  0
 10 43  1  0
 11 44  1  6
 14 45  1  0
 15 46  1  0
 15 47  1  0
 17 48  1  0
 18 49  1  0
 23 50  1  0
 25 51  1  0
 26 52  1  0
 28 53  1  0
 31 54  1  0
 32 55  1  0
M  END
>  <smiles>  (4) 
O=C(NCC(=O)N1CCC[C@H]1C(=O)NCc1ccc(Cl)c(Cl)c1)c1ccc2cc(F)ccc2n1

>  <score_type>  (4) 
oracle

>  <origin>  (4) 
autodockgpu

>  <m_score__min__energy>  (4) 
-9.0099999999999998

>  <m_primary>  (4) 
energy

>  <meeko>  (4) 
{"free_energy": -8.59, "intermolecular_energy": -10.68, "internal_energy": -2.21, "cluster_size": 1, "cluster_id": 4, "rank_in_cluster": 1}

>  <energy>  (4) 
-8.25

>  <cluster_rmsd>  (4) 
1.8

>  <rmsd>  (4) 
270.89

>  <cluster>  (4) 
2

$$$$

     RDKit          3D

 55 58  0  0  0  0  0  0  0  0999 V2000
  140.3520   73.5740  222.3250 O   0  0  0  0  0  0  0  0  0  0  0  0
  140.6730   72.3400  222.3450 C   0  0  0  0  0  0  0  0  0  0  0  0
  141.3070   71.7500  221.2220 N   0  0  0  0  0  0  0  0  0  0  0  0
  141.6590   72.4160  220.0160 C   0  0  0  0  0  0  0  0  0  0  0  0
  142.8210   73.2770  219.9520 C   0  0  0  0  0  0  0  0  0  0  0  0
  143.4750   73.3500  221.0800 O   0  0  0  0  0  0  0  0  0  0  0  0
  143.3350   74.0440  218.8730 N   0  0  0  0  0  0  0  0  0  0  0  0
  143.9160   73.6170  217.6150 C   0  0  0  0  0  0  0  0  0  0  0  0
  143.9210   74.7860  216.6900 C   0  0  0  0  0  0  0  0  0  0  0  0
  143.1910   75.8520  217.4150 C   0  0  0  0  0  0  0  0  0  0  0  0
  143.3380   75.4920  218.8820 C   0  0  1  0  0  0  0  0  0  0  0  0
  142.1720   76.0830  219.6170 C   0  0  0  0  0  0  0  0  0  0  0  0
  141.3980   76.8130  218.9400 O   0  0  0  0  0  0  0  0  0  0  0  0
  141.8980   75.8700  220.9710 N   0  0  0  0  0  0  0  0  0  0  0  0
  140.7780   76.4320  221.6990 C   0  0  0  0  0  0  0  0  0  0  0  0
  140.7880   77.9040  221.7100 C   0  0  0  0  0  0  0  0  0  0  0  0
  140.0290   78.7100  220.9110 C   0  0  0  0  0  0  0  0  0  0  0  0
  140.0920   80.0830  220.9820 C   0  0  0  0  0  0  0  0  0  0  0  0
  140.9290   80.7200  221.8680 C   0  0  0  0  0  0  0  0  0  0  0  0
  140.9780   82.4670  221.9250 Cl  0  0  0  0  0  0  0  0  0  0  0  0
  141.7050   79.9290  222.6850 C   0  0  0  0  0  0  0  0  0  0  0  0
  142.7890   80.6860  223.8310 Cl  0  0  0  0  0  0  0  0  0  0  0  0
  141.6400   78.5400  222.6110 C   0  0  0  0  0  0  0  0  0  0  0  0
  140.3760   71.5430  223.5490 C   0  0  0  0  0  0  0  0  0  0  0  0
  139.6000   70.4130  223.4460 C   0  0  0  0  0  0  0  0  0  0  0  0
  139.2850   69.6220  224.5340 C   0  0  0  0  0  0  0  0  0  0  0  0
  139.7750   69.9910  225.7770 C   0  0  0  0  0  0  0  0  0  0  0  0
  139.4610   69.2040  226.8450 C   0  0  0  0  0  0  0  0  0  0  0  0
  139.9480   69.5700  228.0840 C   0  0  0  0  0  0  0  0  0  0  0  0
  139.6220   68.7720  229.1390 F   0  0  0  0  0  0  0  0  0  0  0  0
  140.7360   70.7050  228.2320 C   0  0  0  0  0  0  0  0  0  0  0  0
  141.0310   71.4780  227.1070 C   0  0  0  0  0  0  0  0  0  0  0  0
  140.5510   71.1260  225.8590 C   0  0  0  0  0  0  0  0  0  0  0  0
  140.8360   71.8760  224.7640 N   0  0  0  0  0  0  0  0  0  0  0  0
  141.5240   70.7090  221.3310 H   0  0  0  0  0  0  0  0  0  0  0  0
  141.8079   71.6328  219.2581 H   0  0  0  0  0  0  0  0  0  0  0  0
  140.8268   73.1219  219.8775 H   0  0  0  0  0  0  0  0  0  0  0  0
  144.9456   73.2664  217.7792 H   0  0  0  0  0  0  0  0  0  0  0  0
  143.3307   72.7912  217.1843 H   0  0  0  0  0  0  0  0  0  0  0  0
  144.9518   75.1025  216.4726 H   0  0  0  0  0  0  0  0  0  0  0  0
  143.4534   74.5495  215.7228 H   0  0  0  0  0  0  0  0  0  0  0  0
  143.6381   76.8360  217.2106 H   0  0  0  0  0  0  0  0  0  0  0  0
  142.1371   75.9178  217.1067 H   0  0  0  0  0  0  0  0  0  0  0  0
  144.2421   75.8723  219.3800 H   0  0  0  0  0  0  0  0  0  0  0  0
  142.5310   75.2430  221.5320 H   0  0  0  0  0  0  0  0  0  0  0  0
  139.8448   76.0900  221.2276 H   0  0  0  0  0  0  0  0  0  0  0  0
  140.8557   76.0917  222.7421 H   0  0  0  0  0  0  0  0  0  0  0  0
  139.3440   78.2463  220.1860 H   0  0  0  0  0  0  0  0  0  0  0  0
  139.4580   80.6850  220.3144 H   0  0  0  0  0  0  0  0  0  0  0  0
  142.2727   77.9337  223.2758 H   0  0  0  0  0  0  0  0  0  0  0  0
  139.2140   70.1268  222.4565 H   0  0  0  0  0  0  0  0  0  0  0  0
  138.6618   68.7231  224.4169 H   0  0  0  0  0  0  0  0  0  0  0  0
  138.8388   68.3051  226.7234 H   0  0  0  0  0  0  0  0  0  0  0  0
  141.1220   70.9906  229.2216 H   0  0  0  0  0  0  0  0  0  0  0  0
  141.6533   72.3786  227.2151 H   0  0  0  0  0  0  0  0  0  0  0  0
  1  2  2  0
  2  3  1  0
  3  4  1  0
  4  5  1  0
  5  6  2  0
  5  7  1  0
  7  8  1  0
  8  9  1  0
  9 10  1  0
 10 11  1  0
 11 12  1  0
 12 13  2  0
 12 14  1  0
 14 15  1  0
 15 16  1  0
 16 17  2  0
 17 18  1  0
 18 19  2  0
 19 20  1  0
 19 21  1  0
 21 22  1  0
 21 23  2  0
  2 24  1  0
 24 25  2  0
 25 26  1  0
 26 27  2  0
 27 28  1  0
 28 29  2  0
 29 30  1  0
 29 31  1  0
 31 32  2  0
 32 33  1  0
 33 34  2  0
 11  7  1  0
 23 16  1  0
 34 24  1  0
 33 27  1  0
  3 35  1  0
  4 36  1  0
  4 37  1  0
  8 38  1  0
  8 39  1  0
  9 40  1  0
  9 41  1  0
 10 42  1  0
 10 43  1  0
 11 44  1  1
 14 45  1  0
 15 46  1  0
 15 47  1  0
 17 48  1  0
 18 49  1  0
 23 50  1  0
 25 51  1  0
 26 52  1  0
 28 53  1  0
 31 54  1  0
 32 55  1  0
M  END
>  <smiles>  (5) 
O=C(NCC(=O)N1CCC[C@H]1C(=O)NCc1ccc(Cl)c(Cl)c1)c1ccc2cc(F)ccc2n1

>  <score_type>  (5) 
oracle

>  <origin>  (5) 
autodockgpu

>  <m_score__min__energy>  (5) 
-9.0099999999999998

>  <m_primary>  (5) 
energy

>  <meeko>  (5) 
{"free_energy": -8.86, "intermolecular_energy": -10.95, "internal_energy": -2.43, "cluster_size": 4, "cluster_id": 2, "rank_in_cluster": 2}

>  <energy>  (5) 
-7.57

>  <cluster_rmsd>  (5) 
1.74

>  <rmsd>  (5) 
270.57

>  <cluster>  (5) 
2

$$$$

     RDKit          3D

 55 58  0  0  0  0  0  0  0  0999 V2000
  140.3190   73.1890  222.6570 O   0  0  0  0  0  0  0  0  0  0  0  0
  139.5470   72.1800  222.7690 C   0  0  0  0  0  0  0  0  0  0  0  0
  138.5070   71.9700  221.8280 N   0  0  0  0  0  0  0  0  0  0  0  0
  138.2190   72.7920  220.7030 C   0  0  0  0  0  0  0  0  0  0  0  0
  137.0820   73.6870  220.7060 C   0  0  0  0  0  0  0  0  0  0  0  0
  136.5330   73.8320  219.5300 O   0  0  0  0  0  0  0  0  0  0  0  0
  136.4950   74.4200  221.7720 N   0  0  0  0  0  0  0  0  0  0  0  0
  135.6050   73.9830  222.8280 C   0  0  0  0  0  0  0  0  0  0  0  0
  135.6090   75.0260  223.8940 C   0  0  0  0  0  0  0  0  0  0  0  0
  136.6420   76.0010  223.4730 C   0  0  0  0  0  0  0  0  0  0  0  0
  136.7400   75.8340  221.9680 C   0  0  1  0  0  0  0  0  0  0  0  0
  138.1160   76.2610  221.5490 C   0  0  0  0  0  0  0  0  0  0  0  0
  138.1770   77.2240  220.7370 O   0  0  0  0  0  0  0  0  0  0  0  0
  139.3000   75.6730  222.0010 N   0  0  0  0  0  0  0  0  0  0  0  0
  140.6380   76.0700  221.6080 C   0  0  0  0  0  0  0  0  0  0  0  0
  141.0360   77.3670  222.1780 C   0  0  0  0  0  0  0  0  0  0  0  0
  141.4480   77.5780  223.4630 C   0  0  0  0  0  0  0  0  0  0  0  0
  141.8090   78.8240  223.9230 C   0  0  0  0  0  0  0  0  0  0  0  0
  141.7740   79.9300  223.1070 C   0  0  0  0  0  0  0  0  0  0  0  0
  142.2410   81.4950  223.7320 Cl  0  0  0  0  0  0  0  0  0  0  0  0
  141.3610   79.7440  221.8070 C   0  0  0  0  0  0  0  0  0  0  0  0
  141.2970   81.1160  220.7240 Cl  0  0  0  0  0  0  0  0  0  0  0  0
  140.9970   78.4820  221.3430 C   0  0  0  0  0  0  0  0  0  0  0  0
  139.7540   71.2410  223.8860 C   0  0  0  0  0  0  0  0  0  0  0  0
  139.3930   69.9220  223.7460 C   0  0  0  0  0  0  0  0  0  0  0  0
  139.5600   68.9910  224.7530 C   0  0  0  0  0  0  0  0  0  0  0  0
  140.1160   69.4140  225.9520 C   0  0  0  0  0  0  0  0  0  0  0  0
  140.2780   68.4890  226.9400 C   0  0  0  0  0  0  0  0  0  0  0  0
  140.8310   68.9070  228.1330 C   0  0  0  0  0  0  0  0  0  0  0  0
  140.9850   67.9690  229.1080 F   0  0  0  0  0  0  0  0  0  0  0  0
  141.2100   70.2320  228.3160 C   0  0  0  0  0  0  0  0  0  0  0  0
  141.0230   71.1420  227.2730 C   0  0  0  0  0  0  0  0  0  0  0  0
  140.4710   70.7390  226.0720 C   0  0  0  0  0  0  0  0  0  0  0  0
  140.2880   71.6220  225.0560 N   0  0  0  0  0  0  0  0  0  0  0  0
  137.9070   71.1060  222.0140 H   0  0  0  0  0  0  0  0  0  0  0  0
  139.1087   73.4171  220.5363 H   0  0  0  0  0  0  0  0  0  0  0  0
  137.9472   72.0580  219.9301 H   0  0  0  0  0  0  0  0  0  0  0  0
  134.5868   73.8589  222.4307 H   0  0  0  0  0  0  0  0  0  0  0  0
  135.9402   73.0180  223.2358 H   0  0  0  0  0  0  0  0  0  0  0  0
  134.6244   75.5117  223.9633 H   0  0  0  0  0  0  0  0  0  0  0  0
  135.8216   74.6016  224.8863 H   0  0  0  0  0  0  0  0  0  0  0  0
  136.3358   77.0257  223.7303 H   0  0  0  0  0  0  0  0  0  0  0  0
  137.6058   75.8281  223.9742 H   0  0  0  0  0  0  0  0  0  0  0  0
  136.0355   76.4336  221.3729 H   0  0  0  0  0  0  0  0  0  0  0  0
  139.2510   74.8840  222.6960 H   0  0  0  0  0  0  0  0  0  0  0  0
  141.3477   75.3025  221.9504 H   0  0  0  0  0  0  0  0  0  0  0  0
  140.6461   76.1719  220.5128 H   0  0  0  0  0  0  0  0  0  0  0  0
  141.4928   76.7231  224.1537 H   0  0  0  0  0  0  0  0  0  0  0  0
  142.1331   78.9376  224.9680 H   0  0  0  0  0  0  0  0  0  0  0  0
  140.6729   78.3634  220.2985 H   0  0  0  0  0  0  0  0  0  0  0  0
  138.9529   69.5942  222.7927 H   0  0  0  0  0  0  0  0  0  0  0  0
  139.2603   67.9426  224.6082 H   0  0  0  0  0  0  0  0  0  0  0  0
  139.9771   67.4415  226.7908 H   0  0  0  0  0  0  0  0  0  0  0  0
  141.6511   70.5592  229.2691 H   0  0  0  0  0  0  0  0  0  0  0  0
  141.3188   72.1927  227.4093 H   0  0  0  0  0  0  0  0  0  0  0  0
  1  2  2  0
  2  3  1  0
  3  4  1  0
  4  5  1  0
  5  6  2  0
  5  7  1  0
  7  8  1  0
  8  9  1  0
  9 10  1  0
 10 11  1  0
 11 12  1  0
 12 13  2  0
 12 14  1  0
 14 15  1  0
 15 16  1  0
 16 17  2  0
 17 18  1  0
 18 19  2  0
 19 20  1  0
 19 21  1  0
 21 22  1  0
 21 23  2  0
  2 24  1  0
 24 25  2  0
 25 26  1  0
 26 27  2  0
 27 28  1  0
 28 29  2  0
 29 30  1  0
 29 31  1  0
 31 32  2  0
 32 33  1  0
 33 34  2  0
 11  7  1  0
 23 16  1  0
 34 24  1  0
 33 27  1  0
  3 35  1  0
  4 36  1  0
  4 37  1  0
  8 38  1  0
  8 39  1  0
  9 40  1  0
  9 41  1  0
 10 42  1  0
 10 43  1  0
 11 44  1  6
 14 45  1  0
 15 46  1  0
 15 47  1  0
 17 48  1  0
 18 49  1  0
 23 50  1  0
 25 51  1  0
 26 52  1  0
 28 53  1  0
 31 54  1  0
 32 55  1  0
M  END
>  <smiles>  (6) 
O=C(NCC(=O)N1CCC[C@H]1C(=O)NCc1ccc(Cl)c(Cl)c1)c1ccc2cc(F)ccc2n1

>  <score_type>  (6) 
oracle

>  <origin>  (6) 
autodockgpu

>  <m_score__min__energy>  (6) 
-9.0099999999999998

>  <m_primary>  (6) 
energy

>  <meeko>  (6) 
{"free_energy": -8.87, "intermolecular_energy": -10.96, "internal_energy": -2.64, "cluster_size": 4, "cluster_id": 3, "rank_in_cluster": 1}

>  <energy>  (6) 
-8.87

>  <cluster_rmsd>  (6) 
0.0

>  <rmsd>  (6) 
271.04

>  <cluster>  (6) 
3

$$$$

     RDKit          3D

 55 58  0  0  0  0  0  0  0  0999 V2000
  140.1030   72.9420  222.4850 O   0  0  0  0  0  0  0  0  0  0  0  0
  139.4520   71.9150  222.8690 C   0  0  0  0  0  0  0  0  0  0  0  0
  138.3800   71.4170  222.0860 N   0  0  0  0  0  0  0  0  0  0  0  0
  137.9330   71.9500  220.8460 C   0  0  0  0  0  0  0  0  0  0  0  0
  137.3470   73.2720  220.7710 C   0  0  0  0  0  0  0  0  0  0  0  0
  137.4700   73.8270  219.5950 O   0  0  0  0  0  0  0  0  0  0  0  0
  136.6830   74.0370  221.7660 N   0  0  0  0  0  0  0  0  0  0  0  0
  135.7220   73.6310  222.7720 C   0  0  0  0  0  0  0  0  0  0  0  0
  135.6450   74.7110  223.7970 C   0  0  0  0  0  0  0  0  0  0  0  0
  136.7020   75.6770  223.4160 C   0  0  0  0  0  0  0  0  0  0  0  0
  136.9060   75.4590  221.9290 C   0  0  1  0  0  0  0  0  0  0  0  0
  138.3060   75.8810  221.5930 C   0  0  0  0  0  0  0  0  0  0  0  0
  138.4320   76.6600  220.6100 O   0  0  0  0  0  0  0  0  0  0  0  0
  139.4450   75.4760  222.2930 N   0  0  0  0  0  0  0  0  0  0  0  0
  140.8050   75.8720  221.9840 C   0  0  0  0  0  0  0  0  0  0  0  0
  141.0510   77.3020  222.2300 C   0  0  0  0  0  0  0  0  0  0  0  0
  141.3620   77.8590  223.4380 C   0  0  0  0  0  0  0  0  0  0  0  0
  141.5820   79.2100  223.5880 C   0  0  0  0  0  0  0  0  0  0  0  0
  141.4990   80.0750  222.5230 C   0  0  0  0  0  0  0  0  0  0  0  0
  141.7850   81.7840  222.7580 Cl  0  0  0  0  0  0  0  0  0  0  0  0
  141.1860   79.5380  221.2950 C   0  0  0  0  0  0  0  0  0  0  0  0
  141.0660   80.5920  219.9040 Cl  0  0  0  0  0  0  0  0  0  0  0  0
  140.9640   78.1710  221.1450 C   0  0  0  0  0  0  0  0  0  0  0  0
  139.8310   71.2590  224.1330 C   0  0  0  0  0  0  0  0  0  0  0  0
  140.6840   71.8950  225.0040 C   0  0  0  0  0  0  0  0  0  0  0  0
  141.0790   71.3360  226.2040 C   0  0  0  0  0  0  0  0  0  0  0  0
  140.5890   70.0820  226.5370 C   0  0  0  0  0  0  0  0  0  0  0  0
  140.9820   69.5380  227.7230 C   0  0  0  0  0  0  0  0  0  0  0  0
  140.4960   68.2900  228.0560 C   0  0  0  0  0  0  0  0  0  0  0  0
  140.9000   67.7630  229.2450 F   0  0  0  0  0  0  0  0  0  0  0  0
  139.6310   67.6130  227.2040 C   0  0  0  0  0  0  0  0  0  0  0  0
  139.2570   68.2130  225.9990 C   0  0  0  0  0  0  0  0  0  0  0  0
  139.7350   69.4620  225.6510 C   0  0  0  0  0  0  0  0  0  0  0  0
  139.3730   70.0470  224.4800 N   0  0  0  0  0  0  0  0  0  0  0  0
  137.8890   70.5620  222.4980 H   0  0  0  0  0  0  0  0  0  0  0  0
  138.8050   71.9558  220.1754 H   0  0  0  0  0  0  0  0  0  0  0  0
  137.0865   71.2951  220.5920 H   0  0  0  0  0  0  0  0  0  0  0  0
  134.7352   73.4851  222.3084 H   0  0  0  0  0  0  0  0  0  0  0  0
  136.0324   72.6837  223.2371 H   0  0  0  0  0  0  0  0  0  0  0  0
  134.6561   75.1924  223.7779 H   0  0  0  0  0  0  0  0  0  0  0  0
  135.7871   74.3238  224.8168 H   0  0  0  0  0  0  0  0  0  0  0  0
  136.3751   76.7082  223.6155 H   0  0  0  0  0  0  0  0  0  0  0  0
  137.6287   75.5270  223.9893 H   0  0  0  0  0  0  0  0  0  0  0  0
  136.2419   76.0324  221.2656 H   0  0  0  0  0  0  0  0  0  0  0  0
  139.3400   74.8430  223.1270 H   0  0  0  0  0  0  0  0  0  0  0  0
  141.4932   75.2841  222.6091 H   0  0  0  0  0  0  0  0  0  0  0  0
  140.9692   75.6866  220.9122 H   0  0  0  0  0  0  0  0  0  0  0  0
  141.4392   77.2065  224.3202 H   0  0  0  0  0  0  0  0  0  0  0  0
  141.8300   79.6064  224.5837 H   0  0  0  0  0  0  0  0  0  0  0  0
  140.7154   77.7704  220.1512 H   0  0  0  0  0  0  0  0  0  0  0  0
  141.0677   72.8900  224.7341 H   0  0  0  0  0  0  0  0  0  0  0  0
  141.7642   71.8714  226.8777 H   0  0  0  0  0  0  0  0  0  0  0  0
  141.6660   70.0774  228.3947 H   0  0  0  0  0  0  0  0  0  0  0  0
  139.2463   66.6187  227.4748 H   0  0  0  0  0  0  0  0  0  0  0  0
  138.5733   67.6844  225.3185 H   0  0  0  0  0  0  0  0  0  0  0  0
  1  2  2  0
  2  3  1  0
  3  4  1  0
  4  5  1  0
  5  6  2  0
  5  7  1  0
  7  8  1  0
  8  9  1  0
  9 10  1  0
 10 11  1  0
 11 12  1  0
 12 13  2  0
 12 14  1  0
 14 15  1  0
 15 16  1  0
 16 17  2  0
 17 18  1  0
 18 19  2  0
 19 20  1  0
 19 21  1  0
 21 22  1  0
 21 23  2  0
  2 24  1  0
 24 25  2  0
 25 26  1  0
 26 27  2  0
 27 28  1  0
 28 29  2  0
 29 30  1  0
 29 31  1  0
 31 32  2  0
 32 33  1  0
 33 34  2  0
 11  7  1  0
 23 16  1  0
 34 24  1  0
 33 27  1  0
  3 35  1  0
  4 36  1  0
  4 37  1  0
  8 38  1  0
  8 39  1  0
  9 40  1  0
  9 41  1  0
 10 42  1  0
 10 43  1  0
 11 44  1  6
 14 45  1  0
 15 46  1  0
 15 47  1  0
 17 48  1  0
 18 49  1  0
 23 50  1  0
 25 51  1  0
 26 52  1  0
 28 53  1  0
 31 54  1  0
 32 55  1  0
M  END
>  <smiles>  (7) 
O=C(NCC(=O)N1CCC[C@H]1C(=O)NCc1ccc(Cl)c(Cl)c1)c1ccc2cc(F)ccc2n1

>  <score_type>  (7) 
oracle

>  <origin>  (7) 
autodockgpu

>  <m_score__min__energy>  (7) 
-9.0099999999999998

>  <m_primary>  (7) 
energy

>  <meeko>  (7) 
{"free_energy": -8.58, "intermolecular_energy": -10.67, "internal_energy": -2.92, "cluster_size": 4, "cluster_id": 3, "rank_in_cluster": 3}

>  <energy>  (7) 
-8.63

>  <cluster_rmsd>  (7) 
0.65

>  <rmsd>  (7) 
271.06

>  <cluster>  (7) 
3

$$$$

     RDKit          3D

 55 58  0  0  0  0  0  0  0  0999 V2000
  140.2460   72.9190  222.4770 O   0  0  0  0  0  0  0  0  0  0  0  0
  139.5010   71.9780  222.9070 C   0  0  0  0  0  0  0  0  0  0  0  0
  138.3530   71.5850  222.1740 N   0  0  0  0  0  0  0  0  0  0  0  0
  137.9200   72.1410  220.9380 C   0  0  0  0  0  0  0  0  0  0  0  0
  137.3020   73.4490  220.8850 C   0  0  0  0  0  0  0  0  0  0  0  0
  137.3550   74.0000  219.7030 O   0  0  0  0  0  0  0  0  0  0  0  0
  136.6690   74.2050  221.9070 N   0  0  0  0  0  0  0  0  0  0  0  0
  135.8310   73.7730  223.0080 C   0  0  0  0  0  0  0  0  0  0  0  0
  135.7610   74.8860  223.9970 C   0  0  0  0  0  0  0  0  0  0  0  0
  136.7050   75.9100  223.4910 C   0  0  0  0  0  0  0  0  0  0  0  0
  136.7980   75.6450  222.0000 C   0  0  1  0  0  0  0  0  0  0  0  0
  138.1280   76.1520  221.5270 C   0  0  0  0  0  0  0  0  0  0  0  0
  138.0990   77.1100  220.7070 O   0  0  0  0  0  0  0  0  0  0  0  0
  139.3620   75.6430  221.9380 N   0  0  0  0  0  0  0  0  0  0  0  0
  140.6570   76.1180  221.4930 C   0  0  0  0  0  0  0  0  0  0  0  0
  141.0400   77.3950  222.1180 C   0  0  0  0  0  0  0  0  0  0  0  0
  141.4000   77.5640  223.4240 C   0  0  0  0  0  0  0  0  0  0  0  0
  141.7490   78.7930  223.9360 C   0  0  0  0  0  0  0  0  0  0  0  0
  141.7540   79.9230  223.1530 C   0  0  0  0  0  0  0  0  0  0  0  0
  142.2040   81.4650  223.8440 Cl  0  0  0  0  0  0  0  0  0  0  0  0
  141.3940   79.7790  221.8320 C   0  0  0  0  0  0  0  0  0  0  0  0
  141.3810   81.1840  220.7900 Cl  0  0  0  0  0  0  0  0  0  0  0  0
  141.0410   78.5340  221.3160 C   0  0  0  0  0  0  0  0  0  0  0  0
  139.8540   71.3080  224.1720 C   0  0  0  0  0  0  0  0  0  0  0  0
  140.7040   71.9260  225.0580 C   0  0  0  0  0  0  0  0  0  0  0  0
  141.0740   71.3530  226.2600 C   0  0  0  0  0  0  0  0  0  0  0  0
  140.5620   70.1040  226.5770 C   0  0  0  0  0  0  0  0  0  0  0  0
  140.9320   69.5470  227.7650 C   0  0  0  0  0  0  0  0  0  0  0  0
  140.4230   68.3040  228.0830 C   0  0  0  0  0  0  0  0  0  0  0  0
  140.8040   67.7630  229.2730 F   0  0  0  0  0  0  0  0  0  0  0  0
  139.5610   67.6450  227.2150 C   0  0  0  0  0  0  0  0  0  0  0  0
  139.2120   68.2580  226.0090 C   0  0  0  0  0  0  0  0  0  0  0  0
  139.7120   69.5020  225.6760 C   0  0  0  0  0  0  0  0  0  0  0  0
  139.3740   70.1010  224.5050 N   0  0  0  0  0  0  0  0  0  0  0  0
  137.7870   70.7970  222.6230 H   0  0  0  0  0  0  0  0  0  0  0  0
  138.8064   72.1873  220.2882 H   0  0  0  0  0  0  0  0  0  0  0  0
  137.0965   71.4723  220.6471 H   0  0  0  0  0  0  0  0  0  0  0  0
  134.8219   73.5373  222.6390 H   0  0  0  0  0  0  0  0  0  0  0  0
  136.2506   72.8707  223.4768 H   0  0  0  0  0  0  0  0  0  0  0  0
  134.7405   75.2932  224.0489 H   0  0  0  0  0  0  0  0  0  0  0  0
  136.0195   74.5524  225.0128 H   0  0  0  0  0  0  0  0  0  0  0  0
  136.3184   76.9220  223.6817 H   0  0  0  0  0  0  0  0  0  0  0  0
  137.6857   75.8526  223.9858 H   0  0  0  0  0  0  0  0  0  0  0  0
  136.0386   76.1413  221.3780 H   0  0  0  0  0  0  0  0  0  0  0  0
  139.3880   74.8580  222.6390 H   0  0  0  0  0  0  0  0  0  0  0  0
  141.4148   75.3616  221.7452 H   0  0  0  0  0  0  0  0  0  0  0  0
  140.5942   76.2853  220.4076 H   0  0  0  0  0  0  0  0  0  0  0  0
  141.4115   76.6883  224.0896 H   0  0  0  0  0  0  0  0  0  0  0  0
  142.0305   78.8729  224.9964 H   0  0  0  0  0  0  0  0  0  0  0  0
  140.7580   78.4489  220.2564 H   0  0  0  0  0  0  0  0  0  0  0  0
  141.1060   72.9168  224.7999 H   0  0  0  0  0  0  0  0  0  0  0  0
  141.7568   71.8741  226.9472 H   0  0  0  0  0  0  0  0  0  0  0  0
  141.6151   70.0719  228.4490 H   0  0  0  0  0  0  0  0  0  0  0  0
  139.1589   66.6544  227.4738 H   0  0  0  0  0  0  0  0  0  0  0  0
  138.5303   67.7435  225.3157 H   0  0  0  0  0  0  0  0  0  0  0  0
  1  2  2  0
  2  3  1  0
  3  4  1  0
  4  5  1  0
  5  6  2  0
  5  7  1  0
  7  8  1  0
  8  9  1  0
  9 10  1  0
 10 11  1  0
 11 12  1  0
 12 13  2  0
 12 14  1  0
 14 15  1  0
 15 16  1  0
 16 17  2  0
 17 18  1  0
 18 19  2  0
 19 20  1  0
 19 21  1  0
 21 22  1  0
 21 23  2  0
  2 24  1  0
 24 25  2  0
 25 26  1  0
 26 27  2  0
 27 28  1  0
 28 29  2  0
 29 30  1  0
 29 31  1  0
 31 32  2  0
 32 33  1  0
 33 34  2  0
 11  7  1  0
 23 16  1  0
 34 24  1  0
 33 27  1  0
  3 35  1  0
  4 36  1  0
  4 37  1  0
  8 38  1  0
  8 39  1  0
  9 40  1  0
  9 41  1  0
 10 42  1  0
 10 43  1  0
 11 44  1  6
 14 45  1  0
 15 46  1  0
 15 47  1  0
 17 48  1  0
 18 49  1  0
 23 50  1  0
 25 51  1  0
 26 52  1  0
 28 53  1  0
 31 54  1  0
 32 55  1  0
M  END
>  <smiles>  (8) 
O=C(NCC(=O)N1CCC[C@H]1C(=O)NCc1ccc(Cl)c(Cl)c1)c1ccc2cc(F)ccc2n1

>  <score_type>  (8) 
oracle

>  <origin>  (8) 
autodockgpu

>  <m_score__min__energy>  (8) 
-9.0099999999999998

>  <m_primary>  (8) 
energy

>  <meeko>  (8) 
{"free_energy": -8.63, "intermolecular_energy": -10.72, "internal_energy": -2.92, "cluster_size": 4, "cluster_id": 3, "rank_in_cluster": 2}

>  <energy>  (8) 
-8.58

>  <cluster_rmsd>  (8) 
0.76

>  <rmsd>  (8) 
270.94

>  <cluster>  (8) 
3

$$$$

     RDKit          3D

 55 58  0  0  0  0  0  0  0  0999 V2000
  139.7860   72.9990  222.7200 O   0  0  0  0  0  0  0  0  0  0  0  0
  139.3940   71.8080  222.9560 C   0  0  0  0  0  0  0  0  0  0  0  0
  138.5700   71.1310  222.0220 N   0  0  0  0  0  0  0  0  0  0  0  0
  138.1180   71.6490  220.7770 C   0  0  0  0  0  0  0  0  0  0  0  0
  137.8750   73.0650  220.6030 C   0  0  0  0  0  0  0  0  0  0  0  0
  138.6170   73.6080  219.6750 O   0  0  0  0  0  0  0  0  0  0  0  0
  136.9780   73.9310  221.2830 N   0  0  0  0  0  0  0  0  0  0  0  0
  135.8050   73.6260  222.0770 C   0  0  0  0  0  0  0  0  0  0  0  0
  135.4660   74.8360  222.8800 C   0  0  0  0  0  0  0  0  0  0  0  0
  136.5710   75.7890  222.6240 C   0  0  0  0  0  0  0  0  0  0  0  0
  137.1370   75.3710  221.2800 C   0  0  1  0  0  0  0  0  0  0  0  0
  138.5700   75.8090  221.2310 C   0  0  0  0  0  0  0  0  0  0  0  0
  138.9270   76.4340  220.1960 O   0  0  0  0  0  0  0  0  0  0  0  0
  139.5050   75.5760  222.2440 N   0  0  0  0  0  0  0  0  0  0  0  0
  140.8940   75.9890  222.2150 C   0  0  0  0  0  0  0  0  0  0  0  0
  141.0530   77.4510  222.2800 C   0  0  0  0  0  0  0  0  0  0  0  0
  141.2550   78.1800  223.4170 C   0  0  0  0  0  0  0  0  0  0  0  0
  141.3980   79.5490  223.3970 C   0  0  0  0  0  0  0  0  0  0  0  0
  141.3460   80.2590  222.2210 C   0  0  0  0  0  0  0  0  0  0  0  0
  141.5330   81.9980  222.2400 Cl  0  0  0  0  0  0  0  0  0  0  0  0
  141.1430   79.5480  221.0600 C   0  0  0  0  0  0  0  0  0  0  0  0
  141.0670   80.4010  219.5340 Cl  0  0  0  0  0  0  0  0  0  0  0  0
  140.9980   78.1630  221.0830 C   0  0  0  0  0  0  0  0  0  0  0  0
  139.8100   71.1530  224.2080 C   0  0  0  0  0  0  0  0  0  0  0  0
  140.5810   71.8400  225.1170 C   0  0  0  0  0  0  0  0  0  0  0  0
  141.0050   71.2850  226.3080 C   0  0  0  0  0  0  0  0  0  0  0  0
  140.6330   69.9790  226.5930 C   0  0  0  0  0  0  0  0  0  0  0  0
  141.0540   69.4390  227.7710 C   0  0  0  0  0  0  0  0  0  0  0  0
  140.6850   68.1400  228.0560 C   0  0  0  0  0  0  0  0  0  0  0  0
  141.1160   67.6170  229.2380 F   0  0  0  0  0  0  0  0  0  0  0  0
  139.9070   67.4100  227.1660 C   0  0  0  0  0  0  0  0  0  0  0  0
  139.5000   68.0080  225.9710 C   0  0  0  0  0  0  0  0  0  0  0  0
  139.8610   69.3080  225.6700 C   0  0  0  0  0  0  0  0  0  0  0  0
  139.4660   69.8920  224.5100 N   0  0  0  0  0  0  0  0  0  0  0  0
  138.2840   70.1440  222.3160 H   0  0  0  0  0  0  0  0  0  0  0  0
  138.8729   71.3669  220.0283 H   0  0  0  0  0  0  0  0  0  0  0  0
  137.1101   71.2177  220.6871 H   0  0  0  0  0  0  0  0  0  0  0  0
  134.9638   73.3682  221.4168 H   0  0  0  0  0  0  0  0  0  0  0  0
  136.0032   72.7705  222.7394 H   0  0  0  0  0  0  0  0  0  0  0  0
  134.5057   75.2607  222.5524 H   0  0  0  0  0  0  0  0  0  0  0  0
  135.3598   74.6048  223.9502 H   0  0  0  0  0  0  0  0  0  0  0  0
  136.1914   76.8205  222.5811 H   0  0  0  0  0  0  0  0  0  0  0  0
  137.3304   75.7690  223.4196 H   0  0  0  0  0  0  0  0  0  0  0  0
  136.6491   75.8108  220.3976 H   0  0  0  0  0  0  0  0  0  0  0  0
  139.2030   75.0740  223.1180 H   0  0  0  0  0  0  0  0  0  0  0  0
  141.4128   75.5399  223.0748 H   0  0  0  0  0  0  0  0  0  0  0  0
  141.3217   75.6502  221.2598 H   0  0  0  0  0  0  0  0  0  0  0  0
  141.3052   77.6550  224.3823 H   0  0  0  0  0  0  0  0  0  0  0  0
  141.5574   80.0869  224.3432 H   0  0  0  0  0  0  0  0  0  0  0  0
  140.8371   77.6212  220.1393 H   0  0  0  0  0  0  0  0  0  0  0  0
  140.8719   72.8752  224.8851 H   0  0  0  0  0  0  0  0  0  0  0  0
  141.6214   71.8629  227.0123 H   0  0  0  0  0  0  0  0  0  0  0  0
  141.6692   70.0206  228.4734 H   0  0  0  0  0  0  0  0  0  0  0  0
  139.6155   66.3753  227.3992 H   0  0  0  0  0  0  0  0  0  0  0  0
  138.8843   67.4371  225.2603 H   0  0  0  0  0  0  0  0  0  0  0  0
  1  2  2  0
  2  3  1  0
  3  4  1  0
  4  5  1  0
  5  6  2  0
  5  7  1  0
  7  8  1  0
  8  9  1  0
  9 10  1  0
 10 11  1  0
 11 12  1  0
 12 13  2  0
 12 14  1  0
 14 15  1  0
 15 16  1  0
 16 17  2  0
 17 18  1  0
 18 19  2  0
 19 20  1  0
 19 21  1  0
 21 22  1  0
 21 23  2  0
  2 24  1  0
 24 25  2  0
 25 26  1  0
 26 27  2  0
 27 28  1  0
 28 29  2  0
 29 30  1  0
 29 31  1  0
 31 32  2  0
 32 33  1  0
 33 34  2  0
 11  7  1  0
 23 16  1  0
 34 24  1  0
 33 27  1  0
  3 35  1  0
  4 36  1  0
  4 37  1  0
  8 38  1  0
  8 39  1  0
  9 40  1  0
  9 41  1  0
 10 42  1  0
 10 43  1  0
 11 44  1  6
 14 45  1  0
 15 46  1  0
 15 47  1  0
 17 48  1  0
 18 49  1  0
 23 50  1  0
 25 51  1  0
 26 52  1  0
 28 53  1  0
 31 54  1  0
 32 55  1  0
M  END
>  <smiles>  (9) 
O=C(NCC(=O)N1CCC[C@H]1C(=O)NCc1ccc(Cl)c(Cl)c1)c1ccc2cc(F)ccc2n1

>  <score_type>  (9) 
oracle

>  <origin>  (9) 
autodockgpu

>  <m_score__min__energy>  (9) 
-9.0099999999999998

>  <m_primary>  (9) 
energy

>  <meeko>  (9) 
{"free_energy": -8.25, "intermolecular_energy": -10.34, "internal_energy": -2.64, "cluster_size": 4, "cluster_id": 3, "rank_in_cluster": 4}

>  <energy>  (9) 
-8.25

>  <cluster_rmsd>  (9) 
0.97

>  <rmsd>  (9) 
270.85

>  <cluster>  (9) 
3

$$$$

     RDKit          3D

 55 58  0  0  0  0  0  0  0  0999 V2000
  140.4540   76.5450  218.7950 O   0  0  0  0  0  0  0  0  0  0  0  0
  141.1860   77.4170  219.3700 C   0  0  0  0  0  0  0  0  0  0  0  0
  142.5410   77.1250  219.6700 N   0  0  0  0  0  0  0  0  0  0  0  0
  143.2190   75.9110  219.3740 C   0  0  0  0  0  0  0  0  0  0  0  0
  142.8380   74.6690  220.0140 C   0  0  0  0  0  0  0  0  0  0  0  0
  143.3270   74.5340  221.2170 O   0  0  0  0  0  0  0  0  0  0  0  0
  142.0380   73.5990  219.5330 N   0  0  0  0  0  0  0  0  0  0  0  0
  142.4160   72.3960  218.8180 C   0  0  0  0  0  0  0  0  0  0  0  0
  141.2800   71.4340  218.9030 C   0  0  0  0  0  0  0  0  0  0  0  0
  140.3020   72.0750  219.8140 C   0  0  0  0  0  0  0  0  0  0  0  0
  140.6020   73.5590  219.7200 C   0  0  1  0  0  0  0  0  0  0  0  0
  140.1530   74.1980  221.0000 C   0  0  0  0  0  0  0  0  0  0  0  0
  140.5730   73.6690  222.0640 O   0  0  0  0  0  0  0  0  0  0  0  0
  139.3240   75.3210  221.0770 N   0  0  0  0  0  0  0  0  0  0  0  0
  138.8780   75.9520  222.3030 C   0  0  0  0  0  0  0  0  0  0  0  0
  139.7000   77.1160  222.6740 C   0  0  0  0  0  0  0  0  0  0  0  0
  141.0650   77.1550  222.6830 C   0  0  0  0  0  0  0  0  0  0  0  0
  141.7650   78.2850  223.0400 C   0  0  0  0  0  0  0  0  0  0  0  0
  141.1210   79.4430  223.4090 C   0  0  0  0  0  0  0  0  0  0  0  0
  142.0490   80.8560  223.8560 Cl  0  0  0  0  0  0  0  0  0  0  0  0
  139.7450   79.4290  223.4090 C   0  0  0  0  0  0  0  0  0  0  0  0
  138.8740   80.8740  223.8710 Cl  0  0  0  0  0  0  0  0  0  0  0  0
  139.0390   78.2840  223.0480 C   0  0  0  0  0  0  0  0  0  0  0  0
  140.6030   78.7260  219.7130 C   0  0  0  0  0  0  0  0  0  0  0  0
  139.2430   78.9120  219.6290 C   0  0  0  0  0  0  0  0  0  0  0  0
  138.6330   80.1120  219.9370 C   0  0  0  0  0  0  0  0  0  0  0  0
  139.4320   81.1690  220.3470 C   0  0  0  0  0  0  0  0  0  0  0  0
  138.8220   82.3500  220.6500 C   0  0  0  0  0  0  0  0  0  0  0  0
  139.6160   83.4020  221.0580 C   0  0  0  0  0  0  0  0  0  0  0  0
  138.9890   84.5740  221.3550 F   0  0  0  0  0  0  0  0  0  0  0  0
  140.9950   83.2570  221.1560 C   0  0  0  0  0  0  0  0  0  0  0  0
  141.5730   82.0270  220.8350 C   0  0  0  0  0  0  0  0  0  0  0  0
  140.7920   80.9620  220.4250 C   0  0  0  0  0  0  0  0  0  0  0  0
  141.3510   79.7650  220.1120 N   0  0  0  0  0  0  0  0  0  0  0  0
  143.0660   77.9140  220.1630 H   0  0  0  0  0  0  0  0  0  0  0  0
  143.1136   75.7499  218.2910 H   0  0  0  0  0  0  0  0  0  0  0  0
  144.2264   76.0919  219.7771 H   0  0  0  0  0  0  0  0  0  0  0  0
  142.6232   72.6371  217.7649 H   0  0  0  0  0  0  0  0  0  0  0  0
  143.3225   71.9572  219.2603 H   0  0  0  0  0  0  0  0  0  0  0  0
  140.8351   71.2723  217.9100 H   0  0  0  0  0  0  0  0  0  0  0  0
  141.6005   70.4474  219.2689 H   0  0  0  0  0  0  0  0  0  0  0  0
  139.2727   71.8660  219.4870 H   0  0  0  0  0  0  0  0  0  0  0  0
  140.3847   71.6985  220.8442 H   0  0  0  0  0  0  0  0  0  0  0  0
  140.0925   74.0999  218.9089 H   0  0  0  0  0  0  0  0  0  0  0  0
  138.9900   75.7760  220.1890 H   0  0  0  0  0  0  0  0  0  0  0  0
  137.8377   76.2838  222.1699 H   0  0  0  0  0  0  0  0  0  0  0  0
  138.9680   75.2104  223.1104 H   0  0  0  0  0  0  0  0  0  0  0  0
  141.6242   76.2525  222.3951 H   0  0  0  0  0  0  0  0  0  0  0  0
  142.8647   78.2615  223.0300 H   0  0  0  0  0  0  0  0  0  0  0  0
  137.9392   78.3022  223.0584 H   0  0  0  0  0  0  0  0  0  0  0  0
  138.6149   78.0699  219.3029 H   0  0  0  0  0  0  0  0  0  0  0  0
  137.5418   80.2266  219.8592 H   0  0  0  0  0  0  0  0  0  0  0  0
  137.7304   82.4607  220.5716 H   0  0  0  0  0  0  0  0  0  0  0  0
  141.6224   84.0997  221.4820 H   0  0  0  0  0  0  0  0  0  0  0  0
  142.6635   81.9037  220.9092 H   0  0  0  0  0  0  0  0  0  0  0  0
  1  2  2  0
  2  3  1  0
  3  4  1  0
  4  5  1  0
  5  6  2  0
  5  7  1  0
  7  8  1  0
  8  9  1  0
  9 10  1  0
 10 11  1  0
 11 12  1  0
 12 13  2  0
 12 14  1  0
 14 15  1  0
 15 16  1  0
 16 17  2  0
 17 18  1  0
 18 19  2  0
 19 20  1  0
 19 21  1  0
 21 22  1  0
 21 23  2  0
  2 24  1  0
 24 25  2  0
 25 26  1  0
 26 27  2  0
 27 28  1  0
 28 29  2  0
 29 30  1  0
 29 31  1  0
 31 32  2  0
 32 33  1  0
 33 34  2  0
 11  7  1  0
 23 16  1  0
 34 24  1  0
 33 27  1  0
  3 35  1  0
  4 36  1  0
  4 37  1  0
  8 38  1  0
  8 39  1  0
  9 40  1  0
  9 41  1  0
 10 42  1  0
 10 43  1  0
 11 44  1  6
 14 45  1  0
 15 46  1  0
 15 47  1  0
 17 48  1  0
 18 49  1  0
 23 50  1  0
 25 51  1  0
 26 52  1  0
 28 53  1  0
 31 54  1  0
 32 55  1  0
M  END
>  <smiles>  (10) 
O=C(NCC(=O)N1CCC[C@H]1C(=O)NCc1ccc(Cl)c(Cl)c1)c1ccc2cc(F)ccc2n1

>  <score_type>  (10) 
oracle

>  <origin>  (10) 
autodockgpu

>  <m_score__min__energy>  (10) 
-9.0099999999999998

>  <m_primary>  (10) 
energy

>  <meeko>  (10) 
{"free_energy": -5.81, "intermolecular_energy": -7.9, "internal_energy": -4.93, "cluster_size": 2, "cluster_id": 8, "rank_in_cluster": 2}

>  <energy>  (10) 
-8.59

>  <cluster_rmsd>  (10) 
0.0

>  <rmsd>  (10) 
270.35

>  <cluster>  (10) 
4

$$$$

     RDKit          3D

 55 58  0  0  0  0  0  0  0  0999 V2000
  139.9900   73.0790  222.7380 O   0  0  0  0  0  0  0  0  0  0  0  0
  139.8290   71.8190  222.8510 C   0  0  0  0  0  0  0  0  0  0  0  0
  139.3610   71.0580  221.7500 N   0  0  0  0  0  0  0  0  0  0  0  0
  139.0470   71.5630  220.4580 C   0  0  0  0  0  0  0  0  0  0  0  0
  138.2580   72.7670  220.3000 C   0  0  0  0  0  0  0  0  0  0  0  0
  138.5330   73.4270  219.2070 O   0  0  0  0  0  0  0  0  0  0  0  0
  137.2610   73.3260  221.1430 N   0  0  0  0  0  0  0  0  0  0  0  0
  136.2630   72.6770  221.9690 C   0  0  0  0  0  0  0  0  0  0  0  0
  135.7440   73.6820  222.9400 C   0  0  0  0  0  0  0  0  0  0  0  0
  136.5860   74.8840  222.7340 C   0  0  0  0  0  0  0  0  0  0  0  0
  137.1020   74.7550  221.3130 C   0  0  1  0  0  0  0  0  0  0  0  0
  138.3940   75.5110  221.2250 C   0  0  0  0  0  0  0  0  0  0  0  0
  138.5980   76.1420  220.1530 O   0  0  0  0  0  0  0  0  0  0  0  0
  139.3550   75.5590  222.2390 N   0  0  0  0  0  0  0  0  0  0  0  0
  140.6100   76.2820  222.1730 C   0  0  0  0  0  0  0  0  0  0  0  0
  141.4920   75.7910  221.1020 C   0  0  0  0  0  0  0  0  0  0  0  0
  141.9900   76.5420  220.0750 C   0  0  0  0  0  0  0  0  0  0  0  0
  142.8150   76.0110  219.1100 C   0  0  0  0  0  0  0  0  0  0  0  0
  143.1840   74.6870  219.1290 C   0  0  0  0  0  0  0  0  0  0  0  0
  144.2340   74.0530  217.8830 Cl  0  0  0  0  0  0  0  0  0  0  0  0
  142.6950   73.9080  220.1540 C   0  0  0  0  0  0  0  0  0  0  0  0
  143.1320   72.2160  220.2270 Cl  0  0  0  0  0  0  0  0  0  0  0  0
  141.8600   74.4480  221.1290 C   0  0  0  0  0  0  0  0  0  0  0  0
  140.1370   71.1720  224.1390 C   0  0  0  0  0  0  0  0  0  0  0  0
  140.7490   71.8930  225.1370 C   0  0  0  0  0  0  0  0  0  0  0  0
  141.0650   71.3470  226.3660 C   0  0  0  0  0  0  0  0  0  0  0  0
  140.7480   70.0160  226.5940 C   0  0  0  0  0  0  0  0  0  0  0  0
  141.0620   69.4850  227.8100 C   0  0  0  0  0  0  0  0  0  0  0  0
  140.7480   68.1610  228.0390 C   0  0  0  0  0  0  0  0  0  0  0  0
  141.0700   67.6490  229.2590 F   0  0  0  0  0  0  0  0  0  0  0  0
  140.1290   67.3970  227.0560 C   0  0  0  0  0  0  0  0  0  0  0  0
  139.8270   67.9870  225.8270 C   0  0  0  0  0  0  0  0  0  0  0  0
  140.1350   69.3110  225.5820 C   0  0  0  0  0  0  0  0  0  0  0  0
  139.8430   69.8870  224.3870 N   0  0  0  0  0  0  0  0  0  0  0  0
  139.2470   70.0140  221.9480 H   0  0  0  0  0  0  0  0  0  0  0  0
  140.0064   71.7492  219.9532 H   0  0  0  0  0  0  0  0  0  0  0  0
  138.3864   70.7850  220.0478 H   0  0  0  0  0  0  0  0  0  0  0  0
  135.4405   72.3070  221.3393 H   0  0  0  0  0  0  0  0  0  0  0  0
  136.7055   71.8230  222.5028 H   0  0  0  0  0  0  0  0  0  0  0  0
  134.6878   73.9097  222.7335 H   0  0  0  0  0  0  0  0  0  0  0  0
  135.7905   73.3175  223.9768 H   0  0  0  0  0  0  0  0  0  0  0  0
  135.9882   75.8003  222.8477 H   0  0  0  0  0  0  0  0  0  0  0  0
  137.4023   74.9507  223.4683 H   0  0  0  0  0  0  0  0  0  0  0  0
  136.4502   75.1657  220.5279 H   0  0  0  0  0  0  0  0  0  0  0  0
  139.1760   75.0500  223.1420 H   0  0  0  0  0  0  0  0  0  0  0  0
  140.3946   77.3454  221.9918 H   0  0  0  0  0  0  0  0  0  0  0  0
  141.1319   76.1302  223.1293 H   0  0  0  0  0  0  0  0  0  0  0  0
  141.7224   77.6074  220.0175 H   0  0  0  0  0  0  0  0  0  0  0  0
  143.1878   76.6611  218.3048 H   0  0  0  0  0  0  0  0  0  0  0  0
  141.4840   73.8016  221.9357 H   0  0  0  0  0  0  0  0  0  0  0  0
  140.9972   72.9480  224.9491 H   0  0  0  0  0  0  0  0  0  0  0  0
  141.5551   71.9518  227.1432 H   0  0  0  0  0  0  0  0  0  0  0  0
  141.5508   70.0937  228.5850 H   0  0  0  0  0  0  0  0  0  0  0  0
  139.8805   66.3420  227.2439 H   0  0  0  0  0  0  0  0  0  0  0  0
  139.3374   67.3896  225.0437 H   0  0  0  0  0  0  0  0  0  0  0  0
  1  2  2  0
  2  3  1  0
  3  4  1  0
  4  5  1  0
  5  6  2  0
  5  7  1  0
  7  8  1  0
  8  9  1  0
  9 10  1  0
 10 11  1  0
 11 12  1  0
 12 13  2  0
 12 14  1  0
 14 15  1  0
 15 16  1  0
 16 17  2  0
 17 18  1  0
 18 19  2  0
 19 20  1  0
 19 21  1  0
 21 22  1  0
 21 23  2  0
  2 24  1  0
 24 25  2  0
 25 26  1  0
 26 27  2  0
 27 28  1  0
 28 29  2  0
 29 30  1  0
 29 31  1  0
 31 32  2  0
 32 33  1  0
 33 34  2  0
 11  7  1  0
 23 16  1  0
 34 24  1  0
 33 27  1  0
  3 35  1  0
  4 36  1  0
  4 37  1  0
  8 38  1  0
  8 39  1  0
  9 40  1  0
  9 41  1  0
 10 42  1  0
 10 43  1  0
 11 44  1  6
 14 45  1  0
 15 46  1  0
 15 47  1  0
 17 48  1  0
 18 49  1  0
 23 50  1  0
 25 51  1  0
 26 52  1  0
 28 53  1  0
 31 54  1  0
 32 55  1  0
M  END
>  <smiles>  (11) 
O=C(NCC(=O)N1CCC[C@H]1C(=O)NCc1ccc(Cl)c(Cl)c1)c1ccc2cc(F)ccc2n1

>  <score_type>  (11) 
oracle

>  <origin>  (11) 
autodockgpu

>  <m_score__min__energy>  (11) 
-9.0099999999999998

>  <m_primary>  (11) 
energy

>  <meeko>  (11) 
{"free_energy": -7.53, "intermolecular_energy": -9.62, "internal_energy": -3.59, "cluster_size": 2, "cluster_id": 6, "rank_in_cluster": 2}

>  <energy>  (11) 
-8.0

>  <cluster_rmsd>  (11) 
0.0

>  <rmsd>  (11) 
270.74

>  <cluster>  (11) 
5

$$$$

     RDKit          3D

 55 58  0  0  0  0  0  0  0  0999 V2000
  140.4550   72.9940  222.5680 O   0  0  0  0  0  0  0  0  0  0  0  0
  139.9190   71.8570  222.7870 C   0  0  0  0  0  0  0  0  0  0  0  0
  139.1510   71.2240  221.7770 N   0  0  0  0  0  0  0  0  0  0  0  0
  138.9100   71.7310  220.4700 C   0  0  0  0  0  0  0  0  0  0  0  0
  138.5430   73.1160  220.2640 C   0  0  0  0  0  0  0  0  0  0  0  0
  139.0350   73.6250  219.1660 O   0  0  0  0  0  0  0  0  0  0  0  0
  137.7550   73.9840  221.0650 N   0  0  0  0  0  0  0  0  0  0  0  0
  136.5240   73.7310  221.7860 C   0  0  0  0  0  0  0  0  0  0  0  0
  136.3320   74.8330  222.7710 C   0  0  0  0  0  0  0  0  0  0  0  0
  137.5700   75.6430  222.6870 C   0  0  0  0  0  0  0  0  0  0  0  0
  138.1180   75.3670  221.2990 C   0  0  1  0  0  0  0  0  0  0  0  0
  139.6000   75.5920  221.3390 C   0  0  0  0  0  0  0  0  0  0  0  0
  140.1160   75.7060  222.4850 O   0  0  0  0  0  0  0  0  0  0  0  0
  140.4200   75.6730  220.2110 N   0  0  0  0  0  0  0  0  0  0  0  0
  141.8540   75.8910  220.2290 C   0  0  0  0  0  0  0  0  0  0  0  0
  142.6190   74.6590  219.9810 C   0  0  0  0  0  0  0  0  0  0  0  0
  142.1750   73.5750  219.2790 C   0  0  0  0  0  0  0  0  0  0  0  0
  142.9540   72.4560  219.0860 C   0  0  0  0  0  0  0  0  0  0  0  0
  144.2290   72.3710  219.5930 C   0  0  0  0  0  0  0  0  0  0  0  0
  145.1840   70.9310  219.3240 Cl  0  0  0  0  0  0  0  0  0  0  0  0
  144.7000   73.4510  220.3050 C   0  0  0  0  0  0  0  0  0  0  0  0
  146.3150   73.3970  220.9740 Cl  0  0  0  0  0  0  0  0  0  0  0  0
  143.9100   74.5820  220.4990 C   0  0  0  0  0  0  0  0  0  0  0  0
  140.1110   71.2170  224.1000 C   0  0  0  0  0  0  0  0  0  0  0  0
  140.7540   71.9000  225.1060 C   0  0  0  0  0  0  0  0  0  0  0  0
  140.9660   71.3580  226.3590 C   0  0  0  0  0  0  0  0  0  0  0  0
  140.5080   70.0720  226.6040 C   0  0  0  0  0  0  0  0  0  0  0  0
  140.7200   69.5460  227.8440 C   0  0  0  0  0  0  0  0  0  0  0  0
  140.2660   68.2660  228.0900 C   0  0  0  0  0  0  0  0  0  0  0  0
  140.4870   67.7570  229.3330 F   0  0  0  0  0  0  0  0  0  0  0  0
  139.6110   67.5410  227.1010 C   0  0  0  0  0  0  0  0  0  0  0  0
  139.4170   68.1250  225.8470 C   0  0  0  0  0  0  0  0  0  0  0  0
  139.8660   69.4050  225.5840 C   0  0  0  0  0  0  0  0  0  0  0  0
  139.6790   69.9750  224.3660 N   0  0  0  0  0  0  0  0  0  0  0  0
  138.7340   70.2820  222.0610 H   0  0  0  0  0  0  0  0  0  0  0  0
  139.8321   71.5628  219.8943 H   0  0  0  0  0  0  0  0  0  0  0  0
  138.0011   71.1917  220.1649 H   0  0  0  0  0  0  0  0  0  0  0  0
  135.6781   73.7069  221.0833 H   0  0  0  0  0  0  0  0  0  0  0  0
  136.5764   72.7614  222.3029 H   0  0  0  0  0  0  0  0  0  0  0  0
  135.4540   75.4402  222.5055 H   0  0  0  0  0  0  0  0  0  0  0  0
  136.1558   74.4521  223.7878 H   0  0  0  0  0  0  0  0  0  0  0  0
  137.3428   76.7124  222.8087 H   0  0  0  0  0  0  0  0  0  0  0  0
  138.2902   75.3852  223.4775 H   0  0  0  0  0  0  0  0  0  0  0  0
  137.7295   76.0091  220.4948 H   0  0  0  0  0  0  0  0  0  0  0  0
  139.9950   75.5560  219.2560 H   0  0  0  0  0  0  0  0  0  0  0  0
  142.1080   76.6256  219.4507 H   0  0  0  0  0  0  0  0  0  0  0  0
  142.1225   76.2523  221.2327 H   0  0  0  0  0  0  0  0  0  0  0  0
  141.1609   73.5965  218.8534 H   0  0  0  0  0  0  0  0  0  0  0  0
  142.5465   71.6103  218.5127 H   0  0  0  0  0  0  0  0  0  0  0  0
  144.3131   75.4301  221.0719 H   0  0  0  0  0  0  0  0  0  0  0  0
  141.1142   72.9196  224.9046 H   0  0  0  0  0  0  0  0  0  0  0  0
  141.4844   71.9313  227.1417 H   0  0  0  0  0  0  0  0  0  0  0  0
  141.2369   70.1240  228.6242 H   0  0  0  0  0  0  0  0  0  0  0  0
  139.2505   66.5216  227.3032 H   0  0  0  0  0  0  0  0  0  0  0  0
  138.9000   67.5584  225.0585 H   0  0  0  0  0  0  0  0  0  0  0  0
  1  2  2  0
  2  3  1  0
  3  4  1  0
  4  5  1  0
  5  6  2  0
  5  7  1  0
  7  8  1  0
  8  9  1  0
  9 10  1  0
 10 11  1  0
 11 12  1  0
 12 13  2  0
 12 14  1  0
 14 15  1  0
 15 16  1  0
 16 17  2  0
 17 18  1  0
 18 19  2  0
 19 20  1  0
 19 21  1  0
 21 22  1  0
 21 23  2  0
  2 24  1  0
 24 25  2  0
 25 26  1  0
 26 27  2  0
 27 28  1  0
 28 29  2  0
 29 30  1  0
 29 31  1  0
 31 32  2  0
 32 33  1  0
 33 34  2  0
 11  7  1  0
 23 16  1  0
 34 24  1  0
 33 27  1  0
  3 35  1  0
  4 36  1  0
  4 37  1  0
  8 38  1  0
  8 39  1  0
  9 40  1  0
  9 41  1  0
 10 42  1  0
 10 43  1  0
 11 44  1  6
 14 45  1  0
 15 46  1  0
 15 47  1  0
 17 48  1  0
 18 49  1  0
 23 50  1  0
 25 51  1  0
 26 52  1  0
 28 53  1  0
 31 54  1  0
 32 55  1  0
M  END
>  <smiles>  (12) 
O=C(NCC(=O)N1CCC[C@H]1C(=O)NCc1ccc(Cl)c(Cl)c1)c1ccc2cc(F)ccc2n1

>  <score_type>  (12) 
oracle

>  <origin>  (12) 
autodockgpu

>  <m_score__min__energy>  (12) 
-9.0099999999999998

>  <m_primary>  (12) 
energy

>  <meeko>  (12) 
{"free_energy": -7.99, "intermolecular_energy": -10.08, "internal_energy": -3.33, "cluster_size": 2, "cluster_id": 6, "rank_in_cluster": 1}

>  <energy>  (12) 
-7.99

>  <cluster_rmsd>  (12) 
0.0

>  <rmsd>  (12) 
270.4

>  <cluster>  (12) 
6

$$$$

     RDKit          3D

 55 58  0  0  0  0  0  0  0  0999 V2000
  139.9050   73.5260  222.3520 O   0  0  0  0  0  0  0  0  0  0  0  0
  140.4780   72.3870  222.3870 C   0  0  0  0  0  0  0  0  0  0  0  0
  141.2780   71.9570  221.2980 N   0  0  0  0  0  0  0  0  0  0  0  0
  141.5420   72.6970  220.1120 C   0  0  0  0  0  0  0  0  0  0  0  0
  142.7440   73.4940  219.9830 C   0  0  0  0  0  0  0  0  0  0  0  0
  143.2060   73.9250  221.1250 O   0  0  0  0  0  0  0  0  0  0  0  0
  143.4700   73.8750  218.8230 N   0  0  0  0  0  0  0  0  0  0  0  0
  144.1620   73.0620  217.8440 C   0  0  0  0  0  0  0  0  0  0  0  0
  144.4080   73.9030  216.6380 C   0  0  0  0  0  0  0  0  0  0  0  0
  143.7030   75.1770  216.9080 C   0  0  0  0  0  0  0  0  0  0  0  0
  143.6200   75.2590  218.4210 C   0  0  1  0  0  0  0  0  0  0  0  0
  142.4340   76.1090  218.7690 C   0  0  0  0  0  0  0  0  0  0  0  0
  141.7920   76.5940  217.7980 O   0  0  0  0  0  0  0  0  0  0  0  0
  142.0090   76.3800  220.0720 N   0  0  0  0  0  0  0  0  0  0  0  0
  140.8670   77.2000  220.4290 C   0  0  0  0  0  0  0  0  0  0  0  0
  141.2020   78.2440  221.4120 C   0  0  0  0  0  0  0  0  0  0  0  0
  141.5380   78.0280  222.7170 C   0  0  0  0  0  0  0  0  0  0  0  0
  141.8430   79.0590  223.5770 C   0  0  0  0  0  0  0  0  0  0  0  0
  141.8260   80.3700  223.1620 C   0  0  0  0  0  0  0  0  0  0  0  0
  142.2200   81.6500  224.2870 Cl  0  0  0  0  0  0  0  0  0  0  0  0
  141.4890   80.6140  221.8490 C   0  0  0  0  0  0  0  0  0  0  0  0
  141.4500   82.2630  221.2670 Cl  0  0  0  0  0  0  0  0  0  0  0  0
  141.1810   79.5690  220.9820 C   0  0  0  0  0  0  0  0  0  0  0  0
  140.2960   71.5310  223.5730 C   0  0  0  0  0  0  0  0  0  0  0  0
  139.6430   70.3270  223.4540 C   0  0  0  0  0  0  0  0  0  0  0  0
  139.4400   69.4780  224.5240 C   0  0  0  0  0  0  0  0  0  0  0  0
  139.9180   69.8640  225.7680 C   0  0  0  0  0  0  0  0  0  0  0  0
  139.7140   69.0210  226.8190 C   0  0  0  0  0  0  0  0  0  0  0  0
  140.1890   69.4030  228.0570 C   0  0  0  0  0  0  0  0  0  0  0  0
  139.9750   68.5470  229.0950 F   0  0  0  0  0  0  0  0  0  0  0  0
  140.8550   70.6120  228.2210 C   0  0  0  0  0  0  0  0  0  0  0  0
  141.0390   71.4420  227.1130 C   0  0  0  0  0  0  0  0  0  0  0  0
  140.5700   71.0740  225.8670 C   0  0  0  0  0  0  0  0  0  0  0  0
  140.7480   71.8790  224.7870 N   0  0  0  0  0  0  0  0  0  0  0  0
  141.7050   70.9850  221.4170 H   0  0  0  0  0  0  0  0  0  0  0  0
  141.5587   71.9699  219.2867 H   0  0  0  0  0  0  0  0  0  0  0  0
  140.7470   73.4572  220.1188 H   0  0  0  0  0  0  0  0  0  0  0  0
  145.1198   72.7137  218.2579 H   0  0  0  0  0  0  0  0  0  0  0  0
  143.5556   72.1831  217.5798 H   0  0  0  0  0  0  0  0  0  0  0  0
  145.4854   74.0787  216.5025 H   0  0  0  0  0  0  0  0  0  0  0  0
  144.0492   73.4196  215.7174 H   0  0  0  0  0  0  0  0  0  0  0  0
  144.2713   76.0278  216.5041 H   0  0  0  0  0  0  0  0  0  0  0  0
  142.7107   75.2117  216.4345 H   0  0  0  0  0  0  0  0  0  0  0  0
  144.4855   75.7153  218.9238 H   0  0  0  0  0  0  0  0  0  0  0  0
  142.5300   75.9580  220.8830 H   0  0  0  0  0  0  0  0  0  0  0  0
  140.4830   77.6839  219.5188 H   0  0  0  0  0  0  0  0  0  0  0  0
  140.1151   76.5409  220.8876 H   0  0  0  0  0  0  0  0  0  0  0  0
  141.5661   76.9952  223.0945 H   0  0  0  0  0  0  0  0  0  0  0  0
  142.1063   78.8288  224.6199 H   0  0  0  0  0  0  0  0  0  0  0  0
  140.9162   79.7937  219.9383 H   0  0  0  0  0  0  0  0  0  0  0  0
  139.2664   70.0274  222.4648 H   0  0  0  0  0  0  0  0  0  0  0  0
  138.9133   68.5211  224.3935 H   0  0  0  0  0  0  0  0  0  0  0  0
  139.1867   68.0650  226.6846 H   0  0  0  0  0  0  0  0  0  0  0  0
  141.2320   70.9110  229.2102 H   0  0  0  0  0  0  0  0  0  0  0  0
  141.5641   72.4010  227.2341 H   0  0  0  0  0  0  0  0  0  0  0  0
  1  2  2  0
  2  3  1  0
  3  4  1  0
  4  5  1  0
  5  6  2  0
  5  7  1  0
  7  8  1  0
  8  9  1  0
  9 10  1  0
 10 11  1  0
 11 12  1  0
 12 13  2  0
 12 14  1  0
 14 15  1  0
 15 16  1  0
 16 17  2  0
 17 18  1  0
 18 19  2  0
 19 20  1  0
 19 21  1  0
 21 22  1  0
 21 23  2  0
  2 24  1  0
 24 25  2  0
 25 26  1  0
 26 27  2  0
 27 28  1  0
 28 29  2  0
 29 30  1  0
 29 31  1  0
 31 32  2  0
 32 33  1  0
 33 34  2  0
 11  7  1  0
 23 16  1  0
 34 24  1  0
 33 27  1  0
  3 35  1  0
  4 36  1  0
  4 37  1  0
  8 38  1  0
  8 39  1  0
  9 40  1  0
  9 41  1  0
 10 42  1  0
 10 43  1  0
 11 44  1  1
 14 45  1  0
 15 46  1  0
 15 47  1  0
 17 48  1  0
 18 49  1  0
 23 50  1  0
 25 51  1  0
 26 52  1  0
 28 53  1  0
 31 54  1  0
 32 55  1  0
M  END
>  <smiles>  (13) 
O=C(NCC(=O)N1CCC[C@H]1C(=O)NCc1ccc(Cl)c(Cl)c1)c1ccc2cc(F)ccc2n1

>  <score_type>  (13) 
oracle

>  <origin>  (13) 
autodockgpu

>  <m_score__min__energy>  (13) 
-9.0099999999999998

>  <m_primary>  (13) 
energy

>  <meeko>  (13) 
{"free_energy": -8.92, "intermolecular_energy": -11.01, "internal_energy": -2.13, "cluster_size": 4, "cluster_id": 2, "rank_in_cluster": 1}

>  <energy>  (13) 
-7.53

>  <cluster_rmsd>  (13) 
1.42

>  <rmsd>  (13) 
270.33

>  <cluster>  (13) 
6

$$$$

     RDKit          3D

 55 58  0  0  0  0  0  0  0  0999 V2000
  137.9630   71.3060  220.8470 O   0  0  0  0  0  0  0  0  0  0  0  0
  138.7030   72.1850  221.3990 C   0  0  0  0  0  0  0  0  0  0  0  0
  138.1450   73.1160  222.3110 N   0  0  0  0  0  0  0  0  0  0  0  0
  136.7820   73.1760  222.7150 C   0  0  0  0  0  0  0  0  0  0  0  0
  136.0260   71.9680  222.9670 C   0  0  0  0  0  0  0  0  0  0  0  0
  136.0300   71.6050  224.2210 O   0  0  0  0  0  0  0  0  0  0  0  0
  135.3050   71.1350  222.0700 N   0  0  0  0  0  0  0  0  0  0  0  0
  134.7170   71.4360  220.7800 C   0  0  0  0  0  0  0  0  0  0  0  0
  134.4360   70.1460  220.0890 C   0  0  0  0  0  0  0  0  0  0  0  0
  135.0180   69.1050  220.9690 C   0  0  0  0  0  0  0  0  0  0  0  0
  135.0470   69.7370  222.3480 C   0  0  1  0  0  0  0  0  0  0  0  0
  136.1420   69.0760  223.1310 C   0  0  0  0  0  0  0  0  0  0  0  0
  135.8080   68.5670  224.2350 O   0  0  0  0  0  0  0  0  0  0  0  0
  137.4730   68.9880  222.7140 N   0  0  0  0  0  0  0  0  0  0  0  0
  138.5450   68.3550  223.4560 C   0  0  0  0  0  0  0  0  0  0  0  0
  139.1650   69.2570  224.4400 C   0  0  0  0  0  0  0  0  0  0  0  0
  139.5030   70.5620  224.2210 C   0  0  0  0  0  0  0  0  0  0  0  0
  140.0780   71.3450  225.1960 C   0  0  0  0  0  0  0  0  0  0  0  0
  140.3420   70.8520  226.4510 C   0  0  0  0  0  0  0  0  0  0  0  0
  141.0730   71.8820  227.6610 Cl  0  0  0  0  0  0  0  0  0  0  0  0
  140.0100   69.5390  226.6980 C   0  0  0  0  0  0  0  0  0  0  0  0
  140.3250   68.8580  228.2790 Cl  0  0  0  0  0  0  0  0  0  0  0  0
  139.4290   68.7480  225.7100 C   0  0  0  0  0  0  0  0  0  0  0  0
  140.1400   72.2160  221.0760 C   0  0  0  0  0  0  0  0  0  0  0  0
  140.7940   71.0510  220.7520 C   0  0  0  0  0  0  0  0  0  0  0  0
  142.1390   71.0100  220.4390 C   0  0  0  0  0  0  0  0  0  0  0  0
  142.8520   72.2000  220.4530 C   0  0  0  0  0  0  0  0  0  0  0  0
  144.1780   72.1520  220.1420 C   0  0  0  0  0  0  0  0  0  0  0  0
  144.8900   73.3340  220.1560 C   0  0  0  0  0  0  0  0  0  0  0  0
  146.2130   73.2660  219.8430 F   0  0  0  0  0  0  0  0  0  0  0  0
  144.2670   74.5350  220.4770 C   0  0  0  0  0  0  0  0  0  0  0  0
  142.9060   74.5320  220.7890 C   0  0  0  0  0  0  0  0  0  0  0  0
  142.1790   73.3570  220.7800 C   0  0  0  0  0  0  0  0  0  0  0  0
  140.8550   73.3510  221.0820 N   0  0  0  0  0  0  0  0  0  0  0  0
  138.8420   73.8200  222.7110 H   0  0  0  0  0  0  0  0  0  0  0  0
  136.7572   73.7606  223.6465 H   0  0  0  0  0  0  0  0  0  0  0  0
  136.2843   73.5923  221.8268 H   0  0  0  0  0  0  0  0  0  0  0  0
  133.7809   71.9969  220.9183 H   0  0  0  0  0  0  0  0  0  0  0  0
  135.4060   72.0485  220.1799 H   0  0  0  0  0  0  0  0  0  0  0  0
  133.3521   69.9956  219.9767 H   0  0  0  0  0  0  0  0  0  0  0  0
  134.8644   70.1178  219.0762 H   0  0  0  0  0  0  0  0  0  0  0  0
  134.3897   68.2021  220.9694 H   0  0  0  0  0  0  0  0  0  0  0  0
  136.0175   68.7896  220.6351 H   0  0  0  0  0  0  0  0  0  0  0  0
  134.1298   69.6258  222.9450 H   0  0  0  0  0  0  0  0  0  0  0  0
  137.7480   69.3930  221.7820 H   0  0  0  0  0  0  0  0  0  0  0  0
  138.1377   67.4819  223.9868 H   0  0  0  0  0  0  0  0  0  0  0  0
  139.3230   68.0660  222.7340 H   0  0  0  0  0  0  0  0  0  0  0  0
  139.3091   71.0022  223.2318 H   0  0  0  0  0  0  0  0  0  0  0  0
  140.3322   72.3900  224.9651 H   0  0  0  0  0  0  0  0  0  0  0  0
  139.1738   67.7022  225.9363 H   0  0  0  0  0  0  0  0  0  0  0  0
  140.2220   70.1115  220.7415 H   0  0  0  0  0  0  0  0  0  0  0  0
  142.6313   70.0595  220.1855 H   0  0  0  0  0  0  0  0  0  0  0  0
  144.6661   71.1996  219.8874 H   0  0  0  0  0  0  0  0  0  0  0  0
  144.8386   75.4748  220.4850 H   0  0  0  0  0  0  0  0  0  0  0  0
  142.4059   75.4776  221.0454 H   0  0  0  0  0  0  0  0  0  0  0  0
  1  2  2  0
  2  3  1  0
  3  4  1  0
  4  5  1  0
  5  6  2  0
  5  7  1  0
  7  8  1  0
  8  9  1  0
  9 10  1  0
 10 11  1  0
 11 12  1  0
 12 13  2  0
 12 14  1  0
 14 15  1  0
 15 16  1  0
 16 17  2  0
 17 18  1  0
 18 19  2  0
 19 20  1  0
 19 21  1  0
 21 22  1  0
 21 23  2  0
  2 24  1  0
 24 25  2  0
 25 26  1  0
 26 27  2  0
 27 28  1  0
 28 29  2  0
 29 30  1  0
 29 31  1  0
 31 32  2  0
 32 33  1  0
 33 34  2  0
 11  7  1  0
 23 16  1  0
 34 24  1  0
 33 27  1  0
  3 35  1  0
  4 36  1  0
  4 37  1  0
  8 38  1  0
  8 39  1  0
  9 40  1  0
  9 41  1  0
 10 42  1  0
 10 43  1  0
 11 44  1  1
 14 45  1  0
 15 46  1  0
 15 47  1  0
 17 48  1  0
 18 49  1  0
 23 50  1  0
 25 51  1  0
 26 52  1  0
 28 53  1  0
 31 54  1  0
 32 55  1  0
M  END
>  <smiles>  (14) 
O=C(NCC(=O)N1CCC[C@H]1C(=O)NCc1ccc(Cl)c(Cl)c1)c1ccc2cc(F)ccc2n1

>  <score_type>  (14) 
oracle

>  <origin>  (14) 
autodockgpu

>  <m_score__min__energy>  (14) 
-9.0099999999999998

>  <m_primary>  (14) 
energy

>  <meeko>  (14) 
{"free_energy": -6.99, "intermolecular_energy": -9.08, "internal_energy": -3.57, "cluster_size": 1, "cluster_id": 7, "rank_in_cluster": 1}

>  <energy>  (14) 
-6.99

>  <cluster_rmsd>  (14) 
0.0

>  <rmsd>  (14) 
269.5

>  <cluster>  (14) 
7

$$$$

     RDKit          3D

 55 58  0  0  0  0  0  0  0  0999 V2000
  139.9180   74.3030  222.1590 O   0  0  0  0  0  0  0  0  0  0  0  0
  139.6810   75.2520  221.3400 C   0  0  0  0  0  0  0  0  0  0  0  0
  138.8510   75.0310  220.2120 N   0  0  0  0  0  0  0  0  0  0  0  0
  138.2040   73.8090  219.8780 C   0  0  0  0  0  0  0  0  0  0  0  0
  138.9620   72.5890  219.6980 C   0  0  0  0  0  0  0  0  0  0  0  0
  138.2450   71.5940  219.2500 O   0  0  0  0  0  0  0  0  0  0  0  0
  140.3360   72.3200  219.9390 N   0  0  0  0  0  0  0  0  0  0  0  0
  141.5120   73.1070  219.6240 C   0  0  0  0  0  0  0  0  0  0  0  0
  142.6480   72.5780  220.4320 C   0  0  0  0  0  0  0  0  0  0  0  0
  142.0450   71.5600  221.3230 C   0  0  0  0  0  0  0  0  0  0  0  0
  140.7850   71.1150  220.6030 C   0  0  1  0  0  0  0  0  0  0  0  0
  139.8210   70.6120  221.6360 C   0  0  0  0  0  0  0  0  0  0  0  0
  139.5760   69.3760  221.6150 O   0  0  0  0  0  0  0  0  0  0  0  0
  139.2020   71.4140  222.5990 N   0  0  0  0  0  0  0  0  0  0  0  0
  138.2670   70.9490  223.6040 C   0  0  0  0  0  0  0  0  0  0  0  0
  138.9360   70.3080  224.7480 C   0  0  0  0  0  0  0  0  0  0  0  0
  138.9620   68.9670  225.0050 C   0  0  0  0  0  0  0  0  0  0  0  0
  139.6140   68.4420  226.0980 C   0  0  0  0  0  0  0  0  0  0  0  0
  140.2780   69.2450  226.9940 C   0  0  0  0  0  0  0  0  0  0  0  0
  141.0930   68.5360  228.3690 Cl  0  0  0  0  0  0  0  0  0  0  0  0
  140.2660   70.6010  226.7580 C   0  0  0  0  0  0  0  0  0  0  0  0
  141.0940   71.6720  227.8670 Cl  0  0  0  0  0  0  0  0  0  0  0  0
  139.6050   71.1310  225.6520 C   0  0  0  0  0  0  0  0  0  0  0  0
  140.2810   76.5750  221.5870 C   0  0  0  0  0  0  0  0  0  0  0  0
  141.3950   76.9640  220.8800 C   0  0  0  0  0  0  0  0  0  0  0  0
  142.0050   78.1900  221.0620 C   0  0  0  0  0  0  0  0  0  0  0  0
  141.4660   79.0580  221.9990 C   0  0  0  0  0  0  0  0  0  0  0  0
  142.0730   80.2660  222.1720 C   0  0  0  0  0  0  0  0  0  0  0  0
  141.5390   81.1330  223.1040 C   0  0  0  0  0  0  0  0  0  0  0  0
  142.1600   82.3340  223.2630 F   0  0  0  0  0  0  0  0  0  0  0  0
  140.4140   80.7790  223.8400 C   0  0  0  0  0  0  0  0  0  0  0  0
  139.8270   79.5300  223.6260 C   0  0  0  0  0  0  0  0  0  0  0  0
  140.3500   78.6510  222.6970 C   0  0  0  0  0  0  0  0  0  0  0  0
  139.7810   77.4360  222.4860 N   0  0  0  0  0  0  0  0  0  0  0  0
  138.7230   75.8830  219.5810 H   0  0  0  0  0  0  0  0  0  0  0  0
  137.4776   73.6104  220.6798 H   0  0  0  0  0  0  0  0  0  0  0  0
  137.8205   74.0070  218.8662 H   0  0  0  0  0  0  0  0  0  0  0  0
  141.7435   73.0203  218.5521 H   0  0  0  0  0  0  0  0  0  0  0  0
  141.3370   74.1675  219.8577 H   0  0  0  0  0  0  0  0  0  0  0  0
  143.4060   72.1201  219.7795 H   0  0  0  0  0  0  0  0  0  0  0  0
  143.1570   73.3722  220.9979 H   0  0  0  0  0  0  0  0  0  0  0  0
  142.7315   70.7120  221.4635 H   0  0  0  0  0  0  0  0  0  0  0  0
  141.8323   71.9585  222.3260 H   0  0  0  0  0  0  0  0  0  0  0  0
  140.9119   70.2992  219.8761 H   0  0  0  0  0  0  0  0  0  0  0  0
  139.4220   72.4430  222.6310 H   0  0  0  0  0  0  0  0  0  0  0  0
  137.6883   71.8093  223.9714 H   0  0  0  0  0  0  0  0  0  0  0  0
  137.6194   70.1952  223.1324 H   0  0  0  0  0  0  0  0  0  0  0  0
  138.4447   68.2835  224.3157 H   0  0  0  0  0  0  0  0  0  0  0  0
  139.6032   67.3537  226.2579 H   0  0  0  0  0  0  0  0  0  0  0  0
  139.6113   72.2189  225.4894 H   0  0  0  0  0  0  0  0  0  0  0  0
  141.8178   76.2698  220.1388 H   0  0  0  0  0  0  0  0  0  0  0  0
  142.8947   78.4701  220.4790 H   0  0  0  0  0  0  0  0  0  0  0  0
  142.9622   80.5419  221.5862 H   0  0  0  0  0  0  0  0  0  0  0  0
  139.9917   81.4735  224.5812 H   0  0  0  0  0  0  0  0  0  0  0  0
  138.9368   79.2423  224.2045 H   0  0  0  0  0  0  0  0  0  0  0  0
  1  2  2  0
  2  3  1  0
  3  4  1  0
  4  5  1  0
  5  6  2  0
  5  7  1  0
  7  8  1  0
  8  9  1  0
  9 10  1  0
 10 11  1  0
 11 12  1  0
 12 13  2  0
 12 14  1  0
 14 15  1  0
 15 16  1  0
 16 17  2  0
 17 18  1  0
 18 19  2  0
 19 20  1  0
 19 21  1  0
 21 22  1  0
 21 23  2  0
  2 24  1  0
 24 25  2  0
 25 26  1  0
 26 27  2  0
 27 28  1  0
 28 29  2  0
 29 30  1  0
 29 31  1  0
 31 32  2  0
 32 33  1  0
 33 34  2  0
 11  7  1  0
 23 16  1  0
 34 24  1  0
 33 27  1  0
  3 35  1  0
  4 36  1  0
  4 37  1  0
  8 38  1  0
  8 39  1  0
  9 40  1  0
  9 41  1  0
 10 42  1  0
 10 43  1  0
 11 44  1  6
 14 45  1  0
 15 46  1  0
 15 47  1  0
 17 48  1  0
 18 49  1  0
 23 50  1  0
 25 51  1  0
 26 52  1  0
 28 53  1  0
 31 54  1  0
 32 55  1  0
M  END
>  <smiles>  (15) 
O=C(NCC(=O)N1CCC[C@H]1C(=O)NCc1ccc(Cl)c(Cl)c1)c1ccc2cc(F)ccc2n1

>  <score_type>  (15) 
oracle

>  <origin>  (15) 
autodockgpu

>  <m_score__min__energy>  (15) 
-9.0099999999999998

>  <m_primary>  (15) 
energy

>  <meeko>  (15) 
{"free_energy": -8.0, "intermolecular_energy": -10.08, "internal_energy": -2.76, "cluster_size": 1, "cluster_id": 5, "rank_in_cluster": 1}

>  <energy>  (15) 
-6.98

>  <cluster_rmsd>  (15) 
0.0

>  <rmsd>  (15) 
270.62

>  <cluster>  (15) 
8

$$$$

     RDKit          3D

 55 58  0  0  0  0  0  0  0  0999 V2000
  140.3920   70.3760  220.9610 O   0  0  0  0  0  0  0  0  0  0  0  0
  139.8330   71.1160  221.8360 C   0  0  0  0  0  0  0  0  0  0  0  0
  139.0730   72.2440  221.4350 N   0  0  0  0  0  0  0  0  0  0  0  0
  138.8360   72.6590  220.0950 C   0  0  0  0  0  0  0  0  0  0  0  0
  139.7770   73.5130  219.4020 C   0  0  0  0  0  0  0  0  0  0  0  0
  139.2220   74.2580  218.4840 O   0  0  0  0  0  0  0  0  0  0  0  0
  141.1810   73.6500  219.5630 N   0  0  0  0  0  0  0  0  0  0  0  0
  142.2490   73.5440  218.5890 C   0  0  0  0  0  0  0  0  0  0  0  0
  143.4730   74.1580  219.1800 C   0  0  0  0  0  0  0  0  0  0  0  0
  143.0260   74.7460  220.4650 C   0  0  0  0  0  0  0  0  0  0  0  0
  141.7890   73.9510  220.8430 C   0  0  1  0  0  0  0  0  0  0  0  0
  140.9350   74.8230  221.7150 C   0  0  0  0  0  0  0  0  0  0  0  0
  140.0060   74.2440  222.3410 O   0  0  0  0  0  0  0  0  0  0  0  0
  141.1110   76.2000  221.8740 N   0  0  0  0  0  0  0  0  0  0  0  0
  140.2960   77.0590  222.7100 C   0  0  0  0  0  0  0  0  0  0  0  0
  140.5590   78.4890  222.4820 C   0  0  0  0  0  0  0  0  0  0  0  0
  140.4130   79.4820  223.4080 C   0  0  0  0  0  0  0  0  0  0  0  0
  140.6840   80.8000  223.1200 C   0  0  0  0  0  0  0  0  0  0  0  0
  141.1190   81.1900  221.8760 C   0  0  0  0  0  0  0  0  0  0  0  0
  141.4510   82.8760  221.5520 Cl  0  0  0  0  0  0  0  0  0  0  0  0
  141.2740   80.2070  220.9230 C   0  0  0  0  0  0  0  0  0  0  0  0
  141.8240   80.6460  219.3220 Cl  0  0  0  0  0  0  0  0  0  0  0  0
  140.9990   78.8740  221.2180 C   0  0  0  0  0  0  0  0  0  0  0  0
  139.9890   70.7810  223.2620 C   0  0  0  0  0  0  0  0  0  0  0  0
  140.4950   71.7170  224.1330 C   0  0  0  0  0  0  0  0  0  0  0  0
  140.6670   71.4670  225.4810 C   0  0  0  0  0  0  0  0  0  0  0  0
  140.3120   70.2170  225.9670 C   0  0  0  0  0  0  0  0  0  0  0  0
  140.4830   69.9790  227.2980 C   0  0  0  0  0  0  0  0  0  0  0  0
  140.1300   68.7360  227.7840 C   0  0  0  0  0  0  0  0  0  0  0  0
  140.3090   68.5170  229.1160 F   0  0  0  0  0  0  0  0  0  0  0  0
  139.6150   67.7620  226.9380 C   0  0  0  0  0  0  0  0  0  0  0  0
  139.4580   68.0540  225.5810 C   0  0  0  0  0  0  0  0  0  0  0  0
  139.8070   69.2940  225.0790 C   0  0  0  0  0  0  0  0  0  0  0  0
  139.6550   69.5810  223.7600 N   0  0  0  0  0  0  0  0  0  0  0  0
  138.6560   72.8080  222.2410 H   0  0  0  0  0  0  0  0  0  0  0  0
  138.7454   71.7416  219.4948 H   0  0  0  0  0  0  0  0  0  0  0  0
  137.9510   73.3046  220.1945 H   0  0  0  0  0  0  0  0  0  0  0  0
  142.4376   72.4858  218.3552 H   0  0  0  0  0  0  0  0  0  0  0  0
  141.9717   74.0624  217.6593 H   0  0  0  0  0  0  0  0  0  0  0  0
  144.2443   73.3930  219.3526 H   0  0  0  0  0  0  0  0  0  0  0  0
  143.9195   74.9114  218.5144 H   0  0  0  0  0  0  0  0  0  0  0  0
  143.8060   74.6383  221.2331 H   0  0  0  0  0  0  0  0  0  0  0  0
  142.8187   75.8230  220.3801 H   0  0  0  0  0  0  0  0  0  0  0  0
  141.9686   73.0263  221.4111 H   0  0  0  0  0  0  0  0  0  0  0  0
  141.8990   76.6800  221.3690 H   0  0  0  0  0  0  0  0  0  0  0  0
  139.2364   76.8573  222.4943 H   0  0  0  0  0  0  0  0  0  0  0  0
  140.5471   76.8380  223.7579 H   0  0  0  0  0  0  0  0  0  0  0  0
  140.0669   79.2193  224.4186 H   0  0  0  0  0  0  0  0  0  0  0  0
  140.5493   81.5596  223.9041 H   0  0  0  0  0  0  0  0  0  0  0  0
  141.1319   78.1104  220.4375 H   0  0  0  0  0  0  0  0  0  0  0  0
  140.7744   72.7058  223.7403 H   0  0  0  0  0  0  0  0  0  0  0  0
  141.0745   72.2385  226.1509 H   0  0  0  0  0  0  0  0  0  0  0  0
  140.8898   70.7536  227.9646 H   0  0  0  0  0  0  0  0  0  0  0  0
  139.3345   66.7738  227.3315 H   0  0  0  0  0  0  0  0  0  0  0  0
  139.0518   67.2882  224.9038 H   0  0  0  0  0  0  0  0  0  0  0  0
  1  2  2  0
  2  3  1  0
  3  4  1  0
  4  5  1  0
  5  6  2  0
  5  7  1  0
  7  8  1  0
  8  9  1  0
  9 10  1  0
 10 11  1  0
 11 12  1  0
 12 13  2  0
 12 14  1  0
 14 15  1  0
 15 16  1  0
 16 17  2  0
 17 18  1  0
 18 19  2  0
 19 20  1  0
 19 21  1  0
 21 22  1  0
 21 23  2  0
  2 24  1  0
 24 25  2  0
 25 26  1  0
 26 27  2  0
 27 28  1  0
 28 29  2  0
 29 30  1  0
 29 31  1  0
 31 32  2  0
 32 33  1  0
 33 34  2  0
 11  7  1  0
 23 16  1  0
 34 24  1  0
 33 27  1  0
  3 35  1  0
  4 36  1  0
  4 37  1  0
  8 38  1  0
  8 39  1  0
  9 40  1  0
  9 41  1  0
 10 42  1  0
 10 43  1  0
 11 44  1  1
 14 45  1  0
 15 46  1  0
 15 47  1  0
 17 48  1  0
 18 49  1  0
 23 50  1  0
 25 51  1  0
 26 52  1  0
 28 53  1  0
 31 54  1  0
 32 55  1  0
M  END
>  <smiles>  (16) 
O=C(NCC(=O)N1CCC[C@H]1C(=O)NCc1ccc(Cl)c(Cl)c1)c1ccc2cc(F)ccc2n1

>  <score_type>  (16) 
oracle

>  <origin>  (16) 
autodockgpu

>  <m_score__min__energy>  (16) 
-9.0099999999999998

>  <m_primary>  (16) 
energy

>  <meeko>  (16) 
{"free_energy": -8.25, "intermolecular_energy": -10.34, "internal_energy": -2.2, "cluster_size": 4, "cluster_id": 2, "rank_in_cluster": 3}

>  <energy>  (16) 
-5.81

>  <cluster_rmsd>  (16) 
1.32

>  <rmsd>  (16) 
270.63

>  <cluster>  (16) 
8

$$$$

     RDKit          3D

 55 58  0  0  0  0  0  0  0  0999 V2000
  139.8820   73.0050  222.7290 O   0  0  0  0  0  0  0  0  0  0  0  0
  139.9520   71.7340  222.8020 C   0  0  0  0  0  0  0  0  0  0  0  0
  139.7660   70.9410  221.6410 N   0  0  0  0  0  0  0  0  0  0  0  0
  139.5110   71.4280  220.3290 C   0  0  0  0  0  0  0  0  0  0  0  0
  140.5600   72.0480  219.5470 C   0  0  0  0  0  0  0  0  0  0  0  0
  140.1640   72.4370  218.3650 O   0  0  0  0  0  0  0  0  0  0  0  0
  141.9240   72.2810  219.8660 N   0  0  0  0  0  0  0  0  0  0  0  0
  143.1260   71.6640  219.3410 C   0  0  0  0  0  0  0  0  0  0  0  0
  144.2840   72.5300  219.7040 C   0  0  0  0  0  0  0  0  0  0  0  0
  143.6830   73.7340  220.3260 C   0  0  0  0  0  0  0  0  0  0  0  0
  142.3350   73.2680  220.8430 C   0  0  1  0  0  0  0  0  0  0  0  0
  141.4290   74.4620  220.8960 C   0  0  0  0  0  0  0  0  0  0  0  0
  141.3670   75.0660  222.0020 O   0  0  0  0  0  0  0  0  0  0  0  0
  140.6750   74.9350  219.8180 N   0  0  0  0  0  0  0  0  0  0  0  0
  139.7940   76.0850  219.8500 C   0  0  0  0  0  0  0  0  0  0  0  0
  138.7700   75.9880  220.9030 C   0  0  0  0  0  0  0  0  0  0  0  0
  138.3870   76.9990  221.7360 C   0  0  0  0  0  0  0  0  0  0  0  0
  137.4160   76.8320  222.6970 C   0  0  0  0  0  0  0  0  0  0  0  0
  136.7760   75.6270  222.8700 C   0  0  0  0  0  0  0  0  0  0  0  0
  135.5480   75.4570  224.1030 Cl  0  0  0  0  0  0  0  0  0  0  0  0
  137.1440   74.5910  222.0420 C   0  0  0  0  0  0  0  0  0  0  0  0
  136.3630   73.0350  222.2180 Cl  0  0  0  0  0  0  0  0  0  0  0  0
  138.1270   74.7630  221.0700 C   0  0  0  0  0  0  0  0  0  0  0  0
  140.2290   71.1070  224.1060 C   0  0  0  0  0  0  0  0  0  0  0  0
  140.7430   71.8630  225.1330 C   0  0  0  0  0  0  0  0  0  0  0  0
  141.0250   71.3380  226.3790 C   0  0  0  0  0  0  0  0  0  0  0  0
  140.7770   69.9910  226.5950 C   0  0  0  0  0  0  0  0  0  0  0  0
  141.0560   69.4800  227.8280 C   0  0  0  0  0  0  0  0  0  0  0  0
  140.8100   68.1400  228.0440 C   0  0  0  0  0  0  0  0  0  0  0  0
  141.0960   67.6480  229.2820 F   0  0  0  0  0  0  0  0  0  0  0  0
  140.2910   67.3400  227.0330 C   0  0  0  0  0  0  0  0  0  0  0  0
  140.0200   67.9090  225.7870 C   0  0  0  0  0  0  0  0  0  0  0  0
  140.2620   69.2500  225.5540 C   0  0  0  0  0  0  0  0  0  0  0  0
  139.9990   69.8070  224.3430 N   0  0  0  0  0  0  0  0  0  0  0  0
  139.8310   69.8880  221.8070 H   0  0  0  0  0  0  0  0  0  0  0  0
  139.1484   70.5711  219.7423 H   0  0  0  0  0  0  0  0  0  0  0  0
  138.8190   72.2634  220.5112 H   0  0  0  0  0  0  0  0  0  0  0  0
  143.2552   70.6641  219.7809 H   0  0  0  0  0  0  0  0  0  0  0  0
  143.0555   71.5580  218.2484 H   0  0  0  0  0  0  0  0  0  0  0  0
  144.9435   72.0145  220.4177 H   0  0  0  0  0  0  0  0  0  0  0  0
  144.9018   72.7817  218.8293 H   0  0  0  0  0  0  0  0  0  0  0  0
  144.3108   74.0980  221.1527 H   0  0  0  0  0  0  0  0  0  0  0  0
  143.5904   74.5678  219.6146 H   0  0  0  0  0  0  0  0  0  0  0  0
  142.3343   72.8331  221.8534 H   0  0  0  0  0  0  0  0  0  0  0  0
  140.7430   74.4450  218.8890 H   0  0  0  0  0  0  0  0  0  0  0  0
  140.3985   76.9864  220.0292 H   0  0  0  0  0  0  0  0  0  0  0  0
  139.2721   76.1303  218.8827 H   0  0  0  0  0  0  0  0  0  0  0  0
  138.8712   77.9816  221.6358 H   0  0  0  0  0  0  0  0  0  0  0  0
  137.1457   77.6816  223.3413 H   0  0  0  0  0  0  0  0  0  0  0  0
  138.4005   73.9167  220.4227 H   0  0  0  0  0  0  0  0  0  0  0  0
  140.9378   72.9308  224.9548 H   0  0  0  0  0  0  0  0  0  0  0  0
  141.4355   71.9718  227.1789 H   0  0  0  0  0  0  0  0  0  0  0  0
  141.4648   70.1170  228.6262 H   0  0  0  0  0  0  0  0  0  0  0  0
  140.0962   66.2723  227.2121 H   0  0  0  0  0  0  0  0  0  0  0  0
  139.6091   67.2828  224.9813 H   0  0  0  0  0  0  0  0  0  0  0  0
  1  2  2  0
  2  3  1  0
  3  4  1  0
  4  5  1  0
  5  6  2  0
  5  7  1  0
  7  8  1  0
  8  9  1  0
  9 10  1  0
 10 11  1  0
 11 12  1  0
 12 13  2  0
 12 14  1  0
 14 15  1  0
 15 16  1  0
 16 17  2  0
 17 18  1  0
 18 19  2  0
 19 20  1  0
 19 21  1  0
 21 22  1  0
 21 23  2  0
  2 24  1  0
 24 25  2  0
 25 26  1  0
 26 27  2  0
 27 28  1  0
 28 29  2  0
 29 30  1  0
 29 31  1  0
 31 32  2  0
 32 33  1  0
 33 34  2  0
 11  7  1  0
 23 16  1  0
 34 24  1  0
 33 27  1  0
  3 35  1  0
  4 36  1  0
  4 37  1  0
  8 38  1  0
  8 39  1  0
  9 40  1  0
  9 41  1  0
 10 42  1  0
 10 43  1  0
 11 44  1  1
 14 45  1  0
 15 46  1  0
 15 47  1  0
 17 48  1  0
 18 49  1  0
 23 50  1  0
 25 51  1  0
 26 52  1  0
 28 53  1  0
 31 54  1  0
 32 55  1  0
M  END
>  <smiles>  (17) 
O=C(NCC(=O)N1CCC[C@H]1C(=O)NCc1ccc(Cl)c(Cl)c1)c1ccc2cc(F)ccc2n1

>  <score_type>  (17) 
oracle

>  <origin>  (17) 
autodockgpu

>  <m_score__min__energy>  (17) 
-9.0099999999999998

>  <m_primary>  (17) 
energy

>  <meeko>  (17) 
{"free_energy": -6.94, "intermolecular_energy": -9.03, "internal_energy": -3.53, "cluster_size": 1, "cluster_id": 9, "rank_in_cluster": 1}

>  <energy>  (17) 
-6.94

>  <cluster_rmsd>  (17) 
0.0

>  <rmsd>  (17) 
270.31

>  <cluster>  (17) 
9

$$$$

     RDKit          3D

 55 58  0  0  0  0  0  0  0  0999 V2000
  141.4010   73.5360  221.0930 O   0  0  0  0  0  0  0  0  0  0  0  0
  140.4780   73.6080  221.9690 C   0  0  0  0  0  0  0  0  0  0  0  0
  139.8430   74.8480  222.2360 N   0  0  0  0  0  0  0  0  0  0  0  0
  140.1230   76.0850  221.5920 C   0  0  0  0  0  0  0  0  0  0  0  0
  139.8140   77.3460  222.2340 C   0  0  0  0  0  0  0  0  0  0  0  0
  138.5460   77.4890  222.5110 O   0  0  0  0  0  0  0  0  0  0  0  0
  140.6650   78.4260  222.5890 N   0  0  0  0  0  0  0  0  0  0  0  0
  141.1560   78.8420  223.8870 C   0  0  0  0  0  0  0  0  0  0  0  0
  142.3100   79.7610  223.6700 C   0  0  0  0  0  0  0  0  0  0  0  0
  142.5490   79.7380  222.2080 C   0  0  0  0  0  0  0  0  0  0  0  0
  141.2170   79.3350  221.6050 C   0  0  1  0  0  0  0  0  0  0  0  0
  141.4910   78.6820  220.2830 C   0  0  0  0  0  0  0  0  0  0  0  0
  141.0060   79.2520  219.2690 O   0  0  0  0  0  0  0  0  0  0  0  0
  142.2410   77.5150  220.1160 N   0  0  0  0  0  0  0  0  0  0  0  0
  142.5170   76.8680  218.8480 C   0  0  0  0  0  0  0  0  0  0  0  0
  142.9860   75.4820  219.0080 C   0  0  0  0  0  0  0  0  0  0  0  0
  142.4670   74.3890  218.3740 C   0  0  0  0  0  0  0  0  0  0  0  0
  142.9640   73.1210  218.5730 C   0  0  0  0  0  0  0  0  0  0  0  0
  144.0170   72.8860  219.4260 C   0  0  0  0  0  0  0  0  0  0  0  0
  144.6170   71.2590  219.6490 Cl  0  0  0  0  0  0  0  0  0  0  0  0
  144.5570   73.9720  220.0770 C   0  0  0  0  0  0  0  0  0  0  0  0
  145.8980   73.7320  221.1750 Cl  0  0  0  0  0  0  0  0  0  0  0  0
  144.0530   75.2540  219.8750 C   0  0  0  0  0  0  0  0  0  0  0  0
  140.0830   72.3880  222.6950 C   0  0  0  0  0  0  0  0  0  0  0  0
  139.0780   71.5920  222.1990 C   0  0  0  0  0  0  0  0  0  0  0  0
  138.6600   70.4360  222.8290 C   0  0  0  0  0  0  0  0  0  0  0  0
  139.2870   70.0700  224.0110 C   0  0  0  0  0  0  0  0  0  0  0  0
  138.8700   68.9270  224.6260 C   0  0  0  0  0  0  0  0  0  0  0  0
  139.4910   68.5620  225.8030 C   0  0  0  0  0  0  0  0  0  0  0  0
  139.0610   67.4180  226.4030 F   0  0  0  0  0  0  0  0  0  0  0  0
  140.5120   69.3380  226.3390 C   0  0  0  0  0  0  0  0  0  0  0  0
  140.9040   70.5000  225.6710 C   0  0  0  0  0  0  0  0  0  0  0  0
  140.2910   70.8800  224.4920 C   0  0  0  0  0  0  0  0  0  0  0  0
  140.6710   72.0100  223.8400 N   0  0  0  0  0  0  0  0  0  0  0  0
  139.0920   74.8080  222.9950 H   0  0  0  0  0  0  0  0  0  0  0  0
  141.2040   76.0941  221.3884 H   0  0  0  0  0  0  0  0  0  0  0  0
  139.4331   76.0738  220.7353 H   0  0  0  0  0  0  0  0  0  0  0  0
  140.3601   79.3655  224.4370 H   0  0  0  0  0  0  0  0  0  0  0  0
  141.4695   77.9671  224.4754 H   0  0  0  0  0  0  0  0  0  0  0  0
  142.0619   80.7789  224.0052 H   0  0  0  0  0  0  0  0  0  0  0  0
  143.1986   79.4498  224.2388 H   0  0  0  0  0  0  0  0  0  0  0  0
  142.8520   80.7327  221.8490 H   0  0  0  0  0  0  0  0  0  0  0  0
  143.3575   79.0460  221.9299 H   0  0  0  0  0  0  0  0  0  0  0  0
  140.5152   80.1577  221.4035 H   0  0  0  0  0  0  0  0  0  0  0  0
  142.6650   77.0500  220.9600 H   0  0  0  0  0  0  0  0  0  0  0  0
  141.5947   76.8605  218.2486 H   0  0  0  0  0  0  0  0  0  0  0  0
  143.3191   77.4352  218.3531 H   0  0  0  0  0  0  0  0  0  0  0  0
  141.6237   74.5268  217.6813 H   0  0  0  0  0  0  0  0  0  0  0  0
  142.5082   72.2754  218.0371 H   0  0  0  0  0  0  0  0  0  0  0  0
  144.5052   76.1024  220.4095 H   0  0  0  0  0  0  0  0  0  0  0  0
  138.5859   71.8881  221.2608 H   0  0  0  0  0  0  0  0  0  0  0  0
  137.8517   69.8222  222.4048 H   0  0  0  0  0  0  0  0  0  0  0  0
  138.0632   68.3145  224.1971 H   0  0  0  0  0  0  0  0  0  0  0  0
  141.0045   69.0409  227.2766 H   0  0  0  0  0  0  0  0  0  0  0  0
  141.7107   71.1206  226.0884 H   0  0  0  0  0  0  0  0  0  0  0  0
  1  2  2  0
  2  3  1  0
  3  4  1  0
  4  5  1  0
  5  6  2  0
  5  7  1  0
  7  8  1  0
  8  9  1  0
  9 10  1  0
 10 11  1  0
 11 12  1  0
 12 13  2  0
 12 14  1  0
 14 15  1  0
 15 16  1  0
 16 17  2  0
 17 18  1  0
 18 19  2  0
 19 20  1  0
 19 21  1  0
 21 22  1  0
 21 23  2  0
  2 24  1  0
 24 25  2  0
 25 26  1  0
 26 27  2  0
 27 28  1  0
 28 29  2  0
 29 30  1  0
 29 31  1  0
 31 32  2  0
 32 33  1  0
 33 34  2  0
 11  7  1  0
 23 16  1  0
 34 24  1  0
 33 27  1  0
  3 35  1  0
  4 36  1  0
  4 37  1  0
  8 38  1  0
  8 39  1  0
  9 40  1  0
  9 41  1  0
 10 42  1  0
 10 43  1  0
 11 44  1  6
 14 45  1  0
 15 46  1  0
 15 47  1  0
 17 48  1  0
 18 49  1  0
 23 50  1  0
 25 51  1  0
 26 52  1  0
 28 53  1  0
 31 54  1  0
 32 55  1  0
M  END
>  <smiles>  (18) 
O=C(NCC(=O)N1CCC[C@H]1C(=O)NCc1ccc(Cl)c(Cl)c1)c1ccc2cc(F)ccc2n1

>  <score_type>  (18) 
oracle

>  <origin>  (18) 
autodockgpu

>  <m_score__min__energy>  (18) 
-9.0099999999999998

>  <m_primary>  (18) 
energy

>  <meeko>  (18) 
{"free_energy": -9.01, "intermolecular_energy": -11.1, "internal_energy": -2.19, "cluster_size": 1, "cluster_id": 1, "rank_in_cluster": 1}

>  <energy>  (18) 
-6.87

>  <cluster_rmsd>  (18) 
0.0

>  <rmsd>  (18) 
270.38

>  <cluster>  (18) 
10

$$$$

     RDKit          3D

 55 58  0  0  0  0  0  0  0  0999 V2000
  142.5020   77.7030  217.2540 O   0  0  0  0  0  0  0  0  0  0  0  0
  142.5470   78.2000  218.4270 C   0  0  0  0  0  0  0  0  0  0  0  0
  142.9550   77.4010  219.5250 N   0  0  0  0  0  0  0  0  0  0  0  0
  143.3580   76.0380  219.4620 C   0  0  0  0  0  0  0  0  0  0  0  0
  142.3870   74.9830  219.2640 C   0  0  0  0  0  0  0  0  0  0  0  0
  141.3530   75.3550  218.5590 O   0  0  0  0  0  0  0  0  0  0  0  0
  142.3890   73.6380  219.7210 N   0  0  0  0  0  0  0  0  0  0  0  0
  143.4490   72.6490  219.7120 C   0  0  0  0  0  0  0  0  0  0  0  0
  143.0660   71.5560  220.6510 C   0  0  0  0  0  0  0  0  0  0  0  0
  141.8230   72.0290  221.3040 C   0  0  0  0  0  0  0  0  0  0  0  0
  141.2260   73.0210  220.3230 C   0  0  1  0  0  0  0  0  0  0  0  0
  140.3820   73.9840  221.1040 C   0  0  0  0  0  0  0  0  0  0  0  0
  140.2640   73.7480  222.3370 O   0  0  0  0  0  0  0  0  0  0  0  0
  139.7430   75.1000  220.5590 N   0  0  0  0  0  0  0  0  0  0  0  0
  138.9220   76.0420  221.2950 C   0  0  0  0  0  0  0  0  0  0  0  0
  139.7090   77.1310  221.8970 C   0  0  0  0  0  0  0  0  0  0  0  0
  141.0720   77.2110  221.9160 C   0  0  0  0  0  0  0  0  0  0  0  0
  141.7370   78.2670  222.4970 C   0  0  0  0  0  0  0  0  0  0  0  0
  141.0590   79.3040  223.0920 C   0  0  0  0  0  0  0  0  0  0  0  0
  141.9430   80.6260  223.8180 Cl  0  0  0  0  0  0  0  0  0  0  0  0
  139.6830   79.2470  223.0860 C   0  0  0  0  0  0  0  0  0  0  0  0
  138.7690   80.5400  223.8300 Cl  0  0  0  0  0  0  0  0  0  0  0  0
  139.0120   78.1770  222.4980 C   0  0  0  0  0  0  0  0  0  0  0  0
  142.1700   79.6110  218.6210 C   0  0  0  0  0  0  0  0  0  0  0  0
  142.5800   80.5600  217.7140 C   0  0  0  0  0  0  0  0  0  0  0  0
  142.2610   81.8980  217.8370 C   0  0  0  0  0  0  0  0  0  0  0  0
  141.4950   82.2930  218.9240 C   0  0  0  0  0  0  0  0  0  0  0  0
  141.1830   83.6150  219.0370 C   0  0  0  0  0  0  0  0  0  0  0  0
  140.4210   84.0110  220.1180 C   0  0  0  0  0  0  0  0  0  0  0  0
  140.1210   85.3350  220.2140 F   0  0  0  0  0  0  0  0  0  0  0  0
  139.9860   83.0840  221.0580 C   0  0  0  0  0  0  0  0  0  0  0  0
  140.3310   81.7400  220.8980 C   0  0  0  0  0  0  0  0  0  0  0  0
  141.0930   81.3280  219.8210 C   0  0  0  0  0  0  0  0  0  0  0  0
  141.4300   80.0220  219.6630 N   0  0  0  0  0  0  0  0  0  0  0  0
  142.9480   77.9040  220.4680 H   0  0  0  0  0  0  0  0  0  0  0  0
  144.0763   75.9620  218.6323 H   0  0  0  0  0  0  0  0  0  0  0  0
  143.7209   75.8451  220.4824 H   0  0  0  0  0  0  0  0  0  0  0  0
  143.5726   72.2432  218.6971 H   0  0  0  0  0  0  0  0  0  0  0  0
  144.4003   73.1050  220.0235 H   0  0  0  0  0  0  0  0  0  0  0  0
  142.8823   70.6210  220.1015 H   0  0  0  0  0  0  0  0  0  0  0  0
  143.8603   71.3415  221.3811 H   0  0  0  0  0  0  0  0  0  0  0  0
  141.1322   71.1905  221.4766 H   0  0  0  0  0  0  0  0  0  0  0  0
  142.0160   72.4814  222.2879 H   0  0  0  0  0  0  0  0  0  0  0  0
  140.5723   72.5936  219.5484 H   0  0  0  0  0  0  0  0  0  0  0  0
  139.8580   75.3100  219.5340 H   0  0  0  0  0  0  0  0  0  0  0  0
  138.1847   76.4797  220.6060 H   0  0  0  0  0  0  0  0  0  0  0  0
  138.4360   75.4909  222.1136 H   0  0  0  0  0  0  0  0  0  0  0  0
  141.6583   76.4045  221.4514 H   0  0  0  0  0  0  0  0  0  0  0  0
  142.8368   78.2812  222.4848 H   0  0  0  0  0  0  0  0  0  0  0  0
  137.9122   78.1577  222.5084 H   0  0  0  0  0  0  0  0  0  0  0  0
  143.1874   80.2399  216.8546 H   0  0  0  0  0  0  0  0  0  0  0  0
  142.6052   82.6312  217.0927 H   0  0  0  0  0  0  0  0  0  0  0  0
  141.5280   84.3444  218.2894 H   0  0  0  0  0  0  0  0  0  0  0  0
  139.3779   83.4047  221.9167 H   0  0  0  0  0  0  0  0  0  0  0  0
  139.9921   81.0003  221.6383 H   0  0  0  0  0  0  0  0  0  0  0  0
  1  2  2  0
  2  3  1  0
  3  4  1  0
  4  5  1  0
  5  6  2  0
  5  7  1  0
  7  8  1  0
  8  9  1  0
  9 10  1  0
 10 11  1  0
 11 12  1  0
 12 13  2  0
 12 14  1  0
 14 15  1  0
 15 16  1  0
 16 17  2  0
 17 18  1  0
 18 19  2  0
 19 20  1  0
 19 21  1  0
 21 22  1  0
 21 23  2  0
  2 24  1  0
 24 25  2  0
 25 26  1  0
 26 27  2  0
 27 28  1  0
 28 29  2  0
 29 30  1  0
 29 31  1  0
 31 32  2  0
 32 33  1  0
 33 34  2  0
 11  7  1  0
 23 16  1  0
 34 24  1  0
 33 27  1  0
  3 35  1  0
  4 36  1  0
  4 37  1  0
  8 38  1  0
  8 39  1  0
  9 40  1  0
  9 41  1  0
 10 42  1  0
 10 43  1  0
 11 44  1  6
 14 45  1  0
 15 46  1  0
 15 47  1  0
 17 48  1  0
 18 49  1  0
 23 50  1  0
 25 51  1  0
 26 52  1  0
 28 53  1  0
 31 54  1  0
 32 55  1  0
M  END
>  <smiles>  (19) 
O=C(NCC(=O)N1CCC[C@H]1C(=O)NCc1ccc(Cl)c(Cl)c1)c1ccc2cc(F)ccc2n1

>  <score_type>  (19) 
oracle

>  <origin>  (19) 
autodockgpu

>  <m_score__min__energy>  (19) 
-9.0099999999999998

>  <m_primary>  (19) 
energy

>  <meeko>  (19) 
{"free_energy": -6.98, "intermolecular_energy": -9.07, "internal_energy": -3.67, "cluster_size": 2, "cluster_id": 8, "rank_in_cluster": 1}

>  <energy>  (19) 
-6.24

>  <cluster_rmsd>  (19) 
1.28

>  <rmsd>  (19) 
270.44

>  <cluster>  (19) 
10

$$$$

     RDKit          3D

 55 58  0  0  0  0  0  0  0  0999 V2000
  141.0880   76.8780  222.3230 O   0  0  0  0  0  0  0  0  0  0  0  0
  139.9380   76.8920  221.7730 C   0  0  0  0  0  0  0  0  0  0  0  0
  139.6520   76.0170  220.6940 N   0  0  0  0  0  0  0  0  0  0  0  0
  140.5460   75.0620  220.1350 C   0  0  0  0  0  0  0  0  0  0  0  0
  141.2940   74.1560  220.9810 C   0  0  0  0  0  0  0  0  0  0  0  0
  140.6260   73.7530  222.0280 O   0  0  0  0  0  0  0  0  0  0  0  0
  142.6190   73.6620  220.8480 N   0  0  0  0  0  0  0  0  0  0  0  0
  143.1440   72.3260  221.0500 C   0  0  0  0  0  0  0  0  0  0  0  0
  144.4840   72.2560  220.4020 C   0  0  0  0  0  0  0  0  0  0  0  0
  144.6400   73.5510  219.6990 C   0  0  0  0  0  0  0  0  0  0  0  0
  143.7250   74.5060  220.4430 C   0  0  1  0  0  0  0  0  0  0  0  0
  143.3240   75.5910  219.4890 C   0  0  0  0  0  0  0  0  0  0  0  0
  143.4340   75.3230  218.2620 O   0  0  0  0  0  0  0  0  0  0  0  0
  142.8420   76.8460  219.8730 N   0  0  0  0  0  0  0  0  0  0  0  0
  142.4510   77.9080  218.9680 C   0  0  0  0  0  0  0  0  0  0  0  0
  141.7490   79.0070  219.6510 C   0  0  0  0  0  0  0  0  0  0  0  0
  140.7340   79.7520  219.1230 C   0  0  0  0  0  0  0  0  0  0  0  0
  140.1230   80.7650  219.8270 C   0  0  0  0  0  0  0  0  0  0  0  0
  140.5060   81.0810  221.1100 C   0  0  0  0  0  0  0  0  0  0  0  0
  139.7030   82.3750  221.9690 Cl  0  0  0  0  0  0  0  0  0  0  0  0
  141.5280   80.3440  221.6650 C   0  0  0  0  0  0  0  0  0  0  0  0
  142.0560   80.7040  223.2930 Cl  0  0  0  0  0  0  0  0  0  0  0  0
  142.1440   79.3200  220.9500 C   0  0  0  0  0  0  0  0  0  0  0  0
  138.9160   77.8280  222.2750 C   0  0  0  0  0  0  0  0  0  0  0  0
  137.6260   77.7500  221.8040 C   0  0  0  0  0  0  0  0  0  0  0  0
  136.6220   78.5950  222.2330 C   0  0  0  0  0  0  0  0  0  0  0  0
  136.9360   79.5610  223.1780 C   0  0  0  0  0  0  0  0  0  0  0  0
  135.9390   80.3910  223.5970 C   0  0  0  0  0  0  0  0  0  0  0  0
  136.2500   81.3540  224.5360 C   0  0  0  0  0  0  0  0  0  0  0  0
  135.2410   82.1730  224.9420 F   0  0  0  0  0  0  0  0  0  0  0  0
  137.5410   81.4670  225.0380 C   0  0  0  0  0  0  0  0  0  0  0  0
  138.5280   80.5930  224.5770 C   0  0  0  0  0  0  0  0  0  0  0  0
  138.2340   79.6240  223.6360 C   0  0  0  0  0  0  0  0  0  0  0  0
  139.1910   78.7720  223.1870 N   0  0  0  0  0  0  0  0  0  0  0  0
  138.6670   76.1130  220.2930 H   0  0  0  0  0  0  0  0  0  0  0  0
  139.9494   74.4351  219.4560 H   0  0  0  0  0  0  0  0  0  0  0  0
  141.3346   75.6942  219.7009 H   0  0  0  0  0  0  0  0  0  0  0  0
  143.2386   72.1207  222.1265 H   0  0  0  0  0  0  0  0  0  0  0  0
  142.4671   71.5785  220.6106 H   0  0  0  0  0  0  0  0  0  0  0  0
  145.2727   72.1295  221.1583 H   0  0  0  0  0  0  0  0  0  0  0  0
  144.5656   71.4011  219.7147 H   0  0  0  0  0  0  0  0  0  0  0  0
  145.6834   73.8959  219.7483 H   0  0  0  0  0  0  0  0  0  0  0  0
  144.3859   73.4781  218.6312 H   0  0  0  0  0  0  0  0  0  0  0  0
  144.1660   75.0092  221.3161 H   0  0  0  0  0  0  0  0  0  0  0  0
  142.7290   77.0630  220.8970 H   0  0  0  0  0  0  0  0  0  0  0  0
  143.3547   78.3120  218.4883 H   0  0  0  0  0  0  0  0  0  0  0  0
  141.7569   77.4777  218.2311 H   0  0  0  0  0  0  0  0  0  0  0  0
  140.3927   79.5354  218.1000 H   0  0  0  0  0  0  0  0  0  0  0  0
  139.3101   81.3347  219.3529 H   0  0  0  0  0  0  0  0  0  0  0  0
  142.9576   78.7476  221.4195 H   0  0  0  0  0  0  0  0  0  0  0  0
  137.3842   76.9823  221.0542 H   0  0  0  0  0  0  0  0  0  0  0  0
  135.6001   78.5047  221.8360 H   0  0  0  0  0  0  0  0  0  0  0  0
  134.9179   80.2963  223.1990 H   0  0  0  0  0  0  0  0  0  0  0  0
  137.7822   82.2344  225.7883 H   0  0  0  0  0  0  0  0  0  0  0  0
  139.5528   80.6768  224.9678 H   0  0  0  0  0  0  0  0  0  0  0  0
  1  2  2  0
  2  3  1  0
  3  4  1  0
  4  5  1  0
  5  6  2  0
  5  7  1  0
  7  8  1  0
  8  9  1  0
  9 10  1  0
 10 11  1  0
 11 12  1  0
 12 13  2  0
 12 14  1  0
 14 15  1  0
 15 16  1  0
 16 17  2  0
 17 18  1  0
 18 19  2  0
 19 20  1  0
 19 21  1  0
 21 22  1  0
 21 23  2  0
  2 24  1  0
 24 25  2  0
 25 26  1  0
 26 27  2  0
 27 28  1  0
 28 29  2  0
 29 30  1  0
 29 31  1  0
 31 32  2  0
 32 33  1  0
 33 34  2  0
 11  7  1  0
 23 16  1  0
 34 24  1  0
 33 27  1  0
  3 35  1  0
  4 36  1  0
  4 37  1  0
  8 38  1  0
  8 39  1  0
  9 40  1  0
  9 41  1  0
 10 42  1  0
 10 43  1  0
 11 44  1  1
 14 45  1  0
 15 46  1  0
 15 47  1  0
 17 48  1  0
 18 49  1  0
 23 50  1  0
 25 51  1  0
 26 52  1  0
 28 53  1  0
 31 54  1  0
 32 55  1  0
M  END
>  <smiles>  (20) 
O=C(NCC(=O)N1CCC[C@H]1C(=O)NCc1ccc(Cl)c(Cl)c1)c1ccc2cc(F)ccc2n1

>  <score_type>  (20) 
oracle

>  <origin>  (20) 
autodockgpu

>  <m_score__min__energy>  (20) 
-9.0099999999999998

>  <m_primary>  (20) 
energy

>  <meeko>  (20) 
{"free_energy": -6.61, "intermolecular_energy": -8.7, "internal_energy": -3.72, "cluster_size": 1, "cluster_id": 11, "rank_in_cluster": 1}

>  <energy>  (20) 
-6.61

>  <cluster_rmsd>  (20) 
0.0

>  <rmsd>  (20) 
271.0

>  <cluster>  (20) 
11

$$$$
