
     RDKit          3D

 71 74  0  0  0  0  0  0  0  0999 V2000
  138.4150   70.2020  220.3390 C   0  0  0  0  0  0  0  0  0  0  0  0
  139.9180   69.9390  220.1590 C   0  0  0  0  0  0  0  0  0  0  0  0
  140.0870   68.4630  220.4500 C   0  0  0  0  0  0  0  0  0  0  0  0
  140.2350   70.3110  218.7590 C   0  0  0  0  0  0  0  0  0  0  0  0
  141.5010   71.0810  218.5390 C   0  0  2  0  0  0  0  0  0  0  0  0
  142.7220   70.4540  219.0930 C   0  0  0  0  0  0  0  0  0  0  0  0
  143.7380   71.4220  219.5650 C   0  0  0  0  0  0  0  0  0  0  0  0
  144.5960   71.9810  218.6330 C   0  0  0  0  0  0  0  0  0  0  0  0
  145.5810   72.8810  218.9650 C   0  0  0  0  0  0  0  0  0  0  0  0
  145.7320   73.2510  220.2830 C   0  0  0  0  0  0  0  0  0  0  0  0
  146.6980   74.1350  220.6120 F   0  0  0  0  0  0  0  0  0  0  0  0
  144.8940   72.7080  221.2130 C   0  0  0  0  0  0  0  0  0  0  0  0
  143.9080   71.8060  220.8710 C   0  0  0  0  0  0  0  0  0  0  0  0
  141.2930   72.3970  219.0950 N   0  0  0  0  0  0  0  0  0  0  0  0
  141.1610   73.5810  218.3210 C   0  0  0  0  0  0  0  0  0  0  0  0
  141.2170   73.5500  217.0580 O   0  0  0  0  0  0  0  0  0  0  0  0
  140.9470   74.9260  218.9270 C   0  0  2  0  0  0  0  0  0  0  0  0
  142.0970   75.8210  218.5140 C   0  0  0  0  0  0  0  0  0  0  0  0
  143.2000   75.4280  219.4700 C   0  0  1  0  0  0  0  0  0  0  0  0
  144.0530   76.5350  219.6690 O   0  0  0  0  0  0  0  0  0  0  0  0
  142.4770   75.0590  220.7230 C   0  0  0  0  0  0  0  0  0  0  0  0
  141.0570   74.9240  220.3690 N   0  0  0  0  0  0  0  0  0  0  0  0
  140.0540   74.8180  221.3670 C   0  0  0  0  0  0  0  0  0  0  0  0
  140.1350   75.6530  222.3280 O   0  0  0  0  0  0  0  0  0  0  0  0
  138.9900   73.7980  221.2800 C   0  0  0  0  0  0  0  0  0  0  0  0
  138.9270   72.9530  222.4340 N   0  0  0  0  0  0  0  0  0  0  0  0
  140.0530   72.1240  222.7140 C   0  0  0  0  0  0  0  0  0  0  0  0
  141.0200   72.2190  221.8990 O   0  0  0  0  0  0  0  0  0  0  0  0
  140.0800   71.2300  223.8670 C   0  0  0  0  0  0  0  0  0  0  0  0
  139.5570   69.9650  223.6980 C   0  0  0  0  0  0  0  0  0  0  0  0
  139.5240   69.0240  224.7120 C   0  0  0  0  0  0  0  0  0  0  0  0
  140.0480   69.4160  225.9290 C   0  0  0  0  0  0  0  0  0  0  0  0
  140.0250   68.5030  226.9450 C   0  0  0  0  0  0  0  0  0  0  0  0
  140.5440   68.8740  228.1770 C   0  0  0  0  0  0  0  0  0  0  0  0
  140.5250   67.9700  229.1940 F   0  0  0  0  0  0  0  0  0  0  0  0
  141.0730   70.1530  228.3460 C   0  0  0  0  0  0  0  0  0  0  0  0
  141.0810   71.0590  227.2900 C   0  0  0  0  0  0  0  0  0  0  0  0
  140.5590   70.6910  226.0530 C   0  0  0  0  0  0  0  0  0  0  0  0
  140.5760   71.5810  225.0440 N   0  0  0  0  0  0  0  0  0  0  0  0
  138.1760   70.2438  221.4119 H   0  0  0  0  0  0  0  0  0  0  0  0
  138.1513   71.1599  219.8670 H   0  0  0  0  0  0  0  0  0  0  0  0
  137.8416   69.3905  219.8670 H   0  0  0  0  0  0  0  0  0  0  0  0
  140.5921   70.5100  220.8144 H   0  0  0  0  0  0  0  0  0  0  0  0
  140.1053   68.3036  221.5382 H   0  0  0  0  0  0  0  0  0  0  0  0
  139.2470   67.9043  220.0116 H   0  0  0  0  0  0  0  0  0  0  0  0
  141.0316   68.1086  220.0116 H   0  0  0  0  0  0  0  0  0  0  0  0
  140.3039   69.3818  218.1744 H   0  0  0  0  0  0  0  0  0  0  0  0
  139.4261   70.9890  218.4492 H   0  0  0  0  0  0  0  0  0  0  0  0
  141.6971   71.1121  217.4571 H   0  0  0  0  0  0  0  0  0  0  0  0
  142.4293   69.8189  219.9421 H   0  0  0  0  0  0  0  0  0  0  0  0
  143.1844   69.8828  218.2746 H   0  0  0  0  0  0  0  0  0  0  0  0
  144.4843   71.6915  217.5777 H   0  0  0  0  0  0  0  0  0  0  0  0
  146.2389   73.2995  218.1891 H   0  0  0  0  0  0  0  0  0  0  0  0
  145.0082   72.9985  222.2678 H   0  0  0  0  0  0  0  0  0  0  0  0
  143.2530   71.3914  221.6515 H   0  0  0  0  0  0  0  0  0  0  0  0
  141.2270   72.5460  220.1480 H   0  0  0  0  0  0  0  0  0  0  0  0
  139.9460   75.2458  218.6019 H   0  0  0  0  0  0  0  0  0  0  0  0
  142.3914   75.6294  217.4716 H   0  0  0  0  0  0  0  0  0  0  0  0
  141.8483   76.8916  218.5584 H   0  0  0  0  0  0  0  0  0  0  0  0
  143.8315   74.6025  219.1097 H   0  0  0  0  0  0  0  0  0  0  0  0
  143.7490   77.1250  220.3890 H   0  0  0  0  0  0  0  0  0  0  0  0
  142.8617   74.1063  221.1158 H   0  0  0  0  0  0  0  0  0  0  0  0
  142.6192   75.8237  221.5009 H   0  0  0  0  0  0  0  0  0  0  0  0
  138.0228   74.3096  221.1674 H   0  0  0  0  0  0  0  0  0  0  0  0
  139.2196   73.1570  220.4160 H   0  0  0  0  0  0  0  0  0  0  0  0
  138.1220   72.8880  223.0970 H   0  0  0  0  0  0  0  0  0  0  0  0
  139.1482   69.6922  222.7139 H   0  0  0  0  0  0  0  0  0  0  0  0
  139.1038   68.0192  224.5578 H   0  0  0  0  0  0  0  0  0  0  0  0
  139.6052   67.4981  226.7900 H   0  0  0  0  0  0  0  0  0  0  0  0
  141.4871   70.4480  229.3215 H   0  0  0  0  0  0  0  0  0  0  0  0
  141.4998   72.0661  227.4326 H   0  0  0  0  0  0  0  0  0  0  0  0
  1  2  1  0
  2  3  1  0
  2  4  1  0
  4  5  1  0
  5  6  1  0
  6  7  1  0
  7  8  2  0
  8  9  1  0
  9 10  2  0
 10 11  1  0
 10 12  1  0
 12 13  2  0
  5 14  1  0
 14 15  1  0
 15 16  2  0
 15 17  1  0
 17 18  1  0
 18 19  1  0
 19 20  1  0
 19 21  1  0
 21 22  1  0
 22 23  1  0
 23 24  2  0
 23 25  1  0
 25 26  1  0
 26 27  1  0
 27 28  2  0
 27 29  1  0
 29 30  2  0
 30 31  1  0
 31 32  2  0
 32 33  1  0
 33 34  2  0
 34 35  1  0
 34 36  1  0
 36 37  2  0
 37 38  1  0
 38 39  2  0
 13  7  1  0
 22 17  1  0
 39 29  1  0
 38 32  1  0
  1 40  1  0
  1 41  1  0
  1 42  1  0
  2 43  1  0
  3 44  1  0
  3 45  1  0
  3 46  1  0
  4 47  1  0
  4 48  1  0
  5 49  1  6
  6 50  1  0
  6 51  1  0
  8 52  1  0
  9 53  1  0
 12 54  1  0
 13 55  1  0
 14 56  1  0
 17 57  1  1
 18 58  1  0
 18 59  1  0
 19 60  1  6
 20 61  1  0
 21 62  1  0
 21 63  1  0
 25 64  1  0
 25 65  1  0
 26 66  1  0
 30 67  1  0
 31 68  1  0
 33 69  1  0
 36 70  1  0
 37 71  1  0
M  END
>  <smiles>  (1) 
CC(C)C[C@H](Cc1ccc(F)cc1)NC(=O)[C@@H]1C[C@@H](O)CN1C(=O)CNC(=O)c1ccc2cc(F)ccc2n1

>  <score_type>  (1) 
oracle

>  <origin>  (1) 
autodockgpu

>  <m_score__min__energy>  (1) 
-9.6099999999999994

>  <m_primary>  (1) 
energy

>  <meeko>  (1) 
{"free_energy": -7.28, "intermolecular_energy": -10.56, "internal_energy": -4.9, "cluster_size": 1, "cluster_id": 7, "rank_in_cluster": 1}

>  <energy>  (1) 
-9.61

>  <cluster_rmsd>  (1) 
0.0

>  <rmsd>  (1) 
271.32

>  <cluster>  (1) 
1

$$$$

     RDKit          3D

 71 74  0  0  0  0  0  0  0  0999 V2000
  138.1290   74.8140  221.8290 C   0  0  0  0  0  0  0  0  0  0  0  0
  138.2320   76.2800  221.3830 C   0  0  0  0  0  0  0  0  0  0  0  0
  138.2150   77.0750  222.6710 C   0  0  0  0  0  0  0  0  0  0  0  0
  139.5040   76.3930  220.6300 C   0  0  0  0  0  0  0  0  0  0  0  0
  140.7470   76.6020  221.4380 C   0  0  2  0  0  0  0  0  0  0  0  0
  141.6760   77.6250  220.9100 C   0  0  0  0  0  0  0  0  0  0  0  0
  141.8570   78.7950  221.7990 C   0  0  0  0  0  0  0  0  0  0  0  0
  141.8230   78.5920  223.1690 C   0  0  0  0  0  0  0  0  0  0  0  0
  141.9700   79.6090  224.0810 C   0  0  0  0  0  0  0  0  0  0  0  0
  142.1600   80.8940  223.6260 C   0  0  0  0  0  0  0  0  0  0  0  0
  142.3050   81.8960  224.5210 F   0  0  0  0  0  0  0  0  0  0  0  0
  142.1950   81.1110  222.2790 C   0  0  0  0  0  0  0  0  0  0  0  0
  142.0480   80.0840  221.3690 C   0  0  0  0  0  0  0  0  0  0  0  0
  141.3960   75.3170  221.5490 N   0  0  0  0  0  0  0  0  0  0  0  0
  142.3370   74.8120  220.6120 C   0  0  0  0  0  0  0  0  0  0  0  0
  142.6740   75.4810  219.5920 O   0  0  0  0  0  0  0  0  0  0  0  0
  142.9890   73.4790  220.7550 C   0  0  2  0  0  0  0  0  0  0  0  0
  144.4830   73.6610  220.5920 C   0  0  0  0  0  0  0  0  0  0  0  0
  144.6620   73.7270  219.0930 C   0  0  1  0  0  0  0  0  0  0  0  0
  145.9490   73.2490  218.7620 O   0  0  0  0  0  0  0  0  0  0  0  0
  143.5900   72.8330  218.5630 C   0  0  0  0  0  0  0  0  0  0  0  0
  142.6680   72.5710  219.6750 N   0  0  0  0  0  0  0  0  0  0  0  0
  141.6700   71.5650  219.5870 C   0  0  0  0  0  0  0  0  0  0  0  0
  141.9380   70.5820  218.8200 O   0  0  0  0  0  0  0  0  0  0  0  0
  140.4070   71.6700  220.3440 C   0  0  0  0  0  0  0  0  0  0  0  0
  140.4390   70.9650  221.5890 N   0  0  0  0  0  0  0  0  0  0  0  0
  140.4410   71.7350  222.7900 C   0  0  0  0  0  0  0  0  0  0  0  0
  140.4130   72.9930  222.6340 O   0  0  0  0  0  0  0  0  0  0  0  0
  140.4730   71.1050  224.1060 C   0  0  0  0  0  0  0  0  0  0  0  0
  140.8550   71.8910  225.1740 C   0  0  0  0  0  0  0  0  0  0  0  0
  140.9260   71.4130  226.4700 C   0  0  0  0  0  0  0  0  0  0  0  0
  140.5900   70.0860  226.6540 C   0  0  0  0  0  0  0  0  0  0  0  0
  140.6520   69.5920  227.9260 C   0  0  0  0  0  0  0  0  0  0  0  0
  140.3200   68.2620  228.1340 C   0  0  0  0  0  0  0  0  0  0  0  0
  140.3800   67.7630  229.3990 F   0  0  0  0  0  0  0  0  0  0  0  0
  139.9340   67.4690  227.0540 C   0  0  0  0  0  0  0  0  0  0  0  0
  139.8810   68.0030  225.7710 C   0  0  0  0  0  0  0  0  0  0  0  0
  140.2140   69.3380  225.5570 C   0  0  0  0  0  0  0  0  0  0  0  0
  140.1560   69.8350  224.3090 N   0  0  0  0  0  0  0  0  0  0  0  0
  138.1255   74.7644  222.9279 H   0  0  0  0  0  0  0  0  0  0  0  0
  137.1979   74.3767  221.4393 H   0  0  0  0  0  0  0  0  0  0  0  0
  138.9898   74.2508  221.4393 H   0  0  0  0  0  0  0  0  0  0  0  0
  137.4265   76.6448  220.7287 H   0  0  0  0  0  0  0  0  0  0  0  0
  138.2297   76.3853  223.5278 H   0  0  0  0  0  0  0  0  0  0  0  0
  139.0994   77.7279  222.7106 H   0  0  0  0  0  0  0  0  0  0  0  0
  137.3035   77.6895  222.7106 H   0  0  0  0  0  0  0  0  0  0  0  0
  139.6334   75.4654  220.0531 H   0  0  0  0  0  0  0  0  0  0  0  0
  139.3992   77.3024  220.0200 H   0  0  0  0  0  0  0  0  0  0  0  0
  140.4515   77.0059  222.4176 H   0  0  0  0  0  0  0  0  0  0  0  0
  142.6577   77.1533  220.7560 H   0  0  0  0  0  0  0  0  0  0  0  0
  141.2341   78.0022  219.9760 H   0  0  0  0  0  0  0  0  0  0  0  0
  141.6713   77.5691  223.5440 H   0  0  0  0  0  0  0  0  0  0  0  0
  141.9363   79.3991  225.1603 H   0  0  0  0  0  0  0  0  0  0  0  0
  142.3449   82.1355  221.9075 H   0  0  0  0  0  0  0  0  0  0  0  0
  142.0842   80.3003  220.2911 H   0  0  0  0  0  0  0  0  0  0  0  0
  141.1920   74.6650  222.3670 H   0  0  0  0  0  0  0  0  0  0  0  0
  142.6542   73.0838  221.7254 H   0  0  0  0  0  0  0  0  0  0  0  0
  144.8214   74.5917  221.0709 H   0  0  0  0  0  0  0  0  0  0  0  0
  145.0690   72.8569  221.0611 H   0  0  0  0  0  0  0  0  0  0  0  0
  144.5845   74.7421  218.6763 H   0  0  0  0  0  0  0  0  0  0  0  0
  146.5880   73.9700  218.5880 H   0  0  0  0  0  0  0  0  0  0  0  0
  143.0572   73.3285  217.7380 H   0  0  0  0  0  0  0  0  0  0  0  0
  144.0144   71.8961  218.1730 H   0  0  0  0  0  0  0  0  0  0  0  0
  140.2084   72.7325  220.5482 H   0  0  0  0  0  0  0  0  0  0  0  0
  139.6169   71.2144  219.7290 H   0  0  0  0  0  0  0  0  0  0  0  0
  140.4610   69.9270  221.7010 H   0  0  0  0  0  0  0  0  0  0  0  0
  141.1143   72.9434  224.9865 H   0  0  0  0  0  0  0  0  0  0  0  0
  141.2334   72.0549  227.3087 H   0  0  0  0  0  0  0  0  0  0  0  0
  140.9580   70.2340  228.7652 H   0  0  0  0  0  0  0  0  0  0  0  0
  139.6696   66.4139  227.2179 H   0  0  0  0  0  0  0  0  0  0  0  0
  139.5758   67.3703  224.9246 H   0  0  0  0  0  0  0  0  0  0  0  0
  1  2  1  0
  2  3  1  0
  2  4  1  0
  4  5  1  0
  5  6  1  0
  6  7  1  0
  7  8  2  0
  8  9  1  0
  9 10  2  0
 10 11  1  0
 10 12  1  0
 12 13  2  0
  5 14  1  0
 14 15  1  0
 15 16  2  0
 15 17  1  0
 17 18  1  0
 18 19  1  0
 19 20  1  0
 19 21  1  0
 21 22  1  0
 22 23  1  0
 23 24  2  0
 23 25  1  0
 25 26  1  0
 26 27  1  0
 27 28  2  0
 27 29  1  0
 29 30  2  0
 30 31  1  0
 31 32  2  0
 32 33  1  0
 33 34  2  0
 34 35  1  0
 34 36  1  0
 36 37  2  0
 37 38  1  0
 38 39  2  0
 13  7  1  0
 22 17  1  0
 39 29  1  0
 38 32  1  0
  1 40  1  0
  1 41  1  0
  1 42  1  0
  2 43  1  0
  3 44  1  0
  3 45  1  0
  3 46  1  0
  4 47  1  0
  4 48  1  0
  5 49  1  1
  6 50  1  0
  6 51  1  0
  8 52  1  0
  9 53  1  0
 12 54  1  0
 13 55  1  0
 14 56  1  0
 17 57  1  1
 18 58  1  0
 18 59  1  0
 19 60  1  6
 20 61  1  0
 21 62  1  0
 21 63  1  0
 25 64  1  0
 25 65  1  0
 26 66  1  0
 30 67  1  0
 31 68  1  0
 33 69  1  0
 36 70  1  0
 37 71  1  0
M  END
>  <smiles>  (2) 
CC(C)C[C@H](Cc1ccc(F)cc1)NC(=O)[C@@H]1C[C@@H](O)CN1C(=O)CNC(=O)c1ccc2cc(F)ccc2n1

>  <score_type>  (2) 
oracle

>  <origin>  (2) 
autodockgpu

>  <m_score__min__energy>  (2) 
-9.6099999999999994

>  <m_primary>  (2) 
energy

>  <meeko>  (2) 
{"free_energy": -9.61, "intermolecular_energy": -12.89, "internal_energy": -3.3, "cluster_size": 2, "cluster_id": 1, "rank_in_cluster": 1}

>  <energy>  (2) 
-9.41

>  <cluster_rmsd>  (2) 
0.66

>  <rmsd>  (2) 
271.22

>  <cluster>  (2) 
1

$$$$

     RDKit          3D

 71 74  0  0  0  0  0  0  0  0999 V2000
  142.1490   81.0890  221.8940 C   0  0  0  0  0  0  0  0  0  0  0  0
  142.6980   80.5190  223.2100 C   0  0  0  0  0  0  0  0  0  0  0  0
  142.5150   81.6340  224.2170 C   0  0  0  0  0  0  0  0  0  0  0  0
  141.8900   79.3110  223.5040 C   0  0  0  0  0  0  0  0  0  0  0  0
  140.8970   78.8970  222.4630 C   0  0  2  0  0  0  0  0  0  0  0  0
  139.6050   78.4030  222.9880 C   0  0  0  0  0  0  0  0  0  0  0  0
  138.9750   77.3540  222.1550 C   0  0  0  0  0  0  0  0  0  0  0  0
  138.9100   76.0640  222.6570 C   0  0  0  0  0  0  0  0  0  0  0  0
  138.3560   75.0160  221.9620 C   0  0  0  0  0  0  0  0  0  0  0  0
  137.8380   75.2440  220.7080 C   0  0  0  0  0  0  0  0  0  0  0  0
  137.2920   74.2150  220.0230 F   0  0  0  0  0  0  0  0  0  0  0  0
  137.8940   76.5090  220.1980 C   0  0  0  0  0  0  0  0  0  0  0  0
  138.4510   77.5570  220.9020 C   0  0  0  0  0  0  0  0  0  0  0  0
  141.5410   77.9000  221.6420 N   0  0  0  0  0  0  0  0  0  0  0  0
  141.8260   78.0620  220.2600 C   0  0  0  0  0  0  0  0  0  0  0  0
  141.5230   79.1270  219.6470 O   0  0  0  0  0  0  0  0  0  0  0  0
  142.4920   77.0110  219.4390 C   0  0  2  0  0  0  0  0  0  0  0  0
  142.3810   77.4040  217.9810 C   0  0  0  0  0  0  0  0  0  0  0  0
  140.9790   76.9770  217.6140 C   0  0  1  0  0  0  0  0  0  0  0  0
  140.9380   76.6670  216.2380 O   0  0  0  0  0  0  0  0  0  0  0  0
  140.7370   75.7690  218.4580 C   0  0  0  0  0  0  0  0  0  0  0  0
  141.8000   75.7410  219.4720 N   0  0  0  0  0  0  0  0  0  0  0  0
  142.0140   74.5980  220.2850 C   0  0  0  0  0  0  0  0  0  0  0  0
  143.1580   74.5190  220.8430 O   0  0  0  0  0  0  0  0  0  0  0  0
  140.9650   73.5750  220.4630 C   0  0  0  0  0  0  0  0  0  0  0  0
  141.0480   72.8980  221.7210 N   0  0  0  0  0  0  0  0  0  0  0  0
  139.9350   72.1010  222.1230 C   0  0  0  0  0  0  0  0  0  0  0  0
  138.9620   72.0690  221.3110 O   0  0  0  0  0  0  0  0  0  0  0  0
  139.9290   71.3740  223.3890 C   0  0  0  0  0  0  0  0  0  0  0  0
  139.2910   70.1520  223.4120 C   0  0  0  0  0  0  0  0  0  0  0  0
  139.2150   69.3660  224.5480 C   0  0  0  0  0  0  0  0  0  0  0  0
  139.8200   69.8690  225.6830 C   0  0  0  0  0  0  0  0  0  0  0  0
  139.7580   69.1100  226.8170 C   0  0  0  0  0  0  0  0  0  0  0  0
  140.3580   69.5950  227.9700 C   0  0  0  0  0  0  0  0  0  0  0  0
  140.2990   68.8450  229.1040 F   0  0  0  0  0  0  0  0  0  0  0  0
  141.0030   70.8310  227.9440 C   0  0  0  0  0  0  0  0  0  0  0  0
  141.0480   71.5800  226.7730 C   0  0  0  0  0  0  0  0  0  0  0  0
  140.4470   71.0960  225.6140 C   0  0  0  0  0  0  0  0  0  0  0  0
  140.5020   71.8350  224.4910 N   0  0  0  0  0  0  0  0  0  0  0  0
  141.4014   81.8652  222.1142 H   0  0  0  0  0  0  0  0  0  0  0  0
  142.9731   81.5281  221.3125 H   0  0  0  0  0  0  0  0  0  0  0  0
  141.6793   80.2820  221.3125 H   0  0  0  0  0  0  0  0  0  0  0  0
  143.7554   80.2161  223.2032 H   0  0  0  0  0  0  0  0  0  0  0  0
  142.5824   81.2232  225.2352 H   0  0  0  0  0  0  0  0  0  0  0  0
  143.3011   82.3900  224.0738 H   0  0  0  0  0  0  0  0  0  0  0  0
  141.5285   82.0991  224.0738 H   0  0  0  0  0  0  0  0  0  0  0  0
  142.5861   78.4724  223.6529 H   0  0  0  0  0  0  0  0  0  0  0  0
  141.2901   79.5724  224.3882 H   0  0  0  0  0  0  0  0  0  0  0  0
  140.6147   79.7911  221.8878 H   0  0  0  0  0  0  0  0  0  0  0  0
  139.7759   77.9897  223.9930 H   0  0  0  0  0  0  0  0  0  0  0  0
  138.9160   79.2605  222.9926 H   0  0  0  0  0  0  0  0  0  0  0  0
  139.3211   75.8699  223.6587 H   0  0  0  0  0  0  0  0  0  0  0  0
  138.3271   74.0084  222.4023 H   0  0  0  0  0  0  0  0  0  0  0  0
  137.4827   76.6987  219.1956 H   0  0  0  0  0  0  0  0  0  0  0  0
  138.4755   78.5623  220.4563 H   0  0  0  0  0  0  0  0  0  0  0  0
  141.8440   76.9630  222.0500 H   0  0  0  0  0  0  0  0  0  0  0  0
  143.5135   76.9223  219.8374 H   0  0  0  0  0  0  0  0  0  0  0  0
  142.5087   78.4892  217.8542 H   0  0  0  0  0  0  0  0  0  0  0  0
  143.1526   76.9398  217.3492 H   0  0  0  0  0  0  0  0  0  0  0  0
  140.2156   77.7498  217.7871 H   0  0  0  0  0  0  0  0  0  0  0  0
  140.9520   75.7040  216.0640 H   0  0  0  0  0  0  0  0  0  0  0  0
  139.7522   75.8370  218.9433 H   0  0  0  0  0  0  0  0  0  0  0  0
  140.7475   74.8530  217.8491 H   0  0  0  0  0  0  0  0  0  0  0  0
  139.9827   74.0652  220.3935 H   0  0  0  0  0  0  0  0  0  0  0  0
  141.1058   72.8206  219.6749 H   0  0  0  0  0  0  0  0  0  0  0  0
  141.8590   72.9330  222.3790 H   0  0  0  0  0  0  0  0  0  0  0  0
  138.8219   69.7860  222.4868 H   0  0  0  0  0  0  0  0  0  0  0  0
  138.7008   68.3936  224.5472 H   0  0  0  0  0  0  0  0  0  0  0  0
  139.2445   68.1372  226.8160 H   0  0  0  0  0  0  0  0  0  0  0  0
  141.4801   71.2167  228.8570 H   0  0  0  0  0  0  0  0  0  0  0  0
  141.5582   72.5545  226.7624 H   0  0  0  0  0  0  0  0  0  0  0  0
  1  2  1  0
  2  3  1  0
  2  4  1  0
  4  5  1  0
  5  6  1  0
  6  7  1  0
  7  8  2  0
  8  9  1  0
  9 10  2  0
 10 11  1  0
 10 12  1  0
 12 13  2  0
  5 14  1  0
 14 15  1  0
 15 16  2  0
 15 17  1  0
 17 18  1  0
 18 19  1  0
 19 20  1  0
 19 21  1  0
 21 22  1  0
 22 23  1  0
 23 24  2  0
 23 25  1  0
 25 26  1  0
 26 27  1  0
 27 28  2  0
 27 29  1  0
 29 30  2  0
 30 31  1  0
 31 32  2  0
 32 33  1  0
 33 34  2  0
 34 35  1  0
 34 36  1  0
 36 37  2  0
 37 38  1  0
 38 39  2  0
 13  7  1  0
 22 17  1  0
 39 29  1  0
 38 32  1  0
  1 40  1  0
  1 41  1  0
  1 42  1  0
  2 43  1  0
  3 44  1  0
  3 45  1  0
  3 46  1  0
  4 47  1  0
  4 48  1  0
  5 49  1  6
  6 50  1  0
  6 51  1  0
  8 52  1  0
  9 53  1  0
 12 54  1  0
 13 55  1  0
 14 56  1  0
 17 57  1  1
 18 58  1  0
 18 59  1  0
 19 60  1  6
 20 61  1  0
 21 62  1  0
 21 63  1  0
 25 64  1  0
 25 65  1  0
 26 66  1  0
 30 67  1  0
 31 68  1  0
 33 69  1  0
 36 70  1  0
 37 71  1  0
M  END
>  <smiles>  (3) 
CC(C)C[C@H](Cc1ccc(F)cc1)NC(=O)[C@@H]1C[C@@H](O)CN1C(=O)CNC(=O)c1ccc2cc(F)ccc2n1

>  <score_type>  (3) 
oracle

>  <origin>  (3) 
autodockgpu

>  <m_score__min__energy>  (3) 
-9.6099999999999994

>  <m_primary>  (3) 
energy

>  <meeko>  (3) 
{"free_energy": -7.83, "intermolecular_energy": -11.12, "internal_energy": -3.69, "cluster_size": 3, "cluster_id": 5, "rank_in_cluster": 2}

>  <energy>  (3) 
-8.82

>  <cluster_rmsd>  (3) 
0.0

>  <rmsd>  (3) 
270.79

>  <cluster>  (3) 
2

$$$$

     RDKit          3D

 71 74  0  0  0  0  0  0  0  0999 V2000
  143.2160   76.7250  218.0160 C   0  0  0  0  0  0  0  0  0  0  0  0
  142.5530   75.9840  219.1870 C   0  0  0  0  0  0  0  0  0  0  0  0
  143.6830   75.2280  219.8530 C   0  0  0  0  0  0  0  0  0  0  0  0
  141.9480   77.0300  220.0460 C   0  0  0  0  0  0  0  0  0  0  0  0
  140.4610   77.1880  219.9670 C   0  0  2  0  0  0  0  0  0  0  0  0
  139.9100   78.3390  220.7160 C   0  0  0  0  0  0  0  0  0  0  0  0
  140.8470   78.9250  221.7000 C   0  0  0  0  0  0  0  0  0  0  0  0
  141.6460   79.9840  221.3000 C   0  0  0  0  0  0  0  0  0  0  0  0
  142.5550   80.5920  222.1310 C   0  0  0  0  0  0  0  0  0  0  0  0
  142.6890   80.1380  223.4240 C   0  0  0  0  0  0  0  0  0  0  0  0
  143.5820   80.7360  224.2430 F   0  0  0  0  0  0  0  0  0  0  0  0
  141.9100   79.0960  223.8340 C   0  0  0  0  0  0  0  0  0  0  0  0
  140.9990   78.4900  222.9930 C   0  0  0  0  0  0  0  0  0  0  0  0
  139.8830   75.9460  220.4210 N   0  0  0  0  0  0  0  0  0  0  0  0
  140.3440   75.2120  221.5470 C   0  0  0  0  0  0  0  0  0  0  0  0
  141.3210   75.6190  222.2420 O   0  0  0  0  0  0  0  0  0  0  0  0
  139.7250   73.9310  221.9910 C   0  0  2  0  0  0  0  0  0  0  0  0
  140.8090   72.8760  222.0570 C   0  0  0  0  0  0  0  0  0  0  0  0
  140.9620   72.4480  220.6160 C   0  0  1  0  0  0  0  0  0  0  0  0
  141.4030   71.1070  220.5790 O   0  0  0  0  0  0  0  0  0  0  0  0
  139.5880   72.5910  220.0490 C   0  0  0  0  0  0  0  0  0  0  0  0
  138.8100   73.3750  221.0170 N   0  0  0  0  0  0  0  0  0  0  0  0
  137.4000   73.4930  220.9090 C   0  0  0  0  0  0  0  0  0  0  0  0
  136.9750   74.3320  220.0480 O   0  0  0  0  0  0  0  0  0  0  0  0
  136.4970   72.6830  221.7510 C   0  0  0  0  0  0  0  0  0  0  0  0
  137.1320   72.1760  222.9290 N   0  0  0  0  0  0  0  0  0  0  0  0
  137.8840   70.9700  222.8140 C   0  0  0  0  0  0  0  0  0  0  0  0
  137.9190   70.4550  221.6560 O   0  0  0  0  0  0  0  0  0  0  0  0
  138.5660   70.3780  223.9600 C   0  0  0  0  0  0  0  0  0  0  0  0
  138.5640   69.0020  224.0540 C   0  0  0  0  0  0  0  0  0  0  0  0
  139.1750   68.3190  225.0910 C   0  0  0  0  0  0  0  0  0  0  0  0
  139.8010   69.0920  226.0500 C   0  0  0  0  0  0  0  0  0  0  0  0
  140.4110   68.4400  227.0830 C   0  0  0  0  0  0  0  0  0  0  0  0
  141.0450   69.1960  228.0580 C   0  0  0  0  0  0  0  0  0  0  0  0
  141.6540   68.5530  229.0910 F   0  0  0  0  0  0  0  0  0  0  0  0
  141.0460   70.5870  227.9610 C   0  0  0  0  0  0  0  0  0  0  0  0
  140.4150   71.2210  226.8960 C   0  0  0  0  0  0  0  0  0  0  0  0
  139.7770   70.4650  225.9150 C   0  0  0  0  0  0  0  0  0  0  0  0
  139.1730   71.0970  224.8920 N   0  0  0  0  0  0  0  0  0  0  0  0
  143.9014   77.4910  218.4078 H   0  0  0  0  0  0  0  0  0  0  0  0
  143.7800   76.0084  217.4009 H   0  0  0  0  0  0  0  0  0  0  0  0
  142.4414   77.2062  217.4009 H   0  0  0  0  0  0  0  0  0  0  0  0
  141.7573   75.2724  218.9214 H   0  0  0  0  0  0  0  0  0  0  0  0
  143.5775   75.2986  220.9456 H   0  0  0  0  0  0  0  0  0  0  0  0
  143.6469   74.1716  219.5486 H   0  0  0  0  0  0  0  0  0  0  0  0
  144.6457   75.6645  219.5486 H   0  0  0  0  0  0  0  0  0  0  0  0
  142.2030   76.7930  221.0895 H   0  0  0  0  0  0  0  0  0  0  0  0
  142.3598   77.9809  219.6770 H   0  0  0  0  0  0  0  0  0  0  0  0
  140.1979   77.4130  218.9229 H   0  0  0  0  0  0  0  0  0  0  0  0
  139.6344   79.1212  219.9934 H   0  0  0  0  0  0  0  0  0  0  0  0
  139.0472   77.9628  221.2852 H   0  0  0  0  0  0  0  0  0  0  0  0
  141.5478   80.3550  220.2691 H   0  0  0  0  0  0  0  0  0  0  0  0
  143.1678   81.4305  221.7684 H   0  0  0  0  0  0  0  0  0  0  0  0
  142.0110   78.7278  224.8656 H   0  0  0  0  0  0  0  0  0  0  0  0
  140.3898   77.6516  223.3618 H   0  0  0  0  0  0  0  0  0  0  0  0
  139.0540   75.5060  219.9160 H   0  0  0  0  0  0  0  0  0  0  0  0
  139.2148   74.1573  222.9389 H   0  0  0  0  0  0  0  0  0  0  0  0
  141.7476   73.2985  222.4448 H   0  0  0  0  0  0  0  0  0  0  0  0
  140.5597   72.0428  222.7305 H   0  0  0  0  0  0  0  0  0  0  0  0
  141.6963   73.0389  220.0488 H   0  0  0  0  0  0  0  0  0  0  0  0
  140.6730   70.4640  220.6860 H   0  0  0  0  0  0  0  0  0  0  0  0
  139.6295   73.1153  219.0829 H   0  0  0  0  0  0  0  0  0  0  0  0
  139.1275   71.6071  219.8763 H   0  0  0  0  0  0  0  0  0  0  0  0
  135.6454   73.3097  222.0545 H   0  0  0  0  0  0  0  0  0  0  0  0
  136.1785   71.8173  221.1517 H   0  0  0  0  0  0  0  0  0  0  0  0
  137.0940   72.6140  223.8780 H   0  0  0  0  0  0  0  0  0  0  0  0
  138.0544   68.4221  223.2704 H   0  0  0  0  0  0  0  0  0  0  0  0
  139.1630   67.2206  225.1486 H   0  0  0  0  0  0  0  0  0  0  0  0
  140.3999   67.3416  227.1406 H   0  0  0  0  0  0  0  0  0  0  0  0
  141.5498   71.1875  228.7327 H   0  0  0  0  0  0  0  0  0  0  0  0
  140.4197   72.3189  226.8283 H   0  0  0  0  0  0  0  0  0  0  0  0
  1  2  1  0
  2  3  1  0
  2  4  1  0
  4  5  1  0
  5  6  1  0
  6  7  1  0
  7  8  2  0
  8  9  1  0
  9 10  2  0
 10 11  1  0
 10 12  1  0
 12 13  2  0
  5 14  1  0
 14 15  1  0
 15 16  2  0
 15 17  1  0
 17 18  1  0
 18 19  1  0
 19 20  1  0
 19 21  1  0
 21 22  1  0
 22 23  1  0
 23 24  2  0
 23 25  1  0
 25 26  1  0
 26 27  1  0
 27 28  2  0
 27 29  1  0
 29 30  2  0
 30 31  1  0
 31 32  2  0
 32 33  1  0
 33 34  2  0
 34 35  1  0
 34 36  1  0
 36 37  2  0
 37 38  1  0
 38 39  2  0
 13  7  1  0
 22 17  1  0
 39 29  1  0
 38 32  1  0
  1 40  1  0
  1 41  1  0
  1 42  1  0
  2 43  1  0
  3 44  1  0
  3 45  1  0
  3 46  1  0
  4 47  1  0
  4 48  1  0
  5 49  1  6
  6 50  1  0
  6 51  1  0
  8 52  1  0
  9 53  1  0
 12 54  1  0
 13 55  1  0
 14 56  1  0
 17 57  1  1
 18 58  1  0
 18 59  1  0
 19 60  1  6
 20 61  1  0
 21 62  1  0
 21 63  1  0
 25 64  1  0
 25 65  1  0
 26 66  1  0
 30 67  1  0
 31 68  1  0
 33 69  1  0
 36 70  1  0
 37 71  1  0
M  END
>  <smiles>  (4) 
CC(C)C[C@H](Cc1ccc(F)cc1)NC(=O)[C@@H]1C[C@@H](O)CN1C(=O)CNC(=O)c1ccc2cc(F)ccc2n1

>  <score_type>  (4) 
oracle

>  <origin>  (4) 
autodockgpu

>  <m_score__min__energy>  (4) 
-9.6099999999999994

>  <m_primary>  (4) 
energy

>  <meeko>  (4) 
{"free_energy": -8.0, "intermolecular_energy": -11.28, "internal_energy": -3.63, "cluster_size": 3, "cluster_id": 4, "rank_in_cluster": 2}

>  <energy>  (4) 
-8.76

>  <cluster_rmsd>  (4) 
0.27

>  <rmsd>  (4) 
270.81

>  <cluster>  (4) 
2

$$$$

     RDKit          3D

 71 74  0  0  0  0  0  0  0  0999 V2000
  143.3260   80.8370  223.9620 C   0  0  0  0  0  0  0  0  0  0  0  0
  142.4310   79.9480  223.0850 C   0  0  0  0  0  0  0  0  0  0  0  0
  141.7690   78.9930  224.0550 C   0  0  0  0  0  0  0  0  0  0  0  0
  141.4810   80.8620  222.4060 C   0  0  0  0  0  0  0  0  0  0  0  0
  140.5990   80.2560  221.3590 C   0  0  2  0  0  0  0  0  0  0  0  0
  139.1470   80.3390  221.6360 C   0  0  0  0  0  0  0  0  0  0  0  0
  138.4610   79.0280  221.6680 C   0  0  0  0  0  0  0  0  0  0  0  0
  138.4740   78.3080  222.8520 C   0  0  0  0  0  0  0  0  0  0  0  0
  137.8770   77.0770  222.9870 C   0  0  0  0  0  0  0  0  0  0  0  0
  137.2340   76.5230  221.9030 C   0  0  0  0  0  0  0  0  0  0  0  0
  136.6460   75.3130  222.0330 F   0  0  0  0  0  0  0  0  0  0  0  0
  137.2140   77.2190  220.7300 C   0  0  0  0  0  0  0  0  0  0  0  0
  137.8150   78.4550  220.6030 C   0  0  0  0  0  0  0  0  0  0  0  0
  141.0200   78.8850  221.1970 N   0  0  0  0  0  0  0  0  0  0  0  0
  141.7960   78.4090  220.1070 C   0  0  0  0  0  0  0  0  0  0  0  0
  142.1780   79.1860  219.1830 O   0  0  0  0  0  0  0  0  0  0  0  0
  142.2150   76.9850  219.9680 C   0  0  2  0  0  0  0  0  0  0  0  0
  142.6720   76.7600  218.5430 C   0  0  0  0  0  0  0  0  0  0  0  0
  141.3750   76.5820  217.7890 C   0  0  1  0  0  0  0  0  0  0  0  0
  141.6040   75.7550  216.6670 O   0  0  0  0  0  0  0  0  0  0  0  0
  140.4690   75.9270  218.7790 C   0  0  0  0  0  0  0  0  0  0  0  0
  141.1140   76.0550  220.0920 N   0  0  0  0  0  0  0  0  0  0  0  0
  140.6430   75.3320  221.2190 C   0  0  0  0  0  0  0  0  0  0  0  0
  140.7180   75.9390  222.3390 O   0  0  0  0  0  0  0  0  0  0  0  0
  140.1050   73.9650  221.0840 C   0  0  0  0  0  0  0  0  0  0  0  0
  139.9300   73.3030  222.3410 N   0  0  0  0  0  0  0  0  0  0  0  0
  140.3370   71.9390  222.4380 C   0  0  0  0  0  0  0  0  0  0  0  0
  140.8250   71.4360  221.3810 O   0  0  0  0  0  0  0  0  0  0  0  0
  140.1980   71.1830  223.6790 C   0  0  0  0  0  0  0  0  0  0  0  0
  139.5470   69.9690  223.6090 C   0  0  0  0  0  0  0  0  0  0  0  0
  139.3500   69.1570  224.7120 C   0  0  0  0  0  0  0  0  0  0  0  0
  139.8450   69.6260  225.9130 C   0  0  0  0  0  0  0  0  0  0  0  0
  139.6620   68.8420  227.0170 C   0  0  0  0  0  0  0  0  0  0  0  0
  140.1490   69.2920  228.2350 C   0  0  0  0  0  0  0  0  0  0  0  0
  139.9700   68.5160  229.3380 F   0  0  0  0  0  0  0  0  0  0  0  0
  140.8070   70.5200  228.3040 C   0  0  0  0  0  0  0  0  0  0  0  0
  140.9760   71.2950  227.1610 C   0  0  0  0  0  0  0  0  0  0  0  0
  140.4880   70.8470  225.9370 C   0  0  0  0  0  0  0  0  0  0  0  0
  140.6630   71.6100  224.8430 N   0  0  0  0  0  0  0  0  0  0  0  0
  143.1196   80.6320  225.0228 H   0  0  0  0  0  0  0  0  0  0  0  0
  144.3826   80.6205  223.7455 H   0  0  0  0  0  0  0  0  0  0  0  0
  143.1167   81.8950  223.7455 H   0  0  0  0  0  0  0  0  0  0  0  0
  142.9433   79.3648  222.3057 H   0  0  0  0  0  0  0  0  0  0  0  0
  141.9873   79.3079  225.0861 H   0  0  0  0  0  0  0  0  0  0  0  0
  140.6812   79.0002  223.8919 H   0  0  0  0  0  0  0  0  0  0  0  0
  142.1575   77.9769  223.8919 H   0  0  0  0  0  0  0  0  0  0  0  0
  140.8306   81.3002  223.1773 H   0  0  0  0  0  0  0  0  0  0  0  0
  142.1102   81.5879  221.8701 H   0  0  0  0  0  0  0  0  0  0  0  0
  140.7183   80.8400  220.4345 H   0  0  0  0  0  0  0  0  0  0  0  0
  139.0092   80.8247  222.6133 H   0  0  0  0  0  0  0  0  0  0  0  0
  138.6991   80.9107  220.8099 H   0  0  0  0  0  0  0  0  0  0  0  0
  138.9856   78.7414  223.7240 H   0  0  0  0  0  0  0  0  0  0  0  0
  137.9126   76.5422  223.9476 H   0  0  0  0  0  0  0  0  0  0  0  0
  136.7035   76.7820  219.8591 H   0  0  0  0  0  0  0  0  0  0  0  0
  137.7754   78.9846  219.6397 H   0  0  0  0  0  0  0  0  0  0  0  0
  140.7590   78.1400  221.9130 H   0  0  0  0  0  0  0  0  0  0  0  0
  142.9722   76.8177  220.7482 H   0  0  0  0  0  0  0  0  0  0  0  0
  143.2313   77.6290  218.1662 H   0  0  0  0  0  0  0  0  0  0  0  0
  143.3531   75.9026  218.4385 H   0  0  0  0  0  0  0  0  0  0  0  0
  140.9463   77.5207  217.4081 H   0  0  0  0  0  0  0  0  0  0  0  0
  140.7760   75.4500  216.2440 H   0  0  0  0  0  0  0  0  0  0  0  0
  139.4903   76.4291  218.7871 H   0  0  0  0  0  0  0  0  0  0  0  0
  140.3010   74.8706  218.5225 H   0  0  0  0  0  0  0  0  0  0  0  0
  139.1292   74.0212  220.5793 H   0  0  0  0  0  0  0  0  0  0  0  0
  140.8356   73.3810  220.5050 H   0  0  0  0  0  0  0  0  0  0  0  0
  139.5280   73.7320  223.2040 H   0  0  0  0  0  0  0  0  0  0  0  0
  139.1677   69.6314  222.6332 H   0  0  0  0  0  0  0  0  0  0  0  0
  138.8282   68.1916  224.6365 H   0  0  0  0  0  0  0  0  0  0  0  0
  139.1405   67.8764  226.9414 H   0  0  0  0  0  0  0  0  0  0  0  0
  141.1950   70.8782  229.2690 H   0  0  0  0  0  0  0  0  0  0  0  0
  141.4956   72.2624  227.2247 H   0  0  0  0  0  0  0  0  0  0  0  0
  1  2  1  0
  2  3  1  0
  2  4  1  0
  4  5  1  0
  5  6  1  0
  6  7  1  0
  7  8  2  0
  8  9  1  0
  9 10  2  0
 10 11  1  0
 10 12  1  0
 12 13  2  0
  5 14  1  0
 14 15  1  0
 15 16  2  0
 15 17  1  0
 17 18  1  0
 18 19  1  0
 19 20  1  0
 19 21  1  0
 21 22  1  0
 22 23  1  0
 23 24  2  0
 23 25  1  0
 25 26  1  0
 26 27  1  0
 27 28  2  0
 27 29  1  0
 29 30  2  0
 30 31  1  0
 31 32  2  0
 32 33  1  0
 33 34  2  0
 34 35  1  0
 34 36  1  0
 36 37  2  0
 37 38  1  0
 38 39  2  0
 13  7  1  0
 22 17  1  0
 39 29  1  0
 38 32  1  0
  1 40  1  0
  1 41  1  0
  1 42  1  0
  2 43  1  0
  3 44  1  0
  3 45  1  0
  3 46  1  0
  4 47  1  0
  4 48  1  0
  5 49  1  6
  6 50  1  0
  6 51  1  0
  8 52  1  0
  9 53  1  0
 12 54  1  0
 13 55  1  0
 14 56  1  0
 17 57  1  1
 18 58  1  0
 18 59  1  0
 19 60  1  6
 20 61  1  0
 21 62  1  0
 21 63  1  0
 25 64  1  0
 25 65  1  0
 26 66  1  0
 30 67  1  0
 31 68  1  0
 33 69  1  0
 36 70  1  0
 37 71  1  0
M  END
>  <smiles>  (5) 
CC(C)C[C@H](Cc1ccc(F)cc1)NC(=O)[C@@H]1C[C@@H](O)CN1C(=O)CNC(=O)c1ccc2cc(F)ccc2n1

>  <score_type>  (5) 
oracle

>  <origin>  (5) 
autodockgpu

>  <m_score__min__energy>  (5) 
-9.6099999999999994

>  <m_primary>  (5) 
energy

>  <meeko>  (5) 
{"free_energy": -7.83, "intermolecular_energy": -11.11, "internal_energy": -3.95, "cluster_size": 3, "cluster_id": 5, "rank_in_cluster": 3}

>  <energy>  (5) 
-8.71

>  <cluster_rmsd>  (5) 
0.8

>  <rmsd>  (5) 
270.82

>  <cluster>  (5) 
2

$$$$

     RDKit          3D

 71 74  0  0  0  0  0  0  0  0999 V2000
  140.1480   79.4160  223.8290 C   0  0  0  0  0  0  0  0  0  0  0  0
  141.1160   79.0420  222.6960 C   0  0  0  0  0  0  0  0  0  0  0  0
  142.4550   79.5930  223.1380 C   0  0  0  0  0  0  0  0  0  0  0  0
  141.0840   77.5620  222.5990 C   0  0  0  0  0  0  0  0  0  0  0  0
  140.9670   76.9830  221.2230 C   0  0  2  0  0  0  0  0  0  0  0  0
  139.6140   77.0510  220.6250 C   0  0  0  0  0  0  0  0  0  0  0  0
  138.5830   76.2990  221.3740 C   0  0  0  0  0  0  0  0  0  0  0  0
  138.2810   75.0100  220.9640 C   0  0  0  0  0  0  0  0  0  0  0  0
  137.3330   74.2300  221.5820 C   0  0  0  0  0  0  0  0  0  0  0  0
  136.6440   74.7410  222.6590 C   0  0  0  0  0  0  0  0  0  0  0  0
  135.7130   73.9750  223.2690 F   0  0  0  0  0  0  0  0  0  0  0  0
  136.9300   76.0090  223.0750 C   0  0  0  0  0  0  0  0  0  0  0  0
  137.8830   76.7860  222.4490 C   0  0  0  0  0  0  0  0  0  0  0  0
  141.4320   75.6180  221.3020 N   0  0  0  0  0  0  0  0  0  0  0  0
  142.4910   75.0870  220.5180 C   0  0  0  0  0  0  0  0  0  0  0  0
  143.1100   75.8030  219.6780 O   0  0  0  0  0  0  0  0  0  0  0  0
  142.9480   73.6720  220.6230 C   0  0  2  0  0  0  0  0  0  0  0  0
  144.4600   73.6550  220.5500 C   0  0  0  0  0  0  0  0  0  0  0  0
  144.7360   73.7640  219.0680 C   0  0  1  0  0  0  0  0  0  0  0  0
  145.9640   73.1300  218.7800 O   0  0  0  0  0  0  0  0  0  0  0  0
  143.5870   73.0520  218.4340 C   0  0  0  0  0  0  0  0  0  0  0  0
  142.5720   72.8680  219.4800 N   0  0  0  0  0  0  0  0  0  0  0  0
  141.4550   72.0150  219.2850 C   0  0  0  0  0  0  0  0  0  0  0  0
  141.6190   71.0680  218.4460 O   0  0  0  0  0  0  0  0  0  0  0  0
  140.1910   72.2270  220.0170 C   0  0  0  0  0  0  0  0  0  0  0  0
  140.0750   71.4100  221.1860 N   0  0  0  0  0  0  0  0  0  0  0  0
  140.1400   72.0530  222.4580 C   0  0  0  0  0  0  0  0  0  0  0  0
  140.2960   73.3110  222.4280 O   0  0  0  0  0  0  0  0  0  0  0  0
  140.0320   71.3020  223.7040 C   0  0  0  0  0  0  0  0  0  0  0  0
  139.3710   70.0920  223.6570 C   0  0  0  0  0  0  0  0  0  0  0  0
  139.2010   69.2850  224.7680 C   0  0  0  0  0  0  0  0  0  0  0  0
  139.7330   69.7550  225.9540 C   0  0  0  0  0  0  0  0  0  0  0  0
  139.5780   68.9750  227.0640 C   0  0  0  0  0  0  0  0  0  0  0  0
  140.1030   69.4260  228.2660 C   0  0  0  0  0  0  0  0  0  0  0  0
  139.9510   68.6540  229.3770 F   0  0  0  0  0  0  0  0  0  0  0  0
  140.7700   70.6500  228.3120 C   0  0  0  0  0  0  0  0  0  0  0  0
  140.9110   71.4200  227.1620 C   0  0  0  0  0  0  0  0  0  0  0  0
  140.3850   70.9710  225.9540 C   0  0  0  0  0  0  0  0  0  0  0  0
  140.5330   71.7290  224.8530 N   0  0  0  0  0  0  0  0  0  0  0  0
  140.6304   79.2296  224.7999 H   0  0  0  0  0  0  0  0  0  0  0  0
  139.8840   80.4809  223.7491 H   0  0  0  0  0  0  0  0  0  0  0  0
  139.2366   78.8053  223.7491 H   0  0  0  0  0  0  0  0  0  0  0  0
  140.8756   79.4448  221.7010 H   0  0  0  0  0  0  0  0  0  0  0  0
  142.4993   79.6112  224.2370 H   0  0  0  0  0  0  0  0  0  0  0  0
  143.2611   78.9535  222.7491 H   0  0  0  0  0  0  0  0  0  0  0  0
  142.5775   80.6146  222.7491 H   0  0  0  0  0  0  0  0  0  0  0  0
  142.0135   77.1781  223.0448 H   0  0  0  0  0  0  0  0  0  0  0  0
  140.1653   77.2567  223.1214 H   0  0  0  0  0  0  0  0  0  0  0  0
  141.5793   77.5942  220.5437 H   0  0  0  0  0  0  0  0  0  0  0  0
  139.3082   78.1068  220.5820 H   0  0  0  0  0  0  0  0  0  0  0  0
  139.6838   76.5875  219.6299 H   0  0  0  0  0  0  0  0  0  0  0  0
  138.8252   74.5919  220.1043 H   0  0  0  0  0  0  0  0  0  0  0  0
  137.1275   73.2114  221.2211 H   0  0  0  0  0  0  0  0  0  0  0  0
  136.3843   76.4240  223.9352 H   0  0  0  0  0  0  0  0  0  0  0  0
  138.0832   77.8040  222.8147 H   0  0  0  0  0  0  0  0  0  0  0  0
  140.9870   74.9230  221.9750 H   0  0  0  0  0  0  0  0  0  0  0  0
  142.5061   73.2812  221.5514 H   0  0  0  0  0  0  0  0  0  0  0  0
  144.8908   74.5078  221.0951 H   0  0  0  0  0  0  0  0  0  0  0  0
  144.9036   72.7578  221.0064 H   0  0  0  0  0  0  0  0  0  0  0  0
  144.8213   74.7983  218.7033 H   0  0  0  0  0  0  0  0  0  0  0  0
  146.6980   73.7650  218.6510 H   0  0  0  0  0  0  0  0  0  0  0  0
  143.1766   73.6541  217.6099 H   0  0  0  0  0  0  0  0  0  0  0  0
  143.9038   72.0846  218.0170 H   0  0  0  0  0  0  0  0  0  0  0  0
  140.1354   73.2827  220.3209 H   0  0  0  0  0  0  0  0  0  0  0  0
  139.3696   71.9492  219.3401 H   0  0  0  0  0  0  0  0  0  0  0  0
  139.9460   70.3730  221.1940 H   0  0  0  0  0  0  0  0  0  0  0  0
  138.9611   69.7539  222.6939 H   0  0  0  0  0  0  0  0  0  0  0  0
  138.6717   68.3225  224.7106 H   0  0  0  0  0  0  0  0  0  0  0  0
  139.0494   68.0120  227.0063 H   0  0  0  0  0  0  0  0  0  0  0  0
  141.1875   71.0090  229.2643 H   0  0  0  0  0  0  0  0  0  0  0  0
  141.4385   72.3842  227.2073 H   0  0  0  0  0  0  0  0  0  0  0  0
  1  2  1  0
  2  3  1  0
  2  4  1  0
  4  5  1  0
  5  6  1  0
  6  7  1  0
  7  8  2  0
  8  9  1  0
  9 10  2  0
 10 11  1  0
 10 12  1  0
 12 13  2  0
  5 14  1  0
 14 15  1  0
 15 16  2  0
 15 17  1  0
 17 18  1  0
 18 19  1  0
 19 20  1  0
 19 21  1  0
 21 22  1  0
 22 23  1  0
 23 24  2  0
 23 25  1  0
 25 26  1  0
 26 27  1  0
 27 28  2  0
 27 29  1  0
 29 30  2  0
 30 31  1  0
 31 32  2  0
 32 33  1  0
 33 34  2  0
 34 35  1  0
 34 36  1  0
 36 37  2  0
 37 38  1  0
 38 39  2  0
 13  7  1  0
 22 17  1  0
 39 29  1  0
 38 32  1  0
  1 40  1  0
  1 41  1  0
  1 42  1  0
  2 43  1  0
  3 44  1  0
  3 45  1  0
  3 46  1  0
  4 47  1  0
  4 48  1  0
  5 49  1  6
  6 50  1  0
  6 51  1  0
  8 52  1  0
  9 53  1  0
 12 54  1  0
 13 55  1  0
 14 56  1  0
 17 57  1  1
 18 58  1  0
 18 59  1  0
 19 60  1  6
 20 61  1  0
 21 62  1  0
 21 63  1  0
 25 64  1  0
 25 65  1  0
 26 66  1  0
 30 67  1  0
 31 68  1  0
 33 69  1  0
 36 70  1  0
 37 71  1  0
M  END
>  <smiles>  (6) 
CC(C)C[C@H](Cc1ccc(F)cc1)NC(=O)[C@@H]1C[C@@H](O)CN1C(=O)CNC(=O)c1ccc2cc(F)ccc2n1

>  <score_type>  (6) 
oracle

>  <origin>  (6) 
autodockgpu

>  <m_score__min__energy>  (6) 
-9.6099999999999994

>  <m_primary>  (6) 
energy

>  <meeko>  (6) 
{"free_energy": -8.82, "intermolecular_energy": -12.1, "internal_energy": -3.53, "cluster_size": 4, "cluster_id": 2, "rank_in_cluster": 1}

>  <energy>  (6) 
-7.99

>  <cluster_rmsd>  (6) 
1.93

>  <rmsd>  (6) 
271.08

>  <cluster>  (6) 
2

$$$$

     RDKit          3D

 71 74  0  0  0  0  0  0  0  0999 V2000
  143.6390   80.4970  223.3300 C   0  0  0  0  0  0  0  0  0  0  0  0
  142.2020   80.8440  223.7490 C   0  0  0  0  0  0  0  0  0  0  0  0
  141.7330   81.8470  222.7170 C   0  0  0  0  0  0  0  0  0  0  0  0
  141.4470   79.5680  223.7260 C   0  0  0  0  0  0  0  0  0  0  0  0
  140.6700   79.2700  222.4810 C   0  0  2  0  0  0  0  0  0  0  0  0
  139.2060   79.1540  222.6670 C   0  0  0  0  0  0  0  0  0  0  0  0
  138.6120   77.9480  222.0480 C   0  0  0  0  0  0  0  0  0  0  0  0
  138.4200   76.8280  222.8390 C   0  0  0  0  0  0  0  0  0  0  0  0
  137.8860   75.6550  222.3620 C   0  0  0  0  0  0  0  0  0  0  0  0
  137.5200   75.5770  221.0370 C   0  0  0  0  0  0  0  0  0  0  0  0
  136.9940   74.4250  220.5660 F   0  0  0  0  0  0  0  0  0  0  0  0
  137.7030   76.6720  220.2430 C   0  0  0  0  0  0  0  0  0  0  0  0
  138.2390   77.8460  220.7310 C   0  0  0  0  0  0  0  0  0  0  0  0
  141.2220   78.0590  221.9220 N   0  0  0  0  0  0  0  0  0  0  0  0
  141.8180   77.9700  220.6350 C   0  0  0  0  0  0  0  0  0  0  0  0
  141.9050   78.9820  219.8800 O   0  0  0  0  0  0  0  0  0  0  0  0
  142.3780   76.7020  220.0860 C   0  0  2  0  0  0  0  0  0  0  0  0
  142.6350   76.8980  218.6070 C   0  0  0  0  0  0  0  0  0  0  0  0
  141.2690   76.7070  217.9910 C   0  0  1  0  0  0  0  0  0  0  0  0
  141.4220   76.2180  216.6750 O   0  0  0  0  0  0  0  0  0  0  0  0
  140.6100   75.7030  218.8780 C   0  0  0  0  0  0  0  0  0  0  0  0
  141.4280   75.6110  220.0940 N   0  0  0  0  0  0  0  0  0  0  0  0
  141.2250   74.5770  221.0440 C   0  0  0  0  0  0  0  0  0  0  0  0
  141.0260   74.9560  222.2460 O   0  0  0  0  0  0  0  0  0  0  0  0
  141.2480   73.1550  220.6470 C   0  0  0  0  0  0  0  0  0  0  0  0
  141.3060   72.2610  221.7630 N   0  0  0  0  0  0  0  0  0  0  0  0
  140.1930   72.2370  222.6560 C   0  0  0  0  0  0  0  0  0  0  0  0
  139.2430   73.0250  222.3670 O   0  0  0  0  0  0  0  0  0  0  0  0
  140.1620   71.3590  223.8200 C   0  0  0  0  0  0  0  0  0  0  0  0
  139.6070   70.1070  223.6530 C   0  0  0  0  0  0  0  0  0  0  0  0
  139.5180   69.1820  224.6770 C   0  0  0  0  0  0  0  0  0  0  0  0
  140.0210   69.5740  225.9030 C   0  0  0  0  0  0  0  0  0  0  0  0
  139.9430   68.6760  226.9300 C   0  0  0  0  0  0  0  0  0  0  0  0
  140.4410   69.0480  228.1700 C   0  0  0  0  0  0  0  0  0  0  0  0
  140.3670   68.1590  229.1980 F   0  0  0  0  0  0  0  0  0  0  0  0
  141.0020   70.3140  228.3370 C   0  0  0  0  0  0  0  0  0  0  0  0
  141.0650   71.2040  227.2710 C   0  0  0  0  0  0  0  0  0  0  0  0
  140.5660   70.8350  226.0250 C   0  0  0  0  0  0  0  0  0  0  0  0
  140.6370   71.7100  225.0060 N   0  0  0  0  0  0  0  0  0  0  0  0
  144.2568   80.3478  224.2278 H   0  0  0  0  0  0  0  0  0  0  0  0
  143.6337   79.5743  222.7311 H   0  0  0  0  0  0  0  0  0  0  0  0
  144.0553   81.3204  222.7311 H   0  0  0  0  0  0  0  0  0  0  0  0
  142.0820   81.2817  224.7510 H   0  0  0  0  0  0  0  0  0  0  0  0
  141.3199   82.7305  223.2257 H   0  0  0  0  0  0  0  0  0  0  0  0
  142.5827   82.1501  222.0877 H   0  0  0  0  0  0  0  0  0  0  0  0
  140.9555   81.3893  222.0877 H   0  0  0  0  0  0  0  0  0  0  0  0
  142.1686   78.7508  223.8725 H   0  0  0  0  0  0  0  0  0  0  0  0
  140.6936   79.6629  224.5219 H   0  0  0  0  0  0  0  0  0  0  0  0
  140.7748   80.1279  221.8005 H   0  0  0  0  0  0  0  0  0  0  0  0
  138.9959   79.1274  223.7464 H   0  0  0  0  0  0  0  0  0  0  0  0
  138.7529   80.0229  222.1674 H   0  0  0  0  0  0  0  0  0  0  0  0
  138.7085   76.8795  223.8993 H   0  0  0  0  0  0  0  0  0  0  0  0
  137.7529   74.7907  223.0293 H   0  0  0  0  0  0  0  0  0  0  0  0
  137.4147   76.6169  219.1829 H   0  0  0  0  0  0  0  0  0  0  0  0
  138.3685   78.7073  220.0591 H   0  0  0  0  0  0  0  0  0  0  0  0
  141.2060   77.1440  222.4670 H   0  0  0  0  0  0  0  0  0  0  0  0
  143.2594   76.4713  220.7024 H   0  0  0  0  0  0  0  0  0  0  0  0
  143.0215   77.9077  218.4042 H   0  0  0  0  0  0  0  0  0  0  0  0
  143.3900   76.2064  218.2050 H   0  0  0  0  0  0  0  0  0  0  0  0
  140.6772   77.6314  217.9184 H   0  0  0  0  0  0  0  0  0  0  0  0
  141.2960   76.9110  215.9950 H   0  0  0  0  0  0  0  0  0  0  0  0
  139.5911   76.0317  219.1308 H   0  0  0  0  0  0  0  0  0  0  0  0
  140.5323   74.7257  218.3792 H   0  0  0  0  0  0  0  0  0  0  0  0
  140.3362   72.9375  220.0714 H   0  0  0  0  0  0  0  0  0  0  0  0
  142.1591   72.9956  220.0516 H   0  0  0  0  0  0  0  0  0  0  0  0
  142.0970   71.6160  221.9870 H   0  0  0  0  0  0  0  0  0  0  0  0
  139.2181   69.8325  222.6614 H   0  0  0  0  0  0  0  0  0  0  0  0
  139.0713   68.1885  224.5241 H   0  0  0  0  0  0  0  0  0  0  0  0
  139.4962   67.6825  226.7771 H   0  0  0  0  0  0  0  0  0  0  0  0
  141.3976   70.6104  229.3197 H   0  0  0  0  0  0  0  0  0  0  0  0
  141.5094   72.2003  227.4122 H   0  0  0  0  0  0  0  0  0  0  0  0
  1  2  1  0
  2  3  1  0
  2  4  1  0
  4  5  1  0
  5  6  1  0
  6  7  1  0
  7  8  2  0
  8  9  1  0
  9 10  2  0
 10 11  1  0
 10 12  1  0
 12 13  2  0
  5 14  1  0
 14 15  1  0
 15 16  2  0
 15 17  1  0
 17 18  1  0
 18 19  1  0
 19 20  1  0
 19 21  1  0
 21 22  1  0
 22 23  1  0
 23 24  2  0
 23 25  1  0
 25 26  1  0
 26 27  1  0
 27 28  2  0
 27 29  1  0
 29 30  2  0
 30 31  1  0
 31 32  2  0
 32 33  1  0
 33 34  2  0
 34 35  1  0
 34 36  1  0
 36 37  2  0
 37 38  1  0
 38 39  2  0
 13  7  1  0
 22 17  1  0
 39 29  1  0
 38 32  1  0
  1 40  1  0
  1 41  1  0
  1 42  1  0
  2 43  1  0
  3 44  1  0
  3 45  1  0
  3 46  1  0
  4 47  1  0
  4 48  1  0
  5 49  1  6
  6 50  1  0
  6 51  1  0
  8 52  1  0
  9 53  1  0
 12 54  1  0
 13 55  1  0
 14 56  1  0
 17 57  1  1
 18 58  1  0
 18 59  1  0
 19 60  1  6
 20 61  1  0
 21 62  1  0
 21 63  1  0
 25 64  1  0
 25 65  1  0
 26 66  1  0
 30 67  1  0
 31 68  1  0
 33 69  1  0
 36 70  1  0
 37 71  1  0
M  END
>  <smiles>  (7) 
CC(C)C[C@H](Cc1ccc(F)cc1)NC(=O)[C@@H]1C[C@@H](O)CN1C(=O)CNC(=O)c1ccc2cc(F)ccc2n1

>  <score_type>  (7) 
oracle

>  <origin>  (7) 
autodockgpu

>  <m_score__min__energy>  (7) 
-9.6099999999999994

>  <m_primary>  (7) 
energy

>  <meeko>  (7) 
{"free_energy": -7.99, "intermolecular_energy": -11.27, "internal_energy": -3.85, "cluster_size": 4, "cluster_id": 2, "rank_in_cluster": 4}

>  <energy>  (7) 
-8.29

>  <cluster_rmsd>  (7) 
0.0

>  <rmsd>  (7) 
270.47

>  <cluster>  (7) 
3

$$$$

     RDKit          3D

 71 74  0  0  0  0  0  0  0  0999 V2000
  141.7950   78.7240  223.8440 C   0  0  0  0  0  0  0  0  0  0  0  0
  140.9290   78.5050  222.5950 C   0  0  0  0  0  0  0  0  0  0  0  0
  141.7580   79.0530  221.4520 C   0  0  0  0  0  0  0  0  0  0  0  0
  140.6900   77.0440  222.5110 C   0  0  0  0  0  0  0  0  0  0  0  0
  140.6280   76.4510  221.1370 C   0  0  2  0  0  0  0  0  0  0  0  0
  139.2750   76.3920  220.5390 C   0  0  0  0  0  0  0  0  0  0  0  0
  138.2350   75.8570  221.4460 C   0  0  0  0  0  0  0  0  0  0  0  0
  137.9430   74.5040  221.3880 C   0  0  0  0  0  0  0  0  0  0  0  0
  136.9890   73.9090  222.1780 C   0  0  0  0  0  0  0  0  0  0  0  0
  136.2830   74.6810  223.0730 C   0  0  0  0  0  0  0  0  0  0  0  0
  135.3450   74.0980  223.8510 F   0  0  0  0  0  0  0  0  0  0  0  0
  136.5590   76.0160  223.1420 C   0  0  0  0  0  0  0  0  0  0  0  0
  137.5190   76.6060  222.3460 C   0  0  0  0  0  0  0  0  0  0  0  0
  141.2180   75.1370  221.2200 N   0  0  0  0  0  0  0  0  0  0  0  0
  142.4950   74.7980  220.6970 C   0  0  0  0  0  0  0  0  0  0  0  0
  143.2150   75.6580  220.1100 O   0  0  0  0  0  0  0  0  0  0  0  0
  143.0770   73.4290  220.7980 C   0  0  2  0  0  0  0  0  0  0  0  0
  144.5770   73.5360  220.6230 C   0  0  0  0  0  0  0  0  0  0  0  0
  144.7430   73.6310  219.1240 C   0  0  1  0  0  0  0  0  0  0  0  0
  145.9990   73.0940  218.7650 O   0  0  0  0  0  0  0  0  0  0  0  0
  143.6190   72.8090  218.5840 C   0  0  0  0  0  0  0  0  0  0  0  0
  142.6960   72.5680  219.7000 N   0  0  0  0  0  0  0  0  0  0  0  0
  141.6450   71.6190  219.5980 C   0  0  0  0  0  0  0  0  0  0  0  0
  141.8390   70.6600  218.7810 O   0  0  0  0  0  0  0  0  0  0  0  0
  140.4110   71.7530  220.3980 C   0  0  0  0  0  0  0  0  0  0  0  0
  140.4660   71.0410  221.6380 N   0  0  0  0  0  0  0  0  0  0  0  0
  140.4000   71.7990  222.8450 C   0  0  0  0  0  0  0  0  0  0  0  0
  140.2960   73.0550  222.6980 O   0  0  0  0  0  0  0  0  0  0  0  0
  140.4480   71.1610  224.1560 C   0  0  0  0  0  0  0  0  0  0  0  0
  140.9760   71.8960  225.1980 C   0  0  0  0  0  0  0  0  0  0  0  0
  141.0770   71.4060  226.4870 C   0  0  0  0  0  0  0  0  0  0  0  0
  140.6180   70.1190  226.6910 C   0  0  0  0  0  0  0  0  0  0  0  0
  140.7090   69.6130  227.9570 C   0  0  0  0  0  0  0  0  0  0  0  0
  140.2540   68.3230  228.1860 C   0  0  0  0  0  0  0  0  0  0  0  0
  140.3420   67.8130  229.4450 F   0  0  0  0  0  0  0  0  0  0  0  0
  139.7220   67.5810  227.1320 C   0  0  0  0  0  0  0  0  0  0  0  0
  139.6440   68.1260  225.8550 C   0  0  0  0  0  0  0  0  0  0  0  0
  140.0990   69.4200  225.6210 C   0  0  0  0  0  0  0  0  0  0  0  0
  140.0150   69.9290  224.3780 N   0  0  0  0  0  0  0  0  0  0  0  0
  141.1840   78.5695  224.7455 H   0  0  0  0  0  0  0  0  0  0  0  0
  142.6309   78.0090  223.8406 H   0  0  0  0  0  0  0  0  0  0  0  0
  142.1905   79.7504  223.8406 H   0  0  0  0  0  0  0  0  0  0  0  0
  139.9475   79.0017  222.5929 H   0  0  0  0  0  0  0  0  0  0  0  0
  142.6116   79.6173  221.8557 H   0  0  0  0  0  0  0  0  0  0  0  0
  142.1275   78.2206  220.8351 H   0  0  0  0  0  0  0  0  0  0  0  0
  141.1370   79.7191  220.8351 H   0  0  0  0  0  0  0  0  0  0  0  0
  141.5034   76.5413  223.0547 H   0  0  0  0  0  0  0  0  0  0  0  0
  139.6882   76.8897  222.9382 H   0  0  0  0  0  0  0  0  0  0  0  0
  141.1816   77.1133  220.4552 H   0  0  0  0  0  0  0  0  0  0  0  0
  138.9838   77.4105  220.2426 H   0  0  0  0  0  0  0  0  0  0  0  0
  139.3361   75.7014  219.6850 H   0  0  0  0  0  0  0  0  0  0  0  0
  138.5006   73.8770  220.6767 H   0  0  0  0  0  0  0  0  0  0  0  0
  136.7919   72.8299  222.0964 H   0  0  0  0  0  0  0  0  0  0  0  0
  135.9991   76.6403  223.8538 H   0  0  0  0  0  0  0  0  0  0  0  0
  137.7121   77.6854  222.4333 H   0  0  0  0  0  0  0  0  0  0  0  0
  140.7060   74.3320  221.6930 H   0  0  0  0  0  0  0  0  0  0  0  0
  142.7323   73.0265  221.7619 H   0  0  0  0  0  0  0  0  0  0  0  0
  144.9693   74.4349  221.1212 H   0  0  0  0  0  0  0  0  0  0  0  0
  145.1246   72.6907  221.0653 H   0  0  0  0  0  0  0  0  0  0  0  0
  144.7152   74.6594  218.7345 H   0  0  0  0  0  0  0  0  0  0  0  0
  146.6640   73.7850  218.5660 H   0  0  0  0  0  0  0  0  0  0  0  0
  143.1049   73.3532  217.7781 H   0  0  0  0  0  0  0  0  0  0  0  0
  143.9885   71.8612  218.1655 H   0  0  0  0  0  0  0  0  0  0  0  0
  140.2475   72.8192  220.6134 H   0  0  0  0  0  0  0  0  0  0  0  0
  139.5891   71.3213  219.8080 H   0  0  0  0  0  0  0  0  0  0  0  0
  140.5510   70.0050  221.7420 H   0  0  0  0  0  0  0  0  0  0  0  0
  141.3322   72.9166  224.9940 H   0  0  0  0  0  0  0  0  0  0  0  0
  141.4996   72.0078  227.3051 H   0  0  0  0  0  0  0  0  0  0  0  0
  141.1329   70.2143  228.7748 H   0  0  0  0  0  0  0  0  0  0  0  0
  139.3615   66.5574  227.3119 H   0  0  0  0  0  0  0  0  0  0  0  0
  139.2224   67.5338  225.0294 H   0  0  0  0  0  0  0  0  0  0  0  0
  1  2  1  0
  2  3  1  0
  2  4  1  0
  4  5  1  0
  5  6  1  0
  6  7  1  0
  7  8  2  0
  8  9  1  0
  9 10  2  0
 10 11  1  0
 10 12  1  0
 12 13  2  0
  5 14  1  0
 14 15  1  0
 15 16  2  0
 15 17  1  0
 17 18  1  0
 18 19  1  0
 19 20  1  0
 19 21  1  0
 21 22  1  0
 22 23  1  0
 23 24  2  0
 23 25  1  0
 25 26  1  0
 26 27  1  0
 27 28  2  0
 27 29  1  0
 29 30  2  0
 30 31  1  0
 31 32  2  0
 32 33  1  0
 33 34  2  0
 34 35  1  0
 34 36  1  0
 36 37  2  0
 37 38  1  0
 38 39  2  0
 13  7  1  0
 22 17  1  0
 39 29  1  0
 38 32  1  0
  1 40  1  0
  1 41  1  0
  1 42  1  0
  2 43  1  0
  3 44  1  0
  3 45  1  0
  3 46  1  0
  4 47  1  0
  4 48  1  0
  5 49  1  6
  6 50  1  0
  6 51  1  0
  8 52  1  0
  9 53  1  0
 12 54  1  0
 13 55  1  0
 14 56  1  0
 17 57  1  1
 18 58  1  0
 18 59  1  0
 19 60  1  6
 20 61  1  0
 21 62  1  0
 21 63  1  0
 25 64  1  0
 25 65  1  0
 26 66  1  0
 30 67  1  0
 31 68  1  0
 33 69  1  0
 36 70  1  0
 37 71  1  0
M  END
>  <smiles>  (8) 
CC(C)C[C@H](Cc1ccc(F)cc1)NC(=O)[C@@H]1C[C@@H](O)CN1C(=O)CNC(=O)c1ccc2cc(F)ccc2n1

>  <score_type>  (8) 
oracle

>  <origin>  (8) 
autodockgpu

>  <m_score__min__energy>  (8) 
-9.6099999999999994

>  <m_primary>  (8) 
energy

>  <meeko>  (8) 
{"free_energy": -8.71, "intermolecular_energy": -11.99, "internal_energy": -3.67, "cluster_size": 4, "cluster_id": 2, "rank_in_cluster": 3}

>  <energy>  (8) 
-8.03

>  <cluster_rmsd>  (8) 
0.0

>  <rmsd>  (8) 
270.81

>  <cluster>  (8) 
4

$$$$

     RDKit          3D

 71 74  0  0  0  0  0  0  0  0999 V2000
  143.2830   76.5860  218.0860 C   0  0  0  0  0  0  0  0  0  0  0  0
  142.5710   75.9020  219.2630 C   0  0  0  0  0  0  0  0  0  0  0  0
  143.6660   75.1510  219.9900 C   0  0  0  0  0  0  0  0  0  0  0  0
  141.9630   76.9910  220.0650 C   0  0  0  0  0  0  0  0  0  0  0  0
  140.4760   77.1450  219.9690 C   0  0  2  0  0  0  0  0  0  0  0  0
  139.9140   78.2940  220.7140 C   0  0  0  0  0  0  0  0  0  0  0  0
  140.8490   78.8990  221.6880 C   0  0  0  0  0  0  0  0  0  0  0  0
  141.6470   79.9520  221.2690 C   0  0  0  0  0  0  0  0  0  0  0  0
  142.5540   80.5780  222.0900 C   0  0  0  0  0  0  0  0  0  0  0  0
  142.6880   80.1480  223.3910 C   0  0  0  0  0  0  0  0  0  0  0  0
  143.5790   80.7620  224.1990 F   0  0  0  0  0  0  0  0  0  0  0  0
  141.9110   79.1110  223.8190 C   0  0  0  0  0  0  0  0  0  0  0  0
  141.0010   78.4890  222.9890 C   0  0  0  0  0  0  0  0  0  0  0  0
  139.8960   75.9010  220.4160 N   0  0  0  0  0  0  0  0  0  0  0  0
  140.3280   75.1820  221.5620 C   0  0  0  0  0  0  0  0  0  0  0  0
  141.2780   75.6050  222.2850 O   0  0  0  0  0  0  0  0  0  0  0  0
  139.7080   73.8980  221.9970 C   0  0  2  0  0  0  0  0  0  0  0  0
  140.7930   72.8440  222.0610 C   0  0  0  0  0  0  0  0  0  0  0  0
  140.9520   72.4230  220.6190 C   0  0  1  0  0  0  0  0  0  0  0  0
  141.3940   71.0830  220.5770 O   0  0  0  0  0  0  0  0  0  0  0  0
  139.5800   72.5680  220.0470 C   0  0  0  0  0  0  0  0  0  0  0  0
  138.7980   73.3470  221.0160 N   0  0  0  0  0  0  0  0  0  0  0  0
  137.3880   73.4640  220.9040 C   0  0  0  0  0  0  0  0  0  0  0  0
  136.9660   74.2590  220.0010 O   0  0  0  0  0  0  0  0  0  0  0  0
  136.4830   72.7030  221.7880 C   0  0  0  0  0  0  0  0  0  0  0  0
  137.1320   72.2040  222.9620 N   0  0  0  0  0  0  0  0  0  0  0  0
  137.8780   70.9940  222.8470 C   0  0  0  0  0  0  0  0  0  0  0  0
  137.8950   70.4680  221.6940 O   0  0  0  0  0  0  0  0  0  0  0  0
  138.5740   70.4100  223.9890 C   0  0  0  0  0  0  0  0  0  0  0  0
  138.5830   69.0340  224.0870 C   0  0  0  0  0  0  0  0  0  0  0  0
  139.2070   68.3590  225.1210 C   0  0  0  0  0  0  0  0  0  0  0  0
  139.8350   69.1390  226.0720 C   0  0  0  0  0  0  0  0  0  0  0  0
  140.4580   68.4940  227.1030 C   0  0  0  0  0  0  0  0  0  0  0  0
  141.0940   69.2570  228.0700 C   0  0  0  0  0  0  0  0  0  0  0  0
  141.7170   68.6210  229.1000 F   0  0  0  0  0  0  0  0  0  0  0  0
  141.0840   70.6480  227.9690 C   0  0  0  0  0  0  0  0  0  0  0  0
  140.4410   71.2740  226.9070 C   0  0  0  0  0  0  0  0  0  0  0  0
  139.8000   70.5120  225.9340 C   0  0  0  0  0  0  0  0  0  0  0  0
  139.1830   71.1360  224.9140 N   0  0  0  0  0  0  0  0  0  0  0  0
  144.0259   77.2997  218.4716 H   0  0  0  0  0  0  0  0  0  0  0  0
  143.7887   75.8263  217.4718 H   0  0  0  0  0  0  0  0  0  0  0  0
  142.5442   77.1217  217.4718 H   0  0  0  0  0  0  0  0  0  0  0  0
  141.7692   75.1964  218.9998 H   0  0  0  0  0  0  0  0  0  0  0  0
  143.5205   75.2508  221.0758 H   0  0  0  0  0  0  0  0  0  0  0  0
  143.6286   74.0876  219.7113 H   0  0  0  0  0  0  0  0  0  0  0  0
  144.6446   75.5689  219.7113 H   0  0  0  0  0  0  0  0  0  0  0  0
  142.2120   76.8070  221.1205 H   0  0  0  0  0  0  0  0  0  0  0  0
  142.3782   77.9220  219.6517 H   0  0  0  0  0  0  0  0  0  0  0  0
  140.2239   77.3698  218.9221 H   0  0  0  0  0  0  0  0  0  0  0  0
  139.6235   79.0675  219.9879 H   0  0  0  0  0  0  0  0  0  0  0  0
  139.0598   77.9102  221.2911 H   0  0  0  0  0  0  0  0  0  0  0  0
  141.5498   80.3029  220.2310 H   0  0  0  0  0  0  0  0  0  0  0  0
  143.1647   81.4115  221.7127 H   0  0  0  0  0  0  0  0  0  0  0  0
  142.0132   78.7605  224.8567 H   0  0  0  0  0  0  0  0  0  0  0  0
  140.3921   77.6574  223.3733 H   0  0  0  0  0  0  0  0  0  0  0  0
  139.0890   75.4490  219.8870 H   0  0  0  0  0  0  0  0  0  0  0  0
  139.1936   74.1182  222.9441 H   0  0  0  0  0  0  0  0  0  0  0  0
  141.7297   73.2658  222.4542 H   0  0  0  0  0  0  0  0  0  0  0  0
  140.5420   72.0070  222.7292 H   0  0  0  0  0  0  0  0  0  0  0  0
  141.6883   73.0170  220.0577 H   0  0  0  0  0  0  0  0  0  0  0  0
  140.6620   70.4380  220.6640 H   0  0  0  0  0  0  0  0  0  0  0  0
  139.6250   73.0971  219.0836 H   0  0  0  0  0  0  0  0  0  0  0  0
  139.1206   71.5848  219.8675 H   0  0  0  0  0  0  0  0  0  0  0  0
  135.6593   73.3631  222.0974 H   0  0  0  0  0  0  0  0  0  0  0  0
  136.1230   71.8337  221.2182 H   0  0  0  0  0  0  0  0  0  0  0  0
  137.1100   72.6510  223.9060 H   0  0  0  0  0  0  0  0  0  0  0  0
  138.0717   68.4479  223.3091 H   0  0  0  0  0  0  0  0  0  0  0  0
  139.2031   67.2607  225.1823 H   0  0  0  0  0  0  0  0  0  0  0  0
  140.4549   67.3957  227.1642 H   0  0  0  0  0  0  0  0  0  0  0  0
  141.5887   71.2545  228.7354 H   0  0  0  0  0  0  0  0  0  0  0  0
  140.4387   72.3717  226.8356 H   0  0  0  0  0  0  0  0  0  0  0  0
  1  2  1  0
  2  3  1  0
  2  4  1  0
  4  5  1  0
  5  6  1  0
  6  7  1  0
  7  8  2  0
  8  9  1  0
  9 10  2  0
 10 11  1  0
 10 12  1  0
 12 13  2  0
  5 14  1  0
 14 15  1  0
 15 16  2  0
 15 17  1  0
 17 18  1  0
 18 19  1  0
 19 20  1  0
 19 21  1  0
 21 22  1  0
 22 23  1  0
 23 24  2  0
 23 25  1  0
 25 26  1  0
 26 27  1  0
 27 28  2  0
 27 29  1  0
 29 30  2  0
 30 31  1  0
 31 32  2  0
 32 33  1  0
 33 34  2  0
 34 35  1  0
 34 36  1  0
 36 37  2  0
 37 38  1  0
 38 39  2  0
 13  7  1  0
 22 17  1  0
 39 29  1  0
 38 32  1  0
  1 40  1  0
  1 41  1  0
  1 42  1  0
  2 43  1  0
  3 44  1  0
  3 45  1  0
  3 46  1  0
  4 47  1  0
  4 48  1  0
  5 49  1  6
  6 50  1  0
  6 51  1  0
  8 52  1  0
  9 53  1  0
 12 54  1  0
 13 55  1  0
 14 56  1  0
 17 57  1  1
 18 58  1  0
 18 59  1  0
 19 60  1  6
 20 61  1  0
 21 62  1  0
 21 63  1  0
 25 64  1  0
 25 65  1  0
 26 66  1  0
 30 67  1  0
 31 68  1  0
 33 69  1  0
 36 70  1  0
 37 71  1  0
M  END
>  <smiles>  (9) 
CC(C)C[C@H](Cc1ccc(F)cc1)NC(=O)[C@@H]1C[C@@H](O)CN1C(=O)CNC(=O)c1ccc2cc(F)ccc2n1

>  <score_type>  (9) 
oracle

>  <origin>  (9) 
autodockgpu

>  <m_score__min__energy>  (9) 
-9.6099999999999994

>  <m_primary>  (9) 
energy

>  <meeko>  (9) 
{"free_energy": -8.03, "intermolecular_energy": -11.31, "internal_energy": -3.61, "cluster_size": 3, "cluster_id": 4, "rank_in_cluster": 1}

>  <energy>  (9) 
-8.0

>  <cluster_rmsd>  (9) 
0.06

>  <rmsd>  (9) 
270.8

>  <cluster>  (9) 
4

$$$$

     RDKit          3D

 71 74  0  0  0  0  0  0  0  0999 V2000
  138.8130   78.7920  218.5220 C   0  0  0  0  0  0  0  0  0  0  0  0
  139.0070   77.4500  219.2460 C   0  0  0  0  0  0  0  0  0  0  0  0
  137.8520   76.5920  218.7780 C   0  0  0  0  0  0  0  0  0  0  0  0
  140.3350   76.9440  218.8240 C   0  0  0  0  0  0  0  0  0  0  0  0
  141.5270   77.5220  219.5210 C   0  0  2  0  0  0  0  0  0  0  0  0
  142.4690   78.2590  218.6490 C   0  0  0  0  0  0  0  0  0  0  0  0
  142.2530   79.7230  218.6250 C   0  0  0  0  0  0  0  0  0  0  0  0
  141.6780   80.3220  219.7340 C   0  0  0  0  0  0  0  0  0  0  0  0
  141.4250   81.6700  219.8110 C   0  0  0  0  0  0  0  0  0  0  0  0
  141.7520   82.4750  218.7420 C   0  0  0  0  0  0  0  0  0  0  0  0
  141.5040   83.8010  218.8160 F   0  0  0  0  0  0  0  0  0  0  0  0
  142.3180   81.9000  217.6420 C   0  0  0  0  0  0  0  0  0  0  0  0
  142.5700   80.5450  217.5730 C   0  0  0  0  0  0  0  0  0  0  0  0
  142.1880   76.4310  220.1970 N   0  0  0  0  0  0  0  0  0  0  0  0
  142.3950   75.1450  219.6300 C   0  0  0  0  0  0  0  0  0  0  0  0
  142.0000   74.8720  218.4590 O   0  0  0  0  0  0  0  0  0  0  0  0
  143.0810   74.0390  220.3550 C   0  0  2  0  0  0  0  0  0  0  0  0
  144.5760   74.2220  220.1980 C   0  0  0  0  0  0  0  0  0  0  0  0
  144.8500   73.6580  218.8230 C   0  0  1  0  0  0  0  0  0  0  0  0
  146.1710   73.1620  218.7850 O   0  0  0  0  0  0  0  0  0  0  0  0
  143.8460   72.5630  218.6760 C   0  0  0  0  0  0  0  0  0  0  0  0
  142.8620   72.7420  219.7510 N   0  0  0  0  0  0  0  0  0  0  0  0
  141.9070   71.7370  220.0540 C   0  0  0  0  0  0  0  0  0  0  0  0
  142.3570   70.5460  220.1300 O   0  0  0  0  0  0  0  0  0  0  0  0
  140.4840   72.0700  220.2660 C   0  0  0  0  0  0  0  0  0  0  0  0
  140.2590   73.4680  220.4700 N   0  0  0  0  0  0  0  0  0  0  0  0
  140.0090   73.9150  221.8020 C   0  0  0  0  0  0  0  0  0  0  0  0
  140.0110   73.0120  222.6920 O   0  0  0  0  0  0  0  0  0  0  0  0
  139.7680   75.3220  222.1070 C   0  0  0  0  0  0  0  0  0  0  0  0
  138.4560   75.7460  222.1370 C   0  0  0  0  0  0  0  0  0  0  0  0
  138.0950   77.0530  222.4140 C   0  0  0  0  0  0  0  0  0  0  0  0
  139.1300   77.9340  222.6640 C   0  0  0  0  0  0  0  0  0  0  0  0
  138.7970   79.2300  222.9390 C   0  0  0  0  0  0  0  0  0  0  0  0
  139.8190   80.1340  223.1920 C   0  0  0  0  0  0  0  0  0  0  0  0
  139.4950   81.4270  223.4670 F   0  0  0  0  0  0  0  0  0  0  0  0
  141.1450   79.7030  223.1610 C   0  0  0  0  0  0  0  0  0  0  0  0
  141.4490   78.3760  222.8770 C   0  0  0  0  0  0  0  0  0  0  0  0
  140.4270   77.4660  222.6220 C   0  0  0  0  0  0  0  0  0  0  0  0
  140.7410   76.1870  222.3500 N   0  0  0  0  0  0  0  0  0  0  0  0
  138.6968   79.5956  219.2642 H   0  0  0  0  0  0  0  0  0  0  0  0
  139.6906   78.9989  217.8919 H   0  0  0  0  0  0  0  0  0  0  0  0
  137.9128   78.7419  217.8919 H   0  0  0  0  0  0  0  0  0  0  0  0
  139.0006   77.4865  220.3454 H   0  0  0  0  0  0  0  0  0  0  0  0
  137.3146   76.1928  219.6508 H   0  0  0  0  0  0  0  0  0  0  0  0
  137.1653   77.2007  218.1715 H   0  0  0  0  0  0  0  0  0  0  0  0
  138.2364   75.7587  218.1715 H   0  0  0  0  0  0  0  0  0  0  0  0
  140.3459   75.8568  218.9910 H   0  0  0  0  0  0  0  0  0  0  0  0
  140.4394   77.2482  217.7721 H   0  0  0  0  0  0  0  0  0  0  0  0
  141.1709   78.2915  220.2218 H   0  0  0  0  0  0  0  0  0  0  0  0
  143.4917   78.0668  219.0055 H   0  0  0  0  0  0  0  0  0  0  0  0
  142.3005   77.8973  217.6239 H   0  0  0  0  0  0  0  0  0  0  0  0
  141.4116   79.6886  220.5930 H   0  0  0  0  0  0  0  0  0  0  0  0
  140.9676   82.1007  220.7139 H   0  0  0  0  0  0  0  0  0  0  0  0
  142.5815   82.5358  216.7839 H   0  0  0  0  0  0  0  0  0  0  0  0
  143.0286   80.1206  216.6677 H   0  0  0  0  0  0  0  0  0  0  0  0
  142.5650   76.5440  221.1870 H   0  0  0  0  0  0  0  0  0  0  0  0
  142.6971   74.0726  221.3853 H   0  0  0  0  0  0  0  0  0  0  0  0
  144.8509   75.2858  220.2500 H   0  0  0  0  0  0  0  0  0  0  0  0
  145.1569   73.7278  220.9907 H   0  0  0  0  0  0  0  0  0  0  0  0
  144.7651   74.3949  218.0107 H   0  0  0  0  0  0  0  0  0  0  0  0
  146.8410   73.8710  218.7070 H   0  0  0  0  0  0  0  0  0  0  0  0
  143.3521   72.6313  217.6955 H   0  0  0  0  0  0  0  0  0  0  0  0
  144.3266   71.5757  218.7414 H   0  0  0  0  0  0  0  0  0  0  0  0
  139.9139   71.7491  219.3817 H   0  0  0  0  0  0  0  0  0  0  0  0
  140.1576   71.5488  221.1780 H   0  0  0  0  0  0  0  0  0  0  0  0
  140.2620   74.2010  219.7250 H   0  0  0  0  0  0  0  0  0  0  0  0
  137.6617   75.0132  221.9318 H   0  0  0  0  0  0  0  0  0  0  0  0
  137.0427   77.3728  222.4341 H   0  0  0  0  0  0  0  0  0  0  0  0
  137.7445   79.5492  222.9594 H   0  0  0  0  0  0  0  0  0  0  0  0
  141.9563   80.4179  223.3626 H   0  0  0  0  0  0  0  0  0  0  0  0
  142.4978   78.0452  222.8539 H   0  0  0  0  0  0  0  0  0  0  0  0
  1  2  1  0
  2  3  1  0
  2  4  1  0
  4  5  1  0
  5  6  1  0
  6  7  1  0
  7  8  2  0
  8  9  1  0
  9 10  2  0
 10 11  1  0
 10 12  1  0
 12 13  2  0
  5 14  1  0
 14 15  1  0
 15 16  2  0
 15 17  1  0
 17 18  1  0
 18 19  1  0
 19 20  1  0
 19 21  1  0
 21 22  1  0
 22 23  1  0
 23 24  2  0
 23 25  1  0
 25 26  1  0
 26 27  1  0
 27 28  2  0
 27 29  1  0
 29 30  2  0
 30 31  1  0
 31 32  2  0
 32 33  1  0
 33 34  2  0
 34 35  1  0
 34 36  1  0
 36 37  2  0
 37 38  1  0
 38 39  2  0
 13  7  1  0
 22 17  1  0
 39 29  1  0
 38 32  1  0
  1 40  1  0
  1 41  1  0
  1 42  1  0
  2 43  1  0
  3 44  1  0
  3 45  1  0
  3 46  1  0
  4 47  1  0
  4 48  1  0
  5 49  1  1
  6 50  1  0
  6 51  1  0
  8 52  1  0
  9 53  1  0
 12 54  1  0
 13 55  1  0
 14 56  1  0
 17 57  1  1
 18 58  1  0
 18 59  1  0
 19 60  1  6
 20 61  1  0
 21 62  1  0
 21 63  1  0
 25 64  1  0
 25 65  1  0
 26 66  1  0
 30 67  1  0
 31 68  1  0
 33 69  1  0
 36 70  1  0
 37 71  1  0
M  END
>  <smiles>  (10) 
CC(C)C[C@H](Cc1ccc(F)cc1)NC(=O)[C@@H]1C[C@@H](O)CN1C(=O)CNC(=O)c1ccc2cc(F)ccc2n1

>  <score_type>  (10) 
oracle

>  <origin>  (10) 
autodockgpu

>  <m_score__min__energy>  (10) 
-9.6099999999999994

>  <m_primary>  (10) 
energy

>  <meeko>  (10) 
{"free_energy": -6.86, "intermolecular_energy": -10.14, "internal_energy": -5.24, "cluster_size": 1, "cluster_id": 8, "rank_in_cluster": 1}

>  <energy>  (10) 
-7.88

>  <cluster_rmsd>  (10) 
1.86

>  <rmsd>  (10) 
270.77

>  <cluster>  (10) 
4

$$$$

     RDKit          3D

 71 74  0  0  0  0  0  0  0  0999 V2000
  145.6250   73.3550  221.2000 C   0  0  0  0  0  0  0  0  0  0  0  0
  144.2250   73.3060  220.5700 C   0  0  0  0  0  0  0  0  0  0  0  0
  144.4620   73.5250  219.0910 C   0  0  0  0  0  0  0  0  0  0  0  0
  143.6740   71.9680  220.8940 C   0  0  0  0  0  0  0  0  0  0  0  0
  142.1860   71.8170  220.8130 C   0  0  2  0  0  0  0  0  0  0  0  0
  141.7130   70.6900  219.9790 C   0  0  0  0  0  0  0  0  0  0  0  0
  140.3310   70.2540  220.2790 C   0  0  0  0  0  0  0  0  0  0  0  0
  139.2820   70.9410  219.6900 C   0  0  0  0  0  0  0  0  0  0  0  0
  137.9620   70.6250  219.9090 C   0  0  0  0  0  0  0  0  0  0  0  0
  137.6550   69.5790  220.7510 C   0  0  0  0  0  0  0  0  0  0  0  0
  136.3590   69.2660  220.9670 F   0  0  0  0  0  0  0  0  0  0  0  0
  138.6780   68.8930  221.3390 C   0  0  0  0  0  0  0  0  0  0  0  0
  140.0000   69.2160  221.1130 C   0  0  0  0  0  0  0  0  0  0  0  0
  141.6630   73.0750  220.3350 N   0  0  0  0  0  0  0  0  0  0  0  0
  140.8090   73.9250  221.0870 C   0  0  0  0  0  0  0  0  0  0  0  0
  140.4470   73.6210  222.2610 O   0  0  0  0  0  0  0  0  0  0  0  0
  140.2840   75.2180  220.5630 C   0  0  2  0  0  0  0  0  0  0  0  0
  141.3130   76.2940  220.8350 C   0  0  0  0  0  0  0  0  0  0  0  0
  141.0740   76.6420  222.2860 C   0  0  1  0  0  0  0  0  0  0  0  0
  141.4460   77.9860  222.5050 O   0  0  0  0  0  0  0  0  0  0  0  0
  139.6050   76.4410  222.4680 C   0  0  0  0  0  0  0  0  0  0  0  0
  139.1300   75.7000  221.2920 N   0  0  0  0  0  0  0  0  0  0  0  0
  137.7450   75.5510  221.0220 C   0  0  0  0  0  0  0  0  0  0  0  0
  137.1920   76.5180  220.4010 O   0  0  0  0  0  0  0  0  0  0  0  0
  137.0070   74.3440  221.4430 C   0  0  0  0  0  0  0  0  0  0  0  0
  137.7580   73.5070  222.3280 N   0  0  0  0  0  0  0  0  0  0  0  0
  137.1820   72.2600  222.7150 C   0  0  0  0  0  0  0  0  0  0  0  0
  136.0400   72.0090  222.2250 O   0  0  0  0  0  0  0  0  0  0  0  0
  137.8730   71.3410  223.6140 C   0  0  0  0  0  0  0  0  0  0  0  0
  137.1600   70.2570  224.0790 C   0  0  0  0  0  0  0  0  0  0  0  0
  137.6990   69.3140  224.9360 C   0  0  0  0  0  0  0  0  0  0  0  0
  139.0140   69.5100  225.3130 C   0  0  0  0  0  0  0  0  0  0  0  0
  139.5680   68.5910  226.1590 C   0  0  0  0  0  0  0  0  0  0  0  0
  140.8870   68.7680  226.5520 C   0  0  0  0  0  0  0  0  0  0  0  0
  141.4450   67.8570  227.3940 F   0  0  0  0  0  0  0  0  0  0  0  0
  141.6070   69.8650  226.0800 C   0  0  0  0  0  0  0  0  0  0  0  0
  141.0130   70.7820  225.2200 C   0  0  0  0  0  0  0  0  0  0  0  0
  139.6890   70.6090  224.8230 C   0  0  0  0  0  0  0  0  0  0  0  0
  139.1320   71.5060  223.9900 N   0  0  0  0  0  0  0  0  0  0  0  0
  145.5341   73.3518  222.2962 H   0  0  0  0  0  0  0  0  0  0  0  0
  146.2032   72.4765  220.8775 H   0  0  0  0  0  0  0  0  0  0  0  0
  146.1403   74.2717  220.8775 H   0  0  0  0  0  0  0  0  0  0  0  0
  143.5053   74.0560  220.9300 H   0  0  0  0  0  0  0  0  0  0  0  0
  145.2636   74.2657  218.9538 H   0  0  0  0  0  0  0  0  0  0  0  0
  144.7569   72.5746  218.6222 H   0  0  0  0  0  0  0  0  0  0  0  0
  143.5378   73.8939  218.6222 H   0  0  0  0  0  0  0  0  0  0  0  0
  144.1211   71.2451  220.1958 H   0  0  0  0  0  0  0  0  0  0  0  0
  143.9250   71.7997  221.9517 H   0  0  0  0  0  0  0  0  0  0  0  0
  141.8139   71.5656  221.8172 H   0  0  0  0  0  0  0  0  0  0  0  0
  141.7563   70.9990  218.9242 H   0  0  0  0  0  0  0  0  0  0  0  0
  142.3697   69.8354  220.1990 H   0  0  0  0  0  0  0  0  0  0  0  0
  139.5161   71.7781  219.0159 H   0  0  0  0  0  0  0  0  0  0  0  0
  137.1623   71.1994  219.4187 H   0  0  0  0  0  0  0  0  0  0  0  0
  138.4411   68.0571  222.0137 H   0  0  0  0  0  0  0  0  0  0  0  0
  140.7951   68.6368  221.6053 H   0  0  0  0  0  0  0  0  0  0  0  0
  141.9000   73.4350  219.3600 H   0  0  0  0  0  0  0  0  0  0  0  0
  140.0438   75.0375  219.5048 H   0  0  0  0  0  0  0  0  0  0  0  0
  142.3332   75.9113  220.6841 H   0  0  0  0  0  0  0  0  0  0  0  0
  141.2196   77.1598  220.1629 H   0  0  0  0  0  0  0  0  0  0  0  0
  141.6560   76.0335  222.9939 H   0  0  0  0  0  0  0  0  0  0  0  0
  142.3960   78.1500  222.3330 H   0  0  0  0  0  0  0  0  0  0  0  0
  139.4123   75.8625  223.3835 H   0  0  0  0  0  0  0  0  0  0  0  0
  139.0834   77.4046  222.5649 H   0  0  0  0  0  0  0  0  0  0  0  0
  136.0858   74.6579  221.9556 H   0  0  0  0  0  0  0  0  0  0  0  0
  136.7948   73.7568  220.5374 H   0  0  0  0  0  0  0  0  0  0  0  0
  138.7000   73.7280  222.7230 H   0  0  0  0  0  0  0  0  0  0  0  0
  136.1160   70.1362  223.7543 H   0  0  0  0  0  0  0  0  0  0  0  0
  137.1133   68.4558  225.2973 H   0  0  0  0  0  0  0  0  0  0  0  0
  138.9829   67.7322  226.5196 H   0  0  0  0  0  0  0  0  0  0  0  0
  142.6528   70.0060  226.3904 H   0  0  0  0  0  0  0  0  0  0  0  0
  141.5888   71.6444  224.8530 H   0  0  0  0  0  0  0  0  0  0  0  0
  1  2  1  0
  2  3  1  0
  2  4  1  0
  4  5  1  0
  5  6  1  0
  6  7  1  0
  7  8  2  0
  8  9  1  0
  9 10  2  0
 10 11  1  0
 10 12  1  0
 12 13  2  0
  5 14  1  0
 14 15  1  0
 15 16  2  0
 15 17  1  0
 17 18  1  0
 18 19  1  0
 19 20  1  0
 19 21  1  0
 21 22  1  0
 22 23  1  0
 23 24  2  0
 23 25  1  0
 25 26  1  0
 26 27  1  0
 27 28  2  0
 27 29  1  0
 29 30  2  0
 30 31  1  0
 31 32  2  0
 32 33  1  0
 33 34  2  0
 34 35  1  0
 34 36  1  0
 36 37  2  0
 37 38  1  0
 38 39  2  0
 13  7  1  0
 22 17  1  0
 39 29  1  0
 38 32  1  0
  1 40  1  0
  1 41  1  0
  1 42  1  0
  2 43  1  0
  3 44  1  0
  3 45  1  0
  3 46  1  0
  4 47  1  0
  4 48  1  0
  5 49  1  1
  6 50  1  0
  6 51  1  0
  8 52  1  0
  9 53  1  0
 12 54  1  0
 13 55  1  0
 14 56  1  0
 17 57  1  6
 18 58  1  0
 18 59  1  0
 19 60  1  1
 20 61  1  0
 21 62  1  0
 21 63  1  0
 25 64  1  0
 25 65  1  0
 26 66  1  0
 30 67  1  0
 31 68  1  0
 33 69  1  0
 36 70  1  0
 37 71  1  0
M  END
>  <smiles>  (11) 
CC(C)C[C@H](Cc1ccc(F)cc1)NC(=O)[C@@H]1C[C@@H](O)CN1C(=O)CNC(=O)c1ccc2cc(F)ccc2n1

>  <score_type>  (11) 
oracle

>  <origin>  (11) 
autodockgpu

>  <m_score__min__energy>  (11) 
-9.6099999999999994

>  <m_primary>  (11) 
energy

>  <meeko>  (11) 
{"free_energy": -6.44, "intermolecular_energy": -9.72, "internal_energy": -4.97, "cluster_size": 2, "cluster_id": 9, "rank_in_cluster": 2}

>  <energy>  (11) 
-7.84

>  <cluster_rmsd>  (11) 
0.0

>  <rmsd>  (11) 
270.94

>  <cluster>  (11) 
5

$$$$

     RDKit          3D

 71 74  0  0  0  0  0  0  0  0999 V2000
  143.6330   80.5160  223.1040 C   0  0  0  0  0  0  0  0  0  0  0  0
  142.2740   80.5900  223.8170 C   0  0  0  0  0  0  0  0  0  0  0  0
  141.4690   81.5830  223.0070 C   0  0  0  0  0  0  0  0  0  0  0  0
  141.7220   79.2140  223.7940 C   0  0  0  0  0  0  0  0  0  0  0  0
  140.7990   78.8810  222.6630 C   0  0  2  0  0  0  0  0  0  0  0  0
  139.4660   78.3790  223.0670 C   0  0  0  0  0  0  0  0  0  0  0  0
  138.9090   77.3480  222.1630 C   0  0  0  0  0  0  0  0  0  0  0  0
  138.7870   76.0520  222.6380 C   0  0  0  0  0  0  0  0  0  0  0  0
  138.2920   75.0190  221.8790 C   0  0  0  0  0  0  0  0  0  0  0  0
  137.8950   75.2700  220.5850 C   0  0  0  0  0  0  0  0  0  0  0  0
  137.4080   74.2560  219.8360 F   0  0  0  0  0  0  0  0  0  0  0  0
  138.0090   76.5410  220.1020 C   0  0  0  0  0  0  0  0  0  0  0  0
  138.5060   77.5730  220.8710 C   0  0  0  0  0  0  0  0  0  0  0  0
  141.4850   77.9230  221.8300 N   0  0  0  0  0  0  0  0  0  0  0  0
  141.8330   78.1490  220.4710 C   0  0  0  0  0  0  0  0  0  0  0  0
  141.5540   79.2390  219.8930 O   0  0  0  0  0  0  0  0  0  0  0  0
  142.5420   77.1370  219.6360 C   0  0  2  0  0  0  0  0  0  0  0  0
  142.4920   77.5930  218.1930 C   0  0  0  0  0  0  0  0  0  0  0  0
  141.1100   77.1740  217.7470 C   0  0  1  0  0  0  0  0  0  0  0  0
  141.1310   76.9240  216.3580 O   0  0  0  0  0  0  0  0  0  0  0  0
  140.8400   75.9300  218.5270 C   0  0  0  0  0  0  0  0  0  0  0  0
  141.8580   75.8630  219.5840 N   0  0  0  0  0  0  0  0  0  0  0  0
  142.0450   74.6880  220.3570 C   0  0  0  0  0  0  0  0  0  0  0  0
  143.2070   74.5300  220.8570 O   0  0  0  0  0  0  0  0  0  0  0  0
  140.9490   73.7190  220.5570 C   0  0  0  0  0  0  0  0  0  0  0  0
  141.0270   73.0350  221.8120 N   0  0  0  0  0  0  0  0  0  0  0  0
  139.9510   72.1670  222.1650 C   0  0  0  0  0  0  0  0  0  0  0  0
  139.0130   72.0830  221.3160 O   0  0  0  0  0  0  0  0  0  0  0  0
  139.9430   71.4280  223.4230 C   0  0  0  0  0  0  0  0  0  0  0  0
  139.2900   70.2130  223.4380 C   0  0  0  0  0  0  0  0  0  0  0  0
  139.2110   69.4170  224.5660 C   0  0  0  0  0  0  0  0  0  0  0  0
  139.8270   69.9020  225.7030 C   0  0  0  0  0  0  0  0  0  0  0  0
  139.7620   69.1320  226.8300 C   0  0  0  0  0  0  0  0  0  0  0  0
  140.3730   69.5990  227.9850 C   0  0  0  0  0  0  0  0  0  0  0  0
  140.3110   68.8380  229.1110 F   0  0  0  0  0  0  0  0  0  0  0  0
  141.0330   70.8280  227.9680 C   0  0  0  0  0  0  0  0  0  0  0  0
  141.0810   71.5870  226.8030 C   0  0  0  0  0  0  0  0  0  0  0  0
  140.4680   71.1220  225.6430 C   0  0  0  0  0  0  0  0  0  0  0  0
  140.5270   71.8710  224.5270 N   0  0  0  0  0  0  0  0  0  0  0  0
  144.4379   80.4722  223.8525 H   0  0  0  0  0  0  0  0  0  0  0  0
  143.6682   79.6146  222.4745 H   0  0  0  0  0  0  0  0  0  0  0  0
  143.7659   81.4082  222.4745 H   0  0  0  0  0  0  0  0  0  0  0  0
  142.2944   80.9207  224.8659 H   0  0  0  0  0  0  0  0  0  0  0  0
  140.9244   82.2548  223.6868 H   0  0  0  0  0  0  0  0  0  0  0  0
  142.1464   82.1736  222.3727 H   0  0  0  0  0  0  0  0  0  0  0  0
  140.7510   81.0424  222.3727 H   0  0  0  0  0  0  0  0  0  0  0  0
  142.5701   78.5148  223.7496 H   0  0  0  0  0  0  0  0  0  0  0  0
  141.1081   79.1324  224.7031 H   0  0  0  0  0  0  0  0  0  0  0  0
  140.5704   79.8127  222.1247 H   0  0  0  0  0  0  0  0  0  0  0  0
  139.5509   77.9456  224.0745 H   0  0  0  0  0  0  0  0  0  0  0  0
  138.7793   79.2375  223.0302 H   0  0  0  0  0  0  0  0  0  0  0  0
  139.1010   75.8403  223.6707 H   0  0  0  0  0  0  0  0  0  0  0  0
  138.2141   74.0056  222.2996 H   0  0  0  0  0  0  0  0  0  0  0  0
  137.6952   76.7491  219.0684 H   0  0  0  0  0  0  0  0  0  0  0  0
  138.5797   78.5844  220.4448 H   0  0  0  0  0  0  0  0  0  0  0  0
  141.7720   76.9690  222.2080 H   0  0  0  0  0  0  0  0  0  0  0  0
  143.5456   77.0355  220.0748 H   0  0  0  0  0  0  0  0  0  0  0  0
  142.6168   78.6834  218.1192 H   0  0  0  0  0  0  0  0  0  0  0  0
  143.2940   77.1618  217.5759 H   0  0  0  0  0  0  0  0  0  0  0  0
  140.3340   77.9342  217.9197 H   0  0  0  0  0  0  0  0  0  0  0  0
  141.1920   75.9700  216.1450 H   0  0  0  0  0  0  0  0  0  0  0  0
  139.8347   75.9723  218.9715 H   0  0  0  0  0  0  0  0  0  0  0  0
  140.8831   75.0412  217.8803 H   0  0  0  0  0  0  0  0  0  0  0  0
  139.9916   74.2588  220.5113 H   0  0  0  0  0  0  0  0  0  0  0  0
  141.0324   72.9609  219.7643 H   0  0  0  0  0  0  0  0  0  0  0  0
  141.8080   73.1140  222.5010 H   0  0  0  0  0  0  0  0  0  0  0  0
  138.8111   69.8619  222.5120 H   0  0  0  0  0  0  0  0  0  0  0  0
  138.6862   68.4503  224.5581 H   0  0  0  0  0  0  0  0  0  0  0  0
  139.2378   68.1650  226.8218 H   0  0  0  0  0  0  0  0  0  0  0  0
  141.5189   71.1996  228.8822 H   0  0  0  0  0  0  0  0  0  0  0  0
  141.6036   72.5549  226.7986 H   0  0  0  0  0  0  0  0  0  0  0  0
  1  2  1  0
  2  3  1  0
  2  4  1  0
  4  5  1  0
  5  6  1  0
  6  7  1  0
  7  8  2  0
  8  9  1  0
  9 10  2  0
 10 11  1  0
 10 12  1  0
 12 13  2  0
  5 14  1  0
 14 15  1  0
 15 16  2  0
 15 17  1  0
 17 18  1  0
 18 19  1  0
 19 20  1  0
 19 21  1  0
 21 22  1  0
 22 23  1  0
 23 24  2  0
 23 25  1  0
 25 26  1  0
 26 27  1  0
 27 28  2  0
 27 29  1  0
 29 30  2  0
 30 31  1  0
 31 32  2  0
 32 33  1  0
 33 34  2  0
 34 35  1  0
 34 36  1  0
 36 37  2  0
 37 38  1  0
 38 39  2  0
 13  7  1  0
 22 17  1  0
 39 29  1  0
 38 32  1  0
  1 40  1  0
  1 41  1  0
  1 42  1  0
  2 43  1  0
  3 44  1  0
  3 45  1  0
  3 46  1  0
  4 47  1  0
  4 48  1  0
  5 49  1  6
  6 50  1  0
  6 51  1  0
  8 52  1  0
  9 53  1  0
 12 54  1  0
 13 55  1  0
 14 56  1  0
 17 57  1  1
 18 58  1  0
 18 59  1  0
 19 60  1  6
 20 61  1  0
 21 62  1  0
 21 63  1  0
 25 64  1  0
 25 65  1  0
 26 66  1  0
 30 67  1  0
 31 68  1  0
 33 69  1  0
 36 70  1  0
 37 71  1  0
M  END
>  <smiles>  (12) 
CC(C)C[C@H](Cc1ccc(F)cc1)NC(=O)[C@@H]1C[C@@H](O)CN1C(=O)CNC(=O)c1ccc2cc(F)ccc2n1

>  <score_type>  (12) 
oracle

>  <origin>  (12) 
autodockgpu

>  <m_score__min__energy>  (12) 
-9.6099999999999994

>  <m_primary>  (12) 
energy

>  <meeko>  (12) 
{"free_energy": -7.84, "intermolecular_energy": -11.12, "internal_energy": -3.7, "cluster_size": 3, "cluster_id": 5, "rank_in_cluster": 1}

>  <energy>  (12) 
-7.83

>  <cluster_rmsd>  (12) 
0.35

>  <rmsd>  (12) 
270.86

>  <cluster>  (12) 
5

$$$$

     RDKit          3D

 71 74  0  0  0  0  0  0  0  0999 V2000
  140.8010   80.7860  219.3540 C   0  0  0  0  0  0  0  0  0  0  0  0
  141.6450   79.8630  218.4620 C   0  0  0  0  0  0  0  0  0  0  0  0
  142.7270   80.7580  217.8970 C   0  0  0  0  0  0  0  0  0  0  0  0
  142.1600   78.7920  219.3490 C   0  0  0  0  0  0  0  0  0  0  0  0
  142.7910   77.6110  218.6790 C   0  0  2  0  0  0  0  0  0  0  0  0
  142.0630   77.0940  217.4990 C   0  0  0  0  0  0  0  0  0  0  0  0
  140.7370   76.5160  217.8120 C   0  0  0  0  0  0  0  0  0  0  0  0
  140.4200   75.2740  217.2870 C   0  0  0  0  0  0  0  0  0  0  0  0
  139.2140   74.6530  217.5060 C   0  0  0  0  0  0  0  0  0  0  0  0
  138.2670   75.2840  218.2820 C   0  0  0  0  0  0  0  0  0  0  0  0
  137.0810   74.6750  218.5000 F   0  0  0  0  0  0  0  0  0  0  0  0
  138.5640   76.5090  218.8060 C   0  0  0  0  0  0  0  0  0  0  0  0
  139.7780   77.1250  218.5810 C   0  0  0  0  0  0  0  0  0  0  0  0
  142.9420   76.5880  219.6870 N   0  0  0  0  0  0  0  0  0  0  0  0
  143.3240   75.2470  219.4160 C   0  0  0  0  0  0  0  0  0  0  0  0
  143.5660   74.8580  218.2370 O   0  0  0  0  0  0  0  0  0  0  0  0
  143.4700   74.2140  220.4810 C   0  0  2  0  0  0  0  0  0  0  0  0
  144.9450   73.9330  220.6720 C   0  0  0  0  0  0  0  0  0  0  0  0
  145.2660   72.9880  219.5370 C   0  0  1  0  0  0  0  0  0  0  0  0
  146.3380   72.1540  219.9220 O   0  0  0  0  0  0  0  0  0  0  0  0
  144.0050   72.2110  219.3470 C   0  0  0  0  0  0  0  0  0  0  0  0
  142.9550   72.9200  220.0900 N   0  0  0  0  0  0  0  0  0  0  0  0
  141.6870   72.3270  220.3230 C   0  0  0  0  0  0  0  0  0  0  0  0
  141.7030   71.1070  220.6970 O   0  0  0  0  0  0  0  0  0  0  0  0
  140.4380   73.0910  220.1400 C   0  0  0  0  0  0  0  0  0  0  0  0
  140.5920   74.4900  220.4000 N   0  0  0  0  0  0  0  0  0  0  0  0
  140.1050   74.9940  221.6430 C   0  0  0  0  0  0  0  0  0  0  0  0
  139.5740   74.1370  222.4120 O   0  0  0  0  0  0  0  0  0  0  0  0
  140.2180   76.4050  221.9960 C   0  0  0  0  0  0  0  0  0  0  0  0
  139.0490   77.0840  222.2690 C   0  0  0  0  0  0  0  0  0  0  0  0
  139.0200   78.4230  222.6150 C   0  0  0  0  0  0  0  0  0  0  0  0
  140.2420   79.0660  222.6770 C   0  0  0  0  0  0  0  0  0  0  0  0
  140.2390   80.3890  223.0170 C   0  0  0  0  0  0  0  0  0  0  0  0
  141.4530   81.0560  223.0850 C   0  0  0  0  0  0  0  0  0  0  0  0
  141.4570   82.3740  223.4230 F   0  0  0  0  0  0  0  0  0  0  0  0
  142.6340   80.3680  222.8090 C   0  0  0  0  0  0  0  0  0  0  0  0
  142.6030   79.0210  222.4660 C   0  0  0  0  0  0  0  0  0  0  0  0
  141.3860   78.3480  222.3960 C   0  0  0  0  0  0  0  0  0  0  0  0
  141.3760   77.0450  222.0630 N   0  0  0  0  0  0  0  0  0  0  0  0
  141.0059   80.5619  220.4113 H   0  0  0  0  0  0  0  0  0  0  0  0
  141.0592   81.8346  219.1447 H   0  0  0  0  0  0  0  0  0  0  0  0
  139.7335   80.6224  219.1447 H   0  0  0  0  0  0  0  0  0  0  0  0
  141.1150   79.3773  217.6294 H   0  0  0  0  0  0  0  0  0  0  0  0
  143.2874   81.2216  218.7223 H   0  0  0  0  0  0  0  0  0  0  0  0
  143.4124   80.1594  217.2791 H   0  0  0  0  0  0  0  0  0  0  0  0
  142.2675   81.5435  217.2791 H   0  0  0  0  0  0  0  0  0  0  0  0
  142.9140   79.2417  220.0118 H   0  0  0  0  0  0  0  0  0  0  0  0
  141.2745   78.3930  219.8655 H   0  0  0  0  0  0  0  0  0  0  0  0
  143.7573   77.9324  218.2632 H   0  0  0  0  0  0  0  0  0  0  0  0
  141.9197   77.9235  216.7909 H   0  0  0  0  0  0  0  0  0  0  0  0
  142.6734   76.2795  217.0818 H   0  0  0  0  0  0  0  0  0  0  0  0
  141.1688   74.7608  216.6657 H   0  0  0  0  0  0  0  0  0  0  0  0
  139.0077   73.6655  217.0676 H   0  0  0  0  0  0  0  0  0  0  0  0
  137.8131   77.0203  219.4262 H   0  0  0  0  0  0  0  0  0  0  0  0
  139.9785   78.1126  219.0219 H   0  0  0  0  0  0  0  0  0  0  0  0
  142.7660   76.8000  220.7170 H   0  0  0  0  0  0  0  0  0  0  0  0
  142.9379   74.6099  221.3586 H   0  0  0  0  0  0  0  0  0  0  0  0
  145.5360   74.8575  220.5947 H   0  0  0  0  0  0  0  0  0  0  0  0
  145.1799   73.5142  221.6617 H   0  0  0  0  0  0  0  0  0  0  0  0
  145.5741   73.4912  218.6086 H   0  0  0  0  0  0  0  0  0  0  0  0
  146.2650   71.8440  220.8480 H   0  0  0  0  0  0  0  0  0  0  0  0
  143.7468   72.1631  218.2788 H   0  0  0  0  0  0  0  0  0  0  0  0
  144.1182   71.1790  219.7105 H   0  0  0  0  0  0  0  0  0  0  0  0
  140.0985   72.9633  219.1015 H   0  0  0  0  0  0  0  0  0  0  0  0
  139.7065   72.7017  220.8635 H   0  0  0  0  0  0  0  0  0  0  0  0
  141.0340   75.1840  219.7560 H   0  0  0  0  0  0  0  0  0  0  0  0
  138.0970   76.5362  222.2089 H   0  0  0  0  0  0  0  0  0  0  0  0
  138.0768   78.9470  222.8289 H   0  0  0  0  0  0  0  0  0  0  0  0
  139.2959   80.9130  223.2318 H   0  0  0  0  0  0  0  0  0  0  0  0
  143.5979   80.8952  222.8631 H   0  0  0  0  0  0  0  0  0  0  0  0
  143.5400   78.4869  222.2499 H   0  0  0  0  0  0  0  0  0  0  0  0
  1  2  1  0
  2  3  1  0
  2  4  1  0
  4  5  1  0
  5  6  1  0
  6  7  1  0
  7  8  2  0
  8  9  1  0
  9 10  2  0
 10 11  1  0
 10 12  1  0
 12 13  2  0
  5 14  1  0
 14 15  1  0
 15 16  2  0
 15 17  1  0
 17 18  1  0
 18 19  1  0
 19 20  1  0
 19 21  1  0
 21 22  1  0
 22 23  1  0
 23 24  2  0
 23 25  1  0
 25 26  1  0
 26 27  1  0
 27 28  2  0
 27 29  1  0
 29 30  2  0
 30 31  1  0
 31 32  2  0
 32 33  1  0
 33 34  2  0
 34 35  1  0
 34 36  1  0
 36 37  2  0
 37 38  1  0
 38 39  2  0
 13  7  1  0
 22 17  1  0
 39 29  1  0
 38 32  1  0
  1 40  1  0
  1 41  1  0
  1 42  1  0
  2 43  1  0
  3 44  1  0
  3 45  1  0
  3 46  1  0
  4 47  1  0
  4 48  1  0
  5 49  1  6
  6 50  1  0
  6 51  1  0
  8 52  1  0
  9 53  1  0
 12 54  1  0
 13 55  1  0
 14 56  1  0
 17 57  1  1
 18 58  1  0
 18 59  1  0
 19 60  1  6
 20 61  1  0
 21 62  1  0
 21 63  1  0
 25 64  1  0
 25 65  1  0
 26 66  1  0
 30 67  1  0
 31 68  1  0
 33 69  1  0
 36 70  1  0
 37 71  1  0
M  END
>  <smiles>  (13) 
CC(C)C[C@H](Cc1ccc(F)cc1)NC(=O)[C@@H]1C[C@@H](O)CN1C(=O)CNC(=O)c1ccc2cc(F)ccc2n1

>  <score_type>  (13) 
oracle

>  <origin>  (13) 
autodockgpu

>  <m_score__min__energy>  (13) 
-9.6099999999999994

>  <m_primary>  (13) 
energy

>  <meeko>  (13) 
{"free_energy": -6.42, "intermolecular_energy": -9.7, "internal_energy": -5.26, "cluster_size": 2, "cluster_id": 10, "rank_in_cluster": 1}

>  <energy>  (13) 
-7.83

>  <cluster_rmsd>  (13) 
1.28

>  <rmsd>  (13) 
271.04

>  <cluster>  (13) 
5

$$$$

     RDKit          3D

 71 74  0  0  0  0  0  0  0  0999 V2000
  137.3240   75.9950  220.7180 C   0  0  0  0  0  0  0  0  0  0  0  0
  137.8390   76.4780  222.0820 C   0  0  0  0  0  0  0  0  0  0  0  0
  136.7680   76.0600  223.0670 C   0  0  0  0  0  0  0  0  0  0  0  0
  139.1410   75.8010  222.2940 C   0  0  0  0  0  0  0  0  0  0  0  0
  140.3700   76.5840  221.9490 C   0  0  2  0  0  0  0  0  0  0  0  0
  140.1280   77.9880  221.5490 C   0  0  0  0  0  0  0  0  0  0  0  0
  140.9020   78.9800  222.3280 C   0  0  0  0  0  0  0  0  0  0  0  0
  140.2070   79.9190  223.0740 C   0  0  0  0  0  0  0  0  0  0  0  0
  140.8270   80.8890  223.8230 C   0  0  0  0  0  0  0  0  0  0  0  0
  142.2030   80.9430  223.8430 C   0  0  0  0  0  0  0  0  0  0  0  0
  142.8150   81.8960  224.5790 F   0  0  0  0  0  0  0  0  0  0  0  0
  142.9020   80.0260  223.1130 C   0  0  0  0  0  0  0  0  0  0  0  0
  142.2720   79.0540  222.3640 C   0  0  0  0  0  0  0  0  0  0  0  0
  141.0520   75.8550  220.9050 N   0  0  0  0  0  0  0  0  0  0  0  0
  141.3850   74.4760  220.9780 C   0  0  0  0  0  0  0  0  0  0  0  0
  141.0920   73.7820  221.9940 O   0  0  0  0  0  0  0  0  0  0  0  0
  142.0910   73.7530  219.8820 C   0  0  2  0  0  0  0  0  0  0  0  0
  143.0830   72.7950  220.5070 C   0  0  0  0  0  0  0  0  0  0  0  0
  144.2570   73.6850  220.8440 C   0  0  1  0  0  0  0  0  0  0  0  0
  145.4410   72.9170  220.8110 O   0  0  0  0  0  0  0  0  0  0  0  0
  144.2430   74.7230  219.7710 C   0  0  0  0  0  0  0  0  0  0  0  0
  142.9450   74.6140  219.0920 N   0  0  0  0  0  0  0  0  0  0  0  0
  142.6930   75.2870  217.8680 C   0  0  0  0  0  0  0  0  0  0  0  0
  141.5610   75.0520  217.3280 O   0  0  0  0  0  0  0  0  0  0  0  0
  143.6900   76.1980  217.2730 C   0  0  0  0  0  0  0  0  0  0  0  0
  143.2460   77.5570  217.2170 N   0  0  0  0  0  0  0  0  0  0  0  0
  142.7800   78.1560  218.4250 C   0  0  0  0  0  0  0  0  0  0  0  0
  142.8060   77.4120  219.4510 O   0  0  0  0  0  0  0  0  0  0  0  0
  142.3080   79.5360  218.4650 C   0  0  0  0  0  0  0  0  0  0  0  0
  142.2740   80.2270  217.2710 C   0  0  0  0  0  0  0  0  0  0  0  0
  141.8480   81.5390  217.1750 C   0  0  0  0  0  0  0  0  0  0  0  0
  141.4480   82.1420  218.3520 C   0  0  0  0  0  0  0  0  0  0  0  0
  141.0220   83.4380  218.2810 C   0  0  0  0  0  0  0  0  0  0  0  0
  140.6170   84.0650  219.4500 C   0  0  0  0  0  0  0  0  0  0  0  0
  140.1920   85.3560  219.3870 F   0  0  0  0  0  0  0  0  0  0  0  0
  140.6510   83.3650  220.6560 C   0  0  0  0  0  0  0  0  0  0  0  0
  141.0900   82.0450  220.6940 C   0  0  0  0  0  0  0  0  0  0  0  0
  141.4990   81.4140  219.5220 C   0  0  0  0  0  0  0  0  0  0  0  0
  141.9190   80.1370  219.5800 N   0  0  0  0  0  0  0  0  0  0  0  0
  136.5293   75.2497  220.8691 H   0  0  0  0  0  0  0  0  0  0  0  0
  136.9226   76.8498  220.1540 H   0  0  0  0  0  0  0  0  0  0  0  0
  138.1514   75.5396  220.1540 H   0  0  0  0  0  0  0  0  0  0  0  0
  138.0092   77.5604  222.1796 H   0  0  0  0  0  0  0  0  0  0  0  0
  137.1372   76.2041  224.0931 H   0  0  0  0  0  0  0  0  0  0  0  0
  135.8678   76.6728  222.9118 H   0  0  0  0  0  0  0  0  0  0  0  0
  136.5209   74.9994  222.9118 H   0  0  0  0  0  0  0  0  0  0  0  0
  139.2063   75.5298  223.3580 H   0  0  0  0  0  0  0  0  0  0  0  0
  139.1387   74.9464  221.6014 H   0  0  0  0  0  0  0  0  0  0  0  0
  140.9809   76.6780  222.8589 H   0  0  0  0  0  0  0  0  0  0  0  0
  140.3969   78.0961  220.4879 H   0  0  0  0  0  0  0  0  0  0  0  0
  139.0646   78.1938  221.7408 H   0  0  0  0  0  0  0  0  0  0  0  0
  139.1075   79.8857  223.0658 H   0  0  0  0  0  0  0  0  0  0  0  0
  140.2324   81.6132  224.3993 H   0  0  0  0  0  0  0  0  0  0  0  0
  144.0013   80.0631  223.1222 H   0  0  0  0  0  0  0  0  0  0  0  0
  142.8725   78.3323  221.7909 H   0  0  0  0  0  0  0  0  0  0  0  0
  141.3470   76.3360  220.0010 H   0  0  0  0  0  0  0  0  0  0  0  0
  141.3022   73.2959  219.2665 H   0  0  0  0  0  0  0  0  0  0  0  0
  142.6664   72.3315  221.4134 H   0  0  0  0  0  0  0  0  0  0  0  0
  143.3516   71.9590  219.8445 H   0  0  0  0  0  0  0  0  0  0  0  0
  144.2026   74.1388  221.8445 H   0  0  0  0  0  0  0  0  0  0  0  0
  145.4860   72.2570  221.5320 H   0  0  0  0  0  0  0  0  0  0  0  0
  144.3570   75.7245  220.2114 H   0  0  0  0  0  0  0  0  0  0  0  0
  145.0721   74.5713  219.0642 H   0  0  0  0  0  0  0  0  0  0  0  0
  144.6084   76.1544  217.8769 H   0  0  0  0  0  0  0  0  0  0  0  0
  143.8611   75.8661  216.2383 H   0  0  0  0  0  0  0  0  0  0  0  0
  143.2320   78.1580  216.3630 H   0  0  0  0  0  0  0  0  0  0  0  0
  142.6000   79.7116  216.3556 H   0  0  0  0  0  0  0  0  0  0  0  0
  141.8286   82.0736  216.2138 H   0  0  0  0  0  0  0  0  0  0  0  0
  141.0007   83.9717  217.3194 H   0  0  0  0  0  0  0  0  0  0  0  0
  140.3284   83.8600  221.5839 H   0  0  0  0  0  0  0  0  0  0  0  0
  141.1139   81.5003  221.6494 H   0  0  0  0  0  0  0  0  0  0  0  0
  1  2  1  0
  2  3  1  0
  2  4  1  0
  4  5  1  0
  5  6  1  0
  6  7  1  0
  7  8  2  0
  8  9  1  0
  9 10  2  0
 10 11  1  0
 10 12  1  0
 12 13  2  0
  5 14  1  0
 14 15  1  0
 15 16  2  0
 15 17  1  0
 17 18  1  0
 18 19  1  0
 19 20  1  0
 19 21  1  0
 21 22  1  0
 22 23  1  0
 23 24  2  0
 23 25  1  0
 25 26  1  0
 26 27  1  0
 27 28  2  0
 27 29  1  0
 29 30  2  0
 30 31  1  0
 31 32  2  0
 32 33  1  0
 33 34  2  0
 34 35  1  0
 34 36  1  0
 36 37  2  0
 37 38  1  0
 38 39  2  0
 13  7  1  0
 22 17  1  0
 39 29  1  0
 38 32  1  0
  1 40  1  0
  1 41  1  0
  1 42  1  0
  2 43  1  0
  3 44  1  0
  3 45  1  0
  3 46  1  0
  4 47  1  0
  4 48  1  0
  5 49  1  1
  6 50  1  0
  6 51  1  0
  8 52  1  0
  9 53  1  0
 12 54  1  0
 13 55  1  0
 14 56  1  0
 17 57  1  6
 18 58  1  0
 18 59  1  0
 19 60  1  1
 20 61  1  0
 21 62  1  0
 21 63  1  0
 25 64  1  0
 25 65  1  0
 26 66  1  0
 30 67  1  0
 31 68  1  0
 33 69  1  0
 36 70  1  0
 37 71  1  0
M  END
>  <smiles>  (14) 
CC(C)C[C@H](Cc1ccc(F)cc1)NC(=O)[C@@H]1C[C@@H](O)CN1C(=O)CNC(=O)c1ccc2cc(F)ccc2n1

>  <score_type>  (14) 
oracle

>  <origin>  (14) 
autodockgpu

>  <m_score__min__energy>  (14) 
-9.6099999999999994

>  <m_primary>  (14) 
energy

>  <meeko>  (14) 
{"free_energy": -7.37, "intermolecular_energy": -10.65, "internal_energy": -4.13, "cluster_size": 1, "cluster_id": 6, "rank_in_cluster": 1}

>  <energy>  (14) 
-7.37

>  <cluster_rmsd>  (14) 
0.0

>  <rmsd>  (14) 
270.82

>  <cluster>  (14) 
6

$$$$

     RDKit          3D

 71 74  0  0  0  0  0  0  0  0999 V2000
  141.8940   79.9790  221.6330 C   0  0  0  0  0  0  0  0  0  0  0  0
  141.7820   78.6760  222.4390 C   0  0  0  0  0  0  0  0  0  0  0  0
  140.9380   79.0400  223.6420 C   0  0  0  0  0  0  0  0  0  0  0  0
  141.1400   77.6890  221.5380 C   0  0  0  0  0  0  0  0  0  0  0  0
  141.9900   77.1330  220.4370 C   0  0  2  0  0  0  0  0  0  0  0  0
  141.5460   77.4730  219.0670 C   0  0  0  0  0  0  0  0  0  0  0  0
  142.0700   76.5690  218.0190 C   0  0  0  0  0  0  0  0  0  0  0  0
  143.3560   76.7800  217.5510 C   0  0  0  0  0  0  0  0  0  0  0  0
  143.9340   76.0060  216.5730 C   0  0  0  0  0  0  0  0  0  0  0  0
  143.2120   74.9700  216.0250 C   0  0  0  0  0  0  0  0  0  0  0  0
  143.7780   74.2080  215.0640 F   0  0  0  0  0  0  0  0  0  0  0  0
  141.9420   74.7500  216.4750 C   0  0  0  0  0  0  0  0  0  0  0  0
  141.3690   75.5310  217.4570 C   0  0  0  0  0  0  0  0  0  0  0  0
  142.0400   75.7030  220.6280 N   0  0  0  0  0  0  0  0  0  0  0  0
  143.2120   74.9140  220.4700 C   0  0  0  0  0  0  0  0  0  0  0  0
  144.3170   75.4370  220.1440 O   0  0  0  0  0  0  0  0  0  0  0  0
  143.2300   73.4380  220.6740 C   0  0  2  0  0  0  0  0  0  0  0  0
  144.6550   73.0160  220.9610 C   0  0  0  0  0  0  0  0  0  0  0  0
  145.2820   72.9590  219.5870 C   0  0  1  0  0  0  0  0  0  0  0  0
  146.3230   72.0060  219.5950 O   0  0  0  0  0  0  0  0  0  0  0  0
  144.1600   72.5400  218.6950 C   0  0  0  0  0  0  0  0  0  0  0  0
  142.9220   72.6950  219.4710 N   0  0  0  0  0  0  0  0  0  0  0  0
  141.6910   72.1580  219.0130 C   0  0  0  0  0  0  0  0  0  0  0  0
  141.7520   71.4530  217.9520 O   0  0  0  0  0  0  0  0  0  0  0  0
  140.4280   72.4130  219.7330 C   0  0  0  0  0  0  0  0  0  0  0  0
  140.2760   71.6030  220.9040 N   0  0  0  0  0  0  0  0  0  0  0  0
  140.3370   72.2500  222.1740 C   0  0  0  0  0  0  0  0  0  0  0  0
  140.5220   73.5040  222.1410 O   0  0  0  0  0  0  0  0  0  0  0  0
  140.1940   71.5070  223.4210 C   0  0  0  0  0  0  0  0  0  0  0  0
  139.4820   70.3260  223.3750 C   0  0  0  0  0  0  0  0  0  0  0  0
  139.2750   69.5300  224.4870 C   0  0  0  0  0  0  0  0  0  0  0  0
  139.8240   69.9780  225.6730 C   0  0  0  0  0  0  0  0  0  0  0  0
  139.6320   69.2090  226.7850 C   0  0  0  0  0  0  0  0  0  0  0  0
  140.1740   69.6390  227.9870 C   0  0  0  0  0  0  0  0  0  0  0  0
  139.9860   68.8770  229.0990 F   0  0  0  0  0  0  0  0  0  0  0  0
  140.8940   70.8320  228.0320 C   0  0  0  0  0  0  0  0  0  0  0  0
  141.0710   71.5930  226.8810 C   0  0  0  0  0  0  0  0  0  0  0  0
  140.5280   71.1650  225.6730 C   0  0  0  0  0  0  0  0  0  0  0  0
  140.7110   71.9150  224.5710 N   0  0  0  0  0  0  0  0  0  0  0  0
  141.9673   80.8321  222.3235 H   0  0  0  0  0  0  0  0  0  0  0  0
  142.7923   79.9420  220.9992 H   0  0  0  0  0  0  0  0  0  0  0  0
  141.0026   80.0959  220.9992 H   0  0  0  0  0  0  0  0  0  0  0  0
  142.7295   78.2393  222.7878 H   0  0  0  0  0  0  0  0  0  0  0  0
  141.4903   78.8018  224.5630 H   0  0  0  0  0  0  0  0  0  0  0  0
  140.7109   80.1161  223.6185 H   0  0  0  0  0  0  0  0  0  0  0  0
  139.9996   78.4666  223.6185 H   0  0  0  0  0  0  0  0  0  0  0  0
  140.8002   76.8448  222.1559 H   0  0  0  0  0  0  0  0  0  0  0  0
  140.3339   78.2402  221.0316 H   0  0  0  0  0  0  0  0  0  0  0  0
  142.9843   77.5982  220.5069 H   0  0  0  0  0  0  0  0  0  0  0  0
  140.4471   77.4323  219.0402 H   0  0  0  0  0  0  0  0  0  0  0  0
  141.9401   78.4759  218.8461 H   0  0  0  0  0  0  0  0  0  0  0  0
  143.9422   77.6051  217.9817 H   0  0  0  0  0  0  0  0  0  0  0  0
  144.9597   76.2117  216.2329 H   0  0  0  0  0  0  0  0  0  0  0  0
  141.3580   73.9249  216.0413 H   0  0  0  0  0  0  0  0  0  0  0  0
  140.3427   75.3206  217.7923 H   0  0  0  0  0  0  0  0  0  0  0  0
  141.1710   75.1530  220.9050 H   0  0  0  0  0  0  0  0  0  0  0  0
  142.4978   73.2354  221.4696 H   0  0  0  0  0  0  0  0  0  0  0  0
  145.1647   73.7549  221.5968 H   0  0  0  0  0  0  0  0  0  0  0  0
  144.7211   72.0623  221.5051 H   0  0  0  0  0  0  0  0  0  0  0  0
  145.7260   73.9101  219.2581 H   0  0  0  0  0  0  0  0  0  0  0  0
  146.3670   71.4980  220.4310 H   0  0  0  0  0  0  0  0  0  0  0  0
  144.1287   73.1787  217.8000 H   0  0  0  0  0  0  0  0  0  0  0  0
  144.2888   71.5003  218.3597 H   0  0  0  0  0  0  0  0  0  0  0  0
  140.4036   73.4709  220.0334 H   0  0  0  0  0  0  0  0  0  0  0  0
  139.6039   72.1600  219.0497 H   0  0  0  0  0  0  0  0  0  0  0  0
  140.1230   70.5690  220.9140 H   0  0  0  0  0  0  0  0  0  0  0  0
  139.0605   70.0033  222.4116 H   0  0  0  0  0  0  0  0  0  0  0  0
  138.7043   68.5913  224.4302 H   0  0  0  0  0  0  0  0  0  0  0  0
  139.0609   68.2706  226.7287 H   0  0  0  0  0  0  0  0  0  0  0  0
  141.3252   71.1740  228.9844 H   0  0  0  0  0  0  0  0  0  0  0  0
  141.6402   72.5332  226.9256 H   0  0  0  0  0  0  0  0  0  0  0  0
  1  2  1  0
  2  3  1  0
  2  4  1  0
  4  5  1  0
  5  6  1  0
  6  7  1  0
  7  8  2  0
  8  9  1  0
  9 10  2  0
 10 11  1  0
 10 12  1  0
 12 13  2  0
  5 14  1  0
 14 15  1  0
 15 16  2  0
 15 17  1  0
 17 18  1  0
 18 19  1  0
 19 20  1  0
 19 21  1  0
 21 22  1  0
 22 23  1  0
 23 24  2  0
 23 25  1  0
 25 26  1  0
 26 27  1  0
 27 28  2  0
 27 29  1  0
 29 30  2  0
 30 31  1  0
 31 32  2  0
 32 33  1  0
 33 34  2  0
 34 35  1  0
 34 36  1  0
 36 37  2  0
 37 38  1  0
 38 39  2  0
 13  7  1  0
 22 17  1  0
 39 29  1  0
 38 32  1  0
  1 40  1  0
  1 41  1  0
  1 42  1  0
  2 43  1  0
  3 44  1  0
  3 45  1  0
  3 46  1  0
  4 47  1  0
  4 48  1  0
  5 49  1  1
  6 50  1  0
  6 51  1  0
  8 52  1  0
  9 53  1  0
 12 54  1  0
 13 55  1  0
 14 56  1  0
 17 57  1  1
 18 58  1  0
 18 59  1  0
 19 60  1  6
 20 61  1  0
 21 62  1  0
 21 63  1  0
 25 64  1  0
 25 65  1  0
 26 66  1  0
 30 67  1  0
 31 68  1  0
 33 69  1  0
 36 70  1  0
 37 71  1  0
M  END
>  <smiles>  (15) 
CC(C)C[C@H](Cc1ccc(F)cc1)NC(=O)[C@@H]1C[C@@H](O)CN1C(=O)CNC(=O)c1ccc2cc(F)ccc2n1

>  <score_type>  (15) 
oracle

>  <origin>  (15) 
autodockgpu

>  <m_score__min__energy>  (15) 
-9.6099999999999994

>  <m_primary>  (15) 
energy

>  <meeko>  (15) 
{"free_energy": -8.29, "intermolecular_energy": -11.57, "internal_energy": -3.74, "cluster_size": 1, "cluster_id": 3, "rank_in_cluster": 1}

>  <energy>  (15) 
-7.28

>  <cluster_rmsd>  (15) 
0.0

>  <rmsd>  (15) 
270.25

>  <cluster>  (15) 
7

$$$$

     RDKit          3D

 71 74  0  0  0  0  0  0  0  0999 V2000
  142.6150   76.7650  219.7080 C   0  0  0  0  0  0  0  0  0  0  0  0
  142.6120   75.2360  219.8530 C   0  0  0  0  0  0  0  0  0  0  0  0
  144.0610   74.8700  220.0940 C   0  0  0  0  0  0  0  0  0  0  0  0
  141.7220   74.9330  221.0000 C   0  0  0  0  0  0  0  0  0  0  0  0
  140.6610   75.9430  221.3110 C   0  0  2  0  0  0  0  0  0  0  0  0
  140.7500   76.5530  222.6570 C   0  0  0  0  0  0  0  0  0  0  0  0
  141.0760   77.9970  222.6460 C   0  0  0  0  0  0  0  0  0  0  0  0
  141.7490   78.5280  223.7340 C   0  0  0  0  0  0  0  0  0  0  0  0
  142.0900   79.8560  223.8300 C   0  0  0  0  0  0  0  0  0  0  0  0
  141.7530   80.7090  222.8030 C   0  0  0  0  0  0  0  0  0  0  0  0
  142.0880   82.0150  222.8940 F   0  0  0  0  0  0  0  0  0  0  0  0
  141.0890   80.2020  221.7240 C   0  0  0  0  0  0  0  0  0  0  0  0
  140.7510   78.8670  221.6350 C   0  0  0  0  0  0  0  0  0  0  0  0
  139.3890   75.2880  221.1200 N   0  0  0  0  0  0  0  0  0  0  0  0
  138.1440   75.9660  221.0280 C   0  0  0  0  0  0  0  0  0  0  0  0
  138.0750   77.2270  221.1090 O   0  0  0  0  0  0  0  0  0  0  0  0
  136.8470   75.2590  220.8310 C   0  0  2  0  0  0  0  0  0  0  0  0
  135.8090   75.9140  221.7170 C   0  0  0  0  0  0  0  0  0  0  0  0
  136.0780   75.3040  223.0730 C   0  0  1  0  0  0  0  0  0  0  0  0
  134.8770   75.2820  223.8140 O   0  0  0  0  0  0  0  0  0  0  0  0
  136.5570   73.9250  222.7590 C   0  0  0  0  0  0  0  0  0  0  0  0
  136.8610   73.8980  221.3230 N   0  0  0  0  0  0  0  0  0  0  0  0
  137.1090   72.6780  220.6420 C   0  0  0  0  0  0  0  0  0  0  0  0
  136.1170   72.1820  220.0120 O   0  0  0  0  0  0  0  0  0  0  0  0
  138.4390   72.0380  220.6730 C   0  0  0  0  0  0  0  0  0  0  0  0
  138.6840   71.3120  221.8820 N   0  0  0  0  0  0  0  0  0  0  0  0
  139.5810   71.8840  222.8330 C   0  0  0  0  0  0  0  0  0  0  0  0
  140.0830   73.0030  222.5080 O   0  0  0  0  0  0  0  0  0  0  0  0
  139.8920   71.2170  224.0930 C   0  0  0  0  0  0  0  0  0  0  0  0
  140.6960   71.8960  224.9850 C   0  0  0  0  0  0  0  0  0  0  0  0
  141.0630   71.3740  226.2120 C   0  0  0  0  0  0  0  0  0  0  0  0
  140.5800   70.1150  226.5120 C   0  0  0  0  0  0  0  0  0  0  0  0
  140.9300   69.5790  227.7190 C   0  0  0  0  0  0  0  0  0  0  0  0
  140.4570   68.3150  228.0420 C   0  0  0  0  0  0  0  0  0  0  0  0
  140.8020   67.7750  229.2420 F   0  0  0  0  0  0  0  0  0  0  0  0
  139.6440   67.6310  227.1380 C   0  0  0  0  0  0  0  0  0  0  0  0
  139.3060   68.2050  225.9180 C   0  0  0  0  0  0  0  0  0  0  0  0
  139.7800   69.4730  225.5900 C   0  0  0  0  0  0  0  0  0  0  0  0
  139.4410   70.0120  224.4040 N   0  0  0  0  0  0  0  0  0  0  0  0
  142.6159   77.2279  220.7058 H   0  0  0  0  0  0  0  0  0  0  0  0
  143.5138   77.0793  219.1571 H   0  0  0  0  0  0  0  0  0  0  0  0
  141.7175   77.0828  219.1571 H   0  0  0  0  0  0  0  0  0  0  0  0
  142.2410   74.6683  218.9869 H   0  0  0  0  0  0  0  0  0  0  0  0
  144.2519   74.8218  221.1762 H   0  0  0  0  0  0  0  0  0  0  0  0
  144.2721   73.8903  219.6404 H   0  0  0  0  0  0  0  0  0  0  0  0
  144.7120   75.6319  219.6404 H   0  0  0  0  0  0  0  0  0  0  0  0
  141.2209   73.9766  220.7899 H   0  0  0  0  0  0  0  0  0  0  0  0
  142.3793   74.9222  221.8819 H   0  0  0  0  0  0  0  0  0  0  0  0
  140.7954   76.7977  220.6317 H   0  0  0  0  0  0  0  0  0  0  0  0
  139.7809   76.4215  223.1606 H   0  0  0  0  0  0  0  0  0  0  0  0
  141.5735   76.0460  223.1811 H   0  0  0  0  0  0  0  0  0  0  0  0
  142.0234   77.8553  224.5599 H   0  0  0  0  0  0  0  0  0  0  0  0
  142.6246   80.2321  224.7148 H   0  0  0  0  0  0  0  0  0  0  0  0
  140.8149   80.8778  220.9004 H   0  0  0  0  0  0  0  0  0  0  0  0
  140.2171   78.4971  220.7472 H   0  0  0  0  0  0  0  0  0  0  0  0
  139.3230   74.2270  221.0360 H   0  0  0  0  0  0  0  0  0  0  0  0
  136.6483   75.2930  219.7496 H   0  0  0  0  0  0  0  0  0  0  0  0
  135.9436   77.0055  221.7417 H   0  0  0  0  0  0  0  0  0  0  0  0
  134.7788   75.7512  221.3674 H   0  0  0  0  0  0  0  0  0  0  0  0
  136.8116   75.8586  223.6766 H   0  0  0  0  0  0  0  0  0  0  0  0
  134.1150   74.9550  223.2930 H   0  0  0  0  0  0  0  0  0  0  0  0
  137.4615   73.6965  223.3419 H   0  0  0  0  0  0  0  0  0  0  0  0
  135.7946   73.1746  223.0151 H   0  0  0  0  0  0  0  0  0  0  0  0
  138.5122   71.3411  219.8251 H   0  0  0  0  0  0  0  0  0  0  0  0
  139.1903   72.8392  220.6132 H   0  0  0  0  0  0  0  0  0  0  0  0
  138.2610   70.3910  222.1360 H   0  0  0  0  0  0  0  0  0  0  0  0
  141.0611   72.8961  224.7083 H   0  0  0  0  0  0  0  0  0  0  0  0
  141.7045   71.9309  226.9109 H   0  0  0  0  0  0  0  0  0  0  0  0
  141.5713   70.1360  228.4179 H   0  0  0  0  0  0  0  0  0  0  0  0
  139.2674   66.6293  227.3927 H   0  0  0  0  0  0  0  0  0  0  0  0
  138.6643   67.6579  225.2117 H   0  0  0  0  0  0  0  0  0  0  0  0
  1  2  1  0
  2  3  1  0
  2  4  1  0
  4  5  1  0
  5  6  1  0
  6  7  1  0
  7  8  2  0
  8  9  1  0
  9 10  2  0
 10 11  1  0
 10 12  1  0
 12 13  2  0
  5 14  1  0
 14 15  1  0
 15 16  2  0
 15 17  1  0
 17 18  1  0
 18 19  1  0
 19 20  1  0
 19 21  1  0
 21 22  1  0
 22 23  1  0
 23 24  2  0
 23 25  1  0
 25 26  1  0
 26 27  1  0
 27 28  2  0
 27 29  1  0
 29 30  2  0
 30 31  1  0
 31 32  2  0
 32 33  1  0
 33 34  2  0
 34 35  1  0
 34 36  1  0
 36 37  2  0
 37 38  1  0
 38 39  2  0
 13  7  1  0
 22 17  1  0
 39 29  1  0
 38 32  1  0
  1 40  1  0
  1 41  1  0
  1 42  1  0
  2 43  1  0
  3 44  1  0
  3 45  1  0
  3 46  1  0
  4 47  1  0
  4 48  1  0
  5 49  1  6
  6 50  1  0
  6 51  1  0
  8 52  1  0
  9 53  1  0
 12 54  1  0
 13 55  1  0
 14 56  1  0
 17 57  1  6
 18 58  1  0
 18 59  1  0
 19 60  1  1
 20 61  1  0
 21 62  1  0
 21 63  1  0
 25 64  1  0
 25 65  1  0
 26 66  1  0
 30 67  1  0
 31 68  1  0
 33 69  1  0
 36 70  1  0
 37 71  1  0
M  END
>  <smiles>  (16) 
CC(C)C[C@H](Cc1ccc(F)cc1)NC(=O)[C@@H]1C[C@@H](O)CN1C(=O)CNC(=O)c1ccc2cc(F)ccc2n1

>  <score_type>  (16) 
oracle

>  <origin>  (16) 
autodockgpu

>  <m_score__min__energy>  (16) 
-9.6099999999999994

>  <m_primary>  (16) 
energy

>  <meeko>  (16) 
{"free_energy": -7.88, "intermolecular_energy": -11.16, "internal_energy": -3.75, "cluster_size": 3, "cluster_id": 4, "rank_in_cluster": 3}

>  <energy>  (16) 
-6.86

>  <cluster_rmsd>  (16) 
0.0

>  <rmsd>  (16) 
270.28

>  <cluster>  (16) 
8

$$$$

     RDKit          3D

 71 74  0  0  0  0  0  0  0  0999 V2000
  140.1460   79.7060  223.6050 C   0  0  0  0  0  0  0  0  0  0  0  0
  141.3250   79.3030  222.7060 C   0  0  0  0  0  0  0  0  0  0  0  0
  142.5520   79.8210  223.4260 C   0  0  0  0  0  0  0  0  0  0  0  0
  141.2750   77.8240  222.6010 C   0  0  0  0  0  0  0  0  0  0  0  0
  141.0550   77.2550  221.2350 C   0  0  2  0  0  0  0  0  0  0  0  0
  139.6830   77.4100  220.7020 C   0  0  0  0  0  0  0  0  0  0  0  0
  138.6960   76.4790  221.2930 C   0  0  0  0  0  0  0  0  0  0  0  0
  138.0640   76.8490  222.4700 C   0  0  0  0  0  0  0  0  0  0  0  0
  137.1400   76.0550  223.1060 C   0  0  0  0  0  0  0  0  0  0  0  0
  136.8190   74.8330  222.5590 C   0  0  0  0  0  0  0  0  0  0  0  0
  135.9100   74.0510  223.1830 F   0  0  0  0  0  0  0  0  0  0  0  0
  137.4330   74.4540  221.4010 C   0  0  0  0  0  0  0  0  0  0  0  0
  138.3580   75.2570  220.7680 C   0  0  0  0  0  0  0  0  0  0  0  0
  141.4360   75.8640  221.2940 N   0  0  0  0  0  0  0  0  0  0  0  0
  142.4930   75.2900  220.5370 C   0  0  0  0  0  0  0  0  0  0  0  0
  143.1870   75.9880  219.7420 O   0  0  0  0  0  0  0  0  0  0  0  0
  142.8610   73.8480  220.6200 C   0  0  2  0  0  0  0  0  0  0  0  0
  144.3710   73.7430  220.6380 C   0  0  0  0  0  0  0  0  0  0  0  0
  144.7440   73.8820  219.1810 C   0  0  1  0  0  0  0  0  0  0  0  0
  145.9500   73.1860  218.9460 O   0  0  0  0  0  0  0  0  0  0  0  0
  143.5990   73.2590  218.4540 C   0  0  0  0  0  0  0  0  0  0  0  0
  142.5120   73.1030  219.4300 N   0  0  0  0  0  0  0  0  0  0  0  0
  141.3630   72.3240  219.1370 C   0  0  0  0  0  0  0  0  0  0  0  0
  141.4840   71.4920  218.1780 O   0  0  0  0  0  0  0  0  0  0  0  0
  140.1130   72.4810  219.9080 C   0  0  0  0  0  0  0  0  0  0  0  0
  140.0490   71.6260  221.0540 N   0  0  0  0  0  0  0  0  0  0  0  0
  140.1550   72.2300  222.3420 C   0  0  0  0  0  0  0  0  0  0  0  0
  140.2970   73.4900  222.3470 O   0  0  0  0  0  0  0  0  0  0  0  0
  140.1010   71.4390  223.5680 C   0  0  0  0  0  0  0  0  0  0  0  0
  139.4700   70.2150  223.5020 C   0  0  0  0  0  0  0  0  0  0  0  0
  139.3510   69.3710  224.5910 C   0  0  0  0  0  0  0  0  0  0  0  0
  139.9050   69.8180  225.7750 C   0  0  0  0  0  0  0  0  0  0  0  0
  139.8000   69.0010  226.8660 C   0  0  0  0  0  0  0  0  0  0  0  0
  140.3470   69.4300  228.0660 C   0  0  0  0  0  0  0  0  0  0  0  0
  140.2460   68.6210  229.1560 F   0  0  0  0  0  0  0  0  0  0  0  0
  140.9850   70.6680  228.1310 C   0  0  0  0  0  0  0  0  0  0  0  0
  141.0750   71.4760  227.0020 C   0  0  0  0  0  0  0  0  0  0  0  0
  140.5260   71.0500  225.7960 C   0  0  0  0  0  0  0  0  0  0  0  0
  140.6230   71.8450  224.7150 N   0  0  0  0  0  0  0  0  0  0  0  0
  140.4388   79.6059  224.6606 H   0  0  0  0  0  0  0  0  0  0  0  0
  139.8680   80.7502  223.3990 H   0  0  0  0  0  0  0  0  0  0  0  0
  139.2870   79.0504  223.3990 H   0  0  0  0  0  0  0  0  0  0  0  0
  141.3153   79.7084  221.6835 H   0  0  0  0  0  0  0  0  0  0  0  0
  142.3948   79.7546  224.5127 H   0  0  0  0  0  0  0  0  0  0  0  0
  143.4257   79.2149  223.1442 H   0  0  0  0  0  0  0  0  0  0  0  0
  142.7270   80.8698  223.1442 H   0  0  0  0  0  0  0  0  0  0  0  0
  142.2313   77.4306  222.9760 H   0  0  0  0  0  0  0  0  0  0  0  0
  140.3935   77.5221  223.1856 H   0  0  0  0  0  0  0  0  0  0  0  0
  141.6714   77.8267  220.5256 H   0  0  0  0  0  0  0  0  0  0  0  0
  139.3494   78.4391  220.9011 H   0  0  0  0  0  0  0  0  0  0  0  0
  139.7324   77.1795  219.6275 H   0  0  0  0  0  0  0  0  0  0  0  0
  138.3136   77.8233  222.9155 H   0  0  0  0  0  0  0  0  0  0  0  0
  136.6637   76.3910  224.0388 H   0  0  0  0  0  0  0  0  0  0  0  0
  137.1825   73.4783  220.9590 H   0  0  0  0  0  0  0  0  0  0  0  0
  138.8289   74.9153  219.8345 H   0  0  0  0  0  0  0  0  0  0  0  0
  140.9240   75.1790  221.9300 H   0  0  0  0  0  0  0  0  0  0  0  0
  142.3400   73.4562  221.5060 H   0  0  0  0  0  0  0  0  0  0  0  0
  144.8155   74.5509  221.2378 H   0  0  0  0  0  0  0  0  0  0  0  0
  144.7330   72.8071  221.0886 H   0  0  0  0  0  0  0  0  0  0  0  0
  144.9099   74.9205  218.8586 H   0  0  0  0  0  0  0  0  0  0  0  0
  146.6830   73.7760  218.6740 H   0  0  0  0  0  0  0  0  0  0  0  0
  143.2759   73.9094  217.6278 H   0  0  0  0  0  0  0  0  0  0  0  0
  143.8856   72.2882  218.0234 H   0  0  0  0  0  0  0  0  0  0  0  0
  140.0388   73.5252  220.2457 H   0  0  0  0  0  0  0  0  0  0  0  0
  139.2811   72.2027  219.2443 H   0  0  0  0  0  0  0  0  0  0  0  0
  139.9310   70.5880  221.0340 H   0  0  0  0  0  0  0  0  0  0  0  0
  139.0422   69.8955  222.5403 H   0  0  0  0  0  0  0  0  0  0  0  0
  138.8434   68.3978  224.5185 H   0  0  0  0  0  0  0  0  0  0  0  0
  139.2939   68.0270  226.7938 H   0  0  0  0  0  0  0  0  0  0  0  0
  141.4205   71.0084  229.0820 H   0  0  0  0  0  0  0  0  0  0  0  0
  141.5800   72.4514  227.0625 H   0  0  0  0  0  0  0  0  0  0  0  0
  1  2  1  0
  2  3  1  0
  2  4  1  0
  4  5  1  0
  5  6  1  0
  6  7  1  0
  7  8  2  0
  8  9  1  0
  9 10  2  0
 10 11  1  0
 10 12  1  0
 12 13  2  0
  5 14  1  0
 14 15  1  0
 15 16  2  0
 15 17  1  0
 17 18  1  0
 18 19  1  0
 19 20  1  0
 19 21  1  0
 21 22  1  0
 22 23  1  0
 23 24  2  0
 23 25  1  0
 25 26  1  0
 26 27  1  0
 27 28  2  0
 27 29  1  0
 29 30  2  0
 30 31  1  0
 31 32  2  0
 32 33  1  0
 33 34  2  0
 34 35  1  0
 34 36  1  0
 36 37  2  0
 37 38  1  0
 38 39  2  0
 13  7  1  0
 22 17  1  0
 39 29  1  0
 38 32  1  0
  1 40  1  0
  1 41  1  0
  1 42  1  0
  2 43  1  0
  3 44  1  0
  3 45  1  0
  3 46  1  0
  4 47  1  0
  4 48  1  0
  5 49  1  6
  6 50  1  0
  6 51  1  0
  8 52  1  0
  9 53  1  0
 12 54  1  0
 13 55  1  0
 14 56  1  0
 17 57  1  1
 18 58  1  0
 18 59  1  0
 19 60  1  6
 20 61  1  0
 21 62  1  0
 21 63  1  0
 25 64  1  0
 25 65  1  0
 26 66  1  0
 30 67  1  0
 31 68  1  0
 33 69  1  0
 36 70  1  0
 37 71  1  0
M  END
>  <smiles>  (17) 
CC(C)C[C@H](Cc1ccc(F)cc1)NC(=O)[C@@H]1C[C@@H](O)CN1C(=O)CNC(=O)c1ccc2cc(F)ccc2n1

>  <score_type>  (17) 
oracle

>  <origin>  (17) 
autodockgpu

>  <m_score__min__energy>  (17) 
-9.6099999999999994

>  <m_primary>  (17) 
energy

>  <meeko>  (17) 
{"free_energy": -8.76, "intermolecular_energy": -12.04, "internal_energy": -3.59, "cluster_size": 4, "cluster_id": 2, "rank_in_cluster": 2}

>  <energy>  (17) 
-6.56

>  <cluster_rmsd>  (17) 
0.0

>  <rmsd>  (17) 
269.88

>  <cluster>  (17) 
9

$$$$

     RDKit          3D

 71 74  0  0  0  0  0  0  0  0999 V2000
  145.5860   73.4250  221.1700 C   0  0  0  0  0  0  0  0  0  0  0  0
  144.1730   73.3800  220.5690 C   0  0  0  0  0  0  0  0  0  0  0  0
  144.3720   73.6710  219.0970 C   0  0  0  0  0  0  0  0  0  0  0  0
  143.6520   72.0190  220.8430 C   0  0  0  0  0  0  0  0  0  0  0  0
  142.1650   71.8490  220.8020 C   0  0  2  0  0  0  0  0  0  0  0  0
  141.6850   70.7060  219.9930 C   0  0  0  0  0  0  0  0  0  0  0  0
  140.2590   70.3710  220.2050 C   0  0  0  0  0  0  0  0  0  0  0  0
  139.9500   69.2930  221.0180 C   0  0  0  0  0  0  0  0  0  0  0  0
  138.6600   68.8910  221.2720 C   0  0  0  0  0  0  0  0  0  0  0  0
  137.6180   69.5830  220.6960 C   0  0  0  0  0  0  0  0  0  0  0  0
  136.3500   69.1900  220.9450 F   0  0  0  0  0  0  0  0  0  0  0  0
  137.9070   70.6470  219.8920 C   0  0  0  0  0  0  0  0  0  0  0  0
  139.2040   71.0440  219.6430 C   0  0  0  0  0  0  0  0  0  0  0  0
  141.6130   73.0940  220.3220 N   0  0  0  0  0  0  0  0  0  0  0  0
  140.7550   73.9340  221.0810 C   0  0  0  0  0  0  0  0  0  0  0  0
  140.4150   73.6320  222.2620 O   0  0  0  0  0  0  0  0  0  0  0  0
  140.2010   75.2140  220.5560 C   0  0  2  0  0  0  0  0  0  0  0  0
  141.2360   76.3000  220.7600 C   0  0  0  0  0  0  0  0  0  0  0  0
  141.0610   76.6750  222.2130 C   0  0  1  0  0  0  0  0  0  0  0  0
  141.4360   78.0250  222.3880 O   0  0  0  0  0  0  0  0  0  0  0  0
  139.6030   76.4720  222.4650 C   0  0  0  0  0  0  0  0  0  0  0  0
  139.0790   75.7060  221.3270 N   0  0  0  0  0  0  0  0  0  0  0  0
  137.6840   75.5460  221.1230 C   0  0  0  0  0  0  0  0  0  0  0  0
  137.0630   76.5750  220.6960 O   0  0  0  0  0  0  0  0  0  0  0  0
  137.0110   74.2600  221.3940 C   0  0  0  0  0  0  0  0  0  0  0  0
  137.7320   73.4320  222.3110 N   0  0  0  0  0  0  0  0  0  0  0  0
  137.1400   72.1930  222.6980 C   0  0  0  0  0  0  0  0  0  0  0  0
  136.0100   71.9410  222.1800 O   0  0  0  0  0  0  0  0  0  0  0  0
  137.8000   71.2830  223.6280 C   0  0  0  0  0  0  0  0  0  0  0  0
  137.0730   70.1990  224.0750 C   0  0  0  0  0  0  0  0  0  0  0  0
  137.5850   69.2650  224.9570 C   0  0  0  0  0  0  0  0  0  0  0  0
  138.8840   69.4680  225.3800 C   0  0  0  0  0  0  0  0  0  0  0  0
  139.4100   68.5570  226.2520 C   0  0  0  0  0  0  0  0  0  0  0  0
  140.7130   68.7410  226.6910 C   0  0  0  0  0  0  0  0  0  0  0  0
  141.2440   67.8370  227.5600 F   0  0  0  0  0  0  0  0  0  0  0  0
  141.4470   69.8370  226.2380 C   0  0  0  0  0  0  0  0  0  0  0  0
  140.8810   70.7460  225.3500 C   0  0  0  0  0  0  0  0  0  0  0  0
  139.5730   70.5650  224.9070 C   0  0  0  0  0  0  0  0  0  0  0  0
  139.0440   71.4550  224.0480 N   0  0  0  0  0  0  0  0  0  0  0  0
  145.5177   73.4228  222.2679 H   0  0  0  0  0  0  0  0  0  0  0  0
  146.1546   72.5445  220.8362 H   0  0  0  0  0  0  0  0  0  0  0  0
  146.0974   74.3399  220.8362 H   0  0  0  0  0  0  0  0  0  0  0  0
  143.4493   74.0999  220.9789 H   0  0  0  0  0  0  0  0  0  0  0  0
  144.9895   74.5740  218.9820 H   0  0  0  0  0  0  0  0  0  0  0  0
  144.8769   72.8183  218.6196 H   0  0  0  0  0  0  0  0  0  0  0  0
  143.3942   73.8322  218.6196 H   0  0  0  0  0  0  0  0  0  0  0  0
  144.0863   71.3388  220.0955 H   0  0  0  0  0  0  0  0  0  0  0  0
  143.9399   71.8023  221.8823 H   0  0  0  0  0  0  0  0  0  0  0  0
  141.8227   71.6059  221.8187 H   0  0  0  0  0  0  0  0  0  0  0  0
  141.8278   70.9511  218.9302 H   0  0  0  0  0  0  0  0  0  0  0  0
  142.2671   69.8277  220.3089 H   0  0  0  0  0  0  0  0  0  0  0  0
  140.7750   68.7325  221.4820 H   0  0  0  0  0  0  0  0  0  0  0  0
  138.4630   68.0288  221.9261 H   0  0  0  0  0  0  0  0  0  0  0  0
  137.0802   71.2051  219.4283 H   0  0  0  0  0  0  0  0  0  0  0  0
  139.3941   71.9073  218.9884 H   0  0  0  0  0  0  0  0  0  0  0  0
  141.8310   73.4520  219.3430 H   0  0  0  0  0  0  0  0  0  0  0  0
  139.9145   75.0113  219.5135 H   0  0  0  0  0  0  0  0  0  0  0  0
  142.2503   75.9189  220.5704 H   0  0  0  0  0  0  0  0  0  0  0  0
  141.1079   77.1520  220.0761 H   0  0  0  0  0  0  0  0  0  0  0  0
  141.6769   76.0828  222.9058 H   0  0  0  0  0  0  0  0  0  0  0  0
  142.4000   78.1670  222.2930 H   0  0  0  0  0  0  0  0  0  0  0  0
  139.4546   75.9112  223.3996 H   0  0  0  0  0  0  0  0  0  0  0  0
  139.0818   77.4354  222.5662 H   0  0  0  0  0  0  0  0  0  0  0  0
  136.0168   74.4673  221.8166 H   0  0  0  0  0  0  0  0  0  0  0  0
  136.9475   73.7155  220.4403 H   0  0  0  0  0  0  0  0  0  0  0  0
  138.6650   73.6530  222.7280 H   0  0  0  0  0  0  0  0  0  0  0  0
  136.0416   70.0722  223.7143 H   0  0  0  0  0  0  0  0  0  0  0  0
  136.9900   68.4069  225.3029 H   0  0  0  0  0  0  0  0  0  0  0  0
  138.8149   67.6988  226.5974 H   0  0  0  0  0  0  0  0  0  0  0  0
  142.4804   69.9836  226.5852 H   0  0  0  0  0  0  0  0  0  0  0  0
  141.4666   71.6079  224.9976 H   0  0  0  0  0  0  0  0  0  0  0  0
  1  2  1  0
  2  3  1  0
  2  4  1  0
  4  5  1  0
  5  6  1  0
  6  7  1  0
  7  8  2  0
  8  9  1  0
  9 10  2  0
 10 11  1  0
 10 12  1  0
 12 13  2  0
  5 14  1  0
 14 15  1  0
 15 16  2  0
 15 17  1  0
 17 18  1  0
 18 19  1  0
 19 20  1  0
 19 21  1  0
 21 22  1  0
 22 23  1  0
 23 24  2  0
 23 25  1  0
 25 26  1  0
 26 27  1  0
 27 28  2  0
 27 29  1  0
 29 30  2  0
 30 31  1  0
 31 32  2  0
 32 33  1  0
 33 34  2  0
 34 35  1  0
 34 36  1  0
 36 37  2  0
 37 38  1  0
 38 39  2  0
 13  7  1  0
 22 17  1  0
 39 29  1  0
 38 32  1  0
  1 40  1  0
  1 41  1  0
  1 42  1  0
  2 43  1  0
  3 44  1  0
  3 45  1  0
  3 46  1  0
  4 47  1  0
  4 48  1  0
  5 49  1  1
  6 50  1  0
  6 51  1  0
  8 52  1  0
  9 53  1  0
 12 54  1  0
 13 55  1  0
 14 56  1  0
 17 57  1  6
 18 58  1  0
 18 59  1  0
 19 60  1  1
 20 61  1  0
 21 62  1  0
 21 63  1  0
 25 64  1  0
 25 65  1  0
 26 66  1  0
 30 67  1  0
 31 68  1  0
 33 69  1  0
 36 70  1  0
 37 71  1  0
M  END
>  <smiles>  (18) 
CC(C)C[C@H](Cc1ccc(F)cc1)NC(=O)[C@@H]1C[C@@H](O)CN1C(=O)CNC(=O)c1ccc2cc(F)ccc2n1

>  <score_type>  (18) 
oracle

>  <origin>  (18) 
autodockgpu

>  <m_score__min__energy>  (18) 
-9.6099999999999994

>  <m_primary>  (18) 
energy

>  <meeko>  (18) 
{"free_energy": -6.56, "intermolecular_energy": -9.84, "internal_energy": -4.89, "cluster_size": 2, "cluster_id": 9, "rank_in_cluster": 1}

>  <energy>  (18) 
-6.44

>  <cluster_rmsd>  (18) 
0.13

>  <rmsd>  (18) 
269.91

>  <cluster>  (18) 
9

$$$$

     RDKit          3D

 71 74  0  0  0  0  0  0  0  0999 V2000
  140.7340   80.7580  219.2850 C   0  0  0  0  0  0  0  0  0  0  0  0
  141.6380   79.8910  218.3950 C   0  0  0  0  0  0  0  0  0  0  0  0
  142.6810   80.8490  217.8590 C   0  0  0  0  0  0  0  0  0  0  0  0
  142.1940   78.8370  219.2760 C   0  0  0  0  0  0  0  0  0  0  0  0
  142.7550   77.6240  218.6010 C   0  0  2  0  0  0  0  0  0  0  0  0
  141.9690   77.1250  217.4500 C   0  0  0  0  0  0  0  0  0  0  0  0
  140.6550   76.5500  217.8180 C   0  0  0  0  0  0  0  0  0  0  0  0
  140.3120   75.3110  217.3030 C   0  0  0  0  0  0  0  0  0  0  0  0
  139.1150   74.6930  217.5730 C   0  0  0  0  0  0  0  0  0  0  0  0
  138.2050   75.3240  218.3910 C   0  0  0  0  0  0  0  0  0  0  0  0
  137.0270   74.7180  218.6580 F   0  0  0  0  0  0  0  0  0  0  0  0
  138.5280   76.5460  218.9050 C   0  0  0  0  0  0  0  0  0  0  0  0
  139.7320   77.1600  218.6300 C   0  0  0  0  0  0  0  0  0  0  0  0
  142.8950   76.6060  219.6150 N   0  0  0  0  0  0  0  0  0  0  0  0
  143.3200   75.2750  219.3600 C   0  0  0  0  0  0  0  0  0  0  0  0
  143.6110   74.8900  218.1900 O   0  0  0  0  0  0  0  0  0  0  0  0
  143.4540   74.2460  220.4310 C   0  0  2  0  0  0  0  0  0  0  0  0
  144.9280   73.9980  220.6690 C   0  0  0  0  0  0  0  0  0  0  0  0
  145.3050   73.0580  219.5470 C   0  0  1  0  0  0  0  0  0  0  0  0
  146.3820   72.2480  219.9680 O   0  0  0  0  0  0  0  0  0  0  0  0
  144.0680   72.2540  219.3190 C   0  0  0  0  0  0  0  0  0  0  0  0
  142.9800   72.9400  220.0270 N   0  0  0  0  0  0  0  0  0  0  0  0
  141.7180   72.3200  220.2210 C   0  0  0  0  0  0  0  0  0  0  0  0
  141.7470   71.0750  220.4960 O   0  0  0  0  0  0  0  0  0  0  0  0
  140.4610   73.0870  220.1080 C   0  0  0  0  0  0  0  0  0  0  0  0
  140.6280   74.4820  220.3800 N   0  0  0  0  0  0  0  0  0  0  0  0
  140.1220   74.9840  221.6160 C   0  0  0  0  0  0  0  0  0  0  0  0
  139.5640   74.1290  222.3680 O   0  0  0  0  0  0  0  0  0  0  0  0
  140.2460   76.3920  221.9800 C   0  0  0  0  0  0  0  0  0  0  0  0
  139.0890   77.0600  222.3220 C   0  0  0  0  0  0  0  0  0  0  0  0
  139.0710   78.3940  222.6870 C   0  0  0  0  0  0  0  0  0  0  0  0
  140.2910   79.0440  222.6930 C   0  0  0  0  0  0  0  0  0  0  0  0
  140.2980   80.3630  223.0490 C   0  0  0  0  0  0  0  0  0  0  0  0
  141.5110   81.0360  223.0620 C   0  0  0  0  0  0  0  0  0  0  0  0
  141.5250   82.3500  223.4160 F   0  0  0  0  0  0  0  0  0  0  0  0
  142.6800   80.3590  222.7160 C   0  0  0  0  0  0  0  0  0  0  0  0
  142.6380   79.0160  222.3580 C   0  0  0  0  0  0  0  0  0  0  0  0
  141.4220   78.3370  222.3430 C   0  0  0  0  0  0  0  0  0  0  0  0
  141.4020   77.0370  221.9950 N   0  0  0  0  0  0  0  0  0  0  0  0
  140.9518   80.5491  220.3428 H   0  0  0  0  0  0  0  0  0  0  0  0
  140.9232   81.8210  219.0747 H   0  0  0  0  0  0  0  0  0  0  0  0
  139.6798   80.5246  219.0747 H   0  0  0  0  0  0  0  0  0  0  0  0
  141.1467   79.3893  217.5483 H   0  0  0  0  0  0  0  0  0  0  0  0
  143.2039   81.3293  218.6991 H   0  0  0  0  0  0  0  0  0  0  0  0
  143.4059   80.2953  217.2442 H   0  0  0  0  0  0  0  0  0  0  0  0
  142.1908   81.6183  217.2442 H   0  0  0  0  0  0  0  0  0  0  0  0
  143.0006   79.2907  219.8706 H   0  0  0  0  0  0  0  0  0  0  0  0
  141.3396   78.4714  219.8645 H   0  0  0  0  0  0  0  0  0  0  0  0
  143.7204   77.9011  218.1524 H   0  0  0  0  0  0  0  0  0  0  0  0
  141.7976   77.9638  216.7593 H   0  0  0  0  0  0  0  0  0  0  0  0
  142.5543   76.3123  216.9951 H   0  0  0  0  0  0  0  0  0  0  0  0
  141.0311   74.7980  216.6475 H   0  0  0  0  0  0  0  0  0  0  0  0
  138.8868   73.7073  217.1414 H   0  0  0  0  0  0  0  0  0  0  0  0
  137.8060   77.0571  219.5588 H   0  0  0  0  0  0  0  0  0  0  0  0
  139.9540   78.1458  219.0647 H   0  0  0  0  0  0  0  0  0  0  0  0
  142.6790   76.8140  220.6370 H   0  0  0  0  0  0  0  0  0  0  0  0
  142.8850   74.6309  221.2901 H   0  0  0  0  0  0  0  0  0  0  0  0
  145.5007   74.9352  220.6078 H   0  0  0  0  0  0  0  0  0  0  0  0
  145.1409   73.5866  221.6667 H   0  0  0  0  0  0  0  0  0  0  0  0
  145.6315   73.5659  218.6275 H   0  0  0  0  0  0  0  0  0  0  0  0
  146.2380   71.8530  220.8520 H   0  0  0  0  0  0  0  0  0  0  0  0
  143.8447   72.1994  218.2433 H   0  0  0  0  0  0  0  0  0  0  0  0
  144.1922   71.2252  219.6880 H   0  0  0  0  0  0  0  0  0  0  0  0
  140.0726   72.9738  219.0851 H   0  0  0  0  0  0  0  0  0  0  0  0
  139.7644   72.6874  220.8597 H   0  0  0  0  0  0  0  0  0  0  0  0
  141.0910   75.1740  219.7500 H   0  0  0  0  0  0  0  0  0  0  0  0
  138.1381   76.5073  222.3037 H   0  0  0  0  0  0  0  0  0  0  0  0
  138.1375   78.9092  222.9575 H   0  0  0  0  0  0  0  0  0  0  0  0
  139.3646   80.8787  223.3187 H   0  0  0  0  0  0  0  0  0  0  0  0
  143.6425   80.8913  222.7264 H   0  0  0  0  0  0  0  0  0  0  0  0
  143.5651   78.4899  222.0867 H   0  0  0  0  0  0  0  0  0  0  0  0
  1  2  1  0
  2  3  1  0
  2  4  1  0
  4  5  1  0
  5  6  1  0
  6  7  1  0
  7  8  2  0
  8  9  1  0
  9 10  2  0
 10 11  1  0
 10 12  1  0
 12 13  2  0
  5 14  1  0
 14 15  1  0
 15 16  2  0
 15 17  1  0
 17 18  1  0
 18 19  1  0
 19 20  1  0
 19 21  1  0
 21 22  1  0
 22 23  1  0
 23 24  2  0
 23 25  1  0
 25 26  1  0
 26 27  1  0
 27 28  2  0
 27 29  1  0
 29 30  2  0
 30 31  1  0
 31 32  2  0
 32 33  1  0
 33 34  2  0
 34 35  1  0
 34 36  1  0
 36 37  2  0
 37 38  1  0
 38 39  2  0
 13  7  1  0
 22 17  1  0
 39 29  1  0
 38 32  1  0
  1 40  1  0
  1 41  1  0
  1 42  1  0
  2 43  1  0
  3 44  1  0
  3 45  1  0
  3 46  1  0
  4 47  1  0
  4 48  1  0
  5 49  1  6
  6 50  1  0
  6 51  1  0
  8 52  1  0
  9 53  1  0
 12 54  1  0
 13 55  1  0
 14 56  1  0
 17 57  1  1
 18 58  1  0
 18 59  1  0
 19 60  1  6
 20 61  1  0
 21 62  1  0
 21 63  1  0
 25 64  1  0
 25 65  1  0
 26 66  1  0
 30 67  1  0
 31 68  1  0
 33 69  1  0
 36 70  1  0
 37 71  1  0
M  END
>  <smiles>  (19) 
CC(C)C[C@H](Cc1ccc(F)cc1)NC(=O)[C@@H]1C[C@@H](O)CN1C(=O)CNC(=O)c1ccc2cc(F)ccc2n1

>  <score_type>  (19) 
oracle

>  <origin>  (19) 
autodockgpu

>  <m_score__min__energy>  (19) 
-9.6099999999999994

>  <m_primary>  (19) 
energy

>  <meeko>  (19) 
{"free_energy": -6.39, "intermolecular_energy": -9.67, "internal_energy": -5.28, "cluster_size": 2, "cluster_id": 10, "rank_in_cluster": 2}

>  <energy>  (19) 
-6.42

>  <cluster_rmsd>  (19) 
0.0

>  <rmsd>  (19) 
270.21

>  <cluster>  (19) 
10

$$$$

     RDKit          3D

 71 74  0  0  0  0  0  0  0  0999 V2000
  138.2520   74.5690  220.6550 C   0  0  0  0  0  0  0  0  0  0  0  0
  138.2670   76.0810  220.9300 C   0  0  0  0  0  0  0  0  0  0  0  0
  138.1730   76.1980  222.4360 C   0  0  0  0  0  0  0  0  0  0  0  0
  139.5430   76.5880  220.3710 C   0  0  0  0  0  0  0  0  0  0  0  0
  140.6820   76.7410  221.3310 C   0  0  2  0  0  0  0  0  0  0  0  0
  141.6740   77.7780  220.9680 C   0  0  0  0  0  0  0  0  0  0  0  0
  141.8360   78.8420  221.9840 C   0  0  0  0  0  0  0  0  0  0  0  0
  142.0360   80.1430  221.5490 C   0  0  0  0  0  0  0  0  0  0  0  0
  142.2080   81.2020  222.4080 C   0  0  0  0  0  0  0  0  0  0  0  0
  142.1820   80.9740  223.7650 C   0  0  0  0  0  0  0  0  0  0  0  0
  142.3500   82.0150  224.6110 F   0  0  0  0  0  0  0  0  0  0  0  0
  141.9860   79.6990  224.2100 C   0  0  0  0  0  0  0  0  0  0  0  0
  141.8140   78.6410  223.3410 C   0  0  0  0  0  0  0  0  0  0  0  0
  141.3050   75.4450  221.4530 N   0  0  0  0  0  0  0  0  0  0  0  0
  142.2570   74.9240  220.5360 C   0  0  0  0  0  0  0  0  0  0  0  0
  142.6290   75.5900  219.5260 O   0  0  0  0  0  0  0  0  0  0  0  0
  142.8820   73.5800  220.6910 C   0  0  2  0  0  0  0  0  0  0  0  0
  144.3870   73.7500  220.6720 C   0  0  0  0  0  0  0  0  0  0  0  0
  144.7030   73.8650  219.1990 C   0  0  1  0  0  0  0  0  0  0  0  0
  146.0110   73.3840  218.9710 O   0  0  0  0  0  0  0  0  0  0  0  0
  143.6770   73.0030  218.5410 C   0  0  0  0  0  0  0  0  0  0  0  0
  142.6540   72.7130  219.5550 N   0  0  0  0  0  0  0  0  0  0  0  0
  141.6600   71.7240  219.3390 C   0  0  0  0  0  0  0  0  0  0  0  0
  141.9920   70.7580  218.5750 O   0  0  0  0  0  0  0  0  0  0  0  0
  140.3290   71.8240  219.9700 C   0  0  0  0  0  0  0  0  0  0  0  0
  140.2150   71.0480  221.1670 N   0  0  0  0  0  0  0  0  0  0  0  0
  140.2170   71.7420  222.4130 C   0  0  0  0  0  0  0  0  0  0  0  0
  140.3200   73.0030  222.3380 O   0  0  0  0  0  0  0  0  0  0  0  0
  140.1050   71.0350  223.6850 C   0  0  0  0  0  0  0  0  0  0  0  0
  139.4190   69.8390  223.6850 C   0  0  0  0  0  0  0  0  0  0  0  0
  139.2430   69.0740  224.8240 C   0  0  0  0  0  0  0  0  0  0  0  0
  139.7980   69.5710  225.9880 C   0  0  0  0  0  0  0  0  0  0  0  0
  139.6370   68.8320  227.1260 C   0  0  0  0  0  0  0  0  0  0  0  0
  140.1840   69.3110  228.3070 C   0  0  0  0  0  0  0  0  0  0  0  0
  140.0270   68.5800  229.4440 F   0  0  0  0  0  0  0  0  0  0  0  0
  140.8780   70.5210  228.3050 C   0  0  0  0  0  0  0  0  0  0  0  0
  141.0240   71.2490  227.1290 C   0  0  0  0  0  0  0  0  0  0  0  0
  140.4750   70.7710  225.9420 C   0  0  0  0  0  0  0  0  0  0  0  0
  140.6280   71.4900  224.8140 N   0  0  0  0  0  0  0  0  0  0  0  0
  138.2466   74.0227  221.6097 H   0  0  0  0  0  0  0  0  0  0  0  0
  137.3512   74.3100  220.0792 H   0  0  0  0  0  0  0  0  0  0  0  0
  139.1474   74.2921  220.0792 H   0  0  0  0  0  0  0  0  0  0  0  0
  137.4520   76.6642  220.4764 H   0  0  0  0  0  0  0  0  0  0  0  0
  138.7966   75.4218  222.9037 H   0  0  0  0  0  0  0  0  0  0  0  0
  138.5272   77.1911  222.7494 H   0  0  0  0  0  0  0  0  0  0  0  0
  137.1269   76.0661  222.7494 H   0  0  0  0  0  0  0  0  0  0  0  0
  139.8624   75.8905  219.5827 H   0  0  0  0  0  0  0  0  0  0  0  0
  139.3212   77.6065  220.0196 H   0  0  0  0  0  0  0  0  0  0  0  0
  140.2747   77.0987  222.2881 H   0  0  0  0  0  0  0  0  0  0  0  0
  142.6481   77.2882  220.8226 H   0  0  0  0  0  0  0  0  0  0  0  0
  141.3028   78.2658  220.0546 H   0  0  0  0  0  0  0  0  0  0  0  0
  142.0580   80.3367  220.4664 H   0  0  0  0  0  0  0  0  0  0  0  0
  142.3643   82.2179  222.0163 H   0  0  0  0  0  0  0  0  0  0  0  0
  141.9645   79.5090  225.2933 H   0  0  0  0  0  0  0  0  0  0  0  0
  141.6579   77.6277  223.7397 H   0  0  0  0  0  0  0  0  0  0  0  0
  141.0710   74.7960  222.2650 H   0  0  0  0  0  0  0  0  0  0  0  0
  142.4562   73.1559  221.6123 H   0  0  0  0  0  0  0  0  0  0  0  0
  144.6880   74.6597  221.2122 H   0  0  0  0  0  0  0  0  0  0  0  0
  144.9206   72.9237  221.1644 H   0  0  0  0  0  0  0  0  0  0  0  0
  144.6721   74.8946  218.8130 H   0  0  0  0  0  0  0  0  0  0  0  0
  146.6640   74.1030  218.8520 H   0  0  0  0  0  0  0  0  0  0  0  0
  143.2264   73.5334  217.6892 H   0  0  0  0  0  0  0  0  0  0  0  0
  144.1273   72.0755  218.1575 H   0  0  0  0  0  0  0  0  0  0  0  0
  140.1371   72.8786  220.2170 H   0  0  0  0  0  0  0  0  0  0  0  0
  139.5953   71.4288  219.2520 H   0  0  0  0  0  0  0  0  0  0  0  0
  140.1290   70.0070  221.2120 H   0  0  0  0  0  0  0  0  0  0  0  0
  138.9929   69.4772  222.7376 H   0  0  0  0  0  0  0  0  0  0  0  0
  138.6916   68.1224  224.8043 H   0  0  0  0  0  0  0  0  0  0  0  0
  139.0866   67.8798  227.1059 H   0  0  0  0  0  0  0  0  0  0  0  0
  141.3131   70.9023  229.2406 H   0  0  0  0  0  0  0  0  0  0  0  0
  141.5730   72.2022  227.1366 H   0  0  0  0  0  0  0  0  0  0  0  0
  1  2  1  0
  2  3  1  0
  2  4  1  0
  4  5  1  0
  5  6  1  0
  6  7  1  0
  7  8  2  0
  8  9  1  0
  9 10  2  0
 10 11  1  0
 10 12  1  0
 12 13  2  0
  5 14  1  0
 14 15  1  0
 15 16  2  0
 15 17  1  0
 17 18  1  0
 18 19  1  0
 19 20  1  0
 19 21  1  0
 21 22  1  0
 22 23  1  0
 23 24  2  0
 23 25  1  0
 25 26  1  0
 26 27  1  0
 27 28  2  0
 27 29  1  0
 29 30  2  0
 30 31  1  0
 31 32  2  0
 32 33  1  0
 33 34  2  0
 34 35  1  0
 34 36  1  0
 36 37  2  0
 37 38  1  0
 38 39  2  0
 13  7  1  0
 22 17  1  0
 39 29  1  0
 38 32  1  0
  1 40  1  0
  1 41  1  0
  1 42  1  0
  2 43  1  0
  3 44  1  0
  3 45  1  0
  3 46  1  0
  4 47  1  0
  4 48  1  0
  5 49  1  1
  6 50  1  0
  6 51  1  0
  8 52  1  0
  9 53  1  0
 12 54  1  0
 13 55  1  0
 14 56  1  0
 17 57  1  1
 18 58  1  0
 18 59  1  0
 19 60  1  6
 20 61  1  0
 21 62  1  0
 21 63  1  0
 25 64  1  0
 25 65  1  0
 26 66  1  0
 30 67  1  0
 31 68  1  0
 33 69  1  0
 36 70  1  0
 37 71  1  0
M  END
>  <smiles>  (20) 
CC(C)C[C@H](Cc1ccc(F)cc1)NC(=O)[C@@H]1C[C@@H](O)CN1C(=O)CNC(=O)c1ccc2cc(F)ccc2n1

>  <score_type>  (20) 
oracle

>  <origin>  (20) 
autodockgpu

>  <m_score__min__energy>  (20) 
-9.6099999999999994

>  <m_primary>  (20) 
energy

>  <meeko>  (20) 
{"free_energy": -9.41, "intermolecular_energy": -12.69, "internal_energy": -3.18, "cluster_size": 2, "cluster_id": 1, "rank_in_cluster": 2}

>  <energy>  (20) 
-6.39

>  <cluster_rmsd>  (20) 
0.09

>  <rmsd>  (20) 
270.2

>  <cluster>  (20) 
10

$$$$
