
     RDKit          3D

 79 82  0  0  0  0  0  0  0  0999 V2000
  141.3850   75.8910  222.1870 O   0  0  0  0  0  0  0  0  0  0  0  0
  140.8880   75.2040  221.2590 C   0  0  0  0  0  0  0  0  0  0  0  0
  140.7700   75.7550  219.9330 N   0  0  0  0  0  0  0  0  0  0  0  0
  141.1830   77.0710  219.5770 C   0  0  0  0  0  0  0  0  0  0  0  0
  140.7550   78.2160  220.3720 C   0  0  0  0  0  0  0  0  0  0  0  0
  139.4630   78.4430  220.2680 O   0  0  0  0  0  0  0  0  0  0  0  0
  141.4340   79.0920  221.2060 N   0  0  0  0  0  0  0  0  0  0  0  0
  142.1960   80.2700  220.8790 C   0  0  0  0  0  0  0  0  0  0  0  0
  141.5860   81.4250  221.6450 C   0  0  0  0  0  0  0  0  0  0  0  0
  141.8290   81.2380  223.1370 C   0  0  0  0  0  0  0  0  0  0  0  0
  142.1830   79.7960  223.4380 C   0  0  0  0  0  0  0  0  0  0  0  0
  141.3760   78.8050  222.6640 C   0  0  1  0  0  0  0  0  0  0  0  0
  139.9800   78.7070  223.1380 C   0  0  0  0  0  0  0  0  0  0  0  0
  139.4460   79.4950  223.9550 O   0  0  0  0  0  0  0  0  0  0  0  0
  139.1890   77.6450  222.6290 N   0  0  0  0  0  0  0  0  0  0  0  0
  137.8080   77.4190  222.9950 C   0  0  0  0  0  0  0  0  0  0  0  0
  136.9900   76.9740  221.7910 C   0  0  0  0  0  0  0  0  0  0  0  0
  137.3160   75.5470  221.4880 C   0  0  0  0  0  0  0  0  0  0  0  0
  136.7000   74.5710  222.4200 C   0  0  0  0  0  0  0  0  0  0  0  0
  136.8580   73.2210  222.2170 C   0  0  0  0  0  0  0  0  0  0  0  0
  136.2560   72.3730  223.1110 C   0  0  0  0  0  0  0  0  0  0  0  0
  135.5010   72.8380  224.1990 C   0  0  0  0  0  0  0  0  0  0  0  0
  134.9420   72.0270  225.0260 O   0  0  0  0  0  0  0  0  0  0  0  0
  134.3130   71.2570  225.8630 C   0  0  0  0  0  0  0  0  0  0  0  0
  133.5770   72.0730  226.9290 C   0  0  0  0  0  0  0  0  0  0  0  0
  133.7060   73.4220  226.7700 O   0  0  0  0  0  0  0  0  0  0  0  0
  132.6960   74.0900  226.1480 C   0  0  0  0  0  0  0  0  0  0  0  0
  131.8150   74.9080  227.0370 C   0  0  0  0  0  0  0  0  0  0  0  0
  131.8990   74.5790  228.3690 O   0  0  0  0  0  0  0  0  0  0  0  0
  135.3920   74.2220  224.3310 C   0  0  0  0  0  0  0  0  0  0  0  0
  135.9700   75.1050  223.4730 C   0  0  0  0  0  0  0  0  0  0  0  0
  140.4060   73.8300  221.4570 C   0  0  0  0  0  0  0  0  0  0  0  0
  140.0260   73.0530  220.3770 C   0  0  0  0  0  0  0  0  0  0  0  0
  139.5800   71.7800  220.5550 C   0  0  0  0  0  0  0  0  0  0  0  0
  139.4920   71.2270  221.8070 C   0  0  0  0  0  0  0  0  0  0  0  0
  139.0450   69.9300  222.0290 C   0  0  0  0  0  0  0  0  0  0  0  0
  138.9880   69.4480  223.3270 C   0  0  0  0  0  0  0  0  0  0  0  0
  138.5500   68.1690  223.5610 F   0  0  0  0  0  0  0  0  0  0  0  0
  139.3630   70.2100  224.4150 C   0  0  0  0  0  0  0  0  0  0  0  0
  139.8060   71.5020  224.1520 C   0  0  0  0  0  0  0  0  0  0  0  0
  139.8730   72.0100  222.8740 C   0  0  0  0  0  0  0  0  0  0  0  0
  140.3210   73.2860  222.7070 N   0  0  0  0  0  0  0  0  0  0  0  0
  140.3540   75.1490  219.1800 H   0  0  0  0  0  0  0  0  0  0  0  0
  142.2829   77.0713  219.5887 H   0  0  0  0  0  0  0  0  0  0  0  0
  140.6837   77.2369  218.6110 H   0  0  0  0  0  0  0  0  0  0  0  0
  143.2464   80.1338  221.1759 H   0  0  0  0  0  0  0  0  0  0  0  0
  142.1711   80.4630  219.7964 H   0  0  0  0  0  0  0  0  0  0  0  0
  142.0479   82.3671  221.3147 H   0  0  0  0  0  0  0  0  0  0  0  0
  140.5032   81.4570  221.4538 H   0  0  0  0  0  0  0  0  0  0  0  0
  142.6578   81.8883  223.4535 H   0  0  0  0  0  0  0  0  0  0  0  0
  140.9116   81.5017  223.6836 H   0  0  0  0  0  0  0  0  0  0  0  0
  143.2454   79.6419  223.1979 H   0  0  0  0  0  0  0  0  0  0  0  0
  141.9643   79.6270  224.5027 H   0  0  0  0  0  0  0  0  0  0  0  0
  141.8321   77.8197  222.8406 H   0  0  0  0  0  0  0  0  0  0  0  0
  139.6260   76.9930  221.9440 H   0  0  0  0  0  0  0  0  0  0  0  0
  137.7641   76.6378  223.7682 H   0  0  0  0  0  0  0  0  0  0  0  0
  137.3876   78.3618  223.3750 H   0  0  0  0  0  0  0  0  0  0  0  0
  135.9177   77.0682  222.0173 H   0  0  0  0  0  0  0  0  0  0  0  0
  137.2300   77.6048  220.9223 H   0  0  0  0  0  0  0  0  0  0  0  0
  136.9643   75.3215  220.4704 H   0  0  0  0  0  0  0  0  0  0  0  0
  138.4057   75.4422  221.5956 H   0  0  0  0  0  0  0  0  0  0  0  0
  137.4447   72.8355  221.3701 H   0  0  0  0  0  0  0  0  0  0  0  0
  136.3690   71.2879  222.9701 H   0  0  0  0  0  0  0  0  0  0  0  0
  133.5820   70.6490  225.3099 H   0  0  0  0  0  0  0  0  0  0  0  0
  135.0522   70.6168  226.3667 H   0  0  0  0  0  0  0  0  0  0  0  0
  132.5078   71.8183  226.8851 H   0  0  0  0  0  0  0  0  0  0  0  0
  134.0284   71.8179  227.8992 H   0  0  0  0  0  0  0  0  0  0  0  0
  133.1449   74.7645  225.4040 H   0  0  0  0  0  0  0  0  0  0  0  0
  132.0470   73.3152  225.7139 H   0  0  0  0  0  0  0  0  0  0  0  0
  132.0969   75.9652  226.9241 H   0  0  0  0  0  0  0  0  0  0  0  0
  130.7788   74.7083  226.7263 H   0  0  0  0  0  0  0  0  0  0  0  0
  132.4490   73.7660  228.4820 H   0  0  0  0  0  0  0  0  0  0  0  0
  134.8077   74.6206  225.1735 H   0  0  0  0  0  0  0  0  0  0  0  0
  135.8639   76.1916  223.6073 H   0  0  0  0  0  0  0  0  0  0  0  0
  140.0853   73.4701  219.3609 H   0  0  0  0  0  0  0  0  0  0  0  0
  139.2847   71.1837  219.6791 H   0  0  0  0  0  0  0  0  0  0  0  0
  138.7402   69.2939  221.1849 H   0  0  0  0  0  0  0  0  0  0  0  0
  139.3139   69.8147  225.4403 H   0  0  0  0  0  0  0  0  0  0  0  0
  140.1134   72.1398  224.9939 H   0  0  0  0  0  0  0  0  0  0  0  0
  1  2  2  0
  2  3  1  0
  3  4  1  0
  4  5  1  0
  5  6  2  0
  5  7  1  0
  7  8  1  0
  8  9  1  0
  9 10  1  0
 10 11  1  0
 11 12  1  0
 12 13  1  0
 13 14  2  0
 13 15  1  0
 15 16  1  0
 16 17  1  0
 17 18  1  0
 18 19  1  0
 19 20  2  0
 20 21  1  0
 21 22  2  0
 22 23  1  0
 23 24  1  0
 24 25  1  0
 25 26  1  0
 26 27  1  0
 27 28  1  0
 28 29  1  0
 22 30  1  0
 30 31  2  0
  2 32  1  0
 32 33  2  0
 33 34  1  0
 34 35  2  0
 35 36  1  0
 36 37  2  0
 37 38  1  0
 37 39  1  0
 39 40  2  0
 40 41  1  0
 41 42  2  0
 12  7  1  0
 31 19  1  0
 42 32  1  0
 41 35  1  0
  3 43  1  0
  4 44  1  0
  4 45  1  0
  8 46  1  0
  8 47  1  0
  9 48  1  0
  9 49  1  0
 10 50  1  0
 10 51  1  0
 11 52  1  0
 11 53  1  0
 12 54  1  6
 15 55  1  0
 16 56  1  0
 16 57  1  0
 17 58  1  0
 17 59  1  0
 18 60  1  0
 18 61  1  0
 20 62  1  0
 21 63  1  0
 24 64  1  0
 24 65  1  0
 25 66  1  0
 25 67  1  0
 27 68  1  0
 27 69  1  0
 28 70  1  0
 28 71  1  0
 29 72  1  0
 30 73  1  0
 31 74  1  0
 33 75  1  0
 34 76  1  0
 36 77  1  0
 39 78  1  0
 40 79  1  0
M  END
>  <smiles>  (1) 
O=C(NCC(=O)N1CCCC[C@H]1C(=O)NCCCc1ccc(OCCOCCO)cc1)c1ccc2cc(F)ccc2n1

>  <score_type>  (1) 
oracle

>  <origin>  (1) 
autodockgpu

>  <m_score__min__energy>  (1) 
-7.8899999999999997

>  <m_primary>  (1) 
energy

>  <meeko>  (1) 
{"free_energy": -6.04, "intermolecular_energy": -10.81, "internal_energy": -5.52, "cluster_size": 1, "cluster_id": 7, "rank_in_cluster": 1}

>  <energy>  (1) 
-7.89

>  <cluster_rmsd>  (1) 
0.0

>  <rmsd>  (1) 
269.68

>  <cluster>  (1) 
1

$$$$

     RDKit          3D

 79 82  0  0  0  0  0  0  0  0999 V2000
  136.1500   76.7530  222.0350 O   0  0  0  0  0  0  0  0  0  0  0  0
  136.8000   75.8900  222.6770 C   0  0  0  0  0  0  0  0  0  0  0  0
  138.2250   76.0290  222.8410 N   0  0  0  0  0  0  0  0  0  0  0  0
  138.9870   77.1080  222.3050 C   0  0  0  0  0  0  0  0  0  0  0  0
  140.3790   76.9060  221.9220 C   0  0  0  0  0  0  0  0  0  0  0  0
  141.2060   77.0770  222.9320 O   0  0  0  0  0  0  0  0  0  0  0  0
  140.9880   76.5690  220.7220 N   0  0  0  0  0  0  0  0  0  0  0  0
  142.1510   77.1360  220.0890 C   0  0  0  0  0  0  0  0  0  0  0  0
  143.1390   76.0090  219.8770 C   0  0  0  0  0  0  0  0  0  0  0  0
  142.5960   75.0390  218.8360 C   0  0  0  0  0  0  0  0  0  0  0  0
  141.1030   75.2240  218.6690 C   0  0  0  0  0  0  0  0  0  0  0  0
  140.3770   75.4510  219.9560 C   0  0  1  0  0  0  0  0  0  0  0  0
  140.2740   74.2270  220.7790 C   0  0  0  0  0  0  0  0  0  0  0  0
  139.9680   74.2070  221.9950 O   0  0  0  0  0  0  0  0  0  0  0  0
  140.5400   72.9880  220.1420 N   0  0  0  0  0  0  0  0  0  0  0  0
  140.4780   71.7060  220.8110 C   0  0  0  0  0  0  0  0  0  0  0  0
  139.3310   70.8640  220.2710 C   0  0  0  0  0  0  0  0  0  0  0  0
  138.2220   70.8600  221.2730 C   0  0  0  0  0  0  0  0  0  0  0  0
  138.6010   70.3110  222.5980 C   0  0  0  0  0  0  0  0  0  0  0  0
  138.8280   71.1520  223.6610 C   0  0  0  0  0  0  0  0  0  0  0  0
  139.1830   70.5790  224.8550 C   0  0  0  0  0  0  0  0  0  0  0  0
  139.3180   69.1920  225.0150 C   0  0  0  0  0  0  0  0  0  0  0  0
  139.6530   68.6740  226.1430 O   0  0  0  0  0  0  0  0  0  0  0  0
  139.9220   68.1790  227.3150 C   0  0  0  0  0  0  0  0  0  0  0  0
  139.9240   69.2660  228.3940 C   0  0  0  0  0  0  0  0  0  0  0  0
  141.0110   70.0880  228.3390 O   0  0  0  0  0  0  0  0  0  0  0  0
  140.8050   71.3990  228.0350 C   0  0  0  0  0  0  0  0  0  0  0  0
  141.4090   71.8700  226.7520 C   0  0  0  0  0  0  0  0  0  0  0  0
  141.8020   70.8580  225.9090 O   0  0  0  0  0  0  0  0  0  0  0  0
  139.0690   68.4120  223.8870 C   0  0  0  0  0  0  0  0  0  0  0  0
  138.7130   68.9290  222.6810 C   0  0  0  0  0  0  0  0  0  0  0  0
  136.1700   74.7110  223.2880 C   0  0  0  0  0  0  0  0  0  0  0  0
  136.3540   73.4520  222.7450 C   0  0  0  0  0  0  0  0  0  0  0  0
  135.7730   72.3570  223.3070 C   0  0  0  0  0  0  0  0  0  0  0  0
  134.9900   72.4660  224.4280 C   0  0  0  0  0  0  0  0  0  0  0  0
  134.3830   71.3720  225.0330 C   0  0  0  0  0  0  0  0  0  0  0  0
  133.6080   71.5700  226.1640 C   0  0  0  0  0  0  0  0  0  0  0  0
  133.0040   70.4980  226.7730 F   0  0  0  0  0  0  0  0  0  0  0  0
  133.4140   72.8190  226.7180 C   0  0  0  0  0  0  0  0  0  0  0  0
  134.0390   73.8880  226.0850 C   0  0  0  0  0  0  0  0  0  0  0  0
  134.8150   73.7250  224.9590 C   0  0  0  0  0  0  0  0  0  0  0  0
  135.3910   74.8270  224.4030 N   0  0  0  0  0  0  0  0  0  0  0  0
  138.7360   75.2900  223.3880 H   0  0  0  0  0  0  0  0  0  0  0  0
  138.4579   77.4518  221.4040 H   0  0  0  0  0  0  0  0  0  0  0  0
  139.0598   77.8069  223.1513 H   0  0  0  0  0  0  0  0  0  0  0  0
  141.8743   77.5816  219.1221 H   0  0  0  0  0  0  0  0  0  0  0  0
  142.5895   77.9274  220.7147 H   0  0  0  0  0  0  0  0  0  0  0  0
  144.0961   76.4229  219.5269 H   0  0  0  0  0  0  0  0  0  0  0  0
  143.2924   75.4757  220.8268 H   0  0  0  0  0  0  0  0  0  0  0  0
  143.0940   75.2249  217.8730 H   0  0  0  0  0  0  0  0  0  0  0  0
  142.7923   74.0099  219.1711 H   0  0  0  0  0  0  0  0  0  0  0  0
  140.9317   76.0925  218.0160 H   0  0  0  0  0  0  0  0  0  0  0  0
  140.7100   74.2910  218.2389 H   0  0  0  0  0  0  0  0  0  0  0  0
  139.3472   75.7345  219.6932 H   0  0  0  0  0  0  0  0  0  0  0  0
  140.7860   72.9990  219.1300 H   0  0  0  0  0  0  0  0  0  0  0  0
  141.4248   71.1699  220.6496 H   0  0  0  0  0  0  0  0  0  0  0  0
  140.3110   71.8786  221.8845 H   0  0  0  0  0  0  0  0  0  0  0  0
  138.9718   71.2928  219.3239 H   0  0  0  0  0  0  0  0  0  0  0  0
  139.6756   69.8349  220.0913 H   0  0  0  0  0  0  0  0  0  0  0  0
  137.8807   71.8962  221.4138 H   0  0  0  0  0  0  0  0  0  0  0  0
  137.4362   70.2030  220.8719 H   0  0  0  0  0  0  0  0  0  0  0  0
  138.7287   72.2426  223.5579 H   0  0  0  0  0  0  0  0  0  0  0  0
  139.3690   71.2319  225.7205 H   0  0  0  0  0  0  0  0  0  0  0  0
  139.1620   67.4250  227.5680 H   0  0  0  0  0  0  0  0  0  0  0  0
  140.9239   67.7264  227.2779 H   0  0  0  0  0  0  0  0  0  0  0  0
  139.0184   69.8784  228.2723 H   0  0  0  0  0  0  0  0  0  0  0  0
  139.9554   68.7543  229.3673 H   0  0  0  0  0  0  0  0  0  0  0  0
  139.7192   71.5662  227.9787 H   0  0  0  0  0  0  0  0  0  0  0  0
  141.3044   71.9728  228.8296 H   0  0  0  0  0  0  0  0  0  0  0  0
  140.6652   72.4872  226.2267 H   0  0  0  0  0  0  0  0  0  0  0  0
  142.3173   72.4307  227.0175 H   0  0  0  0  0  0  0  0  0  0  0  0
  141.3920   70.0050  226.1940 H   0  0  0  0  0  0  0  0  0  0  0  0
  139.1657   67.3200  223.9773 H   0  0  0  0  0  0  0  0  0  0  0  0
  138.5225   68.2829  221.8114 H   0  0  0  0  0  0  0  0  0  0  0  0
  136.9783   73.3343  221.8470 H   0  0  0  0  0  0  0  0  0  0  0  0
  135.9341   71.3674  222.8544 H   0  0  0  0  0  0  0  0  0  0  0  0
  134.5162   70.3616  224.6190 H   0  0  0  0  0  0  0  0  0  0  0  0
  132.7953   72.9620  227.6162 H   0  0  0  0  0  0  0  0  0  0  0  0
  133.9090   74.8991  226.4982 H   0  0  0  0  0  0  0  0  0  0  0  0
  1  2  2  0
  2  3  1  0
  3  4  1  0
  4  5  1  0
  5  6  2  0
  5  7  1  0
  7  8  1  0
  8  9  1  0
  9 10  1  0
 10 11  1  0
 11 12  1  0
 12 13  1  0
 13 14  2  0
 13 15  1  0
 15 16  1  0
 16 17  1  0
 17 18  1  0
 18 19  1  0
 19 20  2  0
 20 21  1  0
 21 22  2  0
 22 23  1  0
 23 24  1  0
 24 25  1  0
 25 26  1  0
 26 27  1  0
 27 28  1  0
 28 29  1  0
 22 30  1  0
 30 31  2  0
  2 32  1  0
 32 33  2  0
 33 34  1  0
 34 35  2  0
 35 36  1  0
 36 37  2  0
 37 38  1  0
 37 39  1  0
 39 40  2  0
 40 41  1  0
 41 42  2  0
 12  7  1  0
 31 19  1  0
 42 32  1  0
 41 35  1  0
  3 43  1  0
  4 44  1  0
  4 45  1  0
  8 46  1  0
  8 47  1  0
  9 48  1  0
  9 49  1  0
 10 50  1  0
 10 51  1  0
 11 52  1  0
 11 53  1  0
 12 54  1  6
 15 55  1  0
 16 56  1  0
 16 57  1  0
 17 58  1  0
 17 59  1  0
 18 60  1  0
 18 61  1  0
 20 62  1  0
 21 63  1  0
 24 64  1  0
 24 65  1  0
 25 66  1  0
 25 67  1  0
 27 68  1  0
 27 69  1  0
 28 70  1  0
 28 71  1  0
 29 72  1  0
 30 73  1  0
 31 74  1  0
 33 75  1  0
 34 76  1  0
 36 77  1  0
 39 78  1  0
 40 79  1  0
M  END
>  <smiles>  (2) 
O=C(NCC(=O)N1CCCC[C@H]1C(=O)NCCCc1ccc(OCCOCCO)cc1)c1ccc2cc(F)ccc2n1

>  <score_type>  (2) 
oracle

>  <origin>  (2) 
autodockgpu

>  <m_score__min__energy>  (2) 
-7.8899999999999997

>  <m_primary>  (2) 
energy

>  <meeko>  (2) 
{"free_energy": -5.85, "intermolecular_energy": -10.62, "internal_energy": -5.2, "cluster_size": 2, "cluster_id": 10, "rank_in_cluster": 1}

>  <energy>  (2) 
-6.95

>  <cluster_rmsd>  (2) 
1.29

>  <rmsd>  (2) 
269.73

>  <cluster>  (2) 
1

$$$$

     RDKit          3D

 79 82  0  0  0  0  0  0  0  0999 V2000
  139.3880   70.9110  220.6850 O   0  0  0  0  0  0  0  0  0  0  0  0
  139.5270   71.5590  221.7520 C   0  0  0  0  0  0  0  0  0  0  0  0
  139.6150   72.9970  221.7200 N   0  0  0  0  0  0  0  0  0  0  0  0
  139.5590   73.7720  220.5260 C   0  0  0  0  0  0  0  0  0  0  0  0
  138.4030   74.6170  220.2500 C   0  0  0  0  0  0  0  0  0  0  0  0
  138.2870   74.9050  218.9720 O   0  0  0  0  0  0  0  0  0  0  0  0
  137.4170   75.1590  221.0610 N   0  0  0  0  0  0  0  0  0  0  0  0
  136.1770   74.5820  221.5140 C   0  0  0  0  0  0  0  0  0  0  0  0
  136.1900   74.6250  223.0270 C   0  0  0  0  0  0  0  0  0  0  0  0
  136.1120   76.0710  223.5010 C   0  0  0  0  0  0  0  0  0  0  0  0
  136.4940   77.0160  222.3810 C   0  0  0  0  0  0  0  0  0  0  0  0
  137.6500   76.5400  221.5610 C   0  0  1  0  0  0  0  0  0  0  0  0
  138.9390   76.6430  222.2750 C   0  0  0  0  0  0  0  0  0  0  0  0
  139.5630   75.6730  222.7680 O   0  0  0  0  0  0  0  0  0  0  0  0
  139.5110   77.9350  222.4090 N   0  0  0  0  0  0  0  0  0  0  0  0
  140.7670   78.1970  223.0780 C   0  0  0  0  0  0  0  0  0  0  0  0
  141.7320   78.9310  222.1590 C   0  0  0  0  0  0  0  0  0  0  0  0
  141.2950   78.7300  220.7430 C   0  0  0  0  0  0  0  0  0  0  0  0
  141.9280   77.5690  220.0700 C   0  0  0  0  0  0  0  0  0  0  0  0
  142.5660   77.7270  218.8630 C   0  0  0  0  0  0  0  0  0  0  0  0
  143.1220   76.6120  218.2920 C   0  0  0  0  0  0  0  0  0  0  0  0
  143.0570   75.3460  218.8930 C   0  0  0  0  0  0  0  0  0  0  0  0
  143.5840   74.3110  218.3400 O   0  0  0  0  0  0  0  0  0  0  0  0
  144.0440   73.2280  217.7850 C   0  0  0  0  0  0  0  0  0  0  0  0
  145.5590   73.3090  217.5750 C   0  0  0  0  0  0  0  0  0  0  0  0
  146.2820   73.0280  218.6970 O   0  0  0  0  0  0  0  0  0  0  0  0
  145.6430   72.4150  219.7310 C   0  0  0  0  0  0  0  0  0  0  0  0
  145.3050   73.2880  220.8950 C   0  0  0  0  0  0  0  0  0  0  0  0
  145.2970   74.6330  220.6060 O   0  0  0  0  0  0  0  0  0  0  0  0
  142.3920   75.2730  220.1160 C   0  0  0  0  0  0  0  0  0  0  0  0
  141.8240   76.3490  220.7250 C   0  0  0  0  0  0  0  0  0  0  0  0
  139.6100   70.9140  223.0700 C   0  0  0  0  0  0  0  0  0  0  0  0
  139.1230   69.6330  223.2610 C   0  0  0  0  0  0  0  0  0  0  0  0
  139.1980   69.0310  224.4790 C   0  0  0  0  0  0  0  0  0  0  0  0
  139.7580   69.6730  225.5540 C   0  0  0  0  0  0  0  0  0  0  0  0
  139.8550   69.0910  226.8120 C   0  0  0  0  0  0  0  0  0  0  0  0
  140.4370   69.8100  227.8450 C   0  0  0  0  0  0  0  0  0  0  0  0
  140.5420   69.2460  229.0920 F   0  0  0  0  0  0  0  0  0  0  0  0
  140.9280   71.0880  227.6710 C   0  0  0  0  0  0  0  0  0  0  0  0
  140.8130   71.6350  226.3980 C   0  0  0  0  0  0  0  0  0  0  0  0
  140.2390   70.9480  225.3510 C   0  0  0  0  0  0  0  0  0  0  0  0
  140.1690   71.5590  224.1360 N   0  0  0  0  0  0  0  0  0  0  0  0
  139.7260   73.5080  222.6330 H   0  0  0  0  0  0  0  0  0  0  0  0
  140.4382   74.4330  220.5369 H   0  0  0  0  0  0  0  0  0  0  0  0
  139.5041   73.0087  219.7358 H   0  0  0  0  0  0  0  0  0  0  0  0
  135.3272   75.1639  221.1277 H   0  0  0  0  0  0  0  0  0  0  0  0
  136.0726   73.5480  221.1535 H   0  0  0  0  0  0  0  0  0  0  0  0
  135.3264   74.0657  223.4160 H   0  0  0  0  0  0  0  0  0  0  0  0
  137.1213   74.1707  223.3961 H   0  0  0  0  0  0  0  0  0  0  0  0
  135.0843   76.2908  223.8258 H   0  0  0  0  0  0  0  0  0  0  0  0
  136.8115   76.2097  224.3386 H   0  0  0  0  0  0  0  0  0  0  0  0
  135.6248   77.1381  221.7180 H   0  0  0  0  0  0  0  0  0  0  0  0
  136.8006   77.9627  222.8497 H   0  0  0  0  0  0  0  0  0  0  0  0
  137.7213   77.2136  220.6943 H   0  0  0  0  0  0  0  0  0  0  0  0
  139.0010   78.7430  221.9940 H   0  0  0  0  0  0  0  0  0  0  0  0
  140.5782   78.8147  223.9684 H   0  0  0  0  0  0  0  0  0  0  0  0
  141.2186   77.2357  223.3642 H   0  0  0  0  0  0  0  0  0  0  0  0
  141.7269   80.0045  222.3988 H   0  0  0  0  0  0  0  0  0  0  0  0
  142.7504   78.5383  222.2955 H   0  0  0  0  0  0  0  0  0  0  0  0
  140.2052   78.5806  220.7362 H   0  0  0  0  0  0  0  0  0  0  0  0
  141.6058   79.6262  220.1861 H   0  0  0  0  0  0  0  0  0  0  0  0
  142.6280   78.7104  218.3741 H   0  0  0  0  0  0  0  0  0  0  0  0
  143.6386   76.7136  217.3262 H   0  0  0  0  0  0  0  0  0  0  0  0
  143.8179   72.3692  218.4341 H   0  0  0  0  0  0  0  0  0  0  0  0
  143.5636   73.1111  216.8024 H   0  0  0  0  0  0  0  0  0  0  0  0
  145.8403   72.5904  216.7911 H   0  0  0  0  0  0  0  0  0  0  0  0
  145.7905   74.3470  217.2939 H   0  0  0  0  0  0  0  0  0  0  0  0
  144.7050   71.9902  219.3440 H   0  0  0  0  0  0  0  0  0  0  0  0
  146.3488   71.6640  220.1156 H   0  0  0  0  0  0  0  0  0  0  0  0
  144.3055   73.0071  221.2585 H   0  0  0  0  0  0  0  0  0  0  0  0
  146.0913   73.1305  221.6479 H   0  0  0  0  0  0  0  0  0  0  0  0
  145.3040   74.7670  219.6270 H   0  0  0  0  0  0  0  0  0  0  0  0
  142.3229   74.2949  220.6145 H   0  0  0  0  0  0  0  0  0  0  0  0
  141.3065   76.2568  221.6913 H   0  0  0  0  0  0  0  0  0  0  0  0
  138.6689   69.0938  222.4165 H   0  0  0  0  0  0  0  0  0  0  0  0
  138.8028   68.0121  224.6037 H   0  0  0  0  0  0  0  0  0  0  0  0
  139.4752   68.0735  226.9861 H   0  0  0  0  0  0  0  0  0  0  0  0
  141.3880   71.6468  228.4994 H   0  0  0  0  0  0  0  0  0  0  0  0
  141.1936   72.6517  226.2207 H   0  0  0  0  0  0  0  0  0  0  0  0
  1  2  2  0
  2  3  1  0
  3  4  1  0
  4  5  1  0
  5  6  2  0
  5  7  1  0
  7  8  1  0
  8  9  1  0
  9 10  1  0
 10 11  1  0
 11 12  1  0
 12 13  1  0
 13 14  2  0
 13 15  1  0
 15 16  1  0
 16 17  1  0
 17 18  1  0
 18 19  1  0
 19 20  2  0
 20 21  1  0
 21 22  2  0
 22 23  1  0
 23 24  1  0
 24 25  1  0
 25 26  1  0
 26 27  1  0
 27 28  1  0
 28 29  1  0
 22 30  1  0
 30 31  2  0
  2 32  1  0
 32 33  2  0
 33 34  1  0
 34 35  2  0
 35 36  1  0
 36 37  2  0
 37 38  1  0
 37 39  1  0
 39 40  2  0
 40 41  1  0
 41 42  2  0
 12  7  1  0
 31 19  1  0
 42 32  1  0
 41 35  1  0
  3 43  1  0
  4 44  1  0
  4 45  1  0
  8 46  1  0
  8 47  1  0
  9 48  1  0
  9 49  1  0
 10 50  1  0
 10 51  1  0
 11 52  1  0
 11 53  1  0
 12 54  1  6
 15 55  1  0
 16 56  1  0
 16 57  1  0
 17 58  1  0
 17 59  1  0
 18 60  1  0
 18 61  1  0
 20 62  1  0
 21 63  1  0
 24 64  1  0
 24 65  1  0
 25 66  1  0
 25 67  1  0
 27 68  1  0
 27 69  1  0
 28 70  1  0
 28 71  1  0
 29 72  1  0
 30 73  1  0
 31 74  1  0
 33 75  1  0
 34 76  1  0
 36 77  1  0
 39 78  1  0
 40 79  1  0
M  END
>  <smiles>  (3) 
O=C(NCC(=O)N1CCCC[C@H]1C(=O)NCCCc1ccc(OCCOCCO)cc1)c1ccc2cc(F)ccc2n1

>  <score_type>  (3) 
oracle

>  <origin>  (3) 
autodockgpu

>  <m_score__min__energy>  (3) 
-7.8899999999999997

>  <m_primary>  (3) 
energy

>  <meeko>  (3) 
{"free_energy": -7.09, "intermolecular_energy": -11.86, "internal_energy": -5.34, "cluster_size": 1, "cluster_id": 2, "rank_in_cluster": 1}

>  <energy>  (3) 
-7.09

>  <cluster_rmsd>  (3) 
0.0

>  <rmsd>  (3) 
269.14

>  <cluster>  (3) 
2

$$$$

     RDKit          3D

 79 82  0  0  0  0  0  0  0  0999 V2000
  137.1690   71.8030  222.9530 O   0  0  0  0  0  0  0  0  0  0  0  0
  136.3910   71.5840  223.9150 C   0  0  0  0  0  0  0  0  0  0  0  0
  136.2700   70.2540  224.4600 N   0  0  0  0  0  0  0  0  0  0  0  0
  136.9860   69.1240  223.9700 C   0  0  0  0  0  0  0  0  0  0  0  0
  138.3590   68.8840  224.3950 C   0  0  0  0  0  0  0  0  0  0  0  0
  139.2000   68.8620  223.3830 O   0  0  0  0  0  0  0  0  0  0  0  0
  138.9410   68.6840  225.6390 N   0  0  0  0  0  0  0  0  0  0  0  0
  139.2280   67.4550  226.3340 C   0  0  0  0  0  0  0  0  0  0  0  0
  140.7120   67.4470  226.6320 C   0  0  0  0  0  0  0  0  0  0  0  0
  141.0370   68.5270  227.6560 C   0  0  0  0  0  0  0  0  0  0  0  0
  139.9190   69.5450  227.7220 C   0  0  0  0  0  0  0  0  0  0  0  0
  139.3500   69.9020  226.3870 C   0  0  1  0  0  0  0  0  0  0  0  0
  140.2590   70.7470  225.5850 C   0  0  0  0  0  0  0  0  0  0  0  0
  141.4200   71.0750  225.9290 O   0  0  0  0  0  0  0  0  0  0  0  0
  139.7820   71.2170  224.3340 N   0  0  0  0  0  0  0  0  0  0  0  0
  140.5530   72.0490  223.4360 C   0  0  0  0  0  0  0  0  0  0  0  0
  140.0110   71.9670  222.0160 C   0  0  0  0  0  0  0  0  0  0  0  0
  140.6690   73.0240  221.1880 C   0  0  0  0  0  0  0  0  0  0  0  0
  140.3040   74.4110  221.5700 C   0  0  0  0  0  0  0  0  0  0  0  0
  141.2460   75.4110  221.5400 C   0  0  0  0  0  0  0  0  0  0  0  0
  140.8450   76.6680  221.9140 C   0  0  0  0  0  0  0  0  0  0  0  0
  139.5310   76.9510  222.3150 C   0  0  0  0  0  0  0  0  0  0  0  0
  139.1740   78.1370  222.6620 O   0  0  0  0  0  0  0  0  0  0  0  0
  138.7360   79.3130  223.0010 C   0  0  0  0  0  0  0  0  0  0  0  0
  139.7650   80.0700  223.8460 C   0  0  0  0  0  0  0  0  0  0  0  0
  140.9410   79.3990  224.0070 O   0  0  0  0  0  0  0  0  0  0  0  0
  142.1000   80.0780  223.7850 C   0  0  0  0  0  0  0  0  0  0  0  0
  142.5490   80.1480  222.3620 C   0  0  0  0  0  0  0  0  0  0  0  0
  141.6500   79.6270  221.4610 O   0  0  0  0  0  0  0  0  0  0  0  0
  138.6390   75.8800  222.3150 C   0  0  0  0  0  0  0  0  0  0  0  0
  138.9850   74.6150  221.9530 C   0  0  0  0  0  0  0  0  0  0  0  0
  135.5740   72.6360  224.5340 C   0  0  0  0  0  0  0  0  0  0  0  0
  135.7510   73.9640  224.1870 C   0  0  0  0  0  0  0  0  0  0  0  0
  134.9960   74.9420  224.7560 C   0  0  0  0  0  0  0  0  0  0  0  0
  134.0360   74.6440  225.6890 C   0  0  0  0  0  0  0  0  0  0  0  0
  133.2420   75.6150  226.2900 C   0  0  0  0  0  0  0  0  0  0  0  0
  132.2940   75.2270  227.2230 C   0  0  0  0  0  0  0  0  0  0  0  0
  131.5020   76.1750  227.8230 F   0  0  0  0  0  0  0  0  0  0  0  0
  132.1040   73.9080  227.5810 C   0  0  0  0  0  0  0  0  0  0  0  0
  132.9160   72.9670  226.9570 C   0  0  0  0  0  0  0  0  0  0  0  0
  133.8680   73.3190  226.0260 C   0  0  0  0  0  0  0  0  0  0  0  0
  134.6190   72.3330  225.4620 N   0  0  0  0  0  0  0  0  0  0  0  0
  135.6120   70.1080  225.2680 H   0  0  0  0  0  0  0  0  0  0  0  0
  136.4062   68.2339  224.2558 H   0  0  0  0  0  0  0  0  0  0  0  0
  137.0907   69.3406  222.8966 H   0  0  0  0  0  0  0  0  0  0  0  0
  138.6548   67.4093  227.2717 H   0  0  0  0  0  0  0  0  0  0  0  0
  138.9473   66.5850  225.7222 H   0  0  0  0  0  0  0  0  0  0  0  0
  140.9987   66.4641  227.0340 H   0  0  0  0  0  0  0  0  0  0  0  0
  141.2703   67.6447  225.7051 H   0  0  0  0  0  0  0  0  0  0  0  0
  141.1631   68.0625  228.6451 H   0  0  0  0  0  0  0  0  0  0  0  0
  141.9652   69.0354  227.3561 H   0  0  0  0  0  0  0  0  0  0  0  0
  139.1111   69.1332  228.3447 H   0  0  0  0  0  0  0  0  0  0  0  0
  140.3479   70.4656  228.1445 H   0  0  0  0  0  0  0  0  0  0  0  0
  138.4519   70.5080  226.5771 H   0  0  0  0  0  0  0  0  0  0  0  0
  138.8220   70.9400  224.0400 H   0  0  0  0  0  0  0  0  0  0  0  0
  140.5031   73.0925  223.7804 H   0  0  0  0  0  0  0  0  0  0  0  0
  141.5938   71.6929  223.4350 H   0  0  0  0  0  0  0  0  0  0  0  0
  140.2307   70.9757  221.5930 H   0  0  0  0  0  0  0  0  0  0  0  0
  138.9218   72.1206  222.0219 H   0  0  0  0  0  0  0  0  0  0  0  0
  141.7587   72.9135  221.2899 H   0  0  0  0  0  0  0  0  0  0  0  0
  140.3207   72.8786  220.1548 H   0  0  0  0  0  0  0  0  0  0  0  0
  142.2817   75.2110  221.2280 H   0  0  0  0  0  0  0  0  0  0  0  0
  141.5814   77.4850  221.8990 H   0  0  0  0  0  0  0  0  0  0  0  0
  138.5247   79.8925  222.0902 H   0  0  0  0  0  0  0  0  0  0  0  0
  137.8234   79.1829  223.6011 H   0  0  0  0  0  0  0  0  0  0  0  0
  139.9778   81.0313  223.3555 H   0  0  0  0  0  0  0  0  0  0  0  0
  139.3278   80.1980  224.8472 H   0  0  0  0  0  0  0  0  0  0  0  0
  141.9627   81.1077  224.1468 H   0  0  0  0  0  0  0  0  0  0  0  0
  142.8820   79.5175  224.3182 H   0  0  0  0  0  0  0  0  0  0  0  0
  142.7213   81.2039  222.1061 H   0  0  0  0  0  0  0  0  0  0  0  0
  143.4609   79.5373  222.2878 H   0  0  0  0  0  0  0  0  0  0  0  0
  140.9690   79.0910  221.9360 H   0  0  0  0  0  0  0  0  0  0  0  0
  137.6001   76.0675  222.6241 H   0  0  0  0  0  0  0  0  0  0  0  0
  138.2544   73.7927  221.9632 H   0  0  0  0  0  0  0  0  0  0  0  0
  136.5130   74.2324  223.4405 H   0  0  0  0  0  0  0  0  0  0  0  0
  135.1582   75.9897  224.4628 H   0  0  0  0  0  0  0  0  0  0  0  0
  133.3650   76.6763  226.0282 H   0  0  0  0  0  0  0  0  0  0  0  0
  131.3473   73.6151  228.3236 H   0  0  0  0  0  0  0  0  0  0  0  0
  132.7937   71.9049  227.2160 H   0  0  0  0  0  0  0  0  0  0  0  0
  1  2  2  0
  2  3  1  0
  3  4  1  0
  4  5  1  0
  5  6  2  0
  5  7  1  0
  7  8  1  0
  8  9  1  0
  9 10  1  0
 10 11  1  0
 11 12  1  0
 12 13  1  0
 13 14  2  0
 13 15  1  0
 15 16  1  0
 16 17  1  0
 17 18  1  0
 18 19  1  0
 19 20  2  0
 20 21  1  0
 21 22  2  0
 22 23  1  0
 23 24  1  0
 24 25  1  0
 25 26  1  0
 26 27  1  0
 27 28  1  0
 28 29  1  0
 22 30  1  0
 30 31  2  0
  2 32  1  0
 32 33  2  0
 33 34  1  0
 34 35  2  0
 35 36  1  0
 36 37  2  0
 37 38  1  0
 37 39  1  0
 39 40  2  0
 40 41  1  0
 41 42  2  0
 12  7  1  0
 31 19  1  0
 42 32  1  0
 41 35  1  0
  3 43  1  0
  4 44  1  0
  4 45  1  0
  8 46  1  0
  8 47  1  0
  9 48  1  0
  9 49  1  0
 10 50  1  0
 10 51  1  0
 11 52  1  0
 11 53  1  0
 12 54  1  1
 15 55  1  0
 16 56  1  0
 16 57  1  0
 17 58  1  0
 17 59  1  0
 18 60  1  0
 18 61  1  0
 20 62  1  0
 21 63  1  0
 24 64  1  0
 24 65  1  0
 25 66  1  0
 25 67  1  0
 27 68  1  0
 27 69  1  0
 28 70  1  0
 28 71  1  0
 29 72  1  0
 30 73  1  0
 31 74  1  0
 33 75  1  0
 34 76  1  0
 36 77  1  0
 39 78  1  0
 40 79  1  0
M  END
>  <smiles>  (4) 
O=C(NCC(=O)N1CCCC[C@H]1C(=O)NCCCc1ccc(OCCOCCO)cc1)c1ccc2cc(F)ccc2n1

>  <score_type>  (4) 
oracle

>  <origin>  (4) 
autodockgpu

>  <m_score__min__energy>  (4) 
-7.8899999999999997

>  <m_primary>  (4) 
energy

>  <meeko>  (4) 
{"free_energy": -6.95, "intermolecular_energy": -11.72, "internal_energy": -5.73, "cluster_size": 2, "cluster_id": 1, "rank_in_cluster": 2}

>  <energy>  (4) 
-6.97

>  <cluster_rmsd>  (4) 
0.0

>  <rmsd>  (4) 
269.79

>  <cluster>  (4) 
3

$$$$

     RDKit          3D

 79 82  0  0  0  0  0  0  0  0999 V2000
  135.8630   76.7150  221.6550 O   0  0  0  0  0  0  0  0  0  0  0  0
  136.9710   76.5060  222.2100 C   0  0  0  0  0  0  0  0  0  0  0  0
  137.3780   75.1610  222.5310 N   0  0  0  0  0  0  0  0  0  0  0  0
  136.5880   74.0050  222.2650 C   0  0  0  0  0  0  0  0  0  0  0  0
  137.0240   72.6940  222.7310 C   0  0  0  0  0  0  0  0  0  0  0  0
  136.3650   72.2980  223.7990 O   0  0  0  0  0  0  0  0  0  0  0  0
  137.9780   71.7980  222.2710 N   0  0  0  0  0  0  0  0  0  0  0  0
  137.8060   70.5090  221.6500 C   0  0  0  0  0  0  0  0  0  0  0  0
  138.5050   70.5630  220.3080 C   0  0  0  0  0  0  0  0  0  0  0  0
  140.0110   70.6670  220.5170 C   0  0  0  0  0  0  0  0  0  0  0  0
  140.3180   71.1320  221.9250 C   0  0  0  0  0  0  0  0  0  0  0  0
  139.4000   72.2040  222.4180 C   0  0  1  0  0  0  0  0  0  0  0  0
  139.6550   73.5130  221.7800 C   0  0  0  0  0  0  0  0  0  0  0  0
  140.2810   74.4590  222.3150 O   0  0  0  0  0  0  0  0  0  0  0  0
  139.1540   73.7090  220.4670 N   0  0  0  0  0  0  0  0  0  0  0  0
  139.3250   74.9310  219.7110 C   0  0  0  0  0  0  0  0  0  0  0  0
  140.7740   75.1090  219.2820 C   0  0  0  0  0  0  0  0  0  0  0  0
  141.4350   76.0790  220.2080 C   0  0  0  0  0  0  0  0  0  0  0  0
  141.7040   77.4080  219.6060 C   0  0  0  0  0  0  0  0  0  0  0  0
  142.7370   77.5720  218.7150 C   0  0  0  0  0  0  0  0  0  0  0  0
  142.9360   78.8280  218.2020 C   0  0  0  0  0  0  0  0  0  0  0  0
  142.1310   79.9220  218.5560 C   0  0  0  0  0  0  0  0  0  0  0  0
  142.3350   81.0930  218.0640 O   0  0  0  0  0  0  0  0  0  0  0  0
  142.5330   82.2440  217.4930 C   0  0  0  0  0  0  0  0  0  0  0  0
  141.4510   83.2550  217.8820 C   0  0  0  0  0  0  0  0  0  0  0  0
  140.5600   82.7770  218.7970 O   0  0  0  0  0  0  0  0  0  0  0  0
  140.3080   83.5350  219.9000 C   0  0  0  0  0  0  0  0  0  0  0  0
  140.8850   83.0300  221.1820 C   0  0  0  0  0  0  0  0  0  0  0  0
  141.8220   82.0360  221.0240 O   0  0  0  0  0  0  0  0  0  0  0  0
  141.1050   79.6680  219.4640 C   0  0  0  0  0  0  0  0  0  0  0  0
  140.8650   78.4420  220.0010 C   0  0  0  0  0  0  0  0  0  0  0  0
  137.9030   77.5870  222.5600 C   0  0  0  0  0  0  0  0  0  0  0  0
  137.4430   78.8750  222.7710 C   0  0  0  0  0  0  0  0  0  0  0  0
  138.3010   79.8790  223.0970 C   0  0  0  0  0  0  0  0  0  0  0  0
  139.6470   79.6470  223.2270 C   0  0  0  0  0  0  0  0  0  0  0  0
  140.5540   80.6460  223.5620 C   0  0  0  0  0  0  0  0  0  0  0  0
  141.8980   80.3250  223.6740 C   0  0  0  0  0  0  0  0  0  0  0  0
  142.8050   81.3010  224.0060 F   0  0  0  0  0  0  0  0  0  0  0  0
  142.3730   79.0470  223.4670 C   0  0  0  0  0  0  0  0  0  0  0  0
  141.4340   78.0760  223.1360 C   0  0  0  0  0  0  0  0  0  0  0  0
  140.0920   78.3610  223.0160 C   0  0  0  0  0  0  0  0  0  0  0  0
  139.2410   77.3490  222.6880 N   0  0  0  0  0  0  0  0  0  0  0  0
  138.3140   75.0230  222.9910 H   0  0  0  0  0  0  0  0  0  0  0  0
  135.5999   74.1873  222.7127 H   0  0  0  0  0  0  0  0  0  0  0  0
  136.6419   73.9118  221.1703 H   0  0  0  0  0  0  0  0  0  0  0  0
  138.2549   69.7251  222.2777 H   0  0  0  0  0  0  0  0  0  0  0  0
  136.7386   70.2743  221.5256 H   0  0  0  0  0  0  0  0  0  0  0  0
  138.2770   69.6491  219.7399 H   0  0  0  0  0  0  0  0  0  0  0  0
  138.1532   71.4428  219.7492 H   0  0  0  0  0  0  0  0  0  0  0  0
  140.4686   69.6801  220.3534 H   0  0  0  0  0  0  0  0  0  0  0  0
  140.4206   71.3968  219.8031 H   0  0  0  0  0  0  0  0  0  0  0  0
  140.2377   70.2681  222.6012 H   0  0  0  0  0  0  0  0  0  0  0  0
  141.3314   71.5595  221.9083 H   0  0  0  0  0  0  0  0  0  0  0  0
  139.6121   72.3346  223.4894 H   0  0  0  0  0  0  0  0  0  0  0  0
  138.6410   72.9230  220.0150 H   0  0  0  0  0  0  0  0  0  0  0  0
  138.6870   74.8923  218.8157 H   0  0  0  0  0  0  0  0  0  0  0  0
  139.0419   75.7806  220.3498 H   0  0  0  0  0  0  0  0  0  0  0  0
  141.2946   74.1411  219.3274 H   0  0  0  0  0  0  0  0  0  0  0  0
  140.8144   75.4899  218.2508 H   0  0  0  0  0  0  0  0  0  0  0  0
  140.7819   76.2218  221.0815 H   0  0  0  0  0  0  0  0  0  0  0  0
  142.4120   75.6481  220.4721 H   0  0  0  0  0  0  0  0  0  0  0  0
  143.3798   76.7280  218.4243 H   0  0  0  0  0  0  0  0  0  0  0  0
  143.7569   78.9840  217.4866 H   0  0  0  0  0  0  0  0  0  0  0  0
  143.5141   82.6330  217.8029 H   0  0  0  0  0  0  0  0  0  0  0  0
  142.4962   82.1002  216.4031 H   0  0  0  0  0  0  0  0  0  0  0  0
  141.9417   84.1435  218.3059 H   0  0  0  0  0  0  0  0  0  0  0  0
  140.8827   83.4861  216.9690 H   0  0  0  0  0  0  0  0  0  0  0  0
  140.7163   84.5403  219.7191 H   0  0  0  0  0  0  0  0  0  0  0  0
  139.2165   83.5127  220.0346 H   0  0  0  0  0  0  0  0  0  0  0  0
  141.3614   83.8740  221.7024 H   0  0  0  0  0  0  0  0  0  0  0  0
  140.0529   82.5929  221.7534 H   0  0  0  0  0  0  0  0  0  0  0  0
  141.9740   81.8650  220.0630 H   0  0  0  0  0  0  0  0  0  0  0  0
  140.4547   80.5036  219.7622 H   0  0  0  0  0  0  0  0  0  0  0  0
  140.0446   78.2768  220.7150 H   0  0  0  0  0  0  0  0  0  0  0  0
  136.3686   79.0899  222.6737 H   0  0  0  0  0  0  0  0  0  0  0  0
  137.9091   80.8939  223.2591 H   0  0  0  0  0  0  0  0  0  0  0  0
  140.2102   81.6763  223.7357 H   0  0  0  0  0  0  0  0  0  0  0  0
  143.4426   78.8073  223.5592 H   0  0  0  0  0  0  0  0  0  0  0  0
  141.7751   77.0444  222.9641 H   0  0  0  0  0  0  0  0  0  0  0  0
  1  2  2  0
  2  3  1  0
  3  4  1  0
  4  5  1  0
  5  6  2  0
  5  7  1  0
  7  8  1  0
  8  9  1  0
  9 10  1  0
 10 11  1  0
 11 12  1  0
 12 13  1  0
 13 14  2  0
 13 15  1  0
 15 16  1  0
 16 17  1  0
 17 18  1  0
 18 19  1  0
 19 20  2  0
 20 21  1  0
 21 22  2  0
 22 23  1  0
 23 24  1  0
 24 25  1  0
 25 26  1  0
 26 27  1  0
 27 28  1  0
 28 29  1  0
 22 30  1  0
 30 31  2  0
  2 32  1  0
 32 33  2  0
 33 34  1  0
 34 35  2  0
 35 36  1  0
 36 37  2  0
 37 38  1  0
 37 39  1  0
 39 40  2  0
 40 41  1  0
 41 42  2  0
 12  7  1  0
 31 19  1  0
 42 32  1  0
 41 35  1  0
  3 43  1  0
  4 44  1  0
  4 45  1  0
  8 46  1  0
  8 47  1  0
  9 48  1  0
  9 49  1  0
 10 50  1  0
 10 51  1  0
 11 52  1  0
 11 53  1  0
 12 54  1  1
 15 55  1  0
 16 56  1  0
 16 57  1  0
 17 58  1  0
 17 59  1  0
 18 60  1  0
 18 61  1  0
 20 62  1  0
 21 63  1  0
 24 64  1  0
 24 65  1  0
 25 66  1  0
 25 67  1  0
 27 68  1  0
 27 69  1  0
 28 70  1  0
 28 71  1  0
 29 72  1  0
 30 73  1  0
 31 74  1  0
 33 75  1  0
 34 76  1  0
 36 77  1  0
 39 78  1  0
 40 79  1  0
M  END
>  <smiles>  (5) 
O=C(NCC(=O)N1CCCC[C@H]1C(=O)NCCCc1ccc(OCCOCCO)cc1)c1ccc2cc(F)ccc2n1

>  <score_type>  (5) 
oracle

>  <origin>  (5) 
autodockgpu

>  <m_score__min__energy>  (5) 
-7.8899999999999997

>  <m_primary>  (5) 
energy

>  <meeko>  (5) 
{"free_energy": -4.59, "intermolecular_energy": -9.36, "internal_energy": -6.5, "cluster_size": 1, "cluster_id": 13, "rank_in_cluster": 1}

>  <energy>  (5) 
-6.68

>  <cluster_rmsd>  (5) 
0.6

>  <rmsd>  (5) 
269.76

>  <cluster>  (5) 
3

$$$$

     RDKit          3D

 79 82  0  0  0  0  0  0  0  0999 V2000
  142.8830   79.4330  218.2700 O   0  0  0  0  0  0  0  0  0  0  0  0
  142.2660   78.3870  218.5920 C   0  0  0  0  0  0  0  0  0  0  0  0
  140.8960   78.4600  219.0340 N   0  0  0  0  0  0  0  0  0  0  0  0
  140.1580   79.6740  219.1430 C   0  0  0  0  0  0  0  0  0  0  0  0
  140.2590   80.4900  220.3470 C   0  0  0  0  0  0  0  0  0  0  0  0
  139.1970   81.2460  220.5310 O   0  0  0  0  0  0  0  0  0  0  0  0
  141.2380   80.6160  221.3220 N   0  0  0  0  0  0  0  0  0  0  0  0
  141.7350   81.7980  221.9790 C   0  0  0  0  0  0  0  0  0  0  0  0
  141.5430   81.5970  223.4670 C   0  0  0  0  0  0  0  0  0  0  0  0
  142.4680   80.4910  223.9600 C   0  0  0  0  0  0  0  0  0  0  0  0
  142.9440   79.6440  222.7990 C   0  0  0  0  0  0  0  0  0  0  0  0
  141.8820   79.3590  221.7860 C   0  0  1  0  0  0  0  0  0  0  0  0
  140.8800   78.3860  222.2660 C   0  0  0  0  0  0  0  0  0  0  0  0
  139.8660   78.6780  222.9440 O   0  0  0  0  0  0  0  0  0  0  0  0
  141.0820   77.0210  221.9300 N   0  0  0  0  0  0  0  0  0  0  0  0
  140.1890   75.9530  222.3230 C   0  0  0  0  0  0  0  0  0  0  0  0
  139.4030   75.4320  221.1290 C   0  0  0  0  0  0  0  0  0  0  0  0
  139.9560   74.1010  220.7310 C   0  0  0  0  0  0  0  0  0  0  0  0
  139.8200   73.0510  221.7690 C   0  0  0  0  0  0  0  0  0  0  0  0
  140.9360   72.4850  222.3370 C   0  0  0  0  0  0  0  0  0  0  0  0
  140.7400   71.5130  223.2840 C   0  0  0  0  0  0  0  0  0  0  0  0
  139.4600   71.0930  223.6780 C   0  0  0  0  0  0  0  0  0  0  0  0
  139.2970   70.1790  224.5680 O   0  0  0  0  0  0  0  0  0  0  0  0
  139.1020   69.2070  225.4090 C   0  0  0  0  0  0  0  0  0  0  0  0
  139.9990   69.3460  226.6420 C   0  0  0  0  0  0  0  0  0  0  0  0
  139.6460   70.3780  227.4610 O   0  0  0  0  0  0  0  0  0  0  0  0
  140.6340   71.0150  228.1480 C   0  0  0  0  0  0  0  0  0  0  0  0
  141.2420   72.1970  227.4660 C   0  0  0  0  0  0  0  0  0  0  0  0
  141.0820   72.2030  226.1010 O   0  0  0  0  0  0  0  0  0  0  0  0
  138.3830   71.7190  223.0540 C   0  0  0  0  0  0  0  0  0  0  0  0
  138.5230   72.6880  222.1090 C   0  0  0  0  0  0  0  0  0  0  0  0
  142.8820   77.0540  218.5450 C   0  0  0  0  0  0  0  0  0  0  0  0
  143.2290   76.4790  217.3350 C   0  0  0  0  0  0  0  0  0  0  0  0
  143.8000   75.2450  217.2850 C   0  0  0  0  0  0  0  0  0  0  0  0
  144.0500   74.5330  218.4300 C   0  0  0  0  0  0  0  0  0  0  0  0
  144.6350   73.2720  218.4200 C   0  0  0  0  0  0  0  0  0  0  0  0
  144.8540   72.6210  219.6240 C   0  0  0  0  0  0  0  0  0  0  0  0
  145.4320   71.3760  219.6300 F   0  0  0  0  0  0  0  0  0  0  0  0
  144.5130   73.1790  220.8390 C   0  0  0  0  0  0  0  0  0  0  0  0
  143.9320   74.4420  220.8070 C   0  0  0  0  0  0  0  0  0  0  0  0
  143.7010   75.1150  219.6280 C   0  0  0  0  0  0  0  0  0  0  0  0
  143.1280   76.3500  219.6890 N   0  0  0  0  0  0  0  0  0  0  0  0
  140.4090   77.5640  219.2910 H   0  0  0  0  0  0  0  0  0  0  0  0
  140.4707   80.3107  218.3023 H   0  0  0  0  0  0  0  0  0  0  0  0
  139.1132   79.3305  219.1610 H   0  0  0  0  0  0  0  0  0  0  0  0
  142.8025   81.9348  221.7518 H   0  0  0  0  0  0  0  0  0  0  0  0
  141.1966   82.6927  221.6331 H   0  0  0  0  0  0  0  0  0  0  0  0
  141.7779   82.5327  223.9956 H   0  0  0  0  0  0  0  0  0  0  0  0
  140.4987   81.3131  223.6642 H   0  0  0  0  0  0  0  0  0  0  0  0
  143.3378   80.9421  224.4601 H   0  0  0  0  0  0  0  0  0  0  0  0
  141.9159   79.8520  224.6649 H   0  0  0  0  0  0  0  0  0  0  0  0
  143.7681   80.1733  222.2983 H   0  0  0  0  0  0  0  0  0  0  0  0
  143.2579   78.6756  223.2158 H   0  0  0  0  0  0  0  0  0  0  0  0
  142.3818   78.8891  220.9261 H   0  0  0  0  0  0  0  0  0  0  0  0
  141.9180   76.7750  221.3600 H   0  0  0  0  0  0  0  0  0  0  0  0
  140.7795   75.1299  222.7518 H   0  0  0  0  0  0  0  0  0  0  0  0
  139.4788   76.3456  223.0656 H   0  0  0  0  0  0  0  0  0  0  0  0
  138.3429   75.3250  221.4026 H   0  0  0  0  0  0  0  0  0  0  0  0
  139.4875   76.1377  220.2895 H   0  0  0  0  0  0  0  0  0  0  0  0
  139.4266   73.7637  219.8277 H   0  0  0  0  0  0  0  0  0  0  0  0
  141.0340   74.2436  220.5651 H   0  0  0  0  0  0  0  0  0  0  0  0
  141.9482   72.7998  222.0431 H   0  0  0  0  0  0  0  0  0  0  0  0
  141.6185   71.0450  223.7523 H   0  0  0  0  0  0  0  0  0  0  0  0
  138.0497   69.2166  225.7292 H   0  0  0  0  0  0  0  0  0  0  0  0
  139.3488   68.2601  224.9066 H   0  0  0  0  0  0  0  0  0  0  0  0
  139.9451   68.4106  227.2184 H   0  0  0  0  0  0  0  0  0  0  0  0
  141.0159   69.5559  226.2789 H   0  0  0  0  0  0  0  0  0  0  0  0
  140.2131   71.3571  229.1050 H   0  0  0  0  0  0  0  0  0  0  0  0
  141.4460   70.2805  228.2534 H   0  0  0  0  0  0  0  0  0  0  0  0
  140.7762   73.1070  227.8721 H   0  0  0  0  0  0  0  0  0  0  0  0
  142.3242   72.1507  227.6575 H   0  0  0  0  0  0  0  0  0  0  0  0
  140.3680   71.5700  225.8420 H   0  0  0  0  0  0  0  0  0  0  0  0
  137.3657   71.4138  223.3404 H   0  0  0  0  0  0  0  0  0  0  0  0
  137.6499   73.1617  221.6364 H   0  0  0  0  0  0  0  0  0  0  0  0
  143.0405   77.0274  216.4003 H   0  0  0  0  0  0  0  0  0  0  0  0
  144.0656   74.8112  216.3097 H   0  0  0  0  0  0  0  0  0  0  0  0
  144.9202   72.7973  217.4696 H   0  0  0  0  0  0  0  0  0  0  0  0
  144.6920   72.6504  221.7869 H   0  0  0  0  0  0  0  0  0  0  0  0
  143.6472   74.9199  221.7560 H   0  0  0  0  0  0  0  0  0  0  0  0
  1  2  2  0
  2  3  1  0
  3  4  1  0
  4  5  1  0
  5  6  2  0
  5  7  1  0
  7  8  1  0
  8  9  1  0
  9 10  1  0
 10 11  1  0
 11 12  1  0
 12 13  1  0
 13 14  2  0
 13 15  1  0
 15 16  1  0
 16 17  1  0
 17 18  1  0
 18 19  1  0
 19 20  2  0
 20 21  1  0
 21 22  2  0
 22 23  1  0
 23 24  1  0
 24 25  1  0
 25 26  1  0
 26 27  1  0
 27 28  1  0
 28 29  1  0
 22 30  1  0
 30 31  2  0
  2 32  1  0
 32 33  2  0
 33 34  1  0
 34 35  2  0
 35 36  1  0
 36 37  2  0
 37 38  1  0
 37 39  1  0
 39 40  2  0
 40 41  1  0
 41 42  2  0
 12  7  1  0
 31 19  1  0
 42 32  1  0
 41 35  1  0
  3 43  1  0
  4 44  1  0
  4 45  1  0
  8 46  1  0
  8 47  1  0
  9 48  1  0
  9 49  1  0
 10 50  1  0
 10 51  1  0
 11 52  1  0
 11 53  1  0
 12 54  1  6
 15 55  1  0
 16 56  1  0
 16 57  1  0
 17 58  1  0
 17 59  1  0
 18 60  1  0
 18 61  1  0
 20 62  1  0
 21 63  1  0
 24 64  1  0
 24 65  1  0
 25 66  1  0
 25 67  1  0
 27 68  1  0
 27 69  1  0
 28 70  1  0
 28 71  1  0
 29 72  1  0
 30 73  1  0
 31 74  1  0
 33 75  1  0
 34 76  1  0
 36 77  1  0
 39 78  1  0
 40 79  1  0
M  END
>  <smiles>  (6) 
O=C(NCC(=O)N1CCCC[C@H]1C(=O)NCCCc1ccc(OCCOCCO)cc1)c1ccc2cc(F)ccc2n1

>  <score_type>  (6) 
oracle

>  <origin>  (6) 
autodockgpu

>  <m_score__min__energy>  (6) 
-7.8899999999999997

>  <m_primary>  (6) 
energy

>  <meeko>  (6) 
{"free_energy": -6.68, "intermolecular_energy": -11.45, "internal_energy": -5.69, "cluster_size": 2, "cluster_id": 3, "rank_in_cluster": 2}

>  <energy>  (6) 
-6.95

>  <cluster_rmsd>  (6) 
0.0

>  <rmsd>  (6) 
269.18

>  <cluster>  (6) 
4

$$$$

     RDKit          3D

 79 82  0  0  0  0  0  0  0  0999 V2000
  136.7460   75.5860  222.3330 O   0  0  0  0  0  0  0  0  0  0  0  0
  136.9780   76.8040  222.5380 C   0  0  0  0  0  0  0  0  0  0  0  0
  135.8880   77.7420  222.6350 N   0  0  0  0  0  0  0  0  0  0  0  0
  134.5140   77.3840  222.5070 C   0  0  0  0  0  0  0  0  0  0  0  0
  133.9010   76.4700  223.4620 C   0  0  0  0  0  0  0  0  0  0  0  0
  133.8120   75.2430  222.9950 O   0  0  0  0  0  0  0  0  0  0  0  0
  133.4070   76.6400  224.7470 N   0  0  0  0  0  0  0  0  0  0  0  0
  132.1770   77.2470  225.1880 C   0  0  0  0  0  0  0  0  0  0  0  0
  131.4330   76.2090  226.0010 C   0  0  0  0  0  0  0  0  0  0  0  0
  132.1860   75.9340  227.2970 C   0  0  0  0  0  0  0  0  0  0  0  0
  133.6200   76.4070  227.1840 C   0  0  0  0  0  0  0  0  0  0  0  0
  134.2470   76.1190  225.8580 C   0  0  1  0  0  0  0  0  0  0  0  0
  134.5580   74.6860  225.6710 C   0  0  0  0  0  0  0  0  0  0  0  0
  134.1120   73.7590  226.3890 O   0  0  0  0  0  0  0  0  0  0  0  0
  135.4210   74.3390  224.6000 N   0  0  0  0  0  0  0  0  0  0  0  0
  135.8160   72.9820  224.2880 C   0  0  0  0  0  0  0  0  0  0  0  0
  134.9060   72.3800  223.2280 C   0  0  0  0  0  0  0  0  0  0  0  0
  135.6880   71.3870  222.4290 C   0  0  0  0  0  0  0  0  0  0  0  0
  136.5720   70.5150  223.2400 C   0  0  0  0  0  0  0  0  0  0  0  0
  136.0510   69.7500  224.2560 C   0  0  0  0  0  0  0  0  0  0  0  0
  136.9250   68.9720  224.9730 C   0  0  0  0  0  0  0  0  0  0  0  0
  138.3010   68.9400  224.7020 C   0  0  0  0  0  0  0  0  0  0  0  0
  139.1040   68.2050  225.3860 O   0  0  0  0  0  0  0  0  0  0  0  0
  139.9320   67.5270  226.1250 C   0  0  0  0  0  0  0  0  0  0  0  0
  140.2640   68.2720  227.4210 C   0  0  0  0  0  0  0  0  0  0  0  0
  139.6060   69.4590  227.5520 O   0  0  0  0  0  0  0  0  0  0  0  0
  140.3200   70.5430  227.9660 C   0  0  0  0  0  0  0  0  0  0  0  0
  140.8430   71.4280  226.8820 C   0  0  0  0  0  0  0  0  0  0  0  0
  140.7190   70.9030  225.6170 O   0  0  0  0  0  0  0  0  0  0  0  0
  138.7450   69.7450  223.6540 C   0  0  0  0  0  0  0  0  0  0  0  0
  137.9210   70.5330  222.9130 C   0  0  0  0  0  0  0  0  0  0  0  0
  138.3370   77.3420  222.6870 C   0  0  0  0  0  0  0  0  0  0  0  0
  139.4420   76.5510  222.4240 C   0  0  0  0  0  0  0  0  0  0  0  0
  140.7020   77.0450  222.5600 C   0  0  0  0  0  0  0  0  0  0  0  0
  140.9180   78.3390  222.9590 C   0  0  0  0  0  0  0  0  0  0  0  0
  142.1900   78.8810  223.1060 C   0  0  0  0  0  0  0  0  0  0  0  0
  142.3190   80.1990  223.5140 C   0  0  0  0  0  0  0  0  0  0  0  0
  143.5690   80.7480  223.6610 F   0  0  0  0  0  0  0  0  0  0  0  0
  141.2280   81.0010  223.7800 C   0  0  0  0  0  0  0  0  0  0  0  0
  139.9730   80.4240  223.6200 C   0  0  0  0  0  0  0  0  0  0  0  0
  139.8110   79.1170  223.2170 C   0  0  0  0  0  0  0  0  0  0  0  0
  138.5440   78.6320  223.0850 N   0  0  0  0  0  0  0  0  0  0  0  0
  136.1180   78.7530  222.8120 H   0  0  0  0  0  0  0  0  0  0  0  0
  133.9379   78.3201  222.5506 H   0  0  0  0  0  0  0  0  0  0  0  0
  134.4908   76.8147  221.5661 H   0  0  0  0  0  0  0  0  0  0  0  0
  132.3932   78.1286  225.8093 H   0  0  0  0  0  0  0  0  0  0  0  0
  131.5739   77.5767  224.3292 H   0  0  0  0  0  0  0  0  0  0  0  0
  130.4253   76.5822  226.2360 H   0  0  0  0  0  0  0  0  0  0  0  0
  131.3564   75.2781  225.4200 H   0  0  0  0  0  0  0  0  0  0  0  0
  131.6925   76.4668  228.1231 H   0  0  0  0  0  0  0  0  0  0  0  0
  132.1813   74.8510  227.4898 H   0  0  0  0  0  0  0  0  0  0  0  0
  133.6406   77.4944  227.3486 H   0  0  0  0  0  0  0  0  0  0  0  0
  134.1998   75.8561  227.9392 H   0  0  0  0  0  0  0  0  0  0  0  0
  135.2103   76.6497  225.8412 H   0  0  0  0  0  0  0  0  0  0  0  0
  135.7860   75.1060  223.9960 H   0  0  0  0  0  0  0  0  0  0  0  0
  136.8506   72.9853  223.9143 H   0  0  0  0  0  0  0  0  0  0  0  0
  135.7387   72.3752  225.2023 H   0  0  0  0  0  0  0  0  0  0  0  0
  134.0560   71.8774  223.7126 H   0  0  0  0  0  0  0  0  0  0  0  0
  134.5248   73.1734  222.5683 H   0  0  0  0  0  0  0  0  0  0  0  0
  134.9783   70.7473  221.8839 H   0  0  0  0  0  0  0  0  0  0  0  0
  136.3420   71.9649  221.7595 H   0  0  0  0  0  0  0  0  0  0  0  0
  134.9753   69.7609  224.4855 H   0  0  0  0  0  0  0  0  0  0  0  0
  136.5319   68.3502  225.7908 H   0  0  0  0  0  0  0  0  0  0  0  0
  139.4762   66.5579  226.3761 H   0  0  0  0  0  0  0  0  0  0  0  0
  140.8645   67.3852  225.5589 H   0  0  0  0  0  0  0  0  0  0  0  0
  139.9933   67.6286  228.2711 H   0  0  0  0  0  0  0  0  0  0  0  0
  141.3397   68.5005  227.3953 H   0  0  0  0  0  0  0  0  0  0  0  0
  139.6688   71.1496  228.6125 H   0  0  0  0  0  0  0  0  0  0  0  0
  141.2066   70.1400  228.4773 H   0  0  0  0  0  0  0  0  0  0  0  0
  140.2911   72.3789  226.9166 H   0  0  0  0  0  0  0  0  0  0  0  0
  141.9199   71.5534  227.0682 H   0  0  0  0  0  0  0  0  0  0  0  0
  140.2240   70.0480  225.6540 H   0  0  0  0  0  0  0  0  0  0  0  0
  139.8185   69.7426  223.4139 H   0  0  0  0  0  0  0  0  0  0  0  0
  138.3057   71.1561  222.0922 H   0  0  0  0  0  0  0  0  0  0  0  0
  139.2993   75.5093  222.1008 H   0  0  0  0  0  0  0  0  0  0  0  0
  141.5631   76.3948  222.3461 H   0  0  0  0  0  0  0  0  0  0  0  0
  143.0824   78.2714  222.9011 H   0  0  0  0  0  0  0  0  0  0  0  0
  141.3454   82.0460  224.1029 H   0  0  0  0  0  0  0  0  0  0  0  0
  139.0790   81.0322  223.8222 H   0  0  0  0  0  0  0  0  0  0  0  0
  1  2  2  0
  2  3  1  0
  3  4  1  0
  4  5  1  0
  5  6  2  0
  5  7  1  0
  7  8  1  0
  8  9  1  0
  9 10  1  0
 10 11  1  0
 11 12  1  0
 12 13  1  0
 13 14  2  0
 13 15  1  0
 15 16  1  0
 16 17  1  0
 17 18  1  0
 18 19  1  0
 19 20  2  0
 20 21  1  0
 21 22  2  0
 22 23  1  0
 23 24  1  0
 24 25  1  0
 25 26  1  0
 26 27  1  0
 27 28  1  0
 28 29  1  0
 22 30  1  0
 30 31  2  0
  2 32  1  0
 32 33  2  0
 33 34  1  0
 34 35  2  0
 35 36  1  0
 36 37  2  0
 37 38  1  0
 37 39  1  0
 39 40  2  0
 40 41  1  0
 41 42  2  0
 12  7  1  0
 31 19  1  0
 42 32  1  0
 41 35  1  0
  3 43  1  0
  4 44  1  0
  4 45  1  0
  8 46  1  0
  8 47  1  0
  9 48  1  0
  9 49  1  0
 10 50  1  0
 10 51  1  0
 11 52  1  0
 11 53  1  0
 12 54  1  1
 15 55  1  0
 16 56  1  0
 16 57  1  0
 17 58  1  0
 17 59  1  0
 18 60  1  0
 18 61  1  0
 20 62  1  0
 21 63  1  0
 24 64  1  0
 24 65  1  0
 25 66  1  0
 25 67  1  0
 27 68  1  0
 27 69  1  0
 28 70  1  0
 28 71  1  0
 29 72  1  0
 30 73  1  0
 31 74  1  0
 33 75  1  0
 34 76  1  0
 36 77  1  0
 39 78  1  0
 40 79  1  0
M  END
>  <smiles>  (7) 
O=C(NCC(=O)N1CCCC[C@H]1C(=O)NCCCc1ccc(OCCOCCO)cc1)c1ccc2cc(F)ccc2n1

>  <score_type>  (7) 
oracle

>  <origin>  (7) 
autodockgpu

>  <m_score__min__energy>  (7) 
-7.8899999999999997

>  <m_primary>  (7) 
energy

>  <meeko>  (7) 
{"free_energy": -6.73, "intermolecular_energy": -11.5, "internal_energy": -5.41, "cluster_size": 2, "cluster_id": 6, "rank_in_cluster": 1}

>  <energy>  (7) 
-6.81

>  <cluster_rmsd>  (7) 
0.0

>  <rmsd>  (7) 
270.26

>  <cluster>  (7) 
5

$$$$

     RDKit          3D

 79 82  0  0  0  0  0  0  0  0999 V2000
  136.4040   77.4200  222.6770 O   0  0  0  0  0  0  0  0  0  0  0  0
  136.5610   76.2490  223.1040 C   0  0  0  0  0  0  0  0  0  0  0  0
  137.7090   75.4770  222.6970 N   0  0  0  0  0  0  0  0  0  0  0  0
  138.7160   75.9550  221.8100 C   0  0  0  0  0  0  0  0  0  0  0  0
  139.8610   75.1160  221.4780 C   0  0  0  0  0  0  0  0  0  0  0  0
  140.0310   74.1360  222.3410 O   0  0  0  0  0  0  0  0  0  0  0  0
  140.7850   75.1460  220.4440 N   0  0  0  0  0  0  0  0  0  0  0  0
  142.2200   75.2670  220.4950 C   0  0  0  0  0  0  0  0  0  0  0  0
  142.7960   74.0640  219.7780 C   0  0  0  0  0  0  0  0  0  0  0  0
  142.4770   74.1520  218.2900 C   0  0  0  0  0  0  0  0  0  0  0  0
  141.3400   75.1220  218.0500 C   0  0  0  0  0  0  0  0  0  0  0  0
  140.2450   75.0300  219.0640 C   0  0  1  0  0  0  0  0  0  0  0  0
  139.4230   73.8120  218.9090 C   0  0  0  0  0  0  0  0  0  0  0  0
  138.5630   73.6390  218.0130 O   0  0  0  0  0  0  0  0  0  0  0  0
  139.6260   72.7620  219.8420 N   0  0  0  0  0  0  0  0  0  0  0  0
  138.9020   71.5100  219.8200 C   0  0  0  0  0  0  0  0  0  0  0  0
  137.5080   71.6750  220.4060 C   0  0  0  0  0  0  0  0  0  0  0  0
  137.6210   72.3420  221.7390 C   0  0  0  0  0  0  0  0  0  0  0  0
  138.1470   71.4650  222.8140 C   0  0  0  0  0  0  0  0  0  0  0  0
  137.2870   70.7350  223.5990 C   0  0  0  0  0  0  0  0  0  0  0  0
  137.8390   69.9510  224.5800 C   0  0  0  0  0  0  0  0  0  0  0  0
  139.2230   69.8790  224.7970 C   0  0  0  0  0  0  0  0  0  0  0  0
  139.7210   69.1380  225.7230 O   0  0  0  0  0  0  0  0  0  0  0  0
  140.2800   68.4480  226.6730 C   0  0  0  0  0  0  0  0  0  0  0  0
  140.3320   69.2390  227.9830 C   0  0  0  0  0  0  0  0  0  0  0  0
  139.8150   70.4970  227.8820 O   0  0  0  0  0  0  0  0  0  0  0  0
  140.5660   71.5350  228.3440 C   0  0  0  0  0  0  0  0  0  0  0  0
  141.3850   72.2510  227.3200 C   0  0  0  0  0  0  0  0  0  0  0  0
  141.6910   71.4930  226.2140 O   0  0  0  0  0  0  0  0  0  0  0  0
  140.0230   70.6500  223.9560 C   0  0  0  0  0  0  0  0  0  0  0  0
  139.5270   71.4420  222.9680 C   0  0  0  0  0  0  0  0  0  0  0  0
  135.6120   75.6020  224.0200 C   0  0  0  0  0  0  0  0  0  0  0  0
  134.7130   76.3560  224.7530 C   0  0  0  0  0  0  0  0  0  0  0  0
  133.8310   75.7610  225.6020 C   0  0  0  0  0  0  0  0  0  0  0  0
  133.8040   74.3990  225.7570 C   0  0  0  0  0  0  0  0  0  0  0  0
  132.9170   73.7550  226.6110 C   0  0  0  0  0  0  0  0  0  0  0  0
  132.9560   72.3720  226.7080 C   0  0  0  0  0  0  0  0  0  0  0  0
  132.0850   71.7230  227.5460 F   0  0  0  0  0  0  0  0  0  0  0  0
  133.8470   71.6060  225.9840 C   0  0  0  0  0  0  0  0  0  0  0  0
  134.7170   72.2870  225.1390 C   0  0  0  0  0  0  0  0  0  0  0  0
  134.7040   73.6590  225.0210 C   0  0  0  0  0  0  0  0  0  0  0  0
  135.5910   74.2440  224.1690 N   0  0  0  0  0  0  0  0  0  0  0  0
  137.8100   74.5020  223.0780 H   0  0  0  0  0  0  0  0  0  0  0  0
  138.2138   76.1948  220.8611 H   0  0  0  0  0  0  0  0  0  0  0  0
  139.1691   76.7859  222.3706 H   0  0  0  0  0  0  0  0  0  0  0  0
  142.5383   76.1928  219.9935 H   0  0  0  0  0  0  0  0  0  0  0  0
  142.5720   75.3066  221.5364 H   0  0  0  0  0  0  0  0  0  0  0  0
  143.8869   74.0428  219.9175 H   0  0  0  0  0  0  0  0  0  0  0  0
  142.3530   73.1463  220.1921 H   0  0  0  0  0  0  0  0  0  0  0  0
  143.3693   74.4984  217.7480 H   0  0  0  0  0  0  0  0  0  0  0  0
  142.1784   73.1564  217.9298 H   0  0  0  0  0  0  0  0  0  0  0  0
  141.7460   76.1441  218.0696 H   0  0  0  0  0  0  0  0  0  0  0  0
  140.8980   74.8635  217.0764 H   0  0  0  0  0  0  0  0  0  0  0  0
  139.5736   75.8824  218.8831 H   0  0  0  0  0  0  0  0  0  0  0  0
  140.3460   72.8980  220.5830 H   0  0  0  0  0  0  0  0  0  0  0  0
  138.8160   71.1626  218.7798 H   0  0  0  0  0  0  0  0  0  0  0  0
  139.4525   70.7766  220.4274 H   0  0  0  0  0  0  0  0  0  0  0  0
  136.8954   72.2938  219.7338 H   0  0  0  0  0  0  0  0  0  0  0  0
  137.0319   70.6900  220.5204 H   0  0  0  0  0  0  0  0  0  0  0  0
  138.2951   73.2053  221.6370 H   0  0  0  0  0  0  0  0  0  0  0  0
  136.6019   72.6306  222.0361 H   0  0  0  0  0  0  0  0  0  0  0  0
  136.1984   70.7777  223.4466 H   0  0  0  0  0  0  0  0  0  0  0  0
  137.1712   69.3564  225.2206 H   0  0  0  0  0  0  0  0  0  0  0  0
  139.7010   67.5267  226.8342 H   0  0  0  0  0  0  0  0  0  0  0  0
  141.3110   68.2136  226.3694 H   0  0  0  0  0  0  0  0  0  0  0  0
  139.7606   68.6883  228.7447 H   0  0  0  0  0  0  0  0  0  0  0  0
  141.3929   69.3469  228.2528 H   0  0  0  0  0  0  0  0  0  0  0  0
  139.8847   72.2665  228.8030 H   0  0  0  0  0  0  0  0  0  0  0  0
  141.2869   71.0926  229.0472 H   0  0  0  0  0  0  0  0  0  0  0  0
  140.8241   73.1367  226.9871 H   0  0  0  0  0  0  0  0  0  0  0  0
  142.3399   72.5083  227.8016 H   0  0  0  0  0  0  0  0  0  0  0  0
  141.0660   70.7310  226.1440 H   0  0  0  0  0  0  0  0  0  0  0  0
  141.1132   70.6162  224.0988 H   0  0  0  0  0  0  0  0  0  0  0  0
  140.1882   72.0369  222.3208 H   0  0  0  0  0  0  0  0  0  0  0  0
  134.7110   77.4510  224.6483 H   0  0  0  0  0  0  0  0  0  0  0  0
  133.1274   76.3839  226.1739 H   0  0  0  0  0  0  0  0  0  0  0  0
  132.1931   74.3347  227.2026 H   0  0  0  0  0  0  0  0  0  0  0  0
  133.8681   70.5097  226.0710 H   0  0  0  0  0  0  0  0  0  0  0  0
  135.4404   71.7097  224.5445 H   0  0  0  0  0  0  0  0  0  0  0  0
  1  2  2  0
  2  3  1  0
  3  4  1  0
  4  5  1  0
  5  6  2  0
  5  7  1  0
  7  8  1  0
  8  9  1  0
  9 10  1  0
 10 11  1  0
 11 12  1  0
 12 13  1  0
 13 14  2  0
 13 15  1  0
 15 16  1  0
 16 17  1  0
 17 18  1  0
 18 19  1  0
 19 20  2  0
 20 21  1  0
 21 22  2  0
 22 23  1  0
 23 24  1  0
 24 25  1  0
 25 26  1  0
 26 27  1  0
 27 28  1  0
 28 29  1  0
 22 30  1  0
 30 31  2  0
  2 32  1  0
 32 33  2  0
 33 34  1  0
 34 35  2  0
 35 36  1  0
 36 37  2  0
 37 38  1  0
 37 39  1  0
 39 40  2  0
 40 41  1  0
 41 42  2  0
 12  7  1  0
 31 19  1  0
 42 32  1  0
 41 35  1  0
  3 43  1  0
  4 44  1  0
  4 45  1  0
  8 46  1  0
  8 47  1  0
  9 48  1  0
  9 49  1  0
 10 50  1  0
 10 51  1  0
 11 52  1  0
 11 53  1  0
 12 54  1  6
 15 55  1  0
 16 56  1  0
 16 57  1  0
 17 58  1  0
 17 59  1  0
 18 60  1  0
 18 61  1  0
 20 62  1  0
 21 63  1  0
 24 64  1  0
 24 65  1  0
 25 66  1  0
 25 67  1  0
 27 68  1  0
 27 69  1  0
 28 70  1  0
 28 71  1  0
 29 72  1  0
 30 73  1  0
 31 74  1  0
 33 75  1  0
 34 76  1  0
 36 77  1  0
 39 78  1  0
 40 79  1  0
M  END
>  <smiles>  (8) 
O=C(NCC(=O)N1CCCC[C@H]1C(=O)NCCCc1ccc(OCCOCCO)cc1)c1ccc2cc(F)ccc2n1

>  <score_type>  (8) 
oracle

>  <origin>  (8) 
autodockgpu

>  <m_score__min__energy>  (8) 
-7.8899999999999997

>  <m_primary>  (8) 
energy

>  <meeko>  (8) 
{"free_energy": -5.55, "intermolecular_energy": -10.32, "internal_energy": -6.23, "cluster_size": 2, "cluster_id": 10, "rank_in_cluster": 2}

>  <energy>  (8) 
-6.73

>  <cluster_rmsd>  (8) 
0.0

>  <rmsd>  (8) 
269.72

>  <cluster>  (8) 
6

$$$$

     RDKit          3D

 79 82  0  0  0  0  0  0  0  0999 V2000
  139.5530   70.6840  221.4550 O   0  0  0  0  0  0  0  0  0  0  0  0
  139.5280   71.4620  222.4420 C   0  0  0  0  0  0  0  0  0  0  0  0
  139.0920   72.8260  222.2780 N   0  0  0  0  0  0  0  0  0  0  0  0
  138.6760   73.3860  221.0360 C   0  0  0  0  0  0  0  0  0  0  0  0
  138.6460   74.8320  220.8550 C   0  0  0  0  0  0  0  0  0  0  0  0
  138.9570   75.4810  221.9560 O   0  0  0  0  0  0  0  0  0  0  0  0
  138.3640   75.6400  219.7630 N   0  0  0  0  0  0  0  0  0  0  0  0
  137.8260   76.9760  219.7220 C   0  0  0  0  0  0  0  0  0  0  0  0
  138.8200   77.8350  218.9680 C   0  0  0  0  0  0  0  0  0  0  0  0
  138.8560   77.4130  217.5040 C   0  0  0  0  0  0  0  0  0  0  0  0
  138.2670   76.0290  217.3390 C   0  0  0  0  0  0  0  0  0  0  0  0
  138.6590   75.0740  218.4200 C   0  0  1  0  0  0  0  0  0  0  0  0
  140.0670   74.6390  218.3170 C   0  0  0  0  0  0  0  0  0  0  0  0
  141.0130   75.3650  217.9270 O   0  0  0  0  0  0  0  0  0  0  0  0
  140.3670   73.3030  218.6900 N   0  0  0  0  0  0  0  0  0  0  0  0
  141.6960   72.7320  218.6470 C   0  0  0  0  0  0  0  0  0  0  0  0
  142.1640   72.3330  220.0390 C   0  0  0  0  0  0  0  0  0  0  0  0
  143.2380   73.2770  220.4750 C   0  0  0  0  0  0  0  0  0  0  0  0
  142.8940   74.7100  220.3050 C   0  0  0  0  0  0  0  0  0  0  0  0
  143.6190   75.5030  219.4480 C   0  0  0  0  0  0  0  0  0  0  0  0
  143.2530   76.8200  219.3440 C   0  0  0  0  0  0  0  0  0  0  0  0
  142.1860   77.3650  220.0730 C   0  0  0  0  0  0  0  0  0  0  0  0
  141.8590   78.6040  219.9620 O   0  0  0  0  0  0  0  0  0  0  0  0
  141.4530   79.8360  219.8730 C   0  0  0  0  0  0  0  0  0  0  0  0
  140.5940   80.2300  221.0790 C   0  0  0  0  0  0  0  0  0  0  0  0
  140.7250   79.3860  222.1420 O   0  0  0  0  0  0  0  0  0  0  0  0
  141.1020   79.9180  223.3370 C   0  0  0  0  0  0  0  0  0  0  0  0
  142.5710   80.1040  223.5310 C   0  0  0  0  0  0  0  0  0  0  0  0
  143.3120   79.9710  222.3800 O   0  0  0  0  0  0  0  0  0  0  0  0
  141.5030   76.4920  220.9180 C   0  0  0  0  0  0  0  0  0  0  0  0
  141.8240   75.1780  221.0570 C   0  0  0  0  0  0  0  0  0  0  0  0
  139.9320   71.0470  223.7930 C   0  0  0  0  0  0  0  0  0  0  0  0
  140.6820   71.8890  224.5950 C   0  0  0  0  0  0  0  0  0  0  0  0
  141.0570   71.5100  225.8470 C   0  0  0  0  0  0  0  0  0  0  0  0
  140.7040   70.2850  226.3530 C   0  0  0  0  0  0  0  0  0  0  0  0
  141.0650   69.8640  227.6270 C   0  0  0  0  0  0  0  0  0  0  0  0
  140.6650   68.6100  228.0620 C   0  0  0  0  0  0  0  0  0  0  0  0
  141.0130   68.1820  229.3190 F   0  0  0  0  0  0  0  0  0  0  0  0
  139.9170   67.7590  227.2750 C   0  0  0  0  0  0  0  0  0  0  0  0
  139.5740   68.2170  226.0070 C   0  0  0  0  0  0  0  0  0  0  0  0
  139.9570   69.4570  225.5450 C   0  0  0  0  0  0  0  0  0  0  0  0
  139.5770   69.8260  224.2900 N   0  0  0  0  0  0  0  0  0  0  0  0
  139.0800   73.4470  223.1270 H   0  0  0  0  0  0  0  0  0  0  0  0
  139.3517   72.9849  220.2662 H   0  0  0  0  0  0  0  0  0  0  0  0
  137.6140   73.1050  220.9786 H   0  0  0  0  0  0  0  0  0  0  0  0
  136.8567   76.9764  219.2020 H   0  0  0  0  0  0  0  0  0  0  0  0
  137.6659   77.3643  220.7386 H   0  0  0  0  0  0  0  0  0  0  0  0
  138.5177   78.8904  219.0371 H   0  0  0  0  0  0  0  0  0  0  0  0
  139.8198   77.7078  219.4087 H   0  0  0  0  0  0  0  0  0  0  0  0
  138.2727   78.1287  216.9061 H   0  0  0  0  0  0  0  0  0  0  0  0
  139.9016   77.3987  217.1625 H   0  0  0  0  0  0  0  0  0  0  0  0
  137.1705   76.1169  217.3347 H   0  0  0  0  0  0  0  0  0  0  0  0
  138.6605   75.6237  216.3951 H   0  0  0  0  0  0  0  0  0  0  0  0
  138.0458   74.1712  218.2827 H   0  0  0  0  0  0  0  0  0  0  0  0
  139.5860   72.6990  219.0230 H   0  0  0  0  0  0  0  0  0  0  0  0
  141.6838   71.8407  218.0025 H   0  0  0  0  0  0  0  0  0  0  0  0
  142.3889   73.4872  218.2476 H   0  0  0  0  0  0  0  0  0  0  0  0
  141.3193   72.3839  220.7418 H   0  0  0  0  0  0  0  0  0  0  0  0
  142.5545   71.3048  220.0217 H   0  0  0  0  0  0  0  0  0  0  0  0
  143.4449   73.0959  221.5401 H   0  0  0  0  0  0  0  0  0  0  0  0
  144.1095   73.0828  219.8325 H   0  0  0  0  0  0  0  0  0  0  0  0
  144.4606   75.0965  218.8679 H   0  0  0  0  0  0  0  0  0  0  0  0
  143.8175   77.4740  218.6631 H   0  0  0  0  0  0  0  0  0  0  0  0
  142.3294   80.4991  219.8259 H   0  0  0  0  0  0  0  0  0  0  0  0
  140.8402   79.9338  218.9647 H   0  0  0  0  0  0  0  0  0  0  0  0
  140.8871   81.2407  221.3993 H   0  0  0  0  0  0  0  0  0  0  0  0
  139.5435   80.1814  220.7563 H   0  0  0  0  0  0  0  0  0  0  0  0
  140.6213   80.9026  223.4348 H   0  0  0  0  0  0  0  0  0  0  0  0
  140.7897   79.1899  224.1001 H   0  0  0  0  0  0  0  0  0  0  0  0
  142.7407   81.1125  223.9362 H   0  0  0  0  0  0  0  0  0  0  0  0
  142.9031   79.3091  224.2150 H   0  0  0  0  0  0  0  0  0  0  0  0
  142.8670   79.3400  221.7640 H   0  0  0  0  0  0  0  0  0  0  0  0
  140.6596   76.8869  221.5034 H   0  0  0  0  0  0  0  0  0  0  0  0
  141.2626   74.5166  221.7333 H   0  0  0  0  0  0  0  0  0  0  0  0
  140.9790   72.8778  224.2155 H   0  0  0  0  0  0  0  0  0  0  0  0
  141.6536   72.1980  226.4640 H   0  0  0  0  0  0  0  0  0  0  0  0
  141.6604   70.5172  228.2818 H   0  0  0  0  0  0  0  0  0  0  0  0
  139.6068   66.7662  227.6328 H   0  0  0  0  0  0  0  0  0  0  0  0
  138.9766   67.5669  225.3509 H   0  0  0  0  0  0  0  0  0  0  0  0
  1  2  2  0
  2  3  1  0
  3  4  1  0
  4  5  1  0
  5  6  2  0
  5  7  1  0
  7  8  1  0
  8  9  1  0
  9 10  1  0
 10 11  1  0
 11 12  1  0
 12 13  1  0
 13 14  2  0
 13 15  1  0
 15 16  1  0
 16 17  1  0
 17 18  1  0
 18 19  1  0
 19 20  2  0
 20 21  1  0
 21 22  2  0
 22 23  1  0
 23 24  1  0
 24 25  1  0
 25 26  1  0
 26 27  1  0
 27 28  1  0
 28 29  1  0
 22 30  1  0
 30 31  2  0
  2 32  1  0
 32 33  2  0
 33 34  1  0
 34 35  2  0
 35 36  1  0
 36 37  2  0
 37 38  1  0
 37 39  1  0
 39 40  2  0
 40 41  1  0
 41 42  2  0
 12  7  1  0
 31 19  1  0
 42 32  1  0
 41 35  1  0
  3 43  1  0
  4 44  1  0
  4 45  1  0
  8 46  1  0
  8 47  1  0
  9 48  1  0
  9 49  1  0
 10 50  1  0
 10 51  1  0
 11 52  1  0
 11 53  1  0
 12 54  1  6
 15 55  1  0
 16 56  1  0
 16 57  1  0
 17 58  1  0
 17 59  1  0
 18 60  1  0
 18 61  1  0
 20 62  1  0
 21 63  1  0
 24 64  1  0
 24 65  1  0
 25 66  1  0
 25 67  1  0
 27 68  1  0
 27 69  1  0
 28 70  1  0
 28 71  1  0
 29 72  1  0
 30 73  1  0
 31 74  1  0
 33 75  1  0
 34 76  1  0
 36 77  1  0
 39 78  1  0
 40 79  1  0
M  END
>  <smiles>  (9) 
O=C(NCC(=O)N1CCCC[C@H]1C(=O)NCCCc1ccc(OCCOCCO)cc1)c1ccc2cc(F)ccc2n1

>  <score_type>  (9) 
oracle

>  <origin>  (9) 
autodockgpu

>  <m_score__min__energy>  (9) 
-7.8899999999999997

>  <m_primary>  (9) 
energy

>  <meeko>  (9) 
{"free_energy": -5.75, "intermolecular_energy": -10.52, "internal_energy": -5.87, "cluster_size": 1, "cluster_id": 11, "rank_in_cluster": 1}

>  <energy>  (9) 
-4.83

>  <cluster_rmsd>  (9) 
1.95

>  <rmsd>  (9) 
269.16

>  <cluster>  (9) 
6

$$$$

     RDKit          3D

 79 82  0  0  0  0  0  0  0  0999 V2000
  138.7290   74.3220  221.9120 O   0  0  0  0  0  0  0  0  0  0  0  0
  139.8320   74.8260  221.5830 C   0  0  0  0  0  0  0  0  0  0  0  0
  139.9800   76.2580  221.5050 N   0  0  0  0  0  0  0  0  0  0  0  0
  138.9310   77.1830  221.7770 C   0  0  0  0  0  0  0  0  0  0  0  0
  139.1660   78.6170  221.6560 C   0  0  0  0  0  0  0  0  0  0  0  0
  138.2430   79.2160  220.9350 O   0  0  0  0  0  0  0  0  0  0  0  0
  140.1540   79.4560  222.1510 N   0  0  0  0  0  0  0  0  0  0  0  0
  140.3850   79.9110  223.4980 C   0  0  0  0  0  0  0  0  0  0  0  0
  141.7950   79.5050  223.8710 C   0  0  0  0  0  0  0  0  0  0  0  0
  142.7960   80.3020  223.0420 C   0  0  0  0  0  0  0  0  0  0  0  0
  142.1190   80.8950  221.8250 C   0  0  0  0  0  0  0  0  0  0  0  0
  141.1430   79.9720  221.1680 C   0  0  1  0  0  0  0  0  0  0  0  0
  141.8020   78.8690  220.4370 C   0  0  0  0  0  0  0  0  0  0  0  0
  142.0730   77.7480  220.9280 O   0  0  0  0  0  0  0  0  0  0  0  0
  142.1480   79.1000  219.0810 N   0  0  0  0  0  0  0  0  0  0  0  0
  142.7930   78.1190  218.2340 C   0  0  0  0  0  0  0  0  0  0  0  0
  141.7790   77.4140  217.3460 C   0  0  0  0  0  0  0  0  0  0  0  0
  141.4490   76.0870  217.9500 C   0  0  0  0  0  0  0  0  0  0  0  0
  142.3950   75.0030  217.5880 C   0  0  0  0  0  0  0  0  0  0  0  0
  143.6750   75.3020  217.1880 C   0  0  0  0  0  0  0  0  0  0  0  0
  144.4960   74.2530  216.8600 C   0  0  0  0  0  0  0  0  0  0  0  0
  144.0710   72.9170  216.9210 C   0  0  0  0  0  0  0  0  0  0  0  0
  144.8560   71.9470  216.6080 O   0  0  0  0  0  0  0  0  0  0  0  0
  145.5940   70.9150  216.3230 C   0  0  0  0  0  0  0  0  0  0  0  0
  145.7690   70.0010  217.5390 C   0  0  0  0  0  0  0  0  0  0  0  0
  144.7460   69.1160  217.7090 O   0  0  0  0  0  0  0  0  0  0  0  0
  145.0540   67.7920  217.7950 C   0  0  0  0  0  0  0  0  0  0  0  0
  145.6390   67.3450  219.0950 C   0  0  0  0  0  0  0  0  0  0  0  0
  145.6340   68.3080  220.0760 O   0  0  0  0  0  0  0  0  0  0  0  0
  142.7590   72.7020  217.3390 C   0  0  0  0  0  0  0  0  0  0  0  0
  141.9050   73.7060  217.6760 C   0  0  0  0  0  0  0  0  0  0  0  0
  141.0150   74.0140  221.2630 C   0  0  0  0  0  0  0  0  0  0  0  0
  140.9280   72.6350  221.2020 C   0  0  0  0  0  0  0  0  0  0  0  0
  142.0200   71.8780  220.9050 C   0  0  0  0  0  0  0  0  0  0  0  0
  143.2370   72.4580  220.6560 C   0  0  0  0  0  0  0  0  0  0  0  0
  144.3740   71.7200  220.3450 C   0  0  0  0  0  0  0  0  0  0  0  0
  145.5660   72.3860  220.1060 C   0  0  0  0  0  0  0  0  0  0  0  0
  146.6960   71.6700  219.7970 F   0  0  0  0  0  0  0  0  0  0  0  0
  145.6690   73.7610  220.1620 C   0  0  0  0  0  0  0  0  0  0  0  0
  144.5100   74.4630  220.4740 C   0  0  0  0  0  0  0  0  0  0  0  0
  143.3110   73.8320  220.7180 C   0  0  0  0  0  0  0  0  0  0  0  0
  142.2240   74.5980  221.0150 N   0  0  0  0  0  0  0  0  0  0  0  0
  140.9190   76.6450  221.2310 H   0  0  0  0  0  0  0  0  0  0  0  0
  138.1076   76.9384  221.0899 H   0  0  0  0  0  0  0  0  0  0  0  0
  138.7526   77.0489  222.8541 H   0  0  0  0  0  0  0  0  0  0  0  0
  140.2815   81.0049  223.5494 H   0  0  0  0  0  0  0  0  0  0  0  0
  139.6544   79.4681  224.1909 H   0  0  0  0  0  0  0  0  0  0  0  0
  141.9628   79.7061  224.9394 H   0  0  0  0  0  0  0  0  0  0  0  0
  141.9297   78.4317  223.6714 H   0  0  0  0  0  0  0  0  0  0  0  0
  143.2114   81.1137  223.6573 H   0  0  0  0  0  0  0  0  0  0  0  0
  143.6008   79.6294  222.7106 H   0  0  0  0  0  0  0  0  0  0  0  0
  141.5824   81.8038  222.1349 H   0  0  0  0  0  0  0  0  0  0  0  0
  142.9090   81.1033  221.0884 H   0  0  0  0  0  0  0  0  0  0  0  0
  140.6038   80.5642  220.4140 H   0  0  0  0  0  0  0  0  0  0  0  0
  141.9160   80.0270  218.6660 H   0  0  0  0  0  0  0  0  0  0  0  0
  143.5363   78.6244  217.6000 H   0  0  0  0  0  0  0  0  0  0  0  0
  143.2792   77.3686  218.8747 H   0  0  0  0  0  0  0  0  0  0  0  0
  140.8663   78.0234  217.2714 H   0  0  0  0  0  0  0  0  0  0  0  0
  142.1991   77.2720  216.3393 H   0  0  0  0  0  0  0  0  0  0  0  0
  141.4513   76.1958  219.0446 H   0  0  0  0  0  0  0  0  0  0  0  0
  140.4656   75.7944  217.5534 H   0  0  0  0  0  0  0  0  0  0  0  0
  144.0279   76.3424  217.1329 H   0  0  0  0  0  0  0  0  0  0  0  0
  145.5256   74.4671  216.5372 H   0  0  0  0  0  0  0  0  0  0  0  0
  145.1153   70.3453  215.5129 H   0  0  0  0  0  0  0  0  0  0  0  0
  146.5867   71.2739  216.0137 H   0  0  0  0  0  0  0  0  0  0  0  0
  146.7030   69.4332  217.4155 H   0  0  0  0  0  0  0  0  0  0  0  0
  145.7867   70.6479  218.4285 H   0  0  0  0  0  0  0  0  0  0  0  0
  144.1307   67.2187  217.6252 H   0  0  0  0  0  0  0  0  0  0  0  0
  145.8341   67.6164  217.0396 H   0  0  0  0  0  0  0  0  0  0  0  0
  145.0596   66.4823  219.4555 H   0  0  0  0  0  0  0  0  0  0  0  0
  146.6931   67.0987  218.8992 H   0  0  0  0  0  0  0  0  0  0  0  0
  145.0100   69.0340  219.8320 H   0  0  0  0  0  0  0  0  0  0  0  0
  142.3947   71.6658  217.3997 H   0  0  0  0  0  0  0  0  0  0  0  0
  140.8750   73.5005  218.0028 H   0  0  0  0  0  0  0  0  0  0  0  0
  139.9634   72.1432  221.3961 H   0  0  0  0  0  0  0  0  0  0  0  0
  141.9242   70.7829  220.8642 H   0  0  0  0  0  0  0  0  0  0  0  0
  144.3280   70.6224  220.2894 H   0  0  0  0  0  0  0  0  0  0  0  0
  146.6214   74.2765  219.9692 H   0  0  0  0  0  0  0  0  0  0  0  0
  144.5526   75.5609  220.5277 H   0  0  0  0  0  0  0  0  0  0  0  0
  1  2  2  0
  2  3  1  0
  3  4  1  0
  4  5  1  0
  5  6  2  0
  5  7  1  0
  7  8  1  0
  8  9  1  0
  9 10  1  0
 10 11  1  0
 11 12  1  0
 12 13  1  0
 13 14  2  0
 13 15  1  0
 15 16  1  0
 16 17  1  0
 17 18  1  0
 18 19  1  0
 19 20  2  0
 20 21  1  0
 21 22  2  0
 22 23  1  0
 23 24  1  0
 24 25  1  0
 25 26  1  0
 26 27  1  0
 27 28  1  0
 28 29  1  0
 22 30  1  0
 30 31  2  0
  2 32  1  0
 32 33  2  0
 33 34  1  0
 34 35  2  0
 35 36  1  0
 36 37  2  0
 37 38  1  0
 37 39  1  0
 39 40  2  0
 40 41  1  0
 41 42  2  0
 12  7  1  0
 31 19  1  0
 42 32  1  0
 41 35  1  0
  3 43  1  0
  4 44  1  0
  4 45  1  0
  8 46  1  0
  8 47  1  0
  9 48  1  0
  9 49  1  0
 10 50  1  0
 10 51  1  0
 11 52  1  0
 11 53  1  0
 12 54  1  6
 15 55  1  0
 16 56  1  0
 16 57  1  0
 17 58  1  0
 17 59  1  0
 18 60  1  0
 18 61  1  0
 20 62  1  0
 21 63  1  0
 24 64  1  0
 24 65  1  0
 25 66  1  0
 25 67  1  0
 27 68  1  0
 27 69  1  0
 28 70  1  0
 28 71  1  0
 29 72  1  0
 30 73  1  0
 31 74  1  0
 33 75  1  0
 34 76  1  0
 36 77  1  0
 39 78  1  0
 40 79  1  0
M  END
>  <smiles>  (10) 
O=C(NCC(=O)N1CCCC[C@H]1C(=O)NCCCc1ccc(OCCOCCO)cc1)c1ccc2cc(F)ccc2n1

>  <score_type>  (10) 
oracle

>  <origin>  (10) 
autodockgpu

>  <m_score__min__energy>  (10) 
-7.8899999999999997

>  <m_primary>  (10) 
energy

>  <meeko>  (10) 
{"free_energy": -4.84, "intermolecular_energy": -9.61, "internal_energy": -6.39, "cluster_size": 1, "cluster_id": 12, "rank_in_cluster": 1}

>  <energy>  (10) 
-6.04

>  <cluster_rmsd>  (10) 
0.0

>  <rmsd>  (10) 
269.08

>  <cluster>  (10) 
7

$$$$

     RDKit          3D

 79 82  0  0  0  0  0  0  0  0999 V2000
  141.0480   77.1220  217.5400 O   0  0  0  0  0  0  0  0  0  0  0  0
  141.0450   76.9810  218.7880 C   0  0  0  0  0  0  0  0  0  0  0  0
  140.7350   75.7000  219.3720 N   0  0  0  0  0  0  0  0  0  0  0  0
  140.4130   74.5370  218.6150 C   0  0  0  0  0  0  0  0  0  0  0  0
  139.5880   73.4850  219.1980 C   0  0  0  0  0  0  0  0  0  0  0  0
  138.4660   73.3040  218.5350 O   0  0  0  0  0  0  0  0  0  0  0  0
  139.7590   72.6500  220.2930 N   0  0  0  0  0  0  0  0  0  0  0  0
  140.6330   71.5170  220.4590 C   0  0  0  0  0  0  0  0  0  0  0  0
  141.5030   71.7970  221.6660 C   0  0  0  0  0  0  0  0  0  0  0  0
  140.6490   71.7850  222.9280 C   0  0  0  0  0  0  0  0  0  0  0  0
  139.1860   71.9520  222.5780 C   0  0  0  0  0  0  0  0  0  0  0  0
  138.9360   72.9510  221.4940 C   0  0  1  0  0  0  0  0  0  0  0  0
  139.1310   74.3450  221.9450 C   0  0  0  0  0  0  0  0  0  0  0  0
  140.2430   74.9190  222.0320 O   0  0  0  0  0  0  0  0  0  0  0  0
  137.9740   75.0840  222.3020 N   0  0  0  0  0  0  0  0  0  0  0  0
  138.0010   76.4570  222.7580 C   0  0  0  0  0  0  0  0  0  0  0  0
  137.5190   77.4040  221.6680 C   0  0  0  0  0  0  0  0  0  0  0  0
  138.3240   78.6620  221.7320 C   0  0  0  0  0  0  0  0  0  0  0  0
  137.9740   79.5510  222.8660 C   0  0  0  0  0  0  0  0  0  0  0  0
  138.9370   80.3280  223.4630 C   0  0  0  0  0  0  0  0  0  0  0  0
  138.5480   81.1210  224.5130 C   0  0  0  0  0  0  0  0  0  0  0  0
  137.2260   81.1560  224.9800 C   0  0  0  0  0  0  0  0  0  0  0  0
  136.8810   81.9060  225.9670 O   0  0  0  0  0  0  0  0  0  0  0  0
  136.4720   82.6110  226.9800 C   0  0  0  0  0  0  0  0  0  0  0  0
  135.4750   81.8280  227.8390 C   0  0  0  0  0  0  0  0  0  0  0  0
  136.0210   81.3160  228.9790 O   0  0  0  0  0  0  0  0  0  0  0  0
  135.4450   81.6460  230.1680 C   0  0  0  0  0  0  0  0  0  0  0  0
  133.9920   81.3210  230.2970 C   0  0  0  0  0  0  0  0  0  0  0  0
  133.5830   80.2550  229.5310 O   0  0  0  0  0  0  0  0  0  0  0  0
  136.3120   80.3380  224.3180 C   0  0  0  0  0  0  0  0  0  0  0  0
  136.6460   79.5340  223.2720 C   0  0  0  0  0  0  0  0  0  0  0  0
  141.3480   78.0810  219.7150 C   0  0  0  0  0  0  0  0  0  0  0  0
  141.5300   79.3700  219.2450 C   0  0  0  0  0  0  0  0  0  0  0  0
  141.8090   80.3920  220.0990 C   0  0  0  0  0  0  0  0  0  0  0  0
  141.9200   80.1780  221.4490 C   0  0  0  0  0  0  0  0  0  0  0  0
  142.2010   81.1960  222.3530 C   0  0  0  0  0  0  0  0  0  0  0  0
  142.2940   80.8930  223.7030 C   0  0  0  0  0  0  0  0  0  0  0  0
  142.5700   81.8890  224.6060 F   0  0  0  0  0  0  0  0  0  0  0  0
  142.1170   79.6130  224.1870 C   0  0  0  0  0  0  0  0  0  0  0  0
  141.8350   78.6230  223.2520 C   0  0  0  0  0  0  0  0  0  0  0  0
  141.7370   78.8910  221.9050 C   0  0  0  0  0  0  0  0  0  0  0  0
  141.4570   77.8610  221.0580 N   0  0  0  0  0  0  0  0  0  0  0  0
  140.7470   75.6170  220.4200 H   0  0  0  0  0  0  0  0  0  0  0  0
  139.8915   74.8829  217.7104 H   0  0  0  0  0  0  0  0  0  0  0  0
  141.3886   74.0459  218.4847 H   0  0  0  0  0  0  0  0  0  0  0  0
  140.0407   70.6050  220.6246 H   0  0  0  0  0  0  0  0  0  0  0  0
  141.2487   71.3634  219.5605 H   0  0  0  0  0  0  0  0  0  0  0  0
  142.2810   71.0232  221.7435 H   0  0  0  0  0  0  0  0  0  0  0  0
  141.9744   72.7846  221.5543 H   0  0  0  0  0  0  0  0  0  0  0  0
  140.7893   70.8276  223.4512 H   0  0  0  0  0  0  0  0  0  0  0  0
  140.9580   72.6190  223.5753 H   0  0  0  0  0  0  0  0  0  0  0  0
  138.7945   70.9780  222.2493 H   0  0  0  0  0  0  0  0  0  0  0  0
  138.6807   72.3253  223.4810 H   0  0  0  0  0  0  0  0  0  0  0  0
  137.8752   72.8608  221.2174 H   0  0  0  0  0  0  0  0  0  0  0  0
  137.0470   74.6140  222.2220 H   0  0  0  0  0  0  0  0  0  0  0  0
  137.3467   76.5571  223.6365 H   0  0  0  0  0  0  0  0  0  0  0  0
  139.0373   76.7197  223.0170 H   0  0  0  0  0  0  0  0  0  0  0  0
  137.6495   76.9313  220.6833 H   0  0  0  0  0  0  0  0  0  0  0  0
  136.4537   77.6341  221.8171 H   0  0  0  0  0  0  0  0  0  0  0  0
  139.3854   78.3880  221.8234 H   0  0  0  0  0  0  0  0  0  0  0  0
  138.1063   79.2235  220.8115 H   0  0  0  0  0  0  0  0  0  0  0  0
  139.9797   80.3149  223.1127 H   0  0  0  0  0  0  0  0  0  0  0  0
  139.3010   81.7528  225.0069 H   0  0  0  0  0  0  0  0  0  0  0  0
  137.3392   82.8855  227.5986 H   0  0  0  0  0  0  0  0  0  0  0  0
  135.9671   83.5094  226.5954 H   0  0  0  0  0  0  0  0  0  0  0  0
  134.6528   82.5027  228.1197 H   0  0  0  0  0  0  0  0  0  0  0  0
  135.1292   80.9756  227.2358 H   0  0  0  0  0  0  0  0  0  0  0  0
  135.9830   81.1106  230.9642 H   0  0  0  0  0  0  0  0  0  0  0  0
  135.5147   82.7414  230.2409 H   0  0  0  0  0  0  0  0  0  0  0  0
  133.7828   81.0885  231.3516 H   0  0  0  0  0  0  0  0  0  0  0  0
  133.4381   82.2004  229.9366 H   0  0  0  0  0  0  0  0  0  0  0  0
  134.3190   79.9630  228.9390 H   0  0  0  0  0  0  0  0  0  0  0  0
  135.2661   80.3425  224.6588 H   0  0  0  0  0  0  0  0  0  0  0  0
  135.8990   78.9003  222.7715 H   0  0  0  0  0  0  0  0  0  0  0  0
  141.4480   79.5710  218.1666 H   0  0  0  0  0  0  0  0  0  0  0  0
  141.9479   81.4074  219.6995 H   0  0  0  0  0  0  0  0  0  0  0  0
  142.3476   82.2282  222.0021 H   0  0  0  0  0  0  0  0  0  0  0  0
  142.1952   79.3866  225.2606 H   0  0  0  0  0  0  0  0  0  0  0  0
  141.6851   77.5905  223.6004 H   0  0  0  0  0  0  0  0  0  0  0  0
  1  2  2  0
  2  3  1  0
  3  4  1  0
  4  5  1  0
  5  6  2  0
  5  7  1  0
  7  8  1  0
  8  9  1  0
  9 10  1  0
 10 11  1  0
 11 12  1  0
 12 13  1  0
 13 14  2  0
 13 15  1  0
 15 16  1  0
 16 17  1  0
 17 18  1  0
 18 19  1  0
 19 20  2  0
 20 21  1  0
 21 22  2  0
 22 23  1  0
 23 24  1  0
 24 25  1  0
 25 26  1  0
 26 27  1  0
 27 28  1  0
 28 29  1  0
 22 30  1  0
 30 31  2  0
  2 32  1  0
 32 33  2  0
 33 34  1  0
 34 35  2  0
 35 36  1  0
 36 37  2  0
 37 38  1  0
 37 39  1  0
 39 40  2  0
 40 41  1  0
 41 42  2  0
 12  7  1  0
 31 19  1  0
 42 32  1  0
 41 35  1  0
  3 43  1  0
  4 44  1  0
  4 45  1  0
  8 46  1  0
  8 47  1  0
  9 48  1  0
  9 49  1  0
 10 50  1  0
 10 51  1  0
 11 52  1  0
 11 53  1  0
 12 54  1  6
 15 55  1  0
 16 56  1  0
 16 57  1  0
 17 58  1  0
 17 59  1  0
 18 60  1  0
 18 61  1  0
 20 62  1  0
 21 63  1  0
 24 64  1  0
 24 65  1  0
 25 66  1  0
 25 67  1  0
 27 68  1  0
 27 69  1  0
 28 70  1  0
 28 71  1  0
 29 72  1  0
 30 73  1  0
 31 74  1  0
 33 75  1  0
 34 76  1  0
 36 77  1  0
 39 78  1  0
 40 79  1  0
M  END
>  <smiles>  (11) 
O=C(NCC(=O)N1CCCC[C@H]1C(=O)NCCCc1ccc(OCCOCCO)cc1)c1ccc2cc(F)ccc2n1

>  <score_type>  (11) 
oracle

>  <origin>  (11) 
autodockgpu

>  <m_score__min__energy>  (11) 
-7.8899999999999997

>  <m_primary>  (11) 
energy

>  <meeko>  (11) 
{"free_energy": -5.93, "intermolecular_energy": -10.71, "internal_energy": -5.32, "cluster_size": 1, "cluster_id": 8, "rank_in_cluster": 1}

>  <energy>  (11) 
-5.93

>  <cluster_rmsd>  (11) 
0.0

>  <rmsd>  (11) 
270.2

>  <cluster>  (11) 
8

$$$$

     RDKit          3D

 79 82  0  0  0  0  0  0  0  0999 V2000
  141.3140   77.3150  217.4060 O   0  0  0  0  0  0  0  0  0  0  0  0
  141.2880   77.1060  218.6440 C   0  0  0  0  0  0  0  0  0  0  0  0
  140.9970   75.7880  219.1500 N   0  0  0  0  0  0  0  0  0  0  0  0
  140.7190   74.6610  218.3240 C   0  0  0  0  0  0  0  0  0  0  0  0
  141.5590   73.4710  218.3970 C   0  0  0  0  0  0  0  0  0  0  0  0
  141.0610   72.4640  217.7110 O   0  0  0  0  0  0  0  0  0  0  0  0
  142.7610   73.2020  219.0340 N   0  0  0  0  0  0  0  0  0  0  0  0
  144.0910   73.6560  218.7190 C   0  0  0  0  0  0  0  0  0  0  0  0
  144.6260   74.3610  219.9470 C   0  0  0  0  0  0  0  0  0  0  0  0
  144.8440   73.3500  221.0660 C   0  0  0  0  0  0  0  0  0  0  0  0
  144.0640   72.0820  220.7910 C   0  0  0  0  0  0  0  0  0  0  0  0
  142.6990   72.3240  220.2330 C   0  0  1  0  0  0  0  0  0  0  0  0
  141.7540   72.8530  221.2390 C   0  0  0  0  0  0  0  0  0  0  0  0
  141.6310   74.0650  221.5360 O   0  0  0  0  0  0  0  0  0  0  0  0
  140.9270   71.9180  221.9130 N   0  0  0  0  0  0  0  0  0  0  0  0
  139.9520   72.2800  222.9200 C   0  0  0  0  0  0  0  0  0  0  0  0
  138.5500   72.3270  222.3300 C   0  0  0  0  0  0  0  0  0  0  0  0
  138.5190   73.3500  221.2400 C   0  0  0  0  0  0  0  0  0  0  0  0
  138.2880   74.7360  221.7140 C   0  0  0  0  0  0  0  0  0  0  0  0
  139.3500   75.5660  221.9830 C   0  0  0  0  0  0  0  0  0  0  0  0
  139.0660   76.8320  222.4260 C   0  0  0  0  0  0  0  0  0  0  0  0
  137.7520   77.2900  222.6070 C   0  0  0  0  0  0  0  0  0  0  0  0
  137.5070   78.4810  223.0240 O   0  0  0  0  0  0  0  0  0  0  0  0
  137.1840   79.6600  223.4680 C   0  0  0  0  0  0  0  0  0  0  0  0
  138.4220   80.4570  223.8880 C   0  0  0  0  0  0  0  0  0  0  0  0
  139.2750   80.7250  222.8580 O   0  0  0  0  0  0  0  0  0  0  0  0
  138.8040   81.4640  221.8150 C   0  0  0  0  0  0  0  0  0  0  0  0
  138.6060   80.7230  220.5320 C   0  0  0  0  0  0  0  0  0  0  0  0
  138.8480   79.3730  220.6190 O   0  0  0  0  0  0  0  0  0  0  0  0
  136.7340   76.3850  222.3100 C   0  0  0  0  0  0  0  0  0  0  0  0
  136.9620   75.1190  221.8670 C   0  0  0  0  0  0  0  0  0  0  0  0
  141.5450   78.1600  219.6350 C   0  0  0  0  0  0  0  0  0  0  0  0
  141.8150   79.4560  219.2340 C   0  0  0  0  0  0  0  0  0  0  0  0
  142.0520   80.4360  220.1470 C   0  0  0  0  0  0  0  0  0  0  0  0
  142.0310   80.1710  221.4930 C   0  0  0  0  0  0  0  0  0  0  0  0
  142.2650   81.1450  222.4570 C   0  0  0  0  0  0  0  0  0  0  0  0
  142.2230   80.7920  223.7970 C   0  0  0  0  0  0  0  0  0  0  0  0
  142.4500   81.7440  224.7590 F   0  0  0  0  0  0  0  0  0  0  0  0
  141.9550   79.5040  224.2140 C   0  0  0  0  0  0  0  0  0  0  0  0
  141.7250   78.5590  223.2200 C   0  0  0  0  0  0  0  0  0  0  0  0
  141.7600   78.8770  221.8810 C   0  0  0  0  0  0  0  0  0  0  0  0
  141.5220   77.8890  220.9740 N   0  0  0  0  0  0  0  0  0  0  0  0
  140.9890   75.6480  220.1930 H   0  0  0  0  0  0  0  0  0  0  0  0
  139.6942   74.3398  218.5618 H   0  0  0  0  0  0  0  0  0  0  0  0
  140.9115   75.0409  217.3098 H   0  0  0  0  0  0  0  0  0  0  0  0
  144.7323   72.7984  218.4675 H   0  0  0  0  0  0  0  0  0  0  0  0
  144.0770   74.3352  217.8539 H   0  0  0  0  0  0  0  0  0  0  0  0
  145.5819   74.8470  219.7021 H   0  0  0  0  0  0  0  0  0  0  0  0
  143.9001   75.1186  220.2771 H   0  0  0  0  0  0  0  0  0  0  0  0
  145.9152   73.1092  221.1333 H   0  0  0  0  0  0  0  0  0  0  0  0
  144.4942   73.7856  222.0136 H   0  0  0  0  0  0  0  0  0  0  0  0
  144.6312   71.4752  220.0698 H   0  0  0  0  0  0  0  0  0  0  0  0
  143.9302   71.5718  221.7563 H   0  0  0  0  0  0  0  0  0  0  0  0
  142.3055   71.3443  219.9241 H   0  0  0  0  0  0  0  0  0  0  0  0
  141.0190   70.9110  221.6630 H   0  0  0  0  0  0  0  0  0  0  0  0
  139.9770   71.5351  223.7290 H   0  0  0  0  0  0  0  0  0  0  0  0
  140.2027   73.2785  223.3075 H   0  0  0  0  0  0  0  0  0  0  0  0
  138.2889   71.3408  221.9187 H   0  0  0  0  0  0  0  0  0  0  0  0
  137.8243   72.5932  223.1126 H   0  0  0  0  0  0  0  0  0  0  0  0
  139.4841   73.3219  220.7129 H   0  0  0  0  0  0  0  0  0  0  0  0
  137.6704   73.0929  220.5890 H   0  0  0  0  0  0  0  0  0  0  0  0
  140.3879   75.2275  221.8480 H   0  0  0  0  0  0  0  0  0  0  0  0
  139.8996   77.5145  222.6479 H   0  0  0  0  0  0  0  0  0  0  0  0
  136.6570   80.2094  222.6741 H   0  0  0  0  0  0  0  0  0  0  0  0
  136.5383   79.5332  224.3495 H   0  0  0  0  0  0  0  0  0  0  0  0
  138.0901   81.4118  224.3219 H   0  0  0  0  0  0  0  0  0  0  0  0
  138.9739   79.8380  224.6107 H   0  0  0  0  0  0  0  0  0  0  0  0
  137.8341   81.8890  222.1128 H   0  0  0  0  0  0  0  0  0  0  0  0
  139.5776   82.2184  221.6089 H   0  0  0  0  0  0  0  0  0  0  0  0
  137.5648   80.8668  220.2075 H   0  0  0  0  0  0  0  0  0  0  0  0
  139.3351   81.1297  219.8158 H   0  0  0  0  0  0  0  0  0  0  0  0
  138.9600   79.1100  221.5650 H   0  0  0  0  0  0  0  0  0  0  0  0
  135.6918   76.7116  222.4407 H   0  0  0  0  0  0  0  0  0  0  0  0
  136.1344   74.4307  221.6405 H   0  0  0  0  0  0  0  0  0  0  0  0
  141.8384   79.6976  218.1611 H   0  0  0  0  0  0  0  0  0  0  0  0
  142.2641   81.4582  219.8004 H   0  0  0  0  0  0  0  0  0  0  0  0
  142.4806   82.1821  222.1604 H   0  0  0  0  0  0  0  0  0  0  0  0
  141.9248   79.2378  225.2809 H   0  0  0  0  0  0  0  0  0  0  0  0
  141.5076   77.5215  223.5138 H   0  0  0  0  0  0  0  0  0  0  0  0
  1  2  2  0
  2  3  1  0
  3  4  1  0
  4  5  1  0
  5  6  2  0
  5  7  1  0
  7  8  1  0
  8  9  1  0
  9 10  1  0
 10 11  1  0
 11 12  1  0
 12 13  1  0
 13 14  2  0
 13 15  1  0
 15 16  1  0
 16 17  1  0
 17 18  1  0
 18 19  1  0
 19 20  2  0
 20 21  1  0
 21 22  2  0
 22 23  1  0
 23 24  1  0
 24 25  1  0
 25 26  1  0
 26 27  1  0
 27 28  1  0
 28 29  1  0
 22 30  1  0
 30 31  2  0
  2 32  1  0
 32 33  2  0
 33 34  1  0
 34 35  2  0
 35 36  1  0
 36 37  2  0
 37 38  1  0
 37 39  1  0
 39 40  2  0
 40 41  1  0
 41 42  2  0
 12  7  1  0
 31 19  1  0
 42 32  1  0
 41 35  1  0
  3 43  1  0
  4 44  1  0
  4 45  1  0
  8 46  1  0
  8 47  1  0
  9 48  1  0
  9 49  1  0
 10 50  1  0
 10 51  1  0
 11 52  1  0
 11 53  1  0
 12 54  1  6
 15 55  1  0
 16 56  1  0
 16 57  1  0
 17 58  1  0
 17 59  1  0
 18 60  1  0
 18 61  1  0
 20 62  1  0
 21 63  1  0
 24 64  1  0
 24 65  1  0
 25 66  1  0
 25 67  1  0
 27 68  1  0
 27 69  1  0
 28 70  1  0
 28 71  1  0
 29 72  1  0
 30 73  1  0
 31 74  1  0
 33 75  1  0
 34 76  1  0
 36 77  1  0
 39 78  1  0
 40 79  1  0
M  END
>  <smiles>  (12) 
O=C(NCC(=O)N1CCCC[C@H]1C(=O)NCCCc1ccc(OCCOCCO)cc1)c1ccc2cc(F)ccc2n1

>  <score_type>  (12) 
oracle

>  <origin>  (12) 
autodockgpu

>  <m_score__min__energy>  (12) 
-7.8899999999999997

>  <m_primary>  (12) 
energy

>  <meeko>  (12) 
{"free_energy": -3.97, "intermolecular_energy": -8.75, "internal_energy": -7.38, "cluster_size": 1, "cluster_id": 15, "rank_in_cluster": 1}

>  <energy>  (12) 
-5.88

>  <cluster_rmsd>  (12) 
0.0

>  <rmsd>  (12) 
269.83

>  <cluster>  (12) 
9

$$$$

     RDKit          3D

 79 82  0  0  0  0  0  0  0  0999 V2000
  140.2610   71.0990  221.4510 O   0  0  0  0  0  0  0  0  0  0  0  0
  139.6500   71.4920  222.4760 C   0  0  0  0  0  0  0  0  0  0  0  0
  138.5520   72.4170  222.3550 N   0  0  0  0  0  0  0  0  0  0  0  0
  138.0900   72.9470  221.1150 C   0  0  0  0  0  0  0  0  0  0  0  0
  138.2950   74.3540  220.7950 C   0  0  0  0  0  0  0  0  0  0  0  0
  137.1790   74.9560  220.4420 O   0  0  0  0  0  0  0  0  0  0  0  0
  139.4190   75.1680  220.7970 N   0  0  0  0  0  0  0  0  0  0  0  0
  140.2860   75.5420  219.7090 C   0  0  0  0  0  0  0  0  0  0  0  0
  140.2910   77.0550  219.6420 C   0  0  0  0  0  0  0  0  0  0  0  0
  140.9880   77.6210  220.8730 C   0  0  0  0  0  0  0  0  0  0  0  0
  141.0540   76.5790  221.9690 C   0  0  0  0  0  0  0  0  0  0  0  0
  139.8070   75.7660  222.1020 C   0  0  1  0  0  0  0  0  0  0  0  0
  138.6890   76.5250  222.7000 C   0  0  0  0  0  0  0  0  0  0  0  0
  138.7340   77.7400  223.0070 O   0  0  0  0  0  0  0  0  0  0  0  0
  137.4780   75.8260  222.9400 N   0  0  0  0  0  0  0  0  0  0  0  0
  136.2960   76.4310  223.5150 C   0  0  0  0  0  0  0  0  0  0  0  0
  135.3330   76.8860  222.4290 C   0  0  0  0  0  0  0  0  0  0  0  0
  135.0500   78.3430  222.6150 C   0  0  0  0  0  0  0  0  0  0  0  0
  136.2480   79.2120  222.5160 C   0  0  0  0  0  0  0  0  0  0  0  0
  136.6490   79.9690  223.5920 C   0  0  0  0  0  0  0  0  0  0  0  0
  137.7600   80.7560  223.4300 C   0  0  0  0  0  0  0  0  0  0  0  0
  138.4780   80.8090  222.2260 C   0  0  0  0  0  0  0  0  0  0  0  0
  139.5170   81.5550  222.0950 O   0  0  0  0  0  0  0  0  0  0  0  0
  140.5810   82.2740  221.8900 C   0  0  0  0  0  0  0  0  0  0  0  0
  141.8220   81.6240  222.5080 C   0  0  0  0  0  0  0  0  0  0  0  0
  141.9850   80.3150  222.1580 O   0  0  0  0  0  0  0  0  0  0  0  0
  142.5440   79.4750  223.0720 C   0  0  0  0  0  0  0  0  0  0  0  0
  141.6560   79.0570  224.1990 C   0  0  0  0  0  0  0  0  0  0  0  0
  140.3430   79.4350  224.0500 O   0  0  0  0  0  0  0  0  0  0  0  0
  138.0040   80.0090  221.1870 C   0  0  0  0  0  0  0  0  0  0  0  0
  136.9090   79.2100  221.2950 C   0  0  0  0  0  0  0  0  0  0  0  0
  140.0040   71.0490  223.8320 C   0  0  0  0  0  0  0  0  0  0  0  0
  140.6820   71.8910  224.6950 C   0  0  0  0  0  0  0  0  0  0  0  0
  141.0100   71.4860  225.9520 C   0  0  0  0  0  0  0  0  0  0  0  0
  140.6800   70.2330  226.4030 C   0  0  0  0  0  0  0  0  0  0  0  0
  140.9950   69.7840  227.6800 C   0  0  0  0  0  0  0  0  0  0  0  0
  140.6220   68.5030  228.0560 C   0  0  0  0  0  0  0  0  0  0  0  0
  140.9250   68.0470  229.3150 F   0  0  0  0  0  0  0  0  0  0  0  0
  139.9460   67.6510  227.2070 C   0  0  0  0  0  0  0  0  0  0  0  0
  139.6480   68.1370  225.9380 C   0  0  0  0  0  0  0  0  0  0  0  0
  140.0040   69.4040  225.5340 C   0  0  0  0  0  0  0  0  0  0  0  0
  139.6720   69.8000  224.2740 N   0  0  0  0  0  0  0  0  0  0  0  0
  138.0600   72.7200  223.2340 H   0  0  0  0  0  0  0  0  0  0  0  0
  138.5821   72.3671  220.3203 H   0  0  0  0  0  0  0  0  0  0  0  0
  136.9963   72.8674  221.2015 H   0  0  0  0  0  0  0  0  0  0  0  0
  141.3044   75.1693  219.8931 H   0  0  0  0  0  0  0  0  0  0  0  0
  139.9328   75.1097  218.7612 H   0  0  0  0  0  0  0  0  0  0  0  0
  140.8261   77.3792  218.7373 H   0  0  0  0  0  0  0  0  0  0  0  0
  139.2544   77.4217  219.6093 H   0  0  0  0  0  0  0  0  0  0  0  0
  142.0093   77.9273  220.6023 H   0  0  0  0  0  0  0  0  0  0  0  0
  140.4175   78.4874  221.2388 H   0  0  0  0  0  0  0  0  0  0  0  0
  141.8904   75.8986  221.7511 H   0  0  0  0  0  0  0  0  0  0  0  0
  141.1879   77.1191  222.9179 H   0  0  0  0  0  0  0  0  0  0  0  0
  140.0353   74.9491  222.8024 H   0  0  0  0  0  0  0  0  0  0  0  0
  137.4330   74.8190  222.6780 H   0  0  0  0  0  0  0  0  0  0  0  0
  135.7914   75.6946  224.1577 H   0  0  0  0  0  0  0  0  0  0  0  0
  136.6023   77.3093  224.1021 H   0  0  0  0  0  0  0  0  0  0  0  0
  135.7859   76.7207  221.4403 H   0  0  0  0  0  0  0  0  0  0  0  0
  134.3969   76.3121  222.4952 H   0  0  0  0  0  0  0  0  0  0  0  0
  134.3317   78.6563  221.8431 H   0  0  0  0  0  0  0  0  0  0  0  0
  134.6570   78.4611  223.6356 H   0  0  0  0  0  0  0  0  0  0  0  0
  136.1001   79.9440  224.5449 H   0  0  0  0  0  0  0  0  0  0  0  0
  138.1015   81.3695  224.2768 H   0  0  0  0  0  0  0  0  0  0  0  0
  140.7360   82.3829  220.8064 H   0  0  0  0  0  0  0  0  0  0  0  0
  140.4321   83.2556  222.3636 H   0  0  0  0  0  0  0  0  0  0  0  0
  142.7090   82.1851  222.1785 H   0  0  0  0  0  0  0  0  0  0  0  0
  141.6909   81.6520  223.5998 H   0  0  0  0  0  0  0  0  0  0  0  0
  142.8675   78.5668  222.5424 H   0  0  0  0  0  0  0  0  0  0  0  0
  143.3669   80.0404  223.5337 H   0  0  0  0  0  0  0  0  0  0  0  0
  141.6927   77.9605  224.2790 H   0  0  0  0  0  0  0  0  0  0  0  0
  142.0306   79.5622  225.1015 H   0  0  0  0  0  0  0  0  0  0  0  0
  140.1440   79.5950  223.0960 H   0  0  0  0  0  0  0  0  0  0  0  0
  138.5445   80.0251  220.2291 H   0  0  0  0  0  0  0  0  0  0  0  0
  136.5630   78.5909  220.4542 H   0  0  0  0  0  0  0  0  0  0  0  0
  140.9597   72.9015  224.3607 H   0  0  0  0  0  0  0  0  0  0  0  0
  141.5492   72.1754  226.6183 H   0  0  0  0  0  0  0  0  0  0  0  0
  141.5333   70.4366  228.3831 H   0  0  0  0  0  0  0  0  0  0  0  0
  139.6567   66.6365  227.5185 H   0  0  0  0  0  0  0  0  0  0  0  0
  139.1094   67.4865  225.2332 H   0  0  0  0  0  0  0  0  0  0  0  0
  1  2  2  0
  2  3  1  0
  3  4  1  0
  4  5  1  0
  5  6  2  0
  5  7  1  0
  7  8  1  0
  8  9  1  0
  9 10  1  0
 10 11  1  0
 11 12  1  0
 12 13  1  0
 13 14  2  0
 13 15  1  0
 15 16  1  0
 16 17  1  0
 17 18  1  0
 18 19  1  0
 19 20  2  0
 20 21  1  0
 21 22  2  0
 22 23  1  0
 23 24  1  0
 24 25  1  0
 25 26  1  0
 26 27  1  0
 27 28  1  0
 28 29  1  0
 22 30  1  0
 30 31  2  0
  2 32  1  0
 32 33  2  0
 33 34  1  0
 34 35  2  0
 35 36  1  0
 36 37  2  0
 37 38  1  0
 37 39  1  0
 39 40  2  0
 40 41  1  0
 41 42  2  0
 12  7  1  0
 31 19  1  0
 42 32  1  0
 41 35  1  0
  3 43  1  0
  4 44  1  0
  4 45  1  0
  8 46  1  0
  8 47  1  0
  9 48  1  0
  9 49  1  0
 10 50  1  0
 10 51  1  0
 11 52  1  0
 11 53  1  0
 12 54  1  1
 15 55  1  0
 16 56  1  0
 16 57  1  0
 17 58  1  0
 17 59  1  0
 18 60  1  0
 18 61  1  0
 20 62  1  0
 21 63  1  0
 24 64  1  0
 24 65  1  0
 25 66  1  0
 25 67  1  0
 27 68  1  0
 27 69  1  0
 28 70  1  0
 28 71  1  0
 29 72  1  0
 30 73  1  0
 31 74  1  0
 33 75  1  0
 34 76  1  0
 36 77  1  0
 39 78  1  0
 40 79  1  0
M  END
>  <smiles>  (13) 
O=C(NCC(=O)N1CCCC[C@H]1C(=O)NCCCc1ccc(OCCOCCO)cc1)c1ccc2cc(F)ccc2n1

>  <score_type>  (13) 
oracle

>  <origin>  (13) 
autodockgpu

>  <m_score__min__energy>  (13) 
-7.8899999999999997

>  <m_primary>  (13) 
energy

>  <meeko>  (13) 
{"free_energy": -5.88, "intermolecular_energy": -10.65, "internal_energy": -5.68, "cluster_size": 2, "cluster_id": 9, "rank_in_cluster": 1}

>  <energy>  (13) 
-5.69

>  <cluster_rmsd>  (13) 
1.36

>  <rmsd>  (13) 
269.67

>  <cluster>  (13) 
9

$$$$

     RDKit          3D

 79 82  0  0  0  0  0  0  0  0999 V2000
  141.8030   71.9900  220.9440 O   0  0  0  0  0  0  0  0  0  0  0  0
  141.2380   72.9010  221.5980 C   0  0  0  0  0  0  0  0  0  0  0  0
  140.4360   72.5750  222.7510 N   0  0  0  0  0  0  0  0  0  0  0  0
  140.2210   71.2480  223.2230 C   0  0  0  0  0  0  0  0  0  0  0  0
  139.7500   71.0180  224.5830 C   0  0  0  0  0  0  0  0  0  0  0  0
  138.5460   71.5090  224.7850 O   0  0  0  0  0  0  0  0  0  0  0  0
  140.3130   70.3890  225.6830 N   0  0  0  0  0  0  0  0  0  0  0  0
  140.5720   70.9010  227.0040 C   0  0  0  0  0  0  0  0  0  0  0  0
  139.8490   70.0000  227.9830 C   0  0  0  0  0  0  0  0  0  0  0  0
  140.5020   68.6230  227.9930 C   0  0  0  0  0  0  0  0  0  0  0  0
  141.3420   68.4280  226.7490 C   0  0  0  0  0  0  0  0  0  0  0  0
  140.7110   68.9670  225.5060 C   0  0  1  0  0  0  0  0  0  0  0  0
  139.5760   68.1450  225.0370 C   0  0  0  0  0  0  0  0  0  0  0  0
  138.8780   67.4050  225.7710 O   0  0  0  0  0  0  0  0  0  0  0  0
  139.2550   68.2010  223.6560 N   0  0  0  0  0  0  0  0  0  0  0  0
  138.1730   67.4570  223.0480 C   0  0  0  0  0  0  0  0  0  0  0  0
  137.1560   68.3950  222.4140 C   0  0  0  0  0  0  0  0  0  0  0  0
  137.3340   69.7620  222.9930 C   0  0  0  0  0  0  0  0  0  0  0  0
  136.2600   70.1700  223.9320 C   0  0  0  0  0  0  0  0  0  0  0  0
  135.7400   69.2660  224.8270 C   0  0  0  0  0  0  0  0  0  0  0  0
  134.7430   69.7060  225.6610 C   0  0  0  0  0  0  0  0  0  0  0  0
  134.2540   71.0200  225.6230 C   0  0  0  0  0  0  0  0  0  0  0  0
  133.3180   71.4130  226.4130 O   0  0  0  0  0  0  0  0  0  0  0  0
  132.3180   71.7840  227.1560 C   0  0  0  0  0  0  0  0  0  0  0  0
  132.2620   73.3080  227.2970 C   0  0  0  0  0  0  0  0  0  0  0  0
  133.3830   73.9400  226.8470 O   0  0  0  0  0  0  0  0  0  0  0  0
  133.2260   75.0780  226.1160 C   0  0  0  0  0  0  0  0  0  0  0  0
  132.9450   74.8830  224.6620 C   0  0  0  0  0  0  0  0  0  0  0  0
  132.4670   73.6330  224.3440 O   0  0  0  0  0  0  0  0  0  0  0  0
  134.8380   71.8720  224.6860 C   0  0  0  0  0  0  0  0  0  0  0  0
  135.8290   71.4860  223.8370 C   0  0  0  0  0  0  0  0  0  0  0  0
  141.3500   74.3230  221.2430 C   0  0  0  0  0  0  0  0  0  0  0  0
  142.0780   74.7180  220.1350 C   0  0  0  0  0  0  0  0  0  0  0  0
  142.1840   76.0330  219.8010 C   0  0  0  0  0  0  0  0  0  0  0  0
  141.5740   77.0060  220.5510 C   0  0  0  0  0  0  0  0  0  0  0  0
  141.6560   78.3590  220.2410 C   0  0  0  0  0  0  0  0  0  0  0  0
  141.0080   79.2780  221.0520 C   0  0  0  0  0  0  0  0  0  0  0  0
  141.0800   80.6160  220.7560 F   0  0  0  0  0  0  0  0  0  0  0  0
  140.2790   78.9000  222.1600 C   0  0  0  0  0  0  0  0  0  0  0  0
  140.2190   77.5380  222.4370 C   0  0  0  0  0  0  0  0  0  0  0  0
  140.8520   76.6000  221.6510 C   0  0  0  0  0  0  0  0  0  0  0  0
  140.7410   75.2870  221.9940 N   0  0  0  0  0  0  0  0  0  0  0  0
  139.9820   73.3640  223.2780 H   0  0  0  0  0  0  0  0  0  0  0  0
  139.4811   70.7894  222.5505 H   0  0  0  0  0  0  0  0  0  0  0  0
  141.2343   70.8202  223.2344 H   0  0  0  0  0  0  0  0  0  0  0  0
  141.6529   70.8885  227.2078 H   0  0  0  0  0  0  0  0  0  0  0  0
  140.2208   71.9393  227.0962 H   0  0  0  0  0  0  0  0  0  0  0  0
  139.9028   70.4375  228.9908 H   0  0  0  0  0  0  0  0  0  0  0  0
  138.7966   69.9017  227.6785 H   0  0  0  0  0  0  0  0  0  0  0  0
  141.1441   68.5328  228.8816 H   0  0  0  0  0  0  0  0  0  0  0  0
  139.7148   67.8551  228.0158 H   0  0  0  0  0  0  0  0  0  0  0  0
  142.3058   68.9369  226.8977 H   0  0  0  0  0  0  0  0  0  0  0  0
  141.4570   67.3434  226.6062 H   0  0  0  0  0  0  0  0  0  0  0  0
  141.4756   68.9181  224.7167 H   0  0  0  0  0  0  0  0  0  0  0  0
  139.8270   68.8200  223.0440 H   0  0  0  0  0  0  0  0  0  0  0  0
  138.5836   66.7939  222.2723 H   0  0  0  0  0  0  0  0  0  0  0  0
  137.6689   66.8694  223.8294 H   0  0  0  0  0  0  0  0  0  0  0  0
  137.3143   68.4309  221.3260 H   0  0  0  0  0  0  0  0  0  0  0  0
  136.1371   68.0333  222.6167 H   0  0  0  0  0  0  0  0  0  0  0  0
  138.2918   69.7856  223.5333 H   0  0  0  0  0  0  0  0  0  0  0  0
  137.3021   70.4685  222.1505 H   0  0  0  0  0  0  0  0  0  0  0  0
  136.1084   68.2306  224.8730 H   0  0  0  0  0  0  0  0  0  0  0  0
  134.3109   69.0014  226.3869 H   0  0  0  0  0  0  0  0  0  0  0  0
  131.3818   71.4323  226.6978 H   0  0  0  0  0  0  0  0  0  0  0  0
  132.4502   71.3482  228.1573 H   0  0  0  0  0  0  0  0  0  0  0  0
  131.3999   73.6787  226.7231 H   0  0  0  0  0  0  0  0  0  0  0  0
  132.1765   73.5293  228.3711 H   0  0  0  0  0  0  0  0  0  0  0  0
  132.3880   75.6442  226.5487 H   0  0  0  0  0  0  0  0  0  0  0  0
  134.1925   75.6009  226.1660 H   0  0  0  0  0  0  0  0  0  0  0  0
  132.1972   75.6277  224.3520 H   0  0  0  0  0  0  0  0  0  0  0  0
  133.9041   74.9986  224.1358 H   0  0  0  0  0  0  0  0  0  0  0  0
  132.7610   72.9770  225.0220 H   0  0  0  0  0  0  0  0  0  0  0  0
  134.4788   72.9102  224.6303 H   0  0  0  0  0  0  0  0  0  0  0  0
  136.2680   72.1844  223.1093 H   0  0  0  0  0  0  0  0  0  0  0  0
  142.5780   73.9589  219.5155 H   0  0  0  0  0  0  0  0  0  0  0  0
  142.7687   76.3204  218.9147 H   0  0  0  0  0  0  0  0  0  0  0  0
  142.2276   78.6959  219.3636 H   0  0  0  0  0  0  0  0  0  0  0  0
  139.7693   79.6401  222.7944 H   0  0  0  0  0  0  0  0  0  0  0  0
  139.6469   77.1985  223.3130 H   0  0  0  0  0  0  0  0  0  0  0  0
  1  2  2  0
  2  3  1  0
  3  4  1  0
  4  5  1  0
  5  6  2  0
  5  7  1  0
  7  8  1  0
  8  9  1  0
  9 10  1  0
 10 11  1  0
 11 12  1  0
 12 13  1  0
 13 14  2  0
 13 15  1  0
 15 16  1  0
 16 17  1  0
 17 18  1  0
 18 19  1  0
 19 20  2  0
 20 21  1  0
 21 22  2  0
 22 23  1  0
 23 24  1  0
 24 25  1  0
 25 26  1  0
 26 27  1  0
 27 28  1  0
 28 29  1  0
 22 30  1  0
 30 31  2  0
  2 32  1  0
 32 33  2  0
 33 34  1  0
 34 35  2  0
 35 36  1  0
 36 37  2  0
 37 38  1  0
 37 39  1  0
 39 40  2  0
 40 41  1  0
 41 42  2  0
 12  7  1  0
 31 19  1  0
 42 32  1  0
 41 35  1  0
  3 43  1  0
  4 44  1  0
  4 45  1  0
  8 46  1  0
  8 47  1  0
  9 48  1  0
  9 49  1  0
 10 50  1  0
 10 51  1  0
 11 52  1  0
 11 53  1  0
 12 54  1  6
 15 55  1  0
 16 56  1  0
 16 57  1  0
 17 58  1  0
 17 59  1  0
 18 60  1  0
 18 61  1  0
 20 62  1  0
 21 63  1  0
 24 64  1  0
 24 65  1  0
 25 66  1  0
 25 67  1  0
 27 68  1  0
 27 69  1  0
 28 70  1  0
 28 71  1  0
 29 72  1  0
 30 73  1  0
 31 74  1  0
 33 75  1  0
 34 76  1  0
 36 77  1  0
 39 78  1  0
 40 79  1  0
M  END
>  <smiles>  (14) 
O=C(NCC(=O)N1CCCC[C@H]1C(=O)NCCCc1ccc(OCCOCCO)cc1)c1ccc2cc(F)ccc2n1

>  <score_type>  (14) 
oracle

>  <origin>  (14) 
autodockgpu

>  <m_score__min__energy>  (14) 
-7.8899999999999997

>  <m_primary>  (14) 
energy

>  <meeko>  (14) 
{"free_energy": -6.95, "intermolecular_energy": -11.72, "internal_energy": -4.52, "cluster_size": 1, "cluster_id": 4, "rank_in_cluster": 1}

>  <energy>  (14) 
-5.85

>  <cluster_rmsd>  (14) 
0.0

>  <rmsd>  (14) 
269.03

>  <cluster>  (14) 
10

$$$$

     RDKit          3D

 79 82  0  0  0  0  0  0  0  0999 V2000
  138.1510   72.1230  222.5670 O   0  0  0  0  0  0  0  0  0  0  0  0
  139.3380   71.7580  222.7600 C   0  0  0  0  0  0  0  0  0  0  0  0
  140.3160   71.8890  221.7090 N   0  0  0  0  0  0  0  0  0  0  0  0
  140.0300   72.4150  220.4160 C   0  0  0  0  0  0  0  0  0  0  0  0
  140.7250   73.6030  219.9360 C   0  0  0  0  0  0  0  0  0  0  0  0
  141.0090   73.5330  218.6530 O   0  0  0  0  0  0  0  0  0  0  0  0
  141.1320   74.7750  220.5580 N   0  0  0  0  0  0  0  0  0  0  0  0
  142.2380   75.6440  220.2500 C   0  0  0  0  0  0  0  0  0  0  0  0
  141.6670   77.0260  220.0100 C   0  0  0  0  0  0  0  0  0  0  0  0
  141.1160   77.5880  221.3150 C   0  0  0  0  0  0  0  0  0  0  0  0
  140.8910   76.4750  222.3160 C   0  0  0  0  0  0  0  0  0  0  0  0
  140.3170   75.2320  221.7150 C   0  0  1  0  0  0  0  0  0  0  0  0
  138.8940   75.3780  221.3470 C   0  0  0  0  0  0  0  0  0  0  0  0
  138.4750   76.0020  220.3430 O   0  0  0  0  0  0  0  0  0  0  0  0
  137.9340   74.7640  222.1930 N   0  0  0  0  0  0  0  0  0  0  0  0
  136.5060   74.8150  221.9650 C   0  0  0  0  0  0  0  0  0  0  0  0
  135.8610   75.9180  222.7920 C   0  0  0  0  0  0  0  0  0  0  0  0
  135.5450   77.0720  221.8940 C   0  0  0  0  0  0  0  0  0  0  0  0
  136.5880   78.1260  221.8680 C   0  0  0  0  0  0  0  0  0  0  0  0
  137.0070   78.6610  220.6730 C   0  0  0  0  0  0  0  0  0  0  0  0
  137.9800   79.6260  220.7200 C   0  0  0  0  0  0  0  0  0  0  0  0
  138.5460   80.0670  221.9260 C   0  0  0  0  0  0  0  0  0  0  0  0
  139.4590   80.9730  221.9480 O   0  0  0  0  0  0  0  0  0  0  0  0
  140.3520   81.9160  221.9000 C   0  0  0  0  0  0  0  0  0  0  0  0
  141.5920   81.4730  221.1180 C   0  0  0  0  0  0  0  0  0  0  0  0
  142.1340   80.3060  221.5690 O   0  0  0  0  0  0  0  0  0  0  0  0
  142.9020   80.3510  222.6920 C   0  0  0  0  0  0  0  0  0  0  0  0
  142.2920   79.7580  223.9200 C   0  0  0  0  0  0  0  0  0  0  0  0
  141.0030   79.3110  223.7490 O   0  0  0  0  0  0  0  0  0  0  0  0
  138.0640   79.4730  223.0910 C   0  0  0  0  0  0  0  0  0  0  0  0
  137.1000   78.5140  223.0990 C   0  0  0  0  0  0  0  0  0  0  0  0
  139.7990   71.1870  224.0330 C   0  0  0  0  0  0  0  0  0  0  0  0
  140.6820   71.8830  224.8400 C   0  0  0  0  0  0  0  0  0  0  0  0
  141.1100   71.3590  226.0200 C   0  0  0  0  0  0  0  0  0  0  0  0
  140.6820   70.1280  226.4480 C   0  0  0  0  0  0  0  0  0  0  0  0
  141.0940   69.5620  227.6480 C   0  0  0  0  0  0  0  0  0  0  0  0
  140.6110   68.3130  228.0060 C   0  0  0  0  0  0  0  0  0  0  0  0
  141.0080   67.7420  229.1890 F   0  0  0  0  0  0  0  0  0  0  0  0
  139.7300   67.6060  227.2130 C   0  0  0  0  0  0  0  0  0  0  0  0
  139.3400   68.2070  226.0210 C   0  0  0  0  0  0  0  0  0  0  0  0
  139.8020   69.4460  225.6360 C   0  0  0  0  0  0  0  0  0  0  0  0
  139.3680   69.9610  224.4520 N   0  0  0  0  0  0  0  0  0  0  0  0
  141.3010   71.5780  221.9070 H   0  0  0  0  0  0  0  0  0  0  0  0
  140.2406   71.6121  219.6942 H   0  0  0  0  0  0  0  0  0  0  0  0
  138.9882   72.7556  220.5095 H   0  0  0  0  0  0  0  0  0  0  0  0
  142.9441   75.6689  221.0931 H   0  0  0  0  0  0  0  0  0  0  0  0
  142.7812   75.2860  219.3630 H   0  0  0  0  0  0  0  0  0  0  0  0
  142.4597   77.6886  219.6324 H   0  0  0  0  0  0  0  0  0  0  0  0
  140.8558   76.9614  219.2699 H   0  0  0  0  0  0  0  0  0  0  0  0
  141.8346   78.3096  221.7308 H   0  0  0  0  0  0  0  0  0  0  0  0
  140.1557   78.0847  221.1121 H   0  0  0  0  0  0  0  0  0  0  0  0
  141.8570   76.2231  222.7780 H   0  0  0  0  0  0  0  0  0  0  0  0
  140.1587   76.8452  223.0486 H   0  0  0  0  0  0  0  0  0  0  0  0
  140.3562   74.4561  222.4938 H   0  0  0  0  0  0  0  0  0  0  0  0
  138.2770   74.2370  223.0240 H   0  0  0  0  0  0  0  0  0  0  0  0
  136.3186   75.0086  220.8985 H   0  0  0  0  0  0  0  0  0  0  0  0
  136.0685   73.8511  222.2642 H   0  0  0  0  0  0  0  0  0  0  0  0
  134.9346   75.5423  223.2510 H   0  0  0  0  0  0  0  0  0  0  0  0
  136.5498   76.2406  223.5867 H   0  0  0  0  0  0  0  0  0  0  0  0
  135.4171   76.6881  220.8711 H   0  0  0  0  0  0  0  0  0  0  0  0
  134.6323   77.5405  222.2909 H   0  0  0  0  0  0  0  0  0  0  0  0
  136.5784   78.3279  219.7163 H   0  0  0  0  0  0  0  0  0  0  0  0
  138.3300   80.0712  219.7770 H   0  0  0  0  0  0  0  0  0  0  0  0
  139.9151   82.7977  221.4084 H   0  0  0  0  0  0  0  0  0  0  0  0
  140.6590   82.1544  222.9290 H   0  0  0  0  0  0  0  0  0  0  0  0
  141.3089   81.3402  220.0634 H   0  0  0  0  0  0  0  0  0  0  0  0
  142.3538   82.2552  221.2515 H   0  0  0  0  0  0  0  0  0  0  0  0
  143.8365   79.8094  222.4839 H   0  0  0  0  0  0  0  0  0  0  0  0
  143.0443   81.4188  222.9145 H   0  0  0  0  0  0  0  0  0  0  0  0
  142.9130   78.9073  224.2374 H   0  0  0  0  0  0  0  0  0  0  0  0
  142.2516   80.5599  224.6719 H   0  0  0  0  0  0  0  0  0  0  0  0
  140.6530   79.6190  222.8780 H   0  0  0  0  0  0  0  0  0  0  0  0
  138.4853   79.7968  224.0541 H   0  0  0  0  0  0  0  0  0  0  0  0
  136.7421   78.0661  224.0378 H   0  0  0  0  0  0  0  0  0  0  0  0
  141.0424   72.8728  224.5230 H   0  0  0  0  0  0  0  0  0  0  0  0
  141.8122   71.9329  226.6425 H   0  0  0  0  0  0  0  0  0  0  0  0
  141.7943   70.0980  228.3054 H   0  0  0  0  0  0  0  0  0  0  0  0
  139.3546   66.6154  227.5093 H   0  0  0  0  0  0  0  0  0  0  0  0
  138.6380   67.6742  225.3627 H   0  0  0  0  0  0  0  0  0  0  0  0
  1  2  2  0
  2  3  1  0
  3  4  1  0
  4  5  1  0
  5  6  2  0
  5  7  1  0
  7  8  1  0
  8  9  1  0
  9 10  1  0
 10 11  1  0
 11 12  1  0
 12 13  1  0
 13 14  2  0
 13 15  1  0
 15 16  1  0
 16 17  1  0
 17 18  1  0
 18 19  1  0
 19 20  2  0
 20 21  1  0
 21 22  2  0
 22 23  1  0
 23 24  1  0
 24 25  1  0
 25 26  1  0
 26 27  1  0
 27 28  1  0
 28 29  1  0
 22 30  1  0
 30 31  2  0
  2 32  1  0
 32 33  2  0
 33 34  1  0
 34 35  2  0
 35 36  1  0
 36 37  2  0
 37 38  1  0
 37 39  1  0
 39 40  2  0
 40 41  1  0
 41 42  2  0
 12  7  1  0
 31 19  1  0
 42 32  1  0
 41 35  1  0
  3 43  1  0
  4 44  1  0
  4 45  1  0
  8 46  1  0
  8 47  1  0
  9 48  1  0
  9 49  1  0
 10 50  1  0
 10 51  1  0
 11 52  1  0
 11 53  1  0
 12 54  1  1
 15 55  1  0
 16 56  1  0
 16 57  1  0
 17 58  1  0
 17 59  1  0
 18 60  1  0
 18 61  1  0
 20 62  1  0
 21 63  1  0
 24 64  1  0
 24 65  1  0
 25 66  1  0
 25 67  1  0
 27 68  1  0
 27 69  1  0
 28 70  1  0
 28 71  1  0
 29 72  1  0
 30 73  1  0
 31 74  1  0
 33 75  1  0
 34 76  1  0
 36 77  1  0
 39 78  1  0
 40 79  1  0
M  END
>  <smiles>  (15) 
O=C(NCC(=O)N1CCCC[C@H]1C(=O)NCCCc1ccc(OCCOCCO)cc1)c1ccc2cc(F)ccc2n1

>  <score_type>  (15) 
oracle

>  <origin>  (15) 
autodockgpu

>  <m_score__min__energy>  (15) 
-7.8899999999999997

>  <m_primary>  (15) 
energy

>  <meeko>  (15) 
{"free_energy": -5.69, "intermolecular_energy": -10.47, "internal_energy": -5.87, "cluster_size": 2, "cluster_id": 9, "rank_in_cluster": 2}

>  <energy>  (15) 
-5.55

>  <cluster_rmsd>  (15) 
1.32

>  <rmsd>  (15) 
268.81

>  <cluster>  (15) 
10

$$$$

     RDKit          3D

 79 82  0  0  0  0  0  0  0  0999 V2000
  135.0050   77.9770  223.7850 O   0  0  0  0  0  0  0  0  0  0  0  0
  135.3920   77.0460  223.0360 C   0  0  0  0  0  0  0  0  0  0  0  0
  134.4330   76.1530  222.4350 N   0  0  0  0  0  0  0  0  0  0  0  0
  133.0250   76.2420  222.6380 C   0  0  0  0  0  0  0  0  0  0  0  0
  132.3420   75.2700  223.4830 C   0  0  0  0  0  0  0  0  0  0  0  0
  131.9550   74.2070  222.8110 O   0  0  0  0  0  0  0  0  0  0  0  0
  132.0310   75.2480  224.8350 N   0  0  0  0  0  0  0  0  0  0  0  0
  130.8240   74.8220  225.4950 C   0  0  0  0  0  0  0  0  0  0  0  0
  131.2120   73.7410  226.4820 C   0  0  0  0  0  0  0  0  0  0  0  0
  132.0460   74.3450  227.6050 C   0  0  0  0  0  0  0  0  0  0  0  0
  132.6060   75.6870  227.1840 C   0  0  0  0  0  0  0  0  0  0  0  0
  133.0870   75.7220  225.7690 C   0  0  1  0  0  0  0  0  0  0  0  0
  134.3490   74.9780  225.5760 C   0  0  0  0  0  0  0  0  0  0  0  0
  135.4510   75.2970  226.0830 O   0  0  0  0  0  0  0  0  0  0  0  0
  134.3070   73.8200  224.7580 N   0  0  0  0  0  0  0  0  0  0  0  0
  135.4560   72.9870  224.4770 C   0  0  0  0  0  0  0  0  0  0  0  0
  135.2620   72.2070  223.1850 C   0  0  0  0  0  0  0  0  0  0  0  0
  136.6030   71.9130  222.5920 C   0  0  0  0  0  0  0  0  0  0  0  0
  137.4930   71.1140  223.4700 C   0  0  0  0  0  0  0  0  0  0  0  0
  136.9810   70.0950  224.2370 C   0  0  0  0  0  0  0  0  0  0  0  0
  137.8580   69.4020  225.0320 C   0  0  0  0  0  0  0  0  0  0  0  0
  139.2280   69.6990  225.0800 C   0  0  0  0  0  0  0  0  0  0  0  0
  140.0340   69.0370  225.8340 O   0  0  0  0  0  0  0  0  0  0  0  0
  140.8070   68.3000  226.5750 C   0  0  0  0  0  0  0  0  0  0  0  0
  140.7420   68.7260  228.0450 C   0  0  0  0  0  0  0  0  0  0  0  0
  141.3950   69.8940  228.3050 O   0  0  0  0  0  0  0  0  0  0  0  0
  140.6760   71.0500  228.2700 C   0  0  0  0  0  0  0  0  0  0  0  0
  141.0530   72.0170  227.1960 C   0  0  0  0  0  0  0  0  0  0  0  0
  141.7210   71.4500  226.1370 O   0  0  0  0  0  0  0  0  0  0  0  0
  139.6640   70.7460  224.2700 C   0  0  0  0  0  0  0  0  0  0  0  0
  138.8370   71.4650  223.4640 C   0  0  0  0  0  0  0  0  0  0  0  0
  136.8090   76.8090  222.7270 C   0  0  0  0  0  0  0  0  0  0  0  0
  137.7410   77.8220  222.8700 C   0  0  0  0  0  0  0  0  0  0  0  0
  139.0550   77.6070  222.5870 C   0  0  0  0  0  0  0  0  0  0  0  0
  139.4960   76.3830  222.1530 C   0  0  0  0  0  0  0  0  0  0  0  0
  140.8290   76.1250  221.8560 C   0  0  0  0  0  0  0  0  0  0  0  0
  141.1910   74.8580  221.4240 C   0  0  0  0  0  0  0  0  0  0  0  0
  142.5040   74.5880  221.1290 F   0  0  0  0  0  0  0  0  0  0  0  0
  140.2740   73.8380  221.2750 C   0  0  0  0  0  0  0  0  0  0  0  0
  138.9500   74.1360  221.5830 C   0  0  0  0  0  0  0  0  0  0  0  0
  138.5590   75.3840  222.0140 C   0  0  0  0  0  0  0  0  0  0  0  0
  137.2410   75.5880  222.2950 N   0  0  0  0  0  0  0  0  0  0  0  0
  134.7920   75.3880  221.8090 H   0  0  0  0  0  0  0  0  0  0  0  0
  132.8303   77.2327  223.0745 H   0  0  0  0  0  0  0  0  0  0  0  0
  132.6147   76.0364  221.6383 H   0  0  0  0  0  0  0  0  0  0  0  0
  130.3649   75.6695  226.0252 H   0  0  0  0  0  0  0  0  0  0  0  0
  130.0933   74.4417  224.7660 H   0  0  0  0  0  0  0  0  0  0  0  0
  130.3028   73.2886  226.9047 H   0  0  0  0  0  0  0  0  0  0  0  0
  131.8022   72.9705  225.9644 H   0  0  0  0  0  0  0  0  0  0  0  0
  131.4129   74.4794  228.4945 H   0  0  0  0  0  0  0  0  0  0  0  0
  132.8808   73.6662  227.8340 H   0  0  0  0  0  0  0  0  0  0  0  0
  131.8169   76.4444  227.3011 H   0  0  0  0  0  0  0  0  0  0  0  0
  133.4781   75.8858  227.8243 H   0  0  0  0  0  0  0  0  0  0  0  0
  133.3080   76.7739  225.5352 H   0  0  0  0  0  0  0  0  0  0  0  0
  133.3920   73.5460  224.3410 H   0  0  0  0  0  0  0  0  0  0  0  0
  136.3475   73.6243  224.3819 H   0  0  0  0  0  0  0  0  0  0  0  0
  135.5799   72.2711  225.3030 H   0  0  0  0  0  0  0  0  0  0  0  0
  134.7374   71.2639  223.3980 H   0  0  0  0  0  0  0  0  0  0  0  0
  134.6630   72.7995  222.4778 H   0  0  0  0  0  0  0  0  0  0  0  0
  136.4517   71.3563  221.6554 H   0  0  0  0  0  0  0  0  0  0  0  0
  137.0994   72.8821  222.4356 H   0  0  0  0  0  0  0  0  0  0  0  0
  135.9100   69.8450  224.2142 H   0  0  0  0  0  0  0  0  0  0  0  0
  137.4722   68.5821  225.6557 H   0  0  0  0  0  0  0  0  0  0  0  0
  140.4883   67.2505  226.4919 H   0  0  0  0  0  0  0  0  0  0  0  0
  141.8424   68.4218  226.2242 H   0  0  0  0  0  0  0  0  0  0  0  0
  139.6853   68.8488  228.3249 H   0  0  0  0  0  0  0  0  0  0  0  0
  141.2418   67.9403  228.6305 H   0  0  0  0  0  0  0  0  0  0  0  0
  139.6176   70.7852  228.1296 H   0  0  0  0  0  0  0  0  0  0  0  0
  140.8864   71.5619  229.2206 H   0  0  0  0  0  0  0  0  0  0  0  0
  140.1333   72.4839  226.8137 H   0  0  0  0  0  0  0  0  0  0  0  0
  141.7417   72.7434  227.6520 H   0  0  0  0  0  0  0  0  0  0  0  0
  141.6560   70.4650  226.1850 H   0  0  0  0  0  0  0  0  0  0  0  0
  140.7331   71.0046  224.2831 H   0  0  0  0  0  0  0  0  0  0  0  0
  139.2149   72.2859  222.8369 H   0  0  0  0  0  0  0  0  0  0  0  0
  137.4157   78.8139  223.2169 H   0  0  0  0  0  0  0  0  0  0  0  0
  139.7756   78.4292  222.7085 H   0  0  0  0  0  0  0  0  0  0  0  0
  141.5867   76.9153  221.9622 H   0  0  0  0  0  0  0  0  0  0  0  0
  140.5748   72.8379  220.9296 H   0  0  0  0  0  0  0  0  0  0  0  0
  138.1899   73.3478  221.4786 H   0  0  0  0  0  0  0  0  0  0  0  0
  1  2  2  0
  2  3  1  0
  3  4  1  0
  4  5  1  0
  5  6  2  0
  5  7  1  0
  7  8  1  0
  8  9  1  0
  9 10  1  0
 10 11  1  0
 11 12  1  0
 12 13  1  0
 13 14  2  0
 13 15  1  0
 15 16  1  0
 16 17  1  0
 17 18  1  0
 18 19  1  0
 19 20  2  0
 20 21  1  0
 21 22  2  0
 22 23  1  0
 23 24  1  0
 24 25  1  0
 25 26  1  0
 26 27  1  0
 27 28  1  0
 28 29  1  0
 22 30  1  0
 30 31  2  0
  2 32  1  0
 32 33  2  0
 33 34  1  0
 34 35  2  0
 35 36  1  0
 36 37  2  0
 37 38  1  0
 37 39  1  0
 39 40  2  0
 40 41  1  0
 41 42  2  0
 12  7  1  0
 31 19  1  0
 42 32  1  0
 41 35  1  0
  3 43  1  0
  4 44  1  0
  4 45  1  0
  8 46  1  0
  8 47  1  0
  9 48  1  0
  9 49  1  0
 10 50  1  0
 10 51  1  0
 11 52  1  0
 11 53  1  0
 12 54  1  6
 15 55  1  0
 16 56  1  0
 16 57  1  0
 17 58  1  0
 17 59  1  0
 18 60  1  0
 18 61  1  0
 20 62  1  0
 21 63  1  0
 24 64  1  0
 24 65  1  0
 25 66  1  0
 25 67  1  0
 27 68  1  0
 27 69  1  0
 28 70  1  0
 28 71  1  0
 29 72  1  0
 30 73  1  0
 31 74  1  0
 33 75  1  0
 34 76  1  0
 36 77  1  0
 39 78  1  0
 40 79  1  0
M  END
>  <smiles>  (16) 
O=C(NCC(=O)N1CCCC[C@H]1C(=O)NCCCc1ccc(OCCOCCO)cc1)c1ccc2cc(F)ccc2n1

>  <score_type>  (16) 
oracle

>  <origin>  (16) 
autodockgpu

>  <m_score__min__energy>  (16) 
-7.8899999999999997

>  <m_primary>  (16) 
energy

>  <meeko>  (16) 
{"free_energy": -4.83, "intermolecular_energy": -9.61, "internal_energy": -5.8, "cluster_size": 2, "cluster_id": 6, "rank_in_cluster": 2}

>  <energy>  (16) 
-5.75

>  <cluster_rmsd>  (16) 
0.0

>  <rmsd>  (16) 
269.04

>  <cluster>  (16) 
11

$$$$

     RDKit          3D

 79 82  0  0  0  0  0  0  0  0999 V2000
  139.9300   73.9410  219.8850 O   0  0  0  0  0  0  0  0  0  0  0  0
  141.0830   74.3750  220.1280 C   0  0  0  0  0  0  0  0  0  0  0  0
  141.9950   73.6000  220.9320 N   0  0  0  0  0  0  0  0  0  0  0  0
  141.6760   72.3330  221.5010 C   0  0  0  0  0  0  0  0  0  0  0  0
  140.6360   72.2240  222.5160 C   0  0  0  0  0  0  0  0  0  0  0  0
  140.0140   73.3650  222.7210 O   0  0  0  0  0  0  0  0  0  0  0  0
  140.1800   71.1660  223.2900 N   0  0  0  0  0  0  0  0  0  0  0  0
  140.6990   70.6410  224.5270 C   0  0  0  0  0  0  0  0  0  0  0  0
  139.5770   70.6980  225.5420 C   0  0  0  0  0  0  0  0  0  0  0  0
  138.4840   69.7080  225.1570 C   0  0  0  0  0  0  0  0  0  0  0  0
  138.6160   69.3160  223.7010 C   0  0  0  0  0  0  0  0  0  0  0  0
  138.9700   70.4560  222.8000 C   0  0  1  0  0  0  0  0  0  0  0  0
  137.8440   71.3900  222.5910 C   0  0  0  0  0  0  0  0  0  0  0  0
  136.7630   71.3610  223.2260 O   0  0  0  0  0  0  0  0  0  0  0  0
  138.0030   72.3920  221.5990 N   0  0  0  0  0  0  0  0  0  0  0  0
  136.9940   73.3800  221.2800 C   0  0  0  0  0  0  0  0  0  0  0  0
  136.9470   74.4720  222.3390 C   0  0  0  0  0  0  0  0  0  0  0  0
  137.0440   75.8030  221.6630 C   0  0  0  0  0  0  0  0  0  0  0  0
  138.1930   76.6280  222.1080 C   0  0  0  0  0  0  0  0  0  0  0  0
  139.4380   76.0650  222.2550 C   0  0  0  0  0  0  0  0  0  0  0  0
  140.4550   76.8830  222.6780 C   0  0  0  0  0  0  0  0  0  0  0  0
  140.2600   78.2440  222.9570 C   0  0  0  0  0  0  0  0  0  0  0  0
  141.2270   78.9940  223.3530 O   0  0  0  0  0  0  0  0  0  0  0  0
  142.1740   79.7460  223.8300 C   0  0  0  0  0  0  0  0  0  0  0  0
  142.8970   80.5090  222.7150 C   0  0  0  0  0  0  0  0  0  0  0  0
  142.1090   80.7690  221.6320 O   0  0  0  0  0  0  0  0  0  0  0  0
  141.7360   82.0590  221.4090 C   0  0  0  0  0  0  0  0  0  0  0  0
  140.2920   82.3670  221.6440 C   0  0  0  0  0  0  0  0  0  0  0  0
  139.6870   81.5530  222.5730 O   0  0  0  0  0  0  0  0  0  0  0  0
  138.9680   78.7340  222.7800 C   0  0  0  0  0  0  0  0  0  0  0  0
  137.9250   77.9670  222.3630 C   0  0  0  0  0  0  0  0  0  0  0  0
  141.5700   75.6670  219.6250 C   0  0  0  0  0  0  0  0  0  0  0  0
  142.8370   75.7800  219.0790 C   0  0  0  0  0  0  0  0  0  0  0  0
  143.2920   76.9740  218.6110 C   0  0  0  0  0  0  0  0  0  0  0  0
  142.5120   78.1010  218.6640 C   0  0  0  0  0  0  0  0  0  0  0  0
  142.9400   79.3360  218.1930 C   0  0  0  0  0  0  0  0  0  0  0  0
  142.0870   80.4250  218.2840 C   0  0  0  0  0  0  0  0  0  0  0  0
  142.4960   81.6510  217.8210 F   0  0  0  0  0  0  0  0  0  0  0  0
  140.8210   80.3300  218.8260 C   0  0  0  0  0  0  0  0  0  0  0  0
  140.4290   79.0770  219.2840 C   0  0  0  0  0  0  0  0  0  0  0  0
  141.2530   77.9750  219.2090 C   0  0  0  0  0  0  0  0  0  0  0  0
  140.7880   76.7850  219.6810 N   0  0  0  0  0  0  0  0  0  0  0  0
  142.9540   73.9920  221.1110 H   0  0  0  0  0  0  0  0  0  0  0  0
  141.3754   71.6794  220.6689 H   0  0  0  0  0  0  0  0  0  0  0  0
  142.5909   72.0691  222.0517 H   0  0  0  0  0  0  0  0  0  0  0  0
  141.0280   69.6008  224.3866 H   0  0  0  0  0  0  0  0  0  0  0  0
  141.5648   71.2276  224.8680 H   0  0  0  0  0  0  0  0  0  0  0  0
  139.9702   70.4398  226.5364 H   0  0  0  0  0  0  0  0  0  0  0  0
  139.1566   71.7143  225.5630 H   0  0  0  0  0  0  0  0  0  0  0  0
  138.5725   68.8085  225.7840 H   0  0  0  0  0  0  0  0  0  0  0  0
  137.5032   70.1815  225.3115 H   0  0  0  0  0  0  0  0  0  0  0  0
  139.4017   68.5507  223.6175 H   0  0  0  0  0  0  0  0  0  0  0  0
  137.6320   68.9452  223.3780 H   0  0  0  0  0  0  0  0  0  0  0  0
  139.1997   70.0232  221.8152 H   0  0  0  0  0  0  0  0  0  0  0  0
  138.9030   72.4260  221.0750 H   0  0  0  0  0  0  0  0  0  0  0  0
  137.2296   73.8333  220.3058 H   0  0  0  0  0  0  0  0  0  0  0  0
  136.0138   72.8820  221.2459 H   0  0  0  0  0  0  0  0  0  0  0  0
  135.9999   74.4077  222.8947 H   0  0  0  0  0  0  0  0  0  0  0  0
  137.7841   74.3476  223.0418 H   0  0  0  0  0  0  0  0  0  0  0  0
  137.1394   75.6339  220.5803 H   0  0  0  0  0  0  0  0  0  0  0  0
  136.1332   76.3597  221.9286 H   0  0  0  0  0  0  0  0  0  0  0  0
  139.6124   75.0000  222.0418 H   0  0  0  0  0  0  0  0  0  0  0  0
  141.4609   76.4557  222.8030 H   0  0  0  0  0  0  0  0  0  0  0  0
  141.7363   80.4697  224.5333 H   0  0  0  0  0  0  0  0  0  0  0  0
  142.9054   79.1008  224.3387 H   0  0  0  0  0  0  0  0  0  0  0  0
  143.2539   81.4660  223.1233 H   0  0  0  0  0  0  0  0  0  0  0  0
  143.7216   79.8690  222.3680 H   0  0  0  0  0  0  0  0  0  0  0  0
  142.3312   82.7025  222.0736 H   0  0  0  0  0  0  0  0  0  0  0  0
  141.9105   82.2404  220.3382 H   0  0  0  0  0  0  0  0  0  0  0  0
  140.2133   83.4072  221.9931 H   0  0  0  0  0  0  0  0  0  0  0  0
  139.7727   82.1981  220.6891 H   0  0  0  0  0  0  0  0  0  0  0  0
  140.2500   80.7590  222.7430 H   0  0  0  0  0  0  0  0  0  0  0  0
  138.7814   79.7978  222.9886 H   0  0  0  0  0  0  0  0  0  0  0  0
  136.9167   78.3872  222.2338 H   0  0  0  0  0  0  0  0  0  0  0  0
  143.4847   74.8927  219.0227 H   0  0  0  0  0  0  0  0  0  0  0  0
  144.3032   77.0365  218.1826 H   0  0  0  0  0  0  0  0  0  0  0  0
  143.9422   79.4482  217.7538 H   0  0  0  0  0  0  0  0  0  0  0  0
  140.1549   81.2028  218.8923 H   0  0  0  0  0  0  0  0  0  0  0  0
  139.4263   78.9614  219.7214 H   0  0  0  0  0  0  0  0  0  0  0  0
  1  2  2  0
  2  3  1  0
  3  4  1  0
  4  5  1  0
  5  6  2  0
  5  7  1  0
  7  8  1  0
  8  9  1  0
  9 10  1  0
 10 11  1  0
 11 12  1  0
 12 13  1  0
 13 14  2  0
 13 15  1  0
 15 16  1  0
 16 17  1  0
 17 18  1  0
 18 19  1  0
 19 20  2  0
 20 21  1  0
 21 22  2  0
 22 23  1  0
 23 24  1  0
 24 25  1  0
 25 26  1  0
 26 27  1  0
 27 28  1  0
 28 29  1  0
 22 30  1  0
 30 31  2  0
  2 32  1  0
 32 33  2  0
 33 34  1  0
 34 35  2  0
 35 36  1  0
 36 37  2  0
 37 38  1  0
 37 39  1  0
 39 40  2  0
 40 41  1  0
 41 42  2  0
 12  7  1  0
 31 19  1  0
 42 32  1  0
 41 35  1  0
  3 43  1  0
  4 44  1  0
  4 45  1  0
  8 46  1  0
  8 47  1  0
  9 48  1  0
  9 49  1  0
 10 50  1  0
 10 51  1  0
 11 52  1  0
 11 53  1  0
 12 54  1  6
 15 55  1  0
 16 56  1  0
 16 57  1  0
 17 58  1  0
 17 59  1  0
 18 60  1  0
 18 61  1  0
 20 62  1  0
 21 63  1  0
 24 64  1  0
 24 65  1  0
 25 66  1  0
 25 67  1  0
 27 68  1  0
 27 69  1  0
 28 70  1  0
 28 71  1  0
 29 72  1  0
 30 73  1  0
 31 74  1  0
 33 75  1  0
 34 76  1  0
 36 77  1  0
 39 78  1  0
 40 79  1  0
M  END
>  <smiles>  (17) 
O=C(NCC(=O)N1CCCC[C@H]1C(=O)NCCCc1ccc(OCCOCCO)cc1)c1ccc2cc(F)ccc2n1

>  <score_type>  (17) 
oracle

>  <origin>  (17) 
autodockgpu

>  <m_score__min__energy>  (17) 
-7.8899999999999997

>  <m_primary>  (17) 
energy

>  <meeko>  (17) 
{"free_energy": -4.34, "intermolecular_energy": -9.12, "internal_energy": -6.77, "cluster_size": 1, "cluster_id": 14, "rank_in_cluster": 1}

>  <energy>  (17) 
-4.84

>  <cluster_rmsd>  (17) 
0.0

>  <rmsd>  (17) 
268.59

>  <cluster>  (17) 
12

$$$$

     RDKit          3D

 79 82  0  0  0  0  0  0  0  0999 V2000
  138.7640   72.6550  221.5570 O   0  0  0  0  0  0  0  0  0  0  0  0
  139.7770   72.3840  222.2490 C   0  0  0  0  0  0  0  0  0  0  0  0
  141.0670   72.9130  221.8830 N   0  0  0  0  0  0  0  0  0  0  0  0
  141.2940   73.7470  220.7500 C   0  0  0  0  0  0  0  0  0  0  0  0
  140.6810   75.0670  220.6750 C   0  0  0  0  0  0  0  0  0  0  0  0
  139.5010   75.0380  220.0930 O   0  0  0  0  0  0  0  0  0  0  0  0
  141.0910   76.3240  221.0960 N   0  0  0  0  0  0  0  0  0  0  0  0
  141.9800   77.2620  220.4610 C   0  0  0  0  0  0  0  0  0  0  0  0
  141.2130   78.5560  220.2850 C   0  0  0  0  0  0  0  0  0  0  0  0
  140.9390   79.1800  221.6480 C   0  0  0  0  0  0  0  0  0  0  0  0
  141.0960   78.1470  222.7430 C   0  0  0  0  0  0  0  0  0  0  0  0
  140.5390   76.8060  222.3900 C   0  0  1  0  0  0  0  0  0  0  0  0
  139.0620   76.7820  222.3880 C   0  0  0  0  0  0  0  0  0  0  0  0
  138.3300   77.7980  222.4590 O   0  0  0  0  0  0  0  0  0  0  0  0
  138.4280   75.5160  222.2950 N   0  0  0  0  0  0  0  0  0  0  0  0
  136.9940   75.3290  222.2780 C   0  0  0  0  0  0  0  0  0  0  0  0
  136.3870   75.6420  223.6380 C   0  0  0  0  0  0  0  0  0  0  0  0
  135.2840   76.6350  223.4570 C   0  0  0  0  0  0  0  0  0  0  0  0
  134.3820   76.7620  224.6280 C   0  0  0  0  0  0  0  0  0  0  0  0
  134.3530   75.7840  225.5930 C   0  0  0  0  0  0  0  0  0  0  0  0
  133.4910   75.9600  226.6450 C   0  0  0  0  0  0  0  0  0  0  0  0
  132.6590   77.0840  226.7570 C   0  0  0  0  0  0  0  0  0  0  0  0
  131.8560   77.2300  227.7510 O   0  0  0  0  0  0  0  0  0  0  0  0
  131.0520   77.4590  228.7470 C   0  0  0  0  0  0  0  0  0  0  0  0
  130.7050   78.9460  228.8550 C   0  0  0  0  0  0  0  0  0  0  0  0
  131.6700   79.6900  229.4690 O   0  0  0  0  0  0  0  0  0  0  0  0
  132.8070   79.9610  228.7710 C   0  0  0  0  0  0  0  0  0  0  0  0
  133.7000   81.0010  229.3650 C   0  0  0  0  0  0  0  0  0  0  0  0
  133.2030   81.5850  230.5070 O   0  0  0  0  0  0  0  0  0  0  0  0
  132.7520   78.0290  225.7360 C   0  0  0  0  0  0  0  0  0  0  0  0
  133.5900   77.9030  224.6720 C   0  0  0  0  0  0  0  0  0  0  0  0
  139.7200   71.5320  223.4450 C   0  0  0  0  0  0  0  0  0  0  0  0
  138.9520   70.3810  223.4560 C   0  0  0  0  0  0  0  0  0  0  0  0
  138.8960   69.5880  224.5600 C   0  0  0  0  0  0  0  0  0  0  0  0
  139.5980   69.9030  225.6950 C   0  0  0  0  0  0  0  0  0  0  0  0
  139.5690   69.1180  226.8420 C   0  0  0  0  0  0  0  0  0  0  0  0
  140.3100   69.5080  227.9460 C   0  0  0  0  0  0  0  0  0  0  0  0
  140.2920   68.7410  229.0840 F   0  0  0  0  0  0  0  0  0  0  0  0
  141.0810   70.6530  227.9520 C   0  0  0  0  0  0  0  0  0  0  0  0
  141.0850   71.4110  226.7860 C   0  0  0  0  0  0  0  0  0  0  0  0
  140.3590   71.0510  225.6720 C   0  0  0  0  0  0  0  0  0  0  0  0
  140.4210   71.8520  224.5720 N   0  0  0  0  0  0  0  0  0  0  0  0
  141.8930   72.6690  222.4880 H   0  0  0  0  0  0  0  0  0  0  0  0
  142.3813   73.8989  220.6819 H   0  0  0  0  0  0  0  0  0  0  0  0
  140.8042   73.1972  219.9328 H   0  0  0  0  0  0  0  0  0  0  0  0
  142.8642   77.4308  221.0933 H   0  0  0  0  0  0  0  0  0  0  0  0
  142.3254   76.8773  219.4901 H   0  0  0  0  0  0  0  0  0  0  0  0
  141.8073   79.2534  219.6764 H   0  0  0  0  0  0  0  0  0  0  0  0
  140.2577   78.3476  219.7810 H   0  0  0  0  0  0  0  0  0  0  0  0
  141.6502   80.0014  221.8200 H   0  0  0  0  0  0  0  0  0  0  0  0
  139.9079   79.5628  221.6641 H   0  0  0  0  0  0  0  0  0  0  0  0
  142.1682   78.0313  222.9598 H   0  0  0  0  0  0  0  0  0  0  0  0
  140.5283   78.5116  223.6118 H   0  0  0  0  0  0  0  0  0  0  0  0
  140.8579   76.1120  223.1816 H   0  0  0  0  0  0  0  0  0  0  0  0
  139.0320   74.6690  222.2270 H   0  0  0  0  0  0  0  0  0  0  0  0
  136.5529   75.9982  221.5246 H   0  0  0  0  0  0  0  0  0  0  0  0
  136.7805   74.2782  222.0324 H   0  0  0  0  0  0  0  0  0  0  0  0
  135.9851   74.7204  224.0843 H   0  0  0  0  0  0  0  0  0  0  0  0
  137.1575   76.0570  224.3043 H   0  0  0  0  0  0  0  0  0  0  0  0
  135.7345   77.6190  223.2602 H   0  0  0  0  0  0  0  0  0  0  0  0
  134.6674   76.2737  222.6207 H   0  0  0  0  0  0  0  0  0  0  0  0
  134.9963   74.8944  225.5243 H   0  0  0  0  0  0  0  0  0  0  0  0
  133.4504   75.1910  227.4305 H   0  0  0  0  0  0  0  0  0  0  0  0
  130.1254   76.8853  228.5980 H   0  0  0  0  0  0  0  0  0  0  0  0
  131.5559   77.1530  229.6757 H   0  0  0  0  0  0  0  0  0  0  0  0
  130.5539   79.3422  227.8400 H   0  0  0  0  0  0  0  0  0  0  0  0
  129.7983   79.0210  229.4733 H   0  0  0  0  0  0  0  0  0  0  0  0
  133.3834   79.0278  228.6886 H   0  0  0  0  0  0  0  0  0  0  0  0
  132.4754   80.3676  227.8042 H   0  0  0  0  0  0  0  0  0  0  0  0
  134.6634   80.5297  229.6096 H   0  0  0  0  0  0  0  0  0  0  0  0
  133.7952   81.8012  228.6163 H   0  0  0  0  0  0  0  0  0  0  0  0
  132.2230   81.4650  230.5480 H   0  0  0  0  0  0  0  0  0  0  0  0
  132.1142   78.9234  225.7940 H   0  0  0  0  0  0  0  0  0  0  0  0
  133.6385   78.6684  223.8834 H   0  0  0  0  0  0  0  0  0  0  0  0
  138.3786   70.1032  222.5593 H   0  0  0  0  0  0  0  0  0  0  0  0
  138.2771   68.6788  224.5418 H   0  0  0  0  0  0  0  0  0  0  0  0
  138.9654   68.1989  226.8727 H   0  0  0  0  0  0  0  0  0  0  0  0
  141.6638   70.9513  228.8359 H   0  0  0  0  0  0  0  0  0  0  0  0
  141.6888   72.3298  226.7521 H   0  0  0  0  0  0  0  0  0  0  0  0
  1  2  2  0
  2  3  1  0
  3  4  1  0
  4  5  1  0
  5  6  2  0
  5  7  1  0
  7  8  1  0
  8  9  1  0
  9 10  1  0
 10 11  1  0
 11 12  1  0
 12 13  1  0
 13 14  2  0
 13 15  1  0
 15 16  1  0
 16 17  1  0
 17 18  1  0
 18 19  1  0
 19 20  2  0
 20 21  1  0
 21 22  2  0
 22 23  1  0
 23 24  1  0
 24 25  1  0
 25 26  1  0
 26 27  1  0
 27 28  1  0
 28 29  1  0
 22 30  1  0
 30 31  2  0
  2 32  1  0
 32 33  2  0
 33 34  1  0
 34 35  2  0
 35 36  1  0
 36 37  2  0
 37 38  1  0
 37 39  1  0
 39 40  2  0
 40 41  1  0
 41 42  2  0
 12  7  1  0
 31 19  1  0
 42 32  1  0
 41 35  1  0
  3 43  1  0
  4 44  1  0
  4 45  1  0
  8 46  1  0
  8 47  1  0
  9 48  1  0
  9 49  1  0
 10 50  1  0
 10 51  1  0
 11 52  1  0
 11 53  1  0
 12 54  1  1
 15 55  1  0
 16 56  1  0
 16 57  1  0
 17 58  1  0
 17 59  1  0
 18 60  1  0
 18 61  1  0
 20 62  1  0
 21 63  1  0
 24 64  1  0
 24 65  1  0
 25 66  1  0
 25 67  1  0
 27 68  1  0
 27 69  1  0
 28 70  1  0
 28 71  1  0
 29 72  1  0
 30 73  1  0
 31 74  1  0
 33 75  1  0
 34 76  1  0
 36 77  1  0
 39 78  1  0
 40 79  1  0
M  END
>  <smiles>  (18) 
O=C(NCC(=O)N1CCCC[C@H]1C(=O)NCCCc1ccc(OCCOCCO)cc1)c1ccc2cc(F)ccc2n1

>  <score_type>  (18) 
oracle

>  <origin>  (18) 
autodockgpu

>  <m_score__min__energy>  (18) 
-7.8899999999999997

>  <m_primary>  (18) 
energy

>  <meeko>  (18) 
{"free_energy": -6.81, "intermolecular_energy": -11.58, "internal_energy": -4.32, "cluster_size": 1, "cluster_id": 5, "rank_in_cluster": 1}

>  <energy>  (18) 
-4.59

>  <cluster_rmsd>  (18) 
0.0

>  <rmsd>  (18) 
269.02

>  <cluster>  (18) 
13

$$$$

     RDKit          3D

 79 82  0  0  0  0  0  0  0  0999 V2000
  134.7310   68.5180  225.2100 O   0  0  0  0  0  0  0  0  0  0  0  0
  135.1060   69.7150  225.1390 C   0  0  0  0  0  0  0  0  0  0  0  0
  136.3120   70.0550  224.4260 N   0  0  0  0  0  0  0  0  0  0  0  0
  137.1480   69.1030  223.7750 C   0  0  0  0  0  0  0  0  0  0  0  0
  138.4900   68.8380  224.2770 C   0  0  0  0  0  0  0  0  0  0  0  0
  139.3650   68.6770  223.3080 O   0  0  0  0  0  0  0  0  0  0  0  0
  139.0150   68.7320  225.5570 N   0  0  0  0  0  0  0  0  0  0  0  0
  139.2820   67.5580  226.3480 C   0  0  0  0  0  0  0  0  0  0  0  0
  140.7500   67.5900  226.7150 C   0  0  0  0  0  0  0  0  0  0  0  0
  141.0150   68.7420  227.6760 C   0  0  0  0  0  0  0  0  0  0  0  0
  139.8840   69.7470  227.6200 C   0  0  0  0  0  0  0  0  0  0  0  0
  139.3750   70.0040  226.2380 C   0  0  1  0  0  0  0  0  0  0  0  0
  140.3120   70.8040  225.4220 C   0  0  0  0  0  0  0  0  0  0  0  0
  141.4350   71.2060  225.8120 O   0  0  0  0  0  0  0  0  0  0  0  0
  139.9100   71.1380  224.1030 N   0  0  0  0  0  0  0  0  0  0  0  0
  140.7170   71.9120  223.1840 C   0  0  0  0  0  0  0  0  0  0  0  0
  139.9940   72.1140  221.8610 C   0  0  0  0  0  0  0  0  0  0  0  0
  139.0280   73.2460  222.0070 C   0  0  0  0  0  0  0  0  0  0  0  0
  139.5920   74.5740  221.6600 C   0  0  0  0  0  0  0  0  0  0  0  0
  138.8780   75.7210  221.9150 C   0  0  0  0  0  0  0  0  0  0  0  0
  139.4530   76.9140  221.5620 C   0  0  0  0  0  0  0  0  0  0  0  0
  140.7190   76.9920  220.9620 C   0  0  0  0  0  0  0  0  0  0  0  0
  141.2410   78.1220  220.6380 O   0  0  0  0  0  0  0  0  0  0  0  0
  141.8300   79.2470  220.3600 C   0  0  0  0  0  0  0  0  0  0  0  0
  141.6130   80.2800  221.4700 C   0  0  0  0  0  0  0  0  0  0  0  0
  142.6130   80.3040  222.3970 O   0  0  0  0  0  0  0  0  0  0  0  0
  142.2640   80.3100  223.7130 C   0  0  0  0  0  0  0  0  0  0  0  0
  141.6230   79.0590  224.2200 C   0  0  0  0  0  0  0  0  0  0  0  0
  141.8170   77.9610  223.4150 O   0  0  0  0  0  0  0  0  0  0  0  0
  141.3750   75.7830  220.7400 C   0  0  0  0  0  0  0  0  0  0  0  0
  140.8500   74.5730  221.0720 C   0  0  0  0  0  0  0  0  0  0  0  0
  134.3640   70.8200  225.7610 C   0  0  0  0  0  0  0  0  0  0  0  0
  133.3220   70.5670  226.6370 C   0  0  0  0  0  0  0  0  0  0  0  0
  132.6330   71.5870  227.2160 C   0  0  0  0  0  0  0  0  0  0  0  0
  132.9470   72.8950  226.9520 C   0  0  0  0  0  0  0  0  0  0  0  0
  132.2680   73.9640  227.5270 C   0  0  0  0  0  0  0  0  0  0  0  0
  132.6520   75.2570  227.2070 C   0  0  0  0  0  0  0  0  0  0  0  0
  131.9910   76.3220  227.7680 F   0  0  0  0  0  0  0  0  0  0  0  0
  133.6870   75.5270  226.3360 C   0  0  0  0  0  0  0  0  0  0  0  0
  134.3420   74.4320  225.7830 C   0  0  0  0  0  0  0  0  0  0  0  0
  133.9860   73.1350  226.0800 C   0  0  0  0  0  0  0  0  0  0  0  0
  134.6820   72.1210  225.4940 N   0  0  0  0  0  0  0  0  0  0  0  0
  136.5930   71.0680  224.3830 H   0  0  0  0  0  0  0  0  0  0  0  0
  136.6088   68.1444  223.7929 H   0  0  0  0  0  0  0  0  0  0  0  0
  137.3351   69.5647  222.7943 H   0  0  0  0  0  0  0  0  0  0  0  0
  138.6655   67.5691  227.2589 H   0  0  0  0  0  0  0  0  0  0  0  0
  139.0401   66.6445  225.7850 H   0  0  0  0  0  0  0  0  0  0  0  0
  141.0270   66.6408  227.1970 H   0  0  0  0  0  0  0  0  0  0  0  0
  141.3499   67.7309  225.8038 H   0  0  0  0  0  0  0  0  0  0  0  0
  141.0994   68.3480  228.6995 H   0  0  0  0  0  0  0  0  0  0  0  0
  141.9508   69.2414  227.3848 H   0  0  0  0  0  0  0  0  0  0  0  0
  139.0520   69.3676  228.2314 H   0  0  0  0  0  0  0  0  0  0  0  0
  140.2825   70.7002  227.9977 H   0  0  0  0  0  0  0  0  0  0  0  0
  138.4627   70.6092  226.3448 H   0  0  0  0  0  0  0  0  0  0  0  0
  138.9820   70.7990  223.7730 H   0  0  0  0  0  0  0  0  0  0  0  0
  140.9297   72.8942  223.6314 H   0  0  0  0  0  0  0  0  0  0  0  0
  141.6521   71.3652  222.9926 H   0  0  0  0  0  0  0  0  0  0  0  0
  140.7243   72.3506  221.0731 H   0  0  0  0  0  0  0  0  0  0  0  0
  139.4544   71.1956  221.5862 H   0  0  0  0  0  0  0  0  0  0  0  0
  138.1683   73.0533  221.3484 H   0  0  0  0  0  0  0  0  0  0  0  0
  138.7485   73.2886  223.0701 H   0  0  0  0  0  0  0  0  0  0  0  0
  137.8838   75.6827  222.3841 H   0  0  0  0  0  0  0  0  0  0  0  0
  138.9012   77.8455  221.7564 H   0  0  0  0  0  0  0  0  0  0  0  0
  142.9090   79.0672  220.2443 H   0  0  0  0  0  0  0  0  0  0  0  0
  141.3985   79.6431  219.4289 H   0  0  0  0  0  0  0  0  0  0  0  0
  141.5424   81.2762  221.0089 H   0  0  0  0  0  0  0  0  0  0  0  0
  140.6905   79.9969  221.9981 H   0  0  0  0  0  0  0  0  0  0  0  0
  143.1754   80.4858  224.3034 H   0  0  0  0  0  0  0  0  0  0  0  0
  141.5049   81.0991  223.8179 H   0  0  0  0  0  0  0  0  0  0  0  0
  142.0390   78.8363  225.2137 H   0  0  0  0  0  0  0  0  0  0  0  0
  140.5393   79.2461  224.2444 H   0  0  0  0  0  0  0  0  0  0  0  0
  142.2540   78.2340  222.5720 H   0  0  0  0  0  0  0  0  0  0  0  0
  142.3699   75.8084  220.2715 H   0  0  0  0  0  0  0  0  0  0  0  0
  141.3965   73.6372  220.8835 H   0  0  0  0  0  0  0  0  0  0  0  0
  133.0476   69.5271  226.8678 H   0  0  0  0  0  0  0  0  0  0  0  0
  131.8093   71.3582  227.9083 H   0  0  0  0  0  0  0  0  0  0  0  0
  131.4376   73.7859  228.2261 H   0  0  0  0  0  0  0  0  0  0  0  0
  133.9800   76.5585  226.0907 H   0  0  0  0  0  0  0  0  0  0  0  0
  135.1732   74.6077  225.0842 H   0  0  0  0  0  0  0  0  0  0  0  0
  1  2  2  0
  2  3  1  0
  3  4  1  0
  4  5  1  0
  5  6  2  0
  5  7  1  0
  7  8  1  0
  8  9  1  0
  9 10  1  0
 10 11  1  0
 11 12  1  0
 12 13  1  0
 13 14  2  0
 13 15  1  0
 15 16  1  0
 16 17  1  0
 17 18  1  0
 18 19  1  0
 19 20  2  0
 20 21  1  0
 21 22  2  0
 22 23  1  0
 23 24  1  0
 24 25  1  0
 25 26  1  0
 26 27  1  0
 27 28  1  0
 28 29  1  0
 22 30  1  0
 30 31  2  0
  2 32  1  0
 32 33  2  0
 33 34  1  0
 34 35  2  0
 35 36  1  0
 36 37  2  0
 37 38  1  0
 37 39  1  0
 39 40  2  0
 40 41  1  0
 41 42  2  0
 12  7  1  0
 31 19  1  0
 42 32  1  0
 41 35  1  0
  3 43  1  0
  4 44  1  0
  4 45  1  0
  8 46  1  0
  8 47  1  0
  9 48  1  0
  9 49  1  0
 10 50  1  0
 10 51  1  0
 11 52  1  0
 11 53  1  0
 12 54  1  1
 15 55  1  0
 16 56  1  0
 16 57  1  0
 17 58  1  0
 17 59  1  0
 18 60  1  0
 18 61  1  0
 20 62  1  0
 21 63  1  0
 24 64  1  0
 24 65  1  0
 25 66  1  0
 25 67  1  0
 27 68  1  0
 27 69  1  0
 28 70  1  0
 28 71  1  0
 29 72  1  0
 30 73  1  0
 31 74  1  0
 33 75  1  0
 34 76  1  0
 36 77  1  0
 39 78  1  0
 40 79  1  0
M  END
>  <smiles>  (19) 
O=C(NCC(=O)N1CCCC[C@H]1C(=O)NCCCc1ccc(OCCOCCO)cc1)c1ccc2cc(F)ccc2n1

>  <score_type>  (19) 
oracle

>  <origin>  (19) 
autodockgpu

>  <m_score__min__energy>  (19) 
-7.8899999999999997

>  <m_primary>  (19) 
energy

>  <meeko>  (19) 
{"free_energy": -7.89, "intermolecular_energy": -12.66, "internal_energy": -4.37, "cluster_size": 2, "cluster_id": 1, "rank_in_cluster": 1}

>  <energy>  (19) 
-4.34

>  <cluster_rmsd>  (19) 
0.0

>  <rmsd>  (19) 
269.15

>  <cluster>  (19) 
14

$$$$

     RDKit          3D

 79 82  0  0  0  0  0  0  0  0999 V2000
  142.9630   79.1860  218.2940 O   0  0  0  0  0  0  0  0  0  0  0  0
  142.3310   78.1400  218.5870 C   0  0  0  0  0  0  0  0  0  0  0  0
  140.9430   78.2160  218.9700 N   0  0  0  0  0  0  0  0  0  0  0  0
  140.2050   79.4320  219.0520 C   0  0  0  0  0  0  0  0  0  0  0  0
  140.2450   80.2350  220.2670 C   0  0  0  0  0  0  0  0  0  0  0  0
  139.1600   80.9650  220.4210 O   0  0  0  0  0  0  0  0  0  0  0  0
  141.1850   80.3730  221.2770 N   0  0  0  0  0  0  0  0  0  0  0  0
  141.5500   81.5360  222.0440 C   0  0  0  0  0  0  0  0  0  0  0  0
  141.3470   81.1910  223.5040 C   0  0  0  0  0  0  0  0  0  0  0  0
  142.3660   80.1420  223.9310 C   0  0  0  0  0  0  0  0  0  0  0  0
  142.9480   79.4480  222.7180 C   0  0  0  0  0  0  0  0  0  0  0  0
  141.9410   79.1490  221.6540 C   0  0  1  0  0  0  0  0  0  0  0  0
  141.0310   78.0450  222.0220 C   0  0  0  0  0  0  0  0  0  0  0  0
  139.9290   78.1910  222.6030 O   0  0  0  0  0  0  0  0  0  0  0  0
  141.4350   76.7260  221.6900 N   0  0  0  0  0  0  0  0  0  0  0  0
  140.6520   75.5440  221.9810 C   0  0  0  0  0  0  0  0  0  0  0  0
  140.7830   74.5160  220.8670 C   0  0  0  0  0  0  0  0  0  0  0  0
  139.5790   73.6300  220.8860 C   0  0  0  0  0  0  0  0  0  0  0  0
  139.5390   72.6810  222.0260 C   0  0  0  0  0  0  0  0  0  0  0  0
  140.6940   72.3460  222.6910 C   0  0  0  0  0  0  0  0  0  0  0  0
  140.5880   71.4570  223.7300 C   0  0  0  0  0  0  0  0  0  0  0  0
  139.3630   70.8960  224.1200 C   0  0  0  0  0  0  0  0  0  0  0  0
  139.2850   70.0630  225.0970 O   0  0  0  0  0  0  0  0  0  0  0  0
  139.1800   69.1650  226.0310 C   0  0  0  0  0  0  0  0  0  0  0  0
  140.5490   68.5950  226.4140 C   0  0  0  0  0  0  0  0  0  0  0  0
  141.4020   69.5250  226.9330 O   0  0  0  0  0  0  0  0  0  0  0  0
  141.0450   70.1410  228.0940 C   0  0  0  0  0  0  0  0  0  0  0  0
  140.8550   71.6200  228.0110 C   0  0  0  0  0  0  0  0  0  0  0  0
  140.8490   72.1170  226.7290 O   0  0  0  0  0  0  0  0  0  0  0  0
  138.2410   71.2910  223.3930 C   0  0  0  0  0  0  0  0  0  0  0  0
  138.2910   72.1690  222.3550 C   0  0  0  0  0  0  0  0  0  0  0  0
  142.9440   76.8050  218.5610 C   0  0  0  0  0  0  0  0  0  0  0  0
  143.0230   76.0880  217.3800 C   0  0  0  0  0  0  0  0  0  0  0  0
  143.5910   74.8520  217.3500 C   0  0  0  0  0  0  0  0  0  0  0  0
  144.1030   74.2790  218.4860 C   0  0  0  0  0  0  0  0  0  0  0  0
  144.6930   73.0200  218.4960 C   0  0  0  0  0  0  0  0  0  0  0  0
  145.1870   72.5150  219.6890 C   0  0  0  0  0  0  0  0  0  0  0  0
  145.7740   71.2750  219.7120 F   0  0  0  0  0  0  0  0  0  0  0  0
  145.1160   73.2170  220.8740 C   0  0  0  0  0  0  0  0  0  0  0  0
  144.5200   74.4730  220.8240 C   0  0  0  0  0  0  0  0  0  0  0  0
  144.0190   75.0030  219.6550 C   0  0  0  0  0  0  0  0  0  0  0  0
  143.4520   76.2410  219.6960 N   0  0  0  0  0  0  0  0  0  0  0  0
  140.4440   77.3200  219.2030 H   0  0  0  0  0  0  0  0  0  0  0  0
  140.5644   80.0757  218.2356 H   0  0  0  0  0  0  0  0  0  0  0  0
  139.1594   79.0929  219.0110 H   0  0  0  0  0  0  0  0  0  0  0  0
  142.6037   81.7931  221.8605 H   0  0  0  0  0  0  0  0  0  0  0  0
  140.9343   82.4015  221.7580 H   0  0  0  0  0  0  0  0  0  0  0  0
  141.4766   82.0965  224.1150 H   0  0  0  0  0  0  0  0  0  0  0  0
  140.3320   80.7914  223.6458 H   0  0  0  0  0  0  0  0  0  0  0  0
  143.1759   80.6307  224.4924 H   0  0  0  0  0  0  0  0  0  0  0  0
  141.8652   79.3946  224.5640 H   0  0  0  0  0  0  0  0  0  0  0  0
  143.7258   80.0959  222.2875 H   0  0  0  0  0  0  0  0  0  0  0  0
  143.3478   78.4826  223.0618 H   0  0  0  0  0  0  0  0  0  0  0  0
  142.5027   78.8055  220.7728 H   0  0  0  0  0  0  0  0  0  0  0  0
  142.3450   76.6010  221.2000 H   0  0  0  0  0  0  0  0  0  0  0  0
  141.0063   75.1006  222.9233 H   0  0  0  0  0  0  0  0  0  0  0  0
  139.5949   75.8359  222.0663 H   0  0  0  0  0  0  0  0  0  0  0  0
  140.8494   75.0291  219.8962 H   0  0  0  0  0  0  0  0  0  0  0  0
  141.6920   73.9151  221.0175 H   0  0  0  0  0  0  0  0  0  0  0  0
  138.6832   74.2665  220.9357 H   0  0  0  0  0  0  0  0  0  0  0  0
  139.6201   73.0219  219.9703 H   0  0  0  0  0  0  0  0  0  0  0  0
  141.6651   72.7739  222.4014 H   0  0  0  0  0  0  0  0  0  0  0  0
  141.4983   71.1731  224.2783 H   0  0  0  0  0  0  0  0  0  0  0  0
  138.7222   69.6244  226.9195 H   0  0  0  0  0  0  0  0  0  0  0  0
  138.5560   68.3423  225.6519 H   0  0  0  0  0  0  0  0  0  0  0  0
  140.3990   67.8040  227.1635 H   0  0  0  0  0  0  0  0  0  0  0  0
  141.0098   68.2143  225.4906 H   0  0  0  0  0  0  0  0  0  0  0  0
  140.0978   69.6972  228.4346 H   0  0  0  0  0  0  0  0  0  0  0  0
  141.8853   69.9852  228.7865 H   0  0  0  0  0  0  0  0  0  0  0  0
  139.8935   71.8712  228.4827 H   0  0  0  0  0  0  0  0  0  0  0  0
  141.7140   72.0780  228.5233 H   0  0  0  0  0  0  0  0  0  0  0  0
  140.6930   71.3840  226.0850 H   0  0  0  0  0  0  0  0  0  0  0  0
  137.2639   70.8707  223.6734 H   0  0  0  0  0  0  0  0  0  0  0  0
  137.3854   72.4596  221.8024 H   0  0  0  0  0  0  0  0  0  0  0  0
  142.6212   76.5232  216.4531 H   0  0  0  0  0  0  0  0  0  0  0  0
  143.6404   74.3028  216.3982 H   0  0  0  0  0  0  0  0  0  0  0  0
  144.7669   72.4321  217.5692 H   0  0  0  0  0  0  0  0  0  0  0  0
  145.5116   72.8036  221.8135 H   0  0  0  0  0  0  0  0  0  0  0  0
  144.4462   75.0632  221.7493 H   0  0  0  0  0  0  0  0  0  0  0  0
  1  2  2  0
  2  3  1  0
  3  4  1  0
  4  5  1  0
  5  6  2  0
  5  7  1  0
  7  8  1  0
  8  9  1  0
  9 10  1  0
 10 11  1  0
 11 12  1  0
 12 13  1  0
 13 14  2  0
 13 15  1  0
 15 16  1  0
 16 17  1  0
 17 18  1  0
 18 19  1  0
 19 20  2  0
 20 21  1  0
 21 22  2  0
 22 23  1  0
 23 24  1  0
 24 25  1  0
 25 26  1  0
 26 27  1  0
 27 28  1  0
 28 29  1  0
 22 30  1  0
 30 31  2  0
  2 32  1  0
 32 33  2  0
 33 34  1  0
 34 35  2  0
 35 36  1  0
 36 37  2  0
 37 38  1  0
 37 39  1  0
 39 40  2  0
 40 41  1  0
 41 42  2  0
 12  7  1  0
 31 19  1  0
 42 32  1  0
 41 35  1  0
  3 43  1  0
  4 44  1  0
  4 45  1  0
  8 46  1  0
  8 47  1  0
  9 48  1  0
  9 49  1  0
 10 50  1  0
 10 51  1  0
 11 52  1  0
 11 53  1  0
 12 54  1  6
 15 55  1  0
 16 56  1  0
 16 57  1  0
 17 58  1  0
 17 59  1  0
 18 60  1  0
 18 61  1  0
 20 62  1  0
 21 63  1  0
 24 64  1  0
 24 65  1  0
 25 66  1  0
 25 67  1  0
 27 68  1  0
 27 69  1  0
 28 70  1  0
 28 71  1  0
 29 72  1  0
 30 73  1  0
 31 74  1  0
 33 75  1  0
 34 76  1  0
 36 77  1  0
 39 78  1  0
 40 79  1  0
M  END
>  <smiles>  (20) 
O=C(NCC(=O)N1CCCC[C@H]1C(=O)NCCCc1ccc(OCCOCCO)cc1)c1ccc2cc(F)ccc2n1

>  <score_type>  (20) 
oracle

>  <origin>  (20) 
autodockgpu

>  <m_score__min__energy>  (20) 
-7.8899999999999997

>  <m_primary>  (20) 
energy

>  <meeko>  (20) 
{"free_energy": -6.97, "intermolecular_energy": -11.75, "internal_energy": -5.51, "cluster_size": 2, "cluster_id": 3, "rank_in_cluster": 1}

>  <energy>  (20) 
-3.97

>  <cluster_rmsd>  (20) 
0.0

>  <rmsd>  (20) 
269.21

>  <cluster>  (20) 
15

$$$$
