
     RDKit          3D

 64 67  0  0  1  0  0  0  0  0999 V2000
  139.6750   78.9470  223.2460 O   0  0  0  0  0  0  0  0  0  0  0  0
  140.2810   77.9510  222.7230 C   0  0  0  0  0  0  0  0  0  0  0  0
  141.6460   78.1260  222.4270 N   0  0  0  0  0  0  0  0  0  0  0  0
  142.3060   79.3750  222.7090 C   0  0  0  0  0  0  0  0  0  0  0  0
  141.6600   80.5230  222.0380 C   0  0  0  0  0  0  0  0  0  0  0  0
  141.3290   81.5870  222.6490 O   0  0  0  0  0  0  0  0  0  0  0  0
  141.4070   80.4100  220.6430 N   0  0  0  0  0  0  0  0  0  0  0  0
  141.8220   81.2930  219.5680 C   0  0  0  0  0  0  0  0  0  0  0  0
  140.6040   81.3900  218.7040 C   0  0  0  0  0  0  0  0  0  0  0  0
  139.8200   80.1300  218.9970 C   0  0  0  0  0  0  0  0  0  0  0  0
  140.6510   79.3440  219.9840 C   0  0  1  0  0  0  0  0  0  0  0  0
  141.6410   78.4610  219.3170 C   0  0  0  0  0  0  0  0  0  0  0  0
  142.3660   78.8060  218.3660 O   0  0  0  0  0  0  0  0  0  0  0  0
  141.7740   77.1280  219.7960 N   0  0  0  0  0  0  0  0  0  0  0  0
  142.7610   76.2950  219.1090 C   0  0  0  0  0  0  0  0  0  0  0  0
  142.8060   74.9910  219.8340 C   0  0  2  0  0  0  0  0  0  0  0  0
  142.5500   75.1500  221.1810 O   0  0  0  0  0  0  0  0  0  0  0  0
  144.0700   74.2020  219.5800 C   0  0  0  0  0  0  0  0  0  0  0  0
  144.8450   73.9430  220.8330 C   0  0  0  0  0  0  0  0  0  0  0  0
  146.1990   73.3880  220.4460 C   0  0  0  0  0  0  0  0  0  0  0  0
  146.2900   73.1260  219.0280 N   0  0  0  0  0  0  0  0  0  0  0  0
  145.2030   72.3580  218.5010 C   0  0  0  0  0  0  0  0  0  0  0  0
  143.8330   72.9040  218.8770 C   0  0  0  0  0  0  0  0  0  0  0  0
  139.5950   76.6930  222.4450 C   0  0  0  0  0  0  0  0  0  0  0  0
  138.2200   76.6310  222.4920 C   0  0  0  0  0  0  0  0  0  0  0  0
  137.5380   75.4450  222.2310 C   0  0  0  0  0  0  0  0  0  0  0  0
  138.2510   74.2980  221.9190 C   0  0  0  0  0  0  0  0  0  0  0  0
  137.6360   73.0920  221.6500 C   0  0  0  0  0  0  0  0  0  0  0  0
  138.4260   72.0020  221.3480 C   0  0  0  0  0  0  0  0  0  0  0  0
  137.7930   70.8180  221.0860 F   0  0  0  0  0  0  0  0  0  0  0  0
  139.8080   72.0660  221.3010 C   0  0  0  0  0  0  0  0  0  0  0  0
  140.3850   73.2840  221.5740 C   0  0  0  0  0  0  0  0  0  0  0  0
  139.6300   74.3990  221.8810 C   0  0  0  0  0  0  0  0  0  0  0  0
  140.2630   75.5660  222.1390 N   0  0  0  0  0  0  0  0  0  0  0  0
  142.1500   77.3120  221.9980 H   0  0  0  0  0  0  0  0  0  0  0  0
  142.2875   79.5459  223.7955 H   0  0  0  0  0  0  0  0  0  0  0  0
  143.3351   79.3018  222.3275 H   0  0  0  0  0  0  0  0  0  0  0  0
  142.1063   82.2812  219.9587 H   0  0  0  0  0  0  0  0  0  0  0  0
  142.7034   80.9212  219.0249 H   0  0  0  0  0  0  0  0  0  0  0  0
  140.0149   82.2819  218.9637 H   0  0  0  0  0  0  0  0  0  0  0  0
  140.8580   81.4821  217.6377 H   0  0  0  0  0  0  0  0  0  0  0  0
  138.8424   80.3809  219.4345 H   0  0  0  0  0  0  0  0  0  0  0  0
  139.6281   79.5521  218.0809 H   0  0  0  0  0  0  0  0  0  0  0  0
  140.0290   78.7017  220.6247 H   0  0  0  0  0  0  0  0  0  0  0  0
  141.1940   76.7990  220.5820 H   0  0  0  0  0  0  0  0  0  0  0  0
  142.4599   76.1363  218.0630 H   0  0  0  0  0  0  0  0  0  0  0  0
  143.7494   76.7777  219.1042 H   0  0  0  0  0  0  0  0  0  0  0  0
  141.9940   74.3802  219.4125 H   0  0  0  0  0  0  0  0  0  0  0  0
  142.2190   76.0510  221.3440 H   0  0  0  0  0  0  0  0  0  0  0  0
  144.6623   74.8474  218.9147 H   0  0  0  0  0  0  0  0  0  0  0  0
  144.9733   74.8816  221.3921 H   0  0  0  0  0  0  0  0  0  0  0  0
  144.3081   73.2247  221.4700 H   0  0  0  0  0  0  0  0  0  0  0  0
  146.9744   74.1173  220.7231 H   0  0  0  0  0  0  0  0  0  0  0  0
  146.3411   72.4357  220.9779 H   0  0  0  0  0  0  0  0  0  0  0  0
  146.5860   73.9240  218.4540 H   0  0  0  0  0  0  0  0  0  0  0  0
  145.2842   72.3475  217.4041 H   0  0  0  0  0  0  0  0  0  0  0  0
  145.2792   71.3504  218.9356 H   0  0  0  0  0  0  0  0  0  0  0  0
  143.2279   73.0667  217.9729 H   0  0  0  0  0  0  0  0  0  0  0  0
  143.2869   72.1980  219.5199 H   0  0  0  0  0  0  0  0  0  0  0  0
  137.6484   77.5372  222.7409 H   0  0  0  0  0  0  0  0  0  0  0  0
  136.4391   75.4187  222.2723 H   0  0  0  0  0  0  0  0  0  0  0  0
  136.5400   73.0019  221.6758 H   0  0  0  0  0  0  0  0  0  0  0  0
  140.4167   71.1830  221.0565 H   0  0  0  0  0  0  0  0  0  0  0  0
  141.4811   73.3729  221.5471 H   0  0  0  0  0  0  0  0  0  0  0  0
  1  2  2  0
  2  3  1  0
  3  4  1  0
  4  5  1  0
  5  6  2  0
  5  7  1  0
  7  8  1  0
  8  9  1  0
  9 10  1  0
 10 11  1  0
 11 12  1  0
 12 13  2  0
 12 14  1  0
 14 15  1  0
 15 16  1  0
 16 17  1  0
 16 18  1  0
 18 19  1  0
 19 20  1  0
 20 21  1  0
 21 22  1  0
 22 23  1  0
  2 24  1  0
 24 25  2  0
 25 26  1  0
 26 27  2  0
 27 28  1  0
 28 29  2  0
 29 30  1  0
 29 31  1  0
 31 32  2  0
 32 33  1  0
 33 34  2  0
 11  7  1  0
 23 18  1  0
 34 24  1  0
 33 27  1  0
  3 35  1  0
  4 36  1  0
  4 37  1  0
  8 38  1  0
  8 39  1  0
  9 40  1  0
  9 41  1  0
 10 42  1  0
 10 43  1  0
 11 44  1  1
 14 45  1  0
 15 46  1  0
 15 47  1  0
 16 48  1  6
 17 49  1  0
 18 50  1  0
 19 51  1  0
 19 52  1  0
 20 53  1  0
 20 54  1  0
 21 55  1  0
 22 56  1  0
 22 57  1  0
 23 58  1  0
 23 59  1  0
 25 60  1  0
 26 61  1  0
 28 62  1  0
 31 63  1  0
 32 64  1  0
M  END
>  <smiles>  (1) 
O=C(NCC(=O)N1CCC[C@H]1C(=O)NCC(O)C1CCNCC1)c1ccc2cc(F)ccc2n1

>  <score_type>  (1) 
oracle

>  <origin>  (1) 
autodockgpu

>  <m_score__min__energy>  (1) 
-8.8100000000000005

>  <m_primary>  (1) 
energy

>  <meeko>  (1) 
{"free_energy": -7.14, "intermolecular_energy": -9.82, "internal_energy": -4.77, "cluster_size": 1, "cluster_id": 5, "rank_in_cluster": 1}

>  <energy>  (1) 
-8.81

>  <cluster_rmsd>  (1) 
0.0

>  <rmsd>  (1) 
270.26

>  <cluster>  (1) 
1

$$$$

     RDKit          3D

 64 67  0  0  1  0  0  0  0  0999 V2000
  138.9840   71.0270  221.3850 O   0  0  0  0  0  0  0  0  0  0  0  0
  139.3570   71.5080  222.5080 C   0  0  0  0  0  0  0  0  0  0  0  0
  139.6060   72.8930  222.5510 N   0  0  0  0  0  0  0  0  0  0  0  0
  139.4430   73.7070  221.3740 C   0  0  0  0  0  0  0  0  0  0  0  0
  140.2020   74.9720  221.4480 C   0  0  0  0  0  0  0  0  0  0  0  0
  141.0910   75.1980  222.3290 O   0  0  0  0  0  0  0  0  0  0  0  0
  139.9090   75.9720  220.4790 N   0  0  0  0  0  0  0  0  0  0  0  0
  138.6640   76.6850  220.2530 C   0  0  0  0  0  0  0  0  0  0  0  0
  138.5380   76.7050  218.7620 C   0  0  0  0  0  0  0  0  0  0  0  0
  139.9530   76.5550  218.2510 C   0  0  0  0  0  0  0  0  0  0  0  0
  140.8350   76.5020  219.4770 C   0  0  1  0  0  0  0  0  0  0  0  0
  141.2440   77.8520  219.9400 C   0  0  0  0  0  0  0  0  0  0  0  0
  141.1290   78.8940  219.2690 O   0  0  0  0  0  0  0  0  0  0  0  0
  141.8070   77.9670  221.2410 N   0  0  0  0  0  0  0  0  0  0  0  0
  142.1970   79.3150  221.6550 C   0  0  0  0  0  0  0  0  0  0  0  0
  141.8070   79.4560  223.0910 C   0  0  2  0  0  0  0  0  0  0  0  0
  141.9560   78.2670  223.7760 O   0  0  0  0  0  0  0  0  0  0  0  0
  140.4380   80.0640  223.2870 C   0  0  0  0  0  0  0  0  0  0  0  0
  140.0820   81.0330  222.2040 C   0  0  0  0  0  0  0  0  0  0  0  0
  138.8290   81.7730  222.6230 C   0  0  0  0  0  0  0  0  0  0  0  0
  138.2650   81.2330  223.8390 N   0  0  0  0  0  0  0  0  0  0  0  0
  138.0950   79.8110  223.8280 C   0  0  0  0  0  0  0  0  0  0  0  0
  139.3460   79.0510  223.4110 C   0  0  0  0  0  0  0  0  0  0  0  0
  139.5170   70.6660  223.6900 C   0  0  0  0  0  0  0  0  0  0  0  0
  139.0590   69.3680  223.6800 C   0  0  0  0  0  0  0  0  0  0  0  0
  139.1990   68.5410  224.7930 C   0  0  0  0  0  0  0  0  0  0  0  0
  139.8090   69.0300  225.9380 C   0  0  0  0  0  0  0  0  0  0  0  0
  139.9770   68.2620  227.0730 C   0  0  0  0  0  0  0  0  0  0  0  0
  140.5960   68.8320  228.1670 C   0  0  0  0  0  0  0  0  0  0  0  0
  140.7510   68.0520  229.2800 F   0  0  0  0  0  0  0  0  0  0  0  0
  141.0560   70.1380  228.1750 C   0  0  0  0  0  0  0  0  0  0  0  0
  140.8700   70.8700  227.0270 C   0  0  0  0  0  0  0  0  0  0  0  0
  140.2560   70.3380  225.9100 C   0  0  0  0  0  0  0  0  0  0  0  0
  140.1060   71.1160  224.8140 N   0  0  0  0  0  0  0  0  0  0  0  0
  139.9130   73.2950  223.4700 H   0  0  0  0  0  0  0  0  0  0  0  0
  139.7926   73.1371  220.5005 H   0  0  0  0  0  0  0  0  0  0  0  0
  138.3764   73.9631  221.2914 H   0  0  0  0  0  0  0  0  0  0  0  0
  137.8175   76.1531  220.7119 H   0  0  0  0  0  0  0  0  0  0  0  0
  138.6604   77.6916  220.6966 H   0  0  0  0  0  0  0  0  0  0  0  0
  137.9106   75.8707  218.4152 H   0  0  0  0  0  0  0  0  0  0  0  0
  138.0617   77.6275  218.3986 H   0  0  0  0  0  0  0  0  0  0  0  0
  140.0526   75.6275  217.6681 H   0  0  0  0  0  0  0  0  0  0  0  0
  140.2328   77.3878  217.5890 H   0  0  0  0  0  0  0  0  0  0  0  0
  141.7575   75.9310  219.2954 H   0  0  0  0  0  0  0  0  0  0  0  0
  141.9220   77.1300  221.8330 H   0  0  0  0  0  0  0  0  0  0  0  0
  143.2834   79.4460  221.5431 H   0  0  0  0  0  0  0  0  0  0  0  0
  141.7018   80.0769  221.0351 H   0  0  0  0  0  0  0  0  0  0  0  0
  142.5100   80.1799  223.5289 H   0  0  0  0  0  0  0  0  0  0  0  0
  141.8560   77.5210  223.1570 H   0  0  0  0  0  0  0  0  0  0  0  0
  140.5154   80.6011  224.2438 H   0  0  0  0  0  0  0  0  0  0  0  0
  140.9054   81.7478  222.0587 H   0  0  0  0  0  0  0  0  0  0  0  0
  139.9088   80.4985  221.2583 H   0  0  0  0  0  0  0  0  0  0  0  0
  139.0792   82.8316  222.7866 H   0  0  0  0  0  0  0  0  0  0  0  0
  138.0832   81.6608  221.8223 H   0  0  0  0  0  0  0  0  0  0  0  0
  138.6430   81.6240  224.7080 H   0  0  0  0  0  0  0  0  0  0  0  0
  137.8124   79.4867  224.8404 H   0  0  0  0  0  0  0  0  0  0  0  0
  137.3171   79.5849  223.0839 H   0  0  0  0  0  0  0  0  0  0  0  0
  139.6073   78.3023  224.1733 H   0  0  0  0  0  0  0  0  0  0  0  0
  139.1890   78.5179  222.4617 H   0  0  0  0  0  0  0  0  0  0  0  0
  138.5725   68.9754  222.7749 H   0  0  0  0  0  0  0  0  0  0  0  0
  138.8276   67.5060  224.7632 H   0  0  0  0  0  0  0  0  0  0  0  0
  139.6257   67.2201  227.1046 H   0  0  0  0  0  0  0  0  0  0  0  0
  141.5476   70.5696  229.0594 H   0  0  0  0  0  0  0  0  0  0  0  0
  141.2210   71.9121  226.9967 H   0  0  0  0  0  0  0  0  0  0  0  0
  1  2  2  0
  2  3  1  0
  3  4  1  0
  4  5  1  0
  5  6  2  0
  5  7  1  0
  7  8  1  0
  8  9  1  0
  9 10  1  0
 10 11  1  0
 11 12  1  0
 12 13  2  0
 12 14  1  0
 14 15  1  0
 15 16  1  0
 16 17  1  0
 16 18  1  0
 18 19  1  0
 19 20  1  0
 20 21  1  0
 21 22  1  0
 22 23  1  0
  2 24  1  0
 24 25  2  0
 25 26  1  0
 26 27  2  0
 27 28  1  0
 28 29  2  0
 29 30  1  0
 29 31  1  0
 31 32  2  0
 32 33  1  0
 33 34  2  0
 11  7  1  0
 23 18  1  0
 34 24  1  0
 33 27  1  0
  3 35  1  0
  4 36  1  0
  4 37  1  0
  8 38  1  0
  8 39  1  0
  9 40  1  0
  9 41  1  0
 10 42  1  0
 10 43  1  0
 11 44  1  6
 14 45  1  0
 15 46  1  0
 15 47  1  0
 16 48  1  1
 17 49  1  0
 18 50  1  0
 19 51  1  0
 19 52  1  0
 20 53  1  0
 20 54  1  0
 21 55  1  0
 22 56  1  0
 22 57  1  0
 23 58  1  0
 23 59  1  0
 25 60  1  0
 26 61  1  0
 28 62  1  0
 31 63  1  0
 32 64  1  0
M  END
>  <smiles>  (2) 
O=C(NCC(=O)N1CCC[C@H]1C(=O)NCC(O)C1CCNCC1)c1ccc2cc(F)ccc2n1

>  <score_type>  (2) 
oracle

>  <origin>  (2) 
autodockgpu

>  <m_score__min__energy>  (2) 
-8.8100000000000005

>  <m_primary>  (2) 
energy

>  <meeko>  (2) 
{"free_energy": -7.63, "intermolecular_energy": -10.31, "internal_energy": -3.93, "cluster_size": 2, "cluster_id": 2, "rank_in_cluster": 2}

>  <energy>  (2) 
-8.7

>  <cluster_rmsd>  (2) 
0.82

>  <rmsd>  (2) 
270.39

>  <cluster>  (2) 
1

$$$$

     RDKit          3D

 64 67  0  0  1  0  0  0  0  0999 V2000
  141.4650   72.4830  221.7420 O   0  0  0  0  0  0  0  0  0  0  0  0
  140.4520   72.5240  222.5190 C   0  0  0  0  0  0  0  0  0  0  0  0
  139.4890   73.5150  222.2510 N   0  0  0  0  0  0  0  0  0  0  0  0
  139.6590   74.4280  221.1490 C   0  0  0  0  0  0  0  0  0  0  0  0
  140.4140   75.6410  221.5260 C   0  0  0  0  0  0  0  0  0  0  0  0
  140.3440   76.1700  222.6790 O   0  0  0  0  0  0  0  0  0  0  0  0
  141.2530   76.2260  220.5380 N   0  0  0  0  0  0  0  0  0  0  0  0
  141.8410   77.5540  220.5130 C   0  0  0  0  0  0  0  0  0  0  0  0
  141.6540   77.9930  219.0950 C   0  0  0  0  0  0  0  0  0  0  0  0
  141.5370   76.7100  218.3030 C   0  0  0  0  0  0  0  0  0  0  0  0
  141.7080   75.5880  219.3020 C   0  0  1  0  0  0  0  0  0  0  0  0
  143.1330   75.2220  219.5050 C   0  0  0  0  0  0  0  0  0  0  0  0
  144.0570   75.5240  218.7290 O   0  0  0  0  0  0  0  0  0  0  0  0
  143.4690   74.4740  220.6680 N   0  0  0  0  0  0  0  0  0  0  0  0
  144.8830   74.1360  220.8270 C   0  0  0  0  0  0  0  0  0  0  0  0
  145.1360   72.9290  219.9850 C   0  0  2  0  0  0  0  0  0  0  0  0
  145.9150   73.2300  218.8860 O   0  0  0  0  0  0  0  0  0  0  0  0
  143.8770   72.1820  219.6080 C   0  0  0  0  0  0  0  0  0  0  0  0
  143.5500   72.3080  218.1540 C   0  0  0  0  0  0  0  0  0  0  0  0
  142.1580   71.7580  217.9320 C   0  0  0  0  0  0  0  0  0  0  0  0
  141.6250   71.1400  219.1250 N   0  0  0  0  0  0  0  0  0  0  0  0
  142.5060   70.1940  219.7410 C   0  0  0  0  0  0  0  0  0  0  0  0
  143.9100   70.7330  219.9750 C   0  0  0  0  0  0  0  0  0  0  0  0
  140.2980   71.5910  223.6310 C   0  0  0  0  0  0  0  0  0  0  0  0
  139.6990   70.3670  223.4280 C   0  0  0  0  0  0  0  0  0  0  0  0
  139.5390   69.4560  224.4700 C   0  0  0  0  0  0  0  0  0  0  0  0
  139.9870   69.7830  225.7400 C   0  0  0  0  0  0  0  0  0  0  0  0
  139.8580   68.9250  226.8140 C   0  0  0  0  0  0  0  0  0  0  0  0
  140.3320   69.3330  228.0440 C   0  0  0  0  0  0  0  0  0  0  0  0
  140.1920   68.4670  229.0930 F   0  0  0  0  0  0  0  0  0  0  0  0
  140.9330   70.5640  228.2470 C   0  0  0  0  0  0  0  0  0  0  0  0
  141.0440   71.3910  227.1530 C   0  0  0  0  0  0  0  0  0  0  0  0
  140.5820   71.0200  225.9060 C   0  0  0  0  0  0  0  0  0  0  0  0
  140.7230   71.8820  224.8740 N   0  0  0  0  0  0  0  0  0  0  0  0
  138.6540   73.5550  222.8850 H   0  0  0  0  0  0  0  0  0  0  0  0
  140.2022   73.9111  220.3441 H   0  0  0  0  0  0  0  0  0  0  0  0
  138.6578   74.7470  220.8237 H   0  0  0  0  0  0  0  0  0  0  0  0
  141.3170   78.2289  221.2058 H   0  0  0  0  0  0  0  0  0  0  0  0
  142.8949   77.5616  220.8281 H   0  0  0  0  0  0  0  0  0  0  0  0
  140.7391   78.5952  218.9937 H   0  0  0  0  0  0  0  0  0  0  0  0
  142.4846   78.6226  218.7433 H   0  0  0  0  0  0  0  0  0  0  0  0
  140.5500   76.6464  217.8217 H   0  0  0  0  0  0  0  0  0  0  0  0
  142.2923   76.6582  217.5050 H   0  0  0  0  0  0  0  0  0  0  0  0
  141.1827   74.6741  218.9876 H   0  0  0  0  0  0  0  0  0  0  0  0
  142.7350   74.2020  221.3390 H   0  0  0  0  0  0  0  0  0  0  0  0
  145.5125   74.9723  220.4888 H   0  0  0  0  0  0  0  0  0  0  0  0
  145.1253   73.9390  221.8817 H   0  0  0  0  0  0  0  0  0  0  0  0
  145.7089   72.2328  220.6152 H   0  0  0  0  0  0  0  0  0  0  0  0
  145.7240   74.1390  218.5930 H   0  0  0  0  0  0  0  0  0  0  0  0
  143.0872   72.6670  220.2005 H   0  0  0  0  0  0  0  0  0  0  0  0
  143.5842   73.3661  217.8552 H   0  0  0  0  0  0  0  0  0  0  0  0
  144.2799   71.7481  217.5509 H   0  0  0  0  0  0  0  0  0  0  0  0
  141.4940   72.5819  217.6315 H   0  0  0  0  0  0  0  0  0  0  0  0
  142.2168   70.9892  217.1475 H   0  0  0  0  0  0  0  0  0  0  0  0
  141.1410   71.7770  219.7680 H   0  0  0  0  0  0  0  0  0  0  0  0
  142.0791   69.9020  220.7118 H   0  0  0  0  0  0  0  0  0  0  0  0
  142.5979   69.3418  219.0516 H   0  0  0  0  0  0  0  0  0  0  0  0
  144.1906   70.6153  221.0321 H   0  0  0  0  0  0  0  0  0  0  0  0
  144.6505   70.1874  219.3717 H   0  0  0  0  0  0  0  0  0  0  0  0
  139.3396   70.1035  222.4223 H   0  0  0  0  0  0  0  0  0  0  0  0
  139.0600   68.4831  224.2857 H   0  0  0  0  0  0  0  0  0  0  0  0
  139.3878   67.9381  226.6918 H   0  0  0  0  0  0  0  0  0  0  0  0
  141.3045   70.8667  229.2371 H   0  0  0  0  0  0  0  0  0  0  0  0
  141.5150   72.3775  227.2756 H   0  0  0  0  0  0  0  0  0  0  0  0
  1  2  2  0
  2  3  1  0
  3  4  1  0
  4  5  1  0
  5  6  2  0
  5  7  1  0
  7  8  1  0
  8  9  1  0
  9 10  1  0
 10 11  1  0
 11 12  1  0
 12 13  2  0
 12 14  1  0
 14 15  1  0
 15 16  1  0
 16 17  1  0
 16 18  1  0
 18 19  1  0
 19 20  1  0
 20 21  1  0
 21 22  1  0
 22 23  1  0
  2 24  1  0
 24 25  2  0
 25 26  1  0
 26 27  2  0
 27 28  1  0
 28 29  2  0
 29 30  1  0
 29 31  1  0
 31 32  2  0
 32 33  1  0
 33 34  2  0
 11  7  1  0
 23 18  1  0
 34 24  1  0
 33 27  1  0
  3 35  1  0
  4 36  1  0
  4 37  1  0
  8 38  1  0
  8 39  1  0
  9 40  1  0
  9 41  1  0
 10 42  1  0
 10 43  1  0
 11 44  1  6
 14 45  1  0
 15 46  1  0
 15 47  1  0
 16 48  1  1
 17 49  1  0
 18 50  1  0
 19 51  1  0
 19 52  1  0
 20 53  1  0
 20 54  1  0
 21 55  1  0
 22 56  1  0
 22 57  1  0
 23 58  1  0
 23 59  1  0
 25 60  1  0
 26 61  1  0
 28 62  1  0
 31 63  1  0
 32 64  1  0
M  END
>  <smiles>  (3) 
O=C(NCC(=O)N1CCC[C@H]1C(=O)NCC(O)C1CCNCC1)c1ccc2cc(F)ccc2n1

>  <score_type>  (3) 
oracle

>  <origin>  (3) 
autodockgpu

>  <m_score__min__energy>  (3) 
-8.8100000000000005

>  <m_primary>  (3) 
energy

>  <meeko>  (3) 
{"free_energy": -8.02, "intermolecular_energy": -10.71, "internal_energy": -4.71, "cluster_size": 4, "cluster_id": 3, "rank_in_cluster": 1}

>  <energy>  (3) 
-8.67

>  <cluster_rmsd>  (3) 
0.9

>  <rmsd>  (3) 
270.38

>  <cluster>  (3) 
1

$$$$

     RDKit          3D

 64 67  0  0  1  0  0  0  0  0999 V2000
  140.3080   73.6580  222.3140 O   0  0  0  0  0  0  0  0  0  0  0  0
  140.3660   72.3840  222.2440 C   0  0  0  0  0  0  0  0  0  0  0  0
  140.6010   71.8300  220.9720 N   0  0  0  0  0  0  0  0  0  0  0  0
  140.7640   72.6780  219.8180 C   0  0  0  0  0  0  0  0  0  0  0  0
  142.0150   73.4620  219.8620 C   0  0  0  0  0  0  0  0  0  0  0  0
  143.1370   72.9610  220.1860 O   0  0  0  0  0  0  0  0  0  0  0  0
  141.9380   74.8420  219.5200 N   0  0  0  0  0  0  0  0  0  0  0  0
  141.7250   75.4470  218.2170 C   0  0  0  0  0  0  0  0  0  0  0  0
  142.6960   76.5850  218.1980 C   0  0  0  0  0  0  0  0  0  0  0  0
  142.9420   76.9110  219.6540 C   0  0  0  0  0  0  0  0  0  0  0  0
  142.0620   75.9700  220.4450 C   0  0  1  0  0  0  0  0  0  0  0  0
  140.6950   76.5100  220.6520 C   0  0  0  0  0  0  0  0  0  0  0  0
  140.0370   77.1170  219.7860 O   0  0  0  0  0  0  0  0  0  0  0  0
  140.0910   76.3230  221.9260 N   0  0  0  0  0  0  0  0  0  0  0  0
  138.7440   76.8720  222.0840 C   0  0  0  0  0  0  0  0  0  0  0  0
  138.8890   78.3560  222.1690 C   0  0  2  0  0  0  0  0  0  0  0  0
  138.3070   78.9850  221.0870 O   0  0  0  0  0  0  0  0  0  0  0  0
  140.3120   78.8100  222.3990 C   0  0  0  0  0  0  0  0  0  0  0  0
  140.7000   79.9500  221.5100 C   0  0  0  0  0  0  0  0  0  0  0  0
  142.1950   80.1550  221.6280 C   0  0  0  0  0  0  0  0  0  0  0  0
  142.7750   79.3200  222.6550 N   0  0  0  0  0  0  0  0  0  0  0  0
  142.1030   79.3880  223.9180 C   0  0  0  0  0  0  0  0  0  0  0  0
  140.5980   79.1810  223.8190 C   0  0  0  0  0  0  0  0  0  0  0  0
  140.1980   71.5410  223.4240 C   0  0  0  0  0  0  0  0  0  0  0  0
  139.4990   70.3580  223.3340 C   0  0  0  0  0  0  0  0  0  0  0  0
  139.3230   69.5340  224.4440 C   0  0  0  0  0  0  0  0  0  0  0  0
  139.8580   69.9060  225.6660 C   0  0  0  0  0  0  0  0  0  0  0  0
  139.7190   69.1340  226.8030 C   0  0  0  0  0  0  0  0  0  0  0  0
  140.2860   69.5830  227.9770 C   0  0  0  0  0  0  0  0  0  0  0  0
  140.1340   68.8020  229.0900 F   0  0  0  0  0  0  0  0  0  0  0  0
  140.9880   70.7730  228.0670 C   0  0  0  0  0  0  0  0  0  0  0  0
  141.1060   71.5140  226.9140 C   0  0  0  0  0  0  0  0  0  0  0  0
  140.5540   71.1010  225.7180 C   0  0  0  0  0  0  0  0  0  0  0  0
  140.7080   71.8790  224.6230 N   0  0  0  0  0  0  0  0  0  0  0  0
  140.6500   70.7850  220.9070 H   0  0  0  0  0  0  0  0  0  0  0  0
  140.7745   72.0480  218.9164 H   0  0  0  0  0  0  0  0  0  0  0  0
  139.9250   73.3893  219.8058 H   0  0  0  0  0  0  0  0  0  0  0  0
  141.9424   74.7310  217.4107 H   0  0  0  0  0  0  0  0  0  0  0  0
  140.6850   75.7682  218.0584 H   0  0  0  0  0  0  0  0  0  0  0  0
  143.6327   76.2863  217.7047 H   0  0  0  0  0  0  0  0  0  0  0  0
  142.3091   77.4502  217.6396 H   0  0  0  0  0  0  0  0  0  0  0  0
  144.0000   76.7499  219.9085 H   0  0  0  0  0  0  0  0  0  0  0  0
  142.7101   77.9630  219.8766 H   0  0  0  0  0  0  0  0  0  0  0  0
  142.4775   75.7583  221.4413 H   0  0  0  0  0  0  0  0  0  0  0  0
  140.5990   75.8250  222.6730 H   0  0  0  0  0  0  0  0  0  0  0  0
  138.1211   76.6015  221.2186 H   0  0  0  0  0  0  0  0  0  0  0  0
  138.2581   76.4710  222.9857 H   0  0  0  0  0  0  0  0  0  0  0  0
  138.3368   78.6662  223.0684 H   0  0  0  0  0  0  0  0  0  0  0  0
  138.4780   78.4680  220.2800 H   0  0  0  0  0  0  0  0  0  0  0  0
  140.9214   77.9298  222.1464 H   0  0  0  0  0  0  0  0  0  0  0  0
  140.4376   79.7154  220.4678 H   0  0  0  0  0  0  0  0  0  0  0  0
  140.1666   80.8640  221.8100 H   0  0  0  0  0  0  0  0  0  0  0  0
  142.6645   79.9103  220.6638 H   0  0  0  0  0  0  0  0  0  0  0  0
  142.3741   81.2052  221.9017 H   0  0  0  0  0  0  0  0  0  0  0  0
  143.0480   78.3790  222.3520 H   0  0  0  0  0  0  0  0  0  0  0  0
  142.5186   78.6102  224.5755 H   0  0  0  0  0  0  0  0  0  0  0  0
  142.2640   80.4011  224.3152 H   0  0  0  0  0  0  0  0  0  0  0  0
  140.2806   78.3726  224.4941 H   0  0  0  0  0  0  0  0  0  0  0  0
  140.0518   80.0904  224.1099 H   0  0  0  0  0  0  0  0  0  0  0  0
  139.0709   70.0573  222.3664 H   0  0  0  0  0  0  0  0  0  0  0  0
  138.7618   68.5926  224.3500 H   0  0  0  0  0  0  0  0  0  0  0  0
  139.1683   68.1823  226.7726 H   0  0  0  0  0  0  0  0  0  0  0  0
  141.4306   71.1101  229.0159 H   0  0  0  0  0  0  0  0  0  0  0  0
  141.6574   72.4653  226.9460 H   0  0  0  0  0  0  0  0  0  0  0  0
  1  2  2  0
  2  3  1  0
  3  4  1  0
  4  5  1  0
  5  6  2  0
  5  7  1  0
  7  8  1  0
  8  9  1  0
  9 10  1  0
 10 11  1  0
 11 12  1  0
 12 13  2  0
 12 14  1  0
 14 15  1  0
 15 16  1  0
 16 17  1  0
 16 18  1  0
 18 19  1  0
 19 20  1  0
 20 21  1  0
 21 22  1  0
 22 23  1  0
  2 24  1  0
 24 25  2  0
 25 26  1  0
 26 27  2  0
 27 28  1  0
 28 29  2  0
 29 30  1  0
 29 31  1  0
 31 32  2  0
 32 33  1  0
 33 34  2  0
 11  7  1  0
 23 18  1  0
 34 24  1  0
 33 27  1  0
  3 35  1  0
  4 36  1  0
  4 37  1  0
  8 38  1  0
  8 39  1  0
  9 40  1  0
  9 41  1  0
 10 42  1  0
 10 43  1  0
 11 44  1  1
 14 45  1  0
 15 46  1  0
 15 47  1  0
 16 48  1  1
 17 49  1  0
 18 50  1  0
 19 51  1  0
 19 52  1  0
 20 53  1  0
 20 54  1  0
 21 55  1  0
 22 56  1  0
 22 57  1  0
 23 58  1  0
 23 59  1  0
 25 60  1  0
 26 61  1  0
 28 62  1  0
 31 63  1  0
 32 64  1  0
M  END
>  <smiles>  (4) 
O=C(NCC(=O)N1CCC[C@H]1C(=O)NCC(O)C1CCNCC1)c1ccc2cc(F)ccc2n1

>  <score_type>  (4) 
oracle

>  <origin>  (4) 
autodockgpu

>  <m_score__min__energy>  (4) 
-8.8100000000000005

>  <m_primary>  (4) 
energy

>  <meeko>  (4) 
{"free_energy": -7.87, "intermolecular_energy": -10.56, "internal_energy": -3.36, "cluster_size": 1, "cluster_id": 4, "rank_in_cluster": 1}

>  <energy>  (4) 
-8.64

>  <cluster_rmsd>  (4) 
1.31

>  <rmsd>  (4) 
270.22

>  <cluster>  (4) 
1

$$$$

     RDKit          3D

 64 67  0  0  1  0  0  0  0  0999 V2000
  140.1910   77.6420  219.0140 O   0  0  0  0  0  0  0  0  0  0  0  0
  141.4590   77.7890  218.9590 C   0  0  0  0  0  0  0  0  0  0  0  0
  141.9490   79.1050  219.0590 N   0  0  0  0  0  0  0  0  0  0  0  0
  141.0450   80.2170  219.2160 C   0  0  0  0  0  0  0  0  0  0  0  0
  141.4940   81.1720  220.2490 C   0  0  0  0  0  0  0  0  0  0  0  0
  141.8270   82.3710  219.9890 O   0  0  0  0  0  0  0  0  0  0  0  0
  141.5480   80.7080  221.5930 N   0  0  0  0  0  0  0  0  0  0  0  0
  141.0800   81.3630  222.8020 C   0  0  0  0  0  0  0  0  0  0  0  0
  142.1770   81.1050  223.7870 C   0  0  0  0  0  0  0  0  0  0  0  0
  142.8690   79.8600  223.2790 C   0  0  0  0  0  0  0  0  0  0  0  0
  142.1060   79.4330  222.0470 C   0  0  1  0  0  0  0  0  0  0  0  0
  140.9560   78.5500  222.3680 C   0  0  0  0  0  0  0  0  0  0  0  0
  139.8910   78.9370  222.8830 O   0  0  0  0  0  0  0  0  0  0  0  0
  141.0760   77.1650  222.0680 N   0  0  0  0  0  0  0  0  0  0  0  0
  139.9200   76.3330  222.4020 C   0  0  0  0  0  0  0  0  0  0  0  0
  140.1480   75.0000  221.7690 C   0  0  2  0  0  0  0  0  0  0  0  0
  141.4480   74.5710  221.9440 O   0  0  0  0  0  0  0  0  0  0  0  0
  139.7130   74.9370  220.3230 C   0  0  0  0  0  0  0  0  0  0  0  0
  140.3270   73.7850  219.5910 C   0  0  0  0  0  0  0  0  0  0  0  0
  140.0440   73.9580  218.1140 C   0  0  0  0  0  0  0  0  0  0  0  0
  139.1530   75.0680  217.8600 N   0  0  0  0  0  0  0  0  0  0  0  0
  137.9640   75.0600  218.6580 C   0  0  0  0  0  0  0  0  0  0  0  0
  138.2300   74.8900  220.1470 C   0  0  0  0  0  0  0  0  0  0  0  0
  142.3590   76.6500  218.7990 C   0  0  0  0  0  0  0  0  0  0  0  0
  142.7240   76.2300  217.5390 C   0  0  0  0  0  0  0  0  0  0  0  0
  143.5810   75.1470  217.3570 C   0  0  0  0  0  0  0  0  0  0  0  0
  144.0780   74.4730  218.4600 C   0  0  0  0  0  0  0  0  0  0  0  0
  144.9310   73.3920  218.3470 C   0  0  0  0  0  0  0  0  0  0  0  0
  145.3770   72.7820  219.5010 C   0  0  0  0  0  0  0  0  0  0  0  0
  146.2200   71.7130  219.3630 F   0  0  0  0  0  0  0  0  0  0  0  0
  145.0090   73.2050  220.7660 C   0  0  0  0  0  0  0  0  0  0  0  0
  144.1590   74.2840  220.8390 C   0  0  0  0  0  0  0  0  0  0  0  0
  143.6900   74.9230  219.7090 C   0  0  0  0  0  0  0  0  0  0  0  0
  142.8560   75.9780  219.8540 N   0  0  0  0  0  0  0  0  0  0  0  0
  142.9890   79.2330  219.0140 H   0  0  0  0  0  0  0  0  0  0  0  0
  140.9685   80.7473  218.2553 H   0  0  0  0  0  0  0  0  0  0  0  0
  140.0727   79.8136  219.5351 H   0  0  0  0  0  0  0  0  0  0  0  0
  140.9453   82.4422  222.6374 H   0  0  0  0  0  0  0  0  0  0  0  0
  140.1030   80.9882  223.1413 H   0  0  0  0  0  0  0  0  0  0  0  0
  142.8776   81.9525  223.8172 H   0  0  0  0  0  0  0  0  0  0  0  0
  141.7942   80.9784  224.8104 H   0  0  0  0  0  0  0  0  0  0  0  0
  143.9155   80.0819  223.0227 H   0  0  0  0  0  0  0  0  0  0  0  0
  142.8811   79.0665  224.0407 H   0  0  0  0  0  0  0  0  0  0  0  0
  142.7444   78.8844  221.3389 H   0  0  0  0  0  0  0  0  0  0  0  0
  141.9410   76.7990  221.6410 H   0  0  0  0  0  0  0  0  0  0  0  0
  139.8350   76.2240  223.4933 H   0  0  0  0  0  0  0  0  0  0  0  0
  138.9880   76.7885  222.0361 H   0  0  0  0  0  0  0  0  0  0  0  0
  139.4925   74.2939  222.2998 H   0  0  0  0  0  0  0  0  0  0  0  0
  142.0610   75.3020  221.7460 H   0  0  0  0  0  0  0  0  0  0  0  0
  140.0784   75.8794  219.8889 H   0  0  0  0  0  0  0  0  0  0  0  0
  141.4134   73.7711  219.7628 H   0  0  0  0  0  0  0  0  0  0  0  0
  139.9019   72.8363  219.9507 H   0  0  0  0  0  0  0  0  0  0  0  0
  140.9938   74.1376  217.5890 H   0  0  0  0  0  0  0  0  0  0  0  0
  139.5565   73.0409  217.7516 H   0  0  0  0  0  0  0  0  0  0  0  0
  139.6100   75.9800  217.7580 H   0  0  0  0  0  0  0  0  0  0  0  0
  137.4366   76.0132  218.5057 H   0  0  0  0  0  0  0  0  0  0  0  0
  137.3659   74.1946  218.3365 H   0  0  0  0  0  0  0  0  0  0  0  0
  137.7545   75.7045  220.7131 H   0  0  0  0  0  0  0  0  0  0  0  0
  137.8160   73.9410  220.5185 H   0  0  0  0  0  0  0  0  0  0  0  0
  142.3310   76.7603  216.6590 H   0  0  0  0  0  0  0  0  0  0  0  0
  143.8616   74.8287  216.3421 H   0  0  0  0  0  0  0  0  0  0  0  0
  145.2473   73.0261  217.3591 H   0  0  0  0  0  0  0  0  0  0  0  0
  145.3791   72.7017  221.6714 H   0  0  0  0  0  0  0  0  0  0  0  0
  143.8435   74.6486  221.8277 H   0  0  0  0  0  0  0  0  0  0  0  0
  1  2  2  0
  2  3  1  0
  3  4  1  0
  4  5  1  0
  5  6  2  0
  5  7  1  0
  7  8  1  0
  8  9  1  0
  9 10  1  0
 10 11  1  0
 11 12  1  0
 12 13  2  0
 12 14  1  0
 14 15  1  0
 15 16  1  0
 16 17  1  0
 16 18  1  0
 18 19  1  0
 19 20  1  0
 20 21  1  0
 21 22  1  0
 22 23  1  0
  2 24  1  0
 24 25  2  0
 25 26  1  0
 26 27  2  0
 27 28  1  0
 28 29  2  0
 29 30  1  0
 29 31  1  0
 31 32  2  0
 32 33  1  0
 33 34  2  0
 11  7  1  0
 23 18  1  0
 34 24  1  0
 33 27  1  0
  3 35  1  0
  4 36  1  0
  4 37  1  0
  8 38  1  0
  8 39  1  0
  9 40  1  0
  9 41  1  0
 10 42  1  0
 10 43  1  0
 11 44  1  6
 14 45  1  0
 15 46  1  0
 15 47  1  0
 16 48  1  1
 17 49  1  0
 18 50  1  0
 19 51  1  0
 19 52  1  0
 20 53  1  0
 20 54  1  0
 21 55  1  0
 22 56  1  0
 22 57  1  0
 23 58  1  0
 23 59  1  0
 25 60  1  0
 26 61  1  0
 28 62  1  0
 31 63  1  0
 32 64  1  0
M  END
>  <smiles>  (5) 
O=C(NCC(=O)N1CCC[C@H]1C(=O)NCC(O)C1CCNCC1)c1ccc2cc(F)ccc2n1

>  <score_type>  (5) 
oracle

>  <origin>  (5) 
autodockgpu

>  <m_score__min__energy>  (5) 
-8.8100000000000005

>  <m_primary>  (5) 
energy

>  <meeko>  (5) 
{"free_energy": -6.17, "intermolecular_energy": -8.86, "internal_energy": -5.94, "cluster_size": 1, "cluster_id": 8, "rank_in_cluster": 1}

>  <energy>  (5) 
-8.47

>  <cluster_rmsd>  (5) 
1.16

>  <rmsd>  (5) 
270.26

>  <cluster>  (5) 
1

$$$$

     RDKit          3D

 64 67  0  0  1  0  0  0  0  0999 V2000
  139.7180   71.5770  220.6900 O   0  0  0  0  0  0  0  0  0  0  0  0
  139.3060   72.0010  221.8220 C   0  0  0  0  0  0  0  0  0  0  0  0
  138.5930   73.2140  221.8220 N   0  0  0  0  0  0  0  0  0  0  0  0
  138.3510   73.9260  220.5920 C   0  0  0  0  0  0  0  0  0  0  0  0
  139.5860   74.1490  219.8130 C   0  0  0  0  0  0  0  0  0  0  0  0
  139.7890   73.6290  218.6710 O   0  0  0  0  0  0  0  0  0  0  0  0
  140.5810   74.9900  220.3860 N   0  0  0  0  0  0  0  0  0  0  0  0
  140.6060   75.6040  221.7010 C   0  0  0  0  0  0  0  0  0  0  0  0
  141.1010   76.9910  221.4310 C   0  0  0  0  0  0  0  0  0  0  0  0
  141.8710   76.8810  220.1350 C   0  0  0  0  0  0  0  0  0  0  0  0
  141.8220   75.4230  219.7430 C   0  0  1  0  0  0  0  0  0  0  0  0
  142.9210   74.6330  220.3540 C   0  0  0  0  0  0  0  0  0  0  0  0
  142.7600   73.7490  221.2160 O   0  0  0  0  0  0  0  0  0  0  0  0
  144.2520   74.9030  219.9290 N   0  0  0  0  0  0  0  0  0  0  0  0
  145.3010   74.1020  220.5590 C   0  0  0  0  0  0  0  0  0  0  0  0
  145.4410   72.8560  219.7460 C   0  0  2  0  0  0  0  0  0  0  0  0
  146.2480   73.0570  218.6450 O   0  0  0  0  0  0  0  0  0  0  0  0
  144.1180   72.2240  219.3810 C   0  0  0  0  0  0  0  0  0  0  0  0
  143.9130   72.1400  217.9010 C   0  0  0  0  0  0  0  0  0  0  0  0
  142.4760   71.7430  217.6430 C   0  0  0  0  0  0  0  0  0  0  0  0
  141.7790   71.4120  218.8660 N   0  0  0  0  0  0  0  0  0  0  0  0
  142.4720   70.4810  219.7040 C   0  0  0  0  0  0  0  0  0  0  0  0
  143.9200   70.8670  219.9770 C   0  0  0  0  0  0  0  0  0  0  0  0
  139.5620   71.2660  223.0580 C   0  0  0  0  0  0  0  0  0  0  0  0
  139.2940   69.9170  223.1270 C   0  0  0  0  0  0  0  0  0  0  0  0
  139.5280   69.1900  224.2920 C   0  0  0  0  0  0  0  0  0  0  0  0
  140.0400   69.8310  225.4090 C   0  0  0  0  0  0  0  0  0  0  0  0
  140.2940   69.1680  226.5930 C   0  0  0  0  0  0  0  0  0  0  0  0
  140.8030   69.8870  227.6540 C   0  0  0  0  0  0  0  0  0  0  0  0
  141.0460   69.2080  228.8170 F   0  0  0  0  0  0  0  0  0  0  0  0
  141.0720   71.2430  227.5840 C   0  0  0  0  0  0  0  0  0  0  0  0
  140.8060   71.8690  226.3880 C   0  0  0  0  0  0  0  0  0  0  0  0
  140.2960   71.1860  225.3020 C   0  0  0  0  0  0  0  0  0  0  0  0
  140.0580   71.8640  224.1560 N   0  0  0  0  0  0  0  0  0  0  0  0
  138.2520   73.5690  222.7480 H   0  0  0  0  0  0  0  0  0  0  0  0
  137.6484   73.3422  219.9792 H   0  0  0  0  0  0  0  0  0  0  0  0
  137.9388   74.9119  220.8530 H   0  0  0  0  0  0  0  0  0  0  0  0
  139.5994   75.6253  222.1440 H   0  0  0  0  0  0  0  0  0  0  0  0
  141.2364   75.0564  222.4171 H   0  0  0  0  0  0  0  0  0  0  0  0
  140.2578   77.6891  221.3227 H   0  0  0  0  0  0  0  0  0  0  0  0
  141.7231   77.3769  222.2520 H   0  0  0  0  0  0  0  0  0  0  0  0
  141.4013   77.5016  219.3577 H   0  0  0  0  0  0  0  0  0  0  0  0
  142.9070   77.2320  220.2513 H   0  0  0  0  0  0  0  0  0  0  0  0
  141.8962   75.2883  218.6538 H   0  0  0  0  0  0  0  0  0  0  0  0
  144.4320   75.6270  219.2180 H   0  0  0  0  0  0  0  0  0  0  0  0
  146.2498   74.6585  220.5653 H   0  0  0  0  0  0  0  0  0  0  0  0
  145.0437   73.8655  221.6020 H   0  0  0  0  0  0  0  0  0  0  0  0
  145.9435   72.1225  220.3936 H   0  0  0  0  0  0  0  0  0  0  0  0
  146.3130   74.0110  218.4590 H   0  0  0  0  0  0  0  0  0  0  0  0
  143.3661   72.9004  219.8136 H   0  0  0  0  0  0  0  0  0  0  0  0
  144.1171   73.1181  217.4410 H   0  0  0  0  0  0  0  0  0  0  0  0
  144.5961   71.3962  217.4651 H   0  0  0  0  0  0  0  0  0  0  0  0
  141.9579   72.5813  217.1544 H   0  0  0  0  0  0  0  0  0  0  0  0
  142.4796   70.8499  217.0009 H   0  0  0  0  0  0  0  0  0  0  0  0
  141.3480   72.2060  219.3510 H   0  0  0  0  0  0  0  0  0  0  0  0
  141.9418   70.4173  220.6657 H   0  0  0  0  0  0  0  0  0  0  0  0
  142.4896   69.5187  219.1714 H   0  0  0  0  0  0  0  0  0  0  0  0
  144.1073   70.8970  221.0605 H   0  0  0  0  0  0  0  0  0  0  0  0
  144.6156   70.1355  219.5398 H   0  0  0  0  0  0  0  0  0  0  0  0
  138.8868   69.4029  222.2439 H   0  0  0  0  0  0  0  0  0  0  0  0
  139.3076   68.1128  224.3252 H   0  0  0  0  0  0  0  0  0  0  0  0
  140.0949   68.0904  226.6879 H   0  0  0  0  0  0  0  0  0  0  0  0
  141.4794   71.7943  228.4443 H   0  0  0  0  0  0  0  0  0  0  0  0
  141.0058   72.9466  226.2942 H   0  0  0  0  0  0  0  0  0  0  0  0
  1  2  2  0
  2  3  1  0
  3  4  1  0
  4  5  1  0
  5  6  2  0
  5  7  1  0
  7  8  1  0
  8  9  1  0
  9 10  1  0
 10 11  1  0
 11 12  1  0
 12 13  2  0
 12 14  1  0
 14 15  1  0
 15 16  1  0
 16 17  1  0
 16 18  1  0
 18 19  1  0
 19 20  1  0
 20 21  1  0
 21 22  1  0
 22 23  1  0
  2 24  1  0
 24 25  2  0
 25 26  1  0
 26 27  2  0
 27 28  1  0
 28 29  2  0
 29 30  1  0
 29 31  1  0
 31 32  2  0
 32 33  1  0
 33 34  2  0
 11  7  1  0
 23 18  1  0
 34 24  1  0
 33 27  1  0
  3 35  1  0
  4 36  1  0
  4 37  1  0
  8 38  1  0
  8 39  1  0
  9 40  1  0
  9 41  1  0
 10 42  1  0
 10 43  1  0
 11 44  1  6
 14 45  1  0
 15 46  1  0
 15 47  1  0
 16 48  1  1
 17 49  1  0
 18 50  1  0
 19 51  1  0
 19 52  1  0
 20 53  1  0
 20 54  1  0
 21 55  1  0
 22 56  1  0
 22 57  1  0
 23 58  1  0
 23 59  1  0
 25 60  1  0
 26 61  1  0
 28 62  1  0
 31 63  1  0
 32 64  1  0
M  END
>  <smiles>  (6) 
O=C(NCC(=O)N1CCC[C@H]1C(=O)NCC(O)C1CCNCC1)c1ccc2cc(F)ccc2n1

>  <score_type>  (6) 
oracle

>  <origin>  (6) 
autodockgpu

>  <m_score__min__energy>  (6) 
-8.8100000000000005

>  <m_primary>  (6) 
energy

>  <meeko>  (6) 
{"free_energy": -7.7, "intermolecular_energy": -10.38, "internal_energy": -3.88, "cluster_size": 4, "cluster_id": 3, "rank_in_cluster": 4}

>  <energy>  (6) 
-8.26

>  <cluster_rmsd>  (6) 
0.0

>  <rmsd>  (6) 
271.04

>  <cluster>  (6) 
2

$$$$

     RDKit          3D

 64 67  0  0  1  0  0  0  0  0999 V2000
  139.5340   74.9510  222.2490 O   0  0  0  0  0  0  0  0  0  0  0  0
  140.7190   75.2380  221.8680 C   0  0  0  0  0  0  0  0  0  0  0  0
  141.1430   76.5660  222.0660 N   0  0  0  0  0  0  0  0  0  0  0  0
  140.2660   77.5360  222.6720 C   0  0  0  0  0  0  0  0  0  0  0  0
  140.9810   78.7500  223.1140 C   0  0  0  0  0  0  0  0  0  0  0  0
  141.3970   78.9160  224.3040 O   0  0  0  0  0  0  0  0  0  0  0  0
  141.2050   79.7700  222.1470 N   0  0  0  0  0  0  0  0  0  0  0  0
  142.3780   80.6050  221.9600 C   0  0  0  0  0  0  0  0  0  0  0  0
  141.8030   81.9630  221.7040 C   0  0  0  0  0  0  0  0  0  0  0  0
  140.4110   81.7010  221.1750 C   0  0  0  0  0  0  0  0  0  0  0  0
  140.2670   80.1980  221.1090 C   0  0  1  0  0  0  0  0  0  0  0  0
  140.7590   79.6370  219.8250 C   0  0  0  0  0  0  0  0  0  0  0  0
  140.2960   79.9240  218.7060 O   0  0  0  0  0  0  0  0  0  0  0  0
  141.8320   78.7050  219.8730 N   0  0  0  0  0  0  0  0  0  0  0  0
  142.2830   78.1780  218.5850 C   0  0  0  0  0  0  0  0  0  0  0  0
  142.7960   76.7980  218.8390 C   0  0  2  0  0  0  0  0  0  0  0  0
  143.4610   76.7170  220.0450 O   0  0  0  0  0  0  0  0  0  0  0  0
  143.6110   76.2390  217.6960 C   0  0  0  0  0  0  0  0  0  0  0  0
  143.4320   74.7620  217.5350 C   0  0  0  0  0  0  0  0  0  0  0  0
  144.4710   74.2630  216.5540 C   0  0  0  0  0  0  0  0  0  0  0  0
  145.2110   75.3490  215.9510 N   0  0  0  0  0  0  0  0  0  0  0  0
  144.3900   76.3910  215.4110 C   0  0  0  0  0  0  0  0  0  0  0  0
  143.3410   76.9070  216.3860 C   0  0  0  0  0  0  0  0  0  0  0  0
  141.5930   74.2420  221.2560 C   0  0  0  0  0  0  0  0  0  0  0  0
  141.0690   73.0560  220.7920 C   0  0  0  0  0  0  0  0  0  0  0  0
  141.8780   72.0870  220.2030 C   0  0  0  0  0  0  0  0  0  0  0  0
  143.2400   72.3130  220.0810 C   0  0  0  0  0  0  0  0  0  0  0  0
  144.0960   71.3930  219.5080 C   0  0  0  0  0  0  0  0  0  0  0  0
  145.4380   71.7020  219.4280 C   0  0  0  0  0  0  0  0  0  0  0  0
  146.2660   70.7750  218.8570 F   0  0  0  0  0  0  0  0  0  0  0  0
  145.9630   72.8940  219.8960 C   0  0  0  0  0  0  0  0  0  0  0  0
  145.0810   73.7850  220.4600 C   0  0  0  0  0  0  0  0  0  0  0  0
  143.7300   73.5140  220.5590 C   0  0  0  0  0  0  0  0  0  0  0  0
  142.9180   74.4350  221.1250 N   0  0  0  0  0  0  0  0  0  0  0  0
  142.1150   76.8090  221.7560 H   0  0  0  0  0  0  0  0  0  0  0  0
  139.5002   77.8259  221.9375 H   0  0  0  0  0  0  0  0  0  0  0  0
  139.8185   77.0702  223.5623 H   0  0  0  0  0  0  0  0  0  0  0  0
  143.0065   80.6080  222.8628 H   0  0  0  0  0  0  0  0  0  0  0  0
  143.0280   80.2543  221.1448 H   0  0  0  0  0  0  0  0  0  0  0  0
  141.7599   82.5471  222.6351 H   0  0  0  0  0  0  0  0  0  0  0  0
  142.4126   82.5449  220.9970 H   0  0  0  0  0  0  0  0  0  0  0  0
  139.6576   82.1278  221.8534 H   0  0  0  0  0  0  0  0  0  0  0  0
  140.2609   82.1640  220.1886 H   0  0  0  0  0  0  0  0  0  0  0  0
  139.2197   79.8800  221.2183 H   0  0  0  0  0  0  0  0  0  0  0  0
  142.2470   78.4380  220.7790 H   0  0  0  0  0  0  0  0  0  0  0  0
  141.4439   78.1453  217.8745 H   0  0  0  0  0  0  0  0  0  0  0  0
  143.0660   78.8163  218.1497 H   0  0  0  0  0  0  0  0  0  0  0  0
  141.9093   76.1506  218.9074 H   0  0  0  0  0  0  0  0  0  0  0  0
  142.9620   76.1430  220.6530 H   0  0  0  0  0  0  0  0  0  0  0  0
  144.6530   76.4503  217.9782 H   0  0  0  0  0  0  0  0  0  0  0  0
  143.5667   74.2627  218.5059 H   0  0  0  0  0  0  0  0  0  0  0  0
  142.4210   74.5405  217.1625 H   0  0  0  0  0  0  0  0  0  0  0  0
  145.1747   73.6056  217.0855 H   0  0  0  0  0  0  0  0  0  0  0  0
  143.9488   73.7206  215.7520 H   0  0  0  0  0  0  0  0  0  0  0  0
  146.0320   75.6630  216.4790 H   0  0  0  0  0  0  0  0  0  0  0  0
  145.0391   77.2307  215.1219 H   0  0  0  0  0  0  0  0  0  0  0  0
  143.8505   75.9646  214.5524 H   0  0  0  0  0  0  0  0  0  0  0  0
  143.4255   77.9986  216.4920 H   0  0  0  0  0  0  0  0  0  0  0  0
  142.3244   76.6851  216.0294 H   0  0  0  0  0  0  0  0  0  0  0  0
  139.9891   72.8700  220.8885 H   0  0  0  0  0  0  0  0  0  0  0  0
  141.4383   71.1476  219.8367 H   0  0  0  0  0  0  0  0  0  0  0  0
  143.7160   70.4349  219.1239 H   0  0  0  0  0  0  0  0  0  0  0  0
  147.0372   73.1183  219.8201 H   0  0  0  0  0  0  0  0  0  0  0  0
  145.4625   74.7426  220.8440 H   0  0  0  0  0  0  0  0  0  0  0  0
  1  2  2  0
  2  3  1  0
  3  4  1  0
  4  5  1  0
  5  6  2  0
  5  7  1  0
  7  8  1  0
  8  9  1  0
  9 10  1  0
 10 11  1  0
 11 12  1  0
 12 13  2  0
 12 14  1  0
 14 15  1  0
 15 16  1  0
 16 17  1  0
 16 18  1  0
 18 19  1  0
 19 20  1  0
 20 21  1  0
 21 22  1  0
 22 23  1  0
  2 24  1  0
 24 25  2  0
 25 26  1  0
 26 27  2  0
 27 28  1  0
 28 29  2  0
 29 30  1  0
 29 31  1  0
 31 32  2  0
 32 33  1  0
 33 34  2  0
 11  7  1  0
 23 18  1  0
 34 24  1  0
 33 27  1  0
  3 35  1  0
  4 36  1  0
  4 37  1  0
  8 38  1  0
  8 39  1  0
  9 40  1  0
  9 41  1  0
 10 42  1  0
 10 43  1  0
 11 44  1  1
 14 45  1  0
 15 46  1  0
 15 47  1  0
 16 48  1  1
 17 49  1  0
 18 50  1  0
 19 51  1  0
 19 52  1  0
 20 53  1  0
 20 54  1  0
 21 55  1  0
 22 56  1  0
 22 57  1  0
 23 58  1  0
 23 59  1  0
 25 60  1  0
 26 61  1  0
 28 62  1  0
 31 63  1  0
 32 64  1  0
M  END
>  <smiles>  (7) 
O=C(NCC(=O)N1CCC[C@H]1C(=O)NCC(O)C1CCNCC1)c1ccc2cc(F)ccc2n1

>  <score_type>  (7) 
oracle

>  <origin>  (7) 
autodockgpu

>  <m_score__min__energy>  (7) 
-8.8100000000000005

>  <m_primary>  (7) 
energy

>  <meeko>  (7) 
{"free_energy": -6.67, "intermolecular_energy": -9.36, "internal_energy": -5.06, "cluster_size": 2, "cluster_id": 7, "rank_in_cluster": 1}

>  <energy>  (7) 
-7.63

>  <cluster_rmsd>  (7) 
0.88

>  <rmsd>  (7) 
270.8

>  <cluster>  (7) 
2

$$$$

     RDKit          3D

 64 67  0  0  1  0  0  0  0  0999 V2000
  139.5600   74.1990  222.4020 O   0  0  0  0  0  0  0  0  0  0  0  0
  139.9960   75.1310  221.6440 C   0  0  0  0  0  0  0  0  0  0  0  0
  140.3400   74.7670  220.3290 N   0  0  0  0  0  0  0  0  0  0  0  0
  140.1980   73.4050  219.8810 C   0  0  0  0  0  0  0  0  0  0  0  0
  141.2220   72.5090  220.4550 C   0  0  0  0  0  0  0  0  0  0  0  0
  140.9440   71.5540  221.2460 O   0  0  0  0  0  0  0  0  0  0  0  0
  142.5780   72.7430  220.0920 N   0  0  0  0  0  0  0  0  0  0  0  0
  143.3930   72.0420  219.1160 C   0  0  0  0  0  0  0  0  0  0  0  0
  144.7130   71.8910  219.8050 C   0  0  0  0  0  0  0  0  0  0  0  0
  144.7450   73.0030  220.8290 C   0  0  0  0  0  0  0  0  0  0  0  0
  143.4570   73.7730  220.6480 C   0  0  1  0  0  0  0  0  0  0  0  0
  143.5730   74.8400  219.6210 C   0  0  0  0  0  0  0  0  0  0  0  0
  144.1050   74.6920  218.5060 O   0  0  0  0  0  0  0  0  0  0  0  0
  143.0390   76.1220  219.9300 N   0  0  0  0  0  0  0  0  0  0  0  0
  143.1760   77.1410  218.8900 C   0  0  0  0  0  0  0  0  0  0  0  0
  142.1570   78.1940  219.1800 C   0  0  2  0  0  0  0  0  0  0  0  0
  140.9040   77.6490  219.3710 O   0  0  0  0  0  0  0  0  0  0  0  0
  142.1470   79.3170  218.1690 C   0  0  0  0  0  0  0  0  0  0  0  0
  140.9950   79.2200  217.2180 C   0  0  0  0  0  0  0  0  0  0  0  0
  141.2160   80.2190  216.1030 C   0  0  0  0  0  0  0  0  0  0  0  0
  142.3610   81.0650  216.3550 N   0  0  0  0  0  0  0  0  0  0  0  0
  142.3710   81.6690  217.6530 C   0  0  0  0  0  0  0  0  0  0  0  0
  142.1530   80.6780  218.7880 C   0  0  0  0  0  0  0  0  0  0  0  0
  140.1320   76.5050  222.1170 C   0  0  0  0  0  0  0  0  0  0  0  0
  139.0310   77.1880  222.5840 C   0  0  0  0  0  0  0  0  0  0  0  0
  139.1310   78.5000  223.0410 C   0  0  0  0  0  0  0  0  0  0  0  0
  140.3610   79.1380  223.0280 C   0  0  0  0  0  0  0  0  0  0  0  0
  140.5270   80.4370  223.4670 C   0  0  0  0  0  0  0  0  0  0  0  0
  141.7890   80.9920  223.4180 C   0  0  0  0  0  0  0  0  0  0  0  0
  141.9290   82.2800  223.8570 F   0  0  0  0  0  0  0  0  0  0  0  0
  142.8950   80.3050  222.9480 C   0  0  0  0  0  0  0  0  0  0  0  0
  142.6910   79.0150  222.5190 C   0  0  0  0  0  0  0  0  0  0  0  0
  141.4440   78.4220  222.5520 C   0  0  0  0  0  0  0  0  0  0  0  0
  141.3140   77.1480  222.1150 N   0  0  0  0  0  0  0  0  0  0  0  0
  140.6980   75.5270  219.7010 H   0  0  0  0  0  0  0  0  0  0  0  0
  139.2037   73.0387  220.1764 H   0  0  0  0  0  0  0  0  0  0  0  0
  140.3243   73.3987  218.7883 H   0  0  0  0  0  0  0  0  0  0  0  0
  142.9604   71.0596  218.8758 H   0  0  0  0  0  0  0  0  0  0  0  0
  143.4690   72.5776  218.1582 H   0  0  0  0  0  0  0  0  0  0  0  0
  144.7832   70.9095  220.2967 H   0  0  0  0  0  0  0  0  0  0  0  0
  145.5570   71.9502  219.1020 H   0  0  0  0  0  0  0  0  0  0  0  0
  144.8011   72.5854  221.8451 H   0  0  0  0  0  0  0  0  0  0  0  0
  145.6239   73.6504  220.6935 H   0  0  0  0  0  0  0  0  0  0  0  0
  143.1337   74.2581  221.5808 H   0  0  0  0  0  0  0  0  0  0  0  0
  142.5890   76.2900  220.8430 H   0  0  0  0  0  0  0  0  0  0  0  0
  144.1865   77.5748  218.9157 H   0  0  0  0  0  0  0  0  0  0  0  0
  143.0223   76.7079  217.8906 H   0  0  0  0  0  0  0  0  0  0  0  0
  142.4614   78.6609  220.1284 H   0  0  0  0  0  0  0  0  0  0  0  0
  140.5580   77.9260  220.2380 H   0  0  0  0  0  0  0  0  0  0  0  0
  143.0881   79.1902  217.6138 H   0  0  0  0  0  0  0  0  0  0  0  0
  140.9407   78.2033  216.8016 H   0  0  0  0  0  0  0  0  0  0  0  0
  140.0518   79.4370  217.7408 H   0  0  0  0  0  0  0  0  0  0  0  0
  141.3784   79.6719  215.1626 H   0  0  0  0  0  0  0  0  0  0  0  0
  140.3253   80.8614  216.0399 H   0  0  0  0  0  0  0  0  0  0  0  0
  143.2600   80.6900  216.0360 H   0  0  0  0  0  0  0  0  0  0  0  0
  143.3447   82.1588  217.8012 H   0  0  0  0  0  0  0  0  0  0  0  0
  141.5347   82.3830  217.6830 H   0  0  0  0  0  0  0  0  0  0  0  0
  142.9673   80.7573  219.5232 H   0  0  0  0  0  0  0  0  0  0  0  0
  141.2088   80.8790  219.3153 H   0  0  0  0  0  0  0  0  0  0  0  0
  138.0519   76.6868  222.5964 H   0  0  0  0  0  0  0  0  0  0  0  0
  138.2386   79.0267  223.4101 H   0  0  0  0  0  0  0  0  0  0  0  0
  139.6723   81.0159  223.8471 H   0  0  0  0  0  0  0  0  0  0  0  0
  143.8915   80.7700  222.9191 H   0  0  0  0  0  0  0  0  0  0  0  0
  143.5464   78.4378  222.1381 H   0  0  0  0  0  0  0  0  0  0  0  0
  1  2  2  0
  2  3  1  0
  3  4  1  0
  4  5  1  0
  5  6  2  0
  5  7  1  0
  7  8  1  0
  8  9  1  0
  9 10  1  0
 10 11  1  0
 11 12  1  0
 12 13  2  0
 12 14  1  0
 14 15  1  0
 15 16  1  0
 16 17  1  0
 16 18  1  0
 18 19  1  0
 19 20  1  0
 20 21  1  0
 21 22  1  0
 22 23  1  0
  2 24  1  0
 24 25  2  0
 25 26  1  0
 26 27  2  0
 27 28  1  0
 28 29  2  0
 29 30  1  0
 29 31  1  0
 31 32  2  0
 32 33  1  0
 33 34  2  0
 11  7  1  0
 23 18  1  0
 34 24  1  0
 33 27  1  0
  3 35  1  0
  4 36  1  0
  4 37  1  0
  8 38  1  0
  8 39  1  0
  9 40  1  0
  9 41  1  0
 10 42  1  0
 10 43  1  0
 11 44  1  1
 14 45  1  0
 15 46  1  0
 15 47  1  0
 16 48  1  1
 17 49  1  0
 18 50  1  0
 19 51  1  0
 19 52  1  0
 20 53  1  0
 20 54  1  0
 21 55  1  0
 22 56  1  0
 22 57  1  0
 23 58  1  0
 23 59  1  0
 25 60  1  0
 26 61  1  0
 28 62  1  0
 31 63  1  0
 32 64  1  0
M  END
>  <smiles>  (8) 
O=C(NCC(=O)N1CCC[C@H]1C(=O)NCC(O)C1CCNCC1)c1ccc2cc(F)ccc2n1

>  <score_type>  (8) 
oracle

>  <origin>  (8) 
autodockgpu

>  <m_score__min__energy>  (8) 
-8.8100000000000005

>  <m_primary>  (8) 
energy

>  <meeko>  (8) 
{"free_energy": -6.63, "intermolecular_energy": -9.31, "internal_energy": -5.15, "cluster_size": 3, "cluster_id": 6, "rank_in_cluster": 2}

>  <energy>  (8) 
-8.02

>  <cluster_rmsd>  (8) 
0.0

>  <rmsd>  (8) 
270.0

>  <cluster>  (8) 
3

$$$$

     RDKit          3D

 64 67  0  0  1  0  0  0  0  0999 V2000
  140.7350   73.3820  221.9630 O   0  0  0  0  0  0  0  0  0  0  0  0
  139.7210   72.9090  222.5790 C   0  0  0  0  0  0  0  0  0  0  0  0
  138.4810   73.5230  222.3210 N   0  0  0  0  0  0  0  0  0  0  0  0
  138.3840   74.6300  221.4030 C   0  0  0  0  0  0  0  0  0  0  0  0
  138.3490   75.9370  222.0910 C   0  0  0  0  0  0  0  0  0  0  0  0
  137.3880   76.3020  222.8380 O   0  0  0  0  0  0  0  0  0  0  0  0
  139.4530   76.8120  221.8940 N   0  0  0  0  0  0  0  0  0  0  0  0
  140.6300   76.9940  222.7240 C   0  0  0  0  0  0  0  0  0  0  0  0
  140.8180   78.4790  222.7460 C   0  0  0  0  0  0  0  0  0  0  0  0
  140.1400   78.9730  221.4880 C   0  0  0  0  0  0  0  0  0  0  0  0
  139.6320   77.7400  220.7760 C   0  0  1  0  0  0  0  0  0  0  0  0
  140.6530   77.1420  219.8790 C   0  0  0  0  0  0  0  0  0  0  0  0
  141.2470   77.7590  218.9750 O   0  0  0  0  0  0  0  0  0  0  0  0
  140.9770   75.7690  220.0610 N   0  0  0  0  0  0  0  0  0  0  0  0
  141.9870   75.2220  219.1550 C   0  0  0  0  0  0  0  0  0  0  0  0
  143.3200   75.5740  219.7300 C   0  0  2  0  0  0  0  0  0  0  0  0
  143.7360   76.8240  219.3200 O   0  0  0  0  0  0  0  0  0  0  0  0
  144.3730   74.5140  219.5010 C   0  0  0  0  0  0  0  0  0  0  0  0
  144.8470   73.8940  220.7780 C   0  0  0  0  0  0  0  0  0  0  0  0
  146.0660   73.0510  220.4710 C   0  0  0  0  0  0  0  0  0  0  0  0
  146.3170   72.9620  219.0510 N   0  0  0  0  0  0  0  0  0  0  0  0
  145.1730   72.5910  218.2730 C   0  0  0  0  0  0  0  0  0  0  0  0
  143.9390   73.4320  218.5670 C   0  0  0  0  0  0  0  0  0  0  0  0
  139.8390   71.7870  223.5060 C   0  0  0  0  0  0  0  0  0  0  0  0
  139.4530   70.5240  223.1150 C   0  0  0  0  0  0  0  0  0  0  0  0
  139.5550   69.4350  223.9780 C   0  0  0  0  0  0  0  0  0  0  0  0
  140.0520   69.6190  225.2580 C   0  0  0  0  0  0  0  0  0  0  0  0
  140.1780   68.5820  226.1610 C   0  0  0  0  0  0  0  0  0  0  0  0
  140.6820   68.8580  227.4150 C   0  0  0  0  0  0  0  0  0  0  0  0
  140.7970   67.8140  228.2920 F   0  0  0  0  0  0  0  0  0  0  0  0
  141.0690   70.1280  227.8070 C   0  0  0  0  0  0  0  0  0  0  0  0
  140.9290   71.1350  226.8810 C   0  0  0  0  0  0  0  0  0  0  0  0
  140.4280   70.9010  225.6160 C   0  0  0  0  0  0  0  0  0  0  0  0
  140.3180   71.9380  224.7550 N   0  0  0  0  0  0  0  0  0  0  0  0
  137.6440   73.1400  222.8240 H   0  0  0  0  0  0  0  0  0  0  0  0
  139.2552   74.6084  220.7317 H   0  0  0  0  0  0  0  0  0  0  0  0
  137.4410   74.5205  220.8474 H   0  0  0  0  0  0  0  0  0  0  0  0
  140.4594   76.6045  223.7385 H   0  0  0  0  0  0  0  0  0  0  0  0
  141.5105   76.4570  222.3413 H   0  0  0  0  0  0  0  0  0  0  0  0
  140.3456   78.9162  223.6380 H   0  0  0  0  0  0  0  0  0  0  0  0
  141.8802   78.7625  222.7839 H   0  0  0  0  0  0  0  0  0  0  0  0
  139.3028   79.6398  221.7418 H   0  0  0  0  0  0  0  0  0  0  0  0
  140.8336   79.5462  220.8553 H   0  0  0  0  0  0  0  0  0  0  0  0
  138.7483   77.9567  220.1578 H   0  0  0  0  0  0  0  0  0  0  0  0
  140.5100   75.2190  220.7980 H   0  0  0  0  0  0  0  0  0  0  0  0
  141.8813   74.1293  219.0857 H   0  0  0  0  0  0  0  0  0  0  0  0
  141.8731   75.6351  218.1419 H   0  0  0  0  0  0  0  0  0  0  0  0
  143.1816   75.6144  220.8205 H   0  0  0  0  0  0  0  0  0  0  0  0
  143.2350   77.5070  219.8010 H   0  0  0  0  0  0  0  0  0  0  0  0
  145.2055   75.0570  219.0298 H   0  0  0  0  0  0  0  0  0  0  0  0
  145.1111   74.6818  221.4988 H   0  0  0  0  0  0  0  0  0  0  0  0
  144.0535   73.2695  221.2144 H   0  0  0  0  0  0  0  0  0  0  0  0
  146.9423   73.5023  220.9592 H   0  0  0  0  0  0  0  0  0  0  0  0
  145.8808   72.0345  220.8483 H   0  0  0  0  0  0  0  0  0  0  0  0
  146.8900   73.7180  218.6600 H   0  0  0  0  0  0  0  0  0  0  0  0
  145.4250   72.7033  217.2082 H   0  0  0  0  0  0  0  0  0  0  0  0
  144.9262   71.5519  218.5365 H   0  0  0  0  0  0  0  0  0  0  0  0
  143.5466   73.8684  217.6367 H   0  0  0  0  0  0  0  0  0  0  0  0
  143.1392   72.8213  219.0114 H   0  0  0  0  0  0  0  0  0  0  0  0
  139.0560   70.3720  222.1005 H   0  0  0  0  0  0  0  0  0  0  0  0
  139.2425   68.4343  223.6448 H   0  0  0  0  0  0  0  0  0  0  0  0
  139.8830   67.5585  225.8864 H   0  0  0  0  0  0  0  0  0  0  0  0
  141.4699   70.3227  228.8127 H   0  0  0  0  0  0  0  0  0  0  0  0
  141.2252   72.1579  227.1565 H   0  0  0  0  0  0  0  0  0  0  0  0
  1  2  2  0
  2  3  1  0
  3  4  1  0
  4  5  1  0
  5  6  2  0
  5  7  1  0
  7  8  1  0
  8  9  1  0
  9 10  1  0
 10 11  1  0
 11 12  1  0
 12 13  2  0
 12 14  1  0
 14 15  1  0
 15 16  1  0
 16 17  1  0
 16 18  1  0
 18 19  1  0
 19 20  1  0
 20 21  1  0
 21 22  1  0
 22 23  1  0
  2 24  1  0
 24 25  2  0
 25 26  1  0
 26 27  2  0
 27 28  1  0
 28 29  2  0
 29 30  1  0
 29 31  1  0
 31 32  2  0
 32 33  1  0
 33 34  2  0
 11  7  1  0
 23 18  1  0
 34 24  1  0
 33 27  1  0
  3 35  1  0
  4 36  1  0
  4 37  1  0
  8 38  1  0
  8 39  1  0
  9 40  1  0
  9 41  1  0
 10 42  1  0
 10 43  1  0
 11 44  1  6
 14 45  1  0
 15 46  1  0
 15 47  1  0
 16 48  1  1
 17 49  1  0
 18 50  1  0
 19 51  1  0
 19 52  1  0
 20 53  1  0
 20 54  1  0
 21 55  1  0
 22 56  1  0
 22 57  1  0
 23 58  1  0
 23 59  1  0
 25 60  1  0
 26 61  1  0
 28 62  1  0
 31 63  1  0
 32 64  1  0
M  END
>  <smiles>  (9) 
O=C(NCC(=O)N1CCC[C@H]1C(=O)NCC(O)C1CCNCC1)c1ccc2cc(F)ccc2n1

>  <score_type>  (9) 
oracle

>  <origin>  (9) 
autodockgpu

>  <m_score__min__energy>  (9) 
-8.8100000000000005

>  <m_primary>  (9) 
energy

>  <meeko>  (9) 
{"free_energy": -8.64, "intermolecular_energy": -11.33, "internal_energy": -3.36, "cluster_size": 5, "cluster_id": 1, "rank_in_cluster": 4}

>  <energy>  (9) 
-8.0

>  <cluster_rmsd>  (9) 
0.05

>  <rmsd>  (9) 
269.99

>  <cluster>  (9) 
3

$$$$

     RDKit          3D

 64 67  0  0  1  0  0  0  0  0999 V2000
  140.2430   73.6160  222.3310 O   0  0  0  0  0  0  0  0  0  0  0  0
  140.2800   72.3400  222.2850 C   0  0  0  0  0  0  0  0  0  0  0  0
  140.5130   71.7590  221.0240 N   0  0  0  0  0  0  0  0  0  0  0  0
  140.6980   72.5830  219.8560 C   0  0  0  0  0  0  0  0  0  0  0  0
  141.9160   72.2290  219.0990 C   0  0  0  0  0  0  0  0  0  0  0  0
  141.9820   71.2270  218.3200 O   0  0  0  0  0  0  0  0  0  0  0  0
  143.0570   73.0640  219.2630 N   0  0  0  0  0  0  0  0  0  0  0  0
  144.0430   73.4620  218.2740 C   0  0  0  0  0  0  0  0  0  0  0  0
  145.3420   73.3430  219.0080 C   0  0  0  0  0  0  0  0  0  0  0  0
  144.9750   73.4770  220.4690 C   0  0  0  0  0  0  0  0  0  0  0  0
  143.4820   73.7130  220.5030 C   0  0  1  0  0  0  0  0  0  0  0  0
  143.1310   75.1500  220.3800 C   0  0  0  0  0  0  0  0  0  0  0  0
  143.9390   76.0510  220.0850 O   0  0  0  0  0  0  0  0  0  0  0  0
  141.7800   75.5290  220.6130 N   0  0  0  0  0  0  0  0  0  0  0  0
  141.4810   76.9550  220.4810 C   0  0  0  0  0  0  0  0  0  0  0  0
  140.6430   77.3310  221.6590 C   0  0  2  0  0  0  0  0  0  0  0  0
  141.3990   77.4300  222.8090 O   0  0  0  0  0  0  0  0  0  0  0  0
  139.4300   76.4490  221.8420 C   0  0  0  0  0  0  0  0  0  0  0  0
  138.3760   77.0940  222.6870 C   0  0  0  0  0  0  0  0  0  0  0  0
  137.3350   76.0480  223.0260 C   0  0  0  0  0  0  0  0  0  0  0  0
  137.5690   74.8060  222.3240 N   0  0  0  0  0  0  0  0  0  0  0  0
  137.7690   74.9560  220.9140 C   0  0  0  0  0  0  0  0  0  0  0  0
  138.8160   76.0020  220.5550 C   0  0  0  0  0  0  0  0  0  0  0  0
  140.0900   71.5220  223.4790 C   0  0  0  0  0  0  0  0  0  0  0  0
  139.3280   70.3750  223.4170 C   0  0  0  0  0  0  0  0  0  0  0  0
  139.1300   69.5750  224.5400 C   0  0  0  0  0  0  0  0  0  0  0  0
  139.7060   69.9350  225.7480 C   0  0  0  0  0  0  0  0  0  0  0  0
  139.5480   69.1850  226.8970 C   0  0  0  0  0  0  0  0  0  0  0  0
  140.1580   69.6190  228.0560 C   0  0  0  0  0  0  0  0  0  0  0  0
  139.9860   68.8610  229.1810 F   0  0  0  0  0  0  0  0  0  0  0  0
  140.9230   70.7720  228.1170 C   0  0  0  0  0  0  0  0  0  0  0  0
  141.0580   71.4910  226.9530 C   0  0  0  0  0  0  0  0  0  0  0  0
  140.4640   71.0920  225.7720 C   0  0  0  0  0  0  0  0  0  0  0  0
  140.6380   71.8470  224.6640 N   0  0  0  0  0  0  0  0  0  0  0  0
  140.5450   70.7110  220.9790 H   0  0  0  0  0  0  0  0  0  0  0  0
  139.8257   72.4613  219.1971 H   0  0  0  0  0  0  0  0  0  0  0  0
  140.8072   73.6235  220.1959 H   0  0  0  0  0  0  0  0  0  0  0  0
  144.0202   72.7898  217.4036 H   0  0  0  0  0  0  0  0  0  0  0  0
  143.8669   74.4722  217.8759 H   0  0  0  0  0  0  0  0  0  0  0  0
  145.8085   72.3659  218.8139 H   0  0  0  0  0  0  0  0  0  0  0  0
  146.0688   74.1055  218.6912 H   0  0  0  0  0  0  0  0  0  0  0  0
  145.2289   72.5553  221.0131 H   0  0  0  0  0  0  0  0  0  0  0  0
  145.5244   74.3004  220.9488 H   0  0  0  0  0  0  0  0  0  0  0  0
  143.0301   73.3515  221.4385 H   0  0  0  0  0  0  0  0  0  0  0  0
  141.0770   74.8160  220.8600 H   0  0  0  0  0  0  0  0  0  0  0  0
  142.4134   77.5387  220.4777 H   0  0  0  0  0  0  0  0  0  0  0  0
  140.9528   77.1620  219.5386 H   0  0  0  0  0  0  0  0  0  0  0  0
  140.2419   78.3319  221.4415 H   0  0  0  0  0  0  0  0  0  0  0  0
  142.1890   76.8670  222.7270 H   0  0  0  0  0  0  0  0  0  0  0  0
  139.8177   75.5601  222.3611 H   0  0  0  0  0  0  0  0  0  0  0  0
  138.8270   77.4837  223.6115 H   0  0  0  0  0  0  0  0  0  0  0  0
  137.9116   77.9295  222.1427 H   0  0  0  0  0  0  0  0  0  0  0  0
  137.3641   75.8553  224.1086 H   0  0  0  0  0  0  0  0  0  0  0  0
  136.3520   76.4335  222.7176 H   0  0  0  0  0  0  0  0  0  0  0  0
  138.2060   74.1530  222.7930 H   0  0  0  0  0  0  0  0  0  0  0  0
  138.0899   73.9874  220.5032 H   0  0  0  0  0  0  0  0  0  0  0  0
  136.8139   75.2956  220.4869 H   0  0  0  0  0  0  0  0  0  0  0  0
  139.5832   75.5624  219.9007 H   0  0  0  0  0  0  0  0  0  0  0  0
  138.3641   76.8476  220.0157 H   0  0  0  0  0  0  0  0  0  0  0  0
  138.8669   70.0855  222.4612 H   0  0  0  0  0  0  0  0  0  0  0  0
  138.5198   68.6625  224.4684 H   0  0  0  0  0  0  0  0  0  0  0  0
  138.9492   68.2623  226.8883 H   0  0  0  0  0  0  0  0  0  0  0  0
  141.4003   71.0973  229.0532 H   0  0  0  0  0  0  0  0  0  0  0  0
  141.6579   72.4129  226.9628 H   0  0  0  0  0  0  0  0  0  0  0  0
  1  2  2  0
  2  3  1  0
  3  4  1  0
  4  5  1  0
  5  6  2  0
  5  7  1  0
  7  8  1  0
  8  9  1  0
  9 10  1  0
 10 11  1  0
 11 12  1  0
 12 13  2  0
 12 14  1  0
 14 15  1  0
 15 16  1  0
 16 17  1  0
 16 18  1  0
 18 19  1  0
 19 20  1  0
 20 21  1  0
 21 22  1  0
 22 23  1  0
  2 24  1  0
 24 25  2  0
 25 26  1  0
 26 27  2  0
 27 28  1  0
 28 29  2  0
 29 30  1  0
 29 31  1  0
 31 32  2  0
 32 33  1  0
 33 34  2  0
 11  7  1  0
 23 18  1  0
 34 24  1  0
 33 27  1  0
  3 35  1  0
  4 36  1  0
  4 37  1  0
  8 38  1  0
  8 39  1  0
  9 40  1  0
  9 41  1  0
 10 42  1  0
 10 43  1  0
 11 44  1  1
 14 45  1  0
 15 46  1  0
 15 47  1  0
 16 48  1  6
 17 49  1  0
 18 50  1  0
 19 51  1  0
 19 52  1  0
 20 53  1  0
 20 54  1  0
 21 55  1  0
 22 56  1  0
 22 57  1  0
 23 58  1  0
 23 59  1  0
 25 60  1  0
 26 61  1  0
 28 62  1  0
 31 63  1  0
 32 64  1  0
M  END
>  <smiles>  (10) 
O=C(NCC(=O)N1CCC[C@H]1C(=O)NCC(O)C1CCNCC1)c1ccc2cc(F)ccc2n1

>  <score_type>  (10) 
oracle

>  <origin>  (10) 
autodockgpu

>  <m_score__min__energy>  (10) 
-8.8100000000000005

>  <m_primary>  (10) 
energy

>  <meeko>  (10) 
{"free_energy": -7.74, "intermolecular_energy": -10.42, "internal_energy": -3.92, "cluster_size": 4, "cluster_id": 3, "rank_in_cluster": 3}

>  <energy>  (10) 
-7.74

>  <cluster_rmsd>  (10) 
1.78

>  <rmsd>  (10) 
270.08

>  <cluster>  (10) 
3

$$$$

     RDKit          3D

 64 67  0  0  1  0  0  0  0  0999 V2000
  141.5180   72.5100  221.7440 O   0  0  0  0  0  0  0  0  0  0  0  0
  140.4860   72.5350  222.4980 C   0  0  0  0  0  0  0  0  0  0  0  0
  139.5090   73.5030  222.2010 N   0  0  0  0  0  0  0  0  0  0  0  0
  139.6850   74.4120  221.0960 C   0  0  0  0  0  0  0  0  0  0  0  0
  140.4210   75.6340  221.4780 C   0  0  0  0  0  0  0  0  0  0  0  0
  140.3240   76.1730  222.6250 O   0  0  0  0  0  0  0  0  0  0  0  0
  141.2740   76.2190  220.5010 N   0  0  0  0  0  0  0  0  0  0  0  0
  141.8820   77.5380  220.4950 C   0  0  0  0  0  0  0  0  0  0  0  0
  141.7100   77.9960  219.0810 C   0  0  0  0  0  0  0  0  0  0  0  0
  141.5780   76.7240  218.2740 C   0  0  0  0  0  0  0  0  0  0  0  0
  141.7280   75.5890  219.2600 C   0  0  1  0  0  0  0  0  0  0  0  0
  143.1460   75.2000  219.4680 C   0  0  0  0  0  0  0  0  0  0  0  0
  144.0710   75.4560  218.6750 O   0  0  0  0  0  0  0  0  0  0  0  0
  143.4740   74.4850  220.6530 N   0  0  0  0  0  0  0  0  0  0  0  0
  144.8820   74.1230  220.8150 C   0  0  0  0  0  0  0  0  0  0  0  0
  145.1150   72.9100  219.9750 C   0  0  2  0  0  0  0  0  0  0  0  0
  145.9070   73.1940  218.8820 O   0  0  0  0  0  0  0  0  0  0  0  0
  143.8440   72.1890  219.5910 C   0  0  0  0  0  0  0  0  0  0  0  0
  143.5330   72.3140  218.1320 C   0  0  0  0  0  0  0  0  0  0  0  0
  142.1310   71.7940  217.9000 C   0  0  0  0  0  0  0  0  0  0  0  0
  141.5730   71.1950  219.0910 N   0  0  0  0  0  0  0  0  0  0  0  0
  142.4260   70.2340  219.7220 C   0  0  0  0  0  0  0  0  0  0  0  0
  143.8400   70.7420  219.9660 C   0  0  0  0  0  0  0  0  0  0  0  0
  140.3270   71.6060  223.6130 C   0  0  0  0  0  0  0  0  0  0  0  0
  139.7370   70.3770  223.4090 C   0  0  0  0  0  0  0  0  0  0  0  0
  139.5720   69.4710  224.4540 C   0  0  0  0  0  0  0  0  0  0  0  0
  140.0060   69.8050  225.7270 C   0  0  0  0  0  0  0  0  0  0  0  0
  139.8710   68.9520  226.8040 C   0  0  0  0  0  0  0  0  0  0  0  0
  140.3310   69.3690  228.0360 C   0  0  0  0  0  0  0  0  0  0  0  0
  140.1860   68.5070  229.0880 F   0  0  0  0  0  0  0  0  0  0  0  0
  140.9230   70.6040  228.2390 C   0  0  0  0  0  0  0  0  0  0  0  0
  141.0400   71.4260  227.1430 C   0  0  0  0  0  0  0  0  0  0  0  0
  140.5920   71.0470  225.8930 C   0  0  0  0  0  0  0  0  0  0  0  0
  140.7380   71.9050  224.8580 N   0  0  0  0  0  0  0  0  0  0  0  0
  138.6590   73.5290  222.8150 H   0  0  0  0  0  0  0  0  0  0  0  0
  140.2453   73.8969  220.3018 H   0  0  0  0  0  0  0  0  0  0  0  0
  138.6854   74.7182  220.7538 H   0  0  0  0  0  0  0  0  0  0  0  0
  141.3641   78.2128  221.1925 H   0  0  0  0  0  0  0  0  0  0  0  0
  142.9340   77.5261  220.8163 H   0  0  0  0  0  0  0  0  0  0  0  0
  140.8050   78.6133  218.9814 H   0  0  0  0  0  0  0  0  0  0  0  0
  142.5521   78.6168  218.7412 H   0  0  0  0  0  0  0  0  0  0  0  0
  140.5923   76.6803  217.7876 H   0  0  0  0  0  0  0  0  0  0  0  0
  142.3362   76.6703  217.4788 H   0  0  0  0  0  0  0  0  0  0  0  0
  141.1925   74.6862  218.9309 H   0  0  0  0  0  0  0  0  0  0  0  0
  142.7390   74.2510  221.3380 H   0  0  0  0  0  0  0  0  0  0  0  0
  145.5264   74.9476  220.4764 H   0  0  0  0  0  0  0  0  0  0  0  0
  145.1195   73.9239  221.8704 H   0  0  0  0  0  0  0  0  0  0  0  0
  145.6689   72.2020  220.6090 H   0  0  0  0  0  0  0  0  0  0  0  0
  145.7850   74.1260  218.6260 H   0  0  0  0  0  0  0  0  0  0  0  0
  143.0605   72.6949  220.1743 H   0  0  0  0  0  0  0  0  0  0  0  0
  143.5936   73.3693  217.8276 H   0  0  0  0  0  0  0  0  0  0  0  0
  144.2557   71.7344  217.5389 H   0  0  0  0  0  0  0  0  0  0  0  0
  141.4886   72.6309  217.5887 H   0  0  0  0  0  0  0  0  0  0  0  0
  142.1800   71.0195  217.1205 H   0  0  0  0  0  0  0  0  0  0  0  0
  141.0980   71.8460  219.7260 H   0  0  0  0  0  0  0  0  0  0  0  0
  141.9832   69.9589  220.6907 H   0  0  0  0  0  0  0  0  0  0  0  0
  142.5050   69.3751  219.0393 H   0  0  0  0  0  0  0  0  0  0  0  0
  144.1082   70.6238  221.0263 H   0  0  0  0  0  0  0  0  0  0  0  0
  144.5730   70.1761  219.3724 H   0  0  0  0  0  0  0  0  0  0  0  0
  139.3896   70.1064  222.4010 H   0  0  0  0  0  0  0  0  0  0  0  0
  139.0994   68.4949  224.2697 H   0  0  0  0  0  0  0  0  0  0  0  0
  139.4071   67.9620  226.6826 H   0  0  0  0  0  0  0  0  0  0  0  0
  141.2831   70.9133  229.2313 H   0  0  0  0  0  0  0  0  0  0  0  0
  141.5045   72.4155  227.2657 H   0  0  0  0  0  0  0  0  0  0  0  0
  1  2  2  0
  2  3  1  0
  3  4  1  0
  4  5  1  0
  5  6  2  0
  5  7  1  0
  7  8  1  0
  8  9  1  0
  9 10  1  0
 10 11  1  0
 11 12  1  0
 12 13  2  0
 12 14  1  0
 14 15  1  0
 15 16  1  0
 16 17  1  0
 16 18  1  0
 18 19  1  0
 19 20  1  0
 20 21  1  0
 21 22  1  0
 22 23  1  0
  2 24  1  0
 24 25  2  0
 25 26  1  0
 26 27  2  0
 27 28  1  0
 28 29  2  0
 29 30  1  0
 29 31  1  0
 31 32  2  0
 32 33  1  0
 33 34  2  0
 11  7  1  0
 23 18  1  0
 34 24  1  0
 33 27  1  0
  3 35  1  0
  4 36  1  0
  4 37  1  0
  8 38  1  0
  8 39  1  0
  9 40  1  0
  9 41  1  0
 10 42  1  0
 10 43  1  0
 11 44  1  6
 14 45  1  0
 15 46  1  0
 15 47  1  0
 16 48  1  1
 17 49  1  0
 18 50  1  0
 19 51  1  0
 19 52  1  0
 20 53  1  0
 20 54  1  0
 21 55  1  0
 22 56  1  0
 22 57  1  0
 23 58  1  0
 23 59  1  0
 25 60  1  0
 26 61  1  0
 28 62  1  0
 31 63  1  0
 32 64  1  0
M  END
>  <smiles>  (11) 
O=C(NCC(=O)N1CCC[C@H]1C(=O)NCC(O)C1CCNCC1)c1ccc2cc(F)ccc2n1

>  <score_type>  (11) 
oracle

>  <origin>  (11) 
autodockgpu

>  <m_score__min__energy>  (11) 
-8.8100000000000005

>  <m_primary>  (11) 
energy

>  <meeko>  (11) 
{"free_energy": -8.0, "intermolecular_energy": -10.69, "internal_energy": -4.71, "cluster_size": 4, "cluster_id": 3, "rank_in_cluster": 2}

>  <energy>  (11) 
-7.7

>  <cluster_rmsd>  (11) 
1.14

>  <rmsd>  (11) 
269.65

>  <cluster>  (11) 
3

$$$$

     RDKit          3D

 64 67  0  0  1  0  0  0  0  0999 V2000
  138.1030   75.2040  221.9710 O   0  0  0  0  0  0  0  0  0  0  0  0
  139.3170   75.5980  222.0320 C   0  0  0  0  0  0  0  0  0  0  0  0
  140.3050   74.6580  221.6840 N   0  0  0  0  0  0  0  0  0  0  0  0
  139.9420   73.3220  221.2830 C   0  0  0  0  0  0  0  0  0  0  0  0
  140.9720   72.3240  221.6350 C   0  0  0  0  0  0  0  0  0  0  0  0
  141.0850   71.8250  222.7990 O   0  0  0  0  0  0  0  0  0  0  0  0
  141.8680   71.9140  220.6090 N   0  0  0  0  0  0  0  0  0  0  0  0
  141.5650   71.4680  219.2600 C   0  0  0  0  0  0  0  0  0  0  0  0
  142.4840   70.3030  219.0630 C   0  0  0  0  0  0  0  0  0  0  0  0
  143.6230   70.5390  220.0290 C   0  0  0  0  0  0  0  0  0  0  0  0
  143.3270   71.8570  220.7060 C   0  0  1  0  0  0  0  0  0  0  0  0
  143.8550   73.0180  219.9450 C   0  0  0  0  0  0  0  0  0  0  0  0
  144.9910   73.0710  219.4370 O   0  0  0  0  0  0  0  0  0  0  0  0
  143.0090   74.1490  219.7830 N   0  0  0  0  0  0  0  0  0  0  0  0
  143.5710   75.2680  219.0270 C   0  0  0  0  0  0  0  0  0  0  0  0
  143.1180   76.5190  219.7060 C   0  0  2  0  0  0  0  0  0  0  0  0
  142.0860   76.2720  220.5890 O   0  0  0  0  0  0  0  0  0  0  0  0
  142.7960   77.6430  218.7480 C   0  0  0  0  0  0  0  0  0  0  0  0
  142.2820   77.1440  217.4340 C   0  0  0  0  0  0  0  0  0  0  0  0
  142.2410   78.3090  216.4680 C   0  0  0  0  0  0  0  0  0  0  0  0
  142.5480   79.5620  217.1200 N   0  0  0  0  0  0  0  0  0  0  0  0
  141.7970   79.8020  218.3160 C   0  0  0  0  0  0  0  0  0  0  0  0
  141.8310   78.6410  219.3000 C   0  0  0  0  0  0  0  0  0  0  0  0
  139.6650   76.9560  222.4410 C   0  0  0  0  0  0  0  0  0  0  0  0
  138.6720   77.8730  222.7060 C   0  0  0  0  0  0  0  0  0  0  0  0
  138.9740   79.1750  223.0990 C   0  0  0  0  0  0  0  0  0  0  0  0
  140.2980   79.5630  223.2270 C   0  0  0  0  0  0  0  0  0  0  0  0
  140.6640   80.8370  223.6120 C   0  0  0  0  0  0  0  0  0  0  0  0
  142.0070   81.1350  223.7130 C   0  0  0  0  0  0  0  0  0  0  0  0
  142.3450   82.4040  224.0950 F   0  0  0  0  0  0  0  0  0  0  0  0
  143.0040   80.2120  223.4460 C   0  0  0  0  0  0  0  0  0  0  0  0
  142.6010   78.9530  223.0660 C   0  0  0  0  0  0  0  0  0  0  0  0
  141.2670   78.6140  222.9520 C   0  0  0  0  0  0  0  0  0  0  0  0
  140.9420   77.3580  222.5730 N   0  0  0  0  0  0  0  0  0  0  0  0
  141.3040   74.9750  221.7320 H   0  0  0  0  0  0  0  0  0  0  0  0
  139.0008   73.0479  221.7819 H   0  0  0  0  0  0  0  0  0  0  0  0
  139.8363   73.3198  220.1881 H   0  0  0  0  0  0  0  0  0  0  0  0
  140.5131   71.1578  219.1753 H   0  0  0  0  0  0  0  0  0  0  0  0
  141.7051   72.2567  218.5061 H   0  0  0  0  0  0  0  0  0  0  0  0
  141.9684   69.3596  219.2955 H   0  0  0  0  0  0  0  0  0  0  0  0
  142.8329   70.2217  218.0230 H   0  0  0  0  0  0  0  0  0  0  0  0
  143.6683   69.7291  220.7720 H   0  0  0  0  0  0  0  0  0  0  0  0
  144.5933   70.5604  219.5112 H   0  0  0  0  0  0  0  0  0  0  0  0
  143.7645   71.9077  221.7140 H   0  0  0  0  0  0  0  0  0  0  0  0
  142.0600   74.1490  220.1870 H   0  0  0  0  0  0  0  0  0  0  0  0
  144.6696   75.2126  219.0291 H   0  0  0  0  0  0  0  0  0  0  0  0
  143.2360   75.2442  217.9795 H   0  0  0  0  0  0  0  0  0  0  0  0
  143.9774   76.8757  220.2927 H   0  0  0  0  0  0  0  0  0  0  0  0
  142.4140   76.3570  221.5020 H   0  0  0  0  0  0  0  0  0  0  0  0
  143.7594   78.1506  218.5925 H   0  0  0  0  0  0  0  0  0  0  0  0
  142.9507   76.3617  217.0456 H   0  0  0  0  0  0  0  0  0  0  0  0
  141.2756   76.7174  217.5573 H   0  0  0  0  0  0  0  0  0  0  0  0
  142.9767   78.1344  215.6691 H   0  0  0  0  0  0  0  0  0  0  0  0
  141.2215   78.3779  216.0607 H   0  0  0  0  0  0  0  0  0  0  0  0
  143.5460   79.7940  217.1720 H   0  0  0  0  0  0  0  0  0  0  0  0
  142.2102   80.6918  218.8135 H   0  0  0  0  0  0  0  0  0  0  0  0
  140.7478   79.9400  218.0159 H   0  0  0  0  0  0  0  0  0  0  0  0
  142.1685   78.9897  220.2872 H   0  0  0  0  0  0  0  0  0  0  0  0
  140.8318   78.1989  219.4272 H   0  0  0  0  0  0  0  0  0  0  0  0
  137.6190   77.5711  222.6053 H   0  0  0  0  0  0  0  0  0  0  0  0
  138.1655   79.8914  223.3066 H   0  0  0  0  0  0  0  0  0  0  0  0
  139.9013   81.5981  223.8334 H   0  0  0  0  0  0  0  0  0  0  0  0
  144.0689   80.4735  223.5337 H   0  0  0  0  0  0  0  0  0  0  0  0
  143.3648   78.1926  222.8461 H   0  0  0  0  0  0  0  0  0  0  0  0
  1  2  2  0
  2  3  1  0
  3  4  1  0
  4  5  1  0
  5  6  2  0
  5  7  1  0
  7  8  1  0
  8  9  1  0
  9 10  1  0
 10 11  1  0
 11 12  1  0
 12 13  2  0
 12 14  1  0
 14 15  1  0
 15 16  1  0
 16 17  1  0
 16 18  1  0
 18 19  1  0
 19 20  1  0
 20 21  1  0
 21 22  1  0
 22 23  1  0
  2 24  1  0
 24 25  2  0
 25 26  1  0
 26 27  2  0
 27 28  1  0
 28 29  2  0
 29 30  1  0
 29 31  1  0
 31 32  2  0
 32 33  1  0
 33 34  2  0
 11  7  1  0
 23 18  1  0
 34 24  1  0
 33 27  1  0
  3 35  1  0
  4 36  1  0
  4 37  1  0
  8 38  1  0
  8 39  1  0
  9 40  1  0
  9 41  1  0
 10 42  1  0
 10 43  1  0
 11 44  1  1
 14 45  1  0
 15 46  1  0
 15 47  1  0
 16 48  1  1
 17 49  1  0
 18 50  1  0
 19 51  1  0
 19 52  1  0
 20 53  1  0
 20 54  1  0
 21 55  1  0
 22 56  1  0
 22 57  1  0
 23 58  1  0
 23 59  1  0
 25 60  1  0
 26 61  1  0
 28 62  1  0
 31 63  1  0
 32 64  1  0
M  END
>  <smiles>  (12) 
O=C(NCC(=O)N1CCC[C@H]1C(=O)NCC(O)C1CCNCC1)c1ccc2cc(F)ccc2n1

>  <score_type>  (12) 
oracle

>  <origin>  (12) 
autodockgpu

>  <m_score__min__energy>  (12) 
-8.8100000000000005

>  <m_primary>  (12) 
energy

>  <meeko>  (12) 
{"free_energy": -6.72, "intermolecular_energy": -9.4, "internal_energy": -4.83, "cluster_size": 3, "cluster_id": 6, "rank_in_cluster": 1}

>  <energy>  (12) 
-7.87

>  <cluster_rmsd>  (12) 
0.0

>  <rmsd>  (12) 
270.53

>  <cluster>  (12) 
4

$$$$

     RDKit          3D

 64 67  0  0  1  0  0  0  0  0999 V2000
  141.2760   73.2320  221.4780 O   0  0  0  0  0  0  0  0  0  0  0  0
  140.3200   73.1360  222.3200 C   0  0  0  0  0  0  0  0  0  0  0  0
  139.3930   74.1940  222.3480 N   0  0  0  0  0  0  0  0  0  0  0  0
  139.5340   75.3210  221.4610 C   0  0  0  0  0  0  0  0  0  0  0  0
  139.2470   76.6080  222.1260 C   0  0  0  0  0  0  0  0  0  0  0  0
  138.1230   76.8810  222.6530 O   0  0  0  0  0  0  0  0  0  0  0  0
  140.2920   77.5730  222.1700 N   0  0  0  0  0  0  0  0  0  0  0  0
  141.4090   77.6640  223.0930 C   0  0  0  0  0  0  0  0  0  0  0  0
  141.4850   79.1250  223.4070 C   0  0  0  0  0  0  0  0  0  0  0  0
  140.8370   79.8100  222.2250 C   0  0  0  0  0  0  0  0  0  0  0  0
  140.4580   78.7090  221.2620 C   0  0  1  0  0  0  0  0  0  0  0  0
  141.5640   78.3600  220.3340 C   0  0  0  0  0  0  0  0  0  0  0  0
  142.1200   79.1650  219.5640 O   0  0  0  0  0  0  0  0  0  0  0  0
  142.0240   77.0140  220.3220 N   0  0  0  0  0  0  0  0  0  0  0  0
  143.1140   76.7170  219.3920 C   0  0  0  0  0  0  0  0  0  0  0  0
  142.8820   75.3320  218.8830 C   0  0  2  0  0  0  0  0  0  0  0  0
  141.7230   74.7890  219.3980 O   0  0  0  0  0  0  0  0  0  0  0  0
  144.0720   74.4180  219.0610 C   0  0  0  0  0  0  0  0  0  0  0  0
  144.4650   74.2630  220.4970 C   0  0  0  0  0  0  0  0  0  0  0  0
  145.8020   73.5550  220.5490 C   0  0  0  0  0  0  0  0  0  0  0  0
  146.2250   73.1040  219.2420 N   0  0  0  0  0  0  0  0  0  0  0  0
  145.2310   72.3640  218.5250 C   0  0  0  0  0  0  0  0  0  0  0  0
  143.8800   73.0630  218.4610 C   0  0  0  0  0  0  0  0  0  0  0  0
  140.1940   71.9860  223.2110 C   0  0  0  0  0  0  0  0  0  0  0  0
  139.5830   70.8330  222.7690 C   0  0  0  0  0  0  0  0  0  0  0  0
  139.4490   69.7210  223.5970 C   0  0  0  0  0  0  0  0  0  0  0  0
  139.9350   69.7690  224.8930 C   0  0  0  0  0  0  0  0  0  0  0  0
  139.8330   68.7010  225.7630 C   0  0  0  0  0  0  0  0  0  0  0  0
  140.3460   68.8380  227.0370 C   0  0  0  0  0  0  0  0  0  0  0  0
  140.2320   67.7670  227.8800 F   0  0  0  0  0  0  0  0  0  0  0  0
  140.9590   69.9970  227.4800 C   0  0  0  0  0  0  0  0  0  0  0  0
  141.0420   71.0380  226.5850 C   0  0  0  0  0  0  0  0  0  0  0  0
  140.5420   70.9430  225.3020 C   0  0  0  0  0  0  0  0  0  0  0  0
  140.6570   72.0060  224.4740 N   0  0  0  0  0  0  0  0  0  0  0  0
  138.6050   74.1220  223.0370 H   0  0  0  0  0  0  0  0  0  0  0  0
  140.5662   75.3433  221.0814 H   0  0  0  0  0  0  0  0  0  0  0  0
  138.8044   75.1971  220.6472 H   0  0  0  0  0  0  0  0  0  0  0  0
  141.2164   77.0760  224.0024 H   0  0  0  0  0  0  0  0  0  0  0  0
  142.3450   77.2669  222.6732 H   0  0  0  0  0  0  0  0  0  0  0  0
  140.9370   79.3509  224.3337 H   0  0  0  0  0  0  0  0  0  0  0  0
  142.5202   79.4618  223.5650 H   0  0  0  0  0  0  0  0  0  0  0  0
  139.9413   80.3615  222.5467 H   0  0  0  0  0  0  0  0  0  0  0  0
  141.5175   80.5372  221.7580 H   0  0  0  0  0  0  0  0  0  0  0  0
  139.5930   78.9859  220.6414 H   0  0  0  0  0  0  0  0  0  0  0  0
  141.5930   76.3130  220.9430 H   0  0  0  0  0  0  0  0  0  0  0  0
  143.1055   77.4335  218.5574 H   0  0  0  0  0  0  0  0  0  0  0  0
  144.0910   76.7954  219.8912 H   0  0  0  0  0  0  0  0  0  0  0  0
  142.7476   75.4252  217.7952 H   0  0  0  0  0  0  0  0  0  0  0  0
  141.9460   74.1610  220.1080 H   0  0  0  0  0  0  0  0  0  0  0  0
  144.8833   74.9214  218.5147 H   0  0  0  0  0  0  0  0  0  0  0  0
  144.5496   75.2532  220.9686 H   0  0  0  0  0  0  0  0  0  0  0  0
  143.7053   73.6793  221.0374 H   0  0  0  0  0  0  0  0  0  0  0  0
  146.5567   74.2493  220.9470 H   0  0  0  0  0  0  0  0  0  0  0  0
  145.6949   72.6718  221.1960 H   0  0  0  0  0  0  0  0  0  0  0  0
  146.7460   73.7930  218.6890 H   0  0  0  0  0  0  0  0  0  0  0  0
  145.5895   72.2051  217.4973 H   0  0  0  0  0  0  0  0  0  0  0  0
  145.0799   71.4182  219.0659 H   0  0  0  0  0  0  0  0  0  0  0  0
  143.5488   73.1540  217.4160 H   0  0  0  0  0  0  0  0  0  0  0  0
  143.1122   72.4933  219.0050 H   0  0  0  0  0  0  0  0  0  0  0  0
  139.1931   70.7897  221.7413 H   0  0  0  0  0  0  0  0  0  0  0  0
  138.9597   68.8094  223.2235 H   0  0  0  0  0  0  0  0  0  0  0  0
  139.3537   67.7625  225.4476 H   0  0  0  0  0  0  0  0  0  0  0  0
  141.3611   70.0817  228.5004 H   0  0  0  0  0  0  0  0  0  0  0  0
  141.5220   71.9758  226.9016 H   0  0  0  0  0  0  0  0  0  0  0  0
  1  2  2  0
  2  3  1  0
  3  4  1  0
  4  5  1  0
  5  6  2  0
  5  7  1  0
  7  8  1  0
  8  9  1  0
  9 10  1  0
 10 11  1  0
 11 12  1  0
 12 13  2  0
 12 14  1  0
 14 15  1  0
 15 16  1  0
 16 17  1  0
 16 18  1  0
 18 19  1  0
 19 20  1  0
 20 21  1  0
 21 22  1  0
 22 23  1  0
  2 24  1  0
 24 25  2  0
 25 26  1  0
 26 27  2  0
 27 28  1  0
 28 29  2  0
 29 30  1  0
 29 31  1  0
 31 32  2  0
 32 33  1  0
 33 34  2  0
 11  7  1  0
 23 18  1  0
 34 24  1  0
 33 27  1  0
  3 35  1  0
  4 36  1  0
  4 37  1  0
  8 38  1  0
  8 39  1  0
  9 40  1  0
  9 41  1  0
 10 42  1  0
 10 43  1  0
 11 44  1  6
 14 45  1  0
 15 46  1  0
 15 47  1  0
 16 48  1  6
 17 49  1  0
 18 50  1  0
 19 51  1  0
 19 52  1  0
 20 53  1  0
 20 54  1  0
 21 55  1  0
 22 56  1  0
 22 57  1  0
 23 58  1  0
 23 59  1  0
 25 60  1  0
 26 61  1  0
 28 62  1  0
 31 63  1  0
 32 64  1  0
M  END
>  <smiles>  (13) 
O=C(NCC(=O)N1CCC[C@H]1C(=O)NCC(O)C1CCNCC1)c1ccc2cc(F)ccc2n1

>  <score_type>  (13) 
oracle

>  <origin>  (13) 
autodockgpu

>  <m_score__min__energy>  (13) 
-8.8100000000000005

>  <m_primary>  (13) 
energy

>  <meeko>  (13) 
{"free_energy": -8.7, "intermolecular_energy": -11.38, "internal_energy": -3.6, "cluster_size": 5, "cluster_id": 1, "rank_in_cluster": 2}

>  <energy>  (13) 
-7.14

>  <cluster_rmsd>  (13) 
0.0

>  <rmsd>  (13) 
269.91

>  <cluster>  (13) 
5

$$$$

     RDKit          3D

 64 67  0  0  1  0  0  0  0  0999 V2000
  139.7980   73.5970  220.5870 O   0  0  0  0  0  0  0  0  0  0  0  0
  139.4610   73.6270  221.8190 C   0  0  0  0  0  0  0  0  0  0  0  0
  139.0960   74.8810  222.3440 N   0  0  0  0  0  0  0  0  0  0  0  0
  139.1080   76.0590  221.5140 C   0  0  0  0  0  0  0  0  0  0  0  0
  139.1720   77.3070  222.3010 C   0  0  0  0  0  0  0  0  0  0  0  0
  138.2240   77.7060  223.0480 O   0  0  0  0  0  0  0  0  0  0  0  0
  140.3600   78.0840  222.2050 N   0  0  0  0  0  0  0  0  0  0  0  0
  141.5020   78.1160  223.1010 C   0  0  0  0  0  0  0  0  0  0  0  0
  141.8230   79.5740  223.2080 C   0  0  0  0  0  0  0  0  0  0  0  0
  141.2620   80.1870  221.9450 C   0  0  0  0  0  0  0  0  0  0  0  0
  140.6840   79.0420  221.1460 C   0  0  1  0  0  0  0  0  0  0  0  0
  141.6930   78.3920  220.2720 C   0  0  0  0  0  0  0  0  0  0  0  0
  142.1790   78.9100  219.2490 O   0  0  0  0  0  0  0  0  0  0  0  0
  142.1390   77.0880  220.6240 N   0  0  0  0  0  0  0  0  0  0  0  0
  143.1330   76.4880  219.7330 C   0  0  0  0  0  0  0  0  0  0  0  0
  142.8750   75.0170  219.7280 C   0  0  2  0  0  0  0  0  0  0  0  0
  142.1840   74.6180  220.8540 O   0  0  0  0  0  0  0  0  0  0  0  0
  144.1170   74.1880  219.4940 C   0  0  0  0  0  0  0  0  0  0  0  0
  144.8160   73.8320  220.7690 C   0  0  0  0  0  0  0  0  0  0  0  0
  146.1650   73.2400  220.4200 C   0  0  0  0  0  0  0  0  0  0  0  0
  146.3180   73.0470  218.9960 N   0  0  0  0  0  0  0  0  0  0  0  0
  145.2290   72.3540  218.3760 C   0  0  0  0  0  0  0  0  0  0  0  0
  143.8640   72.9390  218.7130 C   0  0  0  0  0  0  0  0  0  0  0  0
  139.4560   72.4220  222.6440 C   0  0  0  0  0  0  0  0  0  0  0  0
  138.5500   71.4160  222.3910 C   0  0  0  0  0  0  0  0  0  0  0  0
  138.5220   70.2560  223.1610 C   0  0  0  0  0  0  0  0  0  0  0  0
  139.4200   70.1040  224.2060 C   0  0  0  0  0  0  0  0  0  0  0  0
  139.4430   68.9790  225.0060 C   0  0  0  0  0  0  0  0  0  0  0  0
  140.3730   68.9140  226.0230 C   0  0  0  0  0  0  0  0  0  0  0  0
  140.3760   67.7910  226.8030 F   0  0  0  0  0  0  0  0  0  0  0  0
  141.2820   69.9270  226.2770 C   0  0  0  0  0  0  0  0  0  0  0  0
  141.2290   71.0310  225.4590 C   0  0  0  0  0  0  0  0  0  0  0  0
  140.3140   71.1360  224.4300 C   0  0  0  0  0  0  0  0  0  0  0  0
  140.3170   72.2500  223.6630 N   0  0  0  0  0  0  0  0  0  0  0  0
  138.8180   74.9130  223.3550 H   0  0  0  0  0  0  0  0  0  0  0  0
  139.9852   76.0146  220.8518 H   0  0  0  0  0  0  0  0  0  0  0  0
  138.1685   76.0734  220.9420 H   0  0  0  0  0  0  0  0  0  0  0  0
  141.2417   77.6977  224.0845 H   0  0  0  0  0  0  0  0  0  0  0  0
  142.3493   77.5169  222.7359 H   0  0  0  0  0  0  0  0  0  0  0  0
  141.3448   80.0118  224.0966 H   0  0  0  0  0  0  0  0  0  0  0  0
  142.9030   79.7546  223.3128 H   0  0  0  0  0  0  0  0  0  0  0  0
  140.4761   80.9163  222.1908 H   0  0  0  0  0  0  0  0  0  0  0  0
  142.0382   80.7219  221.3781 H   0  0  0  0  0  0  0  0  0  0  0  0
  139.8596   79.3698  220.4956 H   0  0  0  0  0  0  0  0  0  0  0  0
  141.7640   76.6200  221.4630 H   0  0  0  0  0  0  0  0  0  0  0  0
  143.0254   76.8949  218.7167 H   0  0  0  0  0  0  0  0  0  0  0  0
  144.1547   76.7086  220.0756 H   0  0  0  0  0  0  0  0  0  0  0  0
  142.2290   74.8242  218.8588 H   0  0  0  0  0  0  0  0  0  0  0  0
  141.3170   74.2590  220.5930 H   0  0  0  0  0  0  0  0  0  0  0  0
  144.7678   74.8400  218.8929 H   0  0  0  0  0  0  0  0  0  0  0  0
  144.9530   74.7344  221.3830 H   0  0  0  0  0  0  0  0  0  0  0  0
  144.2186   73.1057  221.3396 H   0  0  0  0  0  0  0  0  0  0  0  0
  146.9538   73.9204  220.7732 H   0  0  0  0  0  0  0  0  0  0  0  0
  146.2414   72.2566  220.9069 H   0  0  0  0  0  0  0  0  0  0  0  0
  146.6750   73.8590  218.4810 H   0  0  0  0  0  0  0  0  0  0  0  0
  145.3658   72.3959  217.2854 H   0  0  0  0  0  0  0  0  0  0  0  0
  145.2421   71.3231  218.7596 H   0  0  0  0  0  0  0  0  0  0  0  0
  143.3129   73.1732  217.7903 H   0  0  0  0  0  0  0  0  0  0  0  0
  143.2577   72.2255  219.2903 H   0  0  0  0  0  0  0  0  0  0  0  0
  137.8340   71.5312  221.5639 H   0  0  0  0  0  0  0  0  0  0  0  0
  137.7908   69.4642  222.9410 H   0  0  0  0  0  0  0  0  0  0  0  0
  138.7361   68.1535  224.8364 H   0  0  0  0  0  0  0  0  0  0  0  0
  142.0130   69.8521  227.0956 H   0  0  0  0  0  0  0  0  0  0  0  0
  141.9369   71.8555  225.6294 H   0  0  0  0  0  0  0  0  0  0  0  0
  1  2  2  0
  2  3  1  0
  3  4  1  0
  4  5  1  0
  5  6  2  0
  5  7  1  0
  7  8  1  0
  8  9  1  0
  9 10  1  0
 10 11  1  0
 11 12  1  0
 12 13  2  0
 12 14  1  0
 14 15  1  0
 15 16  1  0
 16 17  1  0
 16 18  1  0
 18 19  1  0
 19 20  1  0
 20 21  1  0
 21 22  1  0
 22 23  1  0
  2 24  1  0
 24 25  2  0
 25 26  1  0
 26 27  2  0
 27 28  1  0
 28 29  2  0
 29 30  1  0
 29 31  1  0
 31 32  2  0
 32 33  1  0
 33 34  2  0
 11  7  1  0
 23 18  1  0
 34 24  1  0
 33 27  1  0
  3 35  1  0
  4 36  1  0
  4 37  1  0
  8 38  1  0
  8 39  1  0
  9 40  1  0
  9 41  1  0
 10 42  1  0
 10 43  1  0
 11 44  1  6
 14 45  1  0
 15 46  1  0
 15 47  1  0
 16 48  1  6
 17 49  1  0
 18 50  1  0
 19 51  1  0
 19 52  1  0
 20 53  1  0
 20 54  1  0
 21 55  1  0
 22 56  1  0
 22 57  1  0
 23 58  1  0
 23 59  1  0
 25 60  1  0
 26 61  1  0
 28 62  1  0
 31 63  1  0
 32 64  1  0
M  END
>  <smiles>  (14) 
O=C(NCC(=O)N1CCC[C@H]1C(=O)NCC(O)C1CCNCC1)c1ccc2cc(F)ccc2n1

>  <score_type>  (14) 
oracle

>  <origin>  (14) 
autodockgpu

>  <m_score__min__energy>  (14) 
-8.8100000000000005

>  <m_primary>  (14) 
energy

>  <meeko>  (14) 
{"free_energy": -8.81, "intermolecular_energy": -11.49, "internal_energy": -3.39, "cluster_size": 5, "cluster_id": 1, "rank_in_cluster": 1}

>  <energy>  (14) 
-6.72

>  <cluster_rmsd>  (14) 
0.0

>  <rmsd>  (14) 
270.08

>  <cluster>  (14) 
6

$$$$

     RDKit          3D

 64 67  0  0  1  0  0  0  0  0999 V2000
  142.5510   77.8120  219.4920 O   0  0  0  0  0  0  0  0  0  0  0  0
  142.6270   78.4910  218.4130 C   0  0  0  0  0  0  0  0  0  0  0  0
  143.1730   77.8380  217.2920 N   0  0  0  0  0  0  0  0  0  0  0  0
  143.6180   76.4710  217.3810 C   0  0  0  0  0  0  0  0  0  0  0  0
  142.5870   75.5730  217.9420 C   0  0  0  0  0  0  0  0  0  0  0  0
  141.4770   75.3450  217.3650 O   0  0  0  0  0  0  0  0  0  0  0  0
  142.8710   74.9440  219.1860 N   0  0  0  0  0  0  0  0  0  0  0  0
  143.9930   75.1610  220.0810 C   0  0  0  0  0  0  0  0  0  0  0  0
  144.3790   73.7780  220.5010 C   0  0  0  0  0  0  0  0  0  0  0  0
  143.1260   72.9530  220.3150 C   0  0  0  0  0  0  0  0  0  0  0  0
  142.0610   73.9140  219.8390 C   0  0  1  0  0  0  0  0  0  0  0  0
  141.3480   74.5740  220.9620 C   0  0  0  0  0  0  0  0  0  0  0  0
  141.0070   74.0030  222.0140 O   0  0  0  0  0  0  0  0  0  0  0  0
  141.0310   75.9540  220.8300 N   0  0  0  0  0  0  0  0  0  0  0  0
  140.3280   76.5620  221.9600 C   0  0  0  0  0  0  0  0  0  0  0  0
  140.0150   77.9690  221.5680 C   0  0  2  0  0  0  0  0  0  0  0  0
  139.7610   78.0750  220.2160 O   0  0  0  0  0  0  0  0  0  0  0  0
  141.0470   78.9680  222.0380 C   0  0  0  0  0  0  0  0  0  0  0  0
  140.6480   80.3810  221.7490 C   0  0  0  0  0  0  0  0  0  0  0  0
  141.8410   81.2740  222.0130 C   0  0  0  0  0  0  0  0  0  0  0  0
  142.9400   80.5450  222.6040 N   0  0  0  0  0  0  0  0  0  0  0  0
  142.5770   79.7520  223.7390 C   0  0  0  0  0  0  0  0  0  0  0  0
  141.3800   78.8450  223.4900 C   0  0  0  0  0  0  0  0  0  0  0  0
  142.1710   79.8760  218.3420 C   0  0  0  0  0  0  0  0  0  0  0  0
  143.0280   80.8650  217.9130 C   0  0  0  0  0  0  0  0  0  0  0  0
  142.6200   82.1950  217.8350 C   0  0  0  0  0  0  0  0  0  0  0  0
  141.3280   82.5380  218.1980 C   0  0  0  0  0  0  0  0  0  0  0  0
  140.8620   83.8370  218.1440 C   0  0  0  0  0  0  0  0  0  0  0  0
  139.5600   84.0860  218.5240 C   0  0  0  0  0  0  0  0  0  0  0  0
  139.1220   85.3810  218.4630 F   0  0  0  0  0  0  0  0  0  0  0  0
  138.6990   83.0920  218.9560 C   0  0  0  0  0  0  0  0  0  0  0  0
  139.1980   81.8110  218.9960 C   0  0  0  0  0  0  0  0  0  0  0  0
  140.4950   81.5190  218.6240 C   0  0  0  0  0  0  0  0  0  0  0  0
  140.9210   80.2370  218.6880 N   0  0  0  0  0  0  0  0  0  0  0  0
  143.2380   78.3900  216.4020 H   0  0  0  0  0  0  0  0  0  0  0  0
  143.8802   76.1195  216.3722 H   0  0  0  0  0  0  0  0  0  0  0  0
  144.4851   76.4463  218.0574 H   0  0  0  0  0  0  0  0  0  0  0  0
  144.8227   75.6587  219.5575 H   0  0  0  0  0  0  0  0  0  0  0  0
  143.7423   75.8122  220.9314 H   0  0  0  0  0  0  0  0  0  0  0  0
  145.1930   73.3941  219.8685 H   0  0  0  0  0  0  0  0  0  0  0  0
  144.7463   73.7465  221.5374 H   0  0  0  0  0  0  0  0  0  0  0  0
  143.2942   72.1666  219.5645 H   0  0  0  0  0  0  0  0  0  0  0  0
  142.8298   72.4541  221.2495 H   0  0  0  0  0  0  0  0  0  0  0  0
  141.2982   73.4117  219.2259 H   0  0  0  0  0  0  0  0  0  0  0  0
  141.2940   76.4680  219.9750 H   0  0  0  0  0  0  0  0  0  0  0  0
  139.3988   76.0114  222.1683 H   0  0  0  0  0  0  0  0  0  0  0  0
  140.9456   76.5342  222.8699 H   0  0  0  0  0  0  0  0  0  0  0  0
  139.0894   78.2357  222.0992 H   0  0  0  0  0  0  0  0  0  0  0  0
  140.5360   78.4590  219.7690 H   0  0  0  0  0  0  0  0  0  0  0  0
  141.9482   78.7188  221.4586 H   0  0  0  0  0  0  0  0  0  0  0  0
  140.3399   80.4729  220.6970 H   0  0  0  0  0  0  0  0  0  0  0  0
  139.8042   80.6757  222.3902 H   0  0  0  0  0  0  0  0  0  0  0  0
  142.1756   81.7111  221.0607 H   0  0  0  0  0  0  0  0  0  0  0  0
  141.5309   82.0563  222.7214 H   0  0  0  0  0  0  0  0  0  0  0  0
  143.5760   80.0950  221.9360 H   0  0  0  0  0  0  0  0  0  0  0  0
  143.4375   79.1246  224.0147 H   0  0  0  0  0  0  0  0  0  0  0  0
  142.2931   80.4482  224.5419 H   0  0  0  0  0  0  0  0  0  0  0  0
  141.6356   77.8033  223.7340 H   0  0  0  0  0  0  0  0  0  0  0  0
  140.5253   79.1338  224.1193 H   0  0  0  0  0  0  0  0  0  0  0  0
  144.0561   80.5994  217.6259 H   0  0  0  0  0  0  0  0  0  0  0  0
  143.3203   82.9686  217.4870 H   0  0  0  0  0  0  0  0  0  0  0  0
  141.5150   84.6549  217.8054 H   0  0  0  0  0  0  0  0  0  0  0  0
  137.6640   83.3162  219.2534 H   0  0  0  0  0  0  0  0  0  0  0  0
  138.5437   80.9942  219.3347 H   0  0  0  0  0  0  0  0  0  0  0  0
  1  2  2  0
  2  3  1  0
  3  4  1  0
  4  5  1  0
  5  6  2  0
  5  7  1  0
  7  8  1  0
  8  9  1  0
  9 10  1  0
 10 11  1  0
 11 12  1  0
 12 13  2  0
 12 14  1  0
 14 15  1  0
 15 16  1  0
 16 17  1  0
 16 18  1  0
 18 19  1  0
 19 20  1  0
 20 21  1  0
 21 22  1  0
 22 23  1  0
  2 24  1  0
 24 25  2  0
 25 26  1  0
 26 27  2  0
 27 28  1  0
 28 29  2  0
 29 30  1  0
 29 31  1  0
 31 32  2  0
 32 33  1  0
 33 34  2  0
 11  7  1  0
 23 18  1  0
 34 24  1  0
 33 27  1  0
  3 35  1  0
  4 36  1  0
  4 37  1  0
  8 38  1  0
  8 39  1  0
  9 40  1  0
  9 41  1  0
 10 42  1  0
 10 43  1  0
 11 44  1  6
 14 45  1  0
 15 46  1  0
 15 47  1  0
 16 48  1  1
 17 49  1  0
 18 50  1  0
 19 51  1  0
 19 52  1  0
 20 53  1  0
 20 54  1  0
 21 55  1  0
 22 56  1  0
 22 57  1  0
 23 58  1  0
 23 59  1  0
 25 60  1  0
 26 61  1  0
 28 62  1  0
 31 63  1  0
 32 64  1  0
M  END
>  <smiles>  (15) 
O=C(NCC(=O)N1CCC[C@H]1C(=O)NCC(O)C1CCNCC1)c1ccc2cc(F)ccc2n1

>  <score_type>  (15) 
oracle

>  <origin>  (15) 
autodockgpu

>  <m_score__min__energy>  (15) 
-8.8100000000000005

>  <m_primary>  (15) 
energy

>  <meeko>  (15) 
{"free_energy": -5.74, "intermolecular_energy": -8.43, "internal_energy": -5.85, "cluster_size": 1, "cluster_id": 9, "rank_in_cluster": 1}

>  <energy>  (15) 
-6.63

>  <cluster_rmsd>  (15) 
1.33

>  <rmsd>  (15) 
269.93

>  <cluster>  (15) 
6

$$$$

     RDKit          3D

 64 67  0  0  1  0  0  0  0  0999 V2000
  138.5880   75.0270  222.0400 O   0  0  0  0  0  0  0  0  0  0  0  0
  139.7500   75.4860  221.7740 C   0  0  0  0  0  0  0  0  0  0  0  0
  139.8990   76.8850  221.8030 N   0  0  0  0  0  0  0  0  0  0  0  0
  138.7810   77.7380  222.1210 C   0  0  0  0  0  0  0  0  0  0  0  0
  139.1570   78.8600  223.0060 C   0  0  0  0  0  0  0  0  0  0  0  0
  138.3620   79.3670  223.8590 O   0  0  0  0  0  0  0  0  0  0  0  0
  140.4750   79.3820  222.8810 N   0  0  0  0  0  0  0  0  0  0  0  0
  141.6260   79.1600  223.7380 C   0  0  0  0  0  0  0  0  0  0  0  0
  142.2400   80.5200  223.8580 C   0  0  0  0  0  0  0  0  0  0  0  0
  141.7770   81.2650  222.6260 C   0  0  0  0  0  0  0  0  0  0  0  0
  140.9540   80.2790  221.8290 C   0  0  1  0  0  0  0  0  0  0  0  0
  141.7830   79.4600  220.9090 C   0  0  0  0  0  0  0  0  0  0  0  0
  142.5140   78.5180  221.2670 O   0  0  0  0  0  0  0  0  0  0  0  0
  141.7420   79.7690  219.5210 N   0  0  0  0  0  0  0  0  0  0  0  0
  142.5740   78.9370  218.6530 C   0  0  0  0  0  0  0  0  0  0  0  0
  141.7910   77.6990  218.3600 C   0  0  2  0  0  0  0  0  0  0  0  0
  141.0550   77.2930  219.4540 O   0  0  0  0  0  0  0  0  0  0  0  0
  142.6250   76.5800  217.7810 C   0  0  0  0  0  0  0  0  0  0  0  0
  141.9050   75.2690  217.7840 C   0  0  0  0  0  0  0  0  0  0  0  0
  142.8990   74.1810  217.4370 C   0  0  0  0  0  0  0  0  0  0  0  0
  144.1830   74.7250  217.0570 N   0  0  0  0  0  0  0  0  0  0  0  0
  144.1160   75.7540  216.0650 C   0  0  0  0  0  0  0  0  0  0  0  0
  143.1220   76.8590  216.3990 C   0  0  0  0  0  0  0  0  0  0  0  0
  140.8700   74.6060  221.4550 C   0  0  0  0  0  0  0  0  0  0  0  0
  140.7090   73.2380  221.5010 C   0  0  0  0  0  0  0  0  0  0  0  0
  141.7590   72.3740  221.2000 C   0  0  0  0  0  0  0  0  0  0  0  0
  142.9950   72.8930  220.8490 C   0  0  0  0  0  0  0  0  0  0  0  0
  144.0760   72.0910  220.5410 C   0  0  0  0  0  0  0  0  0  0  0  0
  145.2690   72.6950  220.2020 C   0  0  0  0  0  0  0  0  0  0  0  0
  146.3250   71.8800  219.9010 F   0  0  0  0  0  0  0  0  0  0  0  0
  145.4300   74.0690  220.1570 C   0  0  0  0  0  0  0  0  0  0  0  0
  144.3310   74.8350  220.4700 C   0  0  0  0  0  0  0  0  0  0  0  0
  143.1190   74.2710  220.8140 C   0  0  0  0  0  0  0  0  0  0  0  0
  142.0800   75.0830  221.1110 N   0  0  0  0  0  0  0  0  0  0  0  0
  140.8500   77.2700  221.5860 H   0  0  0  0  0  0  0  0  0  0  0  0
  138.3735   78.1484  221.1853 H   0  0  0  0  0  0  0  0  0  0  0  0
  138.0369   77.1278  222.6539 H   0  0  0  0  0  0  0  0  0  0  0  0
  141.3156   78.7805  224.7227 H   0  0  0  0  0  0  0  0  0  0  0  0
  142.3221   78.4098  223.3347 H   0  0  0  0  0  0  0  0  0  0  0  0
  141.8887   81.0243  224.7703 H   0  0  0  0  0  0  0  0  0  0  0  0
  143.3369   80.4749  223.9273 H   0  0  0  0  0  0  0  0  0  0  0  0
  141.1637   82.1323  222.9116 H   0  0  0  0  0  0  0  0  0  0  0  0
  142.6275   81.6459  222.0416 H   0  0  0  0  0  0  0  0  0  0  0  0
  140.1930   80.7818  221.2141 H   0  0  0  0  0  0  0  0  0  0  0  0
  141.1500   80.5410  219.1790 H   0  0  0  0  0  0  0  0  0  0  0  0
  142.7996   79.4721  217.7188 H   0  0  0  0  0  0  0  0  0  0  0  0
  143.5300   78.6929  219.1393 H   0  0  0  0  0  0  0  0  0  0  0  0
  141.0796   77.9692  217.5657 H   0  0  0  0  0  0  0  0  0  0  0  0
  141.6570   76.9610  220.1440 H   0  0  0  0  0  0  0  0  0  0  0  0
  143.4954   76.5170  218.4507 H   0  0  0  0  0  0  0  0  0  0  0  0
  141.4797   75.0803  218.7807 H   0  0  0  0  0  0  0  0  0  0  0  0
  141.0868   75.2838  217.0489 H   0  0  0  0  0  0  0  0  0  0  0  0
  143.0339   73.5300  218.3133 H   0  0  0  0  0  0  0  0  0  0  0  0
  142.5012   73.6164  216.5809 H   0  0  0  0  0  0  0  0  0  0  0  0
  144.8290   74.9020  217.8340 H   0  0  0  0  0  0  0  0  0  0  0  0
  145.1146   76.2038  215.9625 H   0  0  0  0  0  0  0  0  0  0  0  0
  143.7723   75.2817  215.1329 H   0  0  0  0  0  0  0  0  0  0  0  0
  143.6186   77.8399  216.3647 H   0  0  0  0  0  0  0  0  0  0  0  0
  142.2937   76.8808  215.6755 H   0  0  0  0  0  0  0  0  0  0  0  0
  139.7309   72.8199  221.7813 H   0  0  0  0  0  0  0  0  0  0  0  0
  141.6080   71.2852  221.2407 H   0  0  0  0  0  0  0  0  0  0  0  0
  143.9878   70.9948  220.5654 H   0  0  0  0  0  0  0  0  0  0  0  0
  146.3920   74.5272  219.8837 H   0  0  0  0  0  0  0  0  0  0  0  0
  144.4209   75.9310  220.4454 H   0  0  0  0  0  0  0  0  0  0  0  0
  1  2  2  0
  2  3  1  0
  3  4  1  0
  4  5  1  0
  5  6  2  0
  5  7  1  0
  7  8  1  0
  8  9  1  0
  9 10  1  0
 10 11  1  0
 11 12  1  0
 12 13  2  0
 12 14  1  0
 14 15  1  0
 15 16  1  0
 16 17  1  0
 16 18  1  0
 18 19  1  0
 19 20  1  0
 20 21  1  0
 21 22  1  0
 22 23  1  0
  2 24  1  0
 24 25  2  0
 25 26  1  0
 26 27  2  0
 27 28  1  0
 28 29  2  0
 29 30  1  0
 29 31  1  0
 31 32  2  0
 32 33  1  0
 33 34  2  0
 11  7  1  0
 23 18  1  0
 34 24  1  0
 33 27  1  0
  3 35  1  0
  4 36  1  0
  4 37  1  0
  8 38  1  0
  8 39  1  0
  9 40  1  0
  9 41  1  0
 10 42  1  0
 10 43  1  0
 11 44  1  6
 14 45  1  0
 15 46  1  0
 15 47  1  0
 16 48  1  6
 17 49  1  0
 18 50  1  0
 19 51  1  0
 19 52  1  0
 20 53  1  0
 20 54  1  0
 21 55  1  0
 22 56  1  0
 22 57  1  0
 23 58  1  0
 23 59  1  0
 25 60  1  0
 26 61  1  0
 28 62  1  0
 31 63  1  0
 32 64  1  0
M  END
>  <smiles>  (16) 
O=C(NCC(=O)N1CCC[C@H]1C(=O)NCC(O)C1CCNCC1)c1ccc2cc(F)ccc2n1

>  <score_type>  (16) 
oracle

>  <origin>  (16) 
autodockgpu

>  <m_score__min__energy>  (16) 
-8.8100000000000005

>  <m_primary>  (16) 
energy

>  <meeko>  (16) 
{"free_energy": -5.75, "intermolecular_energy": -8.43, "internal_energy": -6.02, "cluster_size": 2, "cluster_id": 7, "rank_in_cluster": 2}

>  <energy>  (16) 
-6.61

>  <cluster_rmsd>  (16) 
1.33

>  <rmsd>  (16) 
269.95

>  <cluster>  (16) 
6

$$$$

     RDKit          3D

 64 67  0  0  1  0  0  0  0  0999 V2000
  141.2040   73.0630  221.4760 O   0  0  0  0  0  0  0  0  0  0  0  0
  140.2680   73.0060  222.3440 C   0  0  0  0  0  0  0  0  0  0  0  0
  139.3410   74.0650  222.3450 N   0  0  0  0  0  0  0  0  0  0  0  0
  139.4600   75.1490  221.4030 C   0  0  0  0  0  0  0  0  0  0  0  0
  139.0930   76.4540  221.9890 C   0  0  0  0  0  0  0  0  0  0  0  0
  137.9190   76.7300  222.3890 O   0  0  0  0  0  0  0  0  0  0  0  0
  140.1190   77.4340  222.1040 N   0  0  0  0  0  0  0  0  0  0  0  0
  141.1900   77.5220  223.0810 C   0  0  0  0  0  0  0  0  0  0  0  0
  141.2260   78.9760  223.4310 C   0  0  0  0  0  0  0  0  0  0  0  0
  140.6230   79.6780  222.2350 C   0  0  0  0  0  0  0  0  0  0  0  0
  140.3090   78.5930  221.2300 C   0  0  1  0  0  0  0  0  0  0  0  0
  141.4640   78.2830  220.3490 C   0  0  0  0  0  0  0  0  0  0  0  0
  142.0590   79.1200  219.6450 O   0  0  0  0  0  0  0  0  0  0  0  0
  141.9240   76.9390  220.3030 N   0  0  0  0  0  0  0  0  0  0  0  0
  143.0630   76.6800  219.4210 C   0  0  0  0  0  0  0  0  0  0  0  0
  142.8750   75.3070  218.8640 C   0  0  2  0  0  0  0  0  0  0  0  0
  141.7090   74.7290  219.3220 O   0  0  0  0  0  0  0  0  0  0  0  0
  144.0750   74.4090  219.0580 C   0  0  0  0  0  0  0  0  0  0  0  0
  144.5180   74.3450  220.4860 C   0  0  0  0  0  0  0  0  0  0  0  0
  145.8590   73.6460  220.5350 C   0  0  0  0  0  0  0  0  0  0  0  0
  146.2400   73.1150  219.2460 N   0  0  0  0  0  0  0  0  0  0  0  0
  145.2250   72.3290  218.6110 C   0  0  0  0  0  0  0  0  0  0  0  0
  143.8690   73.0190  218.5500 C   0  0  0  0  0  0  0  0  0  0  0  0
  140.1640   71.9000  223.2910 C   0  0  0  0  0  0  0  0  0  0  0  0
  139.5670   70.7180  222.9100 C   0  0  0  0  0  0  0  0  0  0  0  0
  139.4540   69.6460  223.7920 C   0  0  0  0  0  0  0  0  0  0  0  0
  139.9490   69.7630  225.0810 C   0  0  0  0  0  0  0  0  0  0  0  0
  139.8680   68.7380  226.0020 C   0  0  0  0  0  0  0  0  0  0  0  0
  140.3870   68.9430  227.2630 C   0  0  0  0  0  0  0  0  0  0  0  0
  140.2940   67.9130  228.1590 F   0  0  0  0  0  0  0  0  0  0  0  0
  140.9870   70.1310  227.6450 C   0  0  0  0  0  0  0  0  0  0  0  0
  141.0490   71.1280  226.7010 C   0  0  0  0  0  0  0  0  0  0  0  0
  140.5410   70.9640  225.4280 C   0  0  0  0  0  0  0  0  0  0  0  0
  140.6360   71.9870  224.5480 N   0  0  0  0  0  0  0  0  0  0  0  0
  138.5700   74.0250  223.0550 H   0  0  0  0  0  0  0  0  0  0  0  0
  140.5021   75.2000  221.0545 H   0  0  0  0  0  0  0  0  0  0  0  0
  138.7644   74.9484  220.5749 H   0  0  0  0  0  0  0  0  0  0  0  0
  140.9651   76.9099  223.9669 H   0  0  0  0  0  0  0  0  0  0  0  0
  142.1514   77.1502  222.6969 H   0  0  0  0  0  0  0  0  0  0  0  0
  140.6310   79.1714  224.3353 H   0  0  0  0  0  0  0  0  0  0  0  0
  142.2466   79.3255  223.6457 H   0  0  0  0  0  0  0  0  0  0  0  0
  139.7036   80.2073  222.5259 H   0  0  0  0  0  0  0  0  0  0  0  0
  141.3121   80.4269  221.8175 H   0  0  0  0  0  0  0  0  0  0  0  0
  139.4703   78.8702  220.5745 H   0  0  0  0  0  0  0  0  0  0  0  0
  141.4610   76.2120  220.8690 H   0  0  0  0  0  0  0  0  0  0  0  0
  143.0868   77.4190  218.6065 H   0  0  0  0  0  0  0  0  0  0  0  0
  144.0127   76.7559  219.9708 H   0  0  0  0  0  0  0  0  0  0  0  0
  142.7773   75.4296  217.7752 H   0  0  0  0  0  0  0  0  0  0  0  0
  141.8930   74.2240  220.1330 H   0  0  0  0  0  0  0  0  0  0  0  0
  144.8650   74.8797  218.4543 H   0  0  0  0  0  0  0  0  0  0  0  0
  144.6138   75.3629  220.8920 H   0  0  0  0  0  0  0  0  0  0  0  0
  143.7805   73.7939  221.0879 H   0  0  0  0  0  0  0  0  0  0  0  0
  146.6232   74.3663  220.8624 H   0  0  0  0  0  0  0  0  0  0  0  0
  145.7780   72.8045  221.2388 H   0  0  0  0  0  0  0  0  0  0  0  0
  146.7380   73.7700  218.6330 H   0  0  0  0  0  0  0  0  0  0  0  0
  145.5489   72.1072  217.5834 H   0  0  0  0  0  0  0  0  0  0  0  0
  145.0969   71.4186  219.2149 H   0  0  0  0  0  0  0  0  0  0  0  0
  143.5021   73.0441  217.5133 H   0  0  0  0  0  0  0  0  0  0  0  0
  143.1228   72.4820  219.1540 H   0  0  0  0  0  0  0  0  0  0  0  0
  139.1716   70.6190  221.8883 H   0  0  0  0  0  0  0  0  0  0  0  0
  138.9741   68.7111  223.4670 H   0  0  0  0  0  0  0  0  0  0  0  0
  139.3998   67.7789  225.7359 H   0  0  0  0  0  0  0  0  0  0  0  0
  141.3951   70.2703  228.6570 H   0  0  0  0  0  0  0  0  0  0  0  0
  141.5180   72.0864  226.9682 H   0  0  0  0  0  0  0  0  0  0  0  0
  1  2  2  0
  2  3  1  0
  3  4  1  0
  4  5  1  0
  5  6  2  0
  5  7  1  0
  7  8  1  0
  8  9  1  0
  9 10  1  0
 10 11  1  0
 11 12  1  0
 12 13  2  0
 12 14  1  0
 14 15  1  0
 15 16  1  0
 16 17  1  0
 16 18  1  0
 18 19  1  0
 19 20  1  0
 20 21  1  0
 21 22  1  0
 22 23  1  0
  2 24  1  0
 24 25  2  0
 25 26  1  0
 26 27  2  0
 27 28  1  0
 28 29  2  0
 29 30  1  0
 29 31  1  0
 31 32  2  0
 32 33  1  0
 33 34  2  0
 11  7  1  0
 23 18  1  0
 34 24  1  0
 33 27  1  0
  3 35  1  0
  4 36  1  0
  4 37  1  0
  8 38  1  0
  8 39  1  0
  9 40  1  0
  9 41  1  0
 10 42  1  0
 10 43  1  0
 11 44  1  6
 14 45  1  0
 15 46  1  0
 15 47  1  0
 16 48  1  6
 17 49  1  0
 18 50  1  0
 19 51  1  0
 19 52  1  0
 20 53  1  0
 20 54  1  0
 21 55  1  0
 22 56  1  0
 22 57  1  0
 23 58  1  0
 23 59  1  0
 25 60  1  0
 26 61  1  0
 28 62  1  0
 31 63  1  0
 32 64  1  0
M  END
>  <smiles>  (17) 
O=C(NCC(=O)N1CCC[C@H]1C(=O)NCC(O)C1CCNCC1)c1ccc2cc(F)ccc2n1

>  <score_type>  (17) 
oracle

>  <origin>  (17) 
autodockgpu

>  <m_score__min__energy>  (17) 
-8.8100000000000005

>  <m_primary>  (17) 
energy

>  <meeko>  (17) 
{"free_energy": -8.67, "intermolecular_energy": -11.35, "internal_energy": -3.57, "cluster_size": 5, "cluster_id": 1, "rank_in_cluster": 3}

>  <energy>  (17) 
-6.67

>  <cluster_rmsd>  (17) 
0.0

>  <rmsd>  (17) 
269.85

>  <cluster>  (17) 
7

$$$$

     RDKit          3D

 64 67  0  0  1  0  0  0  0  0999 V2000
  141.3010   72.9460  221.8390 O   0  0  0  0  0  0  0  0  0  0  0  0
  140.2390   72.7740  222.5280 C   0  0  0  0  0  0  0  0  0  0  0  0
  139.1600   73.6350  222.2540 N   0  0  0  0  0  0  0  0  0  0  0  0
  139.2700   74.6530  221.2400 C   0  0  0  0  0  0  0  0  0  0  0  0
  138.9200   75.9970  221.7440 C   0  0  0  0  0  0  0  0  0  0  0  0
  137.7490   76.3120  222.1250 O   0  0  0  0  0  0  0  0  0  0  0  0
  139.9580   76.9690  221.7970 N   0  0  0  0  0  0  0  0  0  0  0  0
  141.0690   77.0660  222.7270 C   0  0  0  0  0  0  0  0  0  0  0  0
  141.1320   78.5260  223.0470 C   0  0  0  0  0  0  0  0  0  0  0  0
  140.4860   79.2110  221.8630 C   0  0  0  0  0  0  0  0  0  0  0  0
  140.1210   78.1100  220.8940 C   0  0  1  0  0  0  0  0  0  0  0  0
  141.2350   77.7730  219.9720 C   0  0  0  0  0  0  0  0  0  0  0  0
  141.9140   78.6110  219.3490 O   0  0  0  0  0  0  0  0  0  0  0  0
  141.5530   76.3990  219.7840 N   0  0  0  0  0  0  0  0  0  0  0  0
  142.6560   76.1150  218.8670 C   0  0  0  0  0  0  0  0  0  0  0  0
  142.6740   74.6360  218.6570 C   0  0  2  0  0  0  0  0  0  0  0  0
  141.6080   74.0220  219.2830 O   0  0  0  0  0  0  0  0  0  0  0  0
  143.9940   73.9930  219.0100 C   0  0  0  0  0  0  0  0  0  0  0  0
  144.3580   74.1850  220.4490 C   0  0  0  0  0  0  0  0  0  0  0  0
  145.7930   73.7430  220.6380 C   0  0  0  0  0  0  0  0  0  0  0  0
  146.3310   73.1300  219.4450 N   0  0  0  0  0  0  0  0  0  0  0  0
  145.5020   72.1060  218.8840 C   0  0  0  0  0  0  0  0  0  0  0  0
  144.0550   72.5350  218.6840 C   0  0  0  0  0  0  0  0  0  0  0  0
  140.1470   71.7370  223.5520 C   0  0  0  0  0  0  0  0  0  0  0  0
  139.5390   70.5350  223.2650 C   0  0  0  0  0  0  0  0  0  0  0  0
  139.4370   69.5270  224.2210 C   0  0  0  0  0  0  0  0  0  0  0  0
  139.9540   69.7320  225.4910 C   0  0  0  0  0  0  0  0  0  0  0  0
  139.8850   68.7740  226.4830 C   0  0  0  0  0  0  0  0  0  0  0  0
  140.4260   69.0650  227.7180 C   0  0  0  0  0  0  0  0  0  0  0  0
  140.3450   68.1010  228.6850 F   0  0  0  0  0  0  0  0  0  0  0  0
  141.0370   70.2740  228.0050 C   0  0  0  0  0  0  0  0  0  0  0  0
  141.0870   71.2030  226.9920 C   0  0  0  0  0  0  0  0  0  0  0  0
  140.5570   70.9510  225.7420 C   0  0  0  0  0  0  0  0  0  0  0  0
  140.6400   71.9100  224.7920 N   0  0  0  0  0  0  0  0  0  0  0  0
  138.2860   73.5000  222.8160 H   0  0  0  0  0  0  0  0  0  0  0  0
  140.3065   74.6735  220.8723 H   0  0  0  0  0  0  0  0  0  0  0  0
  138.5600   74.4026  220.4380 H   0  0  0  0  0  0  0  0  0  0  0  0
  140.8758   76.4731  223.6332 H   0  0  0  0  0  0  0  0  0  0  0  0
  142.0105   76.6782  222.3108 H   0  0  0  0  0  0  0  0  0  0  0  0
  140.5765   78.7442  223.9710 H   0  0  0  0  0  0  0  0  0  0  0  0
  142.1636   78.8699  223.2128 H   0  0  0  0  0  0  0  0  0  0  0  0
  139.5843   79.7548  222.1811 H   0  0  0  0  0  0  0  0  0  0  0  0
  141.1637   79.9450  221.4027 H   0  0  0  0  0  0  0  0  0  0  0  0
  139.2575   78.3824  220.2694 H   0  0  0  0  0  0  0  0  0  0  0  0
  141.0170   75.6710  220.2800 H   0  0  0  0  0  0  0  0  0  0  0  0
  142.4945   76.6314  217.9093 H   0  0  0  0  0  0  0  0  0  0  0  0
  143.6129   76.4662  219.2805 H   0  0  0  0  0  0  0  0  0  0  0  0
  142.5566   74.4799  217.5745 H   0  0  0  0  0  0  0  0  0  0  0  0
  141.8260   73.8660  220.2190 H   0  0  0  0  0  0  0  0  0  0  0  0
  144.7265   74.5156  218.3773 H   0  0  0  0  0  0  0  0  0  0  0  0
  144.2567   75.2462  220.7201 H   0  0  0  0  0  0  0  0  0  0  0  0
  143.6905   73.5921  221.0916 H   0  0  0  0  0  0  0  0  0  0  0  0
  146.4046   74.6210  220.8932 H   0  0  0  0  0  0  0  0  0  0  0  0
  145.8154   72.9953  221.4445 H   0  0  0  0  0  0  0  0  0  0  0  0
  146.7460   73.7810  218.7690 H   0  0  0  0  0  0  0  0  0  0  0  0
  145.9177   71.8184  217.9070 H   0  0  0  0  0  0  0  0  0  0  0  0
  145.4948   71.2694  219.5982 H   0  0  0  0  0  0  0  0  0  0  0  0
  143.7495   72.3660  217.6409 H   0  0  0  0  0  0  0  0  0  0  0  0
  143.3764   71.9555  219.3272 H   0  0  0  0  0  0  0  0  0  0  0  0
  139.1252   70.3674  222.2597 H   0  0  0  0  0  0  0  0  0  0  0  0
  138.9490   68.5737  223.9697 H   0  0  0  0  0  0  0  0  0  0  0  0
  139.4093   67.8006  226.2927 H   0  0  0  0  0  0  0  0  0  0  0  0
  141.4629   70.4819  228.9977 H   0  0  0  0  0  0  0  0  0  0  0  0
  141.5634   72.1758  227.1833 H   0  0  0  0  0  0  0  0  0  0  0  0
  1  2  2  0
  2  3  1  0
  3  4  1  0
  4  5  1  0
  5  6  2  0
  5  7  1  0
  7  8  1  0
  8  9  1  0
  9 10  1  0
 10 11  1  0
 11 12  1  0
 12 13  2  0
 12 14  1  0
 14 15  1  0
 15 16  1  0
 16 17  1  0
 16 18  1  0
 18 19  1  0
 19 20  1  0
 20 21  1  0
 21 22  1  0
 22 23  1  0
  2 24  1  0
 24 25  2  0
 25 26  1  0
 26 27  2  0
 27 28  1  0
 28 29  2  0
 29 30  1  0
 29 31  1  0
 31 32  2  0
 32 33  1  0
 33 34  2  0
 11  7  1  0
 23 18  1  0
 34 24  1  0
 33 27  1  0
  3 35  1  0
  4 36  1  0
  4 37  1  0
  8 38  1  0
  8 39  1  0
  9 40  1  0
  9 41  1  0
 10 42  1  0
 10 43  1  0
 11 44  1  6
 14 45  1  0
 15 46  1  0
 15 47  1  0
 16 48  1  6
 17 49  1  0
 18 50  1  0
 19 51  1  0
 19 52  1  0
 20 53  1  0
 20 54  1  0
 21 55  1  0
 22 56  1  0
 22 57  1  0
 23 58  1  0
 23 59  1  0
 25 60  1  0
 26 61  1  0
 28 62  1  0
 31 63  1  0
 32 64  1  0
M  END
>  <smiles>  (18) 
O=C(NCC(=O)N1CCC[C@H]1C(=O)NCC(O)C1CCNCC1)c1ccc2cc(F)ccc2n1

>  <score_type>  (18) 
oracle

>  <origin>  (18) 
autodockgpu

>  <m_score__min__energy>  (18) 
-8.8100000000000005

>  <m_primary>  (18) 
energy

>  <meeko>  (18) 
{"free_energy": -8.47, "intermolecular_energy": -11.15, "internal_energy": -3.62, "cluster_size": 5, "cluster_id": 1, "rank_in_cluster": 5}

>  <energy>  (18) 
-5.75

>  <cluster_rmsd>  (18) 
1.45

>  <rmsd>  (18) 
269.94

>  <cluster>  (18) 
7

$$$$

     RDKit          3D

 64 67  0  0  1  0  0  0  0  0999 V2000
  141.3150   72.3730  221.5640 O   0  0  0  0  0  0  0  0  0  0  0  0
  140.3350   72.4590  222.3800 C   0  0  0  0  0  0  0  0  0  0  0  0
  139.3820   73.4610  222.1180 N   0  0  0  0  0  0  0  0  0  0  0  0
  139.5240   74.3340  220.9810 C   0  0  0  0  0  0  0  0  0  0  0  0
  140.3490   75.5230  221.2770 C   0  0  0  0  0  0  0  0  0  0  0  0
  141.0770   75.6220  222.3140 O   0  0  0  0  0  0  0  0  0  0  0  0
  140.3120   76.5970  220.3440 N   0  0  0  0  0  0  0  0  0  0  0  0
  139.1800   77.4090  219.9340 C   0  0  0  0  0  0  0  0  0  0  0  0
  139.3530   77.5260  218.4520 C   0  0  0  0  0  0  0  0  0  0  0  0
  140.8300   77.3070  218.2150 C   0  0  0  0  0  0  0  0  0  0  0  0
  141.4470   77.1180  219.5810 C   0  0  1  0  0  0  0  0  0  0  0  0
  141.8350   78.4060  220.2110 C   0  0  0  0  0  0  0  0  0  0  0  0
  141.9110   79.4920  219.6080 O   0  0  0  0  0  0  0  0  0  0  0  0
  142.1410   78.4020  221.6000 N   0  0  0  0  0  0  0  0  0  0  0  0
  142.5180   79.6920  222.1780 C   0  0  0  0  0  0  0  0  0  0  0  0
  141.8320   79.7900  223.5010 C   0  0  2  0  0  0  0  0  0  0  0  0
  141.8640   78.5880  224.1800 O   0  0  0  0  0  0  0  0  0  0  0  0
  140.4370   80.3640  223.4170 C   0  0  0  0  0  0  0  0  0  0  0  0
  140.2420   81.2160  222.2020 C   0  0  0  0  0  0  0  0  0  0  0  0
  138.9230   81.9450  222.3420 C   0  0  0  0  0  0  0  0  0  0  0  0
  138.1790   81.5000  223.4980 N   0  0  0  0  0  0  0  0  0  0  0  0
  138.0420   80.0780  223.5970 C   0  0  0  0  0  0  0  0  0  0  0  0
  139.3610   79.3280  223.4620 C   0  0  0  0  0  0  0  0  0  0  0  0
  140.2090   71.5650  223.5270 C   0  0  0  0  0  0  0  0  0  0  0  0
  139.5900   70.3430  223.3850 C   0  0  0  0  0  0  0  0  0  0  0  0
  139.4550   69.4700  224.4620 C   0  0  0  0  0  0  0  0  0  0  0  0
  139.9500   69.8320  225.7050 C   0  0  0  0  0  0  0  0  0  0  0  0
  139.8490   69.0120  226.8110 C   0  0  0  0  0  0  0  0  0  0  0  0
  140.3700   69.4540  228.0090 C   0  0  0  0  0  0  0  0  0  0  0  0
  140.2570   68.6250  229.0910 F   0  0  0  0  0  0  0  0  0  0  0  0
  140.9920   70.6840  228.1500 C   0  0  0  0  0  0  0  0  0  0  0  0
  141.0740   71.4720  227.0270 C   0  0  0  0  0  0  0  0  0  0  0  0
  140.5650   71.0660  225.8090 C   0  0  0  0  0  0  0  0  0  0  0  0
  140.6800   71.8920  224.7440 N   0  0  0  0  0  0  0  0  0  0  0  0
  138.5740   73.5380  222.7840 H   0  0  0  0  0  0  0  0  0  0  0  0
  139.9971   73.7720  220.1623 H   0  0  0  0  0  0  0  0  0  0  0  0
  138.5194   74.6862  220.7040 H   0  0  0  0  0  0  0  0  0  0  0  0
  138.2300   76.9126  220.1810 H   0  0  0  0  0  0  0  0  0  0  0  0
  139.1471   78.3851  220.4401 H   0  0  0  0  0  0  0  0  0  0  0  0
  138.7596   76.7600  217.9313 H   0  0  0  0  0  0  0  0  0  0  0  0
  139.0120   78.4998  218.0706 H   0  0  0  0  0  0  0  0  0  0  0  0
  140.9892   76.4115  217.5964 H   0  0  0  0  0  0  0  0  0  0  0  0
  141.2830   78.1560  217.6821 H   0  0  0  0  0  0  0  0  0  0  0  0
  142.3520   76.4940  219.5405 H   0  0  0  0  0  0  0  0  0  0  0  0
  142.0900   77.5240  222.1400 H   0  0  0  0  0  0  0  0  0  0  0  0
  143.6086   79.7423  222.3124 H   0  0  0  0  0  0  0  0  0  0  0  0
  142.2226   80.5212  221.5182 H   0  0  0  0  0  0  0  0  0  0  0  0
  142.4092   80.5181  224.0898 H   0  0  0  0  0  0  0  0  0  0  0  0
  142.2120   77.8930  223.5930 H   0  0  0  0  0  0  0  0  0  0  0  0
  140.3464   80.9891  224.3176 H   0  0  0  0  0  0  0  0  0  0  0  0
  141.0630   81.9438  222.1219 H   0  0  0  0  0  0  0  0  0  0  0  0
  140.2364   80.5911  221.2968 H   0  0  0  0  0  0  0  0  0  0  0  0
  139.1214   83.0225  222.4405 H   0  0  0  0  0  0  0  0  0  0  0  0
  138.3201   81.7317  221.4470 H   0  0  0  0  0  0  0  0  0  0  0  0
  138.4030   81.9830  224.3750 H   0  0  0  0  0  0  0  0  0  0  0  0
  137.6042   79.8381  224.5772 H   0  0  0  0  0  0  0  0  0  0  0  0
  137.4010   79.7566  222.7628 H   0  0  0  0  0  0  0  0  0  0  0  0
  139.5099   78.6631  224.3255 H   0  0  0  0  0  0  0  0  0  0  0  0
  139.3722   78.7040  222.5562 H   0  0  0  0  0  0  0  0  0  0  0  0
  139.1942   70.0505  222.4012 H   0  0  0  0  0  0  0  0  0  0  0  0
  138.9580   68.4981  224.3267 H   0  0  0  0  0  0  0  0  0  0  0  0
  139.3636   68.0276  226.7383 H   0  0  0  0  0  0  0  0  0  0  0  0
  141.4013   71.0145  229.1161 H   0  0  0  0  0  0  0  0  0  0  0  0
  141.5599   72.4561  227.1005 H   0  0  0  0  0  0  0  0  0  0  0  0
  1  2  2  0
  2  3  1  0
  3  4  1  0
  4  5  1  0
  5  6  2  0
  5  7  1  0
  7  8  1  0
  8  9  1  0
  9 10  1  0
 10 11  1  0
 11 12  1  0
 12 13  2  0
 12 14  1  0
 14 15  1  0
 15 16  1  0
 16 17  1  0
 16 18  1  0
 18 19  1  0
 19 20  1  0
 20 21  1  0
 21 22  1  0
 22 23  1  0
  2 24  1  0
 24 25  2  0
 25 26  1  0
 26 27  2  0
 27 28  1  0
 28 29  2  0
 29 30  1  0
 29 31  1  0
 31 32  2  0
 32 33  1  0
 33 34  2  0
 11  7  1  0
 23 18  1  0
 34 24  1  0
 33 27  1  0
  3 35  1  0
  4 36  1  0
  4 37  1  0
  8 38  1  0
  8 39  1  0
  9 40  1  0
  9 41  1  0
 10 42  1  0
 10 43  1  0
 11 44  1  6
 14 45  1  0
 15 46  1  0
 15 47  1  0
 16 48  1  1
 17 49  1  0
 18 50  1  0
 19 51  1  0
 19 52  1  0
 20 53  1  0
 20 54  1  0
 21 55  1  0
 22 56  1  0
 22 57  1  0
 23 58  1  0
 23 59  1  0
 25 60  1  0
 26 61  1  0
 28 62  1  0
 31 63  1  0
 32 64  1  0
M  END
>  <smiles>  (19) 
O=C(NCC(=O)N1CCC[C@H]1C(=O)NCC(O)C1CCNCC1)c1ccc2cc(F)ccc2n1

>  <score_type>  (19) 
oracle

>  <origin>  (19) 
autodockgpu

>  <m_score__min__energy>  (19) 
-8.8100000000000005

>  <m_primary>  (19) 
energy

>  <meeko>  (19) 
{"free_energy": -8.26, "intermolecular_energy": -10.95, "internal_energy": -3.45, "cluster_size": 2, "cluster_id": 2, "rank_in_cluster": 1}

>  <energy>  (19) 
-6.17

>  <cluster_rmsd>  (19) 
0.0

>  <rmsd>  (19) 
269.7

>  <cluster>  (19) 
8

$$$$

     RDKit          3D

 64 67  0  0  1  0  0  0  0  0999 V2000
  139.5630   74.2320  222.4010 O   0  0  0  0  0  0  0  0  0  0  0  0
  139.9840   75.1690  221.6410 C   0  0  0  0  0  0  0  0  0  0  0  0
  140.3020   74.8130  220.3170 N   0  0  0  0  0  0  0  0  0  0  0  0
  140.1530   73.4540  219.8630 C   0  0  0  0  0  0  0  0  0  0  0  0
  141.1600   72.5460  220.4490 C   0  0  0  0  0  0  0  0  0  0  0  0
  140.8650   71.6110  221.2570 O   0  0  0  0  0  0  0  0  0  0  0  0
  142.5190   72.7450  220.0760 N   0  0  0  0  0  0  0  0  0  0  0  0
  143.3040   72.0350  219.0820 C   0  0  0  0  0  0  0  0  0  0  0  0
  144.6250   71.8340  219.7570 C   0  0  0  0  0  0  0  0  0  0  0  0
  144.6990   72.9300  220.7970 C   0  0  0  0  0  0  0  0  0  0  0  0
  143.4330   73.7400  220.6390 C   0  0  1  0  0  0  0  0  0  0  0  0
  143.5720   74.8190  219.6280 C   0  0  0  0  0  0  0  0  0  0  0  0
  144.1230   74.6810  218.5200 O   0  0  0  0  0  0  0  0  0  0  0  0
  143.0390   76.0990  219.9430 N   0  0  0  0  0  0  0  0  0  0  0  0
  143.1980   77.1300  218.9170 C   0  0  0  0  0  0  0  0  0  0  0  0
  142.1970   78.1970  219.2170 C   0  0  2  0  0  0  0  0  0  0  0  0
  140.9380   77.6690  219.4190 O   0  0  0  0  0  0  0  0  0  0  0  0
  142.1930   79.3220  218.2080 C   0  0  0  0  0  0  0  0  0  0  0  0
  141.0370   79.2370  217.2610 C   0  0  0  0  0  0  0  0  0  0  0  0
  141.2640   80.2350  216.1460 C   0  0  0  0  0  0  0  0  0  0  0  0
  142.4170   81.0700  216.3950 N   0  0  0  0  0  0  0  0  0  0  0  0
  142.4380   81.6720  217.6940 C   0  0  0  0  0  0  0  0  0  0  0  0
  142.2150   80.6810  218.8280 C   0  0  0  0  0  0  0  0  0  0  0  0
  140.1280   76.5410  222.1190 C   0  0  0  0  0  0  0  0  0  0  0  0
  139.0260   77.2370  222.5640 C   0  0  0  0  0  0  0  0  0  0  0  0
  139.1350   78.5470  223.0270 C   0  0  0  0  0  0  0  0  0  0  0  0
  140.3730   79.1690  223.0390 C   0  0  0  0  0  0  0  0  0  0  0  0
  140.5470   80.4640  223.4850 C   0  0  0  0  0  0  0  0  0  0  0  0
  141.8160   81.0040  223.4610 C   0  0  0  0  0  0  0  0  0  0  0  0
  141.9640   82.2890  223.9060 F   0  0  0  0  0  0  0  0  0  0  0  0
  142.9230   80.3030  223.0130 C   0  0  0  0  0  0  0  0  0  0  0  0
  142.7100   79.0160  222.5780 C   0  0  0  0  0  0  0  0  0  0  0  0
  141.4560   78.4390  222.5840 C   0  0  0  0  0  0  0  0  0  0  0  0
  141.3180   77.1680  222.1420 N   0  0  0  0  0  0  0  0  0  0  0  0
  140.6480   75.5770  219.6870 H   0  0  0  0  0  0  0  0  0  0  0  0
  139.1510   73.0968  220.1431 H   0  0  0  0  0  0  0  0  0  0  0  0
  140.2949   73.4496  218.7722 H   0  0  0  0  0  0  0  0  0  0  0  0
  142.8400   71.0698  218.8309 H   0  0  0  0  0  0  0  0  0  0  0  0
  143.3878   72.5826  218.1317 H   0  0  0  0  0  0  0  0  0  0  0  0
  144.6696   70.8438  220.2339 H   0  0  0  0  0  0  0  0  0  0  0  0
  145.4645   71.8778  219.0475 H   0  0  0  0  0  0  0  0  0  0  0  0
  144.7517   72.4962  221.8064 H   0  0  0  0  0  0  0  0  0  0  0  0
  145.5955   73.5531  220.6627 H   0  0  0  0  0  0  0  0  0  0  0  0
  143.1319   74.2201  221.5818 H   0  0  0  0  0  0  0  0  0  0  0  0
  142.5740   76.2590  220.8490 H   0  0  0  0  0  0  0  0  0  0  0  0
  144.2160   77.5453  218.9524 H   0  0  0  0  0  0  0  0  0  0  0  0
  143.0403   76.7130  217.9114 H   0  0  0  0  0  0  0  0  0  0  0  0
  142.5174   78.6587  220.1626 H   0  0  0  0  0  0  0  0  0  0  0  0
  140.5930   77.9700  220.2780 H   0  0  0  0  0  0  0  0  0  0  0  0
  143.1307   79.1873  217.6490 H   0  0  0  0  0  0  0  0  0  0  0  0
  140.9714   78.2213  216.8438 H   0  0  0  0  0  0  0  0  0  0  0  0
  140.0977   79.4626  217.7872 H   0  0  0  0  0  0  0  0  0  0  0  0
  141.4186   79.6872  215.2047 H   0  0  0  0  0  0  0  0  0  0  0  0
  140.3791   80.8857  216.0862 H   0  0  0  0  0  0  0  0  0  0  0  0
  143.3120   80.6860  216.0720 H   0  0  0  0  0  0  0  0  0  0  0  0
  143.4170   82.1522  217.8391 H   0  0  0  0  0  0  0  0  0  0  0  0
  141.6090   82.3941  217.7286 H   0  0  0  0  0  0  0  0  0  0  0  0
  143.0331   80.7512  219.5600 H   0  0  0  0  0  0  0  0  0  0  0  0
  141.2747   80.8904  219.3591 H   0  0  0  0  0  0  0  0  0  0  0  0
  138.0401   76.7492  222.5538 H   0  0  0  0  0  0  0  0  0  0  0  0
  138.2428   79.0843  223.3810 H   0  0  0  0  0  0  0  0  0  0  0  0
  139.6926   81.0520  223.8513 H   0  0  0  0  0  0  0  0  0  0  0  0
  143.9260   80.7546  223.0054 H   0  0  0  0  0  0  0  0  0  0  0  0
  143.5654   78.4280  222.2140 H   0  0  0  0  0  0  0  0  0  0  0  0
  1  2  2  0
  2  3  1  0
  3  4  1  0
  4  5  1  0
  5  6  2  0
  5  7  1  0
  7  8  1  0
  8  9  1  0
  9 10  1  0
 10 11  1  0
 11 12  1  0
 12 13  2  0
 12 14  1  0
 14 15  1  0
 15 16  1  0
 16 17  1  0
 16 18  1  0
 18 19  1  0
 19 20  1  0
 20 21  1  0
 21 22  1  0
 22 23  1  0
  2 24  1  0
 24 25  2  0
 25 26  1  0
 26 27  2  0
 27 28  1  0
 28 29  2  0
 29 30  1  0
 29 31  1  0
 31 32  2  0
 32 33  1  0
 33 34  2  0
 11  7  1  0
 23 18  1  0
 34 24  1  0
 33 27  1  0
  3 35  1  0
  4 36  1  0
  4 37  1  0
  8 38  1  0
  8 39  1  0
  9 40  1  0
  9 41  1  0
 10 42  1  0
 10 43  1  0
 11 44  1  1
 14 45  1  0
 15 46  1  0
 15 47  1  0
 16 48  1  1
 17 49  1  0
 18 50  1  0
 19 51  1  0
 19 52  1  0
 20 53  1  0
 20 54  1  0
 21 55  1  0
 22 56  1  0
 22 57  1  0
 23 58  1  0
 23 59  1  0
 25 60  1  0
 26 61  1  0
 28 62  1  0
 31 63  1  0
 32 64  1  0
M  END
>  <smiles>  (20) 
O=C(NCC(=O)N1CCC[C@H]1C(=O)NCC(O)C1CCNCC1)c1ccc2cc(F)ccc2n1

>  <score_type>  (20) 
oracle

>  <origin>  (20) 
autodockgpu

>  <m_score__min__energy>  (20) 
-8.8100000000000005

>  <m_primary>  (20) 
energy

>  <meeko>  (20) 
{"free_energy": -6.61, "intermolecular_energy": -9.29, "internal_energy": -5.18, "cluster_size": 3, "cluster_id": 6, "rank_in_cluster": 3}

>  <energy>  (20) 
-5.74

>  <cluster_rmsd>  (20) 
0.0

>  <rmsd>  (20) 
269.84

>  <cluster>  (20) 
9

$$$$

     RDKit          3D

 64 67  0  0  1  0  0  0  0  0999 V2000
  139.4520   71.3630  221.4910 O   0  0  0  0  0  0  0  0  0  0  0  0
  138.8800   71.6420  222.5760 C   0  0  0  0  0  0  0  0  0  0  0  0
  137.7000   72.4460  222.6020 N   0  0  0  0  0  0  0  0  0  0  0  0
  137.1510   72.9490  221.3820 C   0  0  0  0  0  0  0  0  0  0  0  0
  137.8760   74.1840  220.9170 C   0  0  0  0  0  0  0  0  0  0  0  0
  138.6080   74.0110  219.8940 O   0  0  0  0  0  0  0  0  0  0  0  0
  137.7450   75.4290  221.5770 N   0  0  0  0  0  0  0  0  0  0  0  0
  136.5710   75.7600  222.4020 C   0  0  0  0  0  0  0  0  0  0  0  0
  136.7850   77.2490  222.7270 C   0  0  0  0  0  0  0  0  0  0  0  0
  138.2930   77.3630  222.7220 C   0  0  0  0  0  0  0  0  0  0  0  0
  138.6740   76.5010  221.5420 C   0  0  1  0  0  0  0  0  0  0  0  0
  140.0840   76.0880  221.7760 C   0  0  0  0  0  0  0  0  0  0  0  0
  140.8030   76.5470  222.6930 O   0  0  0  0  0  0  0  0  0  0  0  0
  140.6820   75.1140  220.9230 N   0  0  0  0  0  0  0  0  0  0  0  0
  142.0400   74.7460  221.1840 C   0  0  0  0  0  0  0  0  0  0  0  0
  142.3460   73.4220  220.5730 C   0  0  1  0  0  0  0  0  0  0  0  0
  141.2610   72.8840  219.8760 O   0  0  0  0  0  0  0  0  0  0  0  0
  143.6590   73.2920  219.8850 C   0  0  0  0  0  0  0  0  0  0  0  0
  144.1940   71.9130  219.7860 C   0  0  0  0  0  0  0  0  0  0  0  0
  145.5700   71.8520  219.1630 C   0  0  0  0  0  0  0  0  0  0  0  0
  146.3020   73.0890  219.3400 N   0  0  0  0  0  0  0  0  0  0  0  0
  146.0150   73.6340  220.6450 C   0  0  0  0  0  0  0  0  0  0  0  0
  144.6230   74.2570  220.5470 C   0  0  0  0  0  0  0  0  0  0  0  0
  139.4370   71.1300  223.8430 C   0  0  0  0  0  0  0  0  0  0  0  0
  140.3510   71.8820  224.5320 C   0  0  0  0  0  0  0  0  0  0  0  0
  140.9300   71.4950  225.7240 C   0  0  0  0  0  0  0  0  0  0  0  0
  140.5360   70.2610  226.2210 C   0  0  0  0  0  0  0  0  0  0  0  0
  141.0990   69.8600  227.4020 C   0  0  0  0  0  0  0  0  0  0  0  0
  140.7250   68.6380  227.9210 C   0  0  0  0  0  0  0  0  0  0  0  0
  141.2880   68.2590  229.0830 F   0  0  0  0  0  0  0  0  0  0  0  0
  139.7970   67.8430  227.2520 C   0  0  0  0  0  0  0  0  0  0  0  0
  139.2530   68.2960  226.0540 C   0  0  0  0  0  0  0  0  0  0  0  0
  139.6150   69.5260  225.5100 C   0  0  0  0  0  0  0  0  0  0  0  0
  139.0730   69.9440  224.3470 N   0  0  0  0  0  0  0  0  0  0  0  0
  137.2470   72.6580  223.5380 H   0  0  0  0  0  0  0  0  0  0  0  0
  137.2334   72.1732  220.6066 H   0  0  0  0  0  0  0  0  0  0  0  0
  136.0986   73.2142  221.5612 H   0  0  0  0  0  0  0  0  0  0  0  0
  135.6375   75.6081  221.8402 H   0  0  0  0  0  0  0  0  0  0  0  0
  136.4796   75.1294  223.2986 H   0  0  0  0  0  0  0  0  0  0  0  0
  136.3336   77.8939  221.9587 H   0  0  0  0  0  0  0  0  0  0  0  0
  136.3212   77.5658  223.6728 H   0  0  0  0  0  0  0  0  0  0  0  0
  138.6138   78.4049  222.5749 H   0  0  0  0  0  0  0  0  0  0  0  0
  138.7626   77.0512  223.6666 H   0  0  0  0  0  0  0  0  0  0  0  0
  138.6321   76.9766  220.5510 H   0  0  0  0  0  0  0  0  0  0  0  0
  140.0750   74.7340  220.1690 H   0  0  0  0  0  0  0  0  0  0  0  0
  142.7101   75.5062  220.7562 H   0  0  0  0  0  0  0  0  0  0  0  0
  142.1890   74.6799  222.2719 H   0  0  0  0  0  0  0  0  0  0  0  0
  142.5028   72.7658  221.4418 H   0  0  0  0  0  0  0  0  0  0  0  0
  140.4140   72.9230  220.3460 H   0  0  0  0  0  0  0  0  0  0  0  0
  143.5136   73.5544  218.8267 H   0  0  0  0  0  0  0  0  0  0  0  0
  144.2491   71.4858  220.7981 H   0  0  0  0  0  0  0  0  0  0  0  0
  143.5143   71.3444  219.1343 H   0  0  0  0  0  0  0  0  0  0  0  0
  146.1363   71.0342  219.6325 H   0  0  0  0  0  0  0  0  0  0  0  0
  145.4464   71.6823  218.0832 H   0  0  0  0  0  0  0  0  0  0  0  0
  146.0940   73.7730  218.5820 H   0  0  0  0  0  0  0  0  0  0  0  0
  146.0238   72.8362  221.4023 H   0  0  0  0  0  0  0  0  0  0  0  0
  146.7681   74.3777  220.9445 H   0  0  0  0  0  0  0  0  0  0  0  0
  144.2605   74.4957  221.5577 H   0  0  0  0  0  0  0  0  0  0  0  0
  144.6834   75.1735  219.9417 H   0  0  0  0  0  0  0  0  0  0  0  0
  140.6419   72.8550  224.1093 H   0  0  0  0  0  0  0  0  0  0  0  0
  141.6608   72.1278  226.2489 H   0  0  0  0  0  0  0  0  0  0  0  0
  141.8302   70.4952  227.9234 H   0  0  0  0  0  0  0  0  0  0  0  0
  139.4978   66.8687  227.6659 H   0  0  0  0  0  0  0  0  0  0  0  0
  138.5207   67.6686  225.5248 H   0  0  0  0  0  0  0  0  0  0  0  0
  1  2  2  0
  2  3  1  0
  3  4  1  0
  4  5  1  0
  5  6  2  0
  5  7  1  0
  7  8  1  0
  8  9  1  0
  9 10  1  0
 10 11  1  0
 11 12  1  0
 12 13  2  0
 12 14  1  0
 14 15  1  0
 15 16  1  0
 16 17  1  0
 16 18  1  0
 18 19  1  0
 19 20  1  0
 20 21  1  0
 21 22  1  0
 22 23  1  0
  2 24  1  0
 24 25  2  0
 25 26  1  0
 26 27  2  0
 27 28  1  0
 28 29  2  0
 29 30  1  0
 29 31  1  0
 31 32  2  0
 32 33  1  0
 33 34  2  0
 11  7  1  0
 23 18  1  0
 34 24  1  0
 33 27  1  0
  3 35  1  0
  4 36  1  0
  4 37  1  0
  8 38  1  0
  8 39  1  0
  9 40  1  0
  9 41  1  0
 10 42  1  0
 10 43  1  0
 11 44  1  6
 14 45  1  0
 15 46  1  0
 15 47  1  0
 16 48  1  1
 17 49  1  0
 18 50  1  0
 19 51  1  0
 19 52  1  0
 20 53  1  0
 20 54  1  0
 21 55  1  0
 22 56  1  0
 22 57  1  0
 23 58  1  0
 23 59  1  0
 25 60  1  0
 26 61  1  0
 28 62  1  0
 31 63  1  0
 32 64  1  0
M  END
>  <smiles>  (21) 
O=C(NCC(=O)N1CCC[C@H]1C(=O)NCC(O)C1CCNCC1)c1ccc2cc(F)ccc2n1

>  <score_type>  (21) 
oracle

>  <origin>  (21) 
autodockgpu

>  <m_score__min__energy>  (21) 
-8.9299999999999997

>  <m_primary>  (21) 
energy

>  <meeko>  (21) 
{"free_energy": -8.02, "intermolecular_energy": -10.7, "internal_energy": -4.67, "cluster_size": 7, "cluster_id": 3, "rank_in_cluster": 3}

>  <energy>  (21) 
-8.93

>  <cluster_rmsd>  (21) 
0.0

>  <rmsd>  (21) 
270.9

>  <cluster>  (21) 
1

$$$$

     RDKit          3D

 64 67  0  0  1  0  0  0  0  0999 V2000
  140.6650   72.0700  222.1260 O   0  0  0  0  0  0  0  0  0  0  0  0
  139.7590   71.8970  222.9810 C   0  0  0  0  0  0  0  0  0  0  0  0
  138.4270   72.3560  222.7470 N   0  0  0  0  0  0  0  0  0  0  0  0
  138.1050   73.0240  221.5250 C   0  0  0  0  0  0  0  0  0  0  0  0
  138.5110   74.4740  221.5650 C   0  0  0  0  0  0  0  0  0  0  0  0
  139.5010   74.7220  222.3200 O   0  0  0  0  0  0  0  0  0  0  0  0
  137.8360   75.4670  220.8180 N   0  0  0  0  0  0  0  0  0  0  0  0
  136.5830   76.0860  221.2860 C   0  0  0  0  0  0  0  0  0  0  0  0
  136.1400   76.9270  220.0760 C   0  0  0  0  0  0  0  0  0  0  0  0
  137.4610   77.2820  219.4330 C   0  0  0  0  0  0  0  0  0  0  0  0
  138.2350   75.9920  219.5620 C   0  0  1  0  0  0  0  0  0  0  0  0
  139.6730   76.3690  219.4930 C   0  0  0  0  0  0  0  0  0  0  0  0
  140.0860   77.4650  219.0500 O   0  0  0  0  0  0  0  0  0  0  0  0
  140.6640   75.4500  219.9500 N   0  0  0  0  0  0  0  0  0  0  0  0
  142.0340   75.8540  219.8660 C   0  0  0  0  0  0  0  0  0  0  0  0
  142.9150   74.8350  220.5010 C   0  0  1  0  0  0  0  0  0  0  0  0
  142.1990   73.7810  221.0750 O   0  0  0  0  0  0  0  0  0  0  0  0
  144.1230   74.4250  219.7330 C   0  0  0  0  0  0  0  0  0  0  0  0
  143.8890   73.4320  218.6570 C   0  0  0  0  0  0  0  0  0  0  0  0
  145.1610   72.9840  217.9750 C   0  0  0  0  0  0  0  0  0  0  0  0
  146.3170   73.1200  218.8370 N   0  0  0  0  0  0  0  0  0  0  0  0
  145.9490   72.7820  220.1910 C   0  0  0  0  0  0  0  0  0  0  0  0
  145.1750   73.9840  220.7310 C   0  0  0  0  0  0  0  0  0  0  0  0
  140.0770   71.2100  224.2480 C   0  0  0  0  0  0  0  0  0  0  0  0
  140.7350   71.8890  225.2390 C   0  0  0  0  0  0  0  0  0  0  0  0
  141.0780   71.3390  226.4580 C   0  0  0  0  0  0  0  0  0  0  0  0
  140.7160   70.0130  226.6520 C   0  0  0  0  0  0  0  0  0  0  0  0
  141.0480   69.4510  227.8540 C   0  0  0  0  0  0  0  0  0  0  0  0
  140.7000   68.1330  228.0760 C   0  0  0  0  0  0  0  0  0  0  0  0
  141.0330   67.5960  229.2640 F   0  0  0  0  0  0  0  0  0  0  0  0
  140.0290   67.4080  227.0940 C   0  0  0  0  0  0  0  0  0  0  0  0
  139.7140   68.0270  225.8880 C   0  0  0  0  0  0  0  0  0  0  0  0
  140.0550   69.3540  225.6410 C   0  0  0  0  0  0  0  0  0  0  0  0
  139.7380   69.9320  224.4630 N   0  0  0  0  0  0  0  0  0  0  0  0
  137.6900   72.1900  223.4940 H   0  0  0  0  0  0  0  0  0  0  0  0
  138.6322   72.5279  220.6968 H   0  0  0  0  0  0  0  0  0  0  0  0
  137.0156   72.9745  221.3812 H   0  0  0  0  0  0  0  0  0  0  0  0
  135.8319   75.3210  221.5321 H   0  0  0  0  0  0  0  0  0  0  0  0
  136.7087   76.6792  222.2038 H   0  0  0  0  0  0  0  0  0  0  0  0
  135.5085   76.3405  219.3924 H   0  0  0  0  0  0  0  0  0  0  0  0
  135.5310   77.8023  220.3459 H   0  0  0  0  0  0  0  0  0  0  0  0
  137.3282   77.5637  218.3780 H   0  0  0  0  0  0  0  0  0  0  0  0
  137.9605   78.1451  219.8973 H   0  0  0  0  0  0  0  0  0  0  0  0
  138.0575   75.2326  218.7862 H   0  0  0  0  0  0  0  0  0  0  0  0
  140.3100   74.5460  220.3230 H   0  0  0  0  0  0  0  0  0  0  0  0
  142.3144   75.9672  218.8084 H   0  0  0  0  0  0  0  0  0  0  0  0
  142.1570   76.8112  220.3939 H   0  0  0  0  0  0  0  0  0  0  0  0
  143.3761   75.3791  221.3385 H   0  0  0  0  0  0  0  0  0  0  0  0
  141.3960   74.0440  221.5500 H   0  0  0  0  0  0  0  0  0  0  0  0
  144.4731   75.2975  219.1619 H   0  0  0  0  0  0  0  0  0  0  0  0
  143.3979   72.5506  219.0951 H   0  0  0  0  0  0  0  0  0  0  0  0
  143.2621   73.9172  217.8944 H   0  0  0  0  0  0  0  0  0  0  0  0
  145.0559   71.9278  217.6863 H   0  0  0  0  0  0  0  0  0  0  0  0
  145.3173   73.6242  217.0943 H   0  0  0  0  0  0  0  0  0  0  0  0
  146.7340   74.0720  218.7780 H   0  0  0  0  0  0  0  0  0  0  0  0
  145.3148   71.8833  220.2015 H   0  0  0  0  0  0  0  0  0  0  0  0
  146.8345   72.5642  220.8062 H   0  0  0  0  0  0  0  0  0  0  0  0
  144.6847   73.7052  221.6754 H   0  0  0  0  0  0  0  0  0  0  0  0
  145.8767   74.8139  220.9008 H   0  0  0  0  0  0  0  0  0  0  0  0
  141.0072   72.9382  225.0519 H   0  0  0  0  0  0  0  0  0  0  0  0
  141.6069   71.9174  227.2299 H   0  0  0  0  0  0  0  0  0  0  0  0
  141.5776   70.0328  228.6228 H   0  0  0  0  0  0  0  0  0  0  0  0
  139.7513   66.3582  227.2697 H   0  0  0  0  0  0  0  0  0  0  0  0
  139.1837   67.4549  225.1125 H   0  0  0  0  0  0  0  0  0  0  0  0
  1  2  2  0
  2  3  1  0
  3  4  1  0
  4  5  1  0
  5  6  2  0
  5  7  1  0
  7  8  1  0
  8  9  1  0
  9 10  1  0
 10 11  1  0
 11 12  1  0
 12 13  2  0
 12 14  1  0
 14 15  1  0
 15 16  1  0
 16 17  1  0
 16 18  1  0
 18 19  1  0
 19 20  1  0
 20 21  1  0
 21 22  1  0
 22 23  1  0
  2 24  1  0
 24 25  2  0
 25 26  1  0
 26 27  2  0
 27 28  1  0
 28 29  2  0
 29 30  1  0
 29 31  1  0
 31 32  2  0
 32 33  1  0
 33 34  2  0
 11  7  1  0
 23 18  1  0
 34 24  1  0
 33 27  1  0
  3 35  1  0
  4 36  1  0
  4 37  1  0
  8 38  1  0
  8 39  1  0
  9 40  1  0
  9 41  1  0
 10 42  1  0
 10 43  1  0
 11 44  1  6
 14 45  1  0
 15 46  1  0
 15 47  1  0
 16 48  1  1
 17 49  1  0
 18 50  1  0
 19 51  1  0
 19 52  1  0
 20 53  1  0
 20 54  1  0
 21 55  1  0
 22 56  1  0
 22 57  1  0
 23 58  1  0
 23 59  1  0
 25 60  1  0
 26 61  1  0
 28 62  1  0
 31 63  1  0
 32 64  1  0
M  END
>  <smiles>  (22) 
O=C(NCC(=O)N1CCC[C@H]1C(=O)NCC(O)C1CCNCC1)c1ccc2cc(F)ccc2n1

>  <score_type>  (22) 
oracle

>  <origin>  (22) 
autodockgpu

>  <m_score__min__energy>  (22) 
-8.9299999999999997

>  <m_primary>  (22) 
energy

>  <meeko>  (22) 
{"free_energy": -7.8, "intermolecular_energy": -10.49, "internal_energy": -4.3, "cluster_size": 7, "cluster_id": 3, "rank_in_cluster": 4}

>  <energy>  (22) 
-8.81

>  <cluster_rmsd>  (22) 
0.13

>  <rmsd>  (22) 
270.89

>  <cluster>  (22) 
1

$$$$

     RDKit          3D

 64 67  0  0  1  0  0  0  0  0999 V2000
  139.9920   72.0750  221.6920 O   0  0  0  0  0  0  0  0  0  0  0  0
  139.1560   71.6410  222.5260 C   0  0  0  0  0  0  0  0  0  0  0  0
  137.7570   71.6560  222.2430 N   0  0  0  0  0  0  0  0  0  0  0  0
  137.2850   72.1690  220.9960 C   0  0  0  0  0  0  0  0  0  0  0  0
  137.8270   73.5480  220.7260 C   0  0  0  0  0  0  0  0  0  0  0  0
  138.5200   73.6430  219.6670 O   0  0  0  0  0  0  0  0  0  0  0  0
  137.5780   74.6400  221.5910 N   0  0  0  0  0  0  0  0  0  0  0  0
  136.4420   74.6540  222.5290 C   0  0  0  0  0  0  0  0  0  0  0  0
  136.4710   76.0890  223.0850 C   0  0  0  0  0  0  0  0  0  0  0  0
  137.9420   76.4310  223.0080 C   0  0  0  0  0  0  0  0  0  0  0  0
  138.3400   75.8330  221.6810 C   0  0  1  0  0  0  0  0  0  0  0  0
  139.8090   75.6090  221.7570 C   0  0  0  0  0  0  0  0  0  0  0  0
  140.5300   76.0230  222.6940 O   0  0  0  0  0  0  0  0  0  0  0  0
  140.4650   74.8830  220.7190 N   0  0  0  0  0  0  0  0  0  0  0  0
  141.8780   74.6900  220.8330 C   0  0  0  0  0  0  0  0  0  0  0  0
  142.2700   73.3710  220.2620 C   0  0  1  0  0  0  0  0  0  0  0  0
  141.2580   72.7920  219.4920 O   0  0  0  0  0  0  0  0  0  0  0  0
  143.6350   73.2770  219.6760 C   0  0  0  0  0  0  0  0  0  0  0  0
  144.1510   71.9010  219.4800 C   0  0  0  0  0  0  0  0  0  0  0  0
  145.5740   71.8660  218.9710 C   0  0  0  0  0  0  0  0  0  0  0  0
  146.3100   73.0590  219.3340 N   0  0  0  0  0  0  0  0  0  0  0  0
  145.9220   73.4770  220.6600 C   0  0  0  0  0  0  0  0  0  0  0  0
  144.5550   74.1440  220.5120 C   0  0  0  0  0  0  0  0  0  0  0  0
  139.6300   71.1080  223.8190 C   0  0  0  0  0  0  0  0  0  0  0  0
  140.5100   71.8410  224.5700 C   0  0  0  0  0  0  0  0  0  0  0  0
  141.0110   71.4340  225.7900 C   0  0  0  0  0  0  0  0  0  0  0  0
  140.5720   70.2000  226.2490 C   0  0  0  0  0  0  0  0  0  0  0  0
  141.0580   69.7800  227.4570 C   0  0  0  0  0  0  0  0  0  0  0  0
  140.6380   68.5570  227.9390 C   0  0  0  0  0  0  0  0  0  0  0  0
  141.1250   68.1580  229.1290 F   0  0  0  0  0  0  0  0  0  0  0  0
  139.7420   67.7820  227.2060 C   0  0  0  0  0  0  0  0  0  0  0  0
  139.2770   68.2540  225.9830 C   0  0  0  0  0  0  0  0  0  0  0  0
  139.6860   69.4850  225.4760 C   0  0  0  0  0  0  0  0  0  0  0  0
  139.2210   69.9220  224.2870 N   0  0  0  0  0  0  0  0  0  0  0  0
  137.0840   71.2800  222.9740 H   0  0  0  0  0  0  0  0  0  0  0  0
  137.6049   71.4946  220.1880 H   0  0  0  0  0  0  0  0  0  0  0  0
  136.1878   72.2322  221.0418 H   0  0  0  0  0  0  0  0  0  0  0  0
  135.4953   74.4512  222.0068 H   0  0  0  0  0  0  0  0  0  0  0  0
  136.5157   73.8841  223.3112 H   0  0  0  0  0  0  0  0  0  0  0  0
  135.8701   76.7697  222.4640 H   0  0  0  0  0  0  0  0  0  0  0  0
  136.0487   76.1795  224.0967 H   0  0  0  0  0  0  0  0  0  0  0  0
  138.0993   77.5197  223.0180 H   0  0  0  0  0  0  0  0  0  0  0  0
  138.5286   76.0504  223.8572 H   0  0  0  0  0  0  0  0  0  0  0  0
  138.1481   76.4461  220.7881 H   0  0  0  0  0  0  0  0  0  0  0  0
  139.8560   74.5370  219.9500 H   0  0  0  0  0  0  0  0  0  0  0  0
  142.3983   75.4905  220.2867 H   0  0  0  0  0  0  0  0  0  0  0  0
  142.1568   74.7152  221.8968 H   0  0  0  0  0  0  0  0  0  0  0  0
  142.3809   72.7279  221.1475 H   0  0  0  0  0  0  0  0  0  0  0  0
  140.4120   72.6750  219.9510 H   0  0  0  0  0  0  0  0  0  0  0  0
  143.5867   73.6494  218.6421 H   0  0  0  0  0  0  0  0  0  0  0  0
  144.1112   71.3720  220.4436 H   0  0  0  0  0  0  0  0  0  0  0  0
  143.5193   71.4202  218.7186 H   0  0  0  0  0  0  0  0  0  0  0  0
  146.0831   70.9904  219.4001 H   0  0  0  0  0  0  0  0  0  0  0  0
  145.5405   71.8086  217.8730 H   0  0  0  0  0  0  0  0  0  0  0  0
  146.1800   73.8220  218.6370 H   0  0  0  0  0  0  0  0  0  0  0  0
  145.8516   72.6068  221.3291 H   0  0  0  0  0  0  0  0  0  0  0  0
  146.6601   74.1664  221.0957 H   0  0  0  0  0  0  0  0  0  0  0  0
  144.1117   74.2882  221.5083 H   0  0  0  0  0  0  0  0  0  0  0  0
  144.6829   75.1157  220.0125 H   0  0  0  0  0  0  0  0  0  0  0  0
  140.8378   72.8145  224.1765 H   0  0  0  0  0  0  0  0  0  0  0  0
  141.7169   72.0515  226.3648 H   0  0  0  0  0  0  0  0  0  0  0  0
  141.7642   70.4002  228.0284 H   0  0  0  0  0  0  0  0  0  0  0  0
  139.4060   66.8076  227.5901 H   0  0  0  0  0  0  0  0  0  0  0  0
  138.5706   67.6415  225.4035 H   0  0  0  0  0  0  0  0  0  0  0  0
  1  2  2  0
  2  3  1  0
  3  4  1  0
  4  5  1  0
  5  6  2  0
  5  7  1  0
  7  8  1  0
  8  9  1  0
  9 10  1  0
 10 11  1  0
 11 12  1  0
 12 13  2  0
 12 14  1  0
 14 15  1  0
 15 16  1  0
 16 17  1  0
 16 18  1  0
 18 19  1  0
 19 20  1  0
 20 21  1  0
 21 22  1  0
 22 23  1  0
  2 24  1  0
 24 25  2  0
 25 26  1  0
 26 27  2  0
 27 28  1  0
 28 29  2  0
 29 30  1  0
 29 31  1  0
 31 32  2  0
 32 33  1  0
 33 34  2  0
 11  7  1  0
 23 18  1  0
 34 24  1  0
 33 27  1  0
  3 35  1  0
  4 36  1  0
  4 37  1  0
  8 38  1  0
  8 39  1  0
  9 40  1  0
  9 41  1  0
 10 42  1  0
 10 43  1  0
 11 44  1  6
 14 45  1  0
 15 46  1  0
 15 47  1  0
 16 48  1  1
 17 49  1  0
 18 50  1  0
 19 51  1  0
 19 52  1  0
 20 53  1  0
 20 54  1  0
 21 55  1  0
 22 56  1  0
 22 57  1  0
 23 58  1  0
 23 59  1  0
 25 60  1  0
 26 61  1  0
 28 62  1  0
 31 63  1  0
 32 64  1  0
M  END
>  <smiles>  (23) 
O=C(NCC(=O)N1CCC[C@H]1C(=O)NCC(O)C1CCNCC1)c1ccc2cc(F)ccc2n1

>  <score_type>  (23) 
oracle

>  <origin>  (23) 
autodockgpu

>  <m_score__min__energy>  (23) 
-8.9299999999999997

>  <m_primary>  (23) 
energy

>  <meeko>  (23) 
{"free_energy": -7.55, "intermolecular_energy": -10.24, "internal_energy": -4.85, "cluster_size": 7, "cluster_id": 3, "rank_in_cluster": 6}

>  <energy>  (23) 
-8.64

>  <cluster_rmsd>  (23) 
1.44

>  <rmsd>  (23) 
270.92

>  <cluster>  (23) 
1

$$$$

     RDKit          3D

 64 67  0  0  1  0  0  0  0  0999 V2000
  139.9250   71.9590  221.6560 O   0  0  0  0  0  0  0  0  0  0  0  0
  139.1030   71.6020  222.5380 C   0  0  0  0  0  0  0  0  0  0  0  0
  137.6950   71.6830  222.3110 N   0  0  0  0  0  0  0  0  0  0  0  0
  137.2000   72.1770  221.0650 C   0  0  0  0  0  0  0  0  0  0  0  0
  137.7700   73.5330  220.7420 C   0  0  0  0  0  0  0  0  0  0  0  0
  138.4780   73.5680  219.6890 O   0  0  0  0  0  0  0  0  0  0  0  0
  137.5290   74.6660  221.5540 N   0  0  0  0  0  0  0  0  0  0  0  0
  136.3690   74.7510  222.4580 C   0  0  0  0  0  0  0  0  0  0  0  0
  136.4240   76.2060  222.9550 C   0  0  0  0  0  0  0  0  0  0  0  0
  137.9060   76.5030  222.9080 C   0  0  0  0  0  0  0  0  0  0  0  0
  138.3240   75.8390  221.6180 C   0  0  1  0  0  0  0  0  0  0  0  0
  139.7830   75.5760  221.7460 C   0  0  0  0  0  0  0  0  0  0  0  0
  140.4900   76.0140  222.6820 O   0  0  0  0  0  0  0  0  0  0  0  0
  140.4430   74.7830  220.7620 N   0  0  0  0  0  0  0  0  0  0  0  0
  141.8460   74.5560  220.9250 C   0  0  0  0  0  0  0  0  0  0  0  0
  142.2420   73.2710  220.2820 C   0  0  1  0  0  0  0  0  0  0  0  0
  141.2330   72.7340  219.4790 O   0  0  0  0  0  0  0  0  0  0  0  0
  143.6080   73.2120  219.6940 C   0  0  0  0  0  0  0  0  0  0  0  0
  144.1500   71.8490  219.4760 C   0  0  0  0  0  0  0  0  0  0  0  0
  145.5730   71.8500  218.9660 C   0  0  0  0  0  0  0  0  0  0  0  0
  146.2870   73.0510  219.3490 N   0  0  0  0  0  0  0  0  0  0  0  0
  145.8920   73.4390  220.6810 C   0  0  0  0  0  0  0  0  0  0  0  0
  144.5130   74.0830  220.5440 C   0  0  0  0  0  0  0  0  0  0  0  0
  139.6010   71.0920  223.8310 C   0  0  0  0  0  0  0  0  0  0  0  0
  140.4350   71.8700  224.5890 C   0  0  0  0  0  0  0  0  0  0  0  0
  140.9540   71.4870  225.8090 C   0  0  0  0  0  0  0  0  0  0  0  0
  140.5840   70.2280  226.2610 C   0  0  0  0  0  0  0  0  0  0  0  0
  141.0890   69.8300  227.4680 C   0  0  0  0  0  0  0  0  0  0  0  0
  140.7370   68.5830  227.9440 C   0  0  0  0  0  0  0  0  0  0  0  0
  141.2430   68.2080  229.1340 F   0  0  0  0  0  0  0  0  0  0  0  0
  139.8910   67.7610  227.2040 C   0  0  0  0  0  0  0  0  0  0  0  0
  139.4040   68.2130  225.9810 C   0  0  0  0  0  0  0  0  0  0  0  0
  139.7440   69.4670  225.4810 C   0  0  0  0  0  0  0  0  0  0  0  0
  139.2590   69.8820  224.2920 N   0  0  0  0  0  0  0  0  0  0  0  0
  137.0350   71.3710  223.0820 H   0  0  0  0  0  0  0  0  0  0  0  0
  137.4773   71.4734  220.2662 H   0  0  0  0  0  0  0  0  0  0  0  0
  136.1068   72.2721  221.1418 H   0  0  0  0  0  0  0  0  0  0  0  0
  135.4314   74.5528  221.9179 H   0  0  0  0  0  0  0  0  0  0  0  0
  136.3994   74.0129  223.2730 H   0  0  0  0  0  0  0  0  0  0  0  0
  135.8614   76.8767  222.2889 H   0  0  0  0  0  0  0  0  0  0  0  0
  135.9757   76.3506  223.9490 H   0  0  0  0  0  0  0  0  0  0  0  0
  138.0949   77.5863  222.8784 H   0  0  0  0  0  0  0  0  0  0  0  0
  138.4567   76.1418  223.7890 H   0  0  0  0  0  0  0  0  0  0  0  0
  138.1765   76.4200  220.6957 H   0  0  0  0  0  0  0  0  0  0  0  0
  139.8450   74.4180  219.9930 H   0  0  0  0  0  0  0  0  0  0  0  0
  142.4034   75.3817  220.4586 H   0  0  0  0  0  0  0  0  0  0  0  0
  142.0768   74.5037  221.9992 H   0  0  0  0  0  0  0  0  0  0  0  0
  142.3527   72.5804  221.1310 H   0  0  0  0  0  0  0  0  0  0  0  0
  140.3810   72.6070  219.9240 H   0  0  0  0  0  0  0  0  0  0  0  0
  143.5515   73.5999  218.6662 H   0  0  0  0  0  0  0  0  0  0  0  0
  144.1210   71.3041  220.4311 H   0  0  0  0  0  0  0  0  0  0  0  0
  143.5271   71.3679  218.7076 H   0  0  0  0  0  0  0  0  0  0  0  0
  146.0990   70.9771  219.3800 H   0  0  0  0  0  0  0  0  0  0  0  0
  145.5397   71.8109  217.8672 H   0  0  0  0  0  0  0  0  0  0  0  0
  146.1420   73.8220  218.6640 H   0  0  0  0  0  0  0  0  0  0  0  0
  145.8378   72.5564  221.3353 H   0  0  0  0  0  0  0  0  0  0  0  0
  146.6174   74.1344  221.1285 H   0  0  0  0  0  0  0  0  0  0  0  0
  144.0677   74.2032  221.5426 H   0  0  0  0  0  0  0  0  0  0  0  0
  144.6228   75.0647  220.0600 H   0  0  0  0  0  0  0  0  0  0  0  0
  140.7083   72.8624  224.2011 H   0  0  0  0  0  0  0  0  0  0  0  0
  141.6216   72.1410  226.3891 H   0  0  0  0  0  0  0  0  0  0  0  0
  141.7579   70.4861  228.0442 H   0  0  0  0  0  0  0  0  0  0  0  0
  139.6110   66.7665  227.5814 H   0  0  0  0  0  0  0  0  0  0  0  0
  138.7351   67.5645  225.3961 H   0  0  0  0  0  0  0  0  0  0  0  0
  1  2  2  0
  2  3  1  0
  3  4  1  0
  4  5  1  0
  5  6  2  0
  5  7  1  0
  7  8  1  0
  8  9  1  0
  9 10  1  0
 10 11  1  0
 11 12  1  0
 12 13  2  0
 12 14  1  0
 14 15  1  0
 15 16  1  0
 16 17  1  0
 16 18  1  0
 18 19  1  0
 19 20  1  0
 20 21  1  0
 21 22  1  0
 22 23  1  0
  2 24  1  0
 24 25  2  0
 25 26  1  0
 26 27  2  0
 27 28  1  0
 28 29  2  0
 29 30  1  0
 29 31  1  0
 31 32  2  0
 32 33  1  0
 33 34  2  0
 11  7  1  0
 23 18  1  0
 34 24  1  0
 33 27  1  0
  3 35  1  0
  4 36  1  0
  4 37  1  0
  8 38  1  0
  8 39  1  0
  9 40  1  0
  9 41  1  0
 10 42  1  0
 10 43  1  0
 11 44  1  6
 14 45  1  0
 15 46  1  0
 15 47  1  0
 16 48  1  1
 17 49  1  0
 18 50  1  0
 19 51  1  0
 19 52  1  0
 20 53  1  0
 20 54  1  0
 21 55  1  0
 22 56  1  0
 22 57  1  0
 23 58  1  0
 23 59  1  0
 25 60  1  0
 26 61  1  0
 28 62  1  0
 31 63  1  0
 32 64  1  0
M  END
>  <smiles>  (24) 
O=C(NCC(=O)N1CCC[C@H]1C(=O)NCC(O)C1CCNCC1)c1ccc2cc(F)ccc2n1

>  <score_type>  (24) 
oracle

>  <origin>  (24) 
autodockgpu

>  <m_score__min__energy>  (24) 
-8.9299999999999997

>  <m_primary>  (24) 
energy

>  <meeko>  (24) 
{"free_energy": -7.51, "intermolecular_energy": -10.2, "internal_energy": -4.9, "cluster_size": 7, "cluster_id": 3, "rank_in_cluster": 7}

>  <energy>  (24) 
-7.42

>  <cluster_rmsd>  (24) 
1.74

>  <rmsd>  (24) 
270.64

>  <cluster>  (24) 
1

$$$$

     RDKit          3D

 64 67  0  0  1  0  0  0  0  0999 V2000
  137.5870   72.4820  220.5600 O   0  0  0  0  0  0  0  0  0  0  0  0
  138.0660   72.8800  221.6530 C   0  0  0  0  0  0  0  0  0  0  0  0
  138.1260   74.2710  221.9690 N   0  0  0  0  0  0  0  0  0  0  0  0
  137.6370   75.2370  221.0360 C   0  0  0  0  0  0  0  0  0  0  0  0
  137.6360   76.6230  221.6270 C   0  0  0  0  0  0  0  0  0  0  0  0
  136.4830   77.1380  221.7560 O   0  0  0  0  0  0  0  0  0  0  0  0
  138.8290   77.2840  222.0020 N   0  0  0  0  0  0  0  0  0  0  0  0
  138.8690   78.2700  223.0960 C   0  0  0  0  0  0  0  0  0  0  0  0
  140.2930   78.8450  222.9920 C   0  0  0  0  0  0  0  0  0  0  0  0
  141.0680   77.6740  222.4300 C   0  0  0  0  0  0  0  0  0  0  0  0
  140.1070   77.1140  221.4100 C   0  0  1  0  0  0  0  0  0  0  0  0
  140.4990   75.6920  221.2150 C   0  0  0  0  0  0  0  0  0  0  0  0
  140.5830   74.8580  222.1460 O   0  0  0  0  0  0  0  0  0  0  0  0
  140.8030   75.2190  219.9040 N   0  0  0  0  0  0  0  0  0  0  0  0
  141.1750   73.8450  219.7630 C   0  0  0  0  0  0  0  0  0  0  0  0
  142.3390   73.5300  220.6380 C   0  0  1  0  0  0  0  0  0  0  0  0
  142.0460   72.5610  221.6010 O   0  0  0  0  0  0  0  0  0  0  0  0
  143.6560   73.3650  219.9640 C   0  0  0  0  0  0  0  0  0  0  0  0
  144.2000   71.9860  219.9570 C   0  0  0  0  0  0  0  0  0  0  0  0
  145.5790   71.8940  219.3440 C   0  0  0  0  0  0  0  0  0  0  0  0
  146.3020   73.1450  219.4420 N   0  0  0  0  0  0  0  0  0  0  0  0
  146.0060   73.7710  220.7080 C   0  0  0  0  0  0  0  0  0  0  0  0
  144.6110   74.3770  220.5650 C   0  0  0  0  0  0  0  0  0  0  0  0
  138.5760   71.8920  222.6240 C   0  0  0  0  0  0  0  0  0  0  0  0
  138.0000   70.6510  222.6930 C   0  0  0  0  0  0  0  0  0  0  0  0
  138.4030   69.6590  223.5640 C   0  0  0  0  0  0  0  0  0  0  0  0
  139.4590   69.9770  224.4060 C   0  0  0  0  0  0  0  0  0  0  0  0
  139.8720   69.0060  225.2760 C   0  0  0  0  0  0  0  0  0  0  0  0
  140.9220   69.2940  226.1250 C   0  0  0  0  0  0  0  0  0  0  0  0
  141.3150   68.3280  226.9740 F   0  0  0  0  0  0  0  0  0  0  0  0
  141.5350   70.5440  226.0850 C   0  0  0  0  0  0  0  0  0  0  0  0
  141.0780   71.4980  225.1810 C   0  0  0  0  0  0  0  0  0  0  0  0
  140.0210   71.2300  224.3150 C   0  0  0  0  0  0  0  0  0  0  0  0
  139.5960   72.1720  223.4470 N   0  0  0  0  0  0  0  0  0  0  0  0
  138.5370   74.5660  222.9020 H   0  0  0  0  0  0  0  0  0  0  0  0
  138.2798   75.2293  220.1434 H   0  0  0  0  0  0  0  0  0  0  0  0
  136.6018   74.9720  220.7749 H   0  0  0  0  0  0  0  0  0  0  0  0
  138.1136   79.0557  222.9479 H   0  0  0  0  0  0  0  0  0  0  0  0
  138.6487   77.8334  224.0813 H   0  0  0  0  0  0  0  0  0  0  0  0
  140.3260   79.7089  222.3118 H   0  0  0  0  0  0  0  0  0  0  0  0
  140.6893   79.2203  223.9470 H   0  0  0  0  0  0  0  0  0  0  0  0
  142.0036   78.0058  221.9561 H   0  0  0  0  0  0  0  0  0  0  0  0
  141.3775   76.9435  223.1919 H   0  0  0  0  0  0  0  0  0  0  0  0
  140.1076   77.5925  220.4195 H   0  0  0  0  0  0  0  0  0  0  0  0
  140.7230   75.9180  219.1380 H   0  0  0  0  0  0  0  0  0  0  0  0
  140.3246   73.2081  220.0478 H   0  0  0  0  0  0  0  0  0  0  0  0
  141.4542   73.6564  218.7159 H   0  0  0  0  0  0  0  0  0  0  0  0
  142.5067   74.4656  221.1916 H   0  0  0  0  0  0  0  0  0  0  0  0
  141.2880   72.7660  222.1690 H   0  0  0  0  0  0  0  0  0  0  0  0
  143.5133   73.5578  218.8905 H   0  0  0  0  0  0  0  0  0  0  0  0
  144.2539   71.6259  220.9950 H   0  0  0  0  0  0  0  0  0  0  0  0
  143.5265   71.3715  219.3415 H   0  0  0  0  0  0  0  0  0  0  0  0
  146.1490   71.1127  219.8681 H   0  0  0  0  0  0  0  0  0  0  0  0
  145.4607   71.6532  218.2772 H   0  0  0  0  0  0  0  0  0  0  0  0
  146.0920   73.7770  218.6410 H   0  0  0  0  0  0  0  0  0  0  0  0
  146.0167   73.0238  221.5151 H   0  0  0  0  0  0  0  0  0  0  0  0
  146.7531   74.5375  220.9617 H   0  0  0  0  0  0  0  0  0  0  0  0
  144.2431   74.6784  221.5569 H   0  0  0  0  0  0  0  0  0  0  0  0
  144.6679   75.2526  219.9016 H   0  0  0  0  0  0  0  0  0  0  0  0
  137.1645   70.4315  222.0120 H   0  0  0  0  0  0  0  0  0  0  0  0
  137.9152   68.6734  223.5892 H   0  0  0  0  0  0  0  0  0  0  0  0
  139.3808   68.0220  225.2987 H   0  0  0  0  0  0  0  0  0  0  0  0
  142.3716   70.7746  226.7609 H   0  0  0  0  0  0  0  0  0  0  0  0
  141.5622   72.4852  225.1498 H   0  0  0  0  0  0  0  0  0  0  0  0
  1  2  2  0
  2  3  1  0
  3  4  1  0
  4  5  1  0
  5  6  2  0
  5  7  1  0
  7  8  1  0
  8  9  1  0
  9 10  1  0
 10 11  1  0
 11 12  1  0
 12 13  2  0
 12 14  1  0
 14 15  1  0
 15 16  1  0
 16 17  1  0
 16 18  1  0
 18 19  1  0
 19 20  1  0
 20 21  1  0
 21 22  1  0
 22 23  1  0
  2 24  1  0
 24 25  2  0
 25 26  1  0
 26 27  2  0
 27 28  1  0
 28 29  2  0
 29 30  1  0
 29 31  1  0
 31 32  2  0
 32 33  1  0
 33 34  2  0
 11  7  1  0
 23 18  1  0
 34 24  1  0
 33 27  1  0
  3 35  1  0
  4 36  1  0
  4 37  1  0
  8 38  1  0
  8 39  1  0
  9 40  1  0
  9 41  1  0
 10 42  1  0
 10 43  1  0
 11 44  1  6
 14 45  1  0
 15 46  1  0
 15 47  1  0
 16 48  1  1
 17 49  1  0
 18 50  1  0
 19 51  1  0
 19 52  1  0
 20 53  1  0
 20 54  1  0
 21 55  1  0
 22 56  1  0
 22 57  1  0
 23 58  1  0
 23 59  1  0
 25 60  1  0
 26 61  1  0
 28 62  1  0
 31 63  1  0
 32 64  1  0
M  END
>  <smiles>  (25) 
O=C(NCC(=O)N1CCC[C@H]1C(=O)NCC(O)C1CCNCC1)c1ccc2cc(F)ccc2n1

>  <score_type>  (25) 
oracle

>  <origin>  (25) 
autodockgpu

>  <m_score__min__energy>  (25) 
-8.9299999999999997

>  <m_primary>  (25) 
energy

>  <meeko>  (25) 
{"free_energy": -7.64, "intermolecular_energy": -10.33, "internal_energy": -3.92, "cluster_size": 7, "cluster_id": 3, "rank_in_cluster": 5}

>  <energy>  (25) 
-7.39

>  <cluster_rmsd>  (25) 
1.73

>  <rmsd>  (25) 
270.59

>  <cluster>  (25) 
1

$$$$

     RDKit          3D

 64 67  0  0  1  0  0  0  0  0999 V2000
  140.4310   73.0200  220.7330 O   0  0  0  0  0  0  0  0  0  0  0  0
  139.9880   73.2120  221.8940 C   0  0  0  0  0  0  0  0  0  0  0  0
  139.5850   74.5120  222.3240 N   0  0  0  0  0  0  0  0  0  0  0  0
  139.6820   75.6230  221.4290 C   0  0  0  0  0  0  0  0  0  0  0  0
  139.3940   76.9240  222.1310 C   0  0  0  0  0  0  0  0  0  0  0  0
  138.4640   76.8620  222.9940 O   0  0  0  0  0  0  0  0  0  0  0  0
  140.1080   78.1110  221.8430 N   0  0  0  0  0  0  0  0  0  0  0  0
  140.4460   79.0960  222.8840 C   0  0  0  0  0  0  0  0  0  0  0  0
  141.0220   80.2720  222.0750 C   0  0  0  0  0  0  0  0  0  0  0  0
  141.6210   79.5700  220.8770 C   0  0  0  0  0  0  0  0  0  0  0  0
  140.5810   78.5190  220.5690 C   0  0  1  0  0  0  0  0  0  0  0  0
  141.2900   77.4500  219.8150 C   0  0  0  0  0  0  0  0  0  0  0  0
  140.7580   76.7650  218.9110 O   0  0  0  0  0  0  0  0  0  0  0  0
  142.6540   77.1640  220.1150 N   0  0  0  0  0  0  0  0  0  0  0  0
  143.2970   76.1290  219.3660 C   0  0  0  0  0  0  0  0  0  0  0  0
  142.8730   74.7900  219.8620 C   0  0  1  0  0  0  0  0  0  0  0  0
  141.8090   74.2530  219.1320 O   0  0  0  0  0  0  0  0  0  0  0  0
  143.9580   73.8250  220.1890 C   0  0  0  0  0  0  0  0  0  0  0  0
  145.2440   74.4300  220.6130 C   0  0  0  0  0  0  0  0  0  0  0  0
  146.3350   73.4090  220.8400 C   0  0  0  0  0  0  0  0  0  0  0  0
  146.1210   72.2030  220.0670 N   0  0  0  0  0  0  0  0  0  0  0  0
  145.5780   72.5510  218.7760 C   0  0  0  0  0  0  0  0  0  0  0  0
  144.1050   72.8820  219.0110 C   0  0  0  0  0  0  0  0  0  0  0  0
  139.8830   72.0740  222.8280 C   0  0  0  0  0  0  0  0  0  0  0  0
  139.2790   70.9150  222.4170 C   0  0  0  0  0  0  0  0  0  0  0  0
  139.1320   69.7960  223.2120 C   0  0  0  0  0  0  0  0  0  0  0  0
  139.6400   69.8910  224.5000 C   0  0  0  0  0  0  0  0  0  0  0  0
  139.5020   68.7920  225.3030 C   0  0  0  0  0  0  0  0  0  0  0  0
  139.9990   68.8570  226.5890 C   0  0  0  0  0  0  0  0  0  0  0  0
  139.8560   67.7670  227.3650 F   0  0  0  0  0  0  0  0  0  0  0  0
  140.6210   70.0170  227.0450 C   0  0  0  0  0  0  0  0  0  0  0  0
  140.7350   71.1090  226.1890 C   0  0  0  0  0  0  0  0  0  0  0  0
  140.2420   71.0660  224.8870 C   0  0  0  0  0  0  0  0  0  0  0  0
  140.3660   72.1370  224.0760 N   0  0  0  0  0  0  0  0  0  0  0  0
  139.2150   74.6320  223.3120 H   0  0  0  0  0  0  0  0  0  0  0  0
  140.6996   75.6590  221.0129 H   0  0  0  0  0  0  0  0  0  0  0  0
  138.9371   75.4892  220.6308 H   0  0  0  0  0  0  0  0  0  0  0  0
  139.5501   79.4026  223.4438 H   0  0  0  0  0  0  0  0  0  0  0  0
  141.1447   78.7061  223.6389 H   0  0  0  0  0  0  0  0  0  0  0  0
  140.2308   80.9736  221.7721 H   0  0  0  0  0  0  0  0  0  0  0  0
  141.7441   80.8833  222.6362 H   0  0  0  0  0  0  0  0  0  0  0  0
  141.7501   80.2627  220.0323 H   0  0  0  0  0  0  0  0  0  0  0  0
  142.6236   79.1574  221.0631 H   0  0  0  0  0  0  0  0  0  0  0  0
  139.7249   78.8382  219.9565 H   0  0  0  0  0  0  0  0  0  0  0  0
  143.0880   77.7440  220.8620 H   0  0  0  0  0  0  0  0  0  0  0  0
  143.0235   76.2259  218.3050 H   0  0  0  0  0  0  0  0  0  0  0  0
  144.3862   76.2256  219.4856 H   0  0  0  0  0  0  0  0  0  0  0  0
  142.4747   75.0010  220.8654 H   0  0  0  0  0  0  0  0  0  0  0  0
  140.9390   74.6240  219.3450 H   0  0  0  0  0  0  0  0  0  0  0  0
  143.6592   73.2731  221.0924 H   0  0  0  0  0  0  0  0  0  0  0  0
  145.5763   75.1290  219.8314 H   0  0  0  0  0  0  0  0  0  0  0  0
  145.0662   74.9379  221.5724 H   0  0  0  0  0  0  0  0  0  0  0  0
  147.2999   73.8502  220.5494 H   0  0  0  0  0  0  0  0  0  0  0  0
  146.3265   73.1349  221.9053 H   0  0  0  0  0  0  0  0  0  0  0  0
  145.5120   71.5240  220.5700 H   0  0  0  0  0  0  0  0  0  0  0  0
  146.1044   73.4243  218.3633 H   0  0  0  0  0  0  0  0  0  0  0  0
  145.6949   71.7278  218.0558 H   0  0  0  0  0  0  0  0  0  0  0  0
  143.6925   73.3599  218.1102 H   0  0  0  0  0  0  0  0  0  0  0  0
  143.5598   71.9516  219.2279 H   0  0  0  0  0  0  0  0  0  0  0  0
  138.8870   70.8735  221.3901 H   0  0  0  0  0  0  0  0  0  0  0  0
  138.6409   68.8823  222.8459 H   0  0  0  0  0  0  0  0  0  0  0  0
  139.0082   67.8811  224.9337 H   0  0  0  0  0  0  0  0  0  0  0  0
  141.0176   70.0696  228.0697 H   0  0  0  0  0  0  0  0  0  0  0  0
  141.2251   72.0257  226.5487 H   0  0  0  0  0  0  0  0  0  0  0  0
  1  2  2  0
  2  3  1  0
  3  4  1  0
  4  5  1  0
  5  6  2  0
  5  7  1  0
  7  8  1  0
  8  9  1  0
  9 10  1  0
 10 11  1  0
 11 12  1  0
 12 13  2  0
 12 14  1  0
 14 15  1  0
 15 16  1  0
 16 17  1  0
 16 18  1  0
 18 19  1  0
 19 20  1  0
 20 21  1  0
 21 22  1  0
 22 23  1  0
  2 24  1  0
 24 25  2  0
 25 26  1  0
 26 27  2  0
 27 28  1  0
 28 29  2  0
 29 30  1  0
 29 31  1  0
 31 32  2  0
 32 33  1  0
 33 34  2  0
 11  7  1  0
 23 18  1  0
 34 24  1  0
 33 27  1  0
  3 35  1  0
  4 36  1  0
  4 37  1  0
  8 38  1  0
  8 39  1  0
  9 40  1  0
  9 41  1  0
 10 42  1  0
 10 43  1  0
 11 44  1  6
 14 45  1  0
 15 46  1  0
 15 47  1  0
 16 48  1  1
 17 49  1  0
 18 50  1  0
 19 51  1  0
 19 52  1  0
 20 53  1  0
 20 54  1  0
 21 55  1  0
 22 56  1  0
 22 57  1  0
 23 58  1  0
 23 59  1  0
 25 60  1  0
 26 61  1  0
 28 62  1  0
 31 63  1  0
 32 64  1  0
M  END
>  <smiles>  (26) 
O=C(NCC(=O)N1CCC[C@H]1C(=O)NCC(O)C1CCNCC1)c1ccc2cc(F)ccc2n1

>  <score_type>  (26) 
oracle

>  <origin>  (26) 
autodockgpu

>  <m_score__min__energy>  (26) 
-8.9299999999999997

>  <m_primary>  (26) 
energy

>  <meeko>  (26) 
{"free_energy": -8.37, "intermolecular_energy": -11.05, "internal_energy": -3.48, "cluster_size": 7, "cluster_id": 3, "rank_in_cluster": 1}

>  <energy>  (26) 
-8.49

>  <cluster_rmsd>  (26) 
0.0

>  <rmsd>  (26) 
270.5

>  <cluster>  (26) 
2

$$$$

     RDKit          3D

 64 67  0  0  1  0  0  0  0  0999 V2000
  139.7880   73.0240  222.6620 O   0  0  0  0  0  0  0  0  0  0  0  0
  139.7370   71.7730  222.7800 C   0  0  0  0  0  0  0  0  0  0  0  0
  139.3540   70.9440  221.6810 N   0  0  0  0  0  0  0  0  0  0  0  0
  139.0220   71.5340  220.4230 C   0  0  0  0  0  0  0  0  0  0  0  0
  140.1960   72.2670  219.8290 C   0  0  0  0  0  0  0  0  0  0  0  0
  139.8910   73.3200  219.1900 O   0  0  0  0  0  0  0  0  0  0  0  0
  141.5260   71.8060  219.9770 N   0  0  0  0  0  0  0  0  0  0  0  0
  142.0490   70.6600  219.2150 C   0  0  0  0  0  0  0  0  0  0  0  0
  143.4300   70.4210  219.8520 C   0  0  0  0  0  0  0  0  0  0  0  0
  143.8160   71.8110  220.3050 C   0  0  0  0  0  0  0  0  0  0  0  0
  142.5110   72.3450  220.8450 C   0  0  1  0  0  0  0  0  0  0  0  0
  142.6210   73.8280  220.7890 C   0  0  0  0  0  0  0  0  0  0  0  0
  143.6970   74.4410  220.6030 O   0  0  0  0  0  0  0  0  0  0  0  0
  141.4500   74.6270  220.9520 N   0  0  0  0  0  0  0  0  0  0  0  0
  141.6020   76.0480  220.8910 C   0  0  0  0  0  0  0  0  0  0  0  0
  140.5430   76.7180  221.6960 C   0  0  1  0  0  0  0  0  0  0  0  0
  139.7330   75.8130  222.3860 O   0  0  0  0  0  0  0  0  0  0  0  0
  140.9580   77.9120  222.4830 C   0  0  0  0  0  0  0  0  0  0  0  0
  139.8520   78.6960  223.0840 C   0  0  0  0  0  0  0  0  0  0  0  0
  140.3250   79.9460  223.7900 C   0  0  0  0  0  0  0  0  0  0  0  0
  141.5830   80.4280  223.2580 N   0  0  0  0  0  0  0  0  0  0  0  0
  141.6040   80.2350  221.8280 C   0  0  0  0  0  0  0  0  0  0  0  0
  141.8700   78.7470  221.6050 C   0  0  0  0  0  0  0  0  0  0  0  0
  140.0760   71.1500  224.0740 C   0  0  0  0  0  0  0  0  0  0  0  0
  140.7180   71.8890  225.0320 C   0  0  0  0  0  0  0  0  0  0  0  0
  141.0780   71.4020  226.2720 C   0  0  0  0  0  0  0  0  0  0  0  0
  140.7520   70.0770  226.5260 C   0  0  0  0  0  0  0  0  0  0  0  0
  141.1020   69.5760  227.7500 C   0  0  0  0  0  0  0  0  0  0  0  0
  140.7890   68.2610  228.0300 C   0  0  0  0  0  0  0  0  0  0  0  0
  141.1390   67.7850  229.2400 F   0  0  0  0  0  0  0  0  0  0  0  0
  140.1350   67.4770  227.0840 C   0  0  0  0  0  0  0  0  0  0  0  0
  139.8010   68.0330  225.8520 C   0  0  0  0  0  0  0  0  0  0  0  0
  140.1060   69.3570  225.5470 C   0  0  0  0  0  0  0  0  0  0  0  0
  139.7720   69.8740  224.3460 N   0  0  0  0  0  0  0  0  0  0  0  0
  139.3240   69.8920  221.8200 H   0  0  0  0  0  0  0  0  0  0  0  0
  138.7073   70.7411  219.7285 H   0  0  0  0  0  0  0  0  0  0  0  0
  138.2099   72.2580  220.5854 H   0  0  0  0  0  0  0  0  0  0  0  0
  141.4016   69.7785  219.3326 H   0  0  0  0  0  0  0  0  0  0  0  0
  142.0978   70.8459  218.1319 H   0  0  0  0  0  0  0  0  0  0  0  0
  143.3621   69.7282  220.7037 H   0  0  0  0  0  0  0  0  0  0  0  0
  144.1585   69.9605  219.1685 H   0  0  0  0  0  0  0  0  0  0  0  0
  144.5870   71.7752  221.0887 H   0  0  0  0  0  0  0  0  0  0  0  0
  144.2498   72.4308  219.5065 H   0  0  0  0  0  0  0  0  0  0  0  0
  142.2597   72.0743  221.8811 H   0  0  0  0  0  0  0  0  0  0  0  0
  140.5610   74.1080  221.0980 H   0  0  0  0  0  0  0  0  0  0  0  0
  142.5894   76.3244  221.2892 H   0  0  0  0  0  0  0  0  0  0  0  0
  141.5129   76.3720  219.8436 H   0  0  0  0  0  0  0  0  0  0  0  0
  139.8975   77.1839  220.9369 H   0  0  0  0  0  0  0  0  0  0  0  0
  139.5100   75.0070  221.8950 H   0  0  0  0  0  0  0  0  0  0  0  0
  141.4958   77.5594  223.3755 H   0  0  0  0  0  0  0  0  0  0  0  0
  139.1555   78.9882  222.2843 H   0  0  0  0  0  0  0  0  0  0  0  0
  139.3696   78.0567  223.8381 H   0  0  0  0  0  0  0  0  0  0  0  0
  139.5643   80.7313  223.6690 H   0  0  0  0  0  0  0  0  0  0  0  0
  140.4777   79.6991  224.8510 H   0  0  0  0  0  0  0  0  0  0  0  0
  142.3980   79.9740  223.7200 H   0  0  0  0  0  0  0  0  0  0  0  0
  140.6359   80.5195  221.3901 H   0  0  0  0  0  0  0  0  0  0  0  0
  142.3750   80.8571  221.3499 H   0  0  0  0  0  0  0  0  0  0  0  0
  141.6840   78.4993  220.5495 H   0  0  0  0  0  0  0  0  0  0  0  0
  142.9161   78.5276  221.8649 H   0  0  0  0  0  0  0  0  0  0  0  0
  140.9618   72.9359  224.7984 H   0  0  0  0  0  0  0  0  0  0  0  0
  141.5933   72.0275  227.0158 H   0  0  0  0  0  0  0  0  0  0  0  0
  141.6187   70.2039  228.4908 H   0  0  0  0  0  0  0  0  0  0  0  0
  139.8847   66.4294  227.3073 H   0  0  0  0  0  0  0  0  0  0  0  0
  139.2852   67.4132  225.1037 H   0  0  0  0  0  0  0  0  0  0  0  0
  1  2  2  0
  2  3  1  0
  3  4  1  0
  4  5  1  0
  5  6  2  0
  5  7  1  0
  7  8  1  0
  8  9  1  0
  9 10  1  0
 10 11  1  0
 11 12  1  0
 12 13  2  0
 12 14  1  0
 14 15  1  0
 15 16  1  0
 16 17  1  0
 16 18  1  0
 18 19  1  0
 19 20  1  0
 20 21  1  0
 21 22  1  0
 22 23  1  0
  2 24  1  0
 24 25  2  0
 25 26  1  0
 26 27  2  0
 27 28  1  0
 28 29  2  0
 29 30  1  0
 29 31  1  0
 31 32  2  0
 32 33  1  0
 33 34  2  0
 11  7  1  0
 23 18  1  0
 34 24  1  0
 33 27  1  0
  3 35  1  0
  4 36  1  0
  4 37  1  0
  8 38  1  0
  8 39  1  0
  9 40  1  0
  9 41  1  0
 10 42  1  0
 10 43  1  0
 11 44  1  1
 14 45  1  0
 15 46  1  0
 15 47  1  0
 16 48  1  6
 17 49  1  0
 18 50  1  0
 19 51  1  0
 19 52  1  0
 20 53  1  0
 20 54  1  0
 21 55  1  0
 22 56  1  0
 22 57  1  0
 23 58  1  0
 23 59  1  0
 25 60  1  0
 26 61  1  0
 28 62  1  0
 31 63  1  0
 32 64  1  0
M  END
>  <smiles>  (27) 
O=C(NCC(=O)N1CCC[C@H]1C(=O)NCC(O)C1CCNCC1)c1ccc2cc(F)ccc2n1

>  <score_type>  (27) 
oracle

>  <origin>  (27) 
autodockgpu

>  <m_score__min__energy>  (27) 
-8.9299999999999997

>  <m_primary>  (27) 
energy

>  <meeko>  (27) 
{"free_energy": -7.39, "intermolecular_energy": -10.07, "internal_energy": -4.81, "cluster_size": 5, "cluster_id": 1, "rank_in_cluster": 5}

>  <energy>  (27) 
-8.24

>  <cluster_rmsd>  (27) 
1.71

>  <rmsd>  (27) 
269.97

>  <cluster>  (27) 
2

$$$$

     RDKit          3D

 64 67  0  0  1  0  0  0  0  0999 V2000
  139.9310   73.1280  222.8340 O   0  0  0  0  0  0  0  0  0  0  0  0
  139.5070   71.9650  223.0520 C   0  0  0  0  0  0  0  0  0  0  0  0
  138.6410   71.3100  222.1250 N   0  0  0  0  0  0  0  0  0  0  0  0
  138.2430   71.9760  220.9260 C   0  0  0  0  0  0  0  0  0  0  0  0
  137.6670   73.3380  221.2160 C   0  0  0  0  0  0  0  0  0  0  0  0
  138.1890   74.2830  220.5470 O   0  0  0  0  0  0  0  0  0  0  0  0
  136.6310   73.5330  222.1590 N   0  0  0  0  0  0  0  0  0  0  0  0
  136.1750   72.4590  223.0580 C   0  0  0  0  0  0  0  0  0  0  0  0
  134.9350   73.0740  223.7310 C   0  0  0  0  0  0  0  0  0  0  0  0
  135.2710   74.5490  223.7310 C   0  0  0  0  0  0  0  0  0  0  0  0
  135.9030   74.7320  222.3720 C   0  0  1  0  0  0  0  0  0  0  0  0
  136.7540   75.9480  222.4770 C   0  0  0  0  0  0  0  0  0  0  0  0
  136.3080   77.1170  222.4420 O   0  0  0  0  0  0  0  0  0  0  0  0
  138.1660   75.8070  222.6280 N   0  0  0  0  0  0  0  0  0  0  0  0
  138.9460   77.0020  222.7260 C   0  0  0  0  0  0  0  0  0  0  0  0
  140.3990   76.6760  222.7020 C   0  0  1  0  0  0  0  0  0  0  0  0
  140.6830   75.5150  221.9780 O   0  0  0  0  0  0  0  0  0  0  0  0
  141.3340   77.8090  222.4590 C   0  0  0  0  0  0  0  0  0  0  0  0
  141.5910   78.6850  223.6270 C   0  0  0  0  0  0  0  0  0  0  0  0
  142.4710   79.8700  223.2980 C   0  0  0  0  0  0  0  0  0  0  0  0
  142.3880   80.2370  221.8990 N   0  0  0  0  0  0  0  0  0  0  0  0
  141.0310   80.0690  221.4390 C   0  0  0  0  0  0  0  0  0  0  0  0
  140.8320   78.5670  221.2460 C   0  0  0  0  0  0  0  0  0  0  0  0
  139.9100   71.2650  224.2880 C   0  0  0  0  0  0  0  0  0  0  0  0
  140.7250   71.8980  225.1890 C   0  0  0  0  0  0  0  0  0  0  0  0
  141.1570   71.3320  226.3720 C   0  0  0  0  0  0  0  0  0  0  0  0
  140.7170   70.0410  226.6270 C   0  0  0  0  0  0  0  0  0  0  0  0
  141.1350   69.4640  227.7940 C   0  0  0  0  0  0  0  0  0  0  0  0
  140.7120   68.1800  228.0760 C   0  0  0  0  0  0  0  0  0  0  0  0
  141.1330   67.6280  229.2290 F   0  0  0  0  0  0  0  0  0  0  0  0
  139.8820   67.5020  227.1860 C   0  0  0  0  0  0  0  0  0  0  0  0
  139.4850   68.1340  226.0110 C   0  0  0  0  0  0  0  0  0  0  0  0
  139.8980   69.4280  225.7060 C   0  0  0  0  0  0  0  0  0  0  0  0
  139.4990   70.0190  224.5610 N   0  0  0  0  0  0  0  0  0  0  0  0
  138.3060   70.3270  222.3460 H   0  0  0  0  0  0  0  0  0  0  0  0
  139.1205   72.0907  220.2727 H   0  0  0  0  0  0  0  0  0  0  0  0
  137.4666   71.3701  220.4360 H   0  0  0  0  0  0  0  0  0  0  0  0
  135.9094   71.5547  222.4908 H   0  0  0  0  0  0  0  0  0  0  0  0
  136.9443   72.1392  223.7763 H   0  0  0  0  0  0  0  0  0  0  0  0
  134.0238   72.8724  223.1487 H   0  0  0  0  0  0  0  0  0  0  0  0
  134.7285   72.6678  224.7322 H   0  0  0  0  0  0  0  0  0  0  0  0
  134.3653   75.1644  223.8358 H   0  0  0  0  0  0  0  0  0  0  0  0
  135.9205   74.8540  224.5648 H   0  0  0  0  0  0  0  0  0  0  0  0
  135.2163   74.8856  221.5265 H   0  0  0  0  0  0  0  0  0  0  0  0
  138.5250   74.8310  222.6640 H   0  0  0  0  0  0  0  0  0  0  0  0
  138.7081   77.6608  221.8778 H   0  0  0  0  0  0  0  0  0  0  0  0
  138.7088   77.5066  223.6742 H   0  0  0  0  0  0  0  0  0  0  0  0
  140.6270   76.4408  223.7521 H   0  0  0  0  0  0  0  0  0  0  0  0
  139.9060   74.9960  221.7170 H   0  0  0  0  0  0  0  0  0  0  0  0
  142.3326   77.3896  222.2672 H   0  0  0  0  0  0  0  0  0  0  0  0
  140.6272   79.0585  224.0032 H   0  0  0  0  0  0  0  0  0  0  0  0
  142.1210   78.0818  224.3789 H   0  0  0  0  0  0  0  0  0  0  0  0
  142.1543   80.7279  223.9094 H   0  0  0  0  0  0  0  0  0  0  0  0
  143.5125   79.5896  223.5141 H   0  0  0  0  0  0  0  0  0  0  0  0
  143.0620   79.6970  221.3170 H   0  0  0  0  0  0  0  0  0  0  0  0
  140.3236   80.4547  222.1878 H   0  0  0  0  0  0  0  0  0  0  0  0
  140.8521   80.6214  220.5047 H   0  0  0  0  0  0  0  0  0  0  0  0
  139.7612   78.3581  221.1052 H   0  0  0  0  0  0  0  0  0  0  0  0
  141.3992   78.2419  220.3613 H   0  0  0  0  0  0  0  0  0  0  0  0
  141.0558   72.9208  224.9555 H   0  0  0  0  0  0  0  0  0  0  0  0
  141.8116   71.8728  227.0713 H   0  0  0  0  0  0  0  0  0  0  0  0
  141.7907   70.0081  228.4897 H   0  0  0  0  0  0  0  0  0  0  0  0
  139.5443   66.4792  227.4092 H   0  0  0  0  0  0  0  0  0  0  0  0
  138.8301   67.5989  225.3076 H   0  0  0  0  0  0  0  0  0  0  0  0
  1  2  2  0
  2  3  1  0
  3  4  1  0
  4  5  1  0
  5  6  2  0
  5  7  1  0
  7  8  1  0
  8  9  1  0
  9 10  1  0
 10 11  1  0
 11 12  1  0
 12 13  2  0
 12 14  1  0
 14 15  1  0
 15 16  1  0
 16 17  1  0
 16 18  1  0
 18 19  1  0
 19 20  1  0
 20 21  1  0
 21 22  1  0
 22 23  1  0
  2 24  1  0
 24 25  2  0
 25 26  1  0
 26 27  2  0
 27 28  1  0
 28 29  2  0
 29 30  1  0
 29 31  1  0
 31 32  2  0
 32 33  1  0
 33 34  2  0
 11  7  1  0
 23 18  1  0
 34 24  1  0
 33 27  1  0
  3 35  1  0
  4 36  1  0
  4 37  1  0
  8 38  1  0
  8 39  1  0
  9 40  1  0
  9 41  1  0
 10 42  1  0
 10 43  1  0
 11 44  1  6
 14 45  1  0
 15 46  1  0
 15 47  1  0
 16 48  1  1
 17 49  1  0
 18 50  1  0
 19 51  1  0
 19 52  1  0
 20 53  1  0
 20 54  1  0
 21 55  1  0
 22 56  1  0
 22 57  1  0
 23 58  1  0
 23 59  1  0
 25 60  1  0
 26 61  1  0
 28 62  1  0
 31 63  1  0
 32 64  1  0
M  END
>  <smiles>  (28) 
O=C(NCC(=O)N1CCC[C@H]1C(=O)NCC(O)C1CCNCC1)c1ccc2cc(F)ccc2n1

>  <score_type>  (28) 
oracle

>  <origin>  (28) 
autodockgpu

>  <m_score__min__energy>  (28) 
-8.9299999999999997

>  <m_primary>  (28) 
energy

>  <meeko>  (28) 
{"free_energy": -8.13, "intermolecular_energy": -10.81, "internal_energy": -5.06, "cluster_size": 5, "cluster_id": 2, "rank_in_cluster": 4}

>  <energy>  (28) 
-8.18

>  <cluster_rmsd>  (28) 
0.94

>  <rmsd>  (28) 
270.53

>  <cluster>  (28) 
2

$$$$

     RDKit          3D

 64 67  0  0  1  0  0  0  0  0999 V2000
  137.3530   70.3200  221.8860 O   0  0  0  0  0  0  0  0  0  0  0  0
  138.0220   71.0650  222.6480 C   0  0  0  0  0  0  0  0  0  0  0  0
  138.1590   72.4610  222.3790 N   0  0  0  0  0  0  0  0  0  0  0  0
  137.5320   73.0330  221.2300 C   0  0  0  0  0  0  0  0  0  0  0  0
  136.0930   73.3840  221.5030 C   0  0  0  0  0  0  0  0  0  0  0  0
  135.3350   73.3260  220.4860 O   0  0  0  0  0  0  0  0  0  0  0  0
  135.6370   73.7470  222.7930 N   0  0  0  0  0  0  0  0  0  0  0  0
  135.4050   72.7500  223.8520 C   0  0  0  0  0  0  0  0  0  0  0  0
  134.7400   73.5780  224.9660 C   0  0  0  0  0  0  0  0  0  0  0  0
  135.3410   74.9480  224.7470 C   0  0  0  0  0  0  0  0  0  0  0  0
  135.3410   75.0590  223.2410 C   0  0  1  0  0  0  0  0  0  0  0  0
  136.3860   76.0640  222.9060 C   0  0  0  0  0  0  0  0  0  0  0  0
  136.1600   77.2890  222.7740 O   0  0  0  0  0  0  0  0  0  0  0  0
  137.7350   75.6400  222.7160 N   0  0  0  0  0  0  0  0  0  0  0  0
  138.7070   76.6390  222.3950 C   0  0  0  0  0  0  0  0  0  0  0  0
  140.0730   76.0470  222.3770 C   0  0  1  0  0  0  0  0  0  0  0  0
  140.0590   74.6500  222.3460 O   0  0  0  0  0  0  0  0  0  0  0  0
  141.0650   76.6830  221.4670 C   0  0  0  0  0  0  0  0  0  0  0  0
  140.5100   77.6670  220.5070 C   0  0  0  0  0  0  0  0  0  0  0  0
  141.5450   78.2100  219.5480 C   0  0  0  0  0  0  0  0  0  0  0  0
  142.6440   77.2860  219.3540 N   0  0  0  0  0  0  0  0  0  0  0  0
  142.1370   75.9350  219.3380 C   0  0  0  0  0  0  0  0  0  0  0  0
  141.8490   75.5730  220.7940 C   0  0  0  0  0  0  0  0  0  0  0  0
  138.6760   70.4870  223.8380 C   0  0  0  0  0  0  0  0  0  0  0  0
  138.6680   69.1300  224.0210 C   0  0  0  0  0  0  0  0  0  0  0  0
  139.2510   68.4910  225.0980 C   0  0  0  0  0  0  0  0  0  0  0  0
  139.8730   69.3110  226.0300 C   0  0  0  0  0  0  0  0  0  0  0  0
  140.4550   68.6960  227.1040 C   0  0  0  0  0  0  0  0  0  0  0  0
  141.0820   69.4860  228.0460 C   0  0  0  0  0  0  0  0  0  0  0  0
  141.6510   68.8640  229.0960 F   0  0  0  0  0  0  0  0  0  0  0  0
  141.1130   70.8700  227.8960 C   0  0  0  0  0  0  0  0  0  0  0  0
  140.5050   71.4470  226.7850 C   0  0  0  0  0  0  0  0  0  0  0  0
  139.8670   70.6710  225.8210 C   0  0  0  0  0  0  0  0  0  0  0  0
  139.2850   71.2540  224.7520 N   0  0  0  0  0  0  0  0  0  0  0  0
  138.7310   73.0560  223.0470 H   0  0  0  0  0  0  0  0  0  0  0  0
  138.0746   73.9462  220.9443 H   0  0  0  0  0  0  0  0  0  0  0  0
  137.5580   72.2915  220.4179 H   0  0  0  0  0  0  0  0  0  0  0  0
  134.7369   71.9493  223.5019 H   0  0  0  0  0  0  0  0  0  0  0  0
  136.3245   72.2423  224.1788 H   0  0  0  0  0  0  0  0  0  0  0  0
  133.6464   73.5988  224.8489 H   0  0  0  0  0  0  0  0  0  0  0  0
  134.9105   73.1771  225.9761 H   0  0  0  0  0  0  0  0  0  0  0  0
  134.7214   75.7332  225.2048 H   0  0  0  0  0  0  0  0  0  0  0  0
  136.3363   75.0711  225.1989 H   0  0  0  0  0  0  0  0  0  0  0  0
  134.4036   75.3920  222.7716 H   0  0  0  0  0  0  0  0  0  0  0  0
  137.9130   74.6220  222.8350 H   0  0  0  0  0  0  0  0  0  0  0  0
  138.4810   77.0594  221.4039 H   0  0  0  0  0  0  0  0  0  0  0  0
  138.6710   77.4303  223.1583 H   0  0  0  0  0  0  0  0  0  0  0  0
  140.4856   76.3233  223.3585 H   0  0  0  0  0  0  0  0  0  0  0  0
  139.6050   74.2300  223.0930 H   0  0  0  0  0  0  0  0  0  0  0  0
  141.7301   77.3122  222.0768 H   0  0  0  0  0  0  0  0  0  0  0  0
  139.7156   77.1777  219.9243 H   0  0  0  0  0  0  0  0  0  0  0  0
  140.1282   78.5164  221.0924 H   0  0  0  0  0  0  0  0  0  0  0  0
  141.0644   78.3990  218.5767 H   0  0  0  0  0  0  0  0  0  0  0  0
  141.9527   79.1369  219.9777 H   0  0  0  0  0  0  0  0  0  0  0  0
  143.3850   77.4110  220.0750 H   0  0  0  0  0  0  0  0  0  0  0  0
  141.2144   75.8806  218.7415 H   0  0  0  0  0  0  0  0  0  0  0  0
  142.8602   75.2398  218.8866 H   0  0  0  0  0  0  0  0  0  0  0  0
  141.2628   74.6428  220.8276 H   0  0  0  0  0  0  0  0  0  0  0  0
  142.8030   75.4364  221.3243 H   0  0  0  0  0  0  0  0  0  0  0  0
  138.1662   68.5102  223.2633 H   0  0  0  0  0  0  0  0  0  0  0  0
  139.2241   67.3971  225.2106 H   0  0  0  0  0  0  0  0  0  0  0  0
  140.4242   67.6019  227.2140 H   0  0  0  0  0  0  0  0  0  0  0  0
  141.6123   71.5000  228.6469 H   0  0  0  0  0  0  0  0  0  0  0  0
  140.5290   72.5403  226.6659 H   0  0  0  0  0  0  0  0  0  0  0  0
  1  2  2  0
  2  3  1  0
  3  4  1  0
  4  5  1  0
  5  6  2  0
  5  7  1  0
  7  8  1  0
  8  9  1  0
  9 10  1  0
 10 11  1  0
 11 12  1  0
 12 13  2  0
 12 14  1  0
 14 15  1  0
 15 16  1  0
 16 17  1  0
 16 18  1  0
 18 19  1  0
 19 20  1  0
 20 21  1  0
 21 22  1  0
 22 23  1  0
  2 24  1  0
 24 25  2  0
 25 26  1  0
 26 27  2  0
 27 28  1  0
 28 29  2  0
 29 30  1  0
 29 31  1  0
 31 32  2  0
 32 33  1  0
 33 34  2  0
 11  7  1  0
 23 18  1  0
 34 24  1  0
 33 27  1  0
  3 35  1  0
  4 36  1  0
  4 37  1  0
  8 38  1  0
  8 39  1  0
  9 40  1  0
  9 41  1  0
 10 42  1  0
 10 43  1  0
 11 44  1  6
 14 45  1  0
 15 46  1  0
 15 47  1  0
 16 48  1  1
 17 49  1  0
 18 50  1  0
 19 51  1  0
 19 52  1  0
 20 53  1  0
 20 54  1  0
 21 55  1  0
 22 56  1  0
 22 57  1  0
 23 58  1  0
 23 59  1  0
 25 60  1  0
 26 61  1  0
 28 62  1  0
 31 63  1  0
 32 64  1  0
M  END
>  <smiles>  (29) 
O=C(NCC(=O)N1CCC[C@H]1C(=O)NCC(O)C1CCNCC1)c1ccc2cc(F)ccc2n1

>  <score_type>  (29) 
oracle

>  <origin>  (29) 
autodockgpu

>  <m_score__min__energy>  (29) 
-8.9299999999999997

>  <m_primary>  (29) 
energy

>  <meeko>  (29) 
{"free_energy": -8.24, "intermolecular_energy": -10.92, "internal_energy": -3.67, "cluster_size": 5, "cluster_id": 2, "rank_in_cluster": 2}

>  <energy>  (29) 
-8.13

>  <cluster_rmsd>  (29) 
0.95

>  <rmsd>  (29) 
270.52

>  <cluster>  (29) 
2

$$$$

     RDKit          3D

 64 67  0  0  1  0  0  0  0  0999 V2000
  139.7280   72.9680  222.6920 O   0  0  0  0  0  0  0  0  0  0  0  0
  139.6980   71.7190  222.8370 C   0  0  0  0  0  0  0  0  0  0  0  0
  139.3140   70.8600  221.7630 N   0  0  0  0  0  0  0  0  0  0  0  0
  138.9560   71.4170  220.4960 C   0  0  0  0  0  0  0  0  0  0  0  0
  140.0160   72.3570  219.9870 C   0  0  0  0  0  0  0  0  0  0  0  0
  139.5700   73.4530  219.5260 O   0  0  0  0  0  0  0  0  0  0  0  0
  141.3930   72.0330  220.0240 N   0  0  0  0  0  0  0  0  0  0  0  0
  141.9750   70.9800  219.1740 C   0  0  0  0  0  0  0  0  0  0  0  0
  143.4140   70.8630  219.7060 C   0  0  0  0  0  0  0  0  0  0  0  0
  143.6880   72.2660  220.1970 C   0  0  0  0  0  0  0  0  0  0  0  0
  142.3770   72.6380  220.8480 C   0  0  1  0  0  0  0  0  0  0  0  0
  142.3310   74.1250  220.8550 C   0  0  0  0  0  0  0  0  0  0  0  0
  143.3040   74.8550  220.5560 O   0  0  0  0  0  0  0  0  0  0  0  0
  141.1220   74.7890  221.2180 N   0  0  0  0  0  0  0  0  0  0  0  0
  141.1220   76.2200  221.2110 C   0  0  0  0  0  0  0  0  0  0  0  0
  139.9120   76.7430  221.9040 C   0  0  1  0  0  0  0  0  0  0  0  0
  139.1250   75.7300  222.4580 O   0  0  0  0  0  0  0  0  0  0  0  0
  140.1030   77.9340  222.7760 C   0  0  0  0  0  0  0  0  0  0  0  0
  139.1150   79.0240  222.5930 C   0  0  0  0  0  0  0  0  0  0  0  0
  139.4130   80.2430  223.4350 C   0  0  0  0  0  0  0  0  0  0  0  0
  140.8210   80.3520  223.7560 N   0  0  0  0  0  0  0  0  0  0  0  0
  141.6050   79.9250  222.6230 C   0  0  0  0  0  0  0  0  0  0  0  0
  141.5370   78.3980  222.6110 C   0  0  0  0  0  0  0  0  0  0  0  0
  140.0650   71.1300  224.1410 C   0  0  0  0  0  0  0  0  0  0  0  0
  140.6920   71.9050  225.0800 C   0  0  0  0  0  0  0  0  0  0  0  0
  141.0750   71.4520  226.3260 C   0  0  0  0  0  0  0  0  0  0  0  0
  140.7880   70.1230  226.6070 C   0  0  0  0  0  0  0  0  0  0  0  0
  141.1600   69.6560  227.8370 C   0  0  0  0  0  0  0  0  0  0  0  0
  140.8870   68.3380  228.1440 C   0  0  0  0  0  0  0  0  0  0  0  0
  141.2600   67.8950  229.3590 F   0  0  0  0  0  0  0  0  0  0  0  0
  140.2500   67.5170  227.2170 C   0  0  0  0  0  0  0  0  0  0  0  0
  139.8920   68.0410  225.9780 C   0  0  0  0  0  0  0  0  0  0  0  0
  140.1560   69.3670  225.6460 C   0  0  0  0  0  0  0  0  0  0  0  0
  139.7990   69.8520  224.4390 N   0  0  0  0  0  0  0  0  0  0  0  0
  139.3020   69.8110  221.9260 H   0  0  0  0  0  0  0  0  0  0  0  0
  138.8244   70.6003  219.7709 H   0  0  0  0  0  0  0  0  0  0  0  0
  138.0221   71.9848  220.6202 H   0  0  0  0  0  0  0  0  0  0  0  0
  141.4314   70.0310  219.2919 H   0  0  0  0  0  0  0  0  0  0  0  0
  141.9271   71.2135  218.1001 H   0  0  0  0  0  0  0  0  0  0  0  0
  143.4776   70.1336  220.5269 H   0  0  0  0  0  0  0  0  0  0  0  0
  144.1352   70.5095  218.9544 H   0  0  0  0  0  0  0  0  0  0  0  0
  144.5128   72.2799  220.9247 H   0  0  0  0  0  0  0  0  0  0  0  0
  143.9984   72.9594  219.4015 H   0  0  0  0  0  0  0  0  0  0  0  0
  142.2291   72.3016  221.8848 H   0  0  0  0  0  0  0  0  0  0  0  0
  140.3180   74.1740  221.4570 H   0  0  0  0  0  0  0  0  0  0  0  0
  142.0218   76.5849  221.7279 H   0  0  0  0  0  0  0  0  0  0  0  0
  141.1159   76.5715  220.1687 H   0  0  0  0  0  0  0  0  0  0  0  0
  139.3162   77.1784  221.0883 H   0  0  0  0  0  0  0  0  0  0  0  0
  139.6030   75.1050  223.0240 H   0  0  0  0  0  0  0  0  0  0  0  0
  139.9112   77.6278  223.8150 H   0  0  0  0  0  0  0  0  0  0  0  0
  139.1146   79.3218  221.5341 H   0  0  0  0  0  0  0  0  0  0  0  0
  138.1365   78.6363  222.9127 H   0  0  0  0  0  0  0  0  0  0  0  0
  139.1051   81.1414  222.8800 H   0  0  0  0  0  0  0  0  0  0  0  0
  138.8566   80.1471  224.3790 H   0  0  0  0  0  0  0  0  0  0  0  0
  141.0640   79.8170  224.6160 H   0  0  0  0  0  0  0  0  0  0  0  0
  141.1843   80.3331  221.6922 H   0  0  0  0  0  0  0  0  0  0  0  0
  142.6435   80.2802  222.6964 H   0  0  0  0  0  0  0  0  0  0  0  0
  141.9314   78.0247  221.6544 H   0  0  0  0  0  0  0  0  0  0  0  0
  142.1381   78.0064  223.4449 H   0  0  0  0  0  0  0  0  0  0  0  0
  140.9035   72.9540  224.8252 H   0  0  0  0  0  0  0  0  0  0  0  0
  141.5781   72.1055  227.0538 H   0  0  0  0  0  0  0  0  0  0  0  0
  141.6631   70.3125  228.5622 H   0  0  0  0  0  0  0  0  0  0  0  0
  140.0323   66.4667  227.4609 H   0  0  0  0  0  0  0  0  0  0  0  0
  139.3893   67.3929  225.2450 H   0  0  0  0  0  0  0  0  0  0  0  0
  1  2  2  0
  2  3  1  0
  3  4  1  0
  4  5  1  0
  5  6  2  0
  5  7  1  0
  7  8  1  0
  8  9  1  0
  9 10  1  0
 10 11  1  0
 11 12  1  0
 12 13  2  0
 12 14  1  0
 14 15  1  0
 15 16  1  0
 16 17  1  0
 16 18  1  0
 18 19  1  0
 19 20  1  0
 20 21  1  0
 21 22  1  0
 22 23  1  0
  2 24  1  0
 24 25  2  0
 25 26  1  0
 26 27  2  0
 27 28  1  0
 28 29  2  0
 29 30  1  0
 29 31  1  0
 31 32  2  0
 32 33  1  0
 33 34  2  0
 11  7  1  0
 23 18  1  0
 34 24  1  0
 33 27  1  0
  3 35  1  0
  4 36  1  0
  4 37  1  0
  8 38  1  0
  8 39  1  0
  9 40  1  0
  9 41  1  0
 10 42  1  0
 10 43  1  0
 11 44  1  1
 14 45  1  0
 15 46  1  0
 15 47  1  0
 16 48  1  6
 17 49  1  0
 18 50  1  0
 19 51  1  0
 19 52  1  0
 20 53  1  0
 20 54  1  0
 21 55  1  0
 22 56  1  0
 22 57  1  0
 23 58  1  0
 23 59  1  0
 25 60  1  0
 26 61  1  0
 28 62  1  0
 31 63  1  0
 32 64  1  0
M  END
>  <smiles>  (30) 
O=C(NCC(=O)N1CCC[C@H]1C(=O)NCC(O)C1CCNCC1)c1ccc2cc(F)ccc2n1

>  <score_type>  (30) 
oracle

>  <origin>  (30) 
autodockgpu

>  <m_score__min__energy>  (30) 
-8.9299999999999997

>  <m_primary>  (30) 
energy

>  <meeko>  (30) 
{"free_energy": -7.42, "intermolecular_energy": -10.11, "internal_energy": -4.86, "cluster_size": 5, "cluster_id": 1, "rank_in_cluster": 4}

>  <energy>  (30) 
-7.64

>  <cluster_rmsd>  (30) 
1.39

>  <rmsd>  (30) 
270.17

>  <cluster>  (30) 
2

$$$$

     RDKit          3D

 64 67  0  0  1  0  0  0  0  0999 V2000
  139.9040   73.6420  222.5710 O   0  0  0  0  0  0  0  0  0  0  0  0
  140.2660   72.4450  222.4400 C   0  0  0  0  0  0  0  0  0  0  0  0
  140.7340   71.9490  221.1860 N   0  0  0  0  0  0  0  0  0  0  0  0
  140.7960   72.8180  220.0520 C   0  0  0  0  0  0  0  0  0  0  0  0
  141.9980   73.7240  220.1160 C   0  0  0  0  0  0  0  0  0  0  0  0
  142.1620   74.3020  221.2340 O   0  0  0  0  0  0  0  0  0  0  0  0
  142.8640   73.9070  219.0120 N   0  0  0  0  0  0  0  0  0  0  0  0
  143.0100   72.8940  217.9530 C   0  0  0  0  0  0  0  0  0  0  0  0
  144.1770   73.4400  217.1120 C   0  0  0  0  0  0  0  0  0  0  0  0
  144.0390   74.9330  217.3050 C   0  0  0  0  0  0  0  0  0  0  0  0
  143.6900   75.0350  218.7700 C   0  0  1  0  0  0  0  0  0  0  0  0
  142.9960   76.3400  218.9360 C   0  0  0  0  0  0  0  0  0  0  0  0
  142.8420   77.1710  218.0110 O   0  0  0  0  0  0  0  0  0  0  0  0
  142.4640   76.6970  220.2100 N   0  0  0  0  0  0  0  0  0  0  0  0
  141.8050   77.9610  220.3250 C   0  0  0  0  0  0  0  0  0  0  0  0
  140.9950   78.0140  221.5740 C   0  0  1  0  0  0  0  0  0  0  0  0
  141.0890   76.8420  222.3300 O   0  0  0  0  0  0  0  0  0  0  0  0
  141.0630   79.2740  222.3620 C   0  0  0  0  0  0  0  0  0  0  0  0
  141.3010   80.5070  221.5730 C   0  0  0  0  0  0  0  0  0  0  0  0
  141.4550   81.7420  222.4320 C   0  0  0  0  0  0  0  0  0  0  0  0
  141.9250   81.4220  223.7640 N   0  0  0  0  0  0  0  0  0  0  0  0
  142.8880   80.3490  223.6880 C   0  0  0  0  0  0  0  0  0  0  0  0
  142.0800   79.0710  223.4680 C   0  0  0  0  0  0  0  0  0  0  0  0
  140.2070   71.5370  223.6030 C   0  0  0  0  0  0  0  0  0  0  0  0
  139.6420   70.2970  223.4630 C   0  0  0  0  0  0  0  0  0  0  0  0
  139.5380   69.3750  224.4850 C   0  0  0  0  0  0  0  0  0  0  0  0
  140.0490   69.7670  225.7150 C   0  0  0  0  0  0  0  0  0  0  0  0
  139.9540   68.8660  226.7400 C   0  0  0  0  0  0  0  0  0  0  0  0
  140.4550   69.2280  227.9740 C   0  0  0  0  0  0  0  0  0  0  0  0
  140.3540   68.3300  228.9720 F   0  0  0  0  0  0  0  0  0  0  0  0
  141.0380   70.4800  228.1570 C   0  0  0  0  0  0  0  0  0  0  0  0
  141.1090   71.3610  227.0820 C   0  0  0  0  0  0  0  0  0  0  0  0
  140.6120   71.0170  225.8270 C   0  0  0  0  0  0  0  0  0  0  0  0
  140.6930   71.8880  224.8000 N   0  0  0  0  0  0  0  0  0  0  0  0
  141.0320   70.9330  221.1170 H   0  0  0  0  0  0  0  0  0  0  0  0
  140.8556   72.2091  219.1379 H   0  0  0  0  0  0  0  0  0  0  0  0
  139.8916   73.4442  220.0471 H   0  0  0  0  0  0  0  0  0  0  0  0
  143.2555   71.9097  218.3783 H   0  0  0  0  0  0  0  0  0  0  0  0
  142.0899   72.7398  217.3701 H   0  0  0  0  0  0  0  0  0  0  0  0
  145.1444   73.0769  217.4891 H   0  0  0  0  0  0  0  0  0  0  0  0
  144.1462   73.1264  216.0581 H   0  0  0  0  0  0  0  0  0  0  0  0
  144.9827   75.4527  217.0828 H   0  0  0  0  0  0  0  0  0  0  0  0
  143.2949   75.3969  216.6408 H   0  0  0  0  0  0  0  0  0  0  0  0
  144.5314   75.0197  219.4784 H   0  0  0  0  0  0  0  0  0  0  0  0
  142.5900   75.9970  220.9690 H   0  0  0  0  0  0  0  0  0  0  0  0
  142.5588   78.7618  220.3479 H   0  0  0  0  0  0  0  0  0  0  0  0
  141.1370   78.0944  219.4613 H   0  0  0  0  0  0  0  0  0  0  0  0
  139.9586   78.0567  221.2078 H   0  0  0  0  0  0  0  0  0  0  0  0
  141.8340   76.2660  222.0990 H   0  0  0  0  0  0  0  0  0  0  0  0
  140.0651   79.4639  222.7840 H   0  0  0  0  0  0  0  0  0  0  0  0
  142.2205   80.3735  220.9842 H   0  0  0  0  0  0  0  0  0  0  0  0
  140.4199   80.6612  220.9328 H   0  0  0  0  0  0  0  0  0  0  0  0
  142.1778   82.4193  221.9537 H   0  0  0  0  0  0  0  0  0  0  0  0
  140.4667   82.2159  222.5255 H   0  0  0  0  0  0  0  0  0  0  0  0
  141.1390   81.1900  224.4070 H   0  0  0  0  0  0  0  0  0  0  0  0
  143.5782   80.5140  222.8475 H   0  0  0  0  0  0  0  0  0  0  0  0
  143.4958   80.2883  224.6028 H   0  0  0  0  0  0  0  0  0  0  0  0
  142.7619   78.2544  223.1883 H   0  0  0  0  0  0  0  0  0  0  0  0
  141.5504   78.8184  224.3985 H   0  0  0  0  0  0  0  0  0  0  0  0
  139.2467   70.0187  222.4749 H   0  0  0  0  0  0  0  0  0  0  0  0
  139.0773   68.3876  224.3338 H   0  0  0  0  0  0  0  0  0  0  0  0
  139.4911   67.8803  226.5850 H   0  0  0  0  0  0  0  0  0  0  0  0
  141.4377   70.7690  229.1402 H   0  0  0  0  0  0  0  0  0  0  0  0
  141.5675   72.3504  227.2265 H   0  0  0  0  0  0  0  0  0  0  0  0
  1  2  2  0
  2  3  1  0
  3  4  1  0
  4  5  1  0
  5  6  2  0
  5  7  1  0
  7  8  1  0
  8  9  1  0
  9 10  1  0
 10 11  1  0
 11 12  1  0
 12 13  2  0
 12 14  1  0
 14 15  1  0
 15 16  1  0
 16 17  1  0
 16 18  1  0
 18 19  1  0
 19 20  1  0
 20 21  1  0
 21 22  1  0
 22 23  1  0
  2 24  1  0
 24 25  2  0
 25 26  1  0
 26 27  2  0
 27 28  1  0
 28 29  2  0
 29 30  1  0
 29 31  1  0
 31 32  2  0
 32 33  1  0
 33 34  2  0
 11  7  1  0
 23 18  1  0
 34 24  1  0
 33 27  1  0
  3 35  1  0
  4 36  1  0
  4 37  1  0
  8 38  1  0
  8 39  1  0
  9 40  1  0
  9 41  1  0
 10 42  1  0
 10 43  1  0
 11 44  1  1
 14 45  1  0
 15 46  1  0
 15 47  1  0
 16 48  1  6
 17 49  1  0
 18 50  1  0
 19 51  1  0
 19 52  1  0
 20 53  1  0
 20 54  1  0
 21 55  1  0
 22 56  1  0
 22 57  1  0
 23 58  1  0
 23 59  1  0
 25 60  1  0
 26 61  1  0
 28 62  1  0
 31 63  1  0
 32 64  1  0
M  END
>  <smiles>  (31) 
O=C(NCC(=O)N1CCC[C@H]1C(=O)NCC(O)C1CCNCC1)c1ccc2cc(F)ccc2n1

>  <score_type>  (31) 
oracle

>  <origin>  (31) 
autodockgpu

>  <m_score__min__energy>  (31) 
-8.9299999999999997

>  <m_primary>  (31) 
energy

>  <meeko>  (31) 
{"free_energy": -8.93, "intermolecular_energy": -11.61, "internal_energy": -3.51, "cluster_size": 5, "cluster_id": 1, "rank_in_cluster": 1}

>  <energy>  (31) 
-8.37

>  <cluster_rmsd>  (31) 
0.0

>  <rmsd>  (31) 
270.35

>  <cluster>  (31) 
3

$$$$

     RDKit          3D

 64 67  0  0  1  0  0  0  0  0999 V2000
  138.4440   72.5510  221.9210 O   0  0  0  0  0  0  0  0  0  0  0  0
  139.5540   72.3310  222.4710 C   0  0  0  0  0  0  0  0  0  0  0  0
  140.7590   72.8930  221.9500 N   0  0  0  0  0  0  0  0  0  0  0  0
  140.7170   73.7220  220.7860 C   0  0  0  0  0  0  0  0  0  0  0  0
  139.7290   74.8480  220.9460 C   0  0  0  0  0  0  0  0  0  0  0  0
  138.5670   74.5950  220.5020 O   0  0  0  0  0  0  0  0  0  0  0  0
  140.0810   76.0810  221.5430 N   0  0  0  0  0  0  0  0  0  0  0  0
  141.1500   76.9390  221.0020 C   0  0  0  0  0  0  0  0  0  0  0  0
  141.2950   78.0310  222.0770 C   0  0  0  0  0  0  0  0  0  0  0  0
  139.8950   78.1070  222.6440 C   0  0  0  0  0  0  0  0  0  0  0  0
  139.4940   76.6530  222.7020 C   0  0  1  0  0  0  0  0  0  0  0  0
  138.0070   76.6380  222.6970 C   0  0  0  0  0  0  0  0  0  0  0  0
  137.2990   77.6710  222.7230 O   0  0  0  0  0  0  0  0  0  0  0  0
  137.3160   75.3910  222.6590 N   0  0  0  0  0  0  0  0  0  0  0  0
  135.8850   75.4230  222.6560 C   0  0  0  0  0  0  0  0  0  0  0  0
  135.3360   74.1590  223.2200 C   0  0  1  0  0  0  0  0  0  0  0  0
  136.3130   73.1770  223.4030 O   0  0  0  0  0  0  0  0  0  0  0  0
  134.3680   74.2950  224.3430 C   0  0  0  0  0  0  0  0  0  0  0  0
  134.7400   75.2740  225.3920 C   0  0  0  0  0  0  0  0  0  0  0  0
  133.7690   75.3020  226.5500 C   0  0  0  0  0  0  0  0  0  0  0  0
  133.0700   74.0430  226.7040 N   0  0  0  0  0  0  0  0  0  0  0  0
  133.9720   72.9550  226.4140 C   0  0  0  0  0  0  0  0  0  0  0  0
  134.1030   72.9070  224.8920 C   0  0  0  0  0  0  0  0  0  0  0  0
  139.6130   71.4760  223.6730 C   0  0  0  0  0  0  0  0  0  0  0  0
  138.9810   70.2610  223.6690 C   0  0  0  0  0  0  0  0  0  0  0  0
  138.9770   69.3880  224.7390 C   0  0  0  0  0  0  0  0  0  0  0  0
  139.6660   69.8050  225.8690 C   0  0  0  0  0  0  0  0  0  0  0  0
  139.6720   68.9540  226.9400 C   0  0  0  0  0  0  0  0  0  0  0  0
  140.3510   69.3420  228.0780 C   0  0  0  0  0  0  0  0  0  0  0  0
  140.3470   68.4920  229.1220 F   0  0  0  0  0  0  0  0  0  0  0  0
  141.0070   70.5700  228.1210 C   0  0  0  0  0  0  0  0  0  0  0  0
  140.9710   71.4000  227.0050 C   0  0  0  0  0  0  0  0  0  0  0  0
  140.2930   71.0300  225.8460 C   0  0  0  0  0  0  0  0  0  0  0  0
  140.2720   71.8530  224.7760 N   0  0  0  0  0  0  0  0  0  0  0  0
  141.6760   72.6840  222.4430 H   0  0  0  0  0  0  0  0  0  0  0  0
  141.7171   74.1459  220.6127 H   0  0  0  0  0  0  0  0  0  0  0  0
  140.4007   73.1037  219.9329 H   0  0  0  0  0  0  0  0  0  0  0  0
  142.0869   76.3752  220.8823 H   0  0  0  0  0  0  0  0  0  0  0  0
  140.9200   77.3409  220.0042 H   0  0  0  0  0  0  0  0  0  0  0  0
  142.0225   77.7377  222.8482 H   0  0  0  0  0  0  0  0  0  0  0  0
  141.6663   78.9898  221.6860 H   0  0  0  0  0  0  0  0  0  0  0  0
  139.8948   78.5609  223.6460 H   0  0  0  0  0  0  0  0  0  0  0  0
  139.2111   78.7298  222.0487 H   0  0  0  0  0  0  0  0  0  0  0  0
  139.8241   76.0867  223.5853 H   0  0  0  0  0  0  0  0  0  0  0  0
  137.9130   74.5390  222.6300 H   0  0  0  0  0  0  0  0  0  0  0  0
  135.5402   76.2715  223.2653 H   0  0  0  0  0  0  0  0  0  0  0  0
  135.5329   75.5337  221.6198 H   0  0  0  0  0  0  0  0  0  0  0  0
  134.6778   73.7849  222.4220 H   0  0  0  0  0  0  0  0  0  0  0  0
  137.2250   73.5080  223.4240 H   0  0  0  0  0  0  0  0  0  0  0  0
  133.4437   74.7359  223.9415 H   0  0  0  0  0  0  0  0  0  0  0  0
  135.7365   75.0122  225.7773 H   0  0  0  0  0  0  0  0  0  0  0  0
  134.7258   76.2716  224.9287 H   0  0  0  0  0  0  0  0  0  0  0  0
  134.3255   75.5144  227.4748 H   0  0  0  0  0  0  0  0  0  0  0  0
  133.0211   76.0826  226.3468 H   0  0  0  0  0  0  0  0  0  0  0  0
  132.2140   74.0010  226.1120 H   0  0  0  0  0  0  0  0  0  0  0  0
  134.9532   73.1391  226.8760 H   0  0  0  0  0  0  0  0  0  0  0  0
  133.5949   72.0027  226.8151 H   0  0  0  0  0  0  0  0  0  0  0  0
  134.9375   72.2438  224.6203 H   0  0  0  0  0  0  0  0  0  0  0  0
  133.1642   72.5259  224.4638 H   0  0  0  0  0  0  0  0  0  0  0  0
  138.4433   69.9620  222.7571 H   0  0  0  0  0  0  0  0  0  0  0  0
  138.4581   68.4189  224.6979 H   0  0  0  0  0  0  0  0  0  0  0  0
  139.1500   67.9867  226.8958 H   0  0  0  0  0  0  0  0  0  0  0  0
  141.5476   70.8801  229.0274 H   0  0  0  0  0  0  0  0  0  0  0  0
  141.4893   72.3696  227.0388 H   0  0  0  0  0  0  0  0  0  0  0  0
  1  2  2  0
  2  3  1  0
  3  4  1  0
  4  5  1  0
  5  6  2  0
  5  7  1  0
  7  8  1  0
  8  9  1  0
  9 10  1  0
 10 11  1  0
 11 12  1  0
 12 13  2  0
 12 14  1  0
 14 15  1  0
 15 16  1  0
 16 17  1  0
 16 18  1  0
 18 19  1  0
 19 20  1  0
 20 21  1  0
 21 22  1  0
 22 23  1  0
  2 24  1  0
 24 25  2  0
 25 26  1  0
 26 27  2  0
 27 28  1  0
 28 29  2  0
 29 30  1  0
 29 31  1  0
 31 32  2  0
 32 33  1  0
 33 34  2  0
 11  7  1  0
 23 18  1  0
 34 24  1  0
 33 27  1  0
  3 35  1  0
  4 36  1  0
  4 37  1  0
  8 38  1  0
  8 39  1  0
  9 40  1  0
  9 41  1  0
 10 42  1  0
 10 43  1  0
 11 44  1  1
 14 45  1  0
 15 46  1  0
 15 47  1  0
 16 48  1  6
 17 49  1  0
 18 50  1  0
 19 51  1  0
 19 52  1  0
 20 53  1  0
 20 54  1  0
 21 55  1  0
 22 56  1  0
 22 57  1  0
 23 58  1  0
 23 59  1  0
 25 60  1  0
 26 61  1  0
 28 62  1  0
 31 63  1  0
 32 64  1  0
M  END
>  <smiles>  (32) 
O=C(NCC(=O)N1CCC[C@H]1C(=O)NCC(O)C1CCNCC1)c1ccc2cc(F)ccc2n1

>  <score_type>  (32) 
oracle

>  <origin>  (32) 
autodockgpu

>  <m_score__min__energy>  (32) 
-8.9299999999999997

>  <m_primary>  (32) 
energy

>  <meeko>  (32) 
{"free_energy": -7.81, "intermolecular_energy": -10.49, "internal_energy": -4.5, "cluster_size": 2, "cluster_id": 4, "rank_in_cluster": 2}

>  <energy>  (32) 
-8.05

>  <cluster_rmsd>  (32) 
1.81

>  <rmsd>  (32) 
270.08

>  <cluster>  (32) 
3

$$$$

     RDKit          3D

 64 67  0  0  1  0  0  0  0  0999 V2000
  139.9260   73.0790  222.8300 O   0  0  0  0  0  0  0  0  0  0  0  0
  139.5120   71.9130  223.0560 C   0  0  0  0  0  0  0  0  0  0  0  0
  138.6410   71.2490  222.1390 N   0  0  0  0  0  0  0  0  0  0  0  0
  138.2280   71.9090  220.9410 C   0  0  0  0  0  0  0  0  0  0  0  0
  137.7020   73.2920  221.2250 C   0  0  0  0  0  0  0  0  0  0  0  0
  138.2830   74.2180  220.5790 O   0  0  0  0  0  0  0  0  0  0  0  0
  136.6480   73.5250  222.1400 N   0  0  0  0  0  0  0  0  0  0  0  0
  136.1660   72.4840  223.0630 C   0  0  0  0  0  0  0  0  0  0  0  0
  134.9170   73.1290  223.6890 C   0  0  0  0  0  0  0  0  0  0  0  0
  135.2630   74.6000  223.6480 C   0  0  0  0  0  0  0  0  0  0  0  0
  135.9240   74.7350  222.2980 C   0  0  1  0  0  0  0  0  0  0  0  0
  136.7820   75.9480  222.3810 C   0  0  0  0  0  0  0  0  0  0  0  0
  136.3480   77.1180  222.2740 O   0  0  0  0  0  0  0  0  0  0  0  0
  138.1850   75.8040  222.5950 N   0  0  0  0  0  0  0  0  0  0  0  0
  138.9720   76.9960  222.6690 C   0  0  0  0  0  0  0  0  0  0  0  0
  140.4230   76.6600  222.6940 C   0  0  1  0  0  0  0  0  0  0  0  0
  140.7250   75.5090  221.9610 O   0  0  0  0  0  0  0  0  0  0  0  0
  141.3740   77.7890  222.5060 C   0  0  0  0  0  0  0  0  0  0  0  0
  141.5200   78.7000  223.6670 C   0  0  0  0  0  0  0  0  0  0  0  0
  142.4240   79.8790  223.3870 C   0  0  0  0  0  0  0  0  0  0  0  0
  142.4700   80.2060  221.9770 N   0  0  0  0  0  0  0  0  0  0  0  0
  141.1620   80.0190  221.3980 C   0  0  0  0  0  0  0  0  0  0  0  0
  140.9840   78.5100  221.2300 C   0  0  0  0  0  0  0  0  0  0  0  0
  139.9300   71.2200  224.2900 C   0  0  0  0  0  0  0  0  0  0  0  0
  140.6910   71.8850  225.2140 C   0  0  0  0  0  0  0  0  0  0  0  0
  141.1320   71.3290  226.3980 C   0  0  0  0  0  0  0  0  0  0  0  0
  140.7600   70.0120  226.6290 C   0  0  0  0  0  0  0  0  0  0  0  0
  141.1880   69.4430  227.7970 C   0  0  0  0  0  0  0  0  0  0  0  0
  140.8320   68.1340  228.0540 C   0  0  0  0  0  0  0  0  0  0  0  0
  141.2620   67.5910  229.2080 F   0  0  0  0  0  0  0  0  0  0  0  0
  140.0580   67.4240  227.1410 C   0  0  0  0  0  0  0  0  0  0  0  0
  139.6470   68.0480  225.9660 C   0  0  0  0  0  0  0  0  0  0  0  0
  139.9940   69.3670  225.6850 C   0  0  0  0  0  0  0  0  0  0  0  0
  139.5830   69.9500  224.5400 N   0  0  0  0  0  0  0  0  0  0  0  0
  138.3140   70.2650  222.3660 H   0  0  0  0  0  0  0  0  0  0  0  0
  139.0890   71.9869  220.2609 H   0  0  0  0  0  0  0  0  0  0  0  0
  137.4195   71.3197  220.4838 H   0  0  0  0  0  0  0  0  0  0  0  0
  135.9057   71.5635  222.5199 H   0  0  0  0  0  0  0  0  0  0  0  0
  136.9177   72.1823  223.8073 H   0  0  0  0  0  0  0  0  0  0  0  0
  134.0167   72.9143  223.0945 H   0  0  0  0  0  0  0  0  0  0  0  0
  134.6869   72.7574  224.6984 H   0  0  0  0  0  0  0  0  0  0  0  0
  134.3596   75.2241  223.7138 H   0  0  0  0  0  0  0  0  0  0  0  0
  135.8973   74.9277  224.4848 H   0  0  0  0  0  0  0  0  0  0  0  0
  135.2558   74.8659  221.4341 H   0  0  0  0  0  0  0  0  0  0  0  0
  138.5340   74.8280  222.6900 H   0  0  0  0  0  0  0  0  0  0  0  0
  138.7607   77.6248  221.7915 H   0  0  0  0  0  0  0  0  0  0  0  0
  138.7151   77.5363  223.5921 H   0  0  0  0  0  0  0  0  0  0  0  0
  140.6107   76.4063  223.7478 H   0  0  0  0  0  0  0  0  0  0  0  0
  139.9650   74.9440  221.7560 H   0  0  0  0  0  0  0  0  0  0  0  0
  142.3869   77.3687  222.4198 H   0  0  0  0  0  0  0  0  0  0  0  0
  140.5247   79.0796  223.9412 H   0  0  0  0  0  0  0  0  0  0  0  0
  141.9795   78.1212  224.4818 H   0  0  0  0  0  0  0  0  0  0  0  0
  142.0505   80.7523  223.9418 H   0  0  0  0  0  0  0  0  0  0  0  0
  143.4416   79.6095  223.7061 H   0  0  0  0  0  0  0  0  0  0  0  0
  143.1960   79.6520  221.4750 H   0  0  0  0  0  0  0  0  0  0  0  0
  140.3874   80.4226  222.0666 H   0  0  0  0  0  0  0  0  0  0  0  0
  141.0699   80.5439  220.4357 H   0  0  0  0  0  0  0  0  0  0  0  0
  139.9311   78.2924  220.9975 H   0  0  0  0  0  0  0  0  0  0  0  0
  141.6303   78.1624  220.4106 H   0  0  0  0  0  0  0  0  0  0  0  0
  140.9682   72.9276  224.9993 H   0  0  0  0  0  0  0  0  0  0  0  0
  141.7423   71.8963  227.1161 H   0  0  0  0  0  0  0  0  0  0  0  0
  141.7993   70.0129  228.5122 H   0  0  0  0  0  0  0  0  0  0  0  0
  139.7740   66.3811  227.3454 H   0  0  0  0  0  0  0  0  0  0  0  0
  139.0351   67.4870  225.2443 H   0  0  0  0  0  0  0  0  0  0  0  0
  1  2  2  0
  2  3  1  0
  3  4  1  0
  4  5  1  0
  5  6  2  0
  5  7  1  0
  7  8  1  0
  8  9  1  0
  9 10  1  0
 10 11  1  0
 11 12  1  0
 12 13  2  0
 12 14  1  0
 14 15  1  0
 15 16  1  0
 16 17  1  0
 16 18  1  0
 18 19  1  0
 19 20  1  0
 20 21  1  0
 21 22  1  0
 22 23  1  0
  2 24  1  0
 24 25  2  0
 25 26  1  0
 26 27  2  0
 27 28  1  0
 28 29  2  0
 29 30  1  0
 29 31  1  0
 31 32  2  0
 32 33  1  0
 33 34  2  0
 11  7  1  0
 23 18  1  0
 34 24  1  0
 33 27  1  0
  3 35  1  0
  4 36  1  0
  4 37  1  0
  8 38  1  0
  8 39  1  0
  9 40  1  0
  9 41  1  0
 10 42  1  0
 10 43  1  0
 11 44  1  6
 14 45  1  0
 15 46  1  0
 15 47  1  0
 16 48  1  1
 17 49  1  0
 18 50  1  0
 19 51  1  0
 19 52  1  0
 20 53  1  0
 20 54  1  0
 21 55  1  0
 22 56  1  0
 22 57  1  0
 23 58  1  0
 23 59  1  0
 25 60  1  0
 26 61  1  0
 28 62  1  0
 31 63  1  0
 32 64  1  0
M  END
>  <smiles>  (33) 
O=C(NCC(=O)N1CCC[C@H]1C(=O)NCC(O)C1CCNCC1)c1ccc2cc(F)ccc2n1

>  <score_type>  (33) 
oracle

>  <origin>  (33) 
autodockgpu

>  <m_score__min__energy>  (33) 
-8.9299999999999997

>  <m_primary>  (33) 
energy

>  <meeko>  (33) 
{"free_energy": -8.18, "intermolecular_energy": -10.87, "internal_energy": -4.98, "cluster_size": 5, "cluster_id": 2, "rank_in_cluster": 3}

>  <energy>  (33) 
-8.02

>  <cluster_rmsd>  (33) 
1.81

>  <rmsd>  (33) 
270.06

>  <cluster>  (33) 
3

$$$$

     RDKit          3D

 64 67  0  0  1  0  0  0  0  0999 V2000
  140.3190   73.3170  222.3450 O   0  0  0  0  0  0  0  0  0  0  0  0
  140.4090   74.2620  221.5210 C   0  0  0  0  0  0  0  0  0  0  0  0
  140.7880   74.0240  220.1650 N   0  0  0  0  0  0  0  0  0  0  0  0
  141.0710   72.6940  219.7250 C   0  0  0  0  0  0  0  0  0  0  0  0
  142.4750   72.5760  219.1910 C   0  0  0  0  0  0  0  0  0  0  0  0
  142.5570   72.0390  218.0440 O   0  0  0  0  0  0  0  0  0  0  0  0
  143.6000   73.0300  219.9190 N   0  0  0  0  0  0  0  0  0  0  0  0
  144.7070   72.1330  220.2930 C   0  0  0  0  0  0  0  0  0  0  0  0
  145.5650   73.0100  221.2210 C   0  0  0  0  0  0  0  0  0  0  0  0
  145.3020   74.3980  220.6800 C   0  0  0  0  0  0  0  0  0  0  0  0
  143.8220   74.3510  220.3860 C   0  0  1  0  0  0  0  0  0  0  0  0
  143.5750   75.4040  219.3640 C   0  0  0  0  0  0  0  0  0  0  0  0
  143.8550   75.2760  218.1500 O   0  0  0  0  0  0  0  0  0  0  0  0
  142.9850   76.6410  219.7570 N   0  0  0  0  0  0  0  0  0  0  0  0
  142.7650   77.6250  218.7420 C   0  0  0  0  0  0  0  0  0  0  0  0
  141.3090   77.9000  218.5930 C   0  0  1  0  0  0  0  0  0  0  0  0
  140.5100   76.9780  219.2750 O   0  0  0  0  0  0  0  0  0  0  0  0
  140.8800   79.3190  218.7270 C   0  0  0  0  0  0  0  0  0  0  0  0
  141.7300   80.1620  219.6020 C   0  0  0  0  0  0  0  0  0  0  0  0
  141.1960   81.5660  219.7760 C   0  0  0  0  0  0  0  0  0  0  0  0
  139.7620   81.6290  219.5860 N   0  0  0  0  0  0  0  0  0  0  0  0
  139.1520   80.4440  220.1390 C   0  0  0  0  0  0  0  0  0  0  0  0
  139.4200   79.3220  219.1370 C   0  0  0  0  0  0  0  0  0  0  0  0
  140.1210   75.6410  221.9620 C   0  0  0  0  0  0  0  0  0  0  0  0
  138.8260   76.0170  222.2030 C   0  0  0  0  0  0  0  0  0  0  0  0
  138.4510   77.2790  222.6190 C   0  0  0  0  0  0  0  0  0  0  0  0
  139.4800   78.1950  222.7920 C   0  0  0  0  0  0  0  0  0  0  0  0
  139.1280   79.4510  223.2030 C   0  0  0  0  0  0  0  0  0  0  0  0
  140.1300   80.3830  223.3840 C   0  0  0  0  0  0  0  0  0  0  0  0
  139.7670   81.6140  223.7890 F   0  0  0  0  0  0  0  0  0  0  0  0
  141.4600   80.0400  223.1510 C   0  0  0  0  0  0  0  0  0  0  0  0
  141.7660   78.7480  222.7330 C   0  0  0  0  0  0  0  0  0  0  0  0
  140.7720   77.7910  222.5440 C   0  0  0  0  0  0  0  0  0  0  0  0
  141.0940   76.5450  222.1390 N   0  0  0  0  0  0  0  0  0  0  0  0
  140.8520   74.8490  219.5000 H   0  0  0  0  0  0  0  0  0  0  0  0
  140.9521   72.0040  220.5734 H   0  0  0  0  0  0  0  0  0  0  0  0
  140.3712   72.4424  218.9145 H   0  0  0  0  0  0  0  0  0  0  0  0
  144.3338   71.2441  220.8228 H   0  0  0  0  0  0  0  0  0  0  0  0
  145.2629   71.7461  219.4263 H   0  0  0  0  0  0  0  0  0  0  0  0
  145.2389   72.9213  222.2678 H   0  0  0  0  0  0  0  0  0  0  0  0
  146.6297   72.7337  221.2306 H   0  0  0  0  0  0  0  0  0  0  0  0
  145.5354   75.1689  221.4292 H   0  0  0  0  0  0  0  0  0  0  0  0
  145.9178   74.6549  219.8055 H   0  0  0  0  0  0  0  0  0  0  0  0
  143.1455   74.5489  221.2305 H   0  0  0  0  0  0  0  0  0  0  0  0
  142.7500   76.7340  220.7660 H   0  0  0  0  0  0  0  0  0  0  0  0
  143.2829   78.5547  219.0201 H   0  0  0  0  0  0  0  0  0  0  0  0
  143.1563   77.2459  217.7864 H   0  0  0  0  0  0  0  0  0  0  0  0
  141.1230   77.7279  217.5226 H   0  0  0  0  0  0  0  0  0  0  0  0
  140.4960   77.0840  220.2380 H   0  0  0  0  0  0  0  0  0  0  0  0
  141.0087   79.8051  217.7487 H   0  0  0  0  0  0  0  0  0  0  0  0
  141.7928   79.6865  220.5919 H   0  0  0  0  0  0  0  0  0  0  0  0
  142.7155   80.2440  219.1203 H   0  0  0  0  0  0  0  0  0  0  0  0
  141.4351   81.9134  220.7919 H   0  0  0  0  0  0  0  0  0  0  0  0
  141.6677   82.2053  219.0152 H   0  0  0  0  0  0  0  0  0  0  0  0
  139.5100   81.7600  218.5840 H   0  0  0  0  0  0  0  0  0  0  0  0
  139.6025   80.2017  221.1128 H   0  0  0  0  0  0  0  0  0  0  0  0
  138.0738   80.5866  220.3035 H   0  0  0  0  0  0  0  0  0  0  0  0
  139.1712   78.3555  219.5995 H   0  0  0  0  0  0  0  0  0  0  0  0
  138.7983   79.4841  218.2441 H   0  0  0  0  0  0  0  0  0  0  0  0
  138.0354   75.2665  222.0559 H   0  0  0  0  0  0  0  0  0  0  0  0
  137.3991   77.5432  222.8025 H   0  0  0  0  0  0  0  0  0  0  0  0
  138.0748   79.7115  223.3844 H   0  0  0  0  0  0  0  0  0  0  0  0
  142.2593   80.7818  223.2957 H   0  0  0  0  0  0  0  0  0  0  0  0
  142.8159   78.4770  222.5479 H   0  0  0  0  0  0  0  0  0  0  0  0
  1  2  2  0
  2  3  1  0
  3  4  1  0
  4  5  1  0
  5  6  2  0
  5  7  1  0
  7  8  1  0
  8  9  1  0
  9 10  1  0
 10 11  1  0
 11 12  1  0
 12 13  2  0
 12 14  1  0
 14 15  1  0
 15 16  1  0
 16 17  1  0
 16 18  1  0
 18 19  1  0
 19 20  1  0
 20 21  1  0
 21 22  1  0
 22 23  1  0
  2 24  1  0
 24 25  2  0
 25 26  1  0
 26 27  2  0
 27 28  1  0
 28 29  2  0
 29 30  1  0
 29 31  1  0
 31 32  2  0
 32 33  1  0
 33 34  2  0
 11  7  1  0
 23 18  1  0
 34 24  1  0
 33 27  1  0
  3 35  1  0
  4 36  1  0
  4 37  1  0
  8 38  1  0
  8 39  1  0
  9 40  1  0
  9 41  1  0
 10 42  1  0
 10 43  1  0
 11 44  1  1
 14 45  1  0
 15 46  1  0
 15 47  1  0
 16 48  1  6
 17 49  1  0
 18 50  1  0
 19 51  1  0
 19 52  1  0
 20 53  1  0
 20 54  1  0
 21 55  1  0
 22 56  1  0
 22 57  1  0
 23 58  1  0
 23 59  1  0
 25 60  1  0
 26 61  1  0
 28 62  1  0
 31 63  1  0
 32 64  1  0
M  END
>  <smiles>  (34) 
O=C(NCC(=O)N1CCC[C@H]1C(=O)NCC(O)C1CCNCC1)c1ccc2cc(F)ccc2n1

>  <score_type>  (34) 
oracle

>  <origin>  (34) 
autodockgpu

>  <m_score__min__energy>  (34) 
-8.9299999999999997

>  <m_primary>  (34) 
energy

>  <meeko>  (34) 
{"free_energy": -5.7, "intermolecular_energy": -8.38, "internal_energy": -5.93, "cluster_size": 1, "cluster_id": 5, "rank_in_cluster": 1}

>  <energy>  (34) 
-7.8

>  <cluster_rmsd>  (34) 
1.94

>  <rmsd>  (34) 
269.99

>  <cluster>  (34) 
3

$$$$

     RDKit          3D

 64 67  0  0  1  0  0  0  0  0999 V2000
  139.8870   73.0480  222.7390 O   0  0  0  0  0  0  0  0  0  0  0  0
  139.3230   71.9760  223.0790 C   0  0  0  0  0  0  0  0  0  0  0  0
  138.2540   71.4280  222.3070 N   0  0  0  0  0  0  0  0  0  0  0  0
  137.8070   72.0990  221.1270 C   0  0  0  0  0  0  0  0  0  0  0  0
  137.4400   73.5320  221.4120 C   0  0  0  0  0  0  0  0  0  0  0  0
  137.9990   74.3790  220.6500 O   0  0  0  0  0  0  0  0  0  0  0  0
  136.5440   73.8900  222.4470 N   0  0  0  0  0  0  0  0  0  0  0  0
  136.0310   72.9060  223.4160 C   0  0  0  0  0  0  0  0  0  0  0  0
  134.9680   73.7050  224.1910 C   0  0  0  0  0  0  0  0  0  0  0  0
  135.5130   75.1140  224.1170 C   0  0  0  0  0  0  0  0  0  0  0  0
  136.0230   75.1850  222.6980 C   0  0  1  0  0  0  0  0  0  0  0  0
  137.0480   76.2630  222.6850 C   0  0  0  0  0  0  0  0  0  0  0  0
  136.7740   77.4860  222.6670 O   0  0  0  0  0  0  0  0  0  0  0  0
  138.4320   75.9180  222.6940 N   0  0  0  0  0  0  0  0  0  0  0  0
  139.3830   76.9870  222.6820 C   0  0  0  0  0  0  0  0  0  0  0  0
  140.7170   76.4900  222.2420 C   0  0  1  0  0  0  0  0  0  0  0  0
  140.7220   75.1180  221.9740 O   0  0  0  0  0  0  0  0  0  0  0  0
  141.4470   77.3250  221.2500 C   0  0  0  0  0  0  0  0  0  0  0  0
  140.7350   78.5420  220.7930 C   0  0  0  0  0  0  0  0  0  0  0  0
  141.4810   79.3000  219.7190 C   0  0  0  0  0  0  0  0  0  0  0  0
  142.3650   78.4390  218.9610 N   0  0  0  0  0  0  0  0  0  0  0  0
  141.7380   77.1530  218.7740 C   0  0  0  0  0  0  0  0  0  0  0  0
  141.8680   76.4200  220.1080 C   0  0  0  0  0  0  0  0  0  0  0  0
  139.7740   71.2730  224.2960 C   0  0  0  0  0  0  0  0  0  0  0  0
  140.6560   71.8880  225.1450 C   0  0  0  0  0  0  0  0  0  0  0  0
  141.1370   71.3180  226.3060 C   0  0  0  0  0  0  0  0  0  0  0  0
  140.6730   70.0420  226.5980 C   0  0  0  0  0  0  0  0  0  0  0  0
  141.1390   69.4610  227.7450 C   0  0  0  0  0  0  0  0  0  0  0  0
  140.6950   68.1930  228.0610 C   0  0  0  0  0  0  0  0  0  0  0  0
  141.1630   67.6360  229.1930 F   0  0  0  0  0  0  0  0  0  0  0  0
  139.7970   67.5340  227.2250 C   0  0  0  0  0  0  0  0  0  0  0  0
  139.3530   68.1690  226.0680 C   0  0  0  0  0  0  0  0  0  0  0  0
  139.7860   69.4480  225.7290 C   0  0  0  0  0  0  0  0  0  0  0  0
  139.3420   70.0430  224.6030 N   0  0  0  0  0  0  0  0  0  0  0  0
  137.8050   70.5210  222.6280 H   0  0  0  0  0  0  0  0  0  0  0  0
  138.6119   72.0785  220.3776 H   0  0  0  0  0  0  0  0  0  0  0  0
  136.9112   71.5810  220.7539 H   0  0  0  0  0  0  0  0  0  0  0  0
  135.5809   72.0434  222.9028 H   0  0  0  0  0  0  0  0  0  0  0  0
  136.8148   72.4859  224.0634 H   0  0  0  0  0  0  0  0  0  0  0  0
  133.9828   73.6322  223.7073 H   0  0  0  0  0  0  0  0  0  0  0  0
  134.8072   73.3464  225.2184 H   0  0  0  0  0  0  0  0  0  0  0  0
  134.7218   75.8574  224.2940 H   0  0  0  0  0  0  0  0  0  0  0  0
  136.2816   75.3303  224.8736 H   0  0  0  0  0  0  0  0  0  0  0  0
  135.2830   75.4275  221.9211 H   0  0  0  0  0  0  0  0  0  0  0  0
  138.6480   74.9010  222.7170 H   0  0  0  0  0  0  0  0  0  0  0  0
  139.0406   77.7690  221.9883 H   0  0  0  0  0  0  0  0  0  0  0  0
  139.4723   77.3968  223.6989 H   0  0  0  0  0  0  0  0  0  0  0  0
  141.3503   76.6269  223.1310 H   0  0  0  0  0  0  0  0  0  0  0  0
  139.9320   74.7880  221.5190 H   0  0  0  0  0  0  0  0  0  0  0  0
  142.3278   77.7527  221.7513 H   0  0  0  0  0  0  0  0  0  0  0  0
  139.7543   78.2441  220.3936 H   0  0  0  0  0  0  0  0  0  0  0  0
  140.6416   79.2115  221.6608 H   0  0  0  0  0  0  0  0  0  0  0  0
  140.7510   79.7527  219.0318 H   0  0  0  0  0  0  0  0  0  0  0  0
  142.0952   80.0689  220.2105 H   0  0  0  0  0  0  0  0  0  0  0  0
  143.2990   78.3500  219.4130 H   0  0  0  0  0  0  0  0  0  0  0  0
  140.6777   77.2801  218.5100 H   0  0  0  0  0  0  0  0  0  0  0  0
  142.2133   76.5892  217.9578 H   0  0  0  0  0  0  0  0  0  0  0  0
  141.2245   75.5280  220.0959 H   0  0  0  0  0  0  0  0  0  0  0  0
  142.9179   76.1258  220.2534 H   0  0  0  0  0  0  0  0  0  0  0  0
  141.0023   72.8992  224.8850 H   0  0  0  0  0  0  0  0  0  0  0  0
  141.8465   71.8436  226.9619 H   0  0  0  0  0  0  0  0  0  0  0  0
  141.8486   69.9901  228.3981 H   0  0  0  0  0  0  0  0  0  0  0  0
  139.4425   66.5234  227.4758 H   0  0  0  0  0  0  0  0  0  0  0  0
  138.6443   67.6484  225.4071 H   0  0  0  0  0  0  0  0  0  0  0  0
  1  2  2  0
  2  3  1  0
  3  4  1  0
  4  5  1  0
  5  6  2  0
  5  7  1  0
  7  8  1  0
  8  9  1  0
  9 10  1  0
 10 11  1  0
 11 12  1  0
 12 13  2  0
 12 14  1  0
 14 15  1  0
 15 16  1  0
 16 17  1  0
 16 18  1  0
 18 19  1  0
 19 20  1  0
 20 21  1  0
 21 22  1  0
 22 23  1  0
  2 24  1  0
 24 25  2  0
 25 26  1  0
 26 27  2  0
 27 28  1  0
 28 29  2  0
 29 30  1  0
 29 31  1  0
 31 32  2  0
 32 33  1  0
 33 34  2  0
 11  7  1  0
 23 18  1  0
 34 24  1  0
 33 27  1  0
  3 35  1  0
  4 36  1  0
  4 37  1  0
  8 38  1  0
  8 39  1  0
  9 40  1  0
  9 41  1  0
 10 42  1  0
 10 43  1  0
 11 44  1  6
 14 45  1  0
 15 46  1  0
 15 47  1  0
 16 48  1  1
 17 49  1  0
 18 50  1  0
 19 51  1  0
 19 52  1  0
 20 53  1  0
 20 54  1  0
 21 55  1  0
 22 56  1  0
 22 57  1  0
 23 58  1  0
 23 59  1  0
 25 60  1  0
 26 61  1  0
 28 62  1  0
 31 63  1  0
 32 64  1  0
M  END
>  <smiles>  (35) 
O=C(NCC(=O)N1CCC[C@H]1C(=O)NCC(O)C1CCNCC1)c1ccc2cc(F)ccc2n1

>  <score_type>  (35) 
oracle

>  <origin>  (35) 
autodockgpu

>  <m_score__min__energy>  (35) 
-8.9299999999999997

>  <m_primary>  (35) 
energy

>  <meeko>  (35) 
{"free_energy": -7.64, "intermolecular_energy": -10.32, "internal_energy": -5.22, "cluster_size": 5, "cluster_id": 2, "rank_in_cluster": 5}

>  <energy>  (35) 
-7.64

>  <cluster_rmsd>  (35) 
1.6

>  <rmsd>  (35) 
269.96

>  <cluster>  (35) 
3

$$$$

     RDKit          3D

 64 67  0  0  1  0  0  0  0  0999 V2000
  140.4010   73.5720  222.3430 O   0  0  0  0  0  0  0  0  0  0  0  0
  140.5410   72.3230  222.2950 C   0  0  0  0  0  0  0  0  0  0  0  0
  140.9160   71.6690  221.0830 N   0  0  0  0  0  0  0  0  0  0  0  0
  141.1380   72.4340  219.8970 C   0  0  0  0  0  0  0  0  0  0  0  0
  142.4730   72.1160  219.2760 C   0  0  0  0  0  0  0  0  0  0  0  0
  142.4130   71.3550  218.2610 O   0  0  0  0  0  0  0  0  0  0  0  0
  143.6870   72.6290  219.7920 N   0  0  0  0  0  0  0  0  0  0  0  0
  144.9900   72.0100  219.4940 C   0  0  0  0  0  0  0  0  0  0  0  0
  145.9550   72.7750  220.4170 C   0  0  0  0  0  0  0  0  0  0  0  0
  145.2890   74.1280  220.5230 C   0  0  0  0  0  0  0  0  0  0  0  0
  143.8300   73.7580  220.6390 C   0  0  1  0  0  0  0  0  0  0  0  0
  143.0670   74.9530  220.1880 C   0  0  0  0  0  0  0  0  0  0  0  0
  143.2290   75.5050  219.0750 O   0  0  0  0  0  0  0  0  0  0  0  0
  142.0870   75.5280  221.0490 N   0  0  0  0  0  0  0  0  0  0  0  0
  141.3770   76.6760  220.5760 C   0  0  0  0  0  0  0  0  0  0  0  0
  140.5130   77.2340  221.6540 C   0  0  1  0  0  0  0  0  0  0  0  0
  140.3350   76.3460  222.7180 O   0  0  0  0  0  0  0  0  0  0  0  0
  140.7690   78.6450  222.0510 C   0  0  0  0  0  0  0  0  0  0  0  0
  141.4740   79.4740  221.0440 C   0  0  0  0  0  0  0  0  0  0  0  0
  141.7900   80.8680  221.5370 C   0  0  0  0  0  0  0  0  0  0  0  0
  141.8970   80.9230  222.9800 N   0  0  0  0  0  0  0  0  0  0  0  0
  142.5310   79.7190  223.4600 C   0  0  0  0  0  0  0  0  0  0  0  0
  141.4660   78.6250  223.3970 C   0  0  0  0  0  0  0  0  0  0  0  0
  140.3140   71.5200  223.5130 C   0  0  0  0  0  0  0  0  0  0  0  0
  139.5990   70.3540  223.4300 C   0  0  0  0  0  0  0  0  0  0  0  0
  139.3320   69.5320  224.5060 C   0  0  0  0  0  0  0  0  0  0  0  0
  139.8360   69.9480  225.7310 C   0  0  0  0  0  0  0  0  0  0  0  0
  139.5810   69.1470  226.8100 C   0  0  0  0  0  0  0  0  0  0  0  0
  140.0710   69.5340  228.0410 C   0  0  0  0  0  0  0  0  0  0  0  0
  139.8110   68.7340  229.0910 F   0  0  0  0  0  0  0  0  0  0  0  0
  140.8030   70.7120  228.1670 C   0  0  0  0  0  0  0  0  0  0  0  0
  141.0350   71.4930  227.0380 C   0  0  0  0  0  0  0  0  0  0  0  0
  140.5520   71.1220  225.7860 C   0  0  0  0  0  0  0  0  0  0  0  0
  140.7900   71.8960  224.7070 N   0  0  0  0  0  0  0  0  0  0  0  0
  141.0250   70.6120  221.0840 H   0  0  0  0  0  0  0  0  0  0  0  0
  140.3432   72.2069  219.1713 H   0  0  0  0  0  0  0  0  0  0  0  0
  141.1287   73.5002  220.1676 H   0  0  0  0  0  0  0  0  0  0  0  0
  144.9817   70.9363  219.7331 H   0  0  0  0  0  0  0  0  0  0  0  0
  145.2664   72.0713  218.4311 H   0  0  0  0  0  0  0  0  0  0  0  0
  146.0335   72.2907  221.4015 H   0  0  0  0  0  0  0  0  0  0  0  0
  146.9869   72.8189  220.0385 H   0  0  0  0  0  0  0  0  0  0  0  0
  145.6340   74.6735  221.4137 H   0  0  0  0  0  0  0  0  0  0  0  0
  145.5090   74.7956  219.6768 H   0  0  0  0  0  0  0  0  0  0  0  0
  143.4670   73.4983  221.6444 H   0  0  0  0  0  0  0  0  0  0  0  0
  141.9550   75.0580  221.9680 H   0  0  0  0  0  0  0  0  0  0  0  0
  142.0988   77.4424  220.2571 H   0  0  0  0  0  0  0  0  0  0  0  0
  140.7420   76.3782  219.7286 H   0  0  0  0  0  0  0  0  0  0  0  0
  139.5283   77.3314  221.1735 H   0  0  0  0  0  0  0  0  0  0  0  0
  140.0200   75.4650  222.4670 H   0  0  0  0  0  0  0  0  0  0  0  0
  139.7981   79.1568  222.1248 H   0  0  0  0  0  0  0  0  0  0  0  0
  142.4175   78.9747  220.7785 H   0  0  0  0  0  0  0  0  0  0  0  0
  140.8037   79.5773  220.1780 H   0  0  0  0  0  0  0  0  0  0  0  0
  142.7451   81.1918  221.0977 H   0  0  0  0  0  0  0  0  0  0  0  0
  140.9663   81.5304  221.2324 H   0  0  0  0  0  0  0  0  0  0  0  0
  140.9710   81.0760  223.4310 H   0  0  0  0  0  0  0  0  0  0  0  0
  143.3861   79.4566  222.8198 H   0  0  0  0  0  0  0  0  0  0  0  0
  142.9150   79.8475  224.4828 H   0  0  0  0  0  0  0  0  0  0  0  0
  141.9436   77.6450  223.5436 H   0  0  0  0  0  0  0  0  0  0  0  0
  140.7222   78.8043  224.1874 H   0  0  0  0  0  0  0  0  0  0  0  0
  139.2138   70.0544  222.4442 H   0  0  0  0  0  0  0  0  0  0  0  0
  138.7540   68.6022  224.3994 H   0  0  0  0  0  0  0  0  0  0  0  0
  139.0008   68.2190  226.6996 H   0  0  0  0  0  0  0  0  0  0  0  0
  141.1935   71.0220  229.1475 H   0  0  0  0  0  0  0  0  0  0  0  0
  141.6127   72.4238  227.1374 H   0  0  0  0  0  0  0  0  0  0  0  0
  1  2  2  0
  2  3  1  0
  3  4  1  0
  4  5  1  0
  5  6  2  0
  5  7  1  0
  7  8  1  0
  8  9  1  0
  9 10  1  0
 10 11  1  0
 11 12  1  0
 12 13  2  0
 12 14  1  0
 14 15  1  0
 15 16  1  0
 16 17  1  0
 16 18  1  0
 18 19  1  0
 19 20  1  0
 20 21  1  0
 21 22  1  0
 22 23  1  0
  2 24  1  0
 24 25  2  0
 25 26  1  0
 26 27  2  0
 27 28  1  0
 28 29  2  0
 29 30  1  0
 29 31  1  0
 31 32  2  0
 32 33  1  0
 33 34  2  0
 11  7  1  0
 23 18  1  0
 34 24  1  0
 33 27  1  0
  3 35  1  0
  4 36  1  0
  4 37  1  0
  8 38  1  0
  8 39  1  0
  9 40  1  0
  9 41  1  0
 10 42  1  0
 10 43  1  0
 11 44  1  1
 14 45  1  0
 15 46  1  0
 15 47  1  0
 16 48  1  6
 17 49  1  0
 18 50  1  0
 19 51  1  0
 19 52  1  0
 20 53  1  0
 20 54  1  0
 21 55  1  0
 22 56  1  0
 22 57  1  0
 23 58  1  0
 23 59  1  0
 25 60  1  0
 26 61  1  0
 28 62  1  0
 31 63  1  0
 32 64  1  0
M  END
>  <smiles>  (36) 
O=C(NCC(=O)N1CCC[C@H]1C(=O)NCC(O)C1CCNCC1)c1ccc2cc(F)ccc2n1

>  <score_type>  (36) 
oracle

>  <origin>  (36) 
autodockgpu

>  <m_score__min__energy>  (36) 
-8.9299999999999997

>  <m_primary>  (36) 
energy

>  <meeko>  (36) 
{"free_energy": -8.64, "intermolecular_energy": -11.32, "internal_energy": -3.91, "cluster_size": 5, "cluster_id": 1, "rank_in_cluster": 3}

>  <energy>  (36) 
-7.55

>  <cluster_rmsd>  (36) 
1.93

>  <rmsd>  (36) 
269.89

>  <cluster>  (36) 
3

$$$$

     RDKit          3D

 64 67  0  0  1  0  0  0  0  0999 V2000
  139.4590   71.3860  221.5330 O   0  0  0  0  0  0  0  0  0  0  0  0
  138.8920   71.6400  222.6270 C   0  0  0  0  0  0  0  0  0  0  0  0
  137.7040   72.4310  222.6750 N   0  0  0  0  0  0  0  0  0  0  0  0
  137.1410   72.9480  221.4680 C   0  0  0  0  0  0  0  0  0  0  0  0
  137.8850   74.1670  220.9890 C   0  0  0  0  0  0  0  0  0  0  0  0
  138.6320   73.9640  219.9820 O   0  0  0  0  0  0  0  0  0  0  0  0
  137.7550   75.4270  221.6180 N   0  0  0  0  0  0  0  0  0  0  0  0
  136.5990   75.7650  222.4670 C   0  0  0  0  0  0  0  0  0  0  0  0
  136.8010   77.2640  222.7460 C   0  0  0  0  0  0  0  0  0  0  0  0
  138.3060   77.3970  222.6960 C   0  0  0  0  0  0  0  0  0  0  0  0
  138.6670   76.5100  221.5300 C   0  0  1  0  0  0  0  0  0  0  0  0
  140.0890   76.1210  221.7360 C   0  0  0  0  0  0  0  0  0  0  0  0
  140.8130   76.5820  222.6480 O   0  0  0  0  0  0  0  0  0  0  0  0
  140.6920   75.1710  220.8610 N   0  0  0  0  0  0  0  0  0  0  0  0
  142.0610   74.8260  221.0950 C   0  0  0  0  0  0  0  0  0  0  0  0
  142.3620   73.4810  220.5300 C   0  0  1  0  0  0  0  0  0  0  0  0
  141.2770   72.9250  219.8480 O   0  0  0  0  0  0  0  0  0  0  0  0
  143.6770   73.3210  219.8520 C   0  0  0  0  0  0  0  0  0  0  0  0
  144.2000   71.9350  219.7930 C   0  0  0  0  0  0  0  0  0  0  0  0
  145.5780   71.8450  219.1780 C   0  0  0  0  0  0  0  0  0  0  0  0
  146.3200   73.0800  219.3250 N   0  0  0  0  0  0  0  0  0  0  0  0
  146.0320   73.6620  220.6130 C   0  0  0  0  0  0  0  0  0  0  0  0
  144.6470   74.2950  220.4920 C   0  0  0  0  0  0  0  0  0  0  0  0
  139.4640   71.1130  223.8820 C   0  0  0  0  0  0  0  0  0  0  0  0
  140.3790   71.8610  224.5740 C   0  0  0  0  0  0  0  0  0  0  0  0
  140.9710   71.4600  225.7550 C   0  0  0  0  0  0  0  0  0  0  0  0
  140.5900   70.2160  226.2370 C   0  0  0  0  0  0  0  0  0  0  0  0
  141.1670   69.8010  227.4060 C   0  0  0  0  0  0  0  0  0  0  0  0
  140.8060   68.5680  227.9100 C   0  0  0  0  0  0  0  0  0  0  0  0
  141.3820   68.1750  229.0610 F   0  0  0  0  0  0  0  0  0  0  0  0
  139.8780   67.7770  227.2360 C   0  0  0  0  0  0  0  0  0  0  0  0
  139.3200   68.2440  226.0500 C   0  0  0  0  0  0  0  0  0  0  0  0
  139.6680   69.4850  225.5220 C   0  0  0  0  0  0  0  0  0  0  0  0
  139.1130   69.9160  224.3710 N   0  0  0  0  0  0  0  0  0  0  0  0
  137.2550   72.6220  223.6180 H   0  0  0  0  0  0  0  0  0  0  0  0
  137.1888   72.1716  220.6902 H   0  0  0  0  0  0  0  0  0  0  0  0
  136.0990   73.2371  221.6696 H   0  0  0  0  0  0  0  0  0  0  0  0
  135.6526   75.5858  221.9358 H   0  0  0  0  0  0  0  0  0  0  0  0
  136.5412   75.1577  223.3823 H   0  0  0  0  0  0  0  0  0  0  0  0
  136.3199   77.8820  221.9736 H   0  0  0  0  0  0  0  0  0  0  0  0
  136.3589   77.6004  223.6954 H   0  0  0  0  0  0  0  0  0  0  0  0
  138.6083   78.4387  222.5130 H   0  0  0  0  0  0  0  0  0  0  0  0
  138.8051   77.1160  223.6351 H   0  0  0  0  0  0  0  0  0  0  0  0
  138.5918   76.9595  220.5288 H   0  0  0  0  0  0  0  0  0  0  0  0
  140.0810   74.7890  220.1110 H   0  0  0  0  0  0  0  0  0  0  0  0
  142.7101   75.5738  220.6160 H   0  0  0  0  0  0  0  0  0  0  0  0
  142.2433   74.8061  222.1796 H   0  0  0  0  0  0  0  0  0  0  0  0
  142.5121   72.8537  221.4210 H   0  0  0  0  0  0  0  0  0  0  0  0
  140.4530   72.8830  220.3560 H   0  0  0  0  0  0  0  0  0  0  0  0
  143.5386   73.5563  218.7864 H   0  0  0  0  0  0  0  0  0  0  0  0
  144.2470   71.5350  220.8166 H   0  0  0  0  0  0  0  0  0  0  0  0
  143.5180   71.3548  219.1541 H   0  0  0  0  0  0  0  0  0  0  0  0
  146.1350   71.0352  219.6719 H   0  0  0  0  0  0  0  0  0  0  0  0
  145.4576   71.6472  218.1026 H   0  0  0  0  0  0  0  0  0  0  0  0
  146.1220   73.7450  218.5480 H   0  0  0  0  0  0  0  0  0  0  0  0
  146.0297   72.8846  221.3913 H   0  0  0  0  0  0  0  0  0  0  0  0
  146.7906   74.4065  220.8962 H   0  0  0  0  0  0  0  0  0  0  0  0
  144.2824   74.5644  221.4942 H   0  0  0  0  0  0  0  0  0  0  0  0
  144.7185   75.1943  219.8625 H   0  0  0  0  0  0  0  0  0  0  0  0
  140.6596   72.8421  224.1634 H   0  0  0  0  0  0  0  0  0  0  0  0
  141.7020   72.0900  226.2830 H   0  0  0  0  0  0  0  0  0  0  0  0
  141.8990   70.4331  227.9301 H   0  0  0  0  0  0  0  0  0  0  0  0
  139.5896   66.7941  227.6370 H   0  0  0  0  0  0  0  0  0  0  0  0
  138.5878   67.6192  225.5176 H   0  0  0  0  0  0  0  0  0  0  0  0
  1  2  2  0
  2  3  1  0
  3  4  1  0
  4  5  1  0
  5  6  2  0
  5  7  1  0
  7  8  1  0
  8  9  1  0
  9 10  1  0
 10 11  1  0
 11 12  1  0
 12 13  2  0
 12 14  1  0
 14 15  1  0
 15 16  1  0
 16 17  1  0
 16 18  1  0
 18 19  1  0
 19 20  1  0
 20 21  1  0
 21 22  1  0
 22 23  1  0
  2 24  1  0
 24 25  2  0
 25 26  1  0
 26 27  2  0
 27 28  1  0
 28 29  2  0
 29 30  1  0
 29 31  1  0
 31 32  2  0
 32 33  1  0
 33 34  2  0
 11  7  1  0
 23 18  1  0
 34 24  1  0
 33 27  1  0
  3 35  1  0
  4 36  1  0
  4 37  1  0
  8 38  1  0
  8 39  1  0
  9 40  1  0
  9 41  1  0
 10 42  1  0
 10 43  1  0
 11 44  1  6
 14 45  1  0
 15 46  1  0
 15 47  1  0
 16 48  1  1
 17 49  1  0
 18 50  1  0
 19 51  1  0
 19 52  1  0
 20 53  1  0
 20 54  1  0
 21 55  1  0
 22 56  1  0
 22 57  1  0
 23 58  1  0
 23 59  1  0
 25 60  1  0
 26 61  1  0
 28 62  1  0
 31 63  1  0
 32 64  1  0
M  END
>  <smiles>  (37) 
O=C(NCC(=O)N1CCC[C@H]1C(=O)NCC(O)C1CCNCC1)c1ccc2cc(F)ccc2n1

>  <score_type>  (37) 
oracle

>  <origin>  (37) 
autodockgpu

>  <m_score__min__energy>  (37) 
-8.9299999999999997

>  <m_primary>  (37) 
energy

>  <meeko>  (37) 
{"free_energy": -8.05, "intermolecular_energy": -10.74, "internal_energy": -4.62, "cluster_size": 7, "cluster_id": 3, "rank_in_cluster": 2}

>  <energy>  (37) 
-7.51

>  <cluster_rmsd>  (37) 
1.94

>  <rmsd>  (37) 
269.88

>  <cluster>  (37) 
3

$$$$

     RDKit          3D

 64 67  0  0  1  0  0  0  0  0999 V2000
  139.8460   73.6870  222.4750 O   0  0  0  0  0  0  0  0  0  0  0  0
  140.2720   72.5070  222.3790 C   0  0  0  0  0  0  0  0  0  0  0  0
  140.8250   72.0200  221.1560 N   0  0  0  0  0  0  0  0  0  0  0  0
  140.9030   72.8770  220.0160 C   0  0  0  0  0  0  0  0  0  0  0  0
  142.1220   73.7610  220.0710 C   0  0  0  0  0  0  0  0  0  0  0  0
  142.3550   74.2650  221.2120 O   0  0  0  0  0  0  0  0  0  0  0  0
  142.9310   74.0010  218.9350 N   0  0  0  0  0  0  0  0  0  0  0  0
  143.0850   73.0090  217.8570 C   0  0  0  0  0  0  0  0  0  0  0  0
  144.1870   73.6240  216.9760 C   0  0  0  0  0  0  0  0  0  0  0  0
  143.9800   75.1060  217.1950 C   0  0  0  0  0  0  0  0  0  0  0  0
  143.6880   75.1720  218.6740 C   0  0  1  0  0  0  0  0  0  0  0  0
  142.9360   76.4390  218.8860 C   0  0  0  0  0  0  0  0  0  0  0  0
  142.7270   77.2850  217.9870 O   0  0  0  0  0  0  0  0  0  0  0  0
  142.4090   76.7360  220.1780 N   0  0  0  0  0  0  0  0  0  0  0  0
  141.6920   77.9640  220.3370 C   0  0  0  0  0  0  0  0  0  0  0  0
  140.9550   77.9710  221.6310 C   0  0  1  0  0  0  0  0  0  0  0  0
  141.1440   76.8000  222.3690 O   0  0  0  0  0  0  0  0  0  0  0  0
  141.0130   79.2280  222.4260 C   0  0  0  0  0  0  0  0  0  0  0  0
  141.2690   80.4640  221.6480 C   0  0  0  0  0  0  0  0  0  0  0  0
  141.4110   81.6940  222.5150 C   0  0  0  0  0  0  0  0  0  0  0  0
  141.8560   81.3660  223.8540 N   0  0  0  0  0  0  0  0  0  0  0  0
  142.8170   80.2910  223.7900 C   0  0  0  0  0  0  0  0  0  0  0  0
  142.0100   79.0160  223.5490 C   0  0  0  0  0  0  0  0  0  0  0  0
  140.1970   71.6110  223.5500 C   0  0  0  0  0  0  0  0  0  0  0  0
  139.6230   70.3740  223.4180 C   0  0  0  0  0  0  0  0  0  0  0  0
  139.5040   69.4630  224.4480 C   0  0  0  0  0  0  0  0  0  0  0  0
  140.0100   69.8620  225.6780 C   0  0  0  0  0  0  0  0  0  0  0  0
  139.9020   68.9730  226.7110 C   0  0  0  0  0  0  0  0  0  0  0  0
  140.3980   69.3420  227.9450 C   0  0  0  0  0  0  0  0  0  0  0  0
  140.2830   68.4550  228.9500 F   0  0  0  0  0  0  0  0  0  0  0  0
  140.9900   70.5900  228.1200 C   0  0  0  0  0  0  0  0  0  0  0  0
  141.0760   71.4600  227.0360 C   0  0  0  0  0  0  0  0  0  0  0  0
  140.5840   71.1090  225.7820 C   0  0  0  0  0  0  0  0  0  0  0  0
  140.6790   71.9690  224.7470 N   0  0  0  0  0  0  0  0  0  0  0  0
  141.1750   71.0180  221.1170 H   0  0  0  0  0  0  0  0  0  0  0  0
  140.9504   72.2592  219.1071 H   0  0  0  0  0  0  0  0  0  0  0  0
  140.0108   73.5203  220.0066 H   0  0  0  0  0  0  0  0  0  0  0  0
  143.3980   72.0340  218.2586 H   0  0  0  0  0  0  0  0  0  0  0  0
  142.1507   72.8144  217.3100 H   0  0  0  0  0  0  0  0  0  0  0  0
  145.1866   73.3074  217.3084 H   0  0  0  0  0  0  0  0  0  0  0  0
  144.1291   73.3210  215.9201 H   0  0  0  0  0  0  0  0  0  0  0  0
  144.8854   75.6769  216.9414 H   0  0  0  0  0  0  0  0  0  0  0  0
  143.1859   75.5382  216.5685 H   0  0  0  0  0  0  0  0  0  0  0  0
  144.5580   75.1905  219.3468 H   0  0  0  0  0  0  0  0  0  0  0  0
  142.5820   76.0230  220.9160 H   0  0  0  0  0  0  0  0  0  0  0  0
  142.4027   78.8034  220.3201 H   0  0  0  0  0  0  0  0  0  0  0  0
  140.9690   78.0642  219.5140 H   0  0  0  0  0  0  0  0  0  0  0  0
  139.8983   77.9685  221.3255 H   0  0  0  0  0  0  0  0  0  0  0  0
  141.8090   76.1930  222.0090 H   0  0  0  0  0  0  0  0  0  0  0  0
  140.0081   79.4194  222.8304 H   0  0  0  0  0  0  0  0  0  0  0  0
  142.1987   80.3305  221.0754 H   0  0  0  0  0  0  0  0  0  0  0  0
  140.3999   80.6241  220.9929 H   0  0  0  0  0  0  0  0  0  0  0  0
  142.1444   82.3713  222.0530 H   0  0  0  0  0  0  0  0  0  0  0  0
  140.4227   82.1707  222.5928 H   0  0  0  0  0  0  0  0  0  0  0  0
  141.0580   81.1330  224.4810 H   0  0  0  0  0  0  0  0  0  0  0  0
  143.5227   80.4584  222.9630 H   0  0  0  0  0  0  0  0  0  0  0  0
  143.4078   80.2241  224.7154 H   0  0  0  0  0  0  0  0  0  0  0  0
  142.6947   78.1992  223.2769 H   0  0  0  0  0  0  0  0  0  0  0  0
  141.4636   78.7594  224.4686 H   0  0  0  0  0  0  0  0  0  0  0  0
  139.2328   70.0892  222.4298 H   0  0  0  0  0  0  0  0  0  0  0  0
  139.0356   68.4783  224.3030 H   0  0  0  0  0  0  0  0  0  0  0  0
  139.4322   67.9895  226.5626 H   0  0  0  0  0  0  0  0  0  0  0  0
  141.3852   70.8854  229.1031 H   0  0  0  0  0  0  0  0  0  0  0  0
  141.5430   72.4464  227.1737 H   0  0  0  0  0  0  0  0  0  0  0  0
  1  2  2  0
  2  3  1  0
  3  4  1  0
  4  5  1  0
  5  6  2  0
  5  7  1  0
  7  8  1  0
  8  9  1  0
  9 10  1  0
 10 11  1  0
 11 12  1  0
 12 13  2  0
 12 14  1  0
 14 15  1  0
 15 16  1  0
 16 17  1  0
 16 18  1  0
 18 19  1  0
 19 20  1  0
 20 21  1  0
 21 22  1  0
 22 23  1  0
  2 24  1  0
 24 25  2  0
 25 26  1  0
 26 27  2  0
 27 28  1  0
 28 29  2  0
 29 30  1  0
 29 31  1  0
 31 32  2  0
 32 33  1  0
 33 34  2  0
 11  7  1  0
 23 18  1  0
 34 24  1  0
 33 27  1  0
  3 35  1  0
  4 36  1  0
  4 37  1  0
  8 38  1  0
  8 39  1  0
  9 40  1  0
  9 41  1  0
 10 42  1  0
 10 43  1  0
 11 44  1  1
 14 45  1  0
 15 46  1  0
 15 47  1  0
 16 48  1  6
 17 49  1  0
 18 50  1  0
 19 51  1  0
 19 52  1  0
 20 53  1  0
 20 54  1  0
 21 55  1  0
 22 56  1  0
 22 57  1  0
 23 58  1  0
 23 59  1  0
 25 60  1  0
 26 61  1  0
 28 62  1  0
 31 63  1  0
 32 64  1  0
M  END
>  <smiles>  (38) 
O=C(NCC(=O)N1CCC[C@H]1C(=O)NCC(O)C1CCNCC1)c1ccc2cc(F)ccc2n1

>  <score_type>  (38) 
oracle

>  <origin>  (38) 
autodockgpu

>  <m_score__min__energy>  (38) 
-8.9299999999999997

>  <m_primary>  (38) 
energy

>  <meeko>  (38) 
{"free_energy": -8.81, "intermolecular_energy": -11.5, "internal_energy": -3.57, "cluster_size": 5, "cluster_id": 1, "rank_in_cluster": 2}

>  <energy>  (38) 
-7.84

>  <cluster_rmsd>  (38) 
0.0

>  <rmsd>  (38) 
270.33

>  <cluster>  (38) 
4

$$$$

     RDKit          3D

 64 67  0  0  1  0  0  0  0  0999 V2000
  138.4880   72.5370  221.9750 O   0  0  0  0  0  0  0  0  0  0  0  0
  139.6200   72.3040  222.4710 C   0  0  0  0  0  0  0  0  0  0  0  0
  140.8050   72.8530  221.8950 N   0  0  0  0  0  0  0  0  0  0  0  0
  140.7170   73.6820  220.7340 C   0  0  0  0  0  0  0  0  0  0  0  0
  139.7440   74.8140  220.9360 C   0  0  0  0  0  0  0  0  0  0  0  0
  138.5650   74.5720  220.5310 O   0  0  0  0  0  0  0  0  0  0  0  0
  140.1250   76.0400  221.5300 N   0  0  0  0  0  0  0  0  0  0  0  0
  141.1960   76.8830  220.9720 C   0  0  0  0  0  0  0  0  0  0  0  0
  141.3770   77.9690  222.0470 C   0  0  0  0  0  0  0  0  0  0  0  0
  139.9890   78.0650  222.6400 C   0  0  0  0  0  0  0  0  0  0  0  0
  139.5670   76.6170  222.7000 C   0  0  1  0  0  0  0  0  0  0  0  0
  138.0790   76.6240  222.7220 C   0  0  0  0  0  0  0  0  0  0  0  0
  137.3880   77.6680  222.7590 O   0  0  0  0  0  0  0  0  0  0  0  0
  137.3690   75.3870  222.6990 N   0  0  0  0  0  0  0  0  0  0  0  0
  135.9400   75.4410  222.7210 C   0  0  0  0  0  0  0  0  0  0  0  0
  135.3800   74.1670  223.2530 C   0  0  1  0  0  0  0  0  0  0  0  0
  136.3500   73.1740  223.4110 O   0  0  0  0  0  0  0  0  0  0  0  0
  134.4120   74.2820  224.3780 C   0  0  0  0  0  0  0  0  0  0  0  0
  134.7630   75.2730  225.4230 C   0  0  0  0  0  0  0  0  0  0  0  0
  133.7960   75.2800  226.5840 C   0  0  0  0  0  0  0  0  0  0  0  0
  133.1280   74.0040  226.7430 N   0  0  0  0  0  0  0  0  0  0  0  0
  134.0570   72.9380  226.4540 C   0  0  0  0  0  0  0  0  0  0  0  0
  134.1850   72.8890  224.9320 C   0  0  0  0  0  0  0  0  0  0  0  0
  139.7250   71.4480  223.6700 C   0  0  0  0  0  0  0  0  0  0  0  0
  139.1920   70.1870  223.6480 C   0  0  0  0  0  0  0  0  0  0  0  0
  139.2370   69.3100  224.7130 C   0  0  0  0  0  0  0  0  0  0  0  0
  139.8720   69.7720  225.8580 C   0  0  0  0  0  0  0  0  0  0  0  0
  139.9270   68.9170  226.9240 C   0  0  0  0  0  0  0  0  0  0  0  0
  140.5530   69.3490  228.0750 C   0  0  0  0  0  0  0  0  0  0  0  0
  140.5990   68.4950  229.1150 F   0  0  0  0  0  0  0  0  0  0  0  0
  141.1100   70.6240  228.1370 C   0  0  0  0  0  0  0  0  0  0  0  0
  141.0270   71.4570  227.0250 C   0  0  0  0  0  0  0  0  0  0  0  0
  140.4010   71.0430  225.8520 C   0  0  0  0  0  0  0  0  0  0  0  0
  140.3330   71.8680  224.7870 N   0  0  0  0  0  0  0  0  0  0  0  0
  141.7410   72.6330  222.3440 H   0  0  0  0  0  0  0  0  0  0  0  0
  141.7112   74.0997  220.5170 H   0  0  0  0  0  0  0  0  0  0  0  0
  140.3597   73.0654  219.8961 H   0  0  0  0  0  0  0  0  0  0  0  0
  142.1220   76.3056  220.8334 H   0  0  0  0  0  0  0  0  0  0  0  0
  140.9538   77.2913  219.9797 H   0  0  0  0  0  0  0  0  0  0  0  0
  142.1139   77.6622  222.8039 H   0  0  0  0  0  0  0  0  0  0  0  0
  141.7556   78.9232  221.6518 H   0  0  0  0  0  0  0  0  0  0  0  0
  140.0142   78.5150  223.6434 H   0  0  0  0  0  0  0  0  0  0  0  0
  139.3040   78.7009  222.0599 H   0  0  0  0  0  0  0  0  0  0  0  0
  139.9040   76.0426  223.5755 H   0  0  0  0  0  0  0  0  0  0  0  0
  137.9530   74.5270  222.6610 H   0  0  0  0  0  0  0  0  0  0  0  0
  135.6187   76.2742  223.3632 H   0  0  0  0  0  0  0  0  0  0  0  0
  135.5729   75.5911  221.6950 H   0  0  0  0  0  0  0  0  0  0  0  0
  134.7184   73.8178  222.4466 H   0  0  0  0  0  0  0  0  0  0  0  0
  137.2630   73.4970  223.4540 H   0  0  0  0  0  0  0  0  0  0  0  0
  133.4754   74.6979  223.9784 H   0  0  0  0  0  0  0  0  0  0  0  0
  135.7671   75.0373  225.8055 H   0  0  0  0  0  0  0  0  0  0  0  0
  134.7222   76.2686  224.9570 H   0  0  0  0  0  0  0  0  0  0  0  0
  134.3504   75.5078  227.5064 H   0  0  0  0  0  0  0  0  0  0  0  0
  133.0287   76.0419  226.3819 H   0  0  0  0  0  0  0  0  0  0  0  0
  132.2720   73.9390  226.1540 H   0  0  0  0  0  0  0  0  0  0  0  0
  135.0344   73.1484  226.9128 H   0  0  0  0  0  0  0  0  0  0  0  0
  133.7055   71.9776  226.8590 H   0  0  0  0  0  0  0  0  0  0  0  0
  135.0358   72.2471  224.6599 H   0  0  0  0  0  0  0  0  0  0  0  0
  133.2553   72.4822  224.5076 H   0  0  0  0  0  0  0  0  0  0  0  0
  138.6973   69.8520  222.7244 H   0  0  0  0  0  0  0  0  0  0  0  0
  138.7956   68.3040  224.6578 H   0  0  0  0  0  0  0  0  0  0  0  0
  139.4840   67.9119  226.8652 H   0  0  0  0  0  0  0  0  0  0  0  0
  141.6098   70.9687  229.0543 H   0  0  0  0  0  0  0  0  0  0  0  0
  141.4656   72.4646  227.0738 H   0  0  0  0  0  0  0  0  0  0  0  0
  1  2  2  0
  2  3  1  0
  3  4  1  0
  4  5  1  0
  5  6  2  0
  5  7  1  0
  7  8  1  0
  8  9  1  0
  9 10  1  0
 10 11  1  0
 11 12  1  0
 12 13  2  0
 12 14  1  0
 14 15  1  0
 15 16  1  0
 16 17  1  0
 16 18  1  0
 18 19  1  0
 19 20  1  0
 20 21  1  0
 21 22  1  0
 22 23  1  0
  2 24  1  0
 24 25  2  0
 25 26  1  0
 26 27  2  0
 27 28  1  0
 28 29  2  0
 29 30  1  0
 29 31  1  0
 31 32  2  0
 32 33  1  0
 33 34  2  0
 11  7  1  0
 23 18  1  0
 34 24  1  0
 33 27  1  0
  3 35  1  0
  4 36  1  0
  4 37  1  0
  8 38  1  0
  8 39  1  0
  9 40  1  0
  9 41  1  0
 10 42  1  0
 10 43  1  0
 11 44  1  1
 14 45  1  0
 15 46  1  0
 15 47  1  0
 16 48  1  6
 17 49  1  0
 18 50  1  0
 19 51  1  0
 19 52  1  0
 20 53  1  0
 20 54  1  0
 21 55  1  0
 22 56  1  0
 22 57  1  0
 23 58  1  0
 23 59  1  0
 25 60  1  0
 26 61  1  0
 28 62  1  0
 31 63  1  0
 32 64  1  0
M  END
>  <smiles>  (39) 
O=C(NCC(=O)N1CCC[C@H]1C(=O)NCC(O)C1CCNCC1)c1ccc2cc(F)ccc2n1

>  <score_type>  (39) 
oracle

>  <origin>  (39) 
autodockgpu

>  <m_score__min__energy>  (39) 
-8.9299999999999997

>  <m_primary>  (39) 
energy

>  <meeko>  (39) 
{"free_energy": -7.84, "intermolecular_energy": -10.53, "internal_energy": -4.47, "cluster_size": 2, "cluster_id": 4, "rank_in_cluster": 1}

>  <energy>  (39) 
-7.81

>  <cluster_rmsd>  (39) 
0.12

>  <rmsd>  (39) 
270.28

>  <cluster>  (39) 
4

$$$$

     RDKit          3D

 64 67  0  0  1  0  0  0  0  0999 V2000
  140.2530   73.0340  222.6450 O   0  0  0  0  0  0  0  0  0  0  0  0
  139.6240   71.9890  222.9530 C   0  0  0  0  0  0  0  0  0  0  0  0
  138.6200   71.4520  222.0910 N   0  0  0  0  0  0  0  0  0  0  0  0
  138.3160   72.1030  220.8560 C   0  0  0  0  0  0  0  0  0  0  0  0
  136.9300   72.6940  220.8690 C   0  0  0  0  0  0  0  0  0  0  0  0
  136.2530   72.4700  219.8200 O   0  0  0  0  0  0  0  0  0  0  0  0
  136.4380   73.4370  221.9690 N   0  0  0  0  0  0  0  0  0  0  0  0
  135.9330   72.7880  223.1910 C   0  0  0  0  0  0  0  0  0  0  0  0
  135.3370   73.9630  223.9860 C   0  0  0  0  0  0  0  0  0  0  0  0
  136.1980   75.1220  223.5350 C   0  0  0  0  0  0  0  0  0  0  0  0
  136.3510   74.8500  222.0580 C   0  0  1  0  0  0  0  0  0  0  0  0
  137.5890   75.5600  221.6370 C   0  0  0  0  0  0  0  0  0  0  0  0
  137.6260   76.4170  220.7240 O   0  0  0  0  0  0  0  0  0  0  0  0
  138.8230   75.2710  222.2920 N   0  0  0  0  0  0  0  0  0  0  0  0
  139.9880   75.9770  221.8550 C   0  0  0  0  0  0  0  0  0  0  0  0
  139.8360   77.4360  222.1100 C   0  0  1  0  0  0  0  0  0  0  0  0
  138.7560   77.7320  222.9450 O   0  0  0  0  0  0  0  0  0  0  0  0
  141.0820   78.1960  222.4060 C   0  0  0  0  0  0  0  0  0  0  0  0
  141.0400   79.0390  223.6250 C   0  0  0  0  0  0  0  0  0  0  0  0
  142.2960   79.8580  223.8240 C   0  0  0  0  0  0  0  0  0  0  0  0
  142.9800   80.1170  222.5740 N   0  0  0  0  0  0  0  0  0  0  0  0
  142.0070   80.3470  221.5340 C   0  0  0  0  0  0  0  0  0  0  0  0
  141.4550   78.9720  221.1580 C   0  0  0  0  0  0  0  0  0  0  0  0
  139.9270   71.3070  224.2270 C   0  0  0  0  0  0  0  0  0  0  0  0
  140.7090   71.9340  225.1600 C   0  0  0  0  0  0  0  0  0  0  0  0
  141.0500   71.3840  226.3790 C   0  0  0  0  0  0  0  0  0  0  0  0
  140.5490   70.1160  226.6380 C   0  0  0  0  0  0  0  0  0  0  0  0
  140.8760   69.5550  227.8410 C   0  0  0  0  0  0  0  0  0  0  0  0
  140.3910   68.2940  228.1270 C   0  0  0  0  0  0  0  0  0  0  0  0
  140.7220   67.7570  229.3160 F   0  0  0  0  0  0  0  0  0  0  0  0
  139.5910   67.6230  227.2050 C   0  0  0  0  0  0  0  0  0  0  0  0
  139.2870   68.2380  225.9940 C   0  0  0  0  0  0  0  0  0  0  0  0
  139.7640   69.5090  225.6840 C   0  0  0  0  0  0  0  0  0  0  0  0
  139.4560   70.0840  224.5030 N   0  0  0  0  0  0  0  0  0  0  0  0
  138.1120   70.5680  222.3870 H   0  0  0  0  0  0  0  0  0  0  0  0
  139.0462   72.9082  220.6873 H   0  0  0  0  0  0  0  0  0  0  0  0
  138.3644   71.3550  220.0509 H   0  0  0  0  0  0  0  0  0  0  0  0
  135.1619   72.0408  222.9520 H   0  0  0  0  0  0  0  0  0  0  0  0
  136.7105   72.2405  223.7440 H   0  0  0  0  0  0  0  0  0  0  0  0
  134.2807   74.1258  223.7258 H   0  0  0  0  0  0  0  0  0  0  0  0
  135.3409   73.8070  225.0749 H   0  0  0  0  0  0  0  0  0  0  0  0
  135.6963   76.0846  223.7134 H   0  0  0  0  0  0  0  0  0  0  0  0
  137.1553   75.1959  224.0718 H   0  0  0  0  0  0  0  0  0  0  0  0
  135.5359   75.1987  221.4068 H   0  0  0  0  0  0  0  0  0  0  0  0
  138.7800   74.5630  223.0530 H   0  0  0  0  0  0  0  0  0  0  0  0
  140.8655   75.6027  222.4026 H   0  0  0  0  0  0  0  0  0  0  0  0
  140.1196   75.8150  220.7750 H   0  0  0  0  0  0  0  0  0  0  0  0
  139.5743   77.8431  221.1222 H   0  0  0  0  0  0  0  0  0  0  0  0
  137.8830   77.6290  222.5350 H   0  0  0  0  0  0  0  0  0  0  0  0
  141.8693   77.4710  222.6600 H   0  0  0  0  0  0  0  0  0  0  0  0
  140.1836   79.7249  223.5469 H   0  0  0  0  0  0  0  0  0  0  0  0
  140.9492   78.3631  224.4881 H   0  0  0  0  0  0  0  0  0  0  0  0
  142.0238   80.8188  224.2853 H   0  0  0  0  0  0  0  0  0  0  0  0
  142.9763   79.2841  224.4704 H   0  0  0  0  0  0  0  0  0  0  0  0
  143.6360   79.3480  222.3250 H   0  0  0  0  0  0  0  0  0  0  0  0
  141.1986   80.9947  221.9040 H   0  0  0  0  0  0  0  0  0  0  0  0
  142.4581   80.8500  220.6659 H   0  0  0  0  0  0  0  0  0  0  0  0
  140.5615   79.0992  220.5291 H   0  0  0  0  0  0  0  0  0  0  0  0
  142.2270   78.4147  220.6072 H   0  0  0  0  0  0  0  0  0  0  0  0
  141.0891   72.9387  224.9231 H   0  0  0  0  0  0  0  0  0  0  0  0
  141.6819   71.9194  227.1029 H   0  0  0  0  0  0  0  0  0  0  0  0
  141.5086   70.0936  228.5619 H   0  0  0  0  0  0  0  0  0  0  0  0
  139.2039   66.6186  227.4314 H   0  0  0  0  0  0  0  0  0  0  0  0
  138.6558   67.7081  225.2654 H   0  0  0  0  0  0  0  0  0  0  0  0
  1  2  2  0
  2  3  1  0
  3  4  1  0
  4  5  1  0
  5  6  2  0
  5  7  1  0
  7  8  1  0
  8  9  1  0
  9 10  1  0
 10 11  1  0
 11 12  1  0
 12 13  2  0
 12 14  1  0
 14 15  1  0
 15 16  1  0
 16 17  1  0
 16 18  1  0
 18 19  1  0
 19 20  1  0
 20 21  1  0
 21 22  1  0
 22 23  1  0
  2 24  1  0
 24 25  2  0
 25 26  1  0
 26 27  2  0
 27 28  1  0
 28 29  2  0
 29 30  1  0
 29 31  1  0
 31 32  2  0
 32 33  1  0
 33 34  2  0
 11  7  1  0
 23 18  1  0
 34 24  1  0
 33 27  1  0
  3 35  1  0
  4 36  1  0
  4 37  1  0
  8 38  1  0
  8 39  1  0
  9 40  1  0
  9 41  1  0
 10 42  1  0
 10 43  1  0
 11 44  1  6
 14 45  1  0
 15 46  1  0
 15 47  1  0
 16 48  1  6
 17 49  1  0
 18 50  1  0
 19 51  1  0
 19 52  1  0
 20 53  1  0
 20 54  1  0
 21 55  1  0
 22 56  1  0
 22 57  1  0
 23 58  1  0
 23 59  1  0
 25 60  1  0
 26 61  1  0
 28 62  1  0
 31 63  1  0
 32 64  1  0
M  END
>  <smiles>  (40) 
O=C(NCC(=O)N1CCC[C@H]1C(=O)NCC(O)C1CCNCC1)c1ccc2cc(F)ccc2n1

>  <score_type>  (40) 
oracle

>  <origin>  (40) 
autodockgpu

>  <m_score__min__energy>  (40) 
-8.9299999999999997

>  <m_primary>  (40) 
energy

>  <meeko>  (40) 
{"free_energy": -8.49, "intermolecular_energy": -11.17, "internal_energy": -3.63, "cluster_size": 5, "cluster_id": 2, "rank_in_cluster": 1}

>  <energy>  (40) 
-5.7

>  <cluster_rmsd>  (40) 
0.0

>  <rmsd>  (40) 
270.01

>  <cluster>  (40) 
5

$$$$
